lig.pdb
 OpenBabel11021811453D
libRbt.so/2013.1/901 2013/11/27
 13 14  0  0  0  0  0  0  0  0999 V2000
    2.3134    3.5869   -4.4179 N   0  0  0  0  0  0  0  0  0  0  0  0
    3.5322    2.9901   -4.6291 C   0  0  0  0  0  0  0  0  0  0  0  0
    3.8402    1.8581   -4.0055 N   0  0  0  0  0  0  0  0  0  0  0  0
    2.9637    1.2541   -3.1446 C   0  0  0  0  0  0  0  0  0  0  0  0
    1.6980    1.8415   -2.8910 C   0  0  0  0  0  0  0  0  0  0  0  0
    1.3826    3.0526   -3.5702 C   0  0  0  0  0  0  0  0  0  0  0  0
    0.3105    3.6062   -3.4062 O   0  0  0  0  0  0  0  0  0  0  0  0
    1.0237    0.9826   -1.9176 C   0  0  0  0  0  0  0  0  0  0  0  0
   -0.3216    1.2137   -1.2844 C   0  0  0  0  0  0  0  0  0  0  0  0
   -1.3734    1.0907   -2.3033 N   0  0  0  0  0  0  0  0  0  0  0  0
    1.8581   -0.0382   -1.6834 C   0  0  0  0  0  0  0  0  0  0  0  0
    3.0149    0.1204   -2.3994 N   0  0  0  0  0  0  0  0  0  0  0  0
    4.4299    3.5603   -5.4929 N   0  0  0  0  0  0  0  0  0  0  0  0
  1  6  1  0  0  0  0
  2  1  1  0  0  0  0
  2  3  2  0  0  0  0
  3  4  1  0  0  0  0
  4  5  2  0  0  0  0
  4 12  1  0  0  0  0
  5  8  1  0  0  0  0
  6  7  2  0  0  0  0
  6  5  1  0  0  0  0
  8 11  2  0  0  0  0
  8  9  1  0  0  0  0
 10  9  1  0  0  0  0
 12 11  1  0  0  0  0
 13  2  1  0  0  0  0
M  END
>  <CHROM.1>
67.81299428,91.96878890,1.87075392,1.96738569,-3.20124396,0.70933152,0.29945578
-0.60788270

>  <Name>
lig.pdb

>  <RI>
1.459e+07

>  <Rbt.Current_Directory>
/home/itssahil/PROJECTS/Mol_Feturizer/New_Systems/rnas/2l1v

>  <Rbt.Executable>
rbdock ($Id: //depot/dev/client3/rdock/2013.1/src/exe/rbdock.cxx#4 $)

>  <Rbt.Library>
libRbt.so (2013.1, Build901 2013/11/27)

>  <Rbt.Parameter_File>
/export/apps/rDock/src/rDock_2013.1_src/data/scripts/dock_solv.prm

>  <Rbt.Receptor>
prm/pocket_docking_2.prm

>  <SCORE>
-64.2564

>  <SCORE.INTER>
-65.1696

>  <SCORE.INTER.CONST>
1

>  <SCORE.INTER.POLAR>
-6.67025

>  <SCORE.INTER.ROT>
2

>  <SCORE.INTER.SOLV>
18.8038

>  <SCORE.INTER.VDW>
-32.4135

>  <SCORE.INTER.norm>
-5.01304

>  <SCORE.INTRA>
0.91313

>  <SCORE.INTRA.DIHEDRAL>
0.00686454

>  <SCORE.INTRA.DIHEDRAL.0>
1.43995

>  <SCORE.INTRA.POLAR>
0.272593

>  <SCORE.INTRA.POLAR.0>
-0.272593

>  <SCORE.INTRA.REPUL>
0

>  <SCORE.INTRA.REPUL.0>
0

>  <SCORE.INTRA.SOLV>
-0.112599

>  <SCORE.INTRA.SOLV.lig_0>
-22.6728

>  <SCORE.INTRA.VDW>
0.0391821

>  <SCORE.INTRA.VDW.0>
-0.754459

>  <SCORE.INTRA.norm>
0.0702408

>  <SCORE.RESTR>
0

>  <SCORE.RESTR.CAVITY>
0

>  <SCORE.RESTR.norm>
0

>  <SCORE.SYSTEM>
0

>  <SCORE.SYSTEM.CONST>
0

>  <SCORE.SYSTEM.DIHEDRAL>
0

>  <SCORE.SYSTEM.SOLV>
0

>  <SCORE.SYSTEM.norm>
0

>  <SCORE.heavy>
13

>  <SCORE.norm>
-4.9428

>  <RMSD>
0.331

$$$$
lig.pdb
 OpenBabel11021811453D
libRbt.so/2013.1/901 2013/11/27
 13 14  0  0  0  0  0  0  0  0999 V2000
    2.3140    3.5881   -4.4097 N   0  0  0  0  0  0  0  0  0  0  0  0
    3.5367    2.9971   -4.6142 C   0  0  0  0  0  0  0  0  0  0  0  0
    3.8455    1.8652   -3.9909 N   0  0  0  0  0  0  0  0  0  0  0  0
    2.9660    1.2557   -3.1367 C   0  0  0  0  0  0  0  0  0  0  0  0
    1.6962    1.8371   -2.8902 C   0  0  0  0  0  0  0  0  0  0  0  0
    1.3800    3.0482   -3.5691 C   0  0  0  0  0  0  0  0  0  0  0  0
    0.3046    3.5969   -3.4110 O   0  0  0  0  0  0  0  0  0  0  0  0
    1.0194    0.9734   -1.9229 C   0  0  0  0  0  0  0  0  0  0  0  0
   -0.3310    1.1976   -1.2979 C   0  0  0  0  0  0  0  0  0  0  0  0
   -1.3733    1.1009   -2.3293 N   0  0  0  0  0  0  0  0  0  0  0  0
    1.8566   -0.0443   -1.6853 C   0  0  0  0  0  0  0  0  0  0  0  0
    3.0173    0.1207   -2.3935 N   0  0  0  0  0  0  0  0  0  0  0  0
    4.4375    3.5728   -5.4711 N   0  0  0  0  0  0  0  0  0  0  0  0
  1  6  1  0  0  0  0
  2  1  1  0  0  0  0
  2  3  2  0  0  0  0
  3  4  1  0  0  0  0
  4  5  2  0  0  0  0
  4 12  1  0  0  0  0
  5  8  1  0  0  0  0
  6  7  2  0  0  0  0
  6  5  1  0  0  0  0
  8 11  2  0  0  0  0
  8  9  1  0  0  0  0
 10  9  1  0  0  0  0
 12 11  1  0  0  0  0
 13  2  1  0  0  0  0
M  END
>  <CHROM.1>
66.59248247,-89.22729612,1.87041135,1.96715335,-3.19935793,0.70717610,0.29260935
-0.60667172

>  <Name>
lig.pdb

>  <RI>
4.02536e+07

>  <Rbt.Current_Directory>
/home/itssahil/PROJECTS/Mol_Feturizer/New_Systems/rnas/2l1v

>  <Rbt.Executable>
rbdock ($Id: //depot/dev/client3/rdock/2013.1/src/exe/rbdock.cxx#4 $)

>  <Rbt.Library>
libRbt.so (2013.1, Build901 2013/11/27)

>  <Rbt.Parameter_File>
/export/apps/rDock/src/rDock_2013.1_src/data/scripts/dock_solv.prm

>  <Rbt.Receptor>
prm/blind_docking_40.prm

>  <SCORE>
-64.1213

>  <SCORE.INTER>
-65.0953

>  <SCORE.INTER.CONST>
1

>  <SCORE.INTER.POLAR>
-6.69543

>  <SCORE.INTER.ROT>
2

>  <SCORE.INTER.SOLV>
18.8165

>  <SCORE.INTER.VDW>
-32.2843

>  <SCORE.INTER.norm>
-5.00733

>  <SCORE.INTRA>
0.97399

>  <SCORE.INTRA.DIHEDRAL>
0.115467

>  <SCORE.INTRA.DIHEDRAL.0>
1.43995

>  <SCORE.INTRA.POLAR>
0.272593

>  <SCORE.INTRA.POLAR.0>
-0.272593

>  <SCORE.INTRA.REPUL>
0

>  <SCORE.INTRA.REPUL.0>
0

>  <SCORE.INTRA.SOLV>
-0.10346

>  <SCORE.INTRA.SOLV.lig_0>
-22.6728

>  <SCORE.INTRA.VDW>
0.0411711

>  <SCORE.INTRA.VDW.0>
-0.754459

>  <SCORE.INTRA.norm>
0.0749223

>  <SCORE.RESTR>
0

>  <SCORE.RESTR.CAVITY>
0

>  <SCORE.RESTR.norm>
0

>  <SCORE.SYSTEM>
0

>  <SCORE.SYSTEM.CONST>
0

>  <SCORE.SYSTEM.DIHEDRAL>
0

>  <SCORE.SYSTEM.SOLV>
0

>  <SCORE.SYSTEM.norm>
0

>  <SCORE.heavy>
13

>  <SCORE.norm>
-4.93241

>  <RMSD>
0.332

$$$$
lig.pdb
 OpenBabel11021811453D
libRbt.so/2013.1/901 2013/11/27
 13 14  0  0  0  0  0  0  0  0999 V2000
    2.3420    3.5703   -4.3808 N   0  0  0  0  0  0  0  0  0  0  0  0
    3.5518    2.9629   -4.6123 C   0  0  0  0  0  0  0  0  0  0  0  0
    3.8522    1.8179   -4.0091 N   0  0  0  0  0  0  0  0  0  0  0  0
    2.9766    1.2108   -3.1494 C   0  0  0  0  0  0  0  0  0  0  0  0
    1.7202    1.8086   -2.8752 C   0  0  0  0  0  0  0  0  0  0  0  0
    1.4128    3.0337   -3.5328 C   0  0  0  0  0  0  0  0  0  0  0  0
    0.3487    3.5969   -3.3505 O   0  0  0  0  0  0  0  0  0  0  0  0
    1.0448    0.9426   -1.9090 C   0  0  0  0  0  0  0  0  0  0  0  0
   -0.2921    1.1793   -1.2600 C   0  0  0  0  0  0  0  0  0  0  0  0
   -1.3549    1.0780   -2.2698 N   0  0  0  0  0  0  0  0  0  0  0  0
    1.8693   -0.0913   -1.6982 C   0  0  0  0  0  0  0  0  0  0  0  0
    3.0213    0.0651   -2.4223 N   0  0  0  0  0  0  0  0  0  0  0  0
    4.4482    3.5360   -5.4755 N   0  0  0  0  0  0  0  0  0  0  0  0
  1  6  1  0  0  0  0
  2  1  1  0  0  0  0
  2  3  2  0  0  0  0
  3  4  1  0  0  0  0
  4  5  2  0  0  0  0
  4 12  1  0  0  0  0
  5  8  1  0  0  0  0
  6  7  2  0  0  0  0
  6  5  1  0  0  0  0
  8 11  2  0  0  0  0
  8  9  1  0  0  0  0
 10  9  1  0  0  0  0
 12 11  1  0  0  0  0
 13  2  1  0  0  0  0
M  END
>  <CHROM.1>
68.07563485,91.76963923,1.89151008,1.93675102,-3.18499650,0.70505271,0.31333511
-0.59087598

>  <Name>
lig.pdb

>  <RI>
1.75485e+07

>  <Rbt.Current_Directory>
/home/itssahil/PROJECTS/Mol_Feturizer/New_Systems/rnas/2l1v

>  <Rbt.Executable>
rbdock ($Id: //depot/dev/client3/rdock/2013.1/src/exe/rbdock.cxx#4 $)

>  <Rbt.Library>
libRbt.so (2013.1, Build901 2013/11/27)

>  <Rbt.Parameter_File>
/export/apps/rDock/src/rDock_2013.1_src/data/scripts/dock_solv.prm

>  <Rbt.Receptor>
prm/pocket_docking_4.prm

>  <SCORE>
-64.1057

>  <SCORE.INTER>
-65.0469

>  <SCORE.INTER.CONST>
1

>  <SCORE.INTER.POLAR>
-6.70992

>  <SCORE.INTER.ROT>
2

>  <SCORE.INTER.SOLV>
18.7381

>  <SCORE.INTER.VDW>
-32.1776

>  <SCORE.INTER.norm>
-5.00361

>  <SCORE.INTRA>
0.915624

>  <SCORE.INTRA.DIHEDRAL>
0.012219

>  <SCORE.INTRA.DIHEDRAL.0>
1.43995

>  <SCORE.INTRA.POLAR>
0.272593

>  <SCORE.INTRA.POLAR.0>
-0.272593

>  <SCORE.INTRA.REPUL>
0

>  <SCORE.INTRA.REPUL.0>
0

>  <SCORE.INTRA.SOLV>
-0.115237

>  <SCORE.INTRA.SOLV.lig_0>
-22.6728

>  <SCORE.INTRA.VDW>
0.0403182

>  <SCORE.INTRA.VDW.0>
-0.754459

>  <SCORE.INTRA.norm>
0.0704326

>  <SCORE.RESTR>
0.0256259

>  <SCORE.RESTR.CAVITY>
0.0256259

>  <SCORE.RESTR.norm>
0.00197122

>  <SCORE.SYSTEM>
0

>  <SCORE.SYSTEM.CONST>
0

>  <SCORE.SYSTEM.DIHEDRAL>
0

>  <SCORE.SYSTEM.SOLV>
0

>  <SCORE.SYSTEM.norm>
0

>  <SCORE.heavy>
13

>  <SCORE.norm>
-4.93121

>  <RMSD>
0.333

$$$$
lig.pdb
 OpenBabel11021811453D
libRbt.so/2013.1/901 2013/11/27
 13 14  0  0  0  0  0  0  0  0999 V2000
    2.3245    3.5476   -4.3715 N   0  0  0  0  0  0  0  0  0  0  0  0
    3.5537    2.9643   -4.5578 C   0  0  0  0  0  0  0  0  0  0  0  0
    3.8650    1.8409   -3.9205 N   0  0  0  0  0  0  0  0  0  0  0  0
    2.9817    1.2328   -3.0694 C   0  0  0  0  0  0  0  0  0  0  0  0
    1.7050    1.8065   -2.8413 C   0  0  0  0  0  0  0  0  0  0  0  0
    1.3863    3.0085   -3.5351 C   0  0  0  0  0  0  0  0  0  0  0  0
    0.3050    3.5501   -3.3931 O   0  0  0  0  0  0  0  0  0  0  0  0
    1.0252    0.9468   -1.8725 C   0  0  0  0  0  0  0  0  0  0  0  0
   -0.3332    1.1662   -1.2634 C   0  0  0  0  0  0  0  0  0  0  0  0
   -1.3607    1.0937   -2.3115 N   0  0  0  0  0  0  0  0  0  0  0  0
    1.8678   -0.0620   -1.6167 C   0  0  0  0  0  0  0  0  0  0  0  0
    3.0344    0.1054   -2.3148 N   0  0  0  0  0  0  0  0  0  0  0  0
    4.4586    3.5389   -5.4112 N   0  0  0  0  0  0  0  0  0  0  0  0
  1  6  1  0  0  0  0
  2  1  1  0  0  0  0
  2  3  2  0  0  0  0
  3  4  1  0  0  0  0
  4  5  2  0  0  0  0
  4 12  1  0  0  0  0
  5  8  1  0  0  0  0
  6  7  2  0  0  0  0
  6  5  1  0  0  0  0
  8 11  2  0  0  0  0
  8  9  1  0  0  0  0
 10  9  1  0  0  0  0
 12 11  1  0  0  0  0
 13  2  1  0  0  0  0
M  END
>  <CHROM.1>
64.81474811,-88.64049876,1.88163734,1.93883610,-3.15062898,0.70555330,0.28112637
-0.61768854

>  <Name>
lig.pdb

>  <RI>
1.75485e+07

>  <Rbt.Current_Directory>
/home/itssahil/PROJECTS/Mol_Feturizer/New_Systems/rnas/2l1v

>  <Rbt.Executable>
rbdock ($Id: //depot/dev/client3/rdock/2013.1/src/exe/rbdock.cxx#4 $)

>  <Rbt.Library>
libRbt.so (2013.1, Build901 2013/11/27)

>  <Rbt.Parameter_File>
/export/apps/rDock/src/rDock_2013.1_src/data/scripts/dock_solv.prm

>  <Rbt.Receptor>
prm/pocket_docking_4.prm

>  <SCORE>
-64.0171

>  <SCORE.INTER>
-65.0153

>  <SCORE.INTER.CONST>
1

>  <SCORE.INTER.POLAR>
-6.76378

>  <SCORE.INTER.ROT>
2

>  <SCORE.INTER.SOLV>
18.5558

>  <SCORE.INTER.VDW>
-31.9162

>  <SCORE.INTER.norm>
-5.00118

>  <SCORE.INTRA>
0.963536

>  <SCORE.INTRA.DIHEDRAL>
0.0897167

>  <SCORE.INTRA.DIHEDRAL.0>
1.43995

>  <SCORE.INTRA.POLAR>
0.272593

>  <SCORE.INTRA.POLAR.0>
-0.272593

>  <SCORE.INTRA.REPUL>
0

>  <SCORE.INTRA.REPUL.0>
0

>  <SCORE.INTRA.SOLV>
-0.0860448

>  <SCORE.INTRA.SOLV.lig_0>
-22.6728

>  <SCORE.INTRA.VDW>
0.0348846

>  <SCORE.INTRA.VDW.0>
-0.754459

>  <SCORE.INTRA.norm>
0.0741181

>  <SCORE.RESTR>
0.0347186

>  <SCORE.RESTR.CAVITY>
0.0347186

>  <SCORE.RESTR.norm>
0.00267066

>  <SCORE.SYSTEM>
0

>  <SCORE.SYSTEM.CONST>
0

>  <SCORE.SYSTEM.DIHEDRAL>
0

>  <SCORE.SYSTEM.SOLV>
0

>  <SCORE.SYSTEM.norm>
0

>  <SCORE.heavy>
13

>  <SCORE.norm>
-4.92439

>  <RMSD>
0.345

$$$$
lig.pdb
 OpenBabel11021811453D
libRbt.so/2013.1/901 2013/11/27
 13 14  0  0  0  0  0  0  0  0999 V2000
    2.3029    3.5607   -4.3948 N   0  0  0  0  0  0  0  0  0  0  0  0
    3.5268    2.9655   -4.5791 C   0  0  0  0  0  0  0  0  0  0  0  0
    3.8283    1.8423   -3.9369 N   0  0  0  0  0  0  0  0  0  0  0  0
    2.9400    1.2459   -3.0826 C   0  0  0  0  0  0  0  0  0  0  0  0
    1.6686    1.8321   -2.8565 C   0  0  0  0  0  0  0  0  0  0  0  0
    1.3603    3.0338   -3.5555 C   0  0  0  0  0  0  0  0  0  0  0  0
    0.2840    3.5857   -3.4155 O   0  0  0  0  0  0  0  0  0  0  0  0
    0.9816    0.9829   -1.8835 C   0  0  0  0  0  0  0  0  0  0  0  0
   -0.3745    1.2174   -1.2748 C   0  0  0  0  0  0  0  0  0  0  0  0
   -1.4074    1.1027   -2.3137 N   0  0  0  0  0  0  0  0  0  0  0  0
    1.8152   -0.0322   -1.6236 C   0  0  0  0  0  0  0  0  0  0  0  0
    2.9828    0.1215   -2.3229 N   0  0  0  0  0  0  0  0  0  0  0  0
    4.4364    3.5281   -5.4355 N   0  0  0  0  0  0  0  0  0  0  0  0
  1  6  1  0  0  0  0
  2  1  1  0  0  0  0
  2  3  2  0  0  0  0
  3  4  1  0  0  0  0
  4  5  2  0  0  0  0
  4 12  1  0  0  0  0
  5  8  1  0  0  0  0
  6  7  2  0  0  0  0
  6  5  1  0  0  0  0
  8 11  2  0  0  0  0
  8  9  1  0  0  0  0
 10  9  1  0  0  0  0
 12 11  1  0  0  0  0
 13  2  1  0  0  0  0
M  END
>  <CHROM.1>
66.78397932,91.71314438,1.84609304,1.95705386,-3.16596847,0.70113206,0.28522623
-0.61886731

>  <Name>
lig.pdb

>  <RI>
1.459e+07

>  <Rbt.Current_Directory>
/home/itssahil/PROJECTS/Mol_Feturizer/New_Systems/rnas/2l1v

>  <Rbt.Executable>
rbdock ($Id: //depot/dev/client3/rdock/2013.1/src/exe/rbdock.cxx#4 $)

>  <Rbt.Library>
libRbt.so (2013.1, Build901 2013/11/27)

>  <Rbt.Parameter_File>
/export/apps/rDock/src/rDock_2013.1_src/data/scripts/dock_solv.prm

>  <Rbt.Receptor>
prm/pocket_docking_2.prm

>  <SCORE>
-64.2688

>  <SCORE.INTER>
-65.1735

>  <SCORE.INTER.CONST>
1

>  <SCORE.INTER.POLAR>
-6.68663

>  <SCORE.INTER.ROT>
2

>  <SCORE.INTER.SOLV>
18.6999

>  <SCORE.INTER.VDW>
-32.3269

>  <SCORE.INTER.norm>
-5.01335

>  <SCORE.INTRA>
0.90474

>  <SCORE.INTRA.DIHEDRAL>
-0.0127794

>  <SCORE.INTRA.DIHEDRAL.0>
1.43995

>  <SCORE.INTRA.POLAR>
0.272593

>  <SCORE.INTRA.POLAR.0>
-0.272593

>  <SCORE.INTRA.REPUL>
0

>  <SCORE.INTRA.REPUL.0>
0

>  <SCORE.INTRA.SOLV>
-0.102613

>  <SCORE.INTRA.SOLV.lig_0>
-22.6728

>  <SCORE.INTRA.VDW>
0.0356213

>  <SCORE.INTRA.VDW.0>
-0.754459

>  <SCORE.INTRA.norm>
0.0695954

>  <SCORE.RESTR>
0

>  <SCORE.RESTR.CAVITY>
0

>  <SCORE.RESTR.norm>
0

>  <SCORE.SYSTEM>
0

>  <SCORE.SYSTEM.CONST>
0

>  <SCORE.SYSTEM.DIHEDRAL>
0

>  <SCORE.SYSTEM.SOLV>
0

>  <SCORE.SYSTEM.norm>
0

>  <SCORE.heavy>
13

>  <SCORE.norm>
-4.94375

>  <RMSD>
0.347

$$$$
lig.pdb
 OpenBabel11021811453D
libRbt.so/2013.1/901 2013/11/27
 13 14  0  0  0  0  0  0  0  0999 V2000
    2.3050    3.5547   -4.3773 N   0  0  0  0  0  0  0  0  0  0  0  0
    3.5300    2.9618   -4.5615 C   0  0  0  0  0  0  0  0  0  0  0  0
    3.8319    1.8367   -3.9228 N   0  0  0  0  0  0  0  0  0  0  0  0
    2.9429    1.2361   -3.0723 C   0  0  0  0  0  0  0  0  0  0  0  0
    1.6703    1.8197   -2.8464 C   0  0  0  0  0  0  0  0  0  0  0  0
    1.3616    3.0235   -3.5416 C   0  0  0  0  0  0  0  0  0  0  0  0
    0.2843    3.5735   -3.4016 O   0  0  0  0  0  0  0  0  0  0  0  0
    0.9826    0.9661   -1.8778 C   0  0  0  0  0  0  0  0  0  0  0  0
   -0.3749    1.1965   -1.2707 C   0  0  0  0  0  0  0  0  0  0  0  0
   -1.4049    1.0950   -2.3139 N   0  0  0  0  0  0  0  0  0  0  0  0
    1.8172   -0.0488   -1.6199 C   0  0  0  0  0  0  0  0  0  0  0  0
    2.9858    0.1090   -2.3166 N   0  0  0  0  0  0  0  0  0  0  0  0
    4.4404    3.5287   -5.4141 N   0  0  0  0  0  0  0  0  0  0  0  0
  1  6  1  0  0  0  0
  2  1  1  0  0  0  0
  2  3  2  0  0  0  0
  3  4  1  0  0  0  0
  4  5  2  0  0  0  0
  4 12  1  0  0  0  0
  5  8  1  0  0  0  0
  6  7  2  0  0  0  0
  6  5  1  0  0  0  0
  8 11  2  0  0  0  0
  8  9  1  0  0  0  0
 10  9  1  0  0  0  0
 12 11  1  0  0  0  0
 13  2  1  0  0  0  0
M  END
>  <CHROM.1>
66.32664831,92.08666822,1.84821256,1.94701611,-3.15528173,0.70060017,0.28324126
-0.61559822

>  <Name>
lig.pdb

>  <RI>
1.459e+07

>  <Rbt.Current_Directory>
/home/itssahil/PROJECTS/Mol_Feturizer/New_Systems/rnas/2l1v

>  <Rbt.Executable>
rbdock ($Id: //depot/dev/client3/rdock/2013.1/src/exe/rbdock.cxx#4 $)

>  <Rbt.Library>
libRbt.so (2013.1, Build901 2013/11/27)

>  <Rbt.Parameter_File>
/export/apps/rDock/src/rDock_2013.1_src/data/scripts/dock_solv.prm

>  <Rbt.Receptor>
prm/pocket_docking_2.prm

>  <SCORE>
-64.2342

>  <SCORE.INTER>
-65.1356

>  <SCORE.INTER.CONST>
1

>  <SCORE.INTER.POLAR>
-6.70638

>  <SCORE.INTER.ROT>
2

>  <SCORE.INTER.SOLV>
18.6481

>  <SCORE.INTER.VDW>
-32.2185

>  <SCORE.INTER.norm>
-5.01043

>  <SCORE.INTRA>
0.901389

>  <SCORE.INTRA.DIHEDRAL>
-0.0202781

>  <SCORE.INTRA.DIHEDRAL.0>
1.43995

>  <SCORE.INTRA.POLAR>
0.272593

>  <SCORE.INTRA.POLAR.0>
-0.272593

>  <SCORE.INTRA.REPUL>
0

>  <SCORE.INTRA.REPUL.0>
0

>  <SCORE.INTRA.SOLV>
-0.098036

>  <SCORE.INTRA.SOLV.lig_0>
-22.6728

>  <SCORE.INTRA.VDW>
0.0337311

>  <SCORE.INTRA.VDW.0>
-0.754459

>  <SCORE.INTRA.norm>
0.0693376

>  <SCORE.RESTR>
0

>  <SCORE.RESTR.CAVITY>
0

>  <SCORE.RESTR.norm>
0

>  <SCORE.SYSTEM>
0

>  <SCORE.SYSTEM.CONST>
0

>  <SCORE.SYSTEM.DIHEDRAL>
0

>  <SCORE.SYSTEM.SOLV>
0

>  <SCORE.SYSTEM.norm>
0

>  <SCORE.heavy>
13

>  <SCORE.norm>
-4.94109

>  <RMSD>
0.348

$$$$
lig.pdb
 OpenBabel11021811453D
libRbt.so/2013.1/901 2013/11/27
 13 14  0  0  0  0  0  0  0  0999 V2000
    2.3393    3.5487   -4.3645 N   0  0  0  0  0  0  0  0  0  0  0  0
    3.5557    2.9468   -4.5747 C   0  0  0  0  0  0  0  0  0  0  0  0
    3.8583    1.8133   -3.9512 N   0  0  0  0  0  0  0  0  0  0  0  0
    2.9784    1.2129   -3.0911 C   0  0  0  0  0  0  0  0  0  0  0  0
    1.7151    1.8056   -2.8385 C   0  0  0  0  0  0  0  0  0  0  0  0
    1.4055    3.0182   -3.5177 C   0  0  0  0  0  0  0  0  0  0  0  0
    0.3356    3.5763   -3.3546 O   0  0  0  0  0  0  0  0  0  0  0  0
    1.0363    0.9493   -1.8660 C   0  0  0  0  0  0  0  0  0  0  0  0
   -0.3087    1.1861   -1.2339 C   0  0  0  0  0  0  0  0  0  0  0  0
   -1.3594    1.0757   -2.2553 N   0  0  0  0  0  0  0  0  0  0  0  0
    1.8660   -0.0751   -1.6313 C   0  0  0  0  0  0  0  0  0  0  0  0
    3.0241    0.0787   -2.3463 N   0  0  0  0  0  0  0  0  0  0  0  0
    4.4566    3.5134   -5.4376 N   0  0  0  0  0  0  0  0  0  0  0  0
  1  6  1  0  0  0  0
  2  1  1  0  0  0  0
  2  3  2  0  0  0  0
  3  4  1  0  0  0  0
  4  5  2  0  0  0  0
  4 12  1  0  0  0  0
  5  8  1  0  0  0  0
  6  7  2  0  0  0  0
  6  5  1  0  0  0  0
  8 11  2  0  0  0  0
  8  9  1  0  0  0  0
 10  9  1  0  0  0  0
 12 11  1  0  0  0  0
 13  2  1  0  0  0  0
M  END
>  <CHROM.1>
67.48026745,92.02094778,1.88869640,1.93153960,-3.14874790,0.70468560,0.30137610
-0.60660950

>  <Name>
lig.pdb

>  <RI>
1.75485e+07

>  <Rbt.Current_Directory>
/home/itssahil/PROJECTS/Mol_Feturizer/New_Systems/rnas/2l1v

>  <Rbt.Executable>
rbdock ($Id: //depot/dev/client3/rdock/2013.1/src/exe/rbdock.cxx#4 $)

>  <Rbt.Library>
libRbt.so (2013.1, Build901 2013/11/27)

>  <Rbt.Parameter_File>
/export/apps/rDock/src/rDock_2013.1_src/data/scripts/dock_solv.prm

>  <Rbt.Receptor>
prm/pocket_docking_4.prm

>  <SCORE>
-64.1236

>  <SCORE.INTER>
-65.0552

>  <SCORE.INTER.CONST>
1

>  <SCORE.INTER.POLAR>
-6.74023

>  <SCORE.INTER.ROT>
2

>  <SCORE.INTER.SOLV>
18.567

>  <SCORE.INTER.VDW>
-32.025

>  <SCORE.INTER.norm>
-5.00425

>  <SCORE.INTRA>
0.910189

>  <SCORE.INTRA.DIHEDRAL>
0.000255664

>  <SCORE.INTRA.DIHEDRAL.0>
1.43995

>  <SCORE.INTRA.POLAR>
0.272593

>  <SCORE.INTRA.POLAR.0>
-0.272593

>  <SCORE.INTRA.REPUL>
0

>  <SCORE.INTRA.REPUL.0>
0

>  <SCORE.INTRA.SOLV>
-0.109322

>  <SCORE.INTRA.SOLV.lig_0>
-22.6728

>  <SCORE.INTRA.VDW>
0.0379073

>  <SCORE.INTRA.VDW.0>
-0.754459

>  <SCORE.INTRA.norm>
0.0700145

>  <SCORE.RESTR>
0.0213986

>  <SCORE.RESTR.CAVITY>
0.0213986

>  <SCORE.RESTR.norm>
0.00164604

>  <SCORE.SYSTEM>
0

>  <SCORE.SYSTEM.CONST>
0

>  <SCORE.SYSTEM.DIHEDRAL>
0

>  <SCORE.SYSTEM.SOLV>
0

>  <SCORE.SYSTEM.norm>
0

>  <SCORE.heavy>
13

>  <SCORE.norm>
-4.93259

>  <RMSD>
0.348

$$$$
lig.pdb
 OpenBabel11021811453D
libRbt.so/2013.1/901 2013/11/27
 13 14  0  0  0  0  0  0  0  0999 V2000
    2.3366    3.5602   -4.3551 N   0  0  0  0  0  0  0  0  0  0  0  0
    3.5580    2.9655   -4.5567 C   0  0  0  0  0  0  0  0  0  0  0  0
    3.8594    1.8291   -3.9379 N   0  0  0  0  0  0  0  0  0  0  0  0
    2.9734    1.2186   -3.0913 C   0  0  0  0  0  0  0  0  0  0  0  0
    1.7047    1.8037   -2.8478 C   0  0  0  0  0  0  0  0  0  0  0  0
    1.3965    3.0196   -3.5218 C   0  0  0  0  0  0  0  0  0  0  0  0
    0.3224    3.5716   -3.3660 O   0  0  0  0  0  0  0  0  0  0  0  0
    1.0199    0.9375   -1.8883 C   0  0  0  0  0  0  0  0  0  0  0  0
   -0.3327    1.1637   -1.2687 C   0  0  0  0  0  0  0  0  0  0  0  0
   -1.3687    1.0948   -2.3086 N   0  0  0  0  0  0  0  0  0  0  0  0
    1.8520   -0.0847   -1.6521 C   0  0  0  0  0  0  0  0  0  0  0  0
    3.0167    0.0795   -2.3538 N   0  0  0  0  0  0  0  0  0  0  0  0
    4.4651    3.5422   -5.4062 N   0  0  0  0  0  0  0  0  0  0  0  0
  1  6  1  0  0  0  0
  2  1  1  0  0  0  0
  2  3  2  0  0  0  0
  3  4  1  0  0  0  0
  4  5  2  0  0  0  0
  4 12  1  0  0  0  0
  5  8  1  0  0  0  0
  6  7  2  0  0  0  0
  6  5  1  0  0  0  0
  8 11  2  0  0  0  0
  8  9  1  0  0  0  0
 10  9  1  0  0  0  0
 12 11  1  0  0  0  0
 13  2  1  0  0  0  0
M  END
>  <CHROM.1>
65.82551544,92.72528331,1.88132178,1.93627746,-3.15592544,0.70039109,0.29127230
-0.60019204

>  <Name>
lig.pdb

>  <RI>
1.75485e+07

>  <Rbt.Current_Directory>
/home/itssahil/PROJECTS/Mol_Feturizer/New_Systems/rnas/2l1v

>  <Rbt.Executable>
rbdock ($Id: //depot/dev/client3/rdock/2013.1/src/exe/rbdock.cxx#4 $)

>  <Rbt.Library>
libRbt.so (2013.1, Build901 2013/11/27)

>  <Rbt.Parameter_File>
/export/apps/rDock/src/rDock_2013.1_src/data/scripts/dock_solv.prm

>  <Rbt.Receptor>
prm/pocket_docking_4.prm

>  <SCORE>
-64.0861

>  <SCORE.INTER>
-65.0059

>  <SCORE.INTER.CONST>
1

>  <SCORE.INTER.POLAR>
-6.7675

>  <SCORE.INTER.ROT>
2

>  <SCORE.INTER.SOLV>
18.6231

>  <SCORE.INTER.VDW>
-31.9199

>  <SCORE.INTER.norm>
-5.00045

>  <SCORE.INTRA>
0.898059

>  <SCORE.INTRA.DIHEDRAL>
-0.0276197

>  <SCORE.INTRA.DIHEDRAL.0>
1.43995

>  <SCORE.INTRA.POLAR>
0.272593

>  <SCORE.INTRA.POLAR.0>
-0.272593

>  <SCORE.INTRA.REPUL>
0

>  <SCORE.INTRA.REPUL.0>
0

>  <SCORE.INTRA.SOLV>
-0.0929608

>  <SCORE.INTRA.SOLV.lig_0>
-22.6728

>  <SCORE.INTRA.VDW>
0.0315344

>  <SCORE.INTRA.VDW.0>
-0.754459

>  <SCORE.INTRA.norm>
0.0690815

>  <SCORE.RESTR>
0.0217318

>  <SCORE.RESTR.CAVITY>
0.0217318

>  <SCORE.RESTR.norm>
0.00167168

>  <SCORE.SYSTEM>
0

>  <SCORE.SYSTEM.CONST>
0

>  <SCORE.SYSTEM.DIHEDRAL>
0

>  <SCORE.SYSTEM.SOLV>
0

>  <SCORE.SYSTEM.norm>
0

>  <SCORE.heavy>
13

>  <SCORE.norm>
-4.9297

>  <RMSD>
0.348

$$$$
lig.pdb
 OpenBabel11021811453D
libRbt.so/2013.1/901 2013/11/27
 13 14  0  0  0  0  0  0  0  0999 V2000
    2.3076    3.5580   -4.3740 N   0  0  0  0  0  0  0  0  0  0  0  0
    3.5370    2.9733   -4.5558 C   0  0  0  0  0  0  0  0  0  0  0  0
    3.8449    1.8500   -3.9168 N   0  0  0  0  0  0  0  0  0  0  0  0
    2.9581    1.2432   -3.0684 C   0  0  0  0  0  0  0  0  0  0  0  0
    1.6812    1.8183   -2.8450 C   0  0  0  0  0  0  0  0  0  0  0  0
    1.3660    3.0203   -3.5406 C   0  0  0  0  0  0  0  0  0  0  0  0
    0.2848    3.5631   -3.4027 O   0  0  0  0  0  0  0  0  0  0  0  0
    0.9971    0.9599   -1.8781 C   0  0  0  0  0  0  0  0  0  0  0  0
   -0.3632    1.1811   -1.2738 C   0  0  0  0  0  0  0  0  0  0  0  0
   -1.3881    1.0981   -2.3236 N   0  0  0  0  0  0  0  0  0  0  0  0
    1.8378   -0.0495   -1.6188 C   0  0  0  0  0  0  0  0  0  0  0  0
    3.0069    0.1162   -2.3129 N   0  0  0  0  0  0  0  0  0  0  0  0
    4.4454    3.5464   -5.4064 N   0  0  0  0  0  0  0  0  0  0  0  0
  1  6  1  0  0  0  0
  2  1  1  0  0  0  0
  2  3  2  0  0  0  0
  3  4  1  0  0  0  0
  4  5  2  0  0  0  0
  4 12  1  0  0  0  0
  5  8  1  0  0  0  0
  6  7  2  0  0  0  0
  6  5  1  0  0  0  0
  8 11  2  0  0  0  0
  8  9  1  0  0  0  0
 10  9  1  0  0  0  0
 12 11  1  0  0  0  0
 13  2  1  0  0  0  0
M  END
>  <CHROM.1>
65.27568276,-89.11200942,1.85886642,1.94933424,-3.15362574,0.70318164,0.27856284
-0.61715268

>  <Name>
lig.pdb

>  <RI>
2.86608e+07

>  <Rbt.Current_Directory>
/home/itssahil/PROJECTS/Mol_Feturizer/New_Systems/rnas/2l1v

>  <Rbt.Executable>
rbdock ($Id: //depot/dev/client3/rdock/2013.1/src/exe/rbdock.cxx#4 $)

>  <Rbt.Library>
libRbt.so (2013.1, Build901 2013/11/27)

>  <Rbt.Parameter_File>
/export/apps/rDock/src/rDock_2013.1_src/data/scripts/dock_solv.prm

>  <Rbt.Receptor>
prm/pocket_docking_7.prm

>  <SCORE>
-64.0975

>  <SCORE.INTER>
-65.0635

>  <SCORE.INTER.CONST>
1

>  <SCORE.INTER.POLAR>
-6.72856

>  <SCORE.INTER.ROT>
2

>  <SCORE.INTER.SOLV>
18.6281

>  <SCORE.INTER.VDW>
-32.0899

>  <SCORE.INTER.norm>
-5.00489

>  <SCORE.INTRA>
0.966012

>  <SCORE.INTRA.DIHEDRAL>
0.095634

>  <SCORE.INTRA.DIHEDRAL.0>
1.43995

>  <SCORE.INTRA.POLAR>
0.272593

>  <SCORE.INTRA.POLAR.0>
-0.272593

>  <SCORE.INTRA.REPUL>
0

>  <SCORE.INTRA.REPUL.0>
0

>  <SCORE.INTRA.SOLV>
-0.0906728

>  <SCORE.INTRA.SOLV.lig_0>
-22.6728

>  <SCORE.INTRA.VDW>
0.0367162

>  <SCORE.INTRA.VDW.0>
-0.754459

>  <SCORE.INTRA.norm>
0.0743086

>  <SCORE.RESTR>
0

>  <SCORE.RESTR.CAVITY>
0

>  <SCORE.RESTR.norm>
0

>  <SCORE.SYSTEM>
0

>  <SCORE.SYSTEM.CONST>
0

>  <SCORE.SYSTEM.DIHEDRAL>
0

>  <SCORE.SYSTEM.SOLV>
0

>  <SCORE.SYSTEM.norm>
0

>  <SCORE.heavy>
13

>  <SCORE.norm>
-4.93058

>  <RMSD>
0.348

$$$$
lig.pdb
 OpenBabel11021811453D
libRbt.so/2013.1/901 2013/11/27
 13 14  0  0  0  0  0  0  0  0999 V2000
    2.3088    3.5665   -4.3926 N   0  0  0  0  0  0  0  0  0  0  0  0
    3.5345    2.9743   -4.5749 C   0  0  0  0  0  0  0  0  0  0  0  0
    3.8374    1.8514   -3.9328 N   0  0  0  0  0  0  0  0  0  0  0  0
    2.9488    1.2524   -3.0807 C   0  0  0  0  0  0  0  0  0  0  0  0
    1.6756    1.8354   -2.8567 C   0  0  0  0  0  0  0  0  0  0  0  0
    1.3659    3.0368   -3.5555 C   0  0  0  0  0  0  0  0  0  0  0  0
    0.2880    3.5861   -3.4172 O   0  0  0  0  0  0  0  0  0  0  0  0
    0.9887    0.9839   -1.8856 C   0  0  0  0  0  0  0  0  0  0  0  0
   -0.3691    1.2148   -1.2794 C   0  0  0  0  0  0  0  0  0  0  0  0
   -1.3994    1.1026   -2.3212 N   0  0  0  0  0  0  0  0  0  0  0  0
    1.8242   -0.0293   -1.6247 C   0  0  0  0  0  0  0  0  0  0  0  0
    2.9928    0.1276   -2.3217 N   0  0  0  0  0  0  0  0  0  0  0  0
    4.4444    3.5396   -5.4291 N   0  0  0  0  0  0  0  0  0  0  0  0
  1  6  1  0  0  0  0
  2  1  1  0  0  0  0
  2  3  2  0  0  0  0
  3  4  1  0  0  0  0
  4  5  2  0  0  0  0
  4 12  1  0  0  0  0
  5  8  1  0  0  0  0
  6  7  2  0  0  0  0
  6  5  1  0  0  0  0
  8 11  2  0  0  0  0
  8  9  1  0  0  0  0
 10  9  1  0  0  0  0
 12 11  1  0  0  0  0
 13  2  1  0  0  0  0
M  END
>  <CHROM.1>
66.60586191,-89.66213217,1.85319127,1.96142804,-3.16557070,0.70132314,0.28249056
-0.61851365

>  <Name>
lig.pdb

>  <RI>
4.02536e+07

>  <Rbt.Current_Directory>
/home/itssahil/PROJECTS/Mol_Feturizer/New_Systems/rnas/2l1v

>  <Rbt.Executable>
rbdock ($Id: //depot/dev/client3/rdock/2013.1/src/exe/rbdock.cxx#4 $)

>  <Rbt.Library>
libRbt.so (2013.1, Build901 2013/11/27)

>  <Rbt.Parameter_File>
/export/apps/rDock/src/rDock_2013.1_src/data/scripts/dock_solv.prm

>  <Rbt.Receptor>
prm/blind_docking_40.prm

>  <SCORE>
-64.1156

>  <SCORE.INTER>
-65.09

>  <SCORE.INTER.CONST>
1

>  <SCORE.INTER.POLAR>
-6.69992

>  <SCORE.INTER.ROT>
2

>  <SCORE.INTER.SOLV>
18.7081

>  <SCORE.INTER.VDW>
-32.2296

>  <SCORE.INTER.norm>
-5.00692

>  <SCORE.INTRA>
0.974422

>  <SCORE.INTRA.DIHEDRAL>
0.115821

>  <SCORE.INTRA.DIHEDRAL.0>
1.43995

>  <SCORE.INTRA.POLAR>
0.272593

>  <SCORE.INTRA.POLAR.0>
-0.272593

>  <SCORE.INTRA.REPUL>
0

>  <SCORE.INTRA.REPUL.0>
0

>  <SCORE.INTRA.SOLV>
-0.103762

>  <SCORE.INTRA.SOLV.lig_0>
-22.6728

>  <SCORE.INTRA.VDW>
0.0415773

>  <SCORE.INTRA.VDW.0>
-0.754459

>  <SCORE.INTRA.norm>
0.0749555

>  <SCORE.RESTR>
0

>  <SCORE.RESTR.CAVITY>
0

>  <SCORE.RESTR.norm>
0

>  <SCORE.SYSTEM>
0

>  <SCORE.SYSTEM.CONST>
0

>  <SCORE.SYSTEM.DIHEDRAL>
0

>  <SCORE.SYSTEM.SOLV>
0

>  <SCORE.SYSTEM.norm>
0

>  <SCORE.heavy>
13

>  <SCORE.norm>
-4.93197

>  <RMSD>
0.349

$$$$
lig.pdb
 OpenBabel11021811453D
libRbt.so/2013.1/901 2013/11/27
 13 14  0  0  0  0  0  0  0  0999 V2000
    2.3032    3.5624   -4.3853 N   0  0  0  0  0  0  0  0  0  0  0  0
    3.5282    2.9681   -4.5654 C   0  0  0  0  0  0  0  0  0  0  0  0
    3.8270    1.8432   -3.9247 N   0  0  0  0  0  0  0  0  0  0  0  0
    2.9349    1.2442   -3.0764 C   0  0  0  0  0  0  0  0  0  0  0  0
    1.6622    1.8293   -2.8548 C   0  0  0  0  0  0  0  0  0  0  0  0
    1.3568    3.0328   -3.5521 C   0  0  0  0  0  0  0  0  0  0  0  0
    0.2797    3.5840   -3.4157 O   0  0  0  0  0  0  0  0  0  0  0  0
    0.9707    0.9772   -1.8875 C   0  0  0  0  0  0  0  0  0  0  0  0
   -0.3883    1.2095   -1.2847 C   0  0  0  0  0  0  0  0  0  0  0  0
   -1.4152    1.1082   -2.3310 N   0  0  0  0  0  0  0  0  0  0  0  0
    1.8035   -0.0383   -1.6263 C   0  0  0  0  0  0  0  0  0  0  0  0
    2.9744    0.1177   -2.3196 N   0  0  0  0  0  0  0  0  0  0  0  0
    4.4417    3.5333   -5.4157 N   0  0  0  0  0  0  0  0  0  0  0  0
  1  6  1  0  0  0  0
  2  1  1  0  0  0  0
  2  3  2  0  0  0  0
  3  4  1  0  0  0  0
  4  5  2  0  0  0  0
  4 12  1  0  0  0  0
  5  8  1  0  0  0  0
  6  7  2  0  0  0  0
  6  5  1  0  0  0  0
  8 11  2  0  0  0  0
  8  9  1  0  0  0  0
 10  9  1  0  0  0  0
 12 11  1  0  0  0  0
 13  2  1  0  0  0  0
M  END
>  <CHROM.1>
66.32243091,-90.08682213,1.84093943,1.95626469,-3.16305895,0.69751331,0.28151314
-0.61564937

>  <Name>
lig.pdb

>  <RI>
0

>  <Rbt.Current_Directory>
/home/itssahil/PROJECTS/Mol_Feturizer/New_Systems/rnas/2l1v

>  <Rbt.Executable>
rbdock ($Id: //depot/dev/client3/rdock/2013.1/src/exe/rbdock.cxx#4 $)

>  <Rbt.Library>
libRbt.so (2013.1, Build901 2013/11/27)

>  <Rbt.Parameter_File>
/export/apps/rDock/src/rDock_2013.1_src/data/scripts/dock_solv.prm

>  <Rbt.Receptor>
prm/pocket_docking_3.prm

>  <SCORE>
-64.1085

>  <SCORE.INTER>
-65.0813

>  <SCORE.INTER.CONST>
1

>  <SCORE.INTER.POLAR>
-6.68929

>  <SCORE.INTER.ROT>
2

>  <SCORE.INTER.SOLV>
18.7323

>  <SCORE.INTER.VDW>
-32.2673

>  <SCORE.INTER.norm>
-5.00626

>  <SCORE.INTRA>
0.972796

>  <SCORE.INTRA.DIHEDRAL>
0.111216

>  <SCORE.INTRA.DIHEDRAL.0>
1.43995

>  <SCORE.INTRA.POLAR>
0.272593

>  <SCORE.INTRA.POLAR.0>
-0.272593

>  <SCORE.INTRA.REPUL>
0

>  <SCORE.INTRA.REPUL.0>
0

>  <SCORE.INTRA.SOLV>
-0.101186

>  <SCORE.INTRA.SOLV.lig_0>
-22.6728

>  <SCORE.INTRA.VDW>
0.0409665

>  <SCORE.INTRA.VDW.0>
-0.754459

>  <SCORE.INTRA.norm>
0.0748305

>  <SCORE.RESTR>
0

>  <SCORE.RESTR.CAVITY>
0

>  <SCORE.RESTR.norm>
0

>  <SCORE.SYSTEM>
0

>  <SCORE.SYSTEM.CONST>
0

>  <SCORE.SYSTEM.DIHEDRAL>
0

>  <SCORE.SYSTEM.SOLV>
0

>  <SCORE.SYSTEM.norm>
0

>  <SCORE.heavy>
13

>  <SCORE.norm>
-4.93143

>  <RMSD>
0.350

$$$$
lig.pdb
 OpenBabel11021811453D
libRbt.so/2013.1/901 2013/11/27
 13 14  0  0  0  0  0  0  0  0999 V2000
    2.3091    3.5647   -4.3962 N   0  0  0  0  0  0  0  0  0  0  0  0
    3.5290    2.9639   -4.5887 C   0  0  0  0  0  0  0  0  0  0  0  0
    3.8298    1.8396   -3.9480 N   0  0  0  0  0  0  0  0  0  0  0  0
    2.9447    1.2476   -3.0874 C   0  0  0  0  0  0  0  0  0  0  0  0
    1.6776    1.8396   -2.8529 C   0  0  0  0  0  0  0  0  0  0  0  0
    1.3700    3.0424   -3.5503 C   0  0  0  0  0  0  0  0  0  0  0  0
    0.2971    3.5993   -3.4031 O   0  0  0  0  0  0  0  0  0  0  0  0
    0.9933    0.9940   -1.8748 C   0  0  0  0  0  0  0  0  0  0  0  0
   -0.3574    1.2348   -1.2569 C   0  0  0  0  0  0  0  0  0  0  0  0
   -1.4006    1.0932   -2.2822 N   0  0  0  0  0  0  0  0  0  0  0  0
    1.8242   -0.0247   -1.6201 C   0  0  0  0  0  0  0  0  0  0  0  0
    2.9877    0.1234   -2.3275 N   0  0  0  0  0  0  0  0  0  0  0  0
    4.4352    3.5220   -5.4515 N   0  0  0  0  0  0  0  0  0  0  0  0
  1  6  1  0  0  0  0
  2  1  1  0  0  0  0
  2  3  2  0  0  0  0
  3  4  1  0  0  0  0
  4  5  2  0  0  0  0
  4 12  1  0  0  0  0
  5  8  1  0  0  0  0
  6  7  2  0  0  0  0
  6  5  1  0  0  0  0
  8 11  2  0  0  0  0
  8  9  1  0  0  0  0
 10  9  1  0  0  0  0
 12 11  1  0  0  0  0
 13  2  1  0  0  0  0
M  END
>  <CHROM.1>
68.10769313,91.12091612,1.85324286,1.96075203,-3.16298744,0.70314502,0.29256991
-0.61845453

>  <Name>
lig.pdb

>  <RI>
2.86608e+07

>  <Rbt.Current_Directory>
/home/itssahil/PROJECTS/Mol_Feturizer/New_Systems/rnas/2l1v

>  <Rbt.Executable>
rbdock ($Id: //depot/dev/client3/rdock/2013.1/src/exe/rbdock.cxx#4 $)

>  <Rbt.Library>
libRbt.so (2013.1, Build901 2013/11/27)

>  <Rbt.Parameter_File>
/export/apps/rDock/src/rDock_2013.1_src/data/scripts/dock_solv.prm

>  <Rbt.Receptor>
prm/pocket_docking_7.prm

>  <SCORE>
-64.328

>  <SCORE.INTER>
-65.2441

>  <SCORE.INTER.CONST>
1

>  <SCORE.INTER.POLAR>
-6.682

>  <SCORE.INTER.ROT>
2

>  <SCORE.INTER.SOLV>
18.6882

>  <SCORE.INTER.VDW>
-32.3855

>  <SCORE.INTER.norm>
-5.01878

>  <SCORE.INTRA>
0.916166

>  <SCORE.INTRA.DIHEDRAL>
0.0126049

>  <SCORE.INTRA.DIHEDRAL.0>
1.43995

>  <SCORE.INTRA.POLAR>
0.272593

>  <SCORE.INTRA.POLAR.0>
-0.272593

>  <SCORE.INTRA.REPUL>
0

>  <SCORE.INTRA.REPUL.0>
0

>  <SCORE.INTRA.SOLV>
-0.115754

>  <SCORE.INTRA.SOLV.lig_0>
-22.6728

>  <SCORE.INTRA.VDW>
0.0409262

>  <SCORE.INTRA.VDW.0>
-0.754459

>  <SCORE.INTRA.norm>
0.0704743

>  <SCORE.RESTR>
0

>  <SCORE.RESTR.CAVITY>
0

>  <SCORE.RESTR.norm>
0

>  <SCORE.SYSTEM>
0

>  <SCORE.SYSTEM.CONST>
0

>  <SCORE.SYSTEM.DIHEDRAL>
0

>  <SCORE.SYSTEM.SOLV>
0

>  <SCORE.SYSTEM.norm>
0

>  <SCORE.heavy>
13

>  <SCORE.norm>
-4.9483

>  <RMSD>
0.351

$$$$
lig.pdb
 OpenBabel11021811453D
libRbt.so/2013.1/901 2013/11/27
 13 14  0  0  0  0  0  0  0  0999 V2000
    2.3051    3.5668   -4.3953 N   0  0  0  0  0  0  0  0  0  0  0  0
    3.5248    2.9651   -4.5863 C   0  0  0  0  0  0  0  0  0  0  0  0
    3.8236    1.8400   -3.9460 N   0  0  0  0  0  0  0  0  0  0  0  0
    2.9367    1.2482   -3.0873 C   0  0  0  0  0  0  0  0  0  0  0  0
    1.6697    1.8411   -2.8542 C   0  0  0  0  0  0  0  0  0  0  0  0
    1.3642    3.0447   -3.5512 C   0  0  0  0  0  0  0  0  0  0  0  0
    0.2917    3.6024   -3.4053 O   0  0  0  0  0  0  0  0  0  0  0  0
    0.9833    0.9953   -1.8779 C   0  0  0  0  0  0  0  0  0  0  0  0
   -0.3682    1.2369   -1.2618 C   0  0  0  0  0  0  0  0  0  0  0  0
   -1.4101    1.0945   -2.2883 N   0  0  0  0  0  0  0  0  0  0  0  0
    1.8129   -0.0243   -1.6226 C   0  0  0  0  0  0  0  0  0  0  0  0
    2.9776    0.1233   -2.3281 N   0  0  0  0  0  0  0  0  0  0  0  0
    4.4328    3.5230   -5.4473 N   0  0  0  0  0  0  0  0  0  0  0  0
  1  6  1  0  0  0  0
  2  1  1  0  0  0  0
  2  3  2  0  0  0  0
  3  4  1  0  0  0  0
  4  5  2  0  0  0  0
  4 12  1  0  0  0  0
  5  8  1  0  0  0  0
  6  7  2  0  0  0  0
  6  5  1  0  0  0  0
  8 11  2  0  0  0  0
  8  9  1  0  0  0  0
 10  9  1  0  0  0  0
 12 11  1  0  0  0  0
 13  2  1  0  0  0  0
M  END
>  <CHROM.1>
68.20846970,90.76056437,1.84596516,1.96209864,-3.16391713,0.70161287,0.29176083
-0.61715068

>  <Name>
lig.pdb

>  <RI>
1.459e+07

>  <Rbt.Current_Directory>
/home/itssahil/PROJECTS/Mol_Feturizer/New_Systems/rnas/2l1v

>  <Rbt.Executable>
rbdock ($Id: //depot/dev/client3/rdock/2013.1/src/exe/rbdock.cxx#4 $)

>  <Rbt.Library>
libRbt.so (2013.1, Build901 2013/11/27)

>  <Rbt.Parameter_File>
/export/apps/rDock/src/rDock_2013.1_src/data/scripts/dock_solv.prm

>  <Rbt.Receptor>
prm/pocket_docking_2.prm

>  <SCORE>
-64.3142

>  <SCORE.INTER>
-65.2315

>  <SCORE.INTER.CONST>
1

>  <SCORE.INTER.POLAR>
-6.67264

>  <SCORE.INTER.ROT>
2

>  <SCORE.INTER.SOLV>
18.7151

>  <SCORE.INTER.VDW>
-32.4172

>  <SCORE.INTER.norm>
-5.0178

>  <SCORE.INTRA>
0.917282

>  <SCORE.INTRA.DIHEDRAL>
0.0146298

>  <SCORE.INTRA.DIHEDRAL.0>
1.43995

>  <SCORE.INTRA.POLAR>
0.272593

>  <SCORE.INTRA.POLAR.0>
-0.272593

>  <SCORE.INTRA.REPUL>
0

>  <SCORE.INTRA.REPUL.0>
0

>  <SCORE.INTRA.SOLV>
-0.11686

>  <SCORE.INTRA.SOLV.lig_0>
-22.6728

>  <SCORE.INTRA.VDW>
0.0415815

>  <SCORE.INTRA.VDW.0>
-0.754459

>  <SCORE.INTRA.norm>
0.0705601

>  <SCORE.RESTR>
0

>  <SCORE.RESTR.CAVITY>
0

>  <SCORE.RESTR.norm>
0

>  <SCORE.SYSTEM>
0

>  <SCORE.SYSTEM.CONST>
0

>  <SCORE.SYSTEM.DIHEDRAL>
0

>  <SCORE.SYSTEM.SOLV>
0

>  <SCORE.SYSTEM.norm>
0

>  <SCORE.heavy>
13

>  <SCORE.norm>
-4.94724

>  <RMSD>
0.352

$$$$
lig.pdb
 OpenBabel11021811453D
libRbt.so/2013.1/901 2013/11/27
 13 14  0  0  0  0  0  0  0  0999 V2000
    2.3102    3.5621   -4.3727 N   0  0  0  0  0  0  0  0  0  0  0  0
    3.5372    2.9737   -4.5579 C   0  0  0  0  0  0  0  0  0  0  0  0
    3.8434    1.8492   -3.9200 N   0  0  0  0  0  0  0  0  0  0  0  0
    2.9570    1.2449   -3.0695 C   0  0  0  0  0  0  0  0  0  0  0  0
    1.6824    1.8238   -2.8426 C   0  0  0  0  0  0  0  0  0  0  0  0
    1.3692    3.0269   -3.5369 C   0  0  0  0  0  0  0  0  0  0  0  0
    0.2900    3.5730   -3.3960 O   0  0  0  0  0  0  0  0  0  0  0  0
    0.9983    0.9671   -1.8741 C   0  0  0  0  0  0  0  0  0  0  0  0
   -0.3597    1.1923   -1.2662 C   0  0  0  0  0  0  0  0  0  0  0  0
   -1.3894    1.0926   -2.3098 N   0  0  0  0  0  0  0  0  0  0  0  0
    1.8366   -0.0449   -1.6173 C   0  0  0  0  0  0  0  0  0  0  0  0
    3.0044    0.1175   -2.3145 N   0  0  0  0  0  0  0  0  0  0  0  0
    4.4452    3.5443   -5.4106 N   0  0  0  0  0  0  0  0  0  0  0  0
  1  6  1  0  0  0  0
  2  1  1  0  0  0  0
  2  3  2  0  0  0  0
  3  4  1  0  0  0  0
  4  5  2  0  0  0  0
  4 12  1  0  0  0  0
  5  8  1  0  0  0  0
  6  7  2  0  0  0  0
  6  5  1  0  0  0  0
  8 11  2  0  0  0  0
  8  9  1  0  0  0  0
 10  9  1  0  0  0  0
 12 11  1  0  0  0  0
 13  2  1  0  0  0  0
M  END
>  <CHROM.1>
66.12364805,92.64524681,1.85982111,1.95240765,-3.15152240,0.70368252,0.28171511
-0.61604847

>  <Name>
lig.pdb

>  <RI>
0

>  <Rbt.Current_Directory>
/home/itssahil/PROJECTS/Mol_Feturizer/New_Systems/rnas/2l1v

>  <Rbt.Executable>
rbdock ($Id: //depot/dev/client3/rdock/2013.1/src/exe/rbdock.cxx#4 $)

>  <Rbt.Library>
libRbt.so (2013.1, Build901 2013/11/27)

>  <Rbt.Parameter_File>
/export/apps/rDock/src/rDock_2013.1_src/data/scripts/dock_solv.prm

>  <Rbt.Receptor>
prm/pocket_docking_3.prm

>  <SCORE>
-64.2076

>  <SCORE.INTER>
-65.1075

>  <SCORE.INTER.CONST>
1

>  <SCORE.INTER.POLAR>
-6.72988

>  <SCORE.INTER.ROT>
2

>  <SCORE.INTER.SOLV>
18.6091

>  <SCORE.INTER.VDW>
-32.1084

>  <SCORE.INTER.norm>
-5.00827

>  <SCORE.INTRA>
0.899901

>  <SCORE.INTRA.DIHEDRAL>
-0.0231563

>  <SCORE.INTRA.DIHEDRAL.0>
1.43995

>  <SCORE.INTRA.POLAR>
0.272593

>  <SCORE.INTRA.POLAR.0>
-0.272593

>  <SCORE.INTRA.REPUL>
0

>  <SCORE.INTRA.REPUL.0>
0

>  <SCORE.INTRA.SOLV>
-0.0958847

>  <SCORE.INTRA.SOLV.lig_0>
-22.6728

>  <SCORE.INTRA.VDW>
0.0326066

>  <SCORE.INTRA.VDW.0>
-0.754459

>  <SCORE.INTRA.norm>
0.0692232

>  <SCORE.RESTR>
0

>  <SCORE.RESTR.CAVITY>
0

>  <SCORE.RESTR.norm>
0

>  <SCORE.SYSTEM>
0

>  <SCORE.SYSTEM.CONST>
0

>  <SCORE.SYSTEM.DIHEDRAL>
0

>  <SCORE.SYSTEM.SOLV>
0

>  <SCORE.SYSTEM.norm>
0

>  <SCORE.heavy>
13

>  <SCORE.norm>
-4.93905

>  <RMSD>
0.352

$$$$
lig.pdb
 OpenBabel11021811453D
libRbt.so/2013.1/901 2013/11/27
 13 14  0  0  0  0  0  0  0  0999 V2000
    2.3109    3.5294   -4.3741 N   0  0  0  0  0  0  0  0  0  0  0  0
    3.5352    2.9343   -4.5564 C   0  0  0  0  0  0  0  0  0  0  0  0
    3.8386    1.8151   -3.9080 N   0  0  0  0  0  0  0  0  0  0  0  0
    2.9519    1.2228   -3.0494 C   0  0  0  0  0  0  0  0  0  0  0  0
    1.6802    1.8090   -2.8251 C   0  0  0  0  0  0  0  0  0  0  0  0
    1.3699    3.0063   -3.5307 C   0  0  0  0  0  0  0  0  0  0  0  0
    0.2932    3.5580   -3.3926 O   0  0  0  0  0  0  0  0  0  0  0  0
    0.9951    0.9647   -1.8465 C   0  0  0  0  0  0  0  0  0  0  0  0
   -0.3605    1.2013   -1.2376 C   0  0  0  0  0  0  0  0  0  0  0  0
   -1.3938    1.0884   -2.2764 N   0  0  0  0  0  0  0  0  0  0  0  0
    1.8301   -0.0480   -1.5817 C   0  0  0  0  0  0  0  0  0  0  0  0
    2.9967    0.1028   -2.2832 N   0  0  0  0  0  0  0  0  0  0  0  0
    4.4433    3.4929   -5.4170 N   0  0  0  0  0  0  0  0  0  0  0  0
  1  6  1  0  0  0  0
  2  1  1  0  0  0  0
  2  3  2  0  0  0  0
  3  4  1  0  0  0  0
  4  5  2  0  0  0  0
  4 12  1  0  0  0  0
  5  8  1  0  0  0  0
  6  7  2  0  0  0  0
  6  5  1  0  0  0  0
  8 11  2  0  0  0  0
  8  9  1  0  0  0  0
 10  9  1  0  0  0  0
 12 11  1  0  0  0  0
 13  2  1  0  0  0  0
M  END
>  <CHROM.1>
66.41299905,91.80533017,1.85722689,1.93315707,-3.13569128,0.70219780,0.28581276
-0.62531536

>  <Name>
lig.pdb

>  <RI>
0

>  <Rbt.Current_Directory>
/home/itssahil/PROJECTS/Mol_Feturizer/New_Systems/rnas/2l1v

>  <Rbt.Executable>
rbdock ($Id: //depot/dev/client3/rdock/2013.1/src/exe/rbdock.cxx#4 $)

>  <Rbt.Library>
libRbt.so (2013.1, Build901 2013/11/27)

>  <Rbt.Parameter_File>
/export/apps/rDock/src/rDock_2013.1_src/data/scripts/dock_solv.prm

>  <Rbt.Receptor>
prm/pocket_docking_3.prm

>  <SCORE>
-64.2702

>  <SCORE.INTER>
-65.1723

>  <SCORE.INTER.CONST>
1

>  <SCORE.INTER.POLAR>
-6.71444

>  <SCORE.INTER.ROT>
2

>  <SCORE.INTER.SOLV>
18.5206

>  <SCORE.INTER.VDW>
-32.1736

>  <SCORE.INTER.norm>
-5.01325

>  <SCORE.INTRA>
0.902067

>  <SCORE.INTRA.DIHEDRAL>
-0.0190235

>  <SCORE.INTRA.DIHEDRAL.0>
1.43995

>  <SCORE.INTRA.POLAR>
0.272593

>  <SCORE.INTRA.POLAR.0>
-0.272593

>  <SCORE.INTRA.REPUL>
0

>  <SCORE.INTRA.REPUL.0>
0

>  <SCORE.INTRA.SOLV>
-0.0989672

>  <SCORE.INTRA.SOLV.lig_0>
-22.6728

>  <SCORE.INTRA.VDW>
0.0342474

>  <SCORE.INTRA.VDW.0>
-0.754459

>  <SCORE.INTRA.norm>
0.0693898

>  <SCORE.RESTR>
0

>  <SCORE.RESTR.CAVITY>
0

>  <SCORE.RESTR.norm>
0

>  <SCORE.SYSTEM>
0

>  <SCORE.SYSTEM.CONST>
0

>  <SCORE.SYSTEM.DIHEDRAL>
0

>  <SCORE.SYSTEM.SOLV>
0

>  <SCORE.SYSTEM.norm>
0

>  <SCORE.heavy>
13

>  <SCORE.norm>
-4.94386

>  <RMSD>
0.352

$$$$
lig.pdb
 OpenBabel11021811453D
libRbt.so/2013.1/901 2013/11/27
 13 14  0  0  0  0  0  0  0  0999 V2000
    2.3226    3.5590   -4.3692 N   0  0  0  0  0  0  0  0  0  0  0  0
    3.5500    2.9709   -4.5526 C   0  0  0  0  0  0  0  0  0  0  0  0
    3.8552    1.8461   -3.9148 N   0  0  0  0  0  0  0  0  0  0  0  0
    2.9673    1.2412   -3.0662 C   0  0  0  0  0  0  0  0  0  0  0  0
    1.6923    1.8199   -2.8412 C   0  0  0  0  0  0  0  0  0  0  0  0
    1.3801    3.0233   -3.5355 C   0  0  0  0  0  0  0  0  0  0  0  0
    0.3006    3.5692   -3.3962 O   0  0  0  0  0  0  0  0  0  0  0  0
    1.0065    0.9626   -1.8745 C   0  0  0  0  0  0  0  0  0  0  0  0
   -0.3526    1.1873   -1.2689 C   0  0  0  0  0  0  0  0  0  0  0  0
   -1.3795    1.0982   -2.3162 N   0  0  0  0  0  0  0  0  0  0  0  0
    1.8445   -0.0495   -1.6168 C   0  0  0  0  0  0  0  0  0  0  0  0
    3.0135    0.1134   -2.3117 N   0  0  0  0  0  0  0  0  0  0  0  0
    4.4594    3.5421   -5.4034 N   0  0  0  0  0  0  0  0  0  0  0  0
  1  6  1  0  0  0  0
  2  1  1  0  0  0  0
  2  3  2  0  0  0  0
  3  4  1  0  0  0  0
  4  5  2  0  0  0  0
  4 12  1  0  0  0  0
  5  8  1  0  0  0  0
  6  7  2  0  0  0  0
  6  5  1  0  0  0  0
  8 11  2  0  0  0  0
  8  9  1  0  0  0  0
 10  9  1  0  0  0  0
 12 11  1  0  0  0  0
 13  2  1  0  0  0  0
M  END
>  <CHROM.1>
65.69208438,-89.06612776,1.87005144,1.94970214,-3.14973289,0.70173943,0.28062777
-0.61545223

>  <Name>
lig.pdb

>  <RI>
4.02536e+07

>  <Rbt.Current_Directory>
/home/itssahil/PROJECTS/Mol_Feturizer/New_Systems/rnas/2l1v

>  <Rbt.Executable>
rbdock ($Id: //depot/dev/client3/rdock/2013.1/src/exe/rbdock.cxx#4 $)

>  <Rbt.Library>
libRbt.so (2013.1, Build901 2013/11/27)

>  <Rbt.Parameter_File>
/export/apps/rDock/src/rDock_2013.1_src/data/scripts/dock_solv.prm

>  <Rbt.Receptor>
prm/blind_docking_40.prm

>  <SCORE>
-64.0762

>  <SCORE.INTER>
-65.0443

>  <SCORE.INTER.CONST>
1

>  <SCORE.INTER.POLAR>
-6.75454

>  <SCORE.INTER.ROT>
2

>  <SCORE.INTER.SOLV>
18.6082

>  <SCORE.INTER.VDW>
-31.9838

>  <SCORE.INTER.norm>
-5.00341

>  <SCORE.INTRA>
0.968158

>  <SCORE.INTRA.DIHEDRAL>
0.101331

>  <SCORE.INTRA.DIHEDRAL.0>
1.43995

>  <SCORE.INTRA.POLAR>
0.272593

>  <SCORE.INTRA.POLAR.0>
-0.272593

>  <SCORE.INTRA.REPUL>
0

>  <SCORE.INTRA.REPUL.0>
0

>  <SCORE.INTRA.SOLV>
-0.0946734

>  <SCORE.INTRA.SOLV.lig_0>
-22.6728

>  <SCORE.INTRA.VDW>
0.0380139

>  <SCORE.INTRA.VDW.0>
-0.754459

>  <SCORE.INTRA.norm>
0.0744737

>  <SCORE.RESTR>
0

>  <SCORE.RESTR.CAVITY>
0

>  <SCORE.RESTR.norm>
0

>  <SCORE.SYSTEM>
0

>  <SCORE.SYSTEM.CONST>
0

>  <SCORE.SYSTEM.DIHEDRAL>
0

>  <SCORE.SYSTEM.SOLV>
0

>  <SCORE.SYSTEM.norm>
0

>  <SCORE.heavy>
13

>  <SCORE.norm>
-4.92894

>  <RMSD>
0.354

$$$$
lig.pdb
 OpenBabel11021811453D
libRbt.so/2013.1/901 2013/11/27
 13 14  0  0  0  0  0  0  0  0999 V2000
    2.3111    3.5662   -4.3837 N   0  0  0  0  0  0  0  0  0  0  0  0
    3.5310    2.9660   -4.5781 C   0  0  0  0  0  0  0  0  0  0  0  0
    3.8317    1.8394   -3.9414 N   0  0  0  0  0  0  0  0  0  0  0  0
    2.9464    1.2444   -3.0831 C   0  0  0  0  0  0  0  0  0  0  0  0
    1.6793    1.8356   -2.8466 C   0  0  0  0  0  0  0  0  0  0  0  0
    1.3718    3.0409   -3.5398 C   0  0  0  0  0  0  0  0  0  0  0  0
    0.2990    3.5972   -3.3908 O   0  0  0  0  0  0  0  0  0  0  0  0
    0.9949    0.9864   -1.8717 C   0  0  0  0  0  0  0  0  0  0  0  0
   -0.3560    1.2251   -1.2531 C   0  0  0  0  0  0  0  0  0  0  0  0
   -1.3988    1.0898   -2.2797 N   0  0  0  0  0  0  0  0  0  0  0  0
    1.8256   -0.0332   -1.6205 C   0  0  0  0  0  0  0  0  0  0  0  0
    2.9892    0.1174   -2.3272 N   0  0  0  0  0  0  0  0  0  0  0  0
    4.4374    3.5271   -5.4387 N   0  0  0  0  0  0  0  0  0  0  0  0
  1  6  1  0  0  0  0
  2  1  1  0  0  0  0
  2  3  2  0  0  0  0
  3  4  1  0  0  0  0
  4  5  2  0  0  0  0
  4 12  1  0  0  0  0
  5  8  1  0  0  0  0
  6  7  2  0  0  0  0
  6  5  1  0  0  0  0
  8 11  2  0  0  0  0
  8  9  1  0  0  0  0
 10  9  1  0  0  0  0
 12 11  1  0  0  0  0
 13  2  1  0  0  0  0
M  END
>  <CHROM.1>
67.99710906,91.44737955,1.85502083,1.95803259,-3.15632736,0.70289011,0.29252499
-0.61491998

>  <Name>
lig.pdb

>  <RI>
1.77584e+07

>  <Rbt.Current_Directory>
/home/itssahil/PROJECTS/Mol_Feturizer/New_Systems/rnas/2l1v

>  <Rbt.Executable>
rbdock ($Id: //depot/dev/client3/rdock/2013.1/src/exe/rbdock.cxx#4 $)

>  <Rbt.Library>
libRbt.so (2013.1, Build901 2013/11/27)

>  <Rbt.Parameter_File>
/export/apps/rDock/src/rDock_2013.1_src/data/scripts/dock_solv.prm

>  <Rbt.Receptor>
prm/blind_docking_80.prm

>  <SCORE>
-64.3208

>  <SCORE.INTER>
-65.2358

>  <SCORE.INTER.CONST>
1

>  <SCORE.INTER.POLAR>
-6.69392

>  <SCORE.INTER.ROT>
2

>  <SCORE.INTER.SOLV>
18.6648

>  <SCORE.INTER.VDW>
-32.3324

>  <SCORE.INTER.norm>
-5.01814

>  <SCORE.INTRA>
0.915

>  <SCORE.INTRA.DIHEDRAL>
0.0104108

>  <SCORE.INTRA.DIHEDRAL.0>
1.43995

>  <SCORE.INTRA.POLAR>
0.272593

>  <SCORE.INTRA.POLAR.0>
-0.272593

>  <SCORE.INTRA.REPUL>
0

>  <SCORE.INTRA.REPUL.0>
0

>  <SCORE.INTRA.SOLV>
-0.114566

>  <SCORE.INTRA.SOLV.lig_0>
-22.6728

>  <SCORE.INTRA.VDW>
0.0402629

>  <SCORE.INTRA.VDW.0>
-0.754459

>  <SCORE.INTRA.norm>
0.0703846

>  <SCORE.RESTR>
0

>  <SCORE.RESTR.CAVITY>
0

>  <SCORE.RESTR.norm>
0

>  <SCORE.SYSTEM>
0

>  <SCORE.SYSTEM.CONST>
0

>  <SCORE.SYSTEM.DIHEDRAL>
0

>  <SCORE.SYSTEM.SOLV>
0

>  <SCORE.SYSTEM.norm>
0

>  <SCORE.heavy>
13

>  <SCORE.norm>
-4.94775

>  <RMSD>
0.354

$$$$
lig.pdb
 OpenBabel11021811453D
libRbt.so/2013.1/901 2013/11/27
 13 14  0  0  0  0  0  0  0  0999 V2000
    2.3003    3.5516   -4.3756 N   0  0  0  0  0  0  0  0  0  0  0  0
    3.5193    2.9468   -4.5610 C   0  0  0  0  0  0  0  0  0  0  0  0
    3.8102    1.8180   -3.9235 N   0  0  0  0  0  0  0  0  0  0  0  0
    2.9155    1.2254   -3.0733 C   0  0  0  0  0  0  0  0  0  0  0  0
    1.6489    1.8214   -2.8463 C   0  0  0  0  0  0  0  0  0  0  0  0
    1.3520    3.0290   -3.5402 C   0  0  0  0  0  0  0  0  0  0  0  0
    0.2803    3.5895   -3.3992 O   0  0  0  0  0  0  0  0  0  0  0  0
    0.9531    0.9737   -1.8783 C   0  0  0  0  0  0  0  0  0  0  0  0
   -0.4018    1.2170   -1.2704 C   0  0  0  0  0  0  0  0  0  0  0  0
   -1.4352    1.1042   -2.3090 N   0  0  0  0  0  0  0  0  0  0  0  0
    1.7776   -0.0497   -1.6218 C   0  0  0  0  0  0  0  0  0  0  0  0
    2.9475    0.0971   -2.3188 N   0  0  0  0  0  0  0  0  0  0  0  0
    4.4350    3.5054   -5.4134 N   0  0  0  0  0  0  0  0  0  0  0  0
  1  6  1  0  0  0  0
  2  1  1  0  0  0  0
  2  3  2  0  0  0  0
  3  4  1  0  0  0  0
  4  5  2  0  0  0  0
  4 12  1  0  0  0  0
  5  8  1  0  0  0  0
  6  7  2  0  0  0  0
  6  5  1  0  0  0  0
  8 11  2  0  0  0  0
  8  9  1  0  0  0  0
 10  9  1  0  0  0  0
 12 11  1  0  0  0  0
 13  2  1  0  0  0  0
M  END
>  <CHROM.1>
67.28664632,90.76374134,1.82779479,1.94518648,-3.15472938,0.69353763,0.28868750
-0.61152938

>  <Name>
lig.pdb

>  <RI>
1.459e+07

>  <Rbt.Current_Directory>
/home/itssahil/PROJECTS/Mol_Feturizer/New_Systems/rnas/2l1v

>  <Rbt.Executable>
rbdock ($Id: //depot/dev/client3/rdock/2013.1/src/exe/rbdock.cxx#4 $)

>  <Rbt.Library>
libRbt.so (2013.1, Build901 2013/11/27)

>  <Rbt.Parameter_File>
/export/apps/rDock/src/rDock_2013.1_src/data/scripts/dock_solv.prm

>  <Rbt.Receptor>
prm/pocket_docking_2.prm

>  <SCORE>
-64.3009

>  <SCORE.INTER>
-65.2099

>  <SCORE.INTER.CONST>
1

>  <SCORE.INTER.POLAR>
-6.67448

>  <SCORE.INTER.ROT>
2

>  <SCORE.INTER.SOLV>
18.7223

>  <SCORE.INTER.VDW>
-32.3991

>  <SCORE.INTER.norm>
-5.01615

>  <SCORE.INTRA>
0.909051

>  <SCORE.INTRA.DIHEDRAL>
-0.00402001

>  <SCORE.INTRA.DIHEDRAL.0>
1.43995

>  <SCORE.INTRA.POLAR>
0.272593

>  <SCORE.INTRA.POLAR.0>
-0.272593

>  <SCORE.INTRA.REPUL>
0

>  <SCORE.INTRA.REPUL.0>
0

>  <SCORE.INTRA.SOLV>
-0.107833

>  <SCORE.INTRA.SOLV.lig_0>
-22.6728

>  <SCORE.INTRA.VDW>
0.0381628

>  <SCORE.INTRA.VDW.0>
-0.754459

>  <SCORE.INTRA.norm>
0.069927

>  <SCORE.RESTR>
0

>  <SCORE.RESTR.CAVITY>
0

>  <SCORE.RESTR.norm>
0

>  <SCORE.SYSTEM>
0

>  <SCORE.SYSTEM.CONST>
0

>  <SCORE.SYSTEM.DIHEDRAL>
0

>  <SCORE.SYSTEM.SOLV>
0

>  <SCORE.SYSTEM.norm>
0

>  <SCORE.heavy>
13

>  <SCORE.norm>
-4.94622

>  <RMSD>
0.354

$$$$
lig.pdb
 OpenBabel11021811453D
libRbt.so/2013.1/901 2013/11/27
 13 14  0  0  0  0  0  0  0  0999 V2000
    2.3036    3.5604   -4.3820 N   0  0  0  0  0  0  0  0  0  0  0  0
    3.5226    2.9566   -4.5707 C   0  0  0  0  0  0  0  0  0  0  0  0
    3.8166    1.8287   -3.9333 N   0  0  0  0  0  0  0  0  0  0  0  0
    2.9253    1.2359   -3.0798 C   0  0  0  0  0  0  0  0  0  0  0  0
    1.6588    1.8308   -2.8492 C   0  0  0  0  0  0  0  0  0  0  0  0
    1.3585    3.0375   -3.5431 C   0  0  0  0  0  0  0  0  0  0  0  0
    0.2866    3.5970   -3.3992 O   0  0  0  0  0  0  0  0  0  0  0  0
    0.9670    0.9832   -1.8783 C   0  0  0  0  0  0  0  0  0  0  0  0
   -0.3862    1.2256   -1.2663 C   0  0  0  0  0  0  0  0  0  0  0  0
   -1.4237    1.1008   -2.2995 N   0  0  0  0  0  0  0  0  0  0  0  0
    1.7933   -0.0392   -1.6236 C   0  0  0  0  0  0  0  0  0  0  0  0
    2.9609    0.1083   -2.3244 N   0  0  0  0  0  0  0  0  0  0  0  0
    4.4350    3.5155   -5.4265 N   0  0  0  0  0  0  0  0  0  0  0  0
  1  6  1  0  0  0  0
  2  1  1  0  0  0  0
  2  3  2  0  0  0  0
  3  4  1  0  0  0  0
  4  5  2  0  0  0  0
  4 12  1  0  0  0  0
  5  8  1  0  0  0  0
  6  7  2  0  0  0  0
  6  5  1  0  0  0  0
  8 11  2  0  0  0  0
  8  9  1  0  0  0  0
 10  9  1  0  0  0  0
 12 11  1  0  0  0  0
 13  2  1  0  0  0  0
M  END
>  <CHROM.1>
67.71086810,90.86521177,1.83651322,1.95355697,-3.15811673,0.69688616,0.29040936
-0.61286373

>  <Name>
lig.pdb

>  <RI>
1.459e+07

>  <Rbt.Current_Directory>
/home/itssahil/PROJECTS/Mol_Feturizer/New_Systems/rnas/2l1v

>  <Rbt.Executable>
rbdock ($Id: //depot/dev/client3/rdock/2013.1/src/exe/rbdock.cxx#4 $)

>  <Rbt.Library>
libRbt.so (2013.1, Build901 2013/11/27)

>  <Rbt.Parameter_File>
/export/apps/rDock/src/rDock_2013.1_src/data/scripts/dock_solv.prm

>  <Rbt.Receptor>
prm/pocket_docking_2.prm

>  <SCORE>
-64.3136

>  <SCORE.INTER>
-65.2262

>  <SCORE.INTER.CONST>
1

>  <SCORE.INTER.POLAR>
-6.6767

>  <SCORE.INTER.ROT>
2

>  <SCORE.INTER.SOLV>
18.7207

>  <SCORE.INTER.VDW>
-32.402

>  <SCORE.INTER.norm>
-5.0174

>  <SCORE.INTRA>
0.912629

>  <SCORE.INTRA.DIHEDRAL>
0.00429968

>  <SCORE.INTRA.DIHEDRAL.0>
1.43995

>  <SCORE.INTRA.POLAR>
0.272593

>  <SCORE.INTRA.POLAR.0>
-0.272593

>  <SCORE.INTRA.REPUL>
0

>  <SCORE.INTRA.REPUL.0>
0

>  <SCORE.INTRA.SOLV>
-0.111948

>  <SCORE.INTRA.SOLV.lig_0>
-22.6728

>  <SCORE.INTRA.VDW>
0.0396385

>  <SCORE.INTRA.VDW.0>
-0.754459

>  <SCORE.INTRA.norm>
0.0702023

>  <SCORE.RESTR>
0

>  <SCORE.RESTR.CAVITY>
0

>  <SCORE.RESTR.norm>
0

>  <SCORE.SYSTEM>
0

>  <SCORE.SYSTEM.CONST>
0

>  <SCORE.SYSTEM.DIHEDRAL>
0

>  <SCORE.SYSTEM.SOLV>
0

>  <SCORE.SYSTEM.norm>
0

>  <SCORE.heavy>
13

>  <SCORE.norm>
-4.9472

>  <RMSD>
0.354

$$$$
lig.pdb
 OpenBabel11021811453D
libRbt.so/2013.1/901 2013/11/27
 13 14  0  0  0  0  0  0  0  0999 V2000
    2.3040    3.5343   -4.3814 N   0  0  0  0  0  0  0  0  0  0  0  0
    3.5356    2.9490   -4.5454 C   0  0  0  0  0  0  0  0  0  0  0  0
    3.8404    1.8355   -3.8879 N   0  0  0  0  0  0  0  0  0  0  0  0
    2.9481    1.2396   -3.0375 C   0  0  0  0  0  0  0  0  0  0  0  0
    1.6686    1.8158   -2.8321 C   0  0  0  0  0  0  0  0  0  0  0  0
    1.3570    3.0071   -3.5473 C   0  0  0  0  0  0  0  0  0  0  0  0
    0.2739    3.5500   -3.4255 O   0  0  0  0  0  0  0  0  0  0  0  0
    0.9785    0.9703   -1.8581 C   0  0  0  0  0  0  0  0  0  0  0  0
   -0.3866    1.1980   -1.2674 C   0  0  0  0  0  0  0  0  0  0  0  0
   -1.4028    1.1042   -2.3247 N   0  0  0  0  0  0  0  0  0  0  0  0
    1.8188   -0.0339   -1.5779 C   0  0  0  0  0  0  0  0  0  0  0  0
    2.9929    0.1238   -2.2655 N   0  0  0  0  0  0  0  0  0  0  0  0
    4.4496    3.5113   -5.3972 N   0  0  0  0  0  0  0  0  0  0  0  0
  1  6  1  0  0  0  0
  2  1  1  0  0  0  0
  2  3  2  0  0  0  0
  3  4  1  0  0  0  0
  4  5  2  0  0  0  0
  4 12  1  0  0  0  0
  5  8  1  0  0  0  0
  6  7  2  0  0  0  0
  6  5  1  0  0  0  0
  8 11  2  0  0  0  0
  8  9  1  0  0  0  0
 10  9  1  0  0  0  0
 12 11  1  0  0  0  0
 13  2  1  0  0  0  0
M  END
>  <CHROM.1>
65.01774120,-89.34990511,1.84852933,1.94321857,-3.14137882,0.69958340,0.27168870
-0.63086105

>  <Name>
lig.pdb

>  <RI>
0

>  <Rbt.Current_Directory>
/home/itssahil/PROJECTS/Mol_Feturizer/New_Systems/rnas/2l1v

>  <Rbt.Executable>
rbdock ($Id: //depot/dev/client3/rdock/2013.1/src/exe/rbdock.cxx#4 $)

>  <Rbt.Library>
libRbt.so (2013.1, Build901 2013/11/27)

>  <Rbt.Parameter_File>
/export/apps/rDock/src/rDock_2013.1_src/data/scripts/dock_solv.prm

>  <Rbt.Receptor>
prm/pocket_docking_3.prm

>  <SCORE>
-64.1354

>  <SCORE.INTER>
-65.1004

>  <SCORE.INTER.CONST>
1

>  <SCORE.INTER.POLAR>
-6.72367

>  <SCORE.INTER.ROT>
2

>  <SCORE.INTER.SOLV>
18.5702

>  <SCORE.INTER.VDW>
-32.1114

>  <SCORE.INTER.norm>
-5.00773

>  <SCORE.INTRA>
0.965

>  <SCORE.INTRA.DIHEDRAL>
0.0924286

>  <SCORE.INTRA.DIHEDRAL.0>
1.43995

>  <SCORE.INTRA.POLAR>
0.272593

>  <SCORE.INTRA.POLAR.0>
-0.272593

>  <SCORE.INTRA.REPUL>
0

>  <SCORE.INTRA.REPUL.0>
0

>  <SCORE.INTRA.SOLV>
-0.0882857

>  <SCORE.INTRA.SOLV.lig_0>
-22.6728

>  <SCORE.INTRA.VDW>
0.0361132

>  <SCORE.INTRA.VDW.0>
-0.754459

>  <SCORE.INTRA.norm>
0.0742307

>  <SCORE.RESTR>
0

>  <SCORE.RESTR.CAVITY>
0

>  <SCORE.RESTR.norm>
0

>  <SCORE.SYSTEM>
0

>  <SCORE.SYSTEM.CONST>
0

>  <SCORE.SYSTEM.DIHEDRAL>
0

>  <SCORE.SYSTEM.SOLV>
0

>  <SCORE.SYSTEM.norm>
0

>  <SCORE.heavy>
13

>  <SCORE.norm>
-4.9335

>  <RMSD>
0.354

$$$$
lig.pdb
 OpenBabel11021811453D
libRbt.so/2013.1/901 2013/11/27
 13 14  0  0  0  0  0  0  0  0999 V2000
    2.3021    3.5547   -4.3751 N   0  0  0  0  0  0  0  0  0  0  0  0
    3.5222    2.9522   -4.5611 C   0  0  0  0  0  0  0  0  0  0  0  0
    3.8158    1.8243   -3.9234 N   0  0  0  0  0  0  0  0  0  0  0  0
    2.9231    1.2303   -3.0722 C   0  0  0  0  0  0  0  0  0  0  0  0
    1.6554    1.8238   -2.8445 C   0  0  0  0  0  0  0  0  0  0  0  0
    1.3555    3.0304   -3.5387 C   0  0  0  0  0  0  0  0  0  0  0  0
    0.2828    3.5889   -3.3971 O   0  0  0  0  0  0  0  0  0  0  0  0
    0.9621    0.9751   -1.8756 C   0  0  0  0  0  0  0  0  0  0  0  0
   -0.3928    1.2159   -1.2668 C   0  0  0  0  0  0  0  0  0  0  0  0
   -1.4267    1.1021   -2.3049 N   0  0  0  0  0  0  0  0  0  0  0  0
    1.7889   -0.0465   -1.6193 C   0  0  0  0  0  0  0  0  0  0  0  0
    2.9580    0.1024   -2.3172 N   0  0  0  0  0  0  0  0  0  0  0  0
    4.4361    3.5124   -5.4144 N   0  0  0  0  0  0  0  0  0  0  0  0
  1  6  1  0  0  0  0
  2  1  1  0  0  0  0
  2  3  2  0  0  0  0
  3  4  1  0  0  0  0
  4  5  2  0  0  0  0
  4 12  1  0  0  0  0
  5  8  1  0  0  0  0
  6  7  2  0  0  0  0
  6  5  1  0  0  0  0
  8 11  2  0  0  0  0
  8  9  1  0  0  0  0
 10  9  1  0  0  0  0
 12 11  1  0  0  0  0
 13  2  1  0  0  0  0
M  END
>  <CHROM.1>
67.21819951,91.02169275,1.83382433,1.94795303,-3.15315940,0.69566963,0.28816333
-0.61265590

>  <Name>
lig.pdb

>  <RI>
0

>  <Rbt.Current_Directory>
/home/itssahil/PROJECTS/Mol_Feturizer/New_Systems/rnas/2l1v

>  <Rbt.Executable>
rbdock ($Id: //depot/dev/client3/rdock/2013.1/src/exe/rbdock.cxx#4 $)

>  <Rbt.Library>
libRbt.so (2013.1, Build901 2013/11/27)

>  <Rbt.Parameter_File>
/export/apps/rDock/src/rDock_2013.1_src/data/scripts/dock_solv.prm

>  <Rbt.Receptor>
prm/pocket_docking_3.prm

>  <SCORE>
-64.3007

>  <SCORE.INTER>
-65.209

>  <SCORE.INTER.CONST>
1

>  <SCORE.INTER.POLAR>
-6.68326

>  <SCORE.INTER.ROT>
2

>  <SCORE.INTER.SOLV>
18.7006

>  <SCORE.INTER.VDW>
-32.362

>  <SCORE.INTER.norm>
-5.01608

>  <SCORE.INTRA>
0.90838

>  <SCORE.INTRA.DIHEDRAL>
-0.0052178

>  <SCORE.INTRA.DIHEDRAL.0>
1.43995

>  <SCORE.INTRA.POLAR>
0.272593

>  <SCORE.INTRA.POLAR.0>
-0.272593

>  <SCORE.INTRA.REPUL>
0

>  <SCORE.INTRA.REPUL.0>
0

>  <SCORE.INTRA.SOLV>
-0.107078

>  <SCORE.INTRA.SOLV.lig_0>
-22.6728

>  <SCORE.INTRA.VDW>
0.0377132

>  <SCORE.INTRA.VDW.0>
-0.754459

>  <SCORE.INTRA.norm>
0.0698754

>  <SCORE.RESTR>
0

>  <SCORE.RESTR.CAVITY>
0

>  <SCORE.RESTR.norm>
0

>  <SCORE.SYSTEM>
0

>  <SCORE.SYSTEM.CONST>
0

>  <SCORE.SYSTEM.DIHEDRAL>
0

>  <SCORE.SYSTEM.SOLV>
0

>  <SCORE.SYSTEM.norm>
0

>  <SCORE.heavy>
13

>  <SCORE.norm>
-4.9462

>  <RMSD>
0.354

$$$$
lig.pdb
 OpenBabel11021811453D
libRbt.so/2013.1/901 2013/11/27
 13 14  0  0  0  0  0  0  0  0999 V2000
    2.3099    3.5663   -4.3849 N   0  0  0  0  0  0  0  0  0  0  0  0
    3.5297    2.9656   -4.5780 C   0  0  0  0  0  0  0  0  0  0  0  0
    3.8292    1.8388   -3.9412 N   0  0  0  0  0  0  0  0  0  0  0  0
    2.9427    1.2440   -3.0840 C   0  0  0  0  0  0  0  0  0  0  0  0
    1.6755    1.8357   -2.8489 C   0  0  0  0  0  0  0  0  0  0  0  0
    1.3694    3.0412   -3.5422 C   0  0  0  0  0  0  0  0  0  0  0  0
    0.2966    3.5981   -3.3944 O   0  0  0  0  0  0  0  0  0  0  0  0
    0.9896    0.9867   -1.8750 C   0  0  0  0  0  0  0  0  0  0  0  0
   -0.3619    1.2258   -1.2579 C   0  0  0  0  0  0  0  0  0  0  0  0
   -1.4034    1.0930   -2.2861 N   0  0  0  0  0  0  0  0  0  0  0  0
    1.8196   -0.0334   -1.6230 C   0  0  0  0  0  0  0  0  0  0  0  0
    2.9841    0.1168   -2.3283 N   0  0  0  0  0  0  0  0  0  0  0  0
    4.4374    3.5265   -5.4375 N   0  0  0  0  0  0  0  0  0  0  0  0
  1  6  1  0  0  0  0
  2  1  1  0  0  0  0
  2  3  2  0  0  0  0
  3  4  1  0  0  0  0
  4  5  2  0  0  0  0
  4 12  1  0  0  0  0
  5  8  1  0  0  0  0
  6  7  2  0  0  0  0
  6  5  1  0  0  0  0
  8 11  2  0  0  0  0
  8  9  1  0  0  0  0
 10  9  1  0  0  0  0
 12 11  1  0  0  0  0
 13  2  1  0  0  0  0
M  END
>  <CHROM.1>
67.91821226,91.08063553,1.85168671,1.95831237,-3.15842863,0.70170028,0.29188607
-0.61446896

>  <Name>
lig.pdb

>  <RI>
0

>  <Rbt.Current_Directory>
/home/itssahil/PROJECTS/Mol_Feturizer/New_Systems/rnas/2l1v

>  <Rbt.Executable>
rbdock ($Id: //depot/dev/client3/rdock/2013.1/src/exe/rbdock.cxx#4 $)

>  <Rbt.Library>
libRbt.so (2013.1, Build901 2013/11/27)

>  <Rbt.Parameter_File>
/export/apps/rDock/src/rDock_2013.1_src/data/scripts/dock_solv.prm

>  <Rbt.Receptor>
prm/pocket_docking_3.prm

>  <SCORE>
-64.311

>  <SCORE.INTER>
-65.2254

>  <SCORE.INTER.CONST>
1

>  <SCORE.INTER.POLAR>
-6.69038

>  <SCORE.INTER.ROT>
2

>  <SCORE.INTER.SOLV>
18.6849

>  <SCORE.INTER.VDW>
-32.344

>  <SCORE.INTER.norm>
-5.01734

>  <SCORE.INTRA>
0.914412

>  <SCORE.INTRA.DIHEDRAL>
0.00861357

>  <SCORE.INTRA.DIHEDRAL.0>
1.43995

>  <SCORE.INTRA.POLAR>
0.272593

>  <SCORE.INTRA.POLAR.0>
-0.272593

>  <SCORE.INTRA.REPUL>
0

>  <SCORE.INTRA.REPUL.0>
0

>  <SCORE.INTRA.SOLV>
-0.113909

>  <SCORE.INTRA.SOLV.lig_0>
-22.6728

>  <SCORE.INTRA.VDW>
0.0402448

>  <SCORE.INTRA.VDW.0>
-0.754459

>  <SCORE.INTRA.norm>
0.0703394

>  <SCORE.RESTR>
0

>  <SCORE.RESTR.CAVITY>
0

>  <SCORE.RESTR.norm>
0

>  <SCORE.SYSTEM>
0

>  <SCORE.SYSTEM.CONST>
0

>  <SCORE.SYSTEM.DIHEDRAL>
0

>  <SCORE.SYSTEM.SOLV>
0

>  <SCORE.SYSTEM.norm>
0

>  <SCORE.heavy>
13

>  <SCORE.norm>
-4.947

>  <RMSD>
0.354

$$$$
lig.pdb
 OpenBabel11021811453D
libRbt.so/2013.1/901 2013/11/27
 13 14  0  0  0  0  0  0  0  0999 V2000
    2.3008    3.5611   -4.3827 N   0  0  0  0  0  0  0  0  0  0  0  0
    3.5200    2.9571   -4.5698 C   0  0  0  0  0  0  0  0  0  0  0  0
    3.8134    1.8296   -3.9312 N   0  0  0  0  0  0  0  0  0  0  0  0
    2.9212    1.2375   -3.0781 C   0  0  0  0  0  0  0  0  0  0  0  0
    1.6545    1.8327   -2.8492 C   0  0  0  0  0  0  0  0  0  0  0  0
    1.3549    3.0388   -3.5443 C   0  0  0  0  0  0  0  0  0  0  0  0
    0.2830    3.5986   -3.4018 O   0  0  0  0  0  0  0  0  0  0  0  0
    0.9617    0.9858   -1.8783 C   0  0  0  0  0  0  0  0  0  0  0  0
   -0.3920    1.2288   -1.2678 C   0  0  0  0  0  0  0  0  0  0  0  0
   -1.4286    1.1028   -2.3017 N   0  0  0  0  0  0  0  0  0  0  0  0
    1.7878   -0.0364   -1.6221 C   0  0  0  0  0  0  0  0  0  0  0  0
    2.9560    0.1105   -2.3218 N   0  0  0  0  0  0  0  0  0  0  0  0
    4.4332    3.5153   -5.4252 N   0  0  0  0  0  0  0  0  0  0  0  0
  1  6  1  0  0  0  0
  2  1  1  0  0  0  0
  2  3  2  0  0  0  0
  3  4  1  0  0  0  0
  4  5  2  0  0  0  0
  4 12  1  0  0  0  0
  5  8  1  0  0  0  0
  6  7  2  0  0  0  0
  6  5  1  0  0  0  0
  8 11  2  0  0  0  0
  8  9  1  0  0  0  0
 10  9  1  0  0  0  0
 12 11  1  0  0  0  0
 13  2  1  0  0  0  0
M  END
>  <CHROM.1>
67.73074485,90.73759294,1.83252509,1.95513617,-3.15802295,0.69629992,0.28966055
-0.61343421

>  <Name>
lig.pdb

>  <RI>
1.77584e+07

>  <Rbt.Current_Directory>
/home/itssahil/PROJECTS/Mol_Feturizer/New_Systems/rnas/2l1v

>  <Rbt.Executable>
rbdock ($Id: //depot/dev/client3/rdock/2013.1/src/exe/rbdock.cxx#4 $)

>  <Rbt.Library>
libRbt.so (2013.1, Build901 2013/11/27)

>  <Rbt.Parameter_File>
/export/apps/rDock/src/rDock_2013.1_src/data/scripts/dock_solv.prm

>  <Rbt.Receptor>
prm/blind_docking_80.prm

>  <SCORE>
-64.3145

>  <SCORE.INTER>
-65.2274

>  <SCORE.INTER.CONST>
1

>  <SCORE.INTER.POLAR>
-6.67117

>  <SCORE.INTER.ROT>
2

>  <SCORE.INTER.SOLV>
18.7303

>  <SCORE.INTER.VDW>
-32.4245

>  <SCORE.INTER.norm>
-5.01749

>  <SCORE.INTRA>
0.912862

>  <SCORE.INTRA.DIHEDRAL>
0.00465739

>  <SCORE.INTRA.DIHEDRAL.0>
1.43995

>  <SCORE.INTRA.POLAR>
0.272593

>  <SCORE.INTRA.POLAR.0>
-0.272593

>  <SCORE.INTRA.REPUL>
0

>  <SCORE.INTRA.REPUL.0>
0

>  <SCORE.INTRA.SOLV>
-0.112185

>  <SCORE.INTRA.SOLV.lig_0>
-22.6728

>  <SCORE.INTRA.VDW>
0.0398109

>  <SCORE.INTRA.VDW.0>
-0.754459

>  <SCORE.INTRA.norm>
0.0702202

>  <SCORE.RESTR>
0

>  <SCORE.RESTR.CAVITY>
0

>  <SCORE.RESTR.norm>
0

>  <SCORE.SYSTEM>
0

>  <SCORE.SYSTEM.CONST>
0

>  <SCORE.SYSTEM.DIHEDRAL>
0

>  <SCORE.SYSTEM.SOLV>
0

>  <SCORE.SYSTEM.norm>
0

>  <SCORE.heavy>
13

>  <SCORE.norm>
-4.94727

>  <RMSD>
0.355

$$$$
lig.pdb
 OpenBabel11021811453D
libRbt.so/2013.1/901 2013/11/27
 13 14  0  0  0  0  0  0  0  0999 V2000
    2.3078    3.5623   -4.3768 N   0  0  0  0  0  0  0  0  0  0  0  0
    3.5381    2.9785   -4.5549 C   0  0  0  0  0  0  0  0  0  0  0  0
    3.8471    1.8586   -3.9103 N   0  0  0  0  0  0  0  0  0  0  0  0
    2.9604    1.2546   -3.0598 C   0  0  0  0  0  0  0  0  0  0  0  0
    1.6825    1.8289   -2.8401 C   0  0  0  0  0  0  0  0  0  0  0  0
    1.3663    3.0271   -3.5416 C   0  0  0  0  0  0  0  0  0  0  0  0
    0.2842    3.5690   -3.4071 O   0  0  0  0  0  0  0  0  0  0  0  0
    0.9989    0.9741   -1.8698 C   0  0  0  0  0  0  0  0  0  0  0  0
   -0.3622    1.1962   -1.2676 C   0  0  0  0  0  0  0  0  0  0  0  0
   -1.3872    1.0940   -2.3156 N   0  0  0  0  0  0  0  0  0  0  0  0
    1.8408   -0.0329   -1.6050 C   0  0  0  0  0  0  0  0  0  0  0  0
    3.0103    0.1312   -2.2989 N   0  0  0  0  0  0  0  0  0  0  0  0
    4.4464    3.5489   -5.4073 N   0  0  0  0  0  0  0  0  0  0  0  0
  1  6  1  0  0  0  0
  2  1  1  0  0  0  0
  2  3  2  0  0  0  0
  3  4  1  0  0  0  0
  4  5  2  0  0  0  0
  4 12  1  0  0  0  0
  5  8  1  0  0  0  0
  6  7  2  0  0  0  0
  6  5  1  0  0  0  0
  8 11  2  0  0  0  0
  8  9  1  0  0  0  0
 10  9  1  0  0  0  0
 12 11  1  0  0  0  0
 13  2  1  0  0  0  0
M  END
>  <CHROM.1>
65.81399439,-88.95544836,1.86021511,1.95754647,-3.14902413,0.70459938,0.27665751
-0.62170840

>  <Name>
lig.pdb

>  <RI>
1.77584e+07

>  <Rbt.Current_Directory>
/home/itssahil/PROJECTS/Mol_Feturizer/New_Systems/rnas/2l1v

>  <Rbt.Executable>
rbdock ($Id: //depot/dev/client3/rdock/2013.1/src/exe/rbdock.cxx#4 $)

>  <Rbt.Library>
libRbt.so (2013.1, Build901 2013/11/27)

>  <Rbt.Parameter_File>
/export/apps/rDock/src/rDock_2013.1_src/data/scripts/dock_solv.prm

>  <Rbt.Receptor>
prm/blind_docking_80.prm

>  <SCORE>
-64.0862

>  <SCORE.INTER>
-65.0549

>  <SCORE.INTER.CONST>
1

>  <SCORE.INTER.POLAR>
-6.73055

>  <SCORE.INTER.ROT>
2

>  <SCORE.INTER.SOLV>
18.6064

>  <SCORE.INTER.VDW>
-32.0703

>  <SCORE.INTER.norm>
-5.00423

>  <SCORE.INTRA>
0.968761

>  <SCORE.INTRA.DIHEDRAL>
0.103059

>  <SCORE.INTRA.DIHEDRAL.0>
1.43995

>  <SCORE.INTRA.POLAR>
0.272593

>  <SCORE.INTRA.POLAR.0>
-0.272593

>  <SCORE.INTRA.REPUL>
0

>  <SCORE.INTRA.REPUL.0>
0

>  <SCORE.INTRA.SOLV>
-0.0958082

>  <SCORE.INTRA.SOLV.lig_0>
-22.6728

>  <SCORE.INTRA.VDW>
0.0383204

>  <SCORE.INTRA.VDW.0>
-0.754459

>  <SCORE.INTRA.norm>
0.07452

>  <SCORE.RESTR>
0

>  <SCORE.RESTR.CAVITY>
0

>  <SCORE.RESTR.norm>
0

>  <SCORE.SYSTEM>
0

>  <SCORE.SYSTEM.CONST>
0

>  <SCORE.SYSTEM.DIHEDRAL>
0

>  <SCORE.SYSTEM.SOLV>
0

>  <SCORE.SYSTEM.norm>
0

>  <SCORE.heavy>
13

>  <SCORE.norm>
-4.92971

>  <RMSD>
0.355

$$$$
lig.pdb
 OpenBabel11021811453D
libRbt.so/2013.1/901 2013/11/27
 13 14  0  0  0  0  0  0  0  0999 V2000
    2.3065    3.5614   -4.3858 N   0  0  0  0  0  0  0  0  0  0  0  0
    3.5341    2.9713   -4.5619 C   0  0  0  0  0  0  0  0  0  0  0  0
    3.8374    1.8513   -3.9149 N   0  0  0  0  0  0  0  0  0  0  0  0
    2.9473    1.2532   -3.0638 C   0  0  0  0  0  0  0  0  0  0  0  0
    1.6720    1.8340   -2.8461 C   0  0  0  0  0  0  0  0  0  0  0  0
    1.3619    3.0323   -3.5501 C   0  0  0  0  0  0  0  0  0  0  0  0
    0.2824    3.5797   -3.4174 O   0  0  0  0  0  0  0  0  0  0  0  0
    0.9837    0.9844   -1.8745 C   0  0  0  0  0  0  0  0  0  0  0  0
   -0.3767    1.2141   -1.2736 C   0  0  0  0  0  0  0  0  0  0  0  0
   -1.4025    1.1030   -2.3199 N   0  0  0  0  0  0  0  0  0  0  0  0
    1.8207   -0.0261   -1.6072 C   0  0  0  0  0  0  0  0  0  0  0  0
    2.9913    0.1311   -2.3007 N   0  0  0  0  0  0  0  0  0  0  0  0
    4.4457    3.5358   -5.4149 N   0  0  0  0  0  0  0  0  0  0  0  0
  1  6  1  0  0  0  0
  2  1  1  0  0  0  0
  2  3  2  0  0  0  0
  3  4  1  0  0  0  0
  4  5  2  0  0  0  0
  4 12  1  0  0  0  0
  5  8  1  0  0  0  0
  6  7  2  0  0  0  0
  6  5  1  0  0  0  0
  8 11  2  0  0  0  0
  8  9  1  0  0  0  0
 10  9  1  0  0  0  0
 12 11  1  0  0  0  0
 13  2  1  0  0  0  0
M  END
>  <CHROM.1>
66.30866467,-89.68466490,1.85042474,1.96008922,-3.15491657,0.70080131,0.27858909
-0.62209852

>  <Name>
lig.pdb

>  <RI>
1.459e+07

>  <Rbt.Current_Directory>
/home/itssahil/PROJECTS/Mol_Feturizer/New_Systems/rnas/2l1v

>  <Rbt.Executable>
rbdock ($Id: //depot/dev/client3/rdock/2013.1/src/exe/rbdock.cxx#4 $)

>  <Rbt.Library>
libRbt.so (2013.1, Build901 2013/11/27)

>  <Rbt.Parameter_File>
/export/apps/rDock/src/rDock_2013.1_src/data/scripts/dock_solv.prm

>  <Rbt.Receptor>
prm/pocket_docking_2.prm

>  <SCORE>
-64.12

>  <SCORE.INTER>
-65.0924

>  <SCORE.INTER.CONST>
1

>  <SCORE.INTER.POLAR>
-6.70909

>  <SCORE.INTER.ROT>
2

>  <SCORE.INTER.SOLV>
18.6651

>  <SCORE.INTER.VDW>
-32.1863

>  <SCORE.INTER.norm>
-5.00711

>  <SCORE.INTRA>
0.972406

>  <SCORE.INTRA.DIHEDRAL>
0.110908

>  <SCORE.INTRA.DIHEDRAL.0>
1.43995

>  <SCORE.INTRA.POLAR>
0.272593

>  <SCORE.INTRA.POLAR.0>
-0.272593

>  <SCORE.INTRA.REPUL>
0

>  <SCORE.INTRA.REPUL.0>
0

>  <SCORE.INTRA.SOLV>
-0.100888

>  <SCORE.INTRA.SOLV.lig_0>
-22.6728

>  <SCORE.INTRA.VDW>
0.0405815

>  <SCORE.INTRA.VDW.0>
-0.754459

>  <SCORE.INTRA.norm>
0.0748005

>  <SCORE.RESTR>
0

>  <SCORE.RESTR.CAVITY>
0

>  <SCORE.RESTR.norm>
0

>  <SCORE.SYSTEM>
0

>  <SCORE.SYSTEM.CONST>
0

>  <SCORE.SYSTEM.DIHEDRAL>
0

>  <SCORE.SYSTEM.SOLV>
0

>  <SCORE.SYSTEM.norm>
0

>  <SCORE.heavy>
13

>  <SCORE.norm>
-4.93231

>  <RMSD>
0.355

$$$$
lig.pdb
 OpenBabel11021811453D
libRbt.so/2013.1/901 2013/11/27
 13 14  0  0  0  0  0  0  0  0999 V2000
    2.3009    3.5539   -4.3787 N   0  0  0  0  0  0  0  0  0  0  0  0
    3.5180    2.9459   -4.5657 C   0  0  0  0  0  0  0  0  0  0  0  0
    3.8068    1.8163   -3.9288 N   0  0  0  0  0  0  0  0  0  0  0  0
    2.9117    1.2259   -3.0776 C   0  0  0  0  0  0  0  0  0  0  0  0
    1.6470    1.8252   -2.8488 C   0  0  0  0  0  0  0  0  0  0  0  0
    1.3523    3.0336   -3.5421 C   0  0  0  0  0  0  0  0  0  0  0  0
    0.2823    3.5969   -3.3996 O   0  0  0  0  0  0  0  0  0  0  0  0
    0.9503    0.9792   -1.8800 C   0  0  0  0  0  0  0  0  0  0  0  0
   -0.4032    1.2259   -1.2703 C   0  0  0  0  0  0  0  0  0  0  0  0
   -1.4394    1.1036   -2.3050 N   0  0  0  0  0  0  0  0  0  0  0  0
    1.7724   -0.0464   -1.6248 C   0  0  0  0  0  0  0  0  0  0  0  0
    2.9418    0.0975   -2.3232 N   0  0  0  0  0  0  0  0  0  0  0  0
    4.4341    3.5023   -5.4193 N   0  0  0  0  0  0  0  0  0  0  0  0
  1  6  1  0  0  0  0
  2  1  1  0  0  0  0
  2  3  2  0  0  0  0
  3  4  1  0  0  0  0
  4  5  2  0  0  0  0
  4 12  1  0  0  0  0
  5  8  1  0  0  0  0
  6  7  2  0  0  0  0
  6  5  1  0  0  0  0
  8 11  2  0  0  0  0
  8  9  1  0  0  0  0
 10  9  1  0  0  0  0
 12 11  1  0  0  0  0
 13  2  1  0  0  0  0
M  END
>  <CHROM.1>
67.80939258,90.53781850,1.82569837,1.94739231,-3.15718873,0.69278250,0.29092307
-0.61061086

>  <Name>
lig.pdb

>  <RI>
0

>  <Rbt.Current_Directory>
/home/itssahil/PROJECTS/Mol_Feturizer/New_Systems/rnas/2l1v

>  <Rbt.Executable>
rbdock ($Id: //depot/dev/client3/rdock/2013.1/src/exe/rbdock.cxx#4 $)

>  <Rbt.Library>
libRbt.so (2013.1, Build901 2013/11/27)

>  <Rbt.Parameter_File>
/export/apps/rDock/src/rDock_2013.1_src/data/scripts/dock_solv.prm

>  <Rbt.Receptor>
prm/pocket_docking_3.prm

>  <SCORE>
-64.3133

>  <SCORE.INTER>
-65.227

>  <SCORE.INTER.CONST>
1

>  <SCORE.INTER.POLAR>
-6.66352

>  <SCORE.INTER.ROT>
2

>  <SCORE.INTER.SOLV>
18.7451

>  <SCORE.INTER.VDW>
-32.4546

>  <SCORE.INTER.norm>
-5.01746

>  <SCORE.INTRA>
0.913658

>  <SCORE.INTRA.DIHEDRAL>
0.00619242

>  <SCORE.INTRA.DIHEDRAL.0>
1.43995

>  <SCORE.INTRA.POLAR>
0.272593

>  <SCORE.INTRA.POLAR.0>
-0.272593

>  <SCORE.INTRA.REPUL>
0

>  <SCORE.INTRA.REPUL.0>
0

>  <SCORE.INTRA.SOLV>
-0.113022

>  <SCORE.INTRA.SOLV.lig_0>
-22.6728

>  <SCORE.INTRA.VDW>
0.0402579

>  <SCORE.INTRA.VDW.0>
-0.754459

>  <SCORE.INTRA.norm>
0.0702814

>  <SCORE.RESTR>
0

>  <SCORE.RESTR.CAVITY>
0

>  <SCORE.RESTR.norm>
0

>  <SCORE.SYSTEM>
0

>  <SCORE.SYSTEM.CONST>
0

>  <SCORE.SYSTEM.DIHEDRAL>
0

>  <SCORE.SYSTEM.SOLV>
0

>  <SCORE.SYSTEM.norm>
0

>  <SCORE.heavy>
13

>  <SCORE.norm>
-4.94718

>  <RMSD>
0.355

$$$$
lig.pdb
 OpenBabel11021811453D
libRbt.so/2013.1/901 2013/11/27
 13 14  0  0  0  0  0  0  0  0999 V2000
    2.3029    3.5543   -4.3729 N   0  0  0  0  0  0  0  0  0  0  0  0
    3.5240    2.9539   -4.5586 C   0  0  0  0  0  0  0  0  0  0  0  0
    3.8197    1.8269   -3.9203 N   0  0  0  0  0  0  0  0  0  0  0  0
    2.9280    1.2317   -3.0688 C   0  0  0  0  0  0  0  0  0  0  0  0
    1.6593    1.8232   -2.8413 C   0  0  0  0  0  0  0  0  0  0  0  0
    1.3573    3.0289   -3.5361 C   0  0  0  0  0  0  0  0  0  0  0  0
    0.2836    3.5855   -3.3948 O   0  0  0  0  0  0  0  0  0  0  0  0
    0.9675    0.9738   -1.8719 C   0  0  0  0  0  0  0  0  0  0  0  0
   -0.3878    1.2125   -1.2631 C   0  0  0  0  0  0  0  0  0  0  0  0
   -1.4208    1.1038   -2.3026 N   0  0  0  0  0  0  0  0  0  0  0  0
    1.7961   -0.0463   -1.6151 C   0  0  0  0  0  0  0  0  0  0  0  0
    2.9649    0.1043   -2.3132 N   0  0  0  0  0  0  0  0  0  0  0  0
    4.4368    3.5152   -5.4123 N   0  0  0  0  0  0  0  0  0  0  0  0
  1  6  1  0  0  0  0
  2  1  1  0  0  0  0
  2  3  2  0  0  0  0
  3  4  1  0  0  0  0
  4  5  2  0  0  0  0
  4 12  1  0  0  0  0
  5  8  1  0  0  0  0
  6  7  2  0  0  0  0
  6  5  1  0  0  0  0
  8 11  2  0  0  0  0
  8  9  1  0  0  0  0
 10  9  1  0  0  0  0
 12 11  1  0  0  0  0
 13  2  1  0  0  0  0
M  END
>  <CHROM.1>
66.90059176,90.88370195,1.83755954,1.94813722,-3.15017930,0.69677615,0.28743529
-0.61383672

>  <Name>
lig.pdb

>  <RI>
2.86608e+07

>  <Rbt.Current_Directory>
/home/itssahil/PROJECTS/Mol_Feturizer/New_Systems/rnas/2l1v

>  <Rbt.Executable>
rbdock ($Id: //depot/dev/client3/rdock/2013.1/src/exe/rbdock.cxx#4 $)

>  <Rbt.Library>
libRbt.so (2013.1, Build901 2013/11/27)

>  <Rbt.Parameter_File>
/export/apps/rDock/src/rDock_2013.1_src/data/scripts/dock_solv.prm

>  <Rbt.Receptor>
prm/pocket_docking_7.prm

>  <SCORE>
-64.2948

>  <SCORE.INTER>
-65.2007

>  <SCORE.INTER.CONST>
1

>  <SCORE.INTER.POLAR>
-6.6899

>  <SCORE.INTER.ROT>
2

>  <SCORE.INTER.SOLV>
18.6791

>  <SCORE.INTER.VDW>
-32.3272

>  <SCORE.INTER.norm>
-5.01544

>  <SCORE.INTRA>
0.905948

>  <SCORE.INTRA.DIHEDRAL>
-0.011074

>  <SCORE.INTRA.DIHEDRAL.0>
1.43995

>  <SCORE.INTRA.POLAR>
0.272593

>  <SCORE.INTRA.POLAR.0>
-0.272593

>  <SCORE.INTRA.REPUL>
0

>  <SCORE.INTRA.REPUL.0>
0

>  <SCORE.INTRA.SOLV>
-0.104024

>  <SCORE.INTRA.SOLV.lig_0>
-22.6728

>  <SCORE.INTRA.VDW>
0.0366821

>  <SCORE.INTRA.VDW.0>
-0.754459

>  <SCORE.INTRA.norm>
0.0696883

>  <SCORE.RESTR>
0

>  <SCORE.RESTR.CAVITY>
0

>  <SCORE.RESTR.norm>
0

>  <SCORE.SYSTEM>
0

>  <SCORE.SYSTEM.CONST>
0

>  <SCORE.SYSTEM.DIHEDRAL>
0

>  <SCORE.SYSTEM.SOLV>
0

>  <SCORE.SYSTEM.norm>
0

>  <SCORE.heavy>
13

>  <SCORE.norm>
-4.94575

>  <RMSD>
0.355

$$$$
lig.pdb
 OpenBabel11021811453D
libRbt.so/2013.1/901 2013/11/27
 13 14  0  0  0  0  0  0  0  0999 V2000
    2.2995    3.5511   -4.3864 N   0  0  0  0  0  0  0  0  0  0  0  0
    3.5309    2.9660   -4.5517 C   0  0  0  0  0  0  0  0  0  0  0  0
    3.8356    1.8511   -3.8965 N   0  0  0  0  0  0  0  0  0  0  0  0
    2.9433    1.2537   -3.0472 C   0  0  0  0  0  0  0  0  0  0  0  0
    1.6640    1.8297   -2.8406 C   0  0  0  0  0  0  0  0  0  0  0  0
    1.3524    3.0224   -3.5534 C   0  0  0  0  0  0  0  0  0  0  0  0
    0.2695    3.5653   -3.4303 O   0  0  0  0  0  0  0  0  0  0  0  0
    0.9739    0.9823   -1.8682 C   0  0  0  0  0  0  0  0  0  0  0  0
   -0.3912    1.2090   -1.2769 C   0  0  0  0  0  0  0  0  0  0  0  0
   -1.4090    1.1012   -2.3313 N   0  0  0  0  0  0  0  0  0  0  0  0
    1.8140   -0.0226   -1.5901 C   0  0  0  0  0  0  0  0  0  0  0  0
    2.9880    0.1362   -2.2774 N   0  0  0  0  0  0  0  0  0  0  0  0
    4.4449    3.5298   -5.4025 N   0  0  0  0  0  0  0  0  0  0  0  0
  1  6  1  0  0  0  0
  2  1  1  0  0  0  0
  2  3  2  0  0  0  0
  3  4  1  0  0  0  0
  4  5  2  0  0  0  0
  4 12  1  0  0  0  0
  5  8  1  0  0  0  0
  6  7  2  0  0  0  0
  6  5  1  0  0  0  0
  8 11  2  0  0  0  0
  8  9  1  0  0  0  0
 10  9  1  0  0  0  0
 12 11  1  0  0  0  0
 13  2  1  0  0  0  0
M  END
>  <CHROM.1>
65.70784522,-89.47782269,1.84372518,1.95612365,-3.14929360,0.70040084,0.27135310
-0.62838889

>  <Name>
lig.pdb

>  <RI>
1.77584e+07

>  <Rbt.Current_Directory>
/home/itssahil/PROJECTS/Mol_Feturizer/New_Systems/rnas/2l1v

>  <Rbt.Executable>
rbdock ($Id: //depot/dev/client3/rdock/2013.1/src/exe/rbdock.cxx#4 $)

>  <Rbt.Library>
libRbt.so (2013.1, Build901 2013/11/27)

>  <Rbt.Parameter_File>
/export/apps/rDock/src/rDock_2013.1_src/data/scripts/dock_solv.prm

>  <Rbt.Receptor>
prm/blind_docking_80.prm

>  <SCORE>
-64.1291

>  <SCORE.INTER>
-65.0977

>  <SCORE.INTER.CONST>
1

>  <SCORE.INTER.POLAR>
-6.71626

>  <SCORE.INTER.ROT>
2

>  <SCORE.INTER.SOLV>
18.6296

>  <SCORE.INTER.VDW>
-32.1541

>  <SCORE.INTER.norm>
-5.00751

>  <SCORE.INTRA>
0.968577

>  <SCORE.INTRA.DIHEDRAL>
0.10169

>  <SCORE.INTRA.DIHEDRAL.0>
1.43995

>  <SCORE.INTRA.POLAR>
0.272593

>  <SCORE.INTRA.POLAR.0>
-0.272593

>  <SCORE.INTRA.REPUL>
0

>  <SCORE.INTRA.REPUL.0>
0

>  <SCORE.INTRA.SOLV>
-0.0949915

>  <SCORE.INTRA.SOLV.lig_0>
-22.6728

>  <SCORE.INTRA.VDW>
0.0384125

>  <SCORE.INTRA.VDW.0>
-0.754459

>  <SCORE.INTRA.norm>
0.0745059

>  <SCORE.RESTR>
0

>  <SCORE.RESTR.CAVITY>
0

>  <SCORE.RESTR.norm>
0

>  <SCORE.SYSTEM>
0

>  <SCORE.SYSTEM.CONST>
0

>  <SCORE.SYSTEM.DIHEDRAL>
0

>  <SCORE.SYSTEM.SOLV>
0

>  <SCORE.SYSTEM.norm>
0

>  <SCORE.heavy>
13

>  <SCORE.norm>
-4.93301

>  <RMSD>
0.356

$$$$
lig.pdb
 OpenBabel11021811453D
libRbt.so/2013.1/901 2013/11/27
 13 14  0  0  0  0  0  0  0  0999 V2000
    2.3024    3.5362   -4.3724 N   0  0  0  0  0  0  0  0  0  0  0  0
    3.5342    2.9513   -4.5354 C   0  0  0  0  0  0  0  0  0  0  0  0
    3.8373    1.8356   -3.8808 N   0  0  0  0  0  0  0  0  0  0  0  0
    2.9428    1.2370   -3.0346 C   0  0  0  0  0  0  0  0  0  0  0  0
    1.6629    1.8127   -2.8305 C   0  0  0  0  0  0  0  0  0  0  0  0
    1.3532    3.0064   -3.5425 C   0  0  0  0  0  0  0  0  0  0  0  0
    0.2699    3.5491   -3.4214 O   0  0  0  0  0  0  0  0  0  0  0  0
    0.9704    0.9641   -1.8609 C   0  0  0  0  0  0  0  0  0  0  0  0
   -0.3962    1.1900   -1.2728 C   0  0  0  0  0  0  0  0  0  0  0  0
   -1.4093    1.1064   -2.3340 N   0  0  0  0  0  0  0  0  0  0  0  0
    1.8098   -0.0411   -1.5820 C   0  0  0  0  0  0  0  0  0  0  0  0
    2.9856    0.1186   -2.2661 N   0  0  0  0  0  0  0  0  0  0  0  0
    4.4504    3.5163   -5.3831 N   0  0  0  0  0  0  0  0  0  0  0  0
  1  6  1  0  0  0  0
  2  1  1  0  0  0  0
  2  3  2  0  0  0  0
  3  4  1  0  0  0  0
  4  5  2  0  0  0  0
  4 12  1  0  0  0  0
  5  8  1  0  0  0  0
  6  7  2  0  0  0  0
  6  5  1  0  0  0  0
  8 11  2  0  0  0  0
  8  9  1  0  0  0  0
 10  9  1  0  0  0  0
 12 11  1  0  0  0  0
 13  2  1  0  0  0  0
M  END
>  <CHROM.1>
64.74372017,-89.37163489,1.84367322,1.94173331,-3.13892368,0.69761692,0.27001004
-0.62728671

>  <Name>
lig.pdb

>  <RI>
0

>  <Rbt.Current_Directory>
/home/itssahil/PROJECTS/Mol_Feturizer/New_Systems/rnas/2l1v

>  <Rbt.Executable>
rbdock ($Id: //depot/dev/client3/rdock/2013.1/src/exe/rbdock.cxx#4 $)

>  <Rbt.Library>
libRbt.so (2013.1, Build901 2013/11/27)

>  <Rbt.Parameter_File>
/export/apps/rDock/src/rDock_2013.1_src/data/scripts/dock_solv.prm

>  <Rbt.Receptor>
prm/pocket_docking_3.prm

>  <SCORE>
-64.1191

>  <SCORE.INTER>
-65.083

>  <SCORE.INTER.CONST>
1

>  <SCORE.INTER.POLAR>
-6.73101

>  <SCORE.INTER.ROT>
2

>  <SCORE.INTER.SOLV>
18.579

>  <SCORE.INTER.VDW>
-32.0783

>  <SCORE.INTER.norm>
-5.00638

>  <SCORE.INTRA>
0.96386

>  <SCORE.INTRA.DIHEDRAL>
0.0891609

>  <SCORE.INTRA.DIHEDRAL.0>
1.43995

>  <SCORE.INTRA.POLAR>
0.272593

>  <SCORE.INTRA.POLAR.0>
-0.272593

>  <SCORE.INTRA.REPUL>
0

>  <SCORE.INTRA.REPUL.0>
0

>  <SCORE.INTRA.SOLV>
-0.0856603

>  <SCORE.INTRA.SOLV.lig_0>
-22.6728

>  <SCORE.INTRA.VDW>
0.035295

>  <SCORE.INTRA.VDW.0>
-0.754459

>  <SCORE.INTRA.norm>
0.0741431

>  <SCORE.RESTR>
0

>  <SCORE.RESTR.CAVITY>
0

>  <SCORE.RESTR.norm>
0

>  <SCORE.SYSTEM>
0

>  <SCORE.SYSTEM.CONST>
0

>  <SCORE.SYSTEM.DIHEDRAL>
0

>  <SCORE.SYSTEM.SOLV>
0

>  <SCORE.SYSTEM.norm>
0

>  <SCORE.heavy>
13

>  <SCORE.norm>
-4.93224

>  <RMSD>
0.356

$$$$
lig.pdb
 OpenBabel11021811453D
libRbt.so/2013.1/901 2013/11/27
 13 14  0  0  0  0  0  0  0  0999 V2000
    2.3076    3.5663   -4.3813 N   0  0  0  0  0  0  0  0  0  0  0  0
    3.5277    2.9655   -4.5728 C   0  0  0  0  0  0  0  0  0  0  0  0
    3.8263    1.8387   -3.9354 N   0  0  0  0  0  0  0  0  0  0  0  0
    2.9388    1.2441   -3.0792 C   0  0  0  0  0  0  0  0  0  0  0  0
    1.6713    1.8360   -2.8457 C   0  0  0  0  0  0  0  0  0  0  0  0
    1.3661    3.0414   -3.5396 C   0  0  0  0  0  0  0  0  0  0  0  0
    0.2932    3.5983   -3.3932 O   0  0  0  0  0  0  0  0  0  0  0  0
    0.9842    0.9872   -1.8725 C   0  0  0  0  0  0  0  0  0  0  0  0
   -0.3680    1.2265   -1.2571 C   0  0  0  0  0  0  0  0  0  0  0  0
   -1.4081    1.0953   -2.2869 N   0  0  0  0  0  0  0  0  0  0  0  0
    1.8139   -0.0329   -1.6193 C   0  0  0  0  0  0  0  0  0  0  0  0
    2.9792    0.1171   -2.3233 N   0  0  0  0  0  0  0  0  0  0  0  0
    4.4364    3.5262   -5.4313 N   0  0  0  0  0  0  0  0  0  0  0  0
  1  6  1  0  0  0  0
  2  1  1  0  0  0  0
  2  3  2  0  0  0  0
  3  4  1  0  0  0  0
  4  5  2  0  0  0  0
  4 12  1  0  0  0  0
  5  8  1  0  0  0  0
  6  7  2  0  0  0  0
  6  5  1  0  0  0  0
  8 11  2  0  0  0  0
  8  9  1  0  0  0  0
 10  9  1  0  0  0  0
 12 11  1  0  0  0  0
 13  2  1  0  0  0  0
M  END
>  <CHROM.1>
67.84165605,91.14321945,1.84789688,1.95868469,-3.15510904,0.70083373,0.29097465
-0.61447874

>  <Name>
lig.pdb

>  <RI>
0

>  <Rbt.Current_Directory>
/home/itssahil/PROJECTS/Mol_Feturizer/New_Systems/rnas/2l1v

>  <Rbt.Executable>
rbdock ($Id: //depot/dev/client3/rdock/2013.1/src/exe/rbdock.cxx#4 $)

>  <Rbt.Library>
libRbt.so (2013.1, Build901 2013/11/27)

>  <Rbt.Parameter_File>
/export/apps/rDock/src/rDock_2013.1_src/data/scripts/dock_solv.prm

>  <Rbt.Receptor>
prm/pocket_docking_3.prm

>  <SCORE>
-64.2959

>  <SCORE.INTER>
-65.2096

>  <SCORE.INTER.CONST>
1

>  <SCORE.INTER.POLAR>
-6.68927

>  <SCORE.INTER.ROT>
2

>  <SCORE.INTER.SOLV>
18.6823

>  <SCORE.INTER.VDW>
-32.3363

>  <SCORE.INTER.norm>
-5.01612

>  <SCORE.INTRA>
0.913687

>  <SCORE.INTRA.DIHEDRAL>
0.00706052

>  <SCORE.INTRA.DIHEDRAL.0>
1.43995

>  <SCORE.INTRA.POLAR>
0.272593

>  <SCORE.INTRA.POLAR.0>
-0.272593

>  <SCORE.INTRA.REPUL>
0

>  <SCORE.INTRA.REPUL.0>
0

>  <SCORE.INTRA.SOLV>
-0.113138

>  <SCORE.INTRA.SOLV.lig_0>
-22.6728

>  <SCORE.INTRA.VDW>
0.039911

>  <SCORE.INTRA.VDW.0>
-0.754459

>  <SCORE.INTRA.norm>
0.0702836

>  <SCORE.RESTR>
0

>  <SCORE.RESTR.CAVITY>
0

>  <SCORE.RESTR.norm>
0

>  <SCORE.SYSTEM>
0

>  <SCORE.SYSTEM.CONST>
0

>  <SCORE.SYSTEM.DIHEDRAL>
0

>  <SCORE.SYSTEM.SOLV>
0

>  <SCORE.SYSTEM.norm>
0

>  <SCORE.heavy>
13

>  <SCORE.norm>
-4.94584

>  <RMSD>
0.356

$$$$
lig.pdb
 OpenBabel11021811453D
libRbt.so/2013.1/901 2013/11/27
 13 14  0  0  0  0  0  0  0  0999 V2000
    2.3105    3.5670   -4.3829 N   0  0  0  0  0  0  0  0  0  0  0  0
    3.5301    2.9649   -4.5733 C   0  0  0  0  0  0  0  0  0  0  0  0
    3.8270    1.8379   -3.9356 N   0  0  0  0  0  0  0  0  0  0  0  0
    2.9380    1.2443   -3.0801 C   0  0  0  0  0  0  0  0  0  0  0  0
    1.6710    1.8375   -2.8478 C   0  0  0  0  0  0  0  0  0  0  0  0
    1.3677    3.0432   -3.5420 C   0  0  0  0  0  0  0  0  0  0  0  0
    0.2953    3.6013   -3.3965 O   0  0  0  0  0  0  0  0  0  0  0  0
    0.9822    0.9895   -1.8751 C   0  0  0  0  0  0  0  0  0  0  0  0
   -0.3703    1.2303   -1.2608 C   0  0  0  0  0  0  0  0  0  0  0  0
   -1.4101    1.0952   -2.2904 N   0  0  0  0  0  0  0  0  0  0  0  0
    1.8105   -0.0314   -1.6211 C   0  0  0  0  0  0  0  0  0  0  0  0
    2.9766    0.1173   -2.3241 N   0  0  0  0  0  0  0  0  0  0  0  0
    4.4402    3.5246   -5.4311 N   0  0  0  0  0  0  0  0  0  0  0  0
  1  6  1  0  0  0  0
  2  1  1  0  0  0  0
  2  3  2  0  0  0  0
  3  4  1  0  0  0  0
  4  5  2  0  0  0  0
  4 12  1  0  0  0  0
  5  8  1  0  0  0  0
  6  7  2  0  0  0  0
  6  5  1  0  0  0  0
  8 11  2  0  0  0  0
  8  9  1  0  0  0  0
 10  9  1  0  0  0  0
 12 11  1  0  0  0  0
 13  2  1  0  0  0  0
M  END
>  <CHROM.1>
68.05717652,90.77923239,1.84795553,1.95956281,-3.15689296,0.69966704,0.29077904
-0.61396450

>  <Name>
lig.pdb

>  <RI>
1.77584e+07

>  <Rbt.Current_Directory>
/home/itssahil/PROJECTS/Mol_Feturizer/New_Systems/rnas/2l1v

>  <Rbt.Executable>
rbdock ($Id: //depot/dev/client3/rdock/2013.1/src/exe/rbdock.cxx#4 $)

>  <Rbt.Library>
libRbt.so (2013.1, Build901 2013/11/27)

>  <Rbt.Parameter_File>
/export/apps/rDock/src/rDock_2013.1_src/data/scripts/dock_solv.prm

>  <Rbt.Receptor>
prm/blind_docking_80.prm

>  <SCORE>
-64.2979

>  <SCORE.INTER>
-65.2138

>  <SCORE.INTER.CONST>
1

>  <SCORE.INTER.POLAR>
-6.69177

>  <SCORE.INTER.ROT>
2

>  <SCORE.INTER.SOLV>
18.6967

>  <SCORE.INTER.VDW>
-32.3355

>  <SCORE.INTER.norm>
-5.01644

>  <SCORE.INTRA>
0.915832

>  <SCORE.INTRA.DIHEDRAL>
0.0114108

>  <SCORE.INTRA.DIHEDRAL.0>
1.43995

>  <SCORE.INTRA.POLAR>
0.272593

>  <SCORE.INTRA.POLAR.0>
-0.272593

>  <SCORE.INTRA.REPUL>
0

>  <SCORE.INTRA.REPUL.0>
0

>  <SCORE.INTRA.SOLV>
-0.115369

>  <SCORE.INTRA.SOLV.lig_0>
-22.6728

>  <SCORE.INTRA.VDW>
0.0409968

>  <SCORE.INTRA.VDW.0>
-0.754459

>  <SCORE.INTRA.norm>
0.0704487

>  <SCORE.RESTR>
0

>  <SCORE.RESTR.CAVITY>
0

>  <SCORE.RESTR.norm>
0

>  <SCORE.SYSTEM>
0

>  <SCORE.SYSTEM.CONST>
0

>  <SCORE.SYSTEM.DIHEDRAL>
0

>  <SCORE.SYSTEM.SOLV>
0

>  <SCORE.SYSTEM.norm>
0

>  <SCORE.heavy>
13

>  <SCORE.norm>
-4.94599

>  <RMSD>
0.357

$$$$
lig.pdb
 OpenBabel11021811453D
libRbt.so/2013.1/901 2013/11/27
 13 14  0  0  0  0  0  0  0  0999 V2000
    2.3031    3.5612   -4.3749 N   0  0  0  0  0  0  0  0  0  0  0  0
    3.5223    2.9578   -4.5631 C   0  0  0  0  0  0  0  0  0  0  0  0
    3.8156    1.8287   -3.9271 N   0  0  0  0  0  0  0  0  0  0  0  0
    2.9231    1.2345   -3.0758 C   0  0  0  0  0  0  0  0  0  0  0  0
    1.6563    1.8290   -2.8459 C   0  0  0  0  0  0  0  0  0  0  0  0
    1.3569    3.0369   -3.5381 C   0  0  0  0  0  0  0  0  0  0  0  0
    0.2849    3.5962   -3.3946 O   0  0  0  0  0  0  0  0  0  0  0  0
    0.9632    0.9798   -1.8773 C   0  0  0  0  0  0  0  0  0  0  0  0
   -0.3908    1.2211   -1.2666 C   0  0  0  0  0  0  0  0  0  0  0  0
   -1.4266    1.1013   -2.3020 N   0  0  0  0  0  0  0  0  0  0  0  0
    1.7893   -0.0430   -1.6233 C   0  0  0  0  0  0  0  0  0  0  0  0
    2.9577    0.1056   -2.3223 N   0  0  0  0  0  0  0  0  0  0  0  0
    4.4358    3.5181   -5.4167 N   0  0  0  0  0  0  0  0  0  0  0  0
  1  6  1  0  0  0  0
  2  1  1  0  0  0  0
  2  3  2  0  0  0  0
  3  4  1  0  0  0  0
  4  5  2  0  0  0  0
  4 12  1  0  0  0  0
  5  8  1  0  0  0  0
  6  7  2  0  0  0  0
  6  5  1  0  0  0  0
  8 11  2  0  0  0  0
  8  9  1  0  0  0  0
 10  9  1  0  0  0  0
 12 11  1  0  0  0  0
 13  2  1  0  0  0  0
M  END
>  <CHROM.1>
67.57591720,90.88950882,1.83447158,1.95259784,-3.15438219,0.69592701,0.28945051
-0.61103900

>  <Name>
lig.pdb

>  <RI>
1.459e+07

>  <Rbt.Current_Directory>
/home/itssahil/PROJECTS/Mol_Feturizer/New_Systems/rnas/2l1v

>  <Rbt.Executable>
rbdock ($Id: //depot/dev/client3/rdock/2013.1/src/exe/rbdock.cxx#4 $)

>  <Rbt.Library>
libRbt.so (2013.1, Build901 2013/11/27)

>  <Rbt.Parameter_File>
/export/apps/rDock/src/rDock_2013.1_src/data/scripts/dock_solv.prm

>  <Rbt.Receptor>
prm/pocket_docking_2.prm

>  <SCORE>
-64.3076

>  <SCORE.INTER>
-65.2191

>  <SCORE.INTER.CONST>
1

>  <SCORE.INTER.POLAR>
-6.68171

>  <SCORE.INTER.ROT>
2

>  <SCORE.INTER.SOLV>
18.716

>  <SCORE.INTER.VDW>
-32.379

>  <SCORE.INTER.norm>
-5.01685

>  <SCORE.INTRA>
0.911436

>  <SCORE.INTRA.DIHEDRAL>
0.00161723

>  <SCORE.INTRA.DIHEDRAL.0>
1.43995

>  <SCORE.INTRA.POLAR>
0.272593

>  <SCORE.INTRA.POLAR.0>
-0.272593

>  <SCORE.INTRA.REPUL>
0

>  <SCORE.INTRA.REPUL.0>
0

>  <SCORE.INTRA.SOLV>
-0.110619

>  <SCORE.INTRA.SOLV.lig_0>
-22.6728

>  <SCORE.INTRA.VDW>
0.0391215

>  <SCORE.INTRA.VDW.0>
-0.754459

>  <SCORE.INTRA.norm>
0.0701104

>  <SCORE.RESTR>
0

>  <SCORE.RESTR.CAVITY>
0

>  <SCORE.RESTR.norm>
0

>  <SCORE.SYSTEM>
0

>  <SCORE.SYSTEM.CONST>
0

>  <SCORE.SYSTEM.DIHEDRAL>
0

>  <SCORE.SYSTEM.SOLV>
0

>  <SCORE.SYSTEM.norm>
0

>  <SCORE.heavy>
13

>  <SCORE.norm>
-4.94674

>  <RMSD>
0.357

$$$$
lig.pdb
 OpenBabel11021811453D
libRbt.so/2013.1/901 2013/11/27
 13 14  0  0  0  0  0  0  0  0999 V2000
    2.3147    3.5506   -4.3620 N   0  0  0  0  0  0  0  0  0  0  0  0
    3.5356    2.9505   -4.5505 C   0  0  0  0  0  0  0  0  0  0  0  0
    3.8321    1.8223   -3.9148 N   0  0  0  0  0  0  0  0  0  0  0  0
    2.9416    1.2254   -3.0632 C   0  0  0  0  0  0  0  0  0  0  0  0
    1.6732    1.8165   -2.8329 C   0  0  0  0  0  0  0  0  0  0  0  0
    1.3702    3.0235   -3.5249 C   0  0  0  0  0  0  0  0  0  0  0  0
    0.2967    3.5798   -3.3810 O   0  0  0  0  0  0  0  0  0  0  0  0
    0.9828    0.9652   -1.8641 C   0  0  0  0  0  0  0  0  0  0  0  0
   -0.3717    1.2027   -1.2530 C   0  0  0  0  0  0  0  0  0  0  0  0
   -1.4062    1.0956   -2.2912 N   0  0  0  0  0  0  0  0  0  0  0  0
    1.8118   -0.0553   -1.6105 C   0  0  0  0  0  0  0  0  0  0  0  0
    2.9796    0.0966   -2.3098 N   0  0  0  0  0  0  0  0  0  0  0  0
    4.4472    3.5135   -5.4044 N   0  0  0  0  0  0  0  0  0  0  0  0
  1  6  1  0  0  0  0
  2  1  1  0  0  0  0
  2  3  2  0  0  0  0
  3  4  1  0  0  0  0
  4  5  2  0  0  0  0
  4 12  1  0  0  0  0
  5  8  1  0  0  0  0
  6  7  2  0  0  0  0
  6  5  1  0  0  0  0
  8 11  2  0  0  0  0
  8  9  1  0  0  0  0
 10  9  1  0  0  0  0
 12 11  1  0  0  0  0
 13  2  1  0  0  0  0
M  END
>  <CHROM.1>
66.92124952,91.31277603,1.85106309,1.94197553,-3.14169880,0.69764863,0.28851892
-0.61214897

>  <Name>
lig.pdb

>  <RI>
4.15415e+07

>  <Rbt.Current_Directory>
/home/itssahil/PROJECTS/Mol_Feturizer/New_Systems/rnas/2l1v

>  <Rbt.Executable>
rbdock ($Id: //depot/dev/client3/rdock/2013.1/src/exe/rbdock.cxx#4 $)

>  <Rbt.Library>
libRbt.so (2013.1, Build901 2013/11/27)

>  <Rbt.Parameter_File>
/export/apps/rDock/src/rDock_2013.1_src/data/scripts/dock_solv.prm

>  <Rbt.Receptor>
prm/blind_docking_60.prm

>  <SCORE>
-64.213

>  <SCORE.INTER>
-65.1582

>  <SCORE.INTER.CONST>
1

>  <SCORE.INTER.POLAR>
-6.71892

>  <SCORE.INTER.ROT>
2

>  <SCORE.INTER.SOLV>
18.6161

>  <SCORE.INTER.VDW>
-32.1811

>  <SCORE.INTER.norm>
-5.01217

>  <SCORE.INTRA>
0.905925

>  <SCORE.INTRA.DIHEDRAL>
-0.0105376

>  <SCORE.INTRA.DIHEDRAL.0>
1.43995

>  <SCORE.INTRA.POLAR>
0.272593

>  <SCORE.INTRA.POLAR.0>
-0.272593

>  <SCORE.INTRA.REPUL>
0

>  <SCORE.INTRA.REPUL.0>
0

>  <SCORE.INTRA.SOLV>
-0.104082

>  <SCORE.INTRA.SOLV.lig_0>
-22.6728

>  <SCORE.INTRA.VDW>
0.0364195

>  <SCORE.INTRA.VDW.0>
-0.754459

>  <SCORE.INTRA.norm>
0.0696865

>  <SCORE.RESTR>
0.0393189

>  <SCORE.RESTR.CAVITY>
0.0393189

>  <SCORE.RESTR.norm>
0.00302453

>  <SCORE.SYSTEM>
0

>  <SCORE.SYSTEM.CONST>
0

>  <SCORE.SYSTEM.DIHEDRAL>
0

>  <SCORE.SYSTEM.SOLV>
0

>  <SCORE.SYSTEM.norm>
0

>  <SCORE.heavy>
13

>  <SCORE.norm>
-4.93946

>  <RMSD>
0.358

$$$$
lig.pdb
 OpenBabel11021811453D
libRbt.so/2013.1/901 2013/11/27
 13 14  0  0  0  0  0  0  0  0999 V2000
    2.3028    3.5603   -4.3759 N   0  0  0  0  0  0  0  0  0  0  0  0
    3.5205    2.9536   -4.5638 C   0  0  0  0  0  0  0  0  0  0  0  0
    3.8107    1.8240   -3.9276 N   0  0  0  0  0  0  0  0  0  0  0  0
    2.9166    1.2323   -3.0761 C   0  0  0  0  0  0  0  0  0  0  0  0
    1.6514    1.8302   -2.8465 C   0  0  0  0  0  0  0  0  0  0  0  0
    1.3552    3.0386   -3.5391 C   0  0  0  0  0  0  0  0  0  0  0  0
    0.2846    3.6008   -3.3958 O   0  0  0  0  0  0  0  0  0  0  0  0
    0.9560    0.9830   -1.8777 C   0  0  0  0  0  0  0  0  0  0  0  0
   -0.3974    1.2281   -1.2672 C   0  0  0  0  0  0  0  0  0  0  0  0
   -1.4343    1.1023   -2.3010 N   0  0  0  0  0  0  0  0  0  0  0  0
    1.7793   -0.0419   -1.6234 C   0  0  0  0  0  0  0  0  0  0  0  0
    2.9482    0.1035   -2.3223 N   0  0  0  0  0  0  0  0  0  0  0  0
    4.4355    3.5113   -5.4175 N   0  0  0  0  0  0  0  0  0  0  0  0
  1  6  1  0  0  0  0
  2  1  1  0  0  0  0
  2  3  2  0  0  0  0
  3  4  1  0  0  0  0
  4  5  2  0  0  0  0
  4 12  1  0  0  0  0
  5  8  1  0  0  0  0
  6  7  2  0  0  0  0
  6  5  1  0  0  0  0
  8 11  2  0  0  0  0
  8  9  1  0  0  0  0
 10  9  1  0  0  0  0
 12 11  1  0  0  0  0
 13  2  1  0  0  0  0
M  END
>  <CHROM.1>
67.93202218,90.66050212,1.82978619,1.95241271,-3.15484108,0.69410546,0.29064723
-0.61040133

>  <Name>
lig.pdb

>  <RI>
1.459e+07

>  <Rbt.Current_Directory>
/home/itssahil/PROJECTS/Mol_Feturizer/New_Systems/rnas/2l1v

>  <Rbt.Executable>
rbdock ($Id: //depot/dev/client3/rdock/2013.1/src/exe/rbdock.cxx#4 $)

>  <Rbt.Library>
libRbt.so (2013.1, Build901 2013/11/27)

>  <Rbt.Parameter_File>
/export/apps/rDock/src/rDock_2013.1_src/data/scripts/dock_solv.prm

>  <Rbt.Receptor>
prm/pocket_docking_2.prm

>  <SCORE>
-64.3019

>  <SCORE.INTER>
-65.2166

>  <SCORE.INTER.CONST>
1

>  <SCORE.INTER.POLAR>
-6.67192

>  <SCORE.INTER.ROT>
2

>  <SCORE.INTER.SOLV>
18.7344

>  <SCORE.INTER.VDW>
-32.4162

>  <SCORE.INTER.norm>
-5.01666

>  <SCORE.INTRA>
0.91472

>  <SCORE.INTRA.DIHEDRAL>
0.00875316

>  <SCORE.INTRA.DIHEDRAL.0>
1.43995

>  <SCORE.INTRA.POLAR>
0.272593

>  <SCORE.INTRA.POLAR.0>
-0.272593

>  <SCORE.INTRA.REPUL>
0

>  <SCORE.INTRA.REPUL.0>
0

>  <SCORE.INTRA.SOLV>
-0.114182

>  <SCORE.INTRA.SOLV.lig_0>
-22.6728

>  <SCORE.INTRA.VDW>
0.0406193

>  <SCORE.INTRA.VDW.0>
-0.754459

>  <SCORE.INTRA.norm>
0.0703631

>  <SCORE.RESTR>
0

>  <SCORE.RESTR.CAVITY>
0

>  <SCORE.RESTR.norm>
0

>  <SCORE.SYSTEM>
0

>  <SCORE.SYSTEM.CONST>
0

>  <SCORE.SYSTEM.DIHEDRAL>
0

>  <SCORE.SYSTEM.SOLV>
0

>  <SCORE.SYSTEM.norm>
0

>  <SCORE.heavy>
13

>  <SCORE.norm>
-4.9463

>  <RMSD>
0.358

$$$$
lig.pdb
 OpenBabel11021811453D
libRbt.so/2013.1/901 2013/11/27
 13 14  0  0  0  0  0  0  0  0999 V2000
    2.3080    3.5615   -4.3707 N   0  0  0  0  0  0  0  0  0  0  0  0
    3.5393    2.9789   -4.5461 C   0  0  0  0  0  0  0  0  0  0  0  0
    3.8476    1.8587   -3.9018 N   0  0  0  0  0  0  0  0  0  0  0  0
    2.9593    1.2531   -3.0542 C   0  0  0  0  0  0  0  0  0  0  0  0
    1.6803    1.8262   -2.8373 C   0  0  0  0  0  0  0  0  0  0  0  0
    1.3648    3.0248   -3.5384 C   0  0  0  0  0  0  0  0  0  0  0  0
    0.2819    3.5656   -3.4062 O   0  0  0  0  0  0  0  0  0  0  0  0
    0.9949    0.9698   -1.8694 C   0  0  0  0  0  0  0  0  0  0  0  0
   -0.3679    1.1902   -1.2706 C   0  0  0  0  0  0  0  0  0  0  0  0
   -1.3891    1.1002   -2.3234 N   0  0  0  0  0  0  0  0  0  0  0  0
    1.8371   -0.0367   -1.6035 C   0  0  0  0  0  0  0  0  0  0  0  0
    3.0081    0.1291   -2.2942 N   0  0  0  0  0  0  0  0  0  0  0  0
    4.4493    3.5509   -5.3957 N   0  0  0  0  0  0  0  0  0  0  0  0
  1  6  1  0  0  0  0
  2  1  1  0  0  0  0
  2  3  2  0  0  0  0
  3  4  1  0  0  0  0
  4  5  2  0  0  0  0
  4 12  1  0  0  0  0
  5  8  1  0  0  0  0
  6  7  2  0  0  0  0
  6  5  1  0  0  0  0
  8 11  2  0  0  0  0
  8  9  1  0  0  0  0
 10  9  1  0  0  0  0
 12 11  1  0  0  0  0
 13  2  1  0  0  0  0
M  END
>  <CHROM.1>
65.30481513,-88.99409610,1.85877752,1.95636654,-3.14577619,0.70310746,0.27445648
-0.62087085

>  <Name>
lig.pdb

>  <RI>
1.459e+07

>  <Rbt.Current_Directory>
/home/itssahil/PROJECTS/Mol_Feturizer/New_Systems/rnas/2l1v

>  <Rbt.Executable>
rbdock ($Id: //depot/dev/client3/rdock/2013.1/src/exe/rbdock.cxx#4 $)

>  <Rbt.Library>
libRbt.so (2013.1, Build901 2013/11/27)

>  <Rbt.Parameter_File>
/export/apps/rDock/src/rDock_2013.1_src/data/scripts/dock_solv.prm

>  <Rbt.Receptor>
prm/pocket_docking_2.prm

>  <SCORE>
-64.0965

>  <SCORE.INTER>
-65.0626

>  <SCORE.INTER.CONST>
1

>  <SCORE.INTER.POLAR>
-6.74534

>  <SCORE.INTER.ROT>
2

>  <SCORE.INTER.SOLV>
18.6009

>  <SCORE.INTER.VDW>
-32.0242

>  <SCORE.INTER.norm>
-5.00481

>  <SCORE.INTRA>
0.966058

>  <SCORE.INTRA.DIHEDRAL>
0.0959744

>  <SCORE.INTRA.DIHEDRAL.0>
1.43995

>  <SCORE.INTRA.POLAR>
0.272593

>  <SCORE.INTRA.POLAR.0>
-0.272593

>  <SCORE.INTRA.REPUL>
0

>  <SCORE.INTRA.REPUL.0>
0

>  <SCORE.INTRA.SOLV>
-0.0909061

>  <SCORE.INTRA.SOLV.lig_0>
-22.6728

>  <SCORE.INTRA.VDW>
0.0367084

>  <SCORE.INTRA.VDW.0>
-0.754459

>  <SCORE.INTRA.norm>
0.0743121

>  <SCORE.RESTR>
0

>  <SCORE.RESTR.CAVITY>
0

>  <SCORE.RESTR.norm>
0

>  <SCORE.SYSTEM>
0

>  <SCORE.SYSTEM.CONST>
0

>  <SCORE.SYSTEM.DIHEDRAL>
0

>  <SCORE.SYSTEM.SOLV>
0

>  <SCORE.SYSTEM.norm>
0

>  <SCORE.heavy>
13

>  <SCORE.norm>
-4.9305

>  <RMSD>
0.358

$$$$
lig.pdb
 OpenBabel11021811453D
libRbt.so/2013.1/901 2013/11/27
 13 14  0  0  0  0  0  0  0  0999 V2000
    2.3001    3.5353   -4.3777 N   0  0  0  0  0  0  0  0  0  0  0  0
    3.5289    2.9452   -4.5453 C   0  0  0  0  0  0  0  0  0  0  0  0
    3.8310    1.8302   -3.8891 N   0  0  0  0  0  0  0  0  0  0  0  0
    2.9386    1.2375   -3.0366 C   0  0  0  0  0  0  0  0  0  0  0  0
    1.6621    1.8187   -2.8275 C   0  0  0  0  0  0  0  0  0  0  0  0
    1.3532    3.0115   -3.5413 C   0  0  0  0  0  0  0  0  0  0  0  0
    0.2727    3.5587   -3.4163 O   0  0  0  0  0  0  0  0  0  0  0  0
    0.9713    0.9755   -1.8520 C   0  0  0  0  0  0  0  0  0  0  0  0
   -0.3914    1.2084   -1.2575 C   0  0  0  0  0  0  0  0  0  0  0  0
   -1.4125    1.1014   -2.3088 N   0  0  0  0  0  0  0  0  0  0  0  0
    1.8083   -0.0322   -1.5745 C   0  0  0  0  0  0  0  0  0  0  0  0
    2.9811    0.1211   -2.2652 N   0  0  0  0  0  0  0  0  0  0  0  0
    4.4428    3.5042   -5.3993 N   0  0  0  0  0  0  0  0  0  0  0  0
  1  6  1  0  0  0  0
  2  1  1  0  0  0  0
  2  3  2  0  0  0  0
  3  4  1  0  0  0  0
  4  5  2  0  0  0  0
  4 12  1  0  0  0  0
  5  8  1  0  0  0  0
  6  7  2  0  0  0  0
  6  5  1  0  0  0  0
  8 11  2  0  0  0  0
  8  9  1  0  0  0  0
 10  9  1  0  0  0  0
 12 11  1  0  0  0  0
 13  2  1  0  0  0  0
M  END
>  <CHROM.1>
65.76632615,91.92890421,1.84174568,1.94376335,-3.13710377,0.69924646,0.27556228
-0.62951627

>  <Name>
lig.pdb

>  <RI>
1.459e+07

>  <Rbt.Current_Directory>
/home/itssahil/PROJECTS/Mol_Feturizer/New_Systems/rnas/2l1v

>  <Rbt.Executable>
rbdock ($Id: //depot/dev/client3/rdock/2013.1/src/exe/rbdock.cxx#4 $)

>  <Rbt.Library>
libRbt.so (2013.1, Build901 2013/11/27)

>  <Rbt.Parameter_File>
/export/apps/rDock/src/rDock_2013.1_src/data/scripts/dock_solv.prm

>  <Rbt.Receptor>
prm/pocket_docking_2.prm

>  <SCORE>
-64.3056

>  <SCORE.INTER>
-65.2036

>  <SCORE.INTER.CONST>
1

>  <SCORE.INTER.POLAR>
-6.71278

>  <SCORE.INTER.ROT>
2

>  <SCORE.INTER.SOLV>
18.56

>  <SCORE.INTER.VDW>
-32.2132

>  <SCORE.INTER.norm>
-5.01566

>  <SCORE.INTRA>
0.897958

>  <SCORE.INTRA.DIHEDRAL>
-0.0289726

>  <SCORE.INTRA.DIHEDRAL.0>
1.43995

>  <SCORE.INTRA.POLAR>
0.272593

>  <SCORE.INTRA.POLAR.0>
-0.272593

>  <SCORE.INTRA.REPUL>
0

>  <SCORE.INTRA.REPUL.0>
0

>  <SCORE.INTRA.SOLV>
-0.0926409

>  <SCORE.INTRA.SOLV.lig_0>
-22.6728

>  <SCORE.INTRA.VDW>
0.0319497

>  <SCORE.INTRA.VDW.0>
-0.754459

>  <SCORE.INTRA.norm>
0.0690737

>  <SCORE.RESTR>
0

>  <SCORE.RESTR.CAVITY>
0

>  <SCORE.RESTR.norm>
0

>  <SCORE.SYSTEM>
0

>  <SCORE.SYSTEM.CONST>
0

>  <SCORE.SYSTEM.DIHEDRAL>
0

>  <SCORE.SYSTEM.SOLV>
0

>  <SCORE.SYSTEM.norm>
0

>  <SCORE.heavy>
13

>  <SCORE.norm>
-4.94659

>  <RMSD>
0.358

$$$$
lig.pdb
 OpenBabel11021811453D
libRbt.so/2013.1/901 2013/11/27
 13 14  0  0  0  0  0  0  0  0999 V2000
    2.3020    3.5420   -4.3816 N   0  0  0  0  0  0  0  0  0  0  0  0
    3.5335    2.9563   -4.5441 C   0  0  0  0  0  0  0  0  0  0  0  0
    3.8371    1.8428   -3.8860 N   0  0  0  0  0  0  0  0  0  0  0  0
    2.9435    1.2474   -3.0366 C   0  0  0  0  0  0  0  0  0  0  0  0
    1.6640    1.8241   -2.8329 C   0  0  0  0  0  0  0  0  0  0  0  0
    1.3537    3.0153   -3.5487 C   0  0  0  0  0  0  0  0  0  0  0  0
    0.2707    3.5587   -3.4282 O   0  0  0  0  0  0  0  0  0  0  0  0
    0.9725    0.9790   -1.8596 C   0  0  0  0  0  0  0  0  0  0  0  0
   -0.3933    1.2073   -1.2706 C   0  0  0  0  0  0  0  0  0  0  0  0
   -1.4097    1.0985   -2.3263 N   0  0  0  0  0  0  0  0  0  0  0  0
    1.8120   -0.0254   -1.5782 C   0  0  0  0  0  0  0  0  0  0  0  0
    2.9870    0.1316   -2.2643 N   0  0  0  0  0  0  0  0  0  0  0  0
    4.4487    3.5181   -5.3949 N   0  0  0  0  0  0  0  0  0  0  0  0
  1  6  1  0  0  0  0
  2  1  1  0  0  0  0
  2  3  2  0  0  0  0
  3  4  1  0  0  0  0
  4  5  2  0  0  0  0
  4 12  1  0  0  0  0
  5  8  1  0  0  0  0
  6  7  2  0  0  0  0
  6  5  1  0  0  0  0
  8 11  2  0  0  0  0
  8  9  1  0  0  0  0
 10  9  1  0  0  0  0
 12 11  1  0  0  0  0
 13  2  1  0  0  0  0
M  END
>  <CHROM.1>
65.66174159,-89.46012791,1.84423322,1.94994283,-3.14169145,0.69935808,0.27044568
-0.63033315

>  <Name>
lig.pdb

>  <RI>
2.86608e+07

>  <Rbt.Current_Directory>
/home/itssahil/PROJECTS/Mol_Feturizer/New_Systems/rnas/2l1v

>  <Rbt.Executable>
rbdock ($Id: //depot/dev/client3/rdock/2013.1/src/exe/rbdock.cxx#4 $)

>  <Rbt.Library>
libRbt.so (2013.1, Build901 2013/11/27)

>  <Rbt.Parameter_File>
/export/apps/rDock/src/rDock_2013.1_src/data/scripts/dock_solv.prm

>  <Rbt.Receptor>
prm/pocket_docking_7.prm

>  <SCORE>
-64.1461

>  <SCORE.INTER>
-65.1144

>  <SCORE.INTER.CONST>
1

>  <SCORE.INTER.POLAR>
-6.72131

>  <SCORE.INTER.ROT>
2

>  <SCORE.INTER.SOLV>
18.591

>  <SCORE.INTER.VDW>
-32.1356

>  <SCORE.INTER.norm>
-5.0088

>  <SCORE.INTRA>
0.968306

>  <SCORE.INTRA.DIHEDRAL>
0.101026

>  <SCORE.INTRA.DIHEDRAL.0>
1.43995

>  <SCORE.INTRA.POLAR>
0.272593

>  <SCORE.INTRA.POLAR.0>
-0.272593

>  <SCORE.INTRA.REPUL>
0

>  <SCORE.INTRA.REPUL.0>
0

>  <SCORE.INTRA.SOLV>
-0.094539

>  <SCORE.INTRA.SOLV.lig_0>
-22.6728

>  <SCORE.INTRA.VDW>
0.0382477

>  <SCORE.INTRA.VDW.0>
-0.754459

>  <SCORE.INTRA.norm>
0.0744851

>  <SCORE.RESTR>
0

>  <SCORE.RESTR.CAVITY>
0

>  <SCORE.RESTR.norm>
0

>  <SCORE.SYSTEM>
0

>  <SCORE.SYSTEM.CONST>
0

>  <SCORE.SYSTEM.DIHEDRAL>
0

>  <SCORE.SYSTEM.SOLV>
0

>  <SCORE.SYSTEM.norm>
0

>  <SCORE.heavy>
13

>  <SCORE.norm>
-4.93431

>  <RMSD>
0.358

$$$$
lig.pdb
 OpenBabel11021811453D
libRbt.so/2013.1/901 2013/11/27
 13 14  0  0  0  0  0  0  0  0999 V2000
    2.2986    3.5327   -4.3782 N   0  0  0  0  0  0  0  0  0  0  0  0
    3.5255    2.9387   -4.5462 C   0  0  0  0  0  0  0  0  0  0  0  0
    3.8243    1.8228   -3.8902 N   0  0  0  0  0  0  0  0  0  0  0  0
    2.9303    1.2328   -3.0375 C   0  0  0  0  0  0  0  0  0  0  0  0
    1.6556    1.8180   -2.8279 C   0  0  0  0  0  0  0  0  0  0  0  0
    1.3503    3.0118   -3.5416 C   0  0  0  0  0  0  0  0  0  0  0  0
    0.2715    3.5624   -3.4162 O   0  0  0  0  0  0  0  0  0  0  0  0
    0.9624    0.9769   -1.8523 C   0  0  0  0  0  0  0  0  0  0  0  0
   -0.3993    1.2140   -1.2573 C   0  0  0  0  0  0  0  0  0  0  0  0
   -1.4222    1.0976   -2.3060 N   0  0  0  0  0  0  0  0  0  0  0  0
    1.7964   -0.0334   -1.5751 C   0  0  0  0  0  0  0  0  0  0  0  0
    2.9695    0.1162   -2.2661 N   0  0  0  0  0  0  0  0  0  0  0  0
    4.4409    3.4949   -5.4005 N   0  0  0  0  0  0  0  0  0  0  0  0
  1  6  1  0  0  0  0
  2  1  1  0  0  0  0
  2  3  2  0  0  0  0
  3  4  1  0  0  0  0
  4  5  2  0  0  0  0
  4 12  1  0  0  0  0
  5  8  1  0  0  0  0
  6  7  2  0  0  0  0
  6  5  1  0  0  0  0
  8 11  2  0  0  0  0
  8  9  1  0  0  0  0
 10  9  1  0  0  0  0
 12 11  1  0  0  0  0
 13  2  1  0  0  0  0
M  END
>  <CHROM.1>
66.30730164,91.24158569,1.83547364,1.94132923,-3.13736084,0.69746915,0.27727740
-0.62840120

>  <Name>
lig.pdb

>  <RI>
2.86608e+07

>  <Rbt.Current_Directory>
/home/itssahil/PROJECTS/Mol_Feturizer/New_Systems/rnas/2l1v

>  <Rbt.Executable>
rbdock ($Id: //depot/dev/client3/rdock/2013.1/src/exe/rbdock.cxx#4 $)

>  <Rbt.Library>
libRbt.so (2013.1, Build901 2013/11/27)

>  <Rbt.Parameter_File>
/export/apps/rDock/src/rDock_2013.1_src/data/scripts/dock_solv.prm

>  <Rbt.Receptor>
prm/pocket_docking_7.prm

>  <SCORE>
-64.2744

>  <SCORE.INTER>
-65.176

>  <SCORE.INTER.CONST>
1

>  <SCORE.INTER.POLAR>
-6.70207

>  <SCORE.INTER.ROT>
2

>  <SCORE.INTER.SOLV>
18.5808

>  <SCORE.INTER.VDW>
-32.2374

>  <SCORE.INTER.norm>
-5.01354

>  <SCORE.INTRA>
0.901572

>  <SCORE.INTRA.DIHEDRAL>
-0.0210065

>  <SCORE.INTRA.DIHEDRAL.0>
1.43995

>  <SCORE.INTRA.POLAR>
0.272593

>  <SCORE.INTRA.POLAR.0>
-0.272593

>  <SCORE.INTRA.REPUL>
0

>  <SCORE.INTRA.REPUL.0>
0

>  <SCORE.INTRA.SOLV>
-0.0981255

>  <SCORE.INTRA.SOLV.lig_0>
-22.6728

>  <SCORE.INTRA.VDW>
0.0343232

>  <SCORE.INTRA.VDW.0>
-0.754459

>  <SCORE.INTRA.norm>
0.0693517

>  <SCORE.RESTR>
0

>  <SCORE.RESTR.CAVITY>
0

>  <SCORE.RESTR.norm>
0

>  <SCORE.SYSTEM>
0

>  <SCORE.SYSTEM.CONST>
0

>  <SCORE.SYSTEM.DIHEDRAL>
0

>  <SCORE.SYSTEM.SOLV>
0

>  <SCORE.SYSTEM.norm>
0

>  <SCORE.heavy>
13

>  <SCORE.norm>
-4.94418

>  <RMSD>
0.358

$$$$
lig.pdb
 OpenBabel11021811453D
libRbt.so/2013.1/901 2013/11/27
 13 14  0  0  0  0  0  0  0  0999 V2000
    2.3126    3.5659   -4.3774 N   0  0  0  0  0  0  0  0  0  0  0  0
    3.5324    2.9649   -4.5697 C   0  0  0  0  0  0  0  0  0  0  0  0
    3.8311    1.8379   -3.9327 N   0  0  0  0  0  0  0  0  0  0  0  0
    2.9440    1.2434   -3.0760 C   0  0  0  0  0  0  0  0  0  0  0  0
    1.6768    1.8355   -2.8417 C   0  0  0  0  0  0  0  0  0  0  0  0
    1.3714    3.0411   -3.5352 C   0  0  0  0  0  0  0  0  0  0  0  0
    0.2987    3.5982   -3.3880 O   0  0  0  0  0  0  0  0  0  0  0  0
    0.9901    0.9867   -1.8681 C   0  0  0  0  0  0  0  0  0  0  0  0
   -0.3616    1.2262   -1.2518 C   0  0  0  0  0  0  0  0  0  0  0  0
   -1.4029    1.0897   -2.2797 N   0  0  0  0  0  0  0  0  0  0  0  0
    1.8197   -0.0336   -1.6156 C   0  0  0  0  0  0  0  0  0  0  0  0
    2.9847    0.1163   -2.3202 N   0  0  0  0  0  0  0  0  0  0  0  0
    4.4407    3.5255   -5.4287 N   0  0  0  0  0  0  0  0  0  0  0  0
  1  6  1  0  0  0  0
  2  1  1  0  0  0  0
  2  3  2  0  0  0  0
  3  4  1  0  0  0  0
  4  5  2  0  0  0  0
  4 12  1  0  0  0  0
  5  8  1  0  0  0  0
  6  7  2  0  0  0  0
  6  5  1  0  0  0  0
  8 11  2  0  0  0  0
  8  9  1  0  0  0  0
 10  9  1  0  0  0  0
 12 11  1  0  0  0  0
 13  2  1  0  0  0  0
M  END
>  <CHROM.1>
68.08561380,91.25789263,1.85317919,1.95768364,-3.15101352,0.70134369,0.29146092
-0.61423173

>  <Name>
lig.pdb

>  <RI>
1.77584e+07

>  <Rbt.Current_Directory>
/home/itssahil/PROJECTS/Mol_Feturizer/New_Systems/rnas/2l1v

>  <Rbt.Executable>
rbdock ($Id: //depot/dev/client3/rdock/2013.1/src/exe/rbdock.cxx#4 $)

>  <Rbt.Library>
libRbt.so (2013.1, Build901 2013/11/27)

>  <Rbt.Parameter_File>
/export/apps/rDock/src/rDock_2013.1_src/data/scripts/dock_solv.prm

>  <Rbt.Receptor>
prm/blind_docking_80.prm

>  <SCORE>
-64.3078

>  <SCORE.INTER>
-65.2237

>  <SCORE.INTER.CONST>
1

>  <SCORE.INTER.POLAR>
-6.69981

>  <SCORE.INTER.ROT>
2

>  <SCORE.INTER.SOLV>
18.656

>  <SCORE.INTER.VDW>
-32.3018

>  <SCORE.INTER.norm>
-5.01721

>  <SCORE.INTRA>
0.915903

>  <SCORE.INTRA.DIHEDRAL>
0.0121922

>  <SCORE.INTRA.DIHEDRAL.0>
1.43995

>  <SCORE.INTRA.POLAR>
0.272593

>  <SCORE.INTRA.POLAR.0>
-0.272593

>  <SCORE.INTRA.REPUL>
0

>  <SCORE.INTRA.REPUL.0>
0

>  <SCORE.INTRA.SOLV>
-0.115494

>  <SCORE.INTRA.SOLV.lig_0>
-22.6728

>  <SCORE.INTRA.VDW>
0.0407392

>  <SCORE.INTRA.VDW.0>
-0.754459

>  <SCORE.INTRA.norm>
0.0704541

>  <SCORE.RESTR>
0

>  <SCORE.RESTR.CAVITY>
0

>  <SCORE.RESTR.norm>
0

>  <SCORE.SYSTEM>
0

>  <SCORE.SYSTEM.CONST>
0

>  <SCORE.SYSTEM.DIHEDRAL>
0

>  <SCORE.SYSTEM.SOLV>
0

>  <SCORE.SYSTEM.norm>
0

>  <SCORE.heavy>
13

>  <SCORE.norm>
-4.94676

>  <RMSD>
0.359

$$$$
lig.pdb
 OpenBabel11021811453D
libRbt.so/2013.1/901 2013/11/27
 13 14  0  0  0  0  0  0  0  0999 V2000
    2.3022    3.5365   -4.3749 N   0  0  0  0  0  0  0  0  0  0  0  0
    3.5295    2.9437   -4.5435 C   0  0  0  0  0  0  0  0  0  0  0  0
    3.8287    1.8267   -3.8894 N   0  0  0  0  0  0  0  0  0  0  0  0
    2.9347    1.2345   -3.0382 C   0  0  0  0  0  0  0  0  0  0  0  0
    1.6596    1.8186   -2.8282 C   0  0  0  0  0  0  0  0  0  0  0  0
    1.3539    3.0135   -3.5398 C   0  0  0  0  0  0  0  0  0  0  0  0
    0.2747    3.5632   -3.4139 O   0  0  0  0  0  0  0  0  0  0  0  0
    0.9664    0.9752   -1.8545 C   0  0  0  0  0  0  0  0  0  0  0  0
   -0.3957    1.2104   -1.2598 C   0  0  0  0  0  0  0  0  0  0  0  0
   -1.4175    1.1007   -2.3101 N   0  0  0  0  0  0  0  0  0  0  0  0
    1.8009   -0.0351   -1.5788 C   0  0  0  0  0  0  0  0  0  0  0  0
    2.9742    0.1165   -2.2690 N   0  0  0  0  0  0  0  0  0  0  0  0
    4.4450    3.5021   -5.3963 N   0  0  0  0  0  0  0  0  0  0  0  0
  1  6  1  0  0  0  0
  2  1  1  0  0  0  0
  2  3  2  0  0  0  0
  3  4  1  0  0  0  0
  4  5  2  0  0  0  0
  4 12  1  0  0  0  0
  5  8  1  0  0  0  0
  6  7  2  0  0  0  0
  6  5  1  0  0  0  0
  8 11  2  0  0  0  0
  8  9  1  0  0  0  0
 10  9  1  0  0  0  0
 12 11  1  0  0  0  0
 13  2  1  0  0  0  0
M  END
>  <CHROM.1>
66.07646249,91.86912842,1.83954160,1.94309301,-3.13742572,0.69741801,0.27666876
-0.62675331

>  <Name>
lig.pdb

>  <RI>
0

>  <Rbt.Current_Directory>
/home/itssahil/PROJECTS/Mol_Feturizer/New_Systems/rnas/2l1v

>  <Rbt.Executable>
rbdock ($Id: //depot/dev/client3/rdock/2013.1/src/exe/rbdock.cxx#4 $)

>  <Rbt.Library>
libRbt.so (2013.1, Build901 2013/11/27)

>  <Rbt.Parameter_File>
/export/apps/rDock/src/rDock_2013.1_src/data/scripts/dock_solv.prm

>  <Rbt.Receptor>
prm/pocket_docking_3.prm

>  <SCORE>
-64.2989

>  <SCORE.INTER>
-65.1987

>  <SCORE.INTER.CONST>
1

>  <SCORE.INTER.POLAR>
-6.71372

>  <SCORE.INTER.ROT>
2

>  <SCORE.INTER.SOLV>
18.5768

>  <SCORE.INTER.VDW>
-32.2123

>  <SCORE.INTER.norm>
-5.01529

>  <SCORE.INTRA>
0.899843

>  <SCORE.INTRA.DIHEDRAL>
-0.0243532

>  <SCORE.INTRA.DIHEDRAL.0>
1.43995

>  <SCORE.INTRA.POLAR>
0.272593

>  <SCORE.INTRA.POLAR.0>
-0.272593

>  <SCORE.INTRA.REPUL>
0

>  <SCORE.INTRA.REPUL.0>
0

>  <SCORE.INTRA.SOLV>
-0.0956724

>  <SCORE.INTRA.SOLV.lig_0>
-22.6728

>  <SCORE.INTRA.VDW>
0.0330407

>  <SCORE.INTRA.VDW.0>
-0.754459

>  <SCORE.INTRA.norm>
0.0692187

>  <SCORE.RESTR>
0

>  <SCORE.RESTR.CAVITY>
0

>  <SCORE.RESTR.norm>
0

>  <SCORE.SYSTEM>
0

>  <SCORE.SYSTEM.CONST>
0

>  <SCORE.SYSTEM.DIHEDRAL>
0

>  <SCORE.SYSTEM.SOLV>
0

>  <SCORE.SYSTEM.norm>
0

>  <SCORE.heavy>
13

>  <SCORE.norm>
-4.94607

>  <RMSD>
0.359

$$$$
lig.pdb
 OpenBabel11021811453D
libRbt.so/2013.1/901 2013/11/27
 13 14  0  0  0  0  0  0  0  0999 V2000
    2.2976    3.5460   -4.3837 N   0  0  0  0  0  0  0  0  0  0  0  0
    3.5258    2.9546   -4.5513 C   0  0  0  0  0  0  0  0  0  0  0  0
    3.8264    1.8388   -3.8958 N   0  0  0  0  0  0  0  0  0  0  0  0
    2.9330    1.2465   -3.0441 C   0  0  0  0  0  0  0  0  0  0  0  0
    1.6570    1.8290   -2.8351 C   0  0  0  0  0  0  0  0  0  0  0  0
    1.3498    3.0227   -3.5482 C   0  0  0  0  0  0  0  0  0  0  0  0
    0.2698    3.5710   -3.4232 O   0  0  0  0  0  0  0  0  0  0  0  0
    0.9648    0.9858   -1.8605 C   0  0  0  0  0  0  0  0  0  0  0  0
   -0.3978    1.2198   -1.2664 C   0  0  0  0  0  0  0  0  0  0  0  0
   -1.4195    1.1042   -2.3162 N   0  0  0  0  0  0  0  0  0  0  0  0
    1.8006   -0.0230   -1.5834 C   0  0  0  0  0  0  0  0  0  0  0  0
    2.9738    0.1294   -2.2735 N   0  0  0  0  0  0  0  0  0  0  0  0
    4.4407    3.5132   -5.4045 N   0  0  0  0  0  0  0  0  0  0  0  0
  1  6  1  0  0  0  0
  2  1  1  0  0  0  0
  2  3  2  0  0  0  0
  3  4  1  0  0  0  0
  4  5  2  0  0  0  0
  4 12  1  0  0  0  0
  5  8  1  0  0  0  0
  6  7  2  0  0  0  0
  6  5  1  0  0  0  0
  8 11  2  0  0  0  0
  8  9  1  0  0  0  0
 10  9  1  0  0  0  0
 12 11  1  0  0  0  0
 13  2  1  0  0  0  0
M  END
>  <CHROM.1>
66.21745713,91.94183394,1.83683703,1.95307448,-3.14433888,0.69862379,0.27557486
-0.62814517

>  <Name>
lig.pdb

>  <RI>
0

>  <Rbt.Current_Directory>
/home/itssahil/PROJECTS/Mol_Feturizer/New_Systems/rnas/2l1v

>  <Rbt.Executable>
rbdock ($Id: //depot/dev/client3/rdock/2013.1/src/exe/rbdock.cxx#4 $)

>  <Rbt.Library>
libRbt.so (2013.1, Build901 2013/11/27)

>  <Rbt.Parameter_File>
/export/apps/rDock/src/rDock_2013.1_src/data/scripts/dock_solv.prm

>  <Rbt.Receptor>
prm/pocket_docking_3.prm

>  <SCORE>
-64.283

>  <SCORE.INTER>
-65.1837

>  <SCORE.INTER.CONST>
1

>  <SCORE.INTER.POLAR>
-6.70294

>  <SCORE.INTER.ROT>
2

>  <SCORE.INTER.SOLV>
18.6132

>  <SCORE.INTER.VDW>
-32.2504

>  <SCORE.INTER.norm>
-5.01413

>  <SCORE.INTRA>
0.900718

>  <SCORE.INTRA.DIHEDRAL>
-0.0221072

>  <SCORE.INTRA.DIHEDRAL.0>
1.43995

>  <SCORE.INTRA.POLAR>
0.272593

>  <SCORE.INTRA.POLAR.0>
-0.272593

>  <SCORE.INTRA.REPUL>
0

>  <SCORE.INTRA.REPUL.0>
0

>  <SCORE.INTRA.SOLV>
-0.0970198

>  <SCORE.INTRA.SOLV.lig_0>
-22.6728

>  <SCORE.INTRA.VDW>
0.0334663

>  <SCORE.INTRA.VDW.0>
-0.754459

>  <SCORE.INTRA.norm>
0.069286

>  <SCORE.RESTR>
0

>  <SCORE.RESTR.CAVITY>
0

>  <SCORE.RESTR.norm>
0

>  <SCORE.SYSTEM>
0

>  <SCORE.SYSTEM.CONST>
0

>  <SCORE.SYSTEM.DIHEDRAL>
0

>  <SCORE.SYSTEM.SOLV>
0

>  <SCORE.SYSTEM.norm>
0

>  <SCORE.heavy>
13

>  <SCORE.norm>
-4.94485

>  <RMSD>
0.359

$$$$
lig.pdb
 OpenBabel11021811453D
libRbt.so/2013.1/901 2013/11/27
 13 14  0  0  0  0  0  0  0  0999 V2000
    2.3004    3.5506   -4.3762 N   0  0  0  0  0  0  0  0  0  0  0  0
    3.5305    2.9630   -4.5430 C   0  0  0  0  0  0  0  0  0  0  0  0
    3.8325    1.8457   -3.8906 N   0  0  0  0  0  0  0  0  0  0  0  0
    2.9387    1.2481   -3.0431 C   0  0  0  0  0  0  0  0  0  0  0  0
    1.6607    1.8266   -2.8350 C   0  0  0  0  0  0  0  0  0  0  0  0
    1.3520    3.0219   -3.5446 C   0  0  0  0  0  0  0  0  0  0  0  0
    0.2703    3.5671   -3.4202 O   0  0  0  0  0  0  0  0  0  0  0  0
    0.9685    0.9783   -1.8649 C   0  0  0  0  0  0  0  0  0  0  0  0
   -0.3961    1.2066   -1.2731 C   0  0  0  0  0  0  0  0  0  0  0  0
   -1.4141    1.1030   -2.3277 N   0  0  0  0  0  0  0  0  0  0  0  0
    1.8063   -0.0293   -1.5894 C   0  0  0  0  0  0  0  0  0  0  0  0
    2.9807    0.1285   -2.2762 N   0  0  0  0  0  0  0  0  0  0  0  0
    4.4459    3.5270   -5.3922 N   0  0  0  0  0  0  0  0  0  0  0  0
  1  6  1  0  0  0  0
  2  1  1  0  0  0  0
  2  3  2  0  0  0  0
  3  4  1  0  0  0  0
  4  5  2  0  0  0  0
  4 12  1  0  0  0  0
  5  8  1  0  0  0  0
  6  7  2  0  0  0  0
  6  5  1  0  0  0  0
  8 11  2  0  0  0  0
  8  9  1  0  0  0  0
 10  9  1  0  0  0  0
 12 11  1  0  0  0  0
 13  2  1  0  0  0  0
M  END
>  <CHROM.1>
65.75017572,-89.53238823,1.84077269,1.95333461,-3.14332658,0.69841808,0.27264435
-0.62514707

>  <Name>
lig.pdb

>  <RI>
4.02536e+07

>  <Rbt.Current_Directory>
/home/itssahil/PROJECTS/Mol_Feturizer/New_Systems/rnas/2l1v

>  <Rbt.Executable>
rbdock ($Id: //depot/dev/client3/rdock/2013.1/src/exe/rbdock.cxx#4 $)

>  <Rbt.Library>
libRbt.so (2013.1, Build901 2013/11/27)

>  <Rbt.Parameter_File>
/export/apps/rDock/src/rDock_2013.1_src/data/scripts/dock_solv.prm

>  <Rbt.Receptor>
prm/blind_docking_40.prm

>  <SCORE>
-64.1157

>  <SCORE.INTER>
-65.0845

>  <SCORE.INTER.CONST>
1

>  <SCORE.INTER.POLAR>
-6.71356

>  <SCORE.INTER.ROT>
2

>  <SCORE.INTER.SOLV>
18.6248

>  <SCORE.INTER.VDW>
-32.1528

>  <SCORE.INTER.norm>
-5.0065

>  <SCORE.INTRA>
0.968859

>  <SCORE.INTRA.DIHEDRAL>
0.102317

>  <SCORE.INTRA.DIHEDRAL.0>
1.43995

>  <SCORE.INTRA.POLAR>
0.272593

>  <SCORE.INTRA.POLAR.0>
-0.272593

>  <SCORE.INTRA.REPUL>
0

>  <SCORE.INTRA.REPUL.0>
0

>  <SCORE.INTRA.SOLV>
-0.0954227

>  <SCORE.INTRA.SOLV.lig_0>
-22.6728

>  <SCORE.INTRA.VDW>
0.0385967

>  <SCORE.INTRA.VDW.0>
-0.754459

>  <SCORE.INTRA.norm>
0.0745276

>  <SCORE.RESTR>
0

>  <SCORE.RESTR.CAVITY>
0

>  <SCORE.RESTR.norm>
0

>  <SCORE.SYSTEM>
0

>  <SCORE.SYSTEM.CONST>
0

>  <SCORE.SYSTEM.DIHEDRAL>
0

>  <SCORE.SYSTEM.SOLV>
0

>  <SCORE.SYSTEM.norm>
0

>  <SCORE.heavy>
13

>  <SCORE.norm>
-4.93198

>  <RMSD>
0.360

$$$$
lig.pdb
 OpenBabel11021811453D
libRbt.so/2013.1/901 2013/11/27
 13 14  0  0  0  0  0  0  0  0999 V2000
    2.3043    3.5582   -4.3833 N   0  0  0  0  0  0  0  0  0  0  0  0
    3.5245    2.9558   -4.5688 C   0  0  0  0  0  0  0  0  0  0  0  0
    3.8211    1.8323   -3.9247 N   0  0  0  0  0  0  0  0  0  0  0  0
    2.9312    1.2427   -3.0675 C   0  0  0  0  0  0  0  0  0  0  0  0
    1.6636    1.8363   -2.8401 C   0  0  0  0  0  0  0  0  0  0  0  0
    1.3605    3.0382   -3.5410 C   0  0  0  0  0  0  0  0  0  0  0  0
    0.2876    3.5964   -3.4000 O   0  0  0  0  0  0  0  0  0  0  0  0
    0.9738    0.9930   -1.8639 C   0  0  0  0  0  0  0  0  0  0  0  0
   -0.3798    1.2362   -1.2530 C   0  0  0  0  0  0  0  0  0  0  0  0
   -1.4183    1.0910   -2.2825 N   0  0  0  0  0  0  0  0  0  0  0  0
    1.8024   -0.0261   -1.6034 C   0  0  0  0  0  0  0  0  0  0  0  0
    2.9694    0.1197   -2.3054 N   0  0  0  0  0  0  0  0  0  0  0  0
    4.4355    3.5115   -5.4281 N   0  0  0  0  0  0  0  0  0  0  0  0
  1  6  1  0  0  0  0
  2  1  1  0  0  0  0
  2  3  2  0  0  0  0
  3  4  1  0  0  0  0
  4  5  2  0  0  0  0
  4 12  1  0  0  0  0
  5  8  1  0  0  0  0
  6  7  2  0  0  0  0
  6  5  1  0  0  0  0
  8 11  2  0  0  0  0
  8  9  1  0  0  0  0
 10  9  1  0  0  0  0
 12 11  1  0  0  0  0
 13  2  1  0  0  0  0
M  END
>  <CHROM.1>
68.22589025,91.09436982,1.84084345,1.95646278,-3.14947787,0.69952695,0.28910416
-0.61899183

>  <Name>
lig.pdb

>  <RI>
1.77584e+07

>  <Rbt.Current_Directory>
/home/itssahil/PROJECTS/Mol_Feturizer/New_Systems/rnas/2l1v

>  <Rbt.Executable>
rbdock ($Id: //depot/dev/client3/rdock/2013.1/src/exe/rbdock.cxx#4 $)

>  <Rbt.Library>
libRbt.so (2013.1, Build901 2013/11/27)

>  <Rbt.Parameter_File>
/export/apps/rDock/src/rDock_2013.1_src/data/scripts/dock_solv.prm

>  <Rbt.Receptor>
prm/blind_docking_80.prm

>  <SCORE>
-64.2966

>  <SCORE.INTER>
-65.2139

>  <SCORE.INTER.CONST>
1

>  <SCORE.INTER.POLAR>
-6.67955

>  <SCORE.INTER.ROT>
2

>  <SCORE.INTER.SOLV>
18.6635

>  <SCORE.INTER.VDW>
-32.3653

>  <SCORE.INTER.norm>
-5.01646

>  <SCORE.INTRA>
0.91731

>  <SCORE.INTRA.DIHEDRAL>
0.0151253

>  <SCORE.INTRA.DIHEDRAL.0>
1.43995

>  <SCORE.INTRA.POLAR>
0.272593

>  <SCORE.INTRA.POLAR.0>
-0.272593

>  <SCORE.INTRA.REPUL>
0

>  <SCORE.INTRA.REPUL.0>
0

>  <SCORE.INTRA.SOLV>
-0.116923

>  <SCORE.INTRA.SOLV.lig_0>
-22.6728

>  <SCORE.INTRA.VDW>
0.0413935

>  <SCORE.INTRA.VDW.0>
-0.754459

>  <SCORE.INTRA.norm>
0.0705623

>  <SCORE.RESTR>
0

>  <SCORE.RESTR.CAVITY>
0

>  <SCORE.RESTR.norm>
0

>  <SCORE.SYSTEM>
0

>  <SCORE.SYSTEM.CONST>
0

>  <SCORE.SYSTEM.DIHEDRAL>
0

>  <SCORE.SYSTEM.SOLV>
0

>  <SCORE.SYSTEM.norm>
0

>  <SCORE.heavy>
13

>  <SCORE.norm>
-4.94589

>  <RMSD>
0.360

$$$$
lig.pdb
 OpenBabel11021811453D
libRbt.so/2013.1/901 2013/11/27
 13 14  0  0  0  0  0  0  0  0999 V2000
    2.3008    3.5596   -4.3696 N   0  0  0  0  0  0  0  0  0  0  0  0
    3.5333    2.9776   -4.5384 C   0  0  0  0  0  0  0  0  0  0  0  0
    3.8392    1.8584   -3.8911 N   0  0  0  0  0  0  0  0  0  0  0  0
    2.9472    1.2534   -3.0469 C   0  0  0  0  0  0  0  0  0  0  0  0
    1.6669    1.8259   -2.8369 C   0  0  0  0  0  0  0  0  0  0  0  0
    1.3540    3.0233   -3.5412 C   0  0  0  0  0  0  0  0  0  0  0  0
    0.2701    3.5637   -3.4149 O   0  0  0  0  0  0  0  0  0  0  0  0
    0.9774    0.9704   -1.8713 C   0  0  0  0  0  0  0  0  0  0  0  0
   -0.3885    1.1907   -1.2793 C   0  0  0  0  0  0  0  0  0  0  0  0
   -1.4039    1.1061   -2.3381 N   0  0  0  0  0  0  0  0  0  0  0  0
    1.8189   -0.0352   -1.5999 C   0  0  0  0  0  0  0  0  0  0  0  0
    2.9931    0.1304   -2.2852 N   0  0  0  0  0  0  0  0  0  0  0  0
    4.4470    3.5490   -5.3843 N   0  0  0  0  0  0  0  0  0  0  0  0
  1  6  1  0  0  0  0
  2  1  1  0  0  0  0
  2  3  2  0  0  0  0
  3  4  1  0  0  0  0
  4  5  2  0  0  0  0
  4 12  1  0  0  0  0
  5  8  1  0  0  0  0
  6  7  2  0  0  0  0
  6  5  1  0  0  0  0
  8 11  2  0  0  0  0
  8  9  1  0  0  0  0
 10  9  1  0  0  0  0
 12 11  1  0  0  0  0
 13  2  1  0  0  0  0
M  END
>  <CHROM.1>
64.98938532,-89.16188319,1.84677561,1.95648043,-3.14485078,0.70033540,0.27040798
-0.62176496

>  <Name>
lig.pdb

>  <RI>
1.459e+07

>  <Rbt.Current_Directory>
/home/itssahil/PROJECTS/Mol_Feturizer/New_Systems/rnas/2l1v

>  <Rbt.Executable>
rbdock ($Id: //depot/dev/client3/rdock/2013.1/src/exe/rbdock.cxx#4 $)

>  <Rbt.Library>
libRbt.so (2013.1, Build901 2013/11/27)

>  <Rbt.Parameter_File>
/export/apps/rDock/src/rDock_2013.1_src/data/scripts/dock_solv.prm

>  <Rbt.Receptor>
prm/pocket_docking_2.prm

>  <SCORE>
-64.1053

>  <SCORE.INTER>
-65.07

>  <SCORE.INTER.CONST>
1

>  <SCORE.INTER.POLAR>
-6.741

>  <SCORE.INTER.ROT>
2

>  <SCORE.INTER.SOLV>
18.6211

>  <SCORE.INTER.VDW>
-32.0504

>  <SCORE.INTER.norm>
-5.00538

>  <SCORE.INTRA>
0.964721

>  <SCORE.INTRA.DIHEDRAL>
0.0920181

>  <SCORE.INTRA.DIHEDRAL.0>
1.43995

>  <SCORE.INTRA.POLAR>
0.272593

>  <SCORE.INTRA.POLAR.0>
-0.272593

>  <SCORE.INTRA.REPUL>
0

>  <SCORE.INTRA.REPUL.0>
0

>  <SCORE.INTRA.SOLV>
-0.0879356

>  <SCORE.INTRA.SOLV.lig_0>
-22.6728

>  <SCORE.INTRA.VDW>
0.0358646

>  <SCORE.INTRA.VDW.0>
-0.754459

>  <SCORE.INTRA.norm>
0.0742093

>  <SCORE.RESTR>
0

>  <SCORE.RESTR.CAVITY>
0

>  <SCORE.RESTR.norm>
0

>  <SCORE.SYSTEM>
0

>  <SCORE.SYSTEM.CONST>
0

>  <SCORE.SYSTEM.DIHEDRAL>
0

>  <SCORE.SYSTEM.SOLV>
0

>  <SCORE.SYSTEM.norm>
0

>  <SCORE.heavy>
13

>  <SCORE.norm>
-4.93118

>  <RMSD>
0.360

$$$$
lig.pdb
 OpenBabel11021811453D
libRbt.so/2013.1/901 2013/11/27
 13 14  0  0  0  0  0  0  0  0999 V2000
    2.2994    3.5534   -4.3843 N   0  0  0  0  0  0  0  0  0  0  0  0
    3.5305    2.9679   -4.5504 C   0  0  0  0  0  0  0  0  0  0  0  0
    3.8355    1.8533   -3.8949 N   0  0  0  0  0  0  0  0  0  0  0  0
    2.9437    1.2563   -3.0448 C   0  0  0  0  0  0  0  0  0  0  0  0
    1.6646    1.8328   -2.8373 C   0  0  0  0  0  0  0  0  0  0  0  0
    1.3528    3.0253   -3.5503 C   0  0  0  0  0  0  0  0  0  0  0  0
    0.2701    3.5685   -3.4265 O   0  0  0  0  0  0  0  0  0  0  0  0
    0.9751    0.9859   -1.8640 C   0  0  0  0  0  0  0  0  0  0  0  0
   -0.3894    1.2132   -1.2717 C   0  0  0  0  0  0  0  0  0  0  0  0
   -1.4080    1.1070   -2.3256 N   0  0  0  0  0  0  0  0  0  0  0  0
    1.8152   -0.0191   -1.5862 C   0  0  0  0  0  0  0  0  0  0  0  0
    2.9887    0.1392   -2.2746 N   0  0  0  0  0  0  0  0  0  0  0  0
    4.4440    3.5312   -5.4021 N   0  0  0  0  0  0  0  0  0  0  0  0
  1  6  1  0  0  0  0
  2  1  1  0  0  0  0
  2  3  2  0  0  0  0
  3  4  1  0  0  0  0
  4  5  2  0  0  0  0
  4 12  1  0  0  0  0
  5  8  1  0  0  0  0
  6  7  2  0  0  0  0
  6  5  1  0  0  0  0
  8 11  2  0  0  0  0
  8  9  1  0  0  0  0
 10  9  1  0  0  0  0
 12 11  1  0  0  0  0
 13  2  1  0  0  0  0
M  END
>  <CHROM.1>
65.63363851,-89.74596182,1.84419829,1.95919969,-3.14624336,0.70056733,0.27222039
-0.62886419

>  <Name>
lig.pdb

>  <RI>
1.459e+07

>  <Rbt.Current_Directory>
/home/itssahil/PROJECTS/Mol_Feturizer/New_Systems/rnas/2l1v

>  <Rbt.Executable>
rbdock ($Id: //depot/dev/client3/rdock/2013.1/src/exe/rbdock.cxx#4 $)

>  <Rbt.Library>
libRbt.so (2013.1, Build901 2013/11/27)

>  <Rbt.Parameter_File>
/export/apps/rDock/src/rDock_2013.1_src/data/scripts/dock_solv.prm

>  <Rbt.Receptor>
prm/pocket_docking_2.prm

>  <SCORE>
-64.126

>  <SCORE.INTER>
-65.0944

>  <SCORE.INTER.CONST>
1

>  <SCORE.INTER.POLAR>
-6.71229

>  <SCORE.INTER.ROT>
2

>  <SCORE.INTER.SOLV>
18.6258

>  <SCORE.INTER.VDW>
-32.1639

>  <SCORE.INTER.norm>
-5.00726

>  <SCORE.INTRA>
0.968373

>  <SCORE.INTRA.DIHEDRAL>
0.100702

>  <SCORE.INTRA.DIHEDRAL.0>
1.43995

>  <SCORE.INTRA.POLAR>
0.272593

>  <SCORE.INTRA.POLAR.0>
-0.272593

>  <SCORE.INTRA.REPUL>
0

>  <SCORE.INTRA.REPUL.0>
0

>  <SCORE.INTRA.SOLV>
-0.094385

>  <SCORE.INTRA.SOLV.lig_0>
-22.6728

>  <SCORE.INTRA.VDW>
0.0383998

>  <SCORE.INTRA.VDW.0>
-0.754459

>  <SCORE.INTRA.norm>
0.0744903

>  <SCORE.RESTR>
0

>  <SCORE.RESTR.CAVITY>
0

>  <SCORE.RESTR.norm>
0

>  <SCORE.SYSTEM>
0

>  <SCORE.SYSTEM.CONST>
0

>  <SCORE.SYSTEM.DIHEDRAL>
0

>  <SCORE.SYSTEM.SOLV>
0

>  <SCORE.SYSTEM.norm>
0

>  <SCORE.heavy>
13

>  <SCORE.norm>
-4.93277

>  <RMSD>
0.360

$$$$
lig.pdb
 OpenBabel11021811453D
libRbt.so/2013.1/901 2013/11/27
 13 14  0  0  0  0  0  0  0  0999 V2000
    2.2978    3.5459   -4.3860 N   0  0  0  0  0  0  0  0  0  0  0  0
    3.5293    2.9599   -4.5477 C   0  0  0  0  0  0  0  0  0  0  0  0
    3.8329    1.8473   -3.8881 N   0  0  0  0  0  0  0  0  0  0  0  0
    2.9394    1.2531   -3.0379 C   0  0  0  0  0  0  0  0  0  0  0  0
    1.6599    1.8301   -2.8349 C   0  0  0  0  0  0  0  0  0  0  0  0
    1.3496    3.0203   -3.5523 C   0  0  0  0  0  0  0  0  0  0  0  0
    0.2666    3.5639   -3.4325 O   0  0  0  0  0  0  0  0  0  0  0  0
    0.9684    0.9863   -1.8604 C   0  0  0  0  0  0  0  0  0  0  0  0
   -0.3974    1.2155   -1.2715 C   0  0  0  0  0  0  0  0  0  0  0  0
   -1.4136    1.1073   -2.3275 N   0  0  0  0  0  0  0  0  0  0  0  0
    1.8079   -0.0177   -1.5776 C   0  0  0  0  0  0  0  0  0  0  0  0
    2.9829    0.1384   -2.2641 N   0  0  0  0  0  0  0  0  0  0  0  0
    4.4445    3.5205   -5.3993 N   0  0  0  0  0  0  0  0  0  0  0  0
  1  6  1  0  0  0  0
  2  1  1  0  0  0  0
  2  3  2  0  0  0  0
  3  4  1  0  0  0  0
  4  5  2  0  0  0  0
  4 12  1  0  0  0  0
  5  8  1  0  0  0  0
  6  7  2  0  0  0  0
  6  5  1  0  0  0  0
  8 11  2  0  0  0  0
  8  9  1  0  0  0  0
 10  9  1  0  0  0  0
 12 11  1  0  0  0  0
 13  2  1  0  0  0  0
M  END
>  <CHROM.1>
65.57262975,-89.63904518,1.84011876,1.95569391,-3.14386324,0.69925474,0.27057758
-0.63175663

>  <Name>
lig.pdb

>  <RI>
1.459e+07

>  <Rbt.Current_Directory>
/home/itssahil/PROJECTS/Mol_Feturizer/New_Systems/rnas/2l1v

>  <Rbt.Executable>
rbdock ($Id: //depot/dev/client3/rdock/2013.1/src/exe/rbdock.cxx#4 $)

>  <Rbt.Library>
libRbt.so (2013.1, Build901 2013/11/27)

>  <Rbt.Parameter_File>
/export/apps/rDock/src/rDock_2013.1_src/data/scripts/dock_solv.prm

>  <Rbt.Receptor>
prm/pocket_docking_2.prm

>  <SCORE>
-64.1572

>  <SCORE.INTER>
-65.1251

>  <SCORE.INTER.CONST>
1

>  <SCORE.INTER.POLAR>
-6.71063

>  <SCORE.INTER.ROT>
2

>  <SCORE.INTER.SOLV>
18.6142

>  <SCORE.INTER.VDW>
-32.186

>  <SCORE.INTER.norm>
-5.00962

>  <SCORE.INTRA>
0.967959

>  <SCORE.INTRA.DIHEDRAL>
0.0998171

>  <SCORE.INTRA.DIHEDRAL.0>
1.43995

>  <SCORE.INTRA.POLAR>
0.272593

>  <SCORE.INTRA.POLAR.0>
-0.272593

>  <SCORE.INTRA.REPUL>
0

>  <SCORE.INTRA.REPUL.0>
0

>  <SCORE.INTRA.SOLV>
-0.093752

>  <SCORE.INTRA.SOLV.lig_0>
-22.6728

>  <SCORE.INTRA.VDW>
0.0381118

>  <SCORE.INTRA.VDW.0>
-0.754459

>  <SCORE.INTRA.norm>
0.0744584

>  <SCORE.RESTR>
0

>  <SCORE.RESTR.CAVITY>
0

>  <SCORE.RESTR.norm>
0

>  <SCORE.SYSTEM>
0

>  <SCORE.SYSTEM.CONST>
0

>  <SCORE.SYSTEM.DIHEDRAL>
0

>  <SCORE.SYSTEM.SOLV>
0

>  <SCORE.SYSTEM.norm>
0

>  <SCORE.heavy>
13

>  <SCORE.norm>
-4.93517

>  <RMSD>
0.360

$$$$
lig.pdb
 OpenBabel11021811453D
libRbt.so/2013.1/901 2013/11/27
 13 14  0  0  0  0  0  0  0  0999 V2000
    2.2967    3.5512   -4.3869 N   0  0  0  0  0  0  0  0  0  0  0  0
    3.5278    2.9649   -4.5507 C   0  0  0  0  0  0  0  0  0  0  0  0
    3.8316    1.8513   -3.8930 N   0  0  0  0  0  0  0  0  0  0  0  0
    2.9387    1.2562   -3.0427 C   0  0  0  0  0  0  0  0  0  0  0  0
    1.6597    1.8335   -2.8375 C   0  0  0  0  0  0  0  0  0  0  0  0
    1.3491    3.0249   -3.5529 C   0  0  0  0  0  0  0  0  0  0  0  0
    0.2665    3.5687   -3.4313 O   0  0  0  0  0  0  0  0  0  0  0  0
    0.9689    0.9887   -1.8634 C   0  0  0  0  0  0  0  0  0  0  0  0
   -0.3962    1.2176   -1.2729 C   0  0  0  0  0  0  0  0  0  0  0  0
   -1.4140    1.1060   -2.3269 N   0  0  0  0  0  0  0  0  0  0  0  0
    1.8083   -0.0161   -1.5830 C   0  0  0  0  0  0  0  0  0  0  0  0
    2.9826    0.1404   -2.2704 N   0  0  0  0  0  0  0  0  0  0  0  0
    4.4423    3.5263   -5.4025 N   0  0  0  0  0  0  0  0  0  0  0  0
  1  6  1  0  0  0  0
  2  1  1  0  0  0  0
  2  3  2  0  0  0  0
  3  4  1  0  0  0  0
  4  5  2  0  0  0  0
  4 12  1  0  0  0  0
  5  8  1  0  0  0  0
  6  7  2  0  0  0  0
  6  5  1  0  0  0  0
  8 11  2  0  0  0  0
  8  9  1  0  0  0  0
 10  9  1  0  0  0  0
 12 11  1  0  0  0  0
 13  2  1  0  0  0  0
M  END
>  <CHROM.1>
65.79655107,-89.61751649,1.83961562,1.95897836,-3.14643135,0.69984594,0.27150104
-0.63030716

>  <Name>
lig.pdb

>  <RI>
2.86608e+07

>  <Rbt.Current_Directory>
/home/itssahil/PROJECTS/Mol_Feturizer/New_Systems/rnas/2l1v

>  <Rbt.Executable>
rbdock ($Id: //depot/dev/client3/rdock/2013.1/src/exe/rbdock.cxx#4 $)

>  <Rbt.Library>
libRbt.so (2013.1, Build901 2013/11/27)

>  <Rbt.Parameter_File>
/export/apps/rDock/src/rDock_2013.1_src/data/scripts/dock_solv.prm

>  <Rbt.Receptor>
prm/pocket_docking_7.prm

>  <SCORE>
-64.1455

>  <SCORE.INTER>
-65.1147

>  <SCORE.INTER.CONST>
1

>  <SCORE.INTER.POLAR>
-6.7054

>  <SCORE.INTER.ROT>
2

>  <SCORE.INTER.SOLV>
18.6311

>  <SCORE.INTER.VDW>
-32.2022

>  <SCORE.INTER.norm>
-5.00883

>  <SCORE.INTRA>
0.96919

>  <SCORE.INTRA.DIHEDRAL>
0.103015

>  <SCORE.INTRA.DIHEDRAL.0>
1.43995

>  <SCORE.INTRA.POLAR>
0.272593

>  <SCORE.INTRA.POLAR.0>
-0.272593

>  <SCORE.INTRA.REPUL>
0

>  <SCORE.INTRA.REPUL.0>
0

>  <SCORE.INTRA.SOLV>
-0.0959055

>  <SCORE.INTRA.SOLV.lig_0>
-22.6728

>  <SCORE.INTRA.VDW>
0.0388204

>  <SCORE.INTRA.VDW.0>
-0.754459

>  <SCORE.INTRA.norm>
0.0745531

>  <SCORE.RESTR>
0

>  <SCORE.RESTR.CAVITY>
0

>  <SCORE.RESTR.norm>
0

>  <SCORE.SYSTEM>
0

>  <SCORE.SYSTEM.CONST>
0

>  <SCORE.SYSTEM.DIHEDRAL>
0

>  <SCORE.SYSTEM.SOLV>
0

>  <SCORE.SYSTEM.norm>
0

>  <SCORE.heavy>
13

>  <SCORE.norm>
-4.93427

>  <RMSD>
0.360

$$$$
lig.pdb
 OpenBabel11021811453D
libRbt.so/2013.1/901 2013/11/27
 13 14  0  0  0  0  0  0  0  0999 V2000
    2.2965    3.5451   -4.3750 N   0  0  0  0  0  0  0  0  0  0  0  0
    3.5276    2.9583   -4.5368 C   0  0  0  0  0  0  0  0  0  0  0  0
    3.8286    1.8425   -3.8815 N   0  0  0  0  0  0  0  0  0  0  0  0
    2.9327    1.2457   -3.0355 C   0  0  0  0  0  0  0  0  0  0  0  0
    1.6536    1.8234   -2.8325 C   0  0  0  0  0  0  0  0  0  0  0  0
    1.3460    3.0171   -3.5454 C   0  0  0  0  0  0  0  0  0  0  0  0
    0.2634    3.5615   -3.4253 O   0  0  0  0  0  0  0  0  0  0  0  0
    0.9591    0.9763   -1.8630 C   0  0  0  0  0  0  0  0  0  0  0  0
   -0.4075    1.2045   -1.2759 C   0  0  0  0  0  0  0  0  0  0  0  0
   -1.4211    1.1097   -2.3356 N   0  0  0  0  0  0  0  0  0  0  0  0
    1.7969   -0.0300   -1.5830 C   0  0  0  0  0  0  0  0  0  0  0  0
    2.9734    0.1276   -2.2665 N   0  0  0  0  0  0  0  0  0  0  0  0
    4.4451    3.5215   -5.3842 N   0  0  0  0  0  0  0  0  0  0  0  0
  1  6  1  0  0  0  0
  2  1  1  0  0  0  0
  2  3  2  0  0  0  0
  3  4  1  0  0  0  0
  4  5  2  0  0  0  0
  4 12  1  0  0  0  0
  5  8  1  0  0  0  0
  6  7  2  0  0  0  0
  6  5  1  0  0  0  0
  8 11  2  0  0  0  0
  8  9  1  0  0  0  0
 10  9  1  0  0  0  0
 12 11  1  0  0  0  0
 13  2  1  0  0  0  0
M  END
>  <CHROM.1>
65.25487731,-89.73455618,1.83456240,1.95082836,-3.14074365,0.69664174,0.26996755
-0.62704521

>  <Name>
lig.pdb

>  <RI>
4.02536e+07

>  <Rbt.Current_Directory>
/home/itssahil/PROJECTS/Mol_Feturizer/New_Systems/rnas/2l1v

>  <Rbt.Executable>
rbdock ($Id: //depot/dev/client3/rdock/2013.1/src/exe/rbdock.cxx#4 $)

>  <Rbt.Library>
libRbt.so (2013.1, Build901 2013/11/27)

>  <Rbt.Parameter_File>
/export/apps/rDock/src/rDock_2013.1_src/data/scripts/dock_solv.prm

>  <Rbt.Receptor>
prm/blind_docking_40.prm

>  <SCORE>
-64.1376

>  <SCORE.INTER>
-65.104

>  <SCORE.INTER.CONST>
1

>  <SCORE.INTER.POLAR>
-6.71503

>  <SCORE.INTER.ROT>
2

>  <SCORE.INTER.SOLV>
18.6223

>  <SCORE.INTER.VDW>
-32.16

>  <SCORE.INTER.norm>
-5.008

>  <SCORE.INTRA>
0.966407

>  <SCORE.INTRA.DIHEDRAL>
0.0955462

>  <SCORE.INTRA.DIHEDRAL.0>
1.43995

>  <SCORE.INTRA.POLAR>
0.272593

>  <SCORE.INTRA.POLAR.0>
-0.272593

>  <SCORE.INTRA.REPUL>
0

>  <SCORE.INTRA.REPUL.0>
0

>  <SCORE.INTRA.SOLV>
-0.0907282

>  <SCORE.INTRA.SOLV.lig_0>
-22.6728

>  <SCORE.INTRA.VDW>
0.0371828

>  <SCORE.INTRA.VDW.0>
-0.754459

>  <SCORE.INTRA.norm>
0.074339

>  <SCORE.RESTR>
0

>  <SCORE.RESTR.CAVITY>
0

>  <SCORE.RESTR.norm>
0

>  <SCORE.SYSTEM>
0

>  <SCORE.SYSTEM.CONST>
0

>  <SCORE.SYSTEM.DIHEDRAL>
0

>  <SCORE.SYSTEM.SOLV>
0

>  <SCORE.SYSTEM.norm>
0

>  <SCORE.heavy>
13

>  <SCORE.norm>
-4.93366

>  <RMSD>
0.361

$$$$
lig.pdb
 OpenBabel11021811453D
libRbt.so/2013.1/901 2013/11/27
 13 14  0  0  0  0  0  0  0  0999 V2000
    2.3053    3.5599   -4.3665 N   0  0  0  0  0  0  0  0  0  0  0  0
    3.5367    2.9771   -4.5397 C   0  0  0  0  0  0  0  0  0  0  0  0
    3.8440    1.8573   -3.8942 N   0  0  0  0  0  0  0  0  0  0  0  0
    2.9544    1.2523   -3.0475 C   0  0  0  0  0  0  0  0  0  0  0  0
    1.6751    1.8256   -2.8329 C   0  0  0  0  0  0  0  0  0  0  0  0
    1.3608    3.0237   -3.5353 C   0  0  0  0  0  0  0  0  0  0  0  0
    0.2777    3.5647   -3.4051 O   0  0  0  0  0  0  0  0  0  0  0  0
    0.9882    0.9699   -1.8656 C   0  0  0  0  0  0  0  0  0  0  0  0
   -0.3755    1.1907   -1.2689 C   0  0  0  0  0  0  0  0  0  0  0  0
   -1.3948    1.1033   -2.3238 N   0  0  0  0  0  0  0  0  0  0  0  0
    1.8299   -0.0365   -1.5977 C   0  0  0  0  0  0  0  0  0  0  0  0
    3.0020    0.1287   -2.2868 N   0  0  0  0  0  0  0  0  0  0  0  0
    4.4481    3.5485   -5.3883 N   0  0  0  0  0  0  0  0  0  0  0  0
  1  6  1  0  0  0  0
  2  1  1  0  0  0  0
  2  3  2  0  0  0  0
  3  4  1  0  0  0  0
  4  5  2  0  0  0  0
  4 12  1  0  0  0  0
  5  8  1  0  0  0  0
  6  7  2  0  0  0  0
  6  5  1  0  0  0  0
  8 11  2  0  0  0  0
  8  9  1  0  0  0  0
 10  9  1  0  0  0  0
 12 11  1  0  0  0  0
 13  2  1  0  0  0  0
M  END
>  <CHROM.1>
65.16699433,-89.03272037,1.85410205,1.95582460,-3.14129723,0.70196999,0.27337342
-0.62132950

>  <Name>
lig.pdb

>  <RI>
4.02536e+07

>  <Rbt.Current_Directory>
/home/itssahil/PROJECTS/Mol_Feturizer/New_Systems/rnas/2l1v

>  <Rbt.Executable>
rbdock ($Id: //depot/dev/client3/rdock/2013.1/src/exe/rbdock.cxx#4 $)

>  <Rbt.Library>
libRbt.so (2013.1, Build901 2013/11/27)

>  <Rbt.Parameter_File>
/export/apps/rDock/src/rDock_2013.1_src/data/scripts/dock_solv.prm

>  <Rbt.Receptor>
prm/blind_docking_40.prm

>  <SCORE>
-64.107

>  <SCORE.INTER>
-65.0724

>  <SCORE.INTER.CONST>
1

>  <SCORE.INTER.POLAR>
-6.74183

>  <SCORE.INTER.ROT>
2

>  <SCORE.INTER.SOLV>
18.5943

>  <SCORE.INTER.VDW>
-32.0403

>  <SCORE.INTER.norm>
-5.00557

>  <SCORE.INTRA>
0.965424

>  <SCORE.INTRA.DIHEDRAL>
0.0941978

>  <SCORE.INTRA.DIHEDRAL.0>
1.43995

>  <SCORE.INTRA.POLAR>
0.272593

>  <SCORE.INTRA.POLAR.0>
-0.272593

>  <SCORE.INTRA.REPUL>
0

>  <SCORE.INTRA.REPUL.0>
0

>  <SCORE.INTRA.SOLV>
-0.0895933

>  <SCORE.INTRA.SOLV.lig_0>
-22.6728

>  <SCORE.INTRA.VDW>
0.0363069

>  <SCORE.INTRA.VDW.0>
-0.754459

>  <SCORE.INTRA.norm>
0.0742634

>  <SCORE.RESTR>
0

>  <SCORE.RESTR.CAVITY>
0

>  <SCORE.RESTR.norm>
0

>  <SCORE.SYSTEM>
0

>  <SCORE.SYSTEM.CONST>
0

>  <SCORE.SYSTEM.DIHEDRAL>
0

>  <SCORE.SYSTEM.SOLV>
0

>  <SCORE.SYSTEM.norm>
0

>  <SCORE.heavy>
13

>  <SCORE.norm>
-4.93131

>  <RMSD>
0.361

$$$$
lig.pdb
 OpenBabel11021811453D
libRbt.so/2013.1/901 2013/11/27
 13 14  0  0  0  0  0  0  0  0999 V2000
    2.3064    3.5622   -4.3818 N   0  0  0  0  0  0  0  0  0  0  0  0
    3.5358    2.9746   -4.5531 C   0  0  0  0  0  0  0  0  0  0  0  0
    3.8400    1.8570   -3.9024 N   0  0  0  0  0  0  0  0  0  0  0  0
    2.9491    1.2590   -3.0521 C   0  0  0  0  0  0  0  0  0  0  0  0
    1.6719    1.8375   -2.8393 C   0  0  0  0  0  0  0  0  0  0  0  0
    1.3609    3.0332   -3.5472 C   0  0  0  0  0  0  0  0  0  0  0  0
    0.2797    3.5784   -3.4188 O   0  0  0  0  0  0  0  0  0  0  0  0
    0.9830    0.9887   -1.8673 C   0  0  0  0  0  0  0  0  0  0  0  0
   -0.3795    1.2169   -1.2706 C   0  0  0  0  0  0  0  0  0  0  0  0
   -1.4024    1.1000   -2.3192 N   0  0  0  0  0  0  0  0  0  0  0  0
    1.8216   -0.0191   -1.5952 C   0  0  0  0  0  0  0  0  0  0  0  0
    2.9937    0.1390   -2.2860 N   0  0  0  0  0  0  0  0  0  0  0  0
    4.4483    3.5390   -5.4052 N   0  0  0  0  0  0  0  0  0  0  0  0
  1  6  1  0  0  0  0
  2  1  1  0  0  0  0
  2  3  2  0  0  0  0
  3  4  1  0  0  0  0
  4  5  2  0  0  0  0
  4 12  1  0  0  0  0
  5  8  1  0  0  0  0
  6  7  2  0  0  0  0
  6  5  1  0  0  0  0
  8 11  2  0  0  0  0
  8  9  1  0  0  0  0
 10  9  1  0  0  0  0
 12 11  1  0  0  0  0
 13  2  1  0  0  0  0
M  END
>  <CHROM.1>
66.33588780,-89.43993855,1.85077626,1.96307631,-3.14795466,0.70120862,0.27506933
-0.62479413

>  <Name>
lig.pdb

>  <RI>
1.77584e+07

>  <Rbt.Current_Directory>
/home/itssahil/PROJECTS/Mol_Feturizer/New_Systems/rnas/2l1v

>  <Rbt.Executable>
rbdock ($Id: //depot/dev/client3/rdock/2013.1/src/exe/rbdock.cxx#4 $)

>  <Rbt.Library>
libRbt.so (2013.1, Build901 2013/11/27)

>  <Rbt.Parameter_File>
/export/apps/rDock/src/rDock_2013.1_src/data/scripts/dock_solv.prm

>  <Rbt.Receptor>
prm/blind_docking_80.prm

>  <SCORE>
-64.1285

>  <SCORE.INTER>
-65.1009

>  <SCORE.INTER.CONST>
1

>  <SCORE.INTER.POLAR>
-6.72134

>  <SCORE.INTER.ROT>
2

>  <SCORE.INTER.SOLV>
18.6344

>  <SCORE.INTER.VDW>
-32.1409

>  <SCORE.INTER.norm>
-5.00776

>  <SCORE.INTRA>
0.972398

>  <SCORE.INTRA.DIHEDRAL>
0.111282

>  <SCORE.INTRA.DIHEDRAL.0>
1.43995

>  <SCORE.INTRA.POLAR>
0.272593

>  <SCORE.INTRA.POLAR.0>
-0.272593

>  <SCORE.INTRA.REPUL>
0

>  <SCORE.INTRA.REPUL.0>
0

>  <SCORE.INTRA.SOLV>
-0.101054

>  <SCORE.INTRA.SOLV.lig_0>
-22.6728

>  <SCORE.INTRA.VDW>
0.0404691

>  <SCORE.INTRA.VDW.0>
-0.754459

>  <SCORE.INTRA.norm>
0.0747998

>  <SCORE.RESTR>
0

>  <SCORE.RESTR.CAVITY>
0

>  <SCORE.RESTR.norm>
0

>  <SCORE.SYSTEM>
0

>  <SCORE.SYSTEM.CONST>
0

>  <SCORE.SYSTEM.DIHEDRAL>
0

>  <SCORE.SYSTEM.SOLV>
0

>  <SCORE.SYSTEM.norm>
0

>  <SCORE.heavy>
13

>  <SCORE.norm>
-4.93296

>  <RMSD>
0.361

$$$$
lig.pdb
 OpenBabel11021811453D
libRbt.so/2013.1/901 2013/11/27
 13 14  0  0  0  0  0  0  0  0999 V2000
    2.3057    3.5447   -4.3741 N   0  0  0  0  0  0  0  0  0  0  0  0
    3.5331    2.9528   -4.5451 C   0  0  0  0  0  0  0  0  0  0  0  0
    3.8336    1.8347   -3.8934 N   0  0  0  0  0  0  0  0  0  0  0  0
    2.9409    1.2406   -3.0423 C   0  0  0  0  0  0  0  0  0  0  0  0
    1.6657    1.8236   -2.8298 C   0  0  0  0  0  0  0  0  0  0  0  0
    1.3585    3.0196   -3.5388 C   0  0  0  0  0  0  0  0  0  0  0  0
    0.2792    3.5686   -3.4107 O   0  0  0  0  0  0  0  0  0  0  0  0
    0.9741    0.9781   -1.8567 C   0  0  0  0  0  0  0  0  0  0  0  0
   -0.3875    1.2115   -1.2600 C   0  0  0  0  0  0  0  0  0  0  0  0
   -1.4114    1.0923   -2.3073 N   0  0  0  0  0  0  0  0  0  0  0  0
    1.8094   -0.0322   -1.5838 C   0  0  0  0  0  0  0  0  0  0  0  0
    2.9819    0.1212   -2.2751 N   0  0  0  0  0  0  0  0  0  0  0  0
    4.4473    3.5132   -5.3980 N   0  0  0  0  0  0  0  0  0  0  0  0
  1  6  1  0  0  0  0
  2  1  1  0  0  0  0
  2  3  2  0  0  0  0
  3  4  1  0  0  0  0
  4  5  2  0  0  0  0
  4 12  1  0  0  0  0
  5  8  1  0  0  0  0
  6  7  2  0  0  0  0
  6  5  1  0  0  0  0
  8 11  2  0  0  0  0
  8  9  1  0  0  0  0
 10  9  1  0  0  0  0
 12 11  1  0  0  0  0
 13  2  1  0  0  0  0
M  END
>  <CHROM.1>
66.53671913,91.95190666,1.84515444,1.94774967,-3.13874316,0.69916591,0.27696043
-0.62496979

>  <Name>
lig.pdb

>  <RI>
1.77584e+07

>  <Rbt.Current_Directory>
/home/itssahil/PROJECTS/Mol_Feturizer/New_Systems/rnas/2l1v

>  <Rbt.Executable>
rbdock ($Id: //depot/dev/client3/rdock/2013.1/src/exe/rbdock.cxx#4 $)

>  <Rbt.Library>
libRbt.so (2013.1, Build901 2013/11/27)

>  <Rbt.Parameter_File>
/export/apps/rDock/src/rDock_2013.1_src/data/scripts/dock_solv.prm

>  <Rbt.Receptor>
prm/blind_docking_80.prm

>  <SCORE>
-64.2623

>  <SCORE.INTER>
-65.1652

>  <SCORE.INTER.CONST>
1

>  <SCORE.INTER.POLAR>
-6.72195

>  <SCORE.INTER.ROT>
2

>  <SCORE.INTER.SOLV>
18.5774

>  <SCORE.INTER.VDW>
-32.1627

>  <SCORE.INTER.norm>
-5.0127

>  <SCORE.INTRA>
0.902873

>  <SCORE.INTRA.DIHEDRAL>
-0.0168917

>  <SCORE.INTRA.DIHEDRAL.0>
1.43995

>  <SCORE.INTRA.POLAR>
0.272593

>  <SCORE.INTRA.POLAR.0>
-0.272593

>  <SCORE.INTRA.REPUL>
0

>  <SCORE.INTRA.REPUL.0>
0

>  <SCORE.INTRA.SOLV>
-0.100125

>  <SCORE.INTRA.SOLV.lig_0>
-22.6728

>  <SCORE.INTRA.VDW>
0.034566

>  <SCORE.INTRA.VDW.0>
-0.754459

>  <SCORE.INTRA.norm>
0.0694517

>  <SCORE.RESTR>
0

>  <SCORE.RESTR.CAVITY>
0

>  <SCORE.RESTR.norm>
0

>  <SCORE.SYSTEM>
0

>  <SCORE.SYSTEM.CONST>
0

>  <SCORE.SYSTEM.DIHEDRAL>
0

>  <SCORE.SYSTEM.SOLV>
0

>  <SCORE.SYSTEM.norm>
0

>  <SCORE.heavy>
13

>  <SCORE.norm>
-4.94325

>  <RMSD>
0.361

$$$$
lig.pdb
 OpenBabel11021811453D
libRbt.so/2013.1/901 2013/11/27
 13 14  0  0  0  0  0  0  0  0999 V2000
    2.3080    3.5643   -4.3811 N   0  0  0  0  0  0  0  0  0  0  0  0
    3.5377    2.9775   -4.5529 C   0  0  0  0  0  0  0  0  0  0  0  0
    3.8426    1.8597   -3.9027 N   0  0  0  0  0  0  0  0  0  0  0  0
    2.9521    1.2608   -3.0525 C   0  0  0  0  0  0  0  0  0  0  0  0
    1.6746    1.8385   -2.8393 C   0  0  0  0  0  0  0  0  0  0  0  0
    1.3628    3.0344   -3.5466 C   0  0  0  0  0  0  0  0  0  0  0  0
    0.2814    3.5789   -3.4178 O   0  0  0  0  0  0  0  0  0  0  0  0
    0.9863    0.9890   -1.8675 C   0  0  0  0  0  0  0  0  0  0  0  0
   -0.3762    1.2162   -1.2706 C   0  0  0  0  0  0  0  0  0  0  0  0
   -1.3991    1.1012   -2.3194 N   0  0  0  0  0  0  0  0  0  0  0  0
    1.8255   -0.0185   -1.5960 C   0  0  0  0  0  0  0  0  0  0  0  0
    2.9974    0.1405   -2.2869 N   0  0  0  0  0  0  0  0  0  0  0  0
    4.4498    3.5426   -5.4048 N   0  0  0  0  0  0  0  0  0  0  0  0
  1  6  1  0  0  0  0
  2  1  1  0  0  0  0
  2  3  2  0  0  0  0
  3  4  1  0  0  0  0
  4  5  2  0  0  0  0
  4 12  1  0  0  0  0
  5  8  1  0  0  0  0
  6  7  2  0  0  0  0
  6  5  1  0  0  0  0
  8 11  2  0  0  0  0
  8  9  1  0  0  0  0
 10  9  1  0  0  0  0
 12 11  1  0  0  0  0
 13  2  1  0  0  0  0
M  END
>  <CHROM.1>
66.25152971,-89.45119602,1.85340958,1.96455236,-3.14794256,0.70163552,0.27493349
-0.62455002

>  <Name>
lig.pdb

>  <RI>
1.77584e+07

>  <Rbt.Current_Directory>
/home/itssahil/PROJECTS/Mol_Feturizer/New_Systems/rnas/2l1v

>  <Rbt.Executable>
rbdock ($Id: //depot/dev/client3/rdock/2013.1/src/exe/rbdock.cxx#4 $)

>  <Rbt.Library>
libRbt.so (2013.1, Build901 2013/11/27)

>  <Rbt.Parameter_File>
/export/apps/rDock/src/rDock_2013.1_src/data/scripts/dock_solv.prm

>  <Rbt.Receptor>
prm/blind_docking_80.prm

>  <SCORE>
-64.1273

>  <SCORE.INTER>
-65.0991

>  <SCORE.INTER.CONST>
1

>  <SCORE.INTER.POLAR>
-6.72885

>  <SCORE.INTER.ROT>
2

>  <SCORE.INTER.SOLV>
18.6317

>  <SCORE.INTER.VDW>
-32.1138

>  <SCORE.INTER.norm>
-5.00762

>  <SCORE.INTRA>
0.971852

>  <SCORE.INTRA.DIHEDRAL>
0.109929

>  <SCORE.INTRA.DIHEDRAL.0>
1.43995

>  <SCORE.INTRA.POLAR>
0.272593

>  <SCORE.INTRA.POLAR.0>
-0.272593

>  <SCORE.INTRA.REPUL>
0

>  <SCORE.INTRA.REPUL.0>
0

>  <SCORE.INTRA.SOLV>
-0.100241

>  <SCORE.INTRA.SOLV.lig_0>
-22.6728

>  <SCORE.INTRA.VDW>
0.040193

>  <SCORE.INTRA.VDW.0>
-0.754459

>  <SCORE.INTRA.norm>
0.0747578

>  <SCORE.RESTR>
0

>  <SCORE.RESTR.CAVITY>
0

>  <SCORE.RESTR.norm>
0

>  <SCORE.SYSTEM>
0

>  <SCORE.SYSTEM.CONST>
0

>  <SCORE.SYSTEM.DIHEDRAL>
0

>  <SCORE.SYSTEM.SOLV>
0

>  <SCORE.SYSTEM.norm>
0

>  <SCORE.heavy>
13

>  <SCORE.norm>
-4.93287

>  <RMSD>
0.362

$$$$
lig.pdb
 OpenBabel11021811453D
libRbt.so/2013.1/901 2013/11/27
 13 14  0  0  0  0  0  0  0  0999 V2000
    2.3060    3.5685   -4.3668 N   0  0  0  0  0  0  0  0  0  0  0  0
    3.5248    2.9643   -4.5562 C   0  0  0  0  0  0  0  0  0  0  0  0
    3.8165    1.8332   -3.9234 N   0  0  0  0  0  0  0  0  0  0  0  0
    2.9231    1.2373   -3.0742 C   0  0  0  0  0  0  0  0  0  0  0  0
    1.6568    1.8325   -2.8432 C   0  0  0  0  0  0  0  0  0  0  0  0
    1.3589    3.0426   -3.5320 C   0  0  0  0  0  0  0  0  0  0  0  0
    0.2874    3.6027   -3.3874 O   0  0  0  0  0  0  0  0  0  0  0  0
    0.9623    0.9811   -1.8774 C   0  0  0  0  0  0  0  0  0  0  0  0
   -0.3917    1.2221   -1.2667 C   0  0  0  0  0  0  0  0  0  0  0  0
   -1.4277    1.1006   -2.3018 N   0  0  0  0  0  0  0  0  0  0  0  0
    1.7872   -0.0433   -1.6260 C   0  0  0  0  0  0  0  0  0  0  0  0
    2.9562    0.1062   -2.3240 N   0  0  0  0  0  0  0  0  0  0  0  0
    4.4392    3.5262   -5.4077 N   0  0  0  0  0  0  0  0  0  0  0  0
  1  6  1  0  0  0  0
  2  1  1  0  0  0  0
  2  3  2  0  0  0  0
  3  4  1  0  0  0  0
  4  5  2  0  0  0  0
  4 12  1  0  0  0  0
  5  8  1  0  0  0  0
  6  7  2  0  0  0  0
  6  5  1  0  0  0  0
  8 11  2  0  0  0  0
  8  9  1  0  0  0  0
 10  9  1  0  0  0  0
 12 11  1  0  0  0  0
 13  2  1  0  0  0  0
M  END
>  <CHROM.1>
67.82101321,90.94754259,1.83513225,1.95623526,-3.15113041,0.69509100,0.28947960
-0.60760934

>  <Name>
lig.pdb

>  <RI>
1.459e+07

>  <Rbt.Current_Directory>
/home/itssahil/PROJECTS/Mol_Feturizer/New_Systems/rnas/2l1v

>  <Rbt.Executable>
rbdock ($Id: //depot/dev/client3/rdock/2013.1/src/exe/rbdock.cxx#4 $)

>  <Rbt.Library>
libRbt.so (2013.1, Build901 2013/11/27)

>  <Rbt.Parameter_File>
/export/apps/rDock/src/rDock_2013.1_src/data/scripts/dock_solv.prm

>  <Rbt.Receptor>
prm/pocket_docking_2.prm

>  <SCORE>
-64.2764

>  <SCORE.INTER>
-65.19

>  <SCORE.INTER.CONST>
1

>  <SCORE.INTER.POLAR>
-6.69212

>  <SCORE.INTER.ROT>
2

>  <SCORE.INTER.SOLV>
18.7198

>  <SCORE.INTER.VDW>
-32.3262

>  <SCORE.INTER.norm>
-5.01462

>  <SCORE.INTRA>
0.913581

>  <SCORE.INTRA.DIHEDRAL>
0.00656342

>  <SCORE.INTRA.DIHEDRAL.0>
1.43995

>  <SCORE.INTRA.POLAR>
0.272593

>  <SCORE.INTRA.POLAR.0>
-0.272593

>  <SCORE.INTRA.REPUL>
0

>  <SCORE.INTRA.REPUL.0>
0

>  <SCORE.INTRA.SOLV>
-0.113

>  <SCORE.INTRA.SOLV.lig_0>
-22.6728

>  <SCORE.INTRA.VDW>
0.039984

>  <SCORE.INTRA.VDW.0>
-0.754459

>  <SCORE.INTRA.norm>
0.0702755

>  <SCORE.RESTR>
0

>  <SCORE.RESTR.CAVITY>
0

>  <SCORE.RESTR.norm>
0

>  <SCORE.SYSTEM>
0

>  <SCORE.SYSTEM.CONST>
0

>  <SCORE.SYSTEM.DIHEDRAL>
0

>  <SCORE.SYSTEM.SOLV>
0

>  <SCORE.SYSTEM.norm>
0

>  <SCORE.heavy>
13

>  <SCORE.norm>
-4.94434

>  <RMSD>
0.362

$$$$
lig.pdb
 OpenBabel11021811453D
libRbt.so/2013.1/901 2013/11/27
 13 14  0  0  0  0  0  0  0  0999 V2000
    2.3030    3.5595   -4.3766 N   0  0  0  0  0  0  0  0  0  0  0  0
    3.5298    2.9673   -4.5515 C   0  0  0  0  0  0  0  0  0  0  0  0
    3.8307    1.8472   -3.9034 N   0  0  0  0  0  0  0  0  0  0  0  0
    2.9391    1.2513   -3.0524 C   0  0  0  0  0  0  0  0  0  0  0  0
    1.6647    1.8344   -2.8360 C   0  0  0  0  0  0  0  0  0  0  0  0
    1.3570    3.0327   -3.5412 C   0  0  0  0  0  0  0  0  0  0  0  0
    0.2783    3.5819   -3.4096 O   0  0  0  0  0  0  0  0  0  0  0  0
    0.9743    0.9867   -1.8641 C   0  0  0  0  0  0  0  0  0  0  0  0
   -0.3861    1.2192   -1.2644 C   0  0  0  0  0  0  0  0  0  0  0  0
   -1.4124    1.0983   -2.3091 N   0  0  0  0  0  0  0  0  0  0  0  0
    1.8094   -0.0250   -1.5955 C   0  0  0  0  0  0  0  0  0  0  0  0
    2.9808    0.1297   -2.2884 N   0  0  0  0  0  0  0  0  0  0  0  0
    4.4428    3.5295   -5.4044 N   0  0  0  0  0  0  0  0  0  0  0  0
  1  6  1  0  0  0  0
  2  1  1  0  0  0  0
  2  3  2  0  0  0  0
  3  4  1  0  0  0  0
  4  5  2  0  0  0  0
  4 12  1  0  0  0  0
  5  8  1  0  0  0  0
  6  7  2  0  0  0  0
  6  5  1  0  0  0  0
  8 11  2  0  0  0  0
  8  9  1  0  0  0  0
 10  9  1  0  0  0  0
 12 11  1  0  0  0  0
 13  2  1  0  0  0  0
M  END
>  <CHROM.1>
66.76133653,91.89492621,1.84364299,1.95886674,-3.14485352,0.70000335,0.27860827
-0.62215995

>  <Name>
lig.pdb

>  <RI>
0

>  <Rbt.Current_Directory>
/home/itssahil/PROJECTS/Mol_Feturizer/New_Systems/rnas/2l1v

>  <Rbt.Executable>
rbdock ($Id: //depot/dev/client3/rdock/2013.1/src/exe/rbdock.cxx#4 $)

>  <Rbt.Library>
libRbt.so (2013.1, Build901 2013/11/27)

>  <Rbt.Parameter_File>
/export/apps/rDock/src/rDock_2013.1_src/data/scripts/dock_solv.prm

>  <Rbt.Receptor>
prm/pocket_docking_3.prm

>  <SCORE>
-64.2656

>  <SCORE.INTER>
-65.1701

>  <SCORE.INTER.CONST>
1

>  <SCORE.INTER.POLAR>
-6.71349

>  <SCORE.INTER.ROT>
2

>  <SCORE.INTER.SOLV>
18.6249

>  <SCORE.INTER.VDW>
-32.21

>  <SCORE.INTER.norm>
-5.01308

>  <SCORE.INTRA>
0.904509

>  <SCORE.INTRA.DIHEDRAL>
-0.0130807

>  <SCORE.INTRA.DIHEDRAL.0>
1.43995

>  <SCORE.INTRA.POLAR>
0.272593

>  <SCORE.INTRA.POLAR.0>
-0.272593

>  <SCORE.INTRA.REPUL>
0

>  <SCORE.INTRA.REPUL.0>
0

>  <SCORE.INTRA.SOLV>
-0.102334

>  <SCORE.INTRA.SOLV.lig_0>
-22.6728

>  <SCORE.INTRA.VDW>
0.0354015

>  <SCORE.INTRA.VDW.0>
-0.754459

>  <SCORE.INTRA.norm>
0.0695776

>  <SCORE.RESTR>
0

>  <SCORE.RESTR.CAVITY>
0

>  <SCORE.RESTR.norm>
0

>  <SCORE.SYSTEM>
0

>  <SCORE.SYSTEM.CONST>
0

>  <SCORE.SYSTEM.DIHEDRAL>
0

>  <SCORE.SYSTEM.SOLV>
0

>  <SCORE.SYSTEM.norm>
0

>  <SCORE.heavy>
13

>  <SCORE.norm>
-4.9435

>  <RMSD>
0.362

$$$$
lig.pdb
 OpenBabel11021811453D
libRbt.so/2013.1/901 2013/11/27
 13 14  0  0  0  0  0  0  0  0999 V2000
    2.2981    3.5505   -4.3824 N   0  0  0  0  0  0  0  0  0  0  0  0
    3.5294    2.9643   -4.5451 C   0  0  0  0  0  0  0  0  0  0  0  0
    3.8325    1.8503   -3.8876 N   0  0  0  0  0  0  0  0  0  0  0  0
    2.9387    1.2548   -3.0386 C   0  0  0  0  0  0  0  0  0  0  0  0
    1.6594    1.8319   -2.8347 C   0  0  0  0  0  0  0  0  0  0  0  0
    1.3496    3.0237   -3.5498 C   0  0  0  0  0  0  0  0  0  0  0  0
    0.2668    3.5675   -3.4291 O   0  0  0  0  0  0  0  0  0  0  0  0
    0.9674    0.9866   -1.8619 C   0  0  0  0  0  0  0  0  0  0  0  0
   -0.3983    1.2151   -1.2728 C   0  0  0  0  0  0  0  0  0  0  0  0
   -1.4150    1.1032   -2.3279 N   0  0  0  0  0  0  0  0  0  0  0  0
    1.8066   -0.0184   -1.5809 C   0  0  0  0  0  0  0  0  0  0  0  0
    2.9817    0.1386   -2.2670 N   0  0  0  0  0  0  0  0  0  0  0  0
    4.4450    3.5262   -5.3955 N   0  0  0  0  0  0  0  0  0  0  0  0
  1  6  1  0  0  0  0
  2  1  1  0  0  0  0
  2  3  2  0  0  0  0
  3  4  1  0  0  0  0
  4  5  2  0  0  0  0
  4 12  1  0  0  0  0
  5  8  1  0  0  0  0
  6  7  2  0  0  0  0
  6  5  1  0  0  0  0
  8 11  2  0  0  0  0
  8  9  1  0  0  0  0
 10  9  1  0  0  0  0
 12 11  1  0  0  0  0
 13  2  1  0  0  0  0
M  END
>  <CHROM.1>
65.83382596,-89.62209599,1.83965588,1.95748605,-3.14329017,0.69919557,0.27051395
-0.62955178

>  <Name>
lig.pdb

>  <RI>
0

>  <Rbt.Current_Directory>
/home/itssahil/PROJECTS/Mol_Feturizer/New_Systems/rnas/2l1v

>  <Rbt.Executable>
rbdock ($Id: //depot/dev/client3/rdock/2013.1/src/exe/rbdock.cxx#4 $)

>  <Rbt.Library>
libRbt.so (2013.1, Build901 2013/11/27)

>  <Rbt.Parameter_File>
/export/apps/rDock/src/rDock_2013.1_src/data/scripts/dock_solv.prm

>  <Rbt.Receptor>
prm/pocket_docking_3.prm

>  <SCORE>
-64.1394

>  <SCORE.INTER>
-65.1088

>  <SCORE.INTER.CONST>
1

>  <SCORE.INTER.POLAR>
-6.71376

>  <SCORE.INTER.ROT>
2

>  <SCORE.INTER.SOLV>
18.6205

>  <SCORE.INTER.VDW>
-32.1668

>  <SCORE.INTER.norm>
-5.00837

>  <SCORE.INTRA>
0.96941

>  <SCORE.INTRA.DIHEDRAL>
0.103564

>  <SCORE.INTRA.DIHEDRAL.0>
1.43995

>  <SCORE.INTRA.POLAR>
0.272593

>  <SCORE.INTRA.POLAR.0>
-0.272593

>  <SCORE.INTRA.REPUL>
0

>  <SCORE.INTRA.REPUL.0>
0

>  <SCORE.INTRA.SOLV>
-0.0962676

>  <SCORE.INTRA.SOLV.lig_0>
-22.6728

>  <SCORE.INTRA.VDW>
0.0389464

>  <SCORE.INTRA.VDW.0>
-0.754459

>  <SCORE.INTRA.norm>
0.07457

>  <SCORE.RESTR>
0

>  <SCORE.RESTR.CAVITY>
0

>  <SCORE.RESTR.norm>
0

>  <SCORE.SYSTEM>
0

>  <SCORE.SYSTEM.CONST>
0

>  <SCORE.SYSTEM.DIHEDRAL>
0

>  <SCORE.SYSTEM.SOLV>
0

>  <SCORE.SYSTEM.norm>
0

>  <SCORE.heavy>
13

>  <SCORE.norm>
-4.9338

>  <RMSD>
0.362

$$$$
lig.pdb
 OpenBabel11021811453D
libRbt.so/2013.1/901 2013/11/27
 13 14  0  0  0  0  0  0  0  0999 V2000
    2.2980    3.5633   -4.3790 N   0  0  0  0  0  0  0  0  0  0  0  0
    3.5300    2.9792   -4.5442 C   0  0  0  0  0  0  0  0  0  0  0  0
    3.8340    1.8624   -3.8920 N   0  0  0  0  0  0  0  0  0  0  0  0
    2.9406    1.2618   -3.0462 C   0  0  0  0  0  0  0  0  0  0  0  0
    1.6607    1.8367   -2.8397 C   0  0  0  0  0  0  0  0  0  0  0  0
    1.3498    3.0315   -3.5492 C   0  0  0  0  0  0  0  0  0  0  0  0
    0.2664    3.5736   -3.4262 O   0  0  0  0  0  0  0  0  0  0  0  0
    0.9693    0.9859   -1.8712 C   0  0  0  0  0  0  0  0  0  0  0  0
   -0.3968    1.2102   -1.2814 C   0  0  0  0  0  0  0  0  0  0  0  0
   -1.4125    1.1094   -2.3386 N   0  0  0  0  0  0  0  0  0  0  0  0
    1.8094   -0.0195   -1.5949 C   0  0  0  0  0  0  0  0  0  0  0  0
    2.9845    0.1420   -2.2798 N   0  0  0  0  0  0  0  0  0  0  0  0
    4.4451    3.5461   -5.3917 N   0  0  0  0  0  0  0  0  0  0  0  0
  1  6  1  0  0  0  0
  2  1  1  0  0  0  0
  2  3  2  0  0  0  0
  3  4  1  0  0  0  0
  4  5  2  0  0  0  0
  4 12  1  0  0  0  0
  5  8  1  0  0  0  0
  6  7  2  0  0  0  0
  6  5  1  0  0  0  0
  8 11  2  0  0  0  0
  8  9  1  0  0  0  0
 10  9  1  0  0  0  0
 12 11  1  0  0  0  0
 13  2  1  0  0  0  0
M  END
>  <CHROM.1>
65.53524696,-89.38073844,1.84091787,1.96455032,-3.14782033,0.69952372,0.26991987
-0.62512730

>  <Name>
lig.pdb

>  <RI>
4.02536e+07

>  <Rbt.Current_Directory>
/home/itssahil/PROJECTS/Mol_Feturizer/New_Systems/rnas/2l1v

>  <Rbt.Executable>
rbdock ($Id: //depot/dev/client3/rdock/2013.1/src/exe/rbdock.cxx#4 $)

>  <Rbt.Library>
libRbt.so (2013.1, Build901 2013/11/27)

>  <Rbt.Parameter_File>
/export/apps/rDock/src/rDock_2013.1_src/data/scripts/dock_solv.prm

>  <Rbt.Receptor>
prm/blind_docking_40.prm

>  <SCORE>
-64.1456

>  <SCORE.INTER>
-65.1131

>  <SCORE.INTER.CONST>
1

>  <SCORE.INTER.POLAR>
-6.72659

>  <SCORE.INTER.ROT>
2

>  <SCORE.INTER.SOLV>
18.6515

>  <SCORE.INTER.VDW>
-32.1373

>  <SCORE.INTER.norm>
-5.0087

>  <SCORE.INTRA>
0.967556

>  <SCORE.INTRA.DIHEDRAL>
0.099224

>  <SCORE.INTRA.DIHEDRAL.0>
1.43995

>  <SCORE.INTRA.POLAR>
0.272593

>  <SCORE.INTRA.POLAR.0>
-0.272593

>  <SCORE.INTRA.REPUL>
0

>  <SCORE.INTRA.REPUL.0>
0

>  <SCORE.INTRA.SOLV>
-0.0932854

>  <SCORE.INTRA.SOLV.lig_0>
-22.6728

>  <SCORE.INTRA.VDW>
0.0377717

>  <SCORE.INTRA.VDW.0>
-0.754459

>  <SCORE.INTRA.norm>
0.0744274

>  <SCORE.RESTR>
0

>  <SCORE.RESTR.CAVITY>
0

>  <SCORE.RESTR.norm>
0

>  <SCORE.SYSTEM>
0

>  <SCORE.SYSTEM.CONST>
0

>  <SCORE.SYSTEM.DIHEDRAL>
0

>  <SCORE.SYSTEM.SOLV>
0

>  <SCORE.SYSTEM.norm>
0

>  <SCORE.heavy>
13

>  <SCORE.norm>
-4.93428

>  <RMSD>
0.363

$$$$
lig.pdb
 OpenBabel11021811453D
libRbt.so/2013.1/901 2013/11/27
 13 14  0  0  0  0  0  0  0  0999 V2000
    2.3056    3.5609   -4.3762 N   0  0  0  0  0  0  0  0  0  0  0  0
    3.5351    2.9728   -4.5453 C   0  0  0  0  0  0  0  0  0  0  0  0
    3.8370    1.8541   -3.8953 N   0  0  0  0  0  0  0  0  0  0  0  0
    2.9436    1.2555   -3.0479 C   0  0  0  0  0  0  0  0  0  0  0  0
    1.6662    1.8345   -2.8375 C   0  0  0  0  0  0  0  0  0  0  0  0
    1.3577    3.0314   -3.5446 C   0  0  0  0  0  0  0  0  0  0  0  0
    0.2765    3.5770   -3.4181 O   0  0  0  0  0  0  0  0  0  0  0  0
    0.9744    0.9849   -1.8683 C   0  0  0  0  0  0  0  0  0  0  0  0
   -0.3894    1.2131   -1.2746 C   0  0  0  0  0  0  0  0  0  0  0  0
   -1.4092    1.1053   -2.3271 N   0  0  0  0  0  0  0  0  0  0  0  0
    1.8118   -0.0238   -1.5954 C   0  0  0  0  0  0  0  0  0  0  0  0
    2.9856    0.1345   -2.2832 N   0  0  0  0  0  0  0  0  0  0  0  0
    4.4500    3.5376   -5.3944 N   0  0  0  0  0  0  0  0  0  0  0  0
  1  6  1  0  0  0  0
  2  1  1  0  0  0  0
  2  3  2  0  0  0  0
  3  4  1  0  0  0  0
  4  5  2  0  0  0  0
  4 12  1  0  0  0  0
  5  8  1  0  0  0  0
  6  7  2  0  0  0  0
  6  5  1  0  0  0  0
  8 11  2  0  0  0  0
  8  9  1  0  0  0  0
 10  9  1  0  0  0  0
 12 11  1  0  0  0  0
 13  2  1  0  0  0  0
M  END
>  <CHROM.1>
66.03812106,-89.52572795,1.84602048,1.96105342,-3.14566937,0.69882203,0.27366864
-0.62313528

>  <Name>
lig.pdb

>  <RI>
4.02536e+07

>  <Rbt.Current_Directory>
/home/itssahil/PROJECTS/Mol_Feturizer/New_Systems/rnas/2l1v

>  <Rbt.Executable>
rbdock ($Id: //depot/dev/client3/rdock/2013.1/src/exe/rbdock.cxx#4 $)

>  <Rbt.Library>
libRbt.so (2013.1, Build901 2013/11/27)

>  <Rbt.Parameter_File>
/export/apps/rDock/src/rDock_2013.1_src/data/scripts/dock_solv.prm

>  <Rbt.Receptor>
prm/blind_docking_40.prm

>  <SCORE>
-64.1308

>  <SCORE.INTER>
-65.1014

>  <SCORE.INTER.CONST>
1

>  <SCORE.INTER.POLAR>
-6.72664

>  <SCORE.INTER.ROT>
2

>  <SCORE.INTER.SOLV>
18.6415

>  <SCORE.INTER.VDW>
-32.1259

>  <SCORE.INTER.norm>
-5.0078

>  <SCORE.INTRA>
0.970558

>  <SCORE.INTRA.DIHEDRAL>
0.106611

>  <SCORE.INTRA.DIHEDRAL.0>
1.43995

>  <SCORE.INTRA.POLAR>
0.272593

>  <SCORE.INTRA.POLAR.0>
-0.272593

>  <SCORE.INTRA.REPUL>
0

>  <SCORE.INTRA.REPUL.0>
0

>  <SCORE.INTRA.SOLV>
-0.0982043

>  <SCORE.INTRA.SOLV.lig_0>
-22.6728

>  <SCORE.INTRA.VDW>
0.0395401

>  <SCORE.INTRA.VDW.0>
-0.754459

>  <SCORE.INTRA.norm>
0.0746583

>  <SCORE.RESTR>
0

>  <SCORE.RESTR.CAVITY>
0

>  <SCORE.RESTR.norm>
0

>  <SCORE.SYSTEM>
0

>  <SCORE.SYSTEM.CONST>
0

>  <SCORE.SYSTEM.DIHEDRAL>
0

>  <SCORE.SYSTEM.SOLV>
0

>  <SCORE.SYSTEM.norm>
0

>  <SCORE.heavy>
13

>  <SCORE.norm>
-4.93314

>  <RMSD>
0.363

$$$$
lig.pdb
 OpenBabel11021811453D
libRbt.so/2013.1/901 2013/11/27
 13 14  0  0  0  0  0  0  0  0999 V2000
    2.3049    3.5421   -4.3726 N   0  0  0  0  0  0  0  0  0  0  0  0
    3.5345    2.9532   -4.5383 C   0  0  0  0  0  0  0  0  0  0  0  0
    3.8359    1.8373   -3.8833 N   0  0  0  0  0  0  0  0  0  0  0  0
    2.9420    1.2425   -3.0339 C   0  0  0  0  0  0  0  0  0  0  0  0
    1.6645    1.8224   -2.8268 C   0  0  0  0  0  0  0  0  0  0  0  0
    1.3565    3.0162   -3.5393 C   0  0  0  0  0  0  0  0  0  0  0  0
    0.2752    3.5625   -3.4158 O   0  0  0  0  0  0  0  0  0  0  0  0
    0.9721    0.9771   -1.8543 C   0  0  0  0  0  0  0  0  0  0  0  0
   -0.3921    1.2080   -1.2625 C   0  0  0  0  0  0  0  0  0  0  0  0
   -1.4108    1.1007   -2.3162 N   0  0  0  0  0  0  0  0  0  0  0  0
    1.8092   -0.0305   -1.5766 C   0  0  0  0  0  0  0  0  0  0  0  0
    2.9835    0.1248   -2.2643 N   0  0  0  0  0  0  0  0  0  0  0  0
    4.4500    3.5143   -5.3893 N   0  0  0  0  0  0  0  0  0  0  0  0
  1  6  1  0  0  0  0
  2  1  1  0  0  0  0
  2  3  2  0  0  0  0
  3  4  1  0  0  0  0
  4  5  2  0  0  0  0
  4 12  1  0  0  0  0
  5  8  1  0  0  0  0
  6  7  2  0  0  0  0
  6  5  1  0  0  0  0
  8 11  2  0  0  0  0
  8  9  1  0  0  0  0
 10  9  1  0  0  0  0
 12 11  1  0  0  0  0
 13  2  1  0  0  0  0
M  END
>  <CHROM.1>
65.82334209,-89.75452296,1.84455405,1.94810417,-3.13549899,0.69810670,0.27334867
-0.62750040

>  <Name>
lig.pdb

>  <RI>
1.77584e+07

>  <Rbt.Current_Directory>
/home/itssahil/PROJECTS/Mol_Feturizer/New_Systems/rnas/2l1v

>  <Rbt.Executable>
rbdock ($Id: //depot/dev/client3/rdock/2013.1/src/exe/rbdock.cxx#4 $)

>  <Rbt.Library>
libRbt.so (2013.1, Build901 2013/11/27)

>  <Rbt.Parameter_File>
/export/apps/rDock/src/rDock_2013.1_src/data/scripts/dock_solv.prm

>  <Rbt.Receptor>
prm/blind_docking_80.prm

>  <SCORE>
-64.1378

>  <SCORE.INTER>
-65.1072

>  <SCORE.INTER.CONST>
1

>  <SCORE.INTER.POLAR>
-6.71979

>  <SCORE.INTER.ROT>
2

>  <SCORE.INTER.SOLV>
18.5819

>  <SCORE.INTER.VDW>
-32.1328

>  <SCORE.INTER.norm>
-5.00825

>  <SCORE.INTRA>
0.96945

>  <SCORE.INTRA.DIHEDRAL>
0.103442

>  <SCORE.INTRA.DIHEDRAL.0>
1.43995

>  <SCORE.INTRA.POLAR>
0.272593

>  <SCORE.INTRA.POLAR.0>
-0.272593

>  <SCORE.INTRA.REPUL>
0

>  <SCORE.INTRA.REPUL.0>
0

>  <SCORE.INTRA.SOLV>
-0.0962206

>  <SCORE.INTRA.SOLV.lig_0>
-22.6728

>  <SCORE.INTRA.VDW>
0.0390244

>  <SCORE.INTRA.VDW.0>
-0.754459

>  <SCORE.INTRA.norm>
0.0745731

>  <SCORE.RESTR>
0

>  <SCORE.RESTR.CAVITY>
0

>  <SCORE.RESTR.norm>
0

>  <SCORE.SYSTEM>
0

>  <SCORE.SYSTEM.CONST>
0

>  <SCORE.SYSTEM.DIHEDRAL>
0

>  <SCORE.SYSTEM.SOLV>
0

>  <SCORE.SYSTEM.norm>
0

>  <SCORE.heavy>
13

>  <SCORE.norm>
-4.93367

>  <RMSD>
0.363

$$$$
lig.pdb
 OpenBabel11021811453D
libRbt.so/2013.1/901 2013/11/27
 13 14  0  0  0  0  0  0  0  0999 V2000
    2.2978    3.5480   -4.3776 N   0  0  0  0  0  0  0  0  0  0  0  0
    3.5300    2.9631   -4.5385 C   0  0  0  0  0  0  0  0  0  0  0  0
    3.8329    1.8490   -3.8813 N   0  0  0  0  0  0  0  0  0  0  0  0
    2.9381    1.2520   -3.0343 C   0  0  0  0  0  0  0  0  0  0  0  0
    1.6580    1.8278   -2.8322 C   0  0  0  0  0  0  0  0  0  0  0  0
    1.3483    3.0198   -3.5471 C   0  0  0  0  0  0  0  0  0  0  0  0
    0.2648    3.5624   -3.4279 O   0  0  0  0  0  0  0  0  0  0  0  0
    0.9651    0.9811   -1.8612 C   0  0  0  0  0  0  0  0  0  0  0  0
   -0.4019    1.2080   -1.2743 C   0  0  0  0  0  0  0  0  0  0  0  0
   -1.4156    1.1076   -2.3335 N   0  0  0  0  0  0  0  0  0  0  0  0
    1.8047   -0.0232   -1.5795 C   0  0  0  0  0  0  0  0  0  0  0  0
    2.9808    0.1353   -2.2633 N   0  0  0  0  0  0  0  0  0  0  0  0
    4.4464    3.5264   -5.3870 N   0  0  0  0  0  0  0  0  0  0  0  0
  1  6  1  0  0  0  0
  2  1  1  0  0  0  0
  2  3  2  0  0  0  0
  3  4  1  0  0  0  0
  4  5  2  0  0  0  0
  4 12  1  0  0  0  0
  5  8  1  0  0  0  0
  6  7  2  0  0  0  0
  6  5  1  0  0  0  0
  8 11  2  0  0  0  0
  8  9  1  0  0  0  0
 10  9  1  0  0  0  0
 12 11  1  0  0  0  0
 13  2  1  0  0  0  0
M  END
>  <CHROM.1>
65.33691783,-89.48946582,1.83874967,1.95484112,-3.14061112,0.69825944,0.26891411
-0.62911578

>  <Name>
lig.pdb

>  <RI>
1.459e+07

>  <Rbt.Current_Directory>
/home/itssahil/PROJECTS/Mol_Feturizer/New_Systems/rnas/2l1v

>  <Rbt.Executable>
rbdock ($Id: //depot/dev/client3/rdock/2013.1/src/exe/rbdock.cxx#4 $)

>  <Rbt.Library>
libRbt.so (2013.1, Build901 2013/11/27)

>  <Rbt.Parameter_File>
/export/apps/rDock/src/rDock_2013.1_src/data/scripts/dock_solv.prm

>  <Rbt.Receptor>
prm/pocket_docking_2.prm

>  <SCORE>
-64.1462

>  <SCORE.INTER>
-65.1128

>  <SCORE.INTER.CONST>
1

>  <SCORE.INTER.POLAR>
-6.72213

>  <SCORE.INTER.ROT>
2

>  <SCORE.INTER.SOLV>
18.6099

>  <SCORE.INTER.VDW>
-32.1381

>  <SCORE.INTER.norm>
-5.00868

>  <SCORE.INTRA>
0.966619

>  <SCORE.INTRA.DIHEDRAL>
0.0965625

>  <SCORE.INTRA.DIHEDRAL.0>
1.43995

>  <SCORE.INTRA.POLAR>
0.272593

>  <SCORE.INTRA.POLAR.0>
-0.272593

>  <SCORE.INTRA.REPUL>
0

>  <SCORE.INTRA.REPUL.0>
0

>  <SCORE.INTRA.SOLV>
-0.091417

>  <SCORE.INTRA.SOLV.lig_0>
-22.6728

>  <SCORE.INTRA.VDW>
0.0372313

>  <SCORE.INTRA.VDW.0>
-0.754459

>  <SCORE.INTRA.norm>
0.0743553

>  <SCORE.RESTR>
0

>  <SCORE.RESTR.CAVITY>
0

>  <SCORE.RESTR.norm>
0

>  <SCORE.SYSTEM>
0

>  <SCORE.SYSTEM.CONST>
0

>  <SCORE.SYSTEM.DIHEDRAL>
0

>  <SCORE.SYSTEM.SOLV>
0

>  <SCORE.SYSTEM.norm>
0

>  <SCORE.heavy>
13

>  <SCORE.norm>
-4.93432

>  <RMSD>
0.363

$$$$
lig.pdb
 OpenBabel11021811453D
libRbt.so/2013.1/901 2013/11/27
 13 14  0  0  0  0  0  0  0  0999 V2000
    2.3003    3.5378   -4.3733 N   0  0  0  0  0  0  0  0  0  0  0  0
    3.5260    2.9421   -4.5430 C   0  0  0  0  0  0  0  0  0  0  0  0
    3.8233    1.8245   -3.8890 N   0  0  0  0  0  0  0  0  0  0  0  0
    2.9289    1.2347   -3.0367 C   0  0  0  0  0  0  0  0  0  0  0  0
    1.6553    1.8217   -2.8255 C   0  0  0  0  0  0  0  0  0  0  0  0
    1.3516    3.0171   -3.5370 C   0  0  0  0  0  0  0  0  0  0  0  0
    0.2738    3.5694   -3.4100 O   0  0  0  0  0  0  0  0  0  0  0  0
    0.9613    0.9801   -1.8508 C   0  0  0  0  0  0  0  0  0  0  0  0
   -0.3996    1.2186   -1.2546 C   0  0  0  0  0  0  0  0  0  0  0  0
   -1.4237    1.1011   -2.3019 N   0  0  0  0  0  0  0  0  0  0  0  0
    1.7937   -0.0320   -1.5757 C   0  0  0  0  0  0  0  0  0  0  0  0
    2.9667    0.1167   -2.2672 N   0  0  0  0  0  0  0  0  0  0  0  0
    4.4418    3.4981   -5.3970 N   0  0  0  0  0  0  0  0  0  0  0  0
  1  6  1  0  0  0  0
  2  1  1  0  0  0  0
  2  3  2  0  0  0  0
  3  4  1  0  0  0  0
  4  5  2  0  0  0  0
  4 12  1  0  0  0  0
  5  8  1  0  0  0  0
  6  7  2  0  0  0  0
  6  5  1  0  0  0  0
  8 11  2  0  0  0  0
  8  9  1  0  0  0  0
 10  9  1  0  0  0  0
 12 11  1  0  0  0  0
 13  2  1  0  0  0  0
M  END
>  <CHROM.1>
66.49719088,91.48994702,1.83517542,1.94478267,-3.13471048,0.69668853,0.27862511
-0.62635804

>  <Name>
lig.pdb

>  <RI>
1.459e+07

>  <Rbt.Current_Directory>
/home/itssahil/PROJECTS/Mol_Feturizer/New_Systems/rnas/2l1v

>  <Rbt.Executable>
rbdock ($Id: //depot/dev/client3/rdock/2013.1/src/exe/rbdock.cxx#4 $)

>  <Rbt.Library>
libRbt.so (2013.1, Build901 2013/11/27)

>  <Rbt.Parameter_File>
/export/apps/rDock/src/rDock_2013.1_src/data/scripts/dock_solv.prm

>  <Rbt.Receptor>
prm/pocket_docking_2.prm

>  <SCORE>
-64.2873

>  <SCORE.INTER>
-65.1901

>  <SCORE.INTER.CONST>
1

>  <SCORE.INTER.POLAR>
-6.70439

>  <SCORE.INTER.ROT>
2

>  <SCORE.INTER.SOLV>
18.5857

>  <SCORE.INTER.VDW>
-32.2407

>  <SCORE.INTER.norm>
-5.01462

>  <SCORE.INTRA>
0.902763

>  <SCORE.INTRA.DIHEDRAL>
-0.0177849

>  <SCORE.INTRA.DIHEDRAL.0>
1.43995

>  <SCORE.INTRA.POLAR>
0.272593

>  <SCORE.INTRA.POLAR.0>
-0.272593

>  <SCORE.INTRA.REPUL>
0

>  <SCORE.INTRA.REPUL.0>
0

>  <SCORE.INTRA.SOLV>
-0.0998903

>  <SCORE.INTRA.SOLV.lig_0>
-22.6728

>  <SCORE.INTRA.VDW>
0.0347856

>  <SCORE.INTRA.VDW.0>
-0.754459

>  <SCORE.INTRA.norm>
0.0694433

>  <SCORE.RESTR>
0

>  <SCORE.RESTR.CAVITY>
0

>  <SCORE.RESTR.norm>
0

>  <SCORE.SYSTEM>
0

>  <SCORE.SYSTEM.CONST>
0

>  <SCORE.SYSTEM.DIHEDRAL>
0

>  <SCORE.SYSTEM.SOLV>
0

>  <SCORE.SYSTEM.norm>
0

>  <SCORE.heavy>
13

>  <SCORE.norm>
-4.94518

>  <RMSD>
0.363

$$$$
lig.pdb
 OpenBabel11021811453D
libRbt.so/2013.1/901 2013/11/27
 13 14  0  0  0  0  0  0  0  0999 V2000
    2.2987    3.5351   -4.3773 N   0  0  0  0  0  0  0  0  0  0  0  0
    3.5285    2.9453   -4.5386 C   0  0  0  0  0  0  0  0  0  0  0  0
    3.8288    1.8324   -3.8781 N   0  0  0  0  0  0  0  0  0  0  0  0
    2.9336    1.2415   -3.0273 C   0  0  0  0  0  0  0  0  0  0  0  0
    1.6559    1.8225   -2.8247 C   0  0  0  0  0  0  0  0  0  0  0  0
    1.3490    3.0131   -3.5430 C   0  0  0  0  0  0  0  0  0  0  0  0
    0.2676    3.5600   -3.4236 O   0  0  0  0  0  0  0  0  0  0  0  0
    0.9620    0.9817   -1.8494 C   0  0  0  0  0  0  0  0  0  0  0  0
   -0.4030    1.2154   -1.2606 C   0  0  0  0  0  0  0  0  0  0  0  0
   -1.4207    1.0976   -2.3141 N   0  0  0  0  0  0  0  0  0  0  0  0
    1.7985   -0.0247   -1.5659 C   0  0  0  0  0  0  0  0  0  0  0  0
    2.9739    0.1273   -2.2526 N   0  0  0  0  0  0  0  0  0  0  0  0
    4.4452    3.5025   -5.3908 N   0  0  0  0  0  0  0  0  0  0  0  0
  1  6  1  0  0  0  0
  2  1  1  0  0  0  0
  2  3  2  0  0  0  0
  3  4  1  0  0  0  0
  4  5  2  0  0  0  0
  4 12  1  0  0  0  0
  5  8  1  0  0  0  0
  6  7  2  0  0  0  0
  6  5  1  0  0  0  0
  8 11  2  0  0  0  0
  8  9  1  0  0  0  0
 10  9  1  0  0  0  0
 12 11  1  0  0  0  0
 13  2  1  0  0  0  0
M  END
>  <CHROM.1>
66.07052130,92.11401281,1.83659761,1.94616991,-3.13380926,0.69787682,0.27193947
-0.63167360

>  <Name>
lig.pdb

>  <RI>
1.459e+07

>  <Rbt.Current_Directory>
/home/itssahil/PROJECTS/Mol_Feturizer/New_Systems/rnas/2l1v

>  <Rbt.Executable>
rbdock ($Id: //depot/dev/client3/rdock/2013.1/src/exe/rbdock.cxx#4 $)

>  <Rbt.Library>
libRbt.so (2013.1, Build901 2013/11/27)

>  <Rbt.Parameter_File>
/export/apps/rDock/src/rDock_2013.1_src/data/scripts/dock_solv.prm

>  <Rbt.Receptor>
prm/pocket_docking_2.prm

>  <SCORE>
-64.2633

>  <SCORE.INTER>
-65.1631

>  <SCORE.INTER.CONST>
1

>  <SCORE.INTER.POLAR>
-6.71326

>  <SCORE.INTER.ROT>
2

>  <SCORE.INTER.SOLV>
18.556

>  <SCORE.INTER.VDW>
-32.1832

>  <SCORE.INTER.norm>
-5.01254

>  <SCORE.INTRA>
0.899723

>  <SCORE.INTRA.DIHEDRAL>
-0.0243099

>  <SCORE.INTRA.DIHEDRAL.0>
1.43995

>  <SCORE.INTRA.POLAR>
0.272593

>  <SCORE.INTRA.POLAR.0>
-0.272593

>  <SCORE.INTRA.REPUL>
0

>  <SCORE.INTRA.REPUL.0>
0

>  <SCORE.INTRA.SOLV>
-0.0955353

>  <SCORE.INTRA.SOLV.lig_0>
-22.6728

>  <SCORE.INTRA.VDW>
0.0328308

>  <SCORE.INTRA.VDW.0>
-0.754459

>  <SCORE.INTRA.norm>
0.0692095

>  <SCORE.RESTR>
0

>  <SCORE.RESTR.CAVITY>
0

>  <SCORE.RESTR.norm>
0

>  <SCORE.SYSTEM>
0

>  <SCORE.SYSTEM.CONST>
0

>  <SCORE.SYSTEM.DIHEDRAL>
0

>  <SCORE.SYSTEM.SOLV>
0

>  <SCORE.SYSTEM.norm>
0

>  <SCORE.heavy>
13

>  <SCORE.norm>
-4.94333

>  <RMSD>
0.363

$$$$
lig.pdb
 OpenBabel11021811453D
libRbt.so/2013.1/901 2013/11/27
 13 14  0  0  0  0  0  0  0  0999 V2000
    2.3001    3.5526   -4.3776 N   0  0  0  0  0  0  0  0  0  0  0  0
    3.5321    2.9679   -4.5401 C   0  0  0  0  0  0  0  0  0  0  0  0
    3.8358    1.8534   -3.8840 N   0  0  0  0  0  0  0  0  0  0  0  0
    2.9419    1.2557   -3.0366 C   0  0  0  0  0  0  0  0  0  0  0  0
    1.6619    1.8312   -2.8329 C   0  0  0  0  0  0  0  0  0  0  0  0
    1.3514    3.0236   -3.5466 C   0  0  0  0  0  0  0  0  0  0  0  0
    0.2679    3.5661   -3.4260 O   0  0  0  0  0  0  0  0  0  0  0  0
    0.9700    0.9837   -1.8619 C   0  0  0  0  0  0  0  0  0  0  0  0
   -0.3965    1.2099   -1.2736 C   0  0  0  0  0  0  0  0  0  0  0  0
   -1.4122    1.0984   -2.3297 N   0  0  0  0  0  0  0  0  0  0  0  0
    1.8099   -0.0208   -1.5817 C   0  0  0  0  0  0  0  0  0  0  0  0
    2.9854    0.1384   -2.2665 N   0  0  0  0  0  0  0  0  0  0  0  0
    4.4477    3.5320   -5.3890 N   0  0  0  0  0  0  0  0  0  0  0  0
  1  6  1  0  0  0  0
  2  1  1  0  0  0  0
  2  3  2  0  0  0  0
  3  4  1  0  0  0  0
  4  5  2  0  0  0  0
  4 12  1  0  0  0  0
  5  8  1  0  0  0  0
  6  7  2  0  0  0  0
  6  5  1  0  0  0  0
  8 11  2  0  0  0  0
  8  9  1  0  0  0  0
 10  9  1  0  0  0  0
 12 11  1  0  0  0  0
 13  2  1  0  0  0  0
M  END
>  <CHROM.1>
65.83823907,-89.41044031,1.84221456,1.95733559,-3.14118994,0.69958009,0.26921972
-0.62822070

>  <Name>
lig.pdb

>  <RI>
0

>  <Rbt.Current_Directory>
/home/itssahil/PROJECTS/Mol_Feturizer/New_Systems/rnas/2l1v

>  <Rbt.Executable>
rbdock ($Id: //depot/dev/client3/rdock/2013.1/src/exe/rbdock.cxx#4 $)

>  <Rbt.Library>
libRbt.so (2013.1, Build901 2013/11/27)

>  <Rbt.Parameter_File>
/export/apps/rDock/src/rDock_2013.1_src/data/scripts/dock_solv.prm

>  <Rbt.Receptor>
prm/pocket_docking_3.prm

>  <SCORE>
-64.1252

>  <SCORE.INTER>
-65.0944

>  <SCORE.INTER.CONST>
1

>  <SCORE.INTER.POLAR>
-6.72664

>  <SCORE.INTER.ROT>
2

>  <SCORE.INTER.SOLV>
18.6074

>  <SCORE.INTER.VDW>
-32.11

>  <SCORE.INTER.norm>
-5.00726

>  <SCORE.INTRA>
0.96927

>  <SCORE.INTRA.DIHEDRAL>
0.10357

>  <SCORE.INTRA.DIHEDRAL.0>
1.43995

>  <SCORE.INTRA.POLAR>
0.272593

>  <SCORE.INTRA.POLAR.0>
-0.272593

>  <SCORE.INTRA.REPUL>
0

>  <SCORE.INTRA.REPUL.0>
0

>  <SCORE.INTRA.SOLV>
-0.0962243

>  <SCORE.INTRA.SOLV.lig_0>
-22.6728

>  <SCORE.INTRA.VDW>
0.038782

>  <SCORE.INTRA.VDW.0>
-0.754459

>  <SCORE.INTRA.norm>
0.0745592

>  <SCORE.RESTR>
0

>  <SCORE.RESTR.CAVITY>
0

>  <SCORE.RESTR.norm>
0

>  <SCORE.SYSTEM>
0

>  <SCORE.SYSTEM.CONST>
0

>  <SCORE.SYSTEM.DIHEDRAL>
0

>  <SCORE.SYSTEM.SOLV>
0

>  <SCORE.SYSTEM.norm>
0

>  <SCORE.heavy>
13

>  <SCORE.norm>
-4.93271

>  <RMSD>
0.363

$$$$
lig.pdb
 OpenBabel11021811453D
libRbt.so/2013.1/901 2013/11/27
 13 14  0  0  0  0  0  0  0  0999 V2000
    2.2962    3.5390   -4.3762 N   0  0  0  0  0  0  0  0  0  0  0  0
    3.5283    2.9529   -4.5328 C   0  0  0  0  0  0  0  0  0  0  0  0
    3.8290    1.8401   -3.8722 N   0  0  0  0  0  0  0  0  0  0  0  0
    2.9317    1.2458   -3.0259 C   0  0  0  0  0  0  0  0  0  0  0  0
    1.6515    1.8229   -2.8283 C   0  0  0  0  0  0  0  0  0  0  0  0
    1.3444    3.0134   -3.5467 C   0  0  0  0  0  0  0  0  0  0  0  0
    0.2610    3.5571   -3.4314 O   0  0  0  0  0  0  0  0  0  0  0  0
    0.9557    0.9791   -1.8569 C   0  0  0  0  0  0  0  0  0  0  0  0
   -0.4125    1.2083   -1.2739 C   0  0  0  0  0  0  0  0  0  0  0  0
   -1.4238    1.1052   -2.3351 N   0  0  0  0  0  0  0  0  0  0  0  0
    1.7939   -0.0252   -1.5708 C   0  0  0  0  0  0  0  0  0  0  0  0
    2.9718    0.1309   -2.2522 N   0  0  0  0  0  0  0  0  0  0  0  0
    4.4472    3.5136   -5.3804 N   0  0  0  0  0  0  0  0  0  0  0  0
  1  6  1  0  0  0  0
  2  1  1  0  0  0  0
  2  3  2  0  0  0  0
  3  4  1  0  0  0  0
  4  5  2  0  0  0  0
  4 12  1  0  0  0  0
  5  8  1  0  0  0  0
  6  7  2  0  0  0  0
  6  5  1  0  0  0  0
  8 11  2  0  0  0  0
  8  9  1  0  0  0  0
 10  9  1  0  0  0  0
 12 11  1  0  0  0  0
 13  2  1  0  0  0  0
M  END
>  <CHROM.1>
65.37467125,-89.73645316,1.83307206,1.94903672,-3.13653333,0.69625753,0.26736291
-0.63092365

>  <Name>
lig.pdb

>  <RI>
4.02536e+07

>  <Rbt.Current_Directory>
/home/itssahil/PROJECTS/Mol_Feturizer/New_Systems/rnas/2l1v

>  <Rbt.Executable>
rbdock ($Id: //depot/dev/client3/rdock/2013.1/src/exe/rbdock.cxx#4 $)

>  <Rbt.Library>
libRbt.so (2013.1, Build901 2013/11/27)

>  <Rbt.Parameter_File>
/export/apps/rDock/src/rDock_2013.1_src/data/scripts/dock_solv.prm

>  <Rbt.Receptor>
prm/blind_docking_40.prm

>  <SCORE>
-64.1286

>  <SCORE.INTER>
-65.0956

>  <SCORE.INTER.CONST>
1

>  <SCORE.INTER.POLAR>
-6.71871

>  <SCORE.INTER.ROT>
2

>  <SCORE.INTER.SOLV>
18.5977

>  <SCORE.INTER.VDW>
-32.1339

>  <SCORE.INTER.norm>
-5.00736

>  <SCORE.INTRA>
0.967001

>  <SCORE.INTRA.DIHEDRAL>
0.097131

>  <SCORE.INTRA.DIHEDRAL.0>
1.43995

>  <SCORE.INTRA.POLAR>
0.272593

>  <SCORE.INTRA.POLAR.0>
-0.272593

>  <SCORE.INTRA.REPUL>
0

>  <SCORE.INTRA.REPUL.0>
0

>  <SCORE.INTRA.SOLV>
-0.0918832

>  <SCORE.INTRA.SOLV.lig_0>
-22.6728

>  <SCORE.INTRA.VDW>
0.0375625

>  <SCORE.INTRA.VDW.0>
-0.754459

>  <SCORE.INTRA.norm>
0.0743847

>  <SCORE.RESTR>
0

>  <SCORE.RESTR.CAVITY>
0

>  <SCORE.RESTR.norm>
0

>  <SCORE.SYSTEM>
0

>  <SCORE.SYSTEM.CONST>
0

>  <SCORE.SYSTEM.DIHEDRAL>
0

>  <SCORE.SYSTEM.SOLV>
0

>  <SCORE.SYSTEM.norm>
0

>  <SCORE.heavy>
13

>  <SCORE.norm>
-4.93297

>  <RMSD>
0.364

$$$$
lig.pdb
 OpenBabel11021811453D
libRbt.so/2013.1/901 2013/11/27
 13 14  0  0  0  0  0  0  0  0999 V2000
    2.2980    3.5386   -4.3718 N   0  0  0  0  0  0  0  0  0  0  0  0
    3.5254    2.9452   -4.5378 C   0  0  0  0  0  0  0  0  0  0  0  0
    3.8230    1.8284   -3.8826 N   0  0  0  0  0  0  0  0  0  0  0  0
    2.9272    1.2371   -3.0327 C   0  0  0  0  0  0  0  0  0  0  0  0
    1.6519    1.8217   -2.8253 C   0  0  0  0  0  0  0  0  0  0  0  0
    1.3479    3.0164   -3.5381 C   0  0  0  0  0  0  0  0  0  0  0  0
    0.2687    3.5666   -3.4144 O   0  0  0  0  0  0  0  0  0  0  0  0
    0.9567    0.9791   -1.8524 C   0  0  0  0  0  0  0  0  0  0  0  0
   -0.4064    1.2151   -1.2603 C   0  0  0  0  0  0  0  0  0  0  0  0
   -1.4270    1.0986   -2.3112 N   0  0  0  0  0  0  0  0  0  0  0  0
    1.7902   -0.0314   -1.5747 C   0  0  0  0  0  0  0  0  0  0  0  0
    2.9649    0.1195   -2.2628 N   0  0  0  0  0  0  0  0  0  0  0  0
    4.4426    3.5028   -5.3892 N   0  0  0  0  0  0  0  0  0  0  0  0
  1  6  1  0  0  0  0
  2  1  1  0  0  0  0
  2  3  2  0  0  0  0
  3  4  1  0  0  0  0
  4  5  2  0  0  0  0
  4 12  1  0  0  0  0
  5  8  1  0  0  0  0
  6  7  2  0  0  0  0
  6  5  1  0  0  0  0
  8 11  2  0  0  0  0
  8  9  1  0  0  0  0
 10  9  1  0  0  0  0
 12 11  1  0  0  0  0
 13  2  1  0  0  0  0
M  END
>  <CHROM.1>
66.35517025,91.83293220,1.83242727,1.94538373,-3.13414838,0.69636679,0.27521607
-0.62671747

>  <Name>
lig.pdb

>  <RI>
4.02536e+07

>  <Rbt.Current_Directory>
/home/itssahil/PROJECTS/Mol_Feturizer/New_Systems/rnas/2l1v

>  <Rbt.Executable>
rbdock ($Id: //depot/dev/client3/rdock/2013.1/src/exe/rbdock.cxx#4 $)

>  <Rbt.Library>
libRbt.so (2013.1, Build901 2013/11/27)

>  <Rbt.Parameter_File>
/export/apps/rDock/src/rDock_2013.1_src/data/scripts/dock_solv.prm

>  <Rbt.Receptor>
prm/blind_docking_40.prm

>  <SCORE>
-64.2978

>  <SCORE.INTER>
-65.1994

>  <SCORE.INTER.CONST>
1

>  <SCORE.INTER.POLAR>
-6.7073

>  <SCORE.INTER.ROT>
2

>  <SCORE.INTER.SOLV>
18.5834

>  <SCORE.INTER.VDW>
-32.2364

>  <SCORE.INTER.norm>
-5.01534

>  <SCORE.INTRA>
0.901666

>  <SCORE.INTRA.DIHEDRAL>
-0.019954

>  <SCORE.INTRA.DIHEDRAL.0>
1.43995

>  <SCORE.INTRA.POLAR>
0.272593

>  <SCORE.INTRA.POLAR.0>
-0.272593

>  <SCORE.INTRA.REPUL>
0

>  <SCORE.INTRA.REPUL.0>
0

>  <SCORE.INTRA.SOLV>
-0.0983953

>  <SCORE.INTRA.SOLV.lig_0>
-22.6728

>  <SCORE.INTRA.VDW>
0.0340255

>  <SCORE.INTRA.VDW.0>
-0.754459

>  <SCORE.INTRA.norm>
0.0693589

>  <SCORE.RESTR>
0

>  <SCORE.RESTR.CAVITY>
0

>  <SCORE.RESTR.norm>
0

>  <SCORE.SYSTEM>
0

>  <SCORE.SYSTEM.CONST>
0

>  <SCORE.SYSTEM.DIHEDRAL>
0

>  <SCORE.SYSTEM.SOLV>
0

>  <SCORE.SYSTEM.norm>
0

>  <SCORE.heavy>
13

>  <SCORE.norm>
-4.94598

>  <RMSD>
0.364

$$$$
lig.pdb
 OpenBabel11021811453D
libRbt.so/2013.1/901 2013/11/27
 13 14  0  0  0  0  0  0  0  0999 V2000
    2.2980    3.5634   -4.3817 N   0  0  0  0  0  0  0  0  0  0  0  0
    3.5278    2.9755   -4.5493 C   0  0  0  0  0  0  0  0  0  0  0  0
    3.8300    1.8582   -3.8970 N   0  0  0  0  0  0  0  0  0  0  0  0
    2.9367    1.2609   -3.0487 C   0  0  0  0  0  0  0  0  0  0  0  0
    1.6590    1.8397   -2.8398 C   0  0  0  0  0  0  0  0  0  0  0  0
    1.3501    3.0350   -3.5494 C   0  0  0  0  0  0  0  0  0  0  0  0
    0.2686    3.5804   -3.4243 O   0  0  0  0  0  0  0  0  0  0  0  0
    0.9672    0.9917   -1.8691 C   0  0  0  0  0  0  0  0  0  0  0  0
   -0.3968    1.2204   -1.2764 C   0  0  0  0  0  0  0  0  0  0  0  0
   -1.4168    1.1035   -2.3278 N   0  0  0  0  0  0  0  0  0  0  0  0
    1.8050   -0.0161   -1.5941 C   0  0  0  0  0  0  0  0  0  0  0  0
    2.9790    0.1414   -2.2818 N   0  0  0  0  0  0  0  0  0  0  0  0
    4.4427    3.5391   -5.3992 N   0  0  0  0  0  0  0  0  0  0  0  0
  1  6  1  0  0  0  0
  2  1  1  0  0  0  0
  2  3  2  0  0  0  0
  3  4  1  0  0  0  0
  4  5  2  0  0  0  0
  4 12  1  0  0  0  0
  5  8  1  0  0  0  0
  6  7  2  0  0  0  0
  6  5  1  0  0  0  0
  8 11  2  0  0  0  0
  8  9  1  0  0  0  0
 10  9  1  0  0  0  0
 12 11  1  0  0  0  0
 13  2  1  0  0  0  0
M  END
>  <CHROM.1>
66.31341413,-89.63999041,1.83873200,1.96512565,-3.14807810,0.69938848,0.27293100
-0.62497819

>  <Name>
lig.pdb

>  <RI>
4.02536e+07

>  <Rbt.Current_Directory>
/home/itssahil/PROJECTS/Mol_Feturizer/New_Systems/rnas/2l1v

>  <Rbt.Executable>
rbdock ($Id: //depot/dev/client3/rdock/2013.1/src/exe/rbdock.cxx#4 $)

>  <Rbt.Library>
libRbt.so (2013.1, Build901 2013/11/27)

>  <Rbt.Parameter_File>
/export/apps/rDock/src/rDock_2013.1_src/data/scripts/dock_solv.prm

>  <Rbt.Receptor>
prm/blind_docking_40.prm

>  <SCORE>
-64.1297

>  <SCORE.INTER>
-65.1021

>  <SCORE.INTER.CONST>
1

>  <SCORE.INTER.POLAR>
-6.70663

>  <SCORE.INTER.ROT>
2

>  <SCORE.INTER.SOLV>
18.6623

>  <SCORE.INTER.VDW>
-32.2001

>  <SCORE.INTER.norm>
-5.00785

>  <SCORE.INTRA>
0.972404

>  <SCORE.INTRA.DIHEDRAL>
0.110973

>  <SCORE.INTRA.DIHEDRAL.0>
1.43995

>  <SCORE.INTRA.POLAR>
0.272593

>  <SCORE.INTRA.POLAR.0>
-0.272593

>  <SCORE.INTRA.REPUL>
0

>  <SCORE.INTRA.REPUL.0>
0

>  <SCORE.INTRA.SOLV>
-0.100916

>  <SCORE.INTRA.SOLV.lig_0>
-22.6728

>  <SCORE.INTRA.VDW>
0.0405601

>  <SCORE.INTRA.VDW.0>
-0.754459

>  <SCORE.INTRA.norm>
0.0748003

>  <SCORE.RESTR>
0

>  <SCORE.RESTR.CAVITY>
0

>  <SCORE.RESTR.norm>
0

>  <SCORE.SYSTEM>
0

>  <SCORE.SYSTEM.CONST>
0

>  <SCORE.SYSTEM.DIHEDRAL>
0

>  <SCORE.SYSTEM.SOLV>
0

>  <SCORE.SYSTEM.norm>
0

>  <SCORE.heavy>
13

>  <SCORE.norm>
-4.93305

>  <RMSD>
0.364

$$$$
lig.pdb
 OpenBabel11021811453D
libRbt.so/2013.1/901 2013/11/27
 13 14  0  0  0  0  0  0  0  0999 V2000
    2.2946    3.5498   -4.3862 N   0  0  0  0  0  0  0  0  0  0  0  0
    3.5245    2.9605   -4.5483 C   0  0  0  0  0  0  0  0  0  0  0  0
    3.8253    1.8471   -3.8887 N   0  0  0  0  0  0  0  0  0  0  0  0
    2.9304    1.2554   -3.0381 C   0  0  0  0  0  0  0  0  0  0  0  0
    1.6526    1.8359   -2.8347 C   0  0  0  0  0  0  0  0  0  0  0  0
    1.3452    3.0269   -3.5521 C   0  0  0  0  0  0  0  0  0  0  0  0
    0.2638    3.5734   -3.4320 O   0  0  0  0  0  0  0  0  0  0  0  0
    0.9591    0.9940   -1.8599 C   0  0  0  0  0  0  0  0  0  0  0  0
   -0.4058    1.2269   -1.2707 C   0  0  0  0  0  0  0  0  0  0  0  0
   -1.4241    1.1056   -2.3233 N   0  0  0  0  0  0  0  0  0  0  0  0
    1.7961   -0.0123   -1.5774 C   0  0  0  0  0  0  0  0  0  0  0  0
    2.9712    0.1406   -2.2643 N   0  0  0  0  0  0  0  0  0  0  0  0
    4.4409    3.5186   -5.4002 N   0  0  0  0  0  0  0  0  0  0  0  0
  1  6  1  0  0  0  0
  2  1  1  0  0  0  0
  2  3  2  0  0  0  0
  3  4  1  0  0  0  0
  4  5  2  0  0  0  0
  4 12  1  0  0  0  0
  5  8  1  0  0  0  0
  6  7  2  0  0  0  0
  6  5  1  0  0  0  0
  8 11  2  0  0  0  0
  8  9  1  0  0  0  0
 10  9  1  0  0  0  0
 12 11  1  0  0  0  0
 13  2  1  0  0  0  0
M  END
>  <CHROM.1>
66.24299132,-89.99925489,1.83292395,1.95947811,-3.14352404,0.69805508,0.27196367
-0.63081167

>  <Name>
lig.pdb

>  <RI>
1.459e+07

>  <Rbt.Current_Directory>
/home/itssahil/PROJECTS/Mol_Feturizer/New_Systems/rnas/2l1v

>  <Rbt.Executable>
rbdock ($Id: //depot/dev/client3/rdock/2013.1/src/exe/rbdock.cxx#4 $)

>  <Rbt.Library>
libRbt.so (2013.1, Build901 2013/11/27)

>  <Rbt.Parameter_File>
/export/apps/rDock/src/rDock_2013.1_src/data/scripts/dock_solv.prm

>  <Rbt.Receptor>
prm/pocket_docking_2.prm

>  <SCORE>
-64.1371

>  <SCORE.INTER>
-65.1093

>  <SCORE.INTER.CONST>
1

>  <SCORE.INTER.POLAR>
-6.69248

>  <SCORE.INTER.ROT>
2

>  <SCORE.INTER.SOLV>
18.641

>  <SCORE.INTER.VDW>
-32.2449

>  <SCORE.INTER.norm>
-5.00841

>  <SCORE.INTRA>
0.972212

>  <SCORE.INTRA.DIHEDRAL>
0.109925

>  <SCORE.INTRA.DIHEDRAL.0>
1.43995

>  <SCORE.INTRA.POLAR>
0.272593

>  <SCORE.INTRA.POLAR.0>
-0.272593

>  <SCORE.INTRA.REPUL>
0

>  <SCORE.INTRA.REPUL.0>
0

>  <SCORE.INTRA.SOLV>
-0.100381

>  <SCORE.INTRA.SOLV.lig_0>
-22.6728

>  <SCORE.INTRA.VDW>
0.0406248

>  <SCORE.INTRA.VDW.0>
-0.754459

>  <SCORE.INTRA.norm>
0.0747855

>  <SCORE.RESTR>
0

>  <SCORE.RESTR.CAVITY>
0

>  <SCORE.RESTR.norm>
0

>  <SCORE.SYSTEM>
0

>  <SCORE.SYSTEM.CONST>
0

>  <SCORE.SYSTEM.DIHEDRAL>
0

>  <SCORE.SYSTEM.SOLV>
0

>  <SCORE.SYSTEM.norm>
0

>  <SCORE.heavy>
13

>  <SCORE.norm>
-4.93362

>  <RMSD>
0.364

$$$$
lig.pdb
 OpenBabel11021811453D
libRbt.so/2013.1/901 2013/11/27
 13 14  0  0  0  0  0  0  0  0999 V2000
    2.3020    3.5577   -4.3721 N   0  0  0  0  0  0  0  0  0  0  0  0
    3.5283    2.9642   -4.5451 C   0  0  0  0  0  0  0  0  0  0  0  0
    3.8264    1.8428   -3.8981 N   0  0  0  0  0  0  0  0  0  0  0  0
    2.9321    1.2466   -3.0500 C   0  0  0  0  0  0  0  0  0  0  0  0
    1.6579    1.8311   -2.8356 C   0  0  0  0  0  0  0  0  0  0  0  0
    1.3534    3.0308   -3.5396 C   0  0  0  0  0  0  0  0  0  0  0  0
    0.2751    3.5813   -3.4096 O   0  0  0  0  0  0  0  0  0  0  0  0
    0.9643    0.9828   -1.8666 C   0  0  0  0  0  0  0  0  0  0  0  0
   -0.3971    1.2161   -1.2695 C   0  0  0  0  0  0  0  0  0  0  0  0
   -1.4207    1.1042   -2.3180 N   0  0  0  0  0  0  0  0  0  0  0  0
    1.7975   -0.0304   -1.5976 C   0  0  0  0  0  0  0  0  0  0  0  0
    2.9706    0.1239   -2.2876 N   0  0  0  0  0  0  0  0  0  0  0  0
    4.4440    3.5265   -5.3951 N   0  0  0  0  0  0  0  0  0  0  0  0
  1  6  1  0  0  0  0
  2  1  1  0  0  0  0
  2  3  2  0  0  0  0
  3  4  1  0  0  0  0
  4  5  2  0  0  0  0
  4 12  1  0  0  0  0
  5  8  1  0  0  0  0
  6  7  2  0  0  0  0
  6  5  1  0  0  0  0
  8 11  2  0  0  0  0
  8  9  1  0  0  0  0
 10  9  1  0  0  0  0
 12 11  1  0  0  0  0
 13  2  1  0  0  0  0
M  END
>  <CHROM.1>
66.50311841,91.95337050,1.83781884,1.95635814,-3.14394338,0.69721751,0.27770071
-0.62012505

>  <Name>
lig.pdb

>  <RI>
0

>  <Rbt.Current_Directory>
/home/itssahil/PROJECTS/Mol_Feturizer/New_Systems/rnas/2l1v

>  <Rbt.Executable>
rbdock ($Id: //depot/dev/client3/rdock/2013.1/src/exe/rbdock.cxx#4 $)

>  <Rbt.Library>
libRbt.so (2013.1, Build901 2013/11/27)

>  <Rbt.Parameter_File>
/export/apps/rDock/src/rDock_2013.1_src/data/scripts/dock_solv.prm

>  <Rbt.Receptor>
prm/pocket_docking_3.prm

>  <SCORE>
-64.2709

>  <SCORE.INTER>
-65.1736

>  <SCORE.INTER.CONST>
1

>  <SCORE.INTER.POLAR>
-6.71417

>  <SCORE.INTER.ROT>
2

>  <SCORE.INTER.SOLV>
18.6396

>  <SCORE.INTER.VDW>
-32.215

>  <SCORE.INTER.norm>
-5.01335

>  <SCORE.INTRA>
0.902637

>  <SCORE.INTRA.DIHEDRAL>
-0.0174531

>  <SCORE.INTRA.DIHEDRAL.0>
1.43995

>  <SCORE.INTRA.POLAR>
0.272593

>  <SCORE.INTRA.POLAR.0>
-0.272593

>  <SCORE.INTRA.REPUL>
0

>  <SCORE.INTRA.REPUL.0>
0

>  <SCORE.INTRA.SOLV>
-0.0997973

>  <SCORE.INTRA.SOLV.lig_0>
-22.6728

>  <SCORE.INTRA.VDW>
0.0344473

>  <SCORE.INTRA.VDW.0>
-0.754459

>  <SCORE.INTRA.norm>
0.0694336

>  <SCORE.RESTR>
0

>  <SCORE.RESTR.CAVITY>
0

>  <SCORE.RESTR.norm>
0

>  <SCORE.SYSTEM>
0

>  <SCORE.SYSTEM.CONST>
0

>  <SCORE.SYSTEM.DIHEDRAL>
0

>  <SCORE.SYSTEM.SOLV>
0

>  <SCORE.SYSTEM.norm>
0

>  <SCORE.heavy>
13

>  <SCORE.norm>
-4.94392

>  <RMSD>
0.364

$$$$
lig.pdb
 OpenBabel11021811453D
libRbt.so/2013.1/901 2013/11/27
 13 14  0  0  0  0  0  0  0  0999 V2000
    2.2962    3.5442   -4.3742 N   0  0  0  0  0  0  0  0  0  0  0  0
    3.5243    2.9520   -4.5395 C   0  0  0  0  0  0  0  0  0  0  0  0
    3.8222    1.8349   -3.8850 N   0  0  0  0  0  0  0  0  0  0  0  0
    2.9260    1.2420   -3.0367 C   0  0  0  0  0  0  0  0  0  0  0  0
    1.6499    1.8253   -2.8301 C   0  0  0  0  0  0  0  0  0  0  0  0
    1.3457    3.0204   -3.5420 C   0  0  0  0  0  0  0  0  0  0  0  0
    0.2659    3.5695   -3.4190 O   0  0  0  0  0  0  0  0  0  0  0  0
    0.9544    0.9812   -1.8587 C   0  0  0  0  0  0  0  0  0  0  0  0
   -0.4095    1.2154   -1.2678 C   0  0  0  0  0  0  0  0  0  0  0  0
   -1.4281    1.1074   -2.3215 N   0  0  0  0  0  0  0  0  0  0  0  0
    1.7886   -0.0289   -1.5810 C   0  0  0  0  0  0  0  0  0  0  0  0
    2.9638    0.1236   -2.2677 N   0  0  0  0  0  0  0  0  0  0  0  0
    4.4419    3.5112   -5.3894 N   0  0  0  0  0  0  0  0  0  0  0  0
  1  6  1  0  0  0  0
  2  1  1  0  0  0  0
  2  3  2  0  0  0  0
  3  4  1  0  0  0  0
  4  5  2  0  0  0  0
  4 12  1  0  0  0  0
  5  8  1  0  0  0  0
  6  7  2  0  0  0  0
  6  5  1  0  0  0  0
  8 11  2  0  0  0  0
  8  9  1  0  0  0  0
 10  9  1  0  0  0  0
 12 11  1  0  0  0  0
 13  2  1  0  0  0  0
M  END
>  <CHROM.1>
66.00384964,91.59334583,1.83076378,1.95017920,-3.13873761,0.69597595,0.27410861
-0.62600791

>  <Name>
lig.pdb

>  <RI>
2.86608e+07

>  <Rbt.Current_Directory>
/home/itssahil/PROJECTS/Mol_Feturizer/New_Systems/rnas/2l1v

>  <Rbt.Executable>
rbdock ($Id: //depot/dev/client3/rdock/2013.1/src/exe/rbdock.cxx#4 $)

>  <Rbt.Library>
libRbt.so (2013.1, Build901 2013/11/27)

>  <Rbt.Parameter_File>
/export/apps/rDock/src/rDock_2013.1_src/data/scripts/dock_solv.prm

>  <Rbt.Receptor>
prm/pocket_docking_7.prm

>  <SCORE>
-64.2761

>  <SCORE.INTER>
-65.1756

>  <SCORE.INTER.CONST>
1

>  <SCORE.INTER.POLAR>
-6.70798

>  <SCORE.INTER.ROT>
2

>  <SCORE.INTER.SOLV>
18.6133

>  <SCORE.INTER.VDW>
-32.2282

>  <SCORE.INTER.norm>
-5.01351

>  <SCORE.INTRA>
0.899493

>  <SCORE.INTRA.DIHEDRAL>
-0.0256064

>  <SCORE.INTRA.DIHEDRAL.0>
1.43995

>  <SCORE.INTRA.POLAR>
0.272593

>  <SCORE.INTRA.POLAR.0>
-0.272593

>  <SCORE.INTRA.REPUL>
0

>  <SCORE.INTRA.REPUL.0>
0

>  <SCORE.INTRA.SOLV>
-0.0950581

>  <SCORE.INTRA.SOLV.lig_0>
-22.6728

>  <SCORE.INTRA.VDW>
0.0330103

>  <SCORE.INTRA.VDW.0>
-0.754459

>  <SCORE.INTRA.norm>
0.0691918

>  <SCORE.RESTR>
0

>  <SCORE.RESTR.CAVITY>
0

>  <SCORE.RESTR.norm>
0

>  <SCORE.SYSTEM>
0

>  <SCORE.SYSTEM.CONST>
0

>  <SCORE.SYSTEM.DIHEDRAL>
0

>  <SCORE.SYSTEM.SOLV>
0

>  <SCORE.SYSTEM.norm>
0

>  <SCORE.heavy>
13

>  <SCORE.norm>
-4.94432

>  <RMSD>
0.364

$$$$
lig.pdb
 OpenBabel11021811453D
libRbt.so/2013.1/901 2013/11/27
 13 14  0  0  0  0  0  0  0  0999 V2000
    2.2985    3.5434   -4.3699 N   0  0  0  0  0  0  0  0  0  0  0  0
    3.5288    2.9545   -4.5307 C   0  0  0  0  0  0  0  0  0  0  0  0
    3.8269    1.8375   -3.8762 N   0  0  0  0  0  0  0  0  0  0  0  0
    2.9288    1.2413   -3.0322 C   0  0  0  0  0  0  0  0  0  0  0  0
    1.6504    1.8211   -2.8303 C   0  0  0  0  0  0  0  0  0  0  0  0
    1.3460    3.0162   -3.5422 C   0  0  0  0  0  0  0  0  0  0  0  0
    0.2642    3.5624   -3.4230 O   0  0  0  0  0  0  0  0  0  0  0  0
    0.9531    0.9741   -1.8626 C   0  0  0  0  0  0  0  0  0  0  0  0
   -0.4139    1.2042   -1.2771 C   0  0  0  0  0  0  0  0  0  0  0  0
   -1.4266    1.1079   -2.3375 N   0  0  0  0  0  0  0  0  0  0  0  0
    1.7887   -0.0340   -1.5826 C   0  0  0  0  0  0  0  0  0  0  0  0
    2.9664    0.1223   -2.2643 N   0  0  0  0  0  0  0  0  0  0  0  0
    4.4485    3.5170   -5.3763 N   0  0  0  0  0  0  0  0  0  0  0  0
  1  6  1  0  0  0  0
  2  1  1  0  0  0  0
  2  3  2  0  0  0  0
  3  4  1  0  0  0  0
  4  5  2  0  0  0  0
  4 12  1  0  0  0  0
  5  8  1  0  0  0  0
  6  7  2  0  0  0  0
  6  5  1  0  0  0  0
  8 11  2  0  0  0  0
  8  9  1  0  0  0  0
 10  9  1  0  0  0  0
 12 11  1  0  0  0  0
 13  2  1  0  0  0  0
M  END
>  <CHROM.1>
65.44386306,-89.80252996,1.83202220,1.94811729,-3.13802321,0.69454153,0.26978631
-0.62516781

>  <Name>
lig.pdb

>  <RI>
2.86608e+07

>  <Rbt.Current_Directory>
/home/itssahil/PROJECTS/Mol_Feturizer/New_Systems/rnas/2l1v

>  <Rbt.Executable>
rbdock ($Id: //depot/dev/client3/rdock/2013.1/src/exe/rbdock.cxx#4 $)

>  <Rbt.Library>
libRbt.so (2013.1, Build901 2013/11/27)

>  <Rbt.Parameter_File>
/export/apps/rDock/src/rDock_2013.1_src/data/scripts/dock_solv.prm

>  <Rbt.Receptor>
prm/pocket_docking_7.prm

>  <SCORE>
-64.125

>  <SCORE.INTER>
-65.0925

>  <SCORE.INTER.CONST>
1

>  <SCORE.INTER.POLAR>
-6.71802

>  <SCORE.INTER.ROT>
2

>  <SCORE.INTER.SOLV>
18.6235

>  <SCORE.INTER.VDW>
-32.1427

>  <SCORE.INTER.norm>
-5.00711

>  <SCORE.INTRA>
0.967406

>  <SCORE.INTRA.DIHEDRAL>
0.0980807

>  <SCORE.INTRA.DIHEDRAL.0>
1.43995

>  <SCORE.INTRA.POLAR>
0.272593

>  <SCORE.INTRA.POLAR.0>
-0.272593

>  <SCORE.INTRA.REPUL>
0

>  <SCORE.INTRA.REPUL.0>
0

>  <SCORE.INTRA.SOLV>
-0.0925777

>  <SCORE.INTRA.SOLV.lig_0>
-22.6728

>  <SCORE.INTRA.VDW>
0.0378391

>  <SCORE.INTRA.VDW.0>
-0.754459

>  <SCORE.INTRA.norm>
0.0744158

>  <SCORE.RESTR>
0

>  <SCORE.RESTR.CAVITY>
0

>  <SCORE.RESTR.norm>
0

>  <SCORE.SYSTEM>
0

>  <SCORE.SYSTEM.CONST>
0

>  <SCORE.SYSTEM.DIHEDRAL>
0

>  <SCORE.SYSTEM.SOLV>
0

>  <SCORE.SYSTEM.norm>
0

>  <SCORE.heavy>
13

>  <SCORE.norm>
-4.9327

>  <RMSD>
0.364

$$$$
lig.pdb
 OpenBabel11021811453D
libRbt.so/2013.1/901 2013/11/27
 13 14  0  0  0  0  0  0  0  0999 V2000
    2.2973    3.5554   -4.3695 N   0  0  0  0  0  0  0  0  0  0  0  0
    3.5198    2.9553   -4.5470 C   0  0  0  0  0  0  0  0  0  0  0  0
    3.8136    1.8314   -3.9023 N   0  0  0  0  0  0  0  0  0  0  0  0
    2.9185    1.2392   -3.0523 C   0  0  0  0  0  0  0  0  0  0  0  0
    1.6483    1.8304   -2.8333 C   0  0  0  0  0  0  0  0  0  0  0  0
    1.3483    3.0328   -3.5348 C   0  0  0  0  0  0  0  0  0  0  0  0
    0.2734    3.5890   -3.4009 O   0  0  0  0  0  0  0  0  0  0  0  0
    0.9528    0.9846   -1.8633 C   0  0  0  0  0  0  0  0  0  0  0  0
   -0.4055    1.2248   -1.2619 C   0  0  0  0  0  0  0  0  0  0  0  0
   -1.4341    1.1050   -2.3045 N   0  0  0  0  0  0  0  0  0  0  0  0
    1.7812   -0.0335   -1.5982 C   0  0  0  0  0  0  0  0  0  0  0  0
    2.9530    0.1152   -2.2916 N   0  0  0  0  0  0  0  0  0  0  0  0
    4.4361    3.5137   -5.3989 N   0  0  0  0  0  0  0  0  0  0  0  0
  1  6  1  0  0  0  0
  2  1  1  0  0  0  0
  2  3  2  0  0  0  0
  3  4  1  0  0  0  0
  4  5  2  0  0  0  0
  4 12  1  0  0  0  0
  5  8  1  0  0  0  0
  6  7  2  0  0  0  0
  6  5  1  0  0  0  0
  8 11  2  0  0  0  0
  8  9  1  0  0  0  0
 10  9  1  0  0  0  0
 12 11  1  0  0  0  0
 13  2  1  0  0  0  0
M  END
>  <CHROM.1>
67.13614583,90.88266781,1.82777612,1.95367692,-3.14177125,0.69510850,0.28296563
-0.61753887

>  <Name>
lig.pdb

>  <RI>
4.02536e+07

>  <Rbt.Current_Directory>
/home/itssahil/PROJECTS/Mol_Feturizer/New_Systems/rnas/2l1v

>  <Rbt.Executable>
rbdock ($Id: //depot/dev/client3/rdock/2013.1/src/exe/rbdock.cxx#4 $)

>  <Rbt.Library>
libRbt.so (2013.1, Build901 2013/11/27)

>  <Rbt.Parameter_File>
/export/apps/rDock/src/rDock_2013.1_src/data/scripts/dock_solv.prm

>  <Rbt.Receptor>
prm/blind_docking_40.prm

>  <SCORE>
-64.2799

>  <SCORE.INTER>
-65.1877

>  <SCORE.INTER.CONST>
1

>  <SCORE.INTER.POLAR>
-6.68714

>  <SCORE.INTER.ROT>
2

>  <SCORE.INTER.SOLV>
18.6697

>  <SCORE.INTER.VDW>
-32.3245

>  <SCORE.INTER.norm>
-5.01444

>  <SCORE.INTRA>
0.907781

>  <SCORE.INTRA.DIHEDRAL>
-0.00679597

>  <SCORE.INTRA.DIHEDRAL.0>
1.43995

>  <SCORE.INTRA.POLAR>
0.272593

>  <SCORE.INTRA.POLAR.0>
-0.272593

>  <SCORE.INTRA.REPUL>
0

>  <SCORE.INTRA.REPUL.0>
0

>  <SCORE.INTRA.SOLV>
-0.106323

>  <SCORE.INTRA.SOLV.lig_0>
-22.6728

>  <SCORE.INTRA.VDW>
0.0375257

>  <SCORE.INTRA.VDW.0>
-0.754459

>  <SCORE.INTRA.norm>
0.0698293

>  <SCORE.RESTR>
0

>  <SCORE.RESTR.CAVITY>
0

>  <SCORE.RESTR.norm>
0

>  <SCORE.SYSTEM>
0

>  <SCORE.SYSTEM.CONST>
0

>  <SCORE.SYSTEM.DIHEDRAL>
0

>  <SCORE.SYSTEM.SOLV>
0

>  <SCORE.SYSTEM.norm>
0

>  <SCORE.heavy>
13

>  <SCORE.norm>
-4.94461

>  <RMSD>
0.365

$$$$
lig.pdb
 OpenBabel11021811453D
libRbt.so/2013.1/901 2013/11/27
 13 14  0  0  0  0  0  0  0  0999 V2000
    2.3024    3.5300   -4.3716 N   0  0  0  0  0  0  0  0  0  0  0  0
    3.5401    2.9554   -4.5267 C   0  0  0  0  0  0  0  0  0  0  0  0
    3.8527    1.8493   -3.8605 N   0  0  0  0  0  0  0  0  0  0  0  0
    2.9626    1.2506   -3.0099 C   0  0  0  0  0  0  0  0  0  0  0  0
    1.6769    1.8159   -2.8136 C   0  0  0  0  0  0  0  0  0  0  0  0
    1.3569    2.9994   -3.5380 C   0  0  0  0  0  0  0  0  0  0  0  0
    0.2682    3.5328   -3.4242 O   0  0  0  0  0  0  0  0  0  0  0  0
    0.9908    0.9704   -1.8368 C   0  0  0  0  0  0  0  0  0  0  0  0
   -0.3789    1.1890   -1.2532 C   0  0  0  0  0  0  0  0  0  0  0  0
   -1.3880    1.0994   -2.3176 N   0  0  0  0  0  0  0  0  0  0  0  0
    1.8394   -0.0239   -1.5464 C   0  0  0  0  0  0  0  0  0  0  0  0
    3.0148    0.1403   -2.2302 N   0  0  0  0  0  0  0  0  0  0  0  0
    4.4522    3.5207   -5.3785 N   0  0  0  0  0  0  0  0  0  0  0  0
  1  6  1  0  0  0  0
  2  1  1  0  0  0  0
  2  3  2  0  0  0  0
  3  4  1  0  0  0  0
  4  5  2  0  0  0  0
  4 12  1  0  0  0  0
  5  8  1  0  0  0  0
  6  7  2  0  0  0  0
  6  5  1  0  0  0  0
  8 11  2  0  0  0  0
  8  9  1  0  0  0  0
 10  9  1  0  0  0  0
 12 11  1  0  0  0  0
 13  2  1  0  0  0  0
M  END
>  <CHROM.1>
64.13848655,-88.68282183,1.85701697,1.94491610,-3.12325722,0.70386197,0.26341488
-0.63951429

>  <Name>
lig.pdb

>  <RI>
1.77584e+07

>  <Rbt.Current_Directory>
/home/itssahil/PROJECTS/Mol_Feturizer/New_Systems/rnas/2l1v

>  <Rbt.Executable>
rbdock ($Id: //depot/dev/client3/rdock/2013.1/src/exe/rbdock.cxx#4 $)

>  <Rbt.Library>
libRbt.so (2013.1, Build901 2013/11/27)

>  <Rbt.Parameter_File>
/export/apps/rDock/src/rDock_2013.1_src/data/scripts/dock_solv.prm

>  <Rbt.Receptor>
prm/blind_docking_80.prm

>  <SCORE>
-64.091

>  <SCORE.INTER>
-65.0522

>  <SCORE.INTER.CONST>
1

>  <SCORE.INTER.POLAR>
-6.75878

>  <SCORE.INTER.ROT>
2

>  <SCORE.INTER.SOLV>
18.4559

>  <SCORE.INTER.VDW>
-31.9242

>  <SCORE.INTER.norm>
-5.00402

>  <SCORE.INTRA>
0.961181

>  <SCORE.INTRA.DIHEDRAL>
0.082462

>  <SCORE.INTRA.DIHEDRAL.0>
1.43995

>  <SCORE.INTRA.POLAR>
0.272593

>  <SCORE.INTRA.POLAR.0>
-0.272593

>  <SCORE.INTRA.REPUL>
0

>  <SCORE.INTRA.REPUL.0>
0

>  <SCORE.INTRA.SOLV>
-0.0795712

>  <SCORE.INTRA.SOLV.lig_0>
-22.6728

>  <SCORE.INTRA.VDW>
0.0329203

>  <SCORE.INTRA.VDW.0>
-0.754459

>  <SCORE.INTRA.norm>
0.073937

>  <SCORE.RESTR>
0

>  <SCORE.RESTR.CAVITY>
0

>  <SCORE.RESTR.norm>
0

>  <SCORE.SYSTEM>
0

>  <SCORE.SYSTEM.CONST>
0

>  <SCORE.SYSTEM.DIHEDRAL>
0

>  <SCORE.SYSTEM.SOLV>
0

>  <SCORE.SYSTEM.norm>
0

>  <SCORE.heavy>
13

>  <SCORE.norm>
-4.93008

>  <RMSD>
0.365

$$$$
lig.pdb
 OpenBabel11021811453D
libRbt.so/2013.1/901 2013/11/27
 13 14  0  0  0  0  0  0  0  0999 V2000
    2.3252    3.5488   -4.3429 N   0  0  0  0  0  0  0  0  0  0  0  0
    3.5467    2.9509   -4.5344 C   0  0  0  0  0  0  0  0  0  0  0  0
    3.8451    1.8208   -3.9028 N   0  0  0  0  0  0  0  0  0  0  0  0
    2.9559    1.2199   -3.0527 C   0  0  0  0  0  0  0  0  0  0  0  0
    1.6869    1.8086   -2.8194 C   0  0  0  0  0  0  0  0  0  0  0  0
    1.3820    3.0176   -3.5071 C   0  0  0  0  0  0  0  0  0  0  0  0
    0.3078    3.5721   -3.3605 O   0  0  0  0  0  0  0  0  0  0  0  0
    0.9982    0.9531   -1.8532 C   0  0  0  0  0  0  0  0  0  0  0  0
   -0.3562    1.1868   -1.2404 C   0  0  0  0  0  0  0  0  0  0  0  0
   -1.3908    1.0876   -2.2793 N   0  0  0  0  0  0  0  0  0  0  0  0
    1.8285   -0.0673   -1.6036 C   0  0  0  0  0  0  0  0  0  0  0  0
    2.9957    0.0885   -2.3033 N   0  0  0  0  0  0  0  0  0  0  0  0
    4.4571    3.5179   -5.3869 N   0  0  0  0  0  0  0  0  0  0  0  0
  1  6  1  0  0  0  0
  2  1  1  0  0  0  0
  2  3  2  0  0  0  0
  3  4  1  0  0  0  0
  4  5  2  0  0  0  0
  4 12  1  0  0  0  0
  5  8  1  0  0  0  0
  6  7  2  0  0  0  0
  6  5  1  0  0  0  0
  8 11  2  0  0  0  0
  8  9  1  0  0  0  0
 10  9  1  0  0  0  0
 12 11  1  0  0  0  0
 13  2  1  0  0  0  0
M  END
>  <CHROM.1>
66.68435589,91.99598907,1.86441331,1.93589403,-3.12805072,0.69880543,0.28850726
-0.60925811

>  <Name>
lig.pdb

>  <RI>
1.75485e+07

>  <Rbt.Current_Directory>
/home/itssahil/PROJECTS/Mol_Feturizer/New_Systems/rnas/2l1v

>  <Rbt.Executable>
rbdock ($Id: //depot/dev/client3/rdock/2013.1/src/exe/rbdock.cxx#4 $)

>  <Rbt.Library>
libRbt.so (2013.1, Build901 2013/11/27)

>  <Rbt.Parameter_File>
/export/apps/rDock/src/rDock_2013.1_src/data/scripts/dock_solv.prm

>  <Rbt.Receptor>
prm/pocket_docking_4.prm

>  <SCORE>
-64.1578

>  <SCORE.INTER>
-65.0869

>  <SCORE.INTER.CONST>
1

>  <SCORE.INTER.POLAR>
-6.75475

>  <SCORE.INTER.ROT>
2

>  <SCORE.INTER.SOLV>
18.5342

>  <SCORE.INTER.VDW>
-31.9869

>  <SCORE.INTER.norm>
-5.00669

>  <SCORE.INTRA>
0.903912

>  <SCORE.INTRA.DIHEDRAL>
-0.0143588

>  <SCORE.INTRA.DIHEDRAL.0>
1.43995

>  <SCORE.INTRA.POLAR>
0.272593

>  <SCORE.INTRA.POLAR.0>
-0.272593

>  <SCORE.INTRA.REPUL>
0

>  <SCORE.INTRA.REPUL.0>
0

>  <SCORE.INTRA.SOLV>
-0.101551

>  <SCORE.INTRA.SOLV.lig_0>
-22.6728

>  <SCORE.INTRA.VDW>
0.0350517

>  <SCORE.INTRA.VDW.0>
-0.754459

>  <SCORE.INTRA.norm>
0.0695317

>  <SCORE.RESTR>
0.0252279

>  <SCORE.RESTR.CAVITY>
0.0252279

>  <SCORE.RESTR.norm>
0.00194061

>  <SCORE.SYSTEM>
0

>  <SCORE.SYSTEM.CONST>
0

>  <SCORE.SYSTEM.DIHEDRAL>
0

>  <SCORE.SYSTEM.SOLV>
0

>  <SCORE.SYSTEM.norm>
0

>  <SCORE.heavy>
13

>  <SCORE.norm>
-4.93521

>  <RMSD>
0.365

$$$$
lig.pdb
 OpenBabel11021811453D
libRbt.so/2013.1/901 2013/11/27
 13 14  0  0  0  0  0  0  0  0999 V2000
    2.2991    3.5511   -4.3737 N   0  0  0  0  0  0  0  0  0  0  0  0
    3.5301    2.9651   -4.5386 C   0  0  0  0  0  0  0  0  0  0  0  0
    3.8338    1.8501   -3.8831 N   0  0  0  0  0  0  0  0  0  0  0  0
    2.9409    1.2535   -3.0340 C   0  0  0  0  0  0  0  0  0  0  0  0
    1.6619    1.8304   -2.8277 C   0  0  0  0  0  0  0  0  0  0  0  0
    1.3514    3.0233   -3.5408 C   0  0  0  0  0  0  0  0  0  0  0  0
    0.2688    3.5670   -3.4180 O   0  0  0  0  0  0  0  0  0  0  0  0
    0.9709    0.9838   -1.8553 C   0  0  0  0  0  0  0  0  0  0  0  0
   -0.3941    1.2116   -1.2644 C   0  0  0  0  0  0  0  0  0  0  0  0
   -1.4119    1.1018   -2.3185 N   0  0  0  0  0  0  0  0  0  0  0  0
    1.8103   -0.0217   -1.5768 C   0  0  0  0  0  0  0  0  0  0  0  0
    2.9846    0.1361   -2.2640 N   0  0  0  0  0  0  0  0  0  0  0  0
    4.4447    3.5281   -5.3893 N   0  0  0  0  0  0  0  0  0  0  0  0
  1  6  1  0  0  0  0
  2  1  1  0  0  0  0
  2  3  2  0  0  0  0
  3  4  1  0  0  0  0
  4  5  2  0  0  0  0
  4 12  1  0  0  0  0
  5  8  1  0  0  0  0
  6  7  2  0  0  0  0
  6  5  1  0  0  0  0
  8 11  2  0  0  0  0
  8  9  1  0  0  0  0
 10  9  1  0  0  0  0
 12 11  1  0  0  0  0
 13  2  1  0  0  0  0
M  END
>  <CHROM.1>
65.81668318,-89.63326840,1.84180875,1.95646628,-3.13636694,0.69976984,0.27153270
-0.62827390

>  <Name>
lig.pdb

>  <RI>
4.02536e+07

>  <Rbt.Current_Directory>
/home/itssahil/PROJECTS/Mol_Feturizer/New_Systems/rnas/2l1v

>  <Rbt.Executable>
rbdock ($Id: //depot/dev/client3/rdock/2013.1/src/exe/rbdock.cxx#4 $)

>  <Rbt.Library>
libRbt.so (2013.1, Build901 2013/11/27)

>  <Rbt.Parameter_File>
/export/apps/rDock/src/rDock_2013.1_src/data/scripts/dock_solv.prm

>  <Rbt.Receptor>
prm/blind_docking_40.prm

>  <SCORE>
-64.136

>  <SCORE.INTER>
-65.1053

>  <SCORE.INTER.CONST>
1

>  <SCORE.INTER.POLAR>
-6.71654

>  <SCORE.INTER.ROT>
2

>  <SCORE.INTER.SOLV>
18.5947

>  <SCORE.INTER.VDW>
-32.1466

>  <SCORE.INTER.norm>
-5.0081

>  <SCORE.INTRA>
0.969319

>  <SCORE.INTRA.DIHEDRAL>
0.103315

>  <SCORE.INTRA.DIHEDRAL.0>
1.43995

>  <SCORE.INTRA.POLAR>
0.272593

>  <SCORE.INTRA.POLAR.0>
-0.272593

>  <SCORE.INTRA.REPUL>
0

>  <SCORE.INTRA.REPUL.0>
0

>  <SCORE.INTRA.SOLV>
-0.0961065

>  <SCORE.INTRA.SOLV.lig_0>
-22.6728

>  <SCORE.INTRA.VDW>
0.0388996

>  <SCORE.INTRA.VDW.0>
-0.754459

>  <SCORE.INTRA.norm>
0.074563

>  <SCORE.RESTR>
0

>  <SCORE.RESTR.CAVITY>
0

>  <SCORE.RESTR.norm>
0

>  <SCORE.SYSTEM>
0

>  <SCORE.SYSTEM.CONST>
0

>  <SCORE.SYSTEM.DIHEDRAL>
0

>  <SCORE.SYSTEM.SOLV>
0

>  <SCORE.SYSTEM.norm>
0

>  <SCORE.heavy>
13

>  <SCORE.norm>
-4.93354

>  <RMSD>
0.366

$$$$
lig.pdb
 OpenBabel11021811453D
libRbt.so/2013.1/901 2013/11/27
 13 14  0  0  0  0  0  0  0  0999 V2000
    2.3072    3.5612   -4.3729 N   0  0  0  0  0  0  0  0  0  0  0  0
    3.5283    2.9602   -4.5577 C   0  0  0  0  0  0  0  0  0  0  0  0
    3.8254    1.8365   -3.9142 N   0  0  0  0  0  0  0  0  0  0  0  0
    2.9354    1.2453   -3.0583 C   0  0  0  0  0  0  0  0  0  0  0  0
    1.6669    1.8374   -2.8316 C   0  0  0  0  0  0  0  0  0  0  0  0
    1.3632    3.0395   -3.5319 C   0  0  0  0  0  0  0  0  0  0  0  0
    0.2895    3.5965   -3.3915 O   0  0  0  0  0  0  0  0  0  0  0  0
    0.9770    0.9926   -1.8568 C   0  0  0  0  0  0  0  0  0  0  0  0
   -0.3773    1.2339   -1.2469 C   0  0  0  0  0  0  0  0  0  0  0  0
   -1.4151    1.0838   -2.2765 N   0  0  0  0  0  0  0  0  0  0  0  0
    1.8065   -0.0258   -1.5963 C   0  0  0  0  0  0  0  0  0  0  0  0
    2.9740    0.1217   -2.2971 N   0  0  0  0  0  0  0  0  0  0  0  0
    4.4395    3.5176   -5.4157 N   0  0  0  0  0  0  0  0  0  0  0  0
  1  6  1  0  0  0  0
  2  1  1  0  0  0  0
  2  3  2  0  0  0  0
  3  4  1  0  0  0  0
  4  5  2  0  0  0  0
  4 12  1  0  0  0  0
  5  8  1  0  0  0  0
  6  7  2  0  0  0  0
  6  5  1  0  0  0  0
  8 11  2  0  0  0  0
  8  9  1  0  0  0  0
 10  9  1  0  0  0  0
 12 11  1  0  0  0  0
 13  2  1  0  0  0  0
M  END
>  <CHROM.1>
68.42331852,91.19343074,1.84428811,1.95758550,-3.14067290,0.70011638,0.28759751
-0.61816850

>  <Name>
lig.pdb

>  <RI>
4.02536e+07

>  <Rbt.Current_Directory>
/home/itssahil/PROJECTS/Mol_Feturizer/New_Systems/rnas/2l1v

>  <Rbt.Executable>
rbdock ($Id: //depot/dev/client3/rdock/2013.1/src/exe/rbdock.cxx#4 $)

>  <Rbt.Library>
libRbt.so (2013.1, Build901 2013/11/27)

>  <Rbt.Parameter_File>
/export/apps/rDock/src/rDock_2013.1_src/data/scripts/dock_solv.prm

>  <Rbt.Receptor>
prm/blind_docking_40.prm

>  <SCORE>
-64.2644

>  <SCORE.INTER>
-65.1836

>  <SCORE.INTER.CONST>
1

>  <SCORE.INTER.POLAR>
-6.69449

>  <SCORE.INTER.ROT>
2

>  <SCORE.INTER.SOLV>
18.6276

>  <SCORE.INTER.VDW>
-32.2833

>  <SCORE.INTER.norm>
-5.01413

>  <SCORE.INTRA>
0.91921

>  <SCORE.INTRA.DIHEDRAL>
0.0194792

>  <SCORE.INTRA.DIHEDRAL.0>
1.43995

>  <SCORE.INTRA.POLAR>
0.272593

>  <SCORE.INTRA.POLAR.0>
-0.272593

>  <SCORE.INTRA.REPUL>
0

>  <SCORE.INTRA.REPUL.0>
0

>  <SCORE.INTRA.SOLV>
-0.118831

>  <SCORE.INTRA.SOLV.lig_0>
-22.6728

>  <SCORE.INTRA.VDW>
0.0420707

>  <SCORE.INTRA.VDW.0>
-0.754459

>  <SCORE.INTRA.norm>
0.0707084

>  <SCORE.RESTR>
0

>  <SCORE.RESTR.CAVITY>
0

>  <SCORE.RESTR.norm>
0

>  <SCORE.SYSTEM>
0

>  <SCORE.SYSTEM.CONST>
0

>  <SCORE.SYSTEM.DIHEDRAL>
0

>  <SCORE.SYSTEM.SOLV>
0

>  <SCORE.SYSTEM.norm>
0

>  <SCORE.heavy>
13

>  <SCORE.norm>
-4.94342

>  <RMSD>
0.366

$$$$
lig.pdb
 OpenBabel11021811453D
libRbt.so/2013.1/901 2013/11/27
 13 14  0  0  0  0  0  0  0  0999 V2000
    2.3232    3.5460   -4.3403 N   0  0  0  0  0  0  0  0  0  0  0  0
    3.5441    2.9461   -4.5289 C   0  0  0  0  0  0  0  0  0  0  0  0
    3.8390    1.8153   -3.8968 N   0  0  0  0  0  0  0  0  0  0  0  0
    2.9467    1.2157   -3.0492 C   0  0  0  0  0  0  0  0  0  0  0  0
    1.6781    1.8064   -2.8189 C   0  0  0  0  0  0  0  0  0  0  0  0
    1.3769    3.0162   -3.5070 C   0  0  0  0  0  0  0  0  0  0  0  0
    0.3034    3.5724   -3.3629 O   0  0  0  0  0  0  0  0  0  0  0  0
    0.9855    0.9518   -1.8547 C   0  0  0  0  0  0  0  0  0  0  0  0
   -0.3700    1.1876   -1.2452 C   0  0  0  0  0  0  0  0  0  0  0  0
   -1.4021    1.0905   -2.2867 N   0  0  0  0  0  0  0  0  0  0  0  0
    1.8136   -0.0701   -1.6033 C   0  0  0  0  0  0  0  0  0  0  0  0
    2.9827    0.0840   -2.3000 N   0  0  0  0  0  0  0  0  0  0  0  0
    4.4576    3.5118   -5.3789 N   0  0  0  0  0  0  0  0  0  0  0  0
  1  6  1  0  0  0  0
  2  1  1  0  0  0  0
  2  3  2  0  0  0  0
  3  4  1  0  0  0  0
  4  5  2  0  0  0  0
  4 12  1  0  0  0  0
  5  8  1  0  0  0  0
  6  7  2  0  0  0  0
  6  5  1  0  0  0  0
  8 11  2  0  0  0  0
  8  9  1  0  0  0  0
 10  9  1  0  0  0  0
 12 11  1  0  0  0  0
 13  2  1  0  0  0  0
M  END
>  <CHROM.1>
66.68158521,91.76083003,1.85661271,1.93351052,-3.12703755,0.69585860,0.28743040
-0.60812385

>  <Name>
lig.pdb

>  <RI>
4.15415e+07

>  <Rbt.Current_Directory>
/home/itssahil/PROJECTS/Mol_Feturizer/New_Systems/rnas/2l1v

>  <Rbt.Executable>
rbdock ($Id: //depot/dev/client3/rdock/2013.1/src/exe/rbdock.cxx#4 $)

>  <Rbt.Library>
libRbt.so (2013.1, Build901 2013/11/27)

>  <Rbt.Parameter_File>
/export/apps/rDock/src/rDock_2013.1_src/data/scripts/dock_solv.prm

>  <Rbt.Receptor>
prm/blind_docking_60.prm

>  <SCORE>
-64.1707

>  <SCORE.INTER>
-65.1002

>  <SCORE.INTER.CONST>
1

>  <SCORE.INTER.POLAR>
-6.75151

>  <SCORE.INTER.ROT>
2

>  <SCORE.INTER.SOLV>
18.5515

>  <SCORE.INTER.VDW>
-32.0122

>  <SCORE.INTER.norm>
-5.00771

>  <SCORE.INTRA>
0.903972

>  <SCORE.INTRA.DIHEDRAL>
-0.0145313

>  <SCORE.INTRA.DIHEDRAL.0>
1.43995

>  <SCORE.INTRA.POLAR>
0.272593

>  <SCORE.INTRA.POLAR.0>
-0.272593

>  <SCORE.INTRA.REPUL>
0

>  <SCORE.INTRA.REPUL.0>
0

>  <SCORE.INTRA.SOLV>
-0.101599

>  <SCORE.INTRA.SOLV.lig_0>
-22.6728

>  <SCORE.INTRA.VDW>
0.0352223

>  <SCORE.INTRA.VDW.0>
-0.754459

>  <SCORE.INTRA.norm>
0.0695363

>  <SCORE.RESTR>
0.025527

>  <SCORE.RESTR.CAVITY>
0.025527

>  <SCORE.RESTR.norm>
0.00196362

>  <SCORE.SYSTEM>
0

>  <SCORE.SYSTEM.CONST>
0

>  <SCORE.SYSTEM.DIHEDRAL>
0

>  <SCORE.SYSTEM.SOLV>
0

>  <SCORE.SYSTEM.norm>
0

>  <SCORE.heavy>
13

>  <SCORE.norm>
-4.93621

>  <RMSD>
0.366

$$$$
lig.pdb
 OpenBabel11021811453D
libRbt.so/2013.1/901 2013/11/27
 13 14  0  0  0  0  0  0  0  0999 V2000
    2.2978    3.5583   -4.3707 N   0  0  0  0  0  0  0  0  0  0  0  0
    3.5243    2.9647   -4.5423 C   0  0  0  0  0  0  0  0  0  0  0  0
    3.8219    1.8437   -3.8944 N   0  0  0  0  0  0  0  0  0  0  0  0
    2.9269    1.2481   -3.0466 C   0  0  0  0  0  0  0  0  0  0  0  0
    1.6525    1.8327   -2.8336 C   0  0  0  0  0  0  0  0  0  0  0  0
    1.3485    3.0319   -3.5386 C   0  0  0  0  0  0  0  0  0  0  0  0
    0.2701    3.5824   -3.4099 O   0  0  0  0  0  0  0  0  0  0  0  0
    0.9581    0.9849   -1.8646 C   0  0  0  0  0  0  0  0  0  0  0  0
   -0.4038    1.2187   -1.2688 C   0  0  0  0  0  0  0  0  0  0  0  0
   -1.4267    1.1039   -2.3176 N   0  0  0  0  0  0  0  0  0  0  0  0
    1.7911   -0.0280   -1.5943 C   0  0  0  0  0  0  0  0  0  0  0  0
    2.9648    0.1258   -2.2835 N   0  0  0  0  0  0  0  0  0  0  0  0
    4.4406    3.5265   -5.3919 N   0  0  0  0  0  0  0  0  0  0  0  0
  1  6  1  0  0  0  0
  2  1  1  0  0  0  0
  2  3  2  0  0  0  0
  3  4  1  0  0  0  0
  4  5  2  0  0  0  0
  4 12  1  0  0  0  0
  5  8  1  0  0  0  0
  6  7  2  0  0  0  0
  6  5  1  0  0  0  0
  8 11  2  0  0  0  0
  8  9  1  0  0  0  0
 10  9  1  0  0  0  0
 12 11  1  0  0  0  0
 13  2  1  0  0  0  0
M  END
>  <CHROM.1>
66.59364171,91.82479282,1.83261370,1.95752854,-3.14185631,0.69685876,0.27696013
-0.62058580

>  <Name>
lig.pdb

>  <RI>
1.77584e+07

>  <Rbt.Current_Directory>
/home/itssahil/PROJECTS/Mol_Feturizer/New_Systems/rnas/2l1v

>  <Rbt.Executable>
rbdock ($Id: //depot/dev/client3/rdock/2013.1/src/exe/rbdock.cxx#4 $)

>  <Rbt.Library>
libRbt.so (2013.1, Build901 2013/11/27)

>  <Rbt.Parameter_File>
/export/apps/rDock/src/rDock_2013.1_src/data/scripts/dock_solv.prm

>  <Rbt.Receptor>
prm/blind_docking_80.prm

>  <SCORE>
-64.2802

>  <SCORE.INTER>
-65.1835

>  <SCORE.INTER.CONST>
1

>  <SCORE.INTER.POLAR>
-6.70799

>  <SCORE.INTER.ROT>
2

>  <SCORE.INTER.SOLV>
18.6437

>  <SCORE.INTER.VDW>
-32.2436

>  <SCORE.INTER.norm>
-5.01412

>  <SCORE.INTRA>
0.903318

>  <SCORE.INTRA.DIHEDRAL>
-0.0159996

>  <SCORE.INTRA.DIHEDRAL.0>
1.43995

>  <SCORE.INTRA.POLAR>
0.272593

>  <SCORE.INTRA.POLAR.0>
-0.272593

>  <SCORE.INTRA.REPUL>
0

>  <SCORE.INTRA.REPUL.0>
0

>  <SCORE.INTRA.SOLV>
-0.100721

>  <SCORE.INTRA.SOLV.lig_0>
-22.6728

>  <SCORE.INTRA.VDW>
0.0348634

>  <SCORE.INTRA.VDW.0>
-0.754459

>  <SCORE.INTRA.norm>
0.069486

>  <SCORE.RESTR>
0

>  <SCORE.RESTR.CAVITY>
0

>  <SCORE.RESTR.norm>
0

>  <SCORE.SYSTEM>
0

>  <SCORE.SYSTEM.CONST>
0

>  <SCORE.SYSTEM.DIHEDRAL>
0

>  <SCORE.SYSTEM.SOLV>
0

>  <SCORE.SYSTEM.norm>
0

>  <SCORE.heavy>
13

>  <SCORE.norm>
-4.94463

>  <RMSD>
0.366

$$$$
lig.pdb
 OpenBabel11021811453D
libRbt.so/2013.1/901 2013/11/27
 13 14  0  0  0  0  0  0  0  0999 V2000
    2.3025    3.5587   -4.3628 N   0  0  0  0  0  0  0  0  0  0  0  0
    3.5277    2.9635   -4.5381 C   0  0  0  0  0  0  0  0  0  0  0  0
    3.8238    1.8393   -3.8951 N   0  0  0  0  0  0  0  0  0  0  0  0
    2.9285    1.2419   -3.0489 C   0  0  0  0  0  0  0  0  0  0  0  0
    1.6554    1.8280   -2.8322 C   0  0  0  0  0  0  0  0  0  0  0  0
    1.3531    3.0308   -3.5320 C   0  0  0  0  0  0  0  0  0  0  0  0
    0.2758    3.5828   -3.3999 O   0  0  0  0  0  0  0  0  0  0  0  0
    0.9603    0.9775   -1.8662 C   0  0  0  0  0  0  0  0  0  0  0  0
   -0.4006    1.2114   -1.2681 C   0  0  0  0  0  0  0  0  0  0  0  0
   -1.4245    1.1052   -2.3168 N   0  0  0  0  0  0  0  0  0  0  0  0
    1.7916   -0.0381   -1.6009 C   0  0  0  0  0  0  0  0  0  0  0  0
    2.9649    0.1163   -2.2906 N   0  0  0  0  0  0  0  0  0  0  0  0
    4.4444    3.5271   -5.3862 N   0  0  0  0  0  0  0  0  0  0  0  0
  1  6  1  0  0  0  0
  2  1  1  0  0  0  0
  2  3  2  0  0  0  0
  3  4  1  0  0  0  0
  4  5  2  0  0  0  0
  4 12  1  0  0  0  0
  5  8  1  0  0  0  0
  6  7  2  0  0  0  0
  6  5  1  0  0  0  0
  8 11  2  0  0  0  0
  8  9  1  0  0  0  0
 10  9  1  0  0  0  0
 12 11  1  0  0  0  0
 13  2  1  0  0  0  0
M  END
>  <CHROM.1>
66.49918507,91.79402506,1.83549053,1.95398842,-3.14020614,0.69568768,0.27893022
-0.61616966

>  <Name>
lig.pdb

>  <RI>
0

>  <Rbt.Current_Directory>
/home/itssahil/PROJECTS/Mol_Feturizer/New_Systems/rnas/2l1v

>  <Rbt.Executable>
rbdock ($Id: //depot/dev/client3/rdock/2013.1/src/exe/rbdock.cxx#4 $)

>  <Rbt.Library>
libRbt.so (2013.1, Build901 2013/11/27)

>  <Rbt.Parameter_File>
/export/apps/rDock/src/rDock_2013.1_src/data/scripts/dock_solv.prm

>  <Rbt.Receptor>
prm/pocket_docking_3.prm

>  <SCORE>
-64.2627

>  <SCORE.INTER>
-65.1654

>  <SCORE.INTER.CONST>
1

>  <SCORE.INTER.POLAR>
-6.7175

>  <SCORE.INTER.ROT>
2

>  <SCORE.INTER.SOLV>
18.6427

>  <SCORE.INTER.VDW>
-32.1995

>  <SCORE.INTER.norm>
-5.01272

>  <SCORE.INTRA>
0.902665

>  <SCORE.INTRA.DIHEDRAL>
-0.0176031

>  <SCORE.INTRA.DIHEDRAL.0>
1.43995

>  <SCORE.INTRA.POLAR>
0.272593

>  <SCORE.INTRA.POLAR.0>
-0.272593

>  <SCORE.INTRA.REPUL>
0

>  <SCORE.INTRA.REPUL.0>
0

>  <SCORE.INTRA.SOLV>
-0.0998103

>  <SCORE.INTRA.SOLV.lig_0>
-22.6728

>  <SCORE.INTRA.VDW>
0.0345564

>  <SCORE.INTRA.VDW.0>
-0.754459

>  <SCORE.INTRA.norm>
0.0694357

>  <SCORE.RESTR>
0

>  <SCORE.RESTR.CAVITY>
0

>  <SCORE.RESTR.norm>
0

>  <SCORE.SYSTEM>
0

>  <SCORE.SYSTEM.CONST>
0

>  <SCORE.SYSTEM.DIHEDRAL>
0

>  <SCORE.SYSTEM.SOLV>
0

>  <SCORE.SYSTEM.norm>
0

>  <SCORE.heavy>
13

>  <SCORE.norm>
-4.94328

>  <RMSD>
0.366

$$$$
lig.pdb
 OpenBabel11021811453D
libRbt.so/2013.1/901 2013/11/27
 13 14  0  0  0  0  0  0  0  0999 V2000
    2.3251    3.5695   -4.3588 N   0  0  0  0  0  0  0  0  0  0  0  0
    3.5539    2.9827   -4.5375 C   0  0  0  0  0  0  0  0  0  0  0  0
    3.8583    1.8587   -3.8979 N   0  0  0  0  0  0  0  0  0  0  0  0
    2.9682    1.2533   -3.0520 C   0  0  0  0  0  0  0  0  0  0  0  0
    1.6917    1.8305   -2.8319 C   0  0  0  0  0  0  0  0  0  0  0  0
    1.3804    3.0331   -3.5279 C   0  0  0  0  0  0  0  0  0  0  0  0
    0.2998    3.5777   -3.3927 O   0  0  0  0  0  0  0  0  0  0  0  0
    1.0036    0.9730   -1.8670 C   0  0  0  0  0  0  0  0  0  0  0  0
   -0.3579    1.1963   -1.2662 C   0  0  0  0  0  0  0  0  0  0  0  0
   -1.3823    1.0912   -2.3145 N   0  0  0  0  0  0  0  0  0  0  0  0
    1.8419   -0.0379   -1.6057 C   0  0  0  0  0  0  0  0  0  0  0  0
    3.0131    0.1260   -2.2967 N   0  0  0  0  0  0  0  0  0  0  0  0
    4.4656    3.5545   -5.3855 N   0  0  0  0  0  0  0  0  0  0  0  0
  1  6  1  0  0  0  0
  2  1  1  0  0  0  0
  2  3  2  0  0  0  0
  3  4  1  0  0  0  0
  4  5  2  0  0  0  0
  4 12  1  0  0  0  0
  5  8  1  0  0  0  0
  6  7  2  0  0  0  0
  6  5  1  0  0  0  0
  8 11  2  0  0  0  0
  8  9  1  0  0  0  0
 10  9  1  0  0  0  0
 12 11  1  0  0  0  0
 13  2  1  0  0  0  0
M  END
>  <CHROM.1>
66.29063117,-88.94273801,1.87022656,1.95900574,-3.13960327,0.70149039,0.27664194
-0.61541405

>  <Name>
lig.pdb

>  <RI>
4.15415e+07

>  <Rbt.Current_Directory>
/home/itssahil/PROJECTS/Mol_Feturizer/New_Systems/rnas/2l1v

>  <Rbt.Executable>
rbdock ($Id: //depot/dev/client3/rdock/2013.1/src/exe/rbdock.cxx#4 $)

>  <Rbt.Library>
libRbt.so (2013.1, Build901 2013/11/27)

>  <Rbt.Parameter_File>
/export/apps/rDock/src/rDock_2013.1_src/data/scripts/dock_solv.prm

>  <Rbt.Receptor>
prm/blind_docking_60.prm

>  <SCORE>
-64.0123

>  <SCORE.INTER>
-65.0164

>  <SCORE.INTER.CONST>
1

>  <SCORE.INTER.POLAR>
-6.7788

>  <SCORE.INTER.ROT>
2

>  <SCORE.INTER.SOLV>
18.5843

>  <SCORE.INTER.VDW>
-31.8763

>  <SCORE.INTER.norm>
-5.00126

>  <SCORE.INTRA>
0.9717

>  <SCORE.INTRA.DIHEDRAL>
0.110383

>  <SCORE.INTRA.DIHEDRAL.0>
1.43995

>  <SCORE.INTRA.POLAR>
0.272593

>  <SCORE.INTRA.POLAR.0>
-0.272593

>  <SCORE.INTRA.REPUL>
0

>  <SCORE.INTRA.REPUL.0>
0

>  <SCORE.INTRA.SOLV>
-0.10042

>  <SCORE.INTRA.SOLV.lig_0>
-22.6728

>  <SCORE.INTRA.VDW>
0.039903

>  <SCORE.INTRA.VDW.0>
-0.754459

>  <SCORE.INTRA.norm>
0.0747462

>  <SCORE.RESTR>
0.0323584

>  <SCORE.RESTR.CAVITY>
0.0323584

>  <SCORE.RESTR.norm>
0.00248911

>  <SCORE.SYSTEM>
0

>  <SCORE.SYSTEM.CONST>
0

>  <SCORE.SYSTEM.DIHEDRAL>
0

>  <SCORE.SYSTEM.SOLV>
0

>  <SCORE.SYSTEM.norm>
0

>  <SCORE.heavy>
13

>  <SCORE.norm>
-4.92402

>  <RMSD>
0.367

$$$$
lig.pdb
 OpenBabel11021811453D
libRbt.so/2013.1/901 2013/11/27
 13 14  0  0  0  0  0  0  0  0999 V2000
    2.2934    3.5316   -4.3777 N   0  0  0  0  0  0  0  0  0  0  0  0
    3.5232    2.9410   -4.5358 C   0  0  0  0  0  0  0  0  0  0  0  0
    3.8225    1.8299   -3.8719 N   0  0  0  0  0  0  0  0  0  0  0  0
    2.9261    1.2416   -3.0205 C   0  0  0  0  0  0  0  0  0  0  0  0
    1.6483    1.8235   -2.8211 C   0  0  0  0  0  0  0  0  0  0  0  0
    1.3425    3.0121   -3.5432 C   0  0  0  0  0  0  0  0  0  0  0  0
    0.2611    3.5596   -3.4266 O   0  0  0  0  0  0  0  0  0  0  0  0
    0.9529    0.9855   -1.8443 C   0  0  0  0  0  0  0  0  0  0  0  0
   -0.4128    1.2211   -1.2579 C   0  0  0  0  0  0  0  0  0  0  0  0
   -1.4289    1.1042   -2.3131 N   0  0  0  0  0  0  0  0  0  0  0  0
    1.7889   -0.0203   -1.5570 C   0  0  0  0  0  0  0  0  0  0  0  0
    2.9651    0.1296   -2.2426 N   0  0  0  0  0  0  0  0  0  0  0  0
    4.4412    3.4956   -5.3884 N   0  0  0  0  0  0  0  0  0  0  0  0
  1  6  1  0  0  0  0
  2  1  1  0  0  0  0
  2  3  2  0  0  0  0
  3  4  1  0  0  0  0
  4  5  2  0  0  0  0
  4 12  1  0  0  0  0
  5  8  1  0  0  0  0
  6  7  2  0  0  0  0
  6  5  1  0  0  0  0
  8 11  2  0  0  0  0
  8  9  1  0  0  0  0
 10  9  1  0  0  0  0
 12 11  1  0  0  0  0
 13  2  1  0  0  0  0
M  END
>  <CHROM.1>
65.91871451,91.83899898,1.82939773,1.94652186,-3.13043151,0.69671428,0.27117598
-0.63429960

>  <Name>
lig.pdb

>  <RI>
1.459e+07

>  <Rbt.Current_Directory>
/home/itssahil/PROJECTS/Mol_Feturizer/New_Systems/rnas/2l1v

>  <Rbt.Executable>
rbdock ($Id: //depot/dev/client3/rdock/2013.1/src/exe/rbdock.cxx#4 $)

>  <Rbt.Library>
libRbt.so (2013.1, Build901 2013/11/27)

>  <Rbt.Parameter_File>
/export/apps/rDock/src/rDock_2013.1_src/data/scripts/dock_solv.prm

>  <Rbt.Receptor>
prm/pocket_docking_2.prm

>  <SCORE>
-64.3016

>  <SCORE.INTER>
-65.2005

>  <SCORE.INTER.CONST>
1

>  <SCORE.INTER.POLAR>
-6.70471

>  <SCORE.INTER.ROT>
2

>  <SCORE.INTER.SOLV>
18.5569

>  <SCORE.INTER.VDW>
-32.2369

>  <SCORE.INTER.norm>
-5.01542

>  <SCORE.INTRA>
0.898886

>  <SCORE.INTRA.DIHEDRAL>
-0.0267699

>  <SCORE.INTRA.DIHEDRAL.0>
1.43995

>  <SCORE.INTRA.POLAR>
0.272593

>  <SCORE.INTRA.POLAR.0>
-0.272593

>  <SCORE.INTRA.REPUL>
0

>  <SCORE.INTRA.REPUL.0>
0

>  <SCORE.INTRA.SOLV>
-0.0941498

>  <SCORE.INTRA.SOLV.lig_0>
-22.6728

>  <SCORE.INTRA.VDW>
0.0325304

>  <SCORE.INTRA.VDW.0>
-0.754459

>  <SCORE.INTRA.norm>
0.069145

>  <SCORE.RESTR>
0

>  <SCORE.RESTR.CAVITY>
0

>  <SCORE.RESTR.norm>
0

>  <SCORE.SYSTEM>
0

>  <SCORE.SYSTEM.CONST>
0

>  <SCORE.SYSTEM.DIHEDRAL>
0

>  <SCORE.SYSTEM.SOLV>
0

>  <SCORE.SYSTEM.norm>
0

>  <SCORE.heavy>
13

>  <SCORE.norm>
-4.94628

>  <RMSD>
0.367

$$$$
lig.pdb
 OpenBabel11021811453D
libRbt.so/2013.1/901 2013/11/27
 13 14  0  0  0  0  0  0  0  0999 V2000
    2.2968    3.5638   -4.3773 N   0  0  0  0  0  0  0  0  0  0  0  0
    3.5287    2.9789   -4.5400 C   0  0  0  0  0  0  0  0  0  0  0  0
    3.8314    1.8630   -3.8857 N   0  0  0  0  0  0  0  0  0  0  0  0
    2.9366    1.2642   -3.0401 C   0  0  0  0  0  0  0  0  0  0  0  0
    1.6567    1.8399   -2.8362 C   0  0  0  0  0  0  0  0  0  0  0  0
    1.3473    3.0337   -3.5479 C   0  0  0  0  0  0  0  0  0  0  0  0
    0.2640    3.5765   -3.4271 O   0  0  0  0  0  0  0  0  0  0  0  0
    0.9637    0.9909   -1.8672 C   0  0  0  0  0  0  0  0  0  0  0  0
   -0.4030    1.2167   -1.2795 C   0  0  0  0  0  0  0  0  0  0  0  0
   -1.4179    1.1088   -2.3367 N   0  0  0  0  0  0  0  0  0  0  0  0
    1.8031   -0.0145   -1.5883 C   0  0  0  0  0  0  0  0  0  0  0  0
    2.9791    0.1454   -2.2720 N   0  0  0  0  0  0  0  0  0  0  0  0
    4.4452    3.5441   -5.3872 N   0  0  0  0  0  0  0  0  0  0  0  0
  1  6  1  0  0  0  0
  2  1  1  0  0  0  0
  2  3  2  0  0  0  0
  3  4  1  0  0  0  0
  4  5  2  0  0  0  0
  4 12  1  0  0  0  0
  5  8  1  0  0  0  0
  6  7  2  0  0  0  0
  6  5  1  0  0  0  0
  8 11  2  0  0  0  0
  8  9  1  0  0  0  0
 10  9  1  0  0  0  0
 12 11  1  0  0  0  0
 13  2  1  0  0  0  0
M  END
>  <CHROM.1>
65.78549987,-89.49005496,1.83735245,1.96662995,-3.14414700,0.69870154,0.26895780
-0.62621127

>  <Name>
lig.pdb

>  <RI>
0

>  <Rbt.Current_Directory>
/home/itssahil/PROJECTS/Mol_Feturizer/New_Systems/rnas/2l1v

>  <Rbt.Executable>
rbdock ($Id: //depot/dev/client3/rdock/2013.1/src/exe/rbdock.cxx#4 $)

>  <Rbt.Library>
libRbt.so (2013.1, Build901 2013/11/27)

>  <Rbt.Parameter_File>
/export/apps/rDock/src/rDock_2013.1_src/data/scripts/dock_solv.prm

>  <Rbt.Receptor>
prm/pocket_docking_3.prm

>  <SCORE>
-64.1466

>  <SCORE.INTER>
-65.1156

>  <SCORE.INTER.CONST>
1

>  <SCORE.INTER.POLAR>
-6.72423

>  <SCORE.INTER.ROT>
2

>  <SCORE.INTER.SOLV>
18.6492

>  <SCORE.INTER.VDW>
-32.146

>  <SCORE.INTER.norm>
-5.00889

>  <SCORE.INTRA>
0.969027

>  <SCORE.INTRA.DIHEDRAL>
0.102819

>  <SCORE.INTRA.DIHEDRAL.0>
1.43995

>  <SCORE.INTRA.POLAR>
0.272593

>  <SCORE.INTRA.POLAR.0>
-0.272593

>  <SCORE.INTRA.REPUL>
0

>  <SCORE.INTRA.REPUL.0>
0

>  <SCORE.INTRA.SOLV>
-0.0957468

>  <SCORE.INTRA.SOLV.lig_0>
-22.6728

>  <SCORE.INTRA.VDW>
0.0386763

>  <SCORE.INTRA.VDW.0>
-0.754459

>  <SCORE.INTRA.norm>
0.0745406

>  <SCORE.RESTR>
0

>  <SCORE.RESTR.CAVITY>
0

>  <SCORE.RESTR.norm>
0

>  <SCORE.SYSTEM>
0

>  <SCORE.SYSTEM.CONST>
0

>  <SCORE.SYSTEM.DIHEDRAL>
0

>  <SCORE.SYSTEM.SOLV>
0

>  <SCORE.SYSTEM.norm>
0

>  <SCORE.heavy>
13

>  <SCORE.norm>
-4.93435

>  <RMSD>
0.367

$$$$
lig.pdb
 OpenBabel11021811453D
libRbt.so/2013.1/901 2013/11/27
 13 14  0  0  0  0  0  0  0  0999 V2000
    2.3009    3.5634   -4.3783 N   0  0  0  0  0  0  0  0  0  0  0  0
    3.5238    2.9645   -4.5566 C   0  0  0  0  0  0  0  0  0  0  0  0
    3.8205    1.8429   -3.9093 N   0  0  0  0  0  0  0  0  0  0  0  0
    2.9281    1.2518   -3.0557 C   0  0  0  0  0  0  0  0  0  0  0  0
    1.6575    1.8420   -2.8357 C   0  0  0  0  0  0  0  0  0  0  0  0
    1.3544    3.0418   -3.5401 C   0  0  0  0  0  0  0  0  0  0  0  0
    0.2790    3.5970   -3.4055 O   0  0  0  0  0  0  0  0  0  0  0  0
    0.9652    0.9981   -1.8618 C   0  0  0  0  0  0  0  0  0  0  0  0
   -0.3921    1.2381   -1.2582 C   0  0  0  0  0  0  0  0  0  0  0  0
   -1.4242    1.0969   -2.2947 N   0  0  0  0  0  0  0  0  0  0  0  0
    1.7956   -0.0181   -1.5955 C   0  0  0  0  0  0  0  0  0  0  0  0
    2.9658    0.1302   -2.2917 N   0  0  0  0  0  0  0  0  0  0  0  0
    4.4375    3.5216   -5.4121 N   0  0  0  0  0  0  0  0  0  0  0  0
  1  6  1  0  0  0  0
  2  1  1  0  0  0  0
  2  3  2  0  0  0  0
  3  4  1  0  0  0  0
  4  5  2  0  0  0  0
  4 12  1  0  0  0  0
  5  8  1  0  0  0  0
  6  7  2  0  0  0  0
  6  5  1  0  0  0  0
  8 11  2  0  0  0  0
  8  9  1  0  0  0  0
 10  9  1  0  0  0  0
 12 11  1  0  0  0  0
 13  2  1  0  0  0  0
M  END
>  <CHROM.1>
67.85659696,91.27990030,1.83602019,1.96300801,-3.14457570,0.69851970,0.28339127
-0.62067105

>  <Name>
lig.pdb

>  <RI>
2.86608e+07

>  <Rbt.Current_Directory>
/home/itssahil/PROJECTS/Mol_Feturizer/New_Systems/rnas/2l1v

>  <Rbt.Executable>
rbdock ($Id: //depot/dev/client3/rdock/2013.1/src/exe/rbdock.cxx#4 $)

>  <Rbt.Library>
libRbt.so (2013.1, Build901 2013/11/27)

>  <Rbt.Parameter_File>
/export/apps/rDock/src/rDock_2013.1_src/data/scripts/dock_solv.prm

>  <Rbt.Receptor>
prm/pocket_docking_7.prm

>  <SCORE>
-64.2837

>  <SCORE.INTER>
-65.1975

>  <SCORE.INTER.CONST>
1

>  <SCORE.INTER.POLAR>
-6.69304

>  <SCORE.INTER.ROT>
2

>  <SCORE.INTER.SOLV>
18.6605

>  <SCORE.INTER.VDW>
-32.3083

>  <SCORE.INTER.norm>
-5.01519

>  <SCORE.INTRA>
0.913769

>  <SCORE.INTRA.DIHEDRAL>
0.00742328

>  <SCORE.INTRA.DIHEDRAL.0>
1.43995

>  <SCORE.INTRA.POLAR>
0.272593

>  <SCORE.INTRA.POLAR.0>
-0.272593

>  <SCORE.INTRA.REPUL>
0

>  <SCORE.INTRA.REPUL.0>
0

>  <SCORE.INTRA.SOLV>
-0.113241

>  <SCORE.INTRA.SOLV.lig_0>
-22.6728

>  <SCORE.INTRA.VDW>
0.0398627

>  <SCORE.INTRA.VDW.0>
-0.754459

>  <SCORE.INTRA.norm>
0.0702899

>  <SCORE.RESTR>
0

>  <SCORE.RESTR.CAVITY>
0

>  <SCORE.RESTR.norm>
0

>  <SCORE.SYSTEM>
0

>  <SCORE.SYSTEM.CONST>
0

>  <SCORE.SYSTEM.DIHEDRAL>
0

>  <SCORE.SYSTEM.SOLV>
0

>  <SCORE.SYSTEM.norm>
0

>  <SCORE.heavy>
13

>  <SCORE.norm>
-4.9449

>  <RMSD>
0.367

$$$$
lig.pdb
 OpenBabel11021811453D
libRbt.so/2013.1/901 2013/11/27
 13 14  0  0  0  0  0  0  0  0999 V2000
    2.3207    3.5443   -4.3196 N   0  0  0  0  0  0  0  0  0  0  0  0
    3.5417    2.9453   -4.5108 C   0  0  0  0  0  0  0  0  0  0  0  0
    3.8350    1.8094   -3.8873 N   0  0  0  0  0  0  0  0  0  0  0  0
    2.9409    1.2035   -3.0459 C   0  0  0  0  0  0  0  0  0  0  0  0
    1.6722    1.7930   -2.8132 C   0  0  0  0  0  0  0  0  0  0  0  0
    1.3728    3.0083   -3.4922 C   0  0  0  0  0  0  0  0  0  0  0  0
    0.2992    3.5639   -3.3456 O   0  0  0  0  0  0  0  0  0  0  0  0
    0.9776    0.9311   -1.8570 C   0  0  0  0  0  0  0  0  0  0  0  0
   -0.3789    1.1627   -1.2480 C   0  0  0  0  0  0  0  0  0  0  0  0
   -1.4078    1.0899   -2.2946 N   0  0  0  0  0  0  0  0  0  0  0  0
    1.8047   -0.0931   -1.6123 C   0  0  0  0  0  0  0  0  0  0  0  0
    2.9752    0.0659   -2.3056 N   0  0  0  0  0  0  0  0  0  0  0  0
    4.4569    3.5174   -5.3548 N   0  0  0  0  0  0  0  0  0  0  0  0
  1  6  1  0  0  0  0
  2  1  1  0  0  0  0
  2  3  2  0  0  0  0
  3  4  1  0  0  0  0
  4  5  2  0  0  0  0
  4 12  1  0  0  0  0
  5  8  1  0  0  0  0
  6  7  2  0  0  0  0
  6  5  1  0  0  0  0
  8 11  2  0  0  0  0
  8  9  1  0  0  0  0
 10  9  1  0  0  0  0
 12 11  1  0  0  0  0
 13  2  1  0  0  0  0
M  END
>  <CHROM.1>
66.02524889,91.82710233,1.85144738,1.92391302,-3.12024177,0.69359380,0.28672020
-0.60023682

>  <Name>
lig.pdb

>  <RI>
4.15415e+07

>  <Rbt.Current_Directory>
/home/itssahil/PROJECTS/Mol_Feturizer/New_Systems/rnas/2l1v

>  <Rbt.Executable>
rbdock ($Id: //depot/dev/client3/rdock/2013.1/src/exe/rbdock.cxx#4 $)

>  <Rbt.Library>
libRbt.so (2013.1, Build901 2013/11/27)

>  <Rbt.Parameter_File>
/export/apps/rDock/src/rDock_2013.1_src/data/scripts/dock_solv.prm

>  <Rbt.Receptor>
prm/blind_docking_60.prm

>  <SCORE>
-64.1404

>  <SCORE.INTER>
-65.0603

>  <SCORE.INTER.CONST>
1

>  <SCORE.INTER.POLAR>
-6.76216

>  <SCORE.INTER.ROT>
2

>  <SCORE.INTER.SOLV>
18.5412

>  <SCORE.INTER.VDW>
-31.9467

>  <SCORE.INTER.norm>
-5.00464

>  <SCORE.INTRA>
0.899539

>  <SCORE.INTRA.DIHEDRAL>
-0.0251626

>  <SCORE.INTRA.DIHEDRAL.0>
1.43995

>  <SCORE.INTRA.POLAR>
0.272593

>  <SCORE.INTRA.POLAR.0>
-0.272593

>  <SCORE.INTRA.REPUL>
0

>  <SCORE.INTRA.REPUL.0>
0

>  <SCORE.INTRA.SOLV>
-0.0951885

>  <SCORE.INTRA.SOLV.lig_0>
-22.6728

>  <SCORE.INTRA.VDW>
0.0328996

>  <SCORE.INTRA.VDW.0>
-0.754459

>  <SCORE.INTRA.norm>
0.0691953

>  <SCORE.RESTR>
0.0203365

>  <SCORE.RESTR.CAVITY>
0.0203365

>  <SCORE.RESTR.norm>
0.00156434

>  <SCORE.SYSTEM>
0

>  <SCORE.SYSTEM.CONST>
0

>  <SCORE.SYSTEM.DIHEDRAL>
0

>  <SCORE.SYSTEM.SOLV>
0

>  <SCORE.SYSTEM.norm>
0

>  <SCORE.heavy>
13

>  <SCORE.norm>
-4.93388

>  <RMSD>
0.368

$$$$
lig.pdb
 OpenBabel11021811453D
libRbt.so/2013.1/901 2013/11/27
 13 14  0  0  0  0  0  0  0  0999 V2000
    2.2974    3.5610   -4.3737 N   0  0  0  0  0  0  0  0  0  0  0  0
    3.5242    2.9676   -4.5444 C   0  0  0  0  0  0  0  0  0  0  0  0
    3.8224    1.8481   -3.8942 N   0  0  0  0  0  0  0  0  0  0  0  0
    2.9279    1.2538   -3.0451 C   0  0  0  0  0  0  0  0  0  0  0  0
    1.6533    1.8382   -2.8330 C   0  0  0  0  0  0  0  0  0  0  0  0
    1.3486    3.0359   -3.5404 C   0  0  0  0  0  0  0  0  0  0  0  0
    0.2699    3.5861   -3.4125 O   0  0  0  0  0  0  0  0  0  0  0  0
    0.9594    0.9921   -1.8622 C   0  0  0  0  0  0  0  0  0  0  0  0
   -0.4025    1.2264   -1.2665 C   0  0  0  0  0  0  0  0  0  0  0  0
   -1.4258    1.1057   -2.3142 N   0  0  0  0  0  0  0  0  0  0  0  0
    1.7930   -0.0199   -1.5900 C   0  0  0  0  0  0  0  0  0  0  0  0
    2.9664    0.1331   -2.2797 N   0  0  0  0  0  0  0  0  0  0  0  0
    4.4401    3.5282   -5.3953 N   0  0  0  0  0  0  0  0  0  0  0  0
  1  6  1  0  0  0  0
  2  1  1  0  0  0  0
  2  3  2  0  0  0  0
  3  4  1  0  0  0  0
  4  5  2  0  0  0  0
  4 12  1  0  0  0  0
  5  8  1  0  0  0  0
  6  7  2  0  0  0  0
  6  5  1  0  0  0  0
  8 11  2  0  0  0  0
  8  9  1  0  0  0  0
 10  9  1  0  0  0  0
 12 11  1  0  0  0  0
 13  2  1  0  0  0  0
M  END
>  <CHROM.1>
66.73571254,91.58113327,1.83322150,1.96219165,-3.14148383,0.69755403,0.27677484
-0.62262550

>  <Name>
lig.pdb

>  <RI>
0

>  <Rbt.Current_Directory>
/home/itssahil/PROJECTS/Mol_Feturizer/New_Systems/rnas/2l1v

>  <Rbt.Executable>
rbdock ($Id: //depot/dev/client3/rdock/2013.1/src/exe/rbdock.cxx#4 $)

>  <Rbt.Library>
libRbt.so (2013.1, Build901 2013/11/27)

>  <Rbt.Parameter_File>
/export/apps/rDock/src/rDock_2013.1_src/data/scripts/dock_solv.prm

>  <Rbt.Receptor>
prm/pocket_docking_3.prm

>  <SCORE>
-64.2789

>  <SCORE.INTER>
-65.1833

>  <SCORE.INTER.CONST>
1

>  <SCORE.INTER.POLAR>
-6.70641

>  <SCORE.INTER.ROT>
2

>  <SCORE.INTER.SOLV>
18.6445

>  <SCORE.INTER.VDW>
-32.249

>  <SCORE.INTER.norm>
-5.0141

>  <SCORE.INTRA>
0.904432

>  <SCORE.INTRA.DIHEDRAL>
-0.0136849

>  <SCORE.INTRA.DIHEDRAL.0>
1.43995

>  <SCORE.INTRA.POLAR>
0.272593

>  <SCORE.INTRA.POLAR.0>
-0.272593

>  <SCORE.INTRA.REPUL>
0

>  <SCORE.INTRA.REPUL.0>
0

>  <SCORE.INTRA.SOLV>
-0.102185

>  <SCORE.INTRA.SOLV.lig_0>
-22.6728

>  <SCORE.INTRA.VDW>
0.0355523

>  <SCORE.INTRA.VDW.0>
-0.754459

>  <SCORE.INTRA.norm>
0.0695717

>  <SCORE.RESTR>
0

>  <SCORE.RESTR.CAVITY>
0

>  <SCORE.RESTR.norm>
0

>  <SCORE.SYSTEM>
0

>  <SCORE.SYSTEM.CONST>
0

>  <SCORE.SYSTEM.DIHEDRAL>
0

>  <SCORE.SYSTEM.SOLV>
0

>  <SCORE.SYSTEM.norm>
0

>  <SCORE.heavy>
13

>  <SCORE.norm>
-4.94453

>  <RMSD>
0.368

$$$$
lig.pdb
 OpenBabel11021811453D
libRbt.so/2013.1/901 2013/11/27
 13 14  0  0  0  0  0  0  0  0999 V2000
    2.2974    3.5643   -4.3776 N   0  0  0  0  0  0  0  0  0  0  0  0
    3.5284    2.9778   -4.5410 C   0  0  0  0  0  0  0  0  0  0  0  0
    3.8303    1.8619   -3.8863 N   0  0  0  0  0  0  0  0  0  0  0  0
    2.9355    1.2646   -3.0396 C   0  0  0  0  0  0  0  0  0  0  0  0
    1.6564    1.8419   -2.8350 C   0  0  0  0  0  0  0  0  0  0  0  0
    1.3479    3.0358   -3.5471 C   0  0  0  0  0  0  0  0  0  0  0  0
    0.2653    3.5799   -3.4257 O   0  0  0  0  0  0  0  0  0  0  0  0
    0.9632    0.9944   -1.8650 C   0  0  0  0  0  0  0  0  0  0  0  0
   -0.4028    1.2221   -1.2763 C   0  0  0  0  0  0  0  0  0  0  0  0
   -1.4193    1.1077   -2.3313 N   0  0  0  0  0  0  0  0  0  0  0  0
    1.8015   -0.0119   -1.5862 C   0  0  0  0  0  0  0  0  0  0  0  0
    2.9772    0.1462   -2.2710 N   0  0  0  0  0  0  0  0  0  0  0  0
    4.4449    3.5415   -5.3892 N   0  0  0  0  0  0  0  0  0  0  0  0
  1  6  1  0  0  0  0
  2  1  1  0  0  0  0
  2  3  2  0  0  0  0
  3  4  1  0  0  0  0
  4  5  2  0  0  0  0
  4 12  1  0  0  0  0
  5  8  1  0  0  0  0
  6  7  2  0  0  0  0
  6  5  1  0  0  0  0
  8 11  2  0  0  0  0
  8  9  1  0  0  0  0
 10  9  1  0  0  0  0
 12 11  1  0  0  0  0
 13  2  1  0  0  0  0
M  END
>  <CHROM.1>
66.08957786,-89.65445691,1.83692940,1.96765524,-3.14305358,0.69856533,0.27011061
-0.62639605

>  <Name>
lig.pdb

>  <RI>
1.77584e+07

>  <Rbt.Current_Directory>
/home/itssahil/PROJECTS/Mol_Feturizer/New_Systems/rnas/2l1v

>  <Rbt.Executable>
rbdock ($Id: //depot/dev/client3/rdock/2013.1/src/exe/rbdock.cxx#4 $)

>  <Rbt.Library>
libRbt.so (2013.1, Build901 2013/11/27)

>  <Rbt.Parameter_File>
/export/apps/rDock/src/rDock_2013.1_src/data/scripts/dock_solv.prm

>  <Rbt.Receptor>
prm/blind_docking_80.prm

>  <SCORE>
-64.1428

>  <SCORE.INTER>
-65.1138

>  <SCORE.INTER.CONST>
1

>  <SCORE.INTER.POLAR>
-6.71849

>  <SCORE.INTER.ROT>
2

>  <SCORE.INTER.SOLV>
18.6506

>  <SCORE.INTER.VDW>
-32.1644

>  <SCORE.INTER.norm>
-5.00875

>  <SCORE.INTRA>
0.970977

>  <SCORE.INTRA.DIHEDRAL>
0.107438

>  <SCORE.INTRA.DIHEDRAL.0>
1.43995

>  <SCORE.INTRA.POLAR>
0.272593

>  <SCORE.INTRA.POLAR.0>
-0.272593

>  <SCORE.INTRA.REPUL>
0

>  <SCORE.INTRA.REPUL.0>
0

>  <SCORE.INTRA.SOLV>
-0.0987545

>  <SCORE.INTRA.SOLV.lig_0>
-22.6728

>  <SCORE.INTRA.VDW>
0.03982

>  <SCORE.INTRA.VDW.0>
-0.754459

>  <SCORE.INTRA.norm>
0.0746905

>  <SCORE.RESTR>
0

>  <SCORE.RESTR.CAVITY>
0

>  <SCORE.RESTR.norm>
0

>  <SCORE.SYSTEM>
0

>  <SCORE.SYSTEM.CONST>
0

>  <SCORE.SYSTEM.DIHEDRAL>
0

>  <SCORE.SYSTEM.SOLV>
0

>  <SCORE.SYSTEM.norm>
0

>  <SCORE.heavy>
13

>  <SCORE.norm>
-4.93406

>  <RMSD>
0.369

$$$$
lig.pdb
 OpenBabel11021811453D
libRbt.so/2013.1/901 2013/11/27
 13 14  0  0  0  0  0  0  0  0999 V2000
    2.2962    3.5543   -4.3804 N   0  0  0  0  0  0  0  0  0  0  0  0
    3.5244    2.9623   -4.5452 C   0  0  0  0  0  0  0  0  0  0  0  0
    3.8234    1.8469   -3.8881 N   0  0  0  0  0  0  0  0  0  0  0  0
    2.9282    1.2557   -3.0376 C   0  0  0  0  0  0  0  0  0  0  0  0
    1.6521    1.8389   -2.8314 C   0  0  0  0  0  0  0  0  0  0  0  0
    1.3467    3.0321   -3.5461 C   0  0  0  0  0  0  0  0  0  0  0  0
    0.2667    3.5810   -3.4235 O   0  0  0  0  0  0  0  0  0  0  0  0
    0.9578    0.9970   -1.8573 C   0  0  0  0  0  0  0  0  0  0  0  0
   -0.4058    1.2320   -1.2658 C   0  0  0  0  0  0  0  0  0  0  0  0
   -1.4266    1.1049   -2.3152 N   0  0  0  0  0  0  0  0  0  0  0  0
    1.7927   -0.0119   -1.5777 C   0  0  0  0  0  0  0  0  0  0  0  0
    2.9673    0.1394   -2.2658 N   0  0  0  0  0  0  0  0  0  0  0  0
    4.4411    3.5197   -5.3973 N   0  0  0  0  0  0  0  0  0  0  0  0
  1  6  1  0  0  0  0
  2  1  1  0  0  0  0
  2  3  2  0  0  0  0
  3  4  1  0  0  0  0
  4  5  2  0  0  0  0
  4 12  1  0  0  0  0
  5  8  1  0  0  0  0
  6  7  2  0  0  0  0
  6  5  1  0  0  0  0
  8 11  2  0  0  0  0
  8  9  1  0  0  0  0
 10  9  1  0  0  0  0
 12 11  1  0  0  0  0
 13  2  1  0  0  0  0
M  END
>  <CHROM.1>
66.68059133,91.81606456,1.83246317,1.96166760,-3.14020230,0.69779146,0.27402575
-0.62835173

>  <Name>
lig.pdb

>  <RI>
2.86608e+07

>  <Rbt.Current_Directory>
/home/itssahil/PROJECTS/Mol_Feturizer/New_Systems/rnas/2l1v

>  <Rbt.Executable>
rbdock ($Id: //depot/dev/client3/rdock/2013.1/src/exe/rbdock.cxx#4 $)

>  <Rbt.Library>
libRbt.so (2013.1, Build901 2013/11/27)

>  <Rbt.Parameter_File>
/export/apps/rDock/src/rDock_2013.1_src/data/scripts/dock_solv.prm

>  <Rbt.Receptor>
prm/pocket_docking_7.prm

>  <SCORE>
-64.277

>  <SCORE.INTER>
-65.181

>  <SCORE.INTER.CONST>
1

>  <SCORE.INTER.POLAR>
-6.70522

>  <SCORE.INTER.ROT>
2

>  <SCORE.INTER.SOLV>
18.6236

>  <SCORE.INTER.VDW>
-32.2445

>  <SCORE.INTER.norm>
-5.01392

>  <SCORE.INTRA>
0.903946

>  <SCORE.INTRA.DIHEDRAL>
-0.0145199

>  <SCORE.INTRA.DIHEDRAL.0>
1.43995

>  <SCORE.INTRA.POLAR>
0.272593

>  <SCORE.INTRA.POLAR.0>
-0.272593

>  <SCORE.INTRA.REPUL>
0

>  <SCORE.INTRA.REPUL.0>
0

>  <SCORE.INTRA.SOLV>
-0.101571

>  <SCORE.INTRA.SOLV.lig_0>
-22.6728

>  <SCORE.INTRA.VDW>
0.0351763

>  <SCORE.INTRA.VDW.0>
-0.754459

>  <SCORE.INTRA.norm>
0.0695343

>  <SCORE.RESTR>
0

>  <SCORE.RESTR.CAVITY>
0

>  <SCORE.RESTR.norm>
0

>  <SCORE.SYSTEM>
0

>  <SCORE.SYSTEM.CONST>
0

>  <SCORE.SYSTEM.DIHEDRAL>
0

>  <SCORE.SYSTEM.SOLV>
0

>  <SCORE.SYSTEM.norm>
0

>  <SCORE.heavy>
13

>  <SCORE.norm>
-4.94439

>  <RMSD>
0.369

$$$$
lig.pdb
 OpenBabel11021811453D
libRbt.so/2013.1/901 2013/11/27
 13 14  0  0  0  0  0  0  0  0999 V2000
    2.2994    3.5588   -4.3642 N   0  0  0  0  0  0  0  0  0  0  0  0
    3.5267    2.9665   -4.5351 C   0  0  0  0  0  0  0  0  0  0  0  0
    3.8251    1.8460   -3.8867 N   0  0  0  0  0  0  0  0  0  0  0  0
    2.9304    1.2496   -3.0392 C   0  0  0  0  0  0  0  0  0  0  0  0
    1.6553    1.8329   -2.8269 C   0  0  0  0  0  0  0  0  0  0  0  0
    1.3504    3.0317   -3.5323 C   0  0  0  0  0  0  0  0  0  0  0  0
    0.2713    3.5811   -3.4042 O   0  0  0  0  0  0  0  0  0  0  0  0
    0.9614    0.9847   -1.8580 C   0  0  0  0  0  0  0  0  0  0  0  0
   -0.4010    1.2171   -1.2629 C   0  0  0  0  0  0  0  0  0  0  0  0
   -1.4231    1.1044   -2.3127 N   0  0  0  0  0  0  0  0  0  0  0  0
    1.7953   -0.0273   -1.5871 C   0  0  0  0  0  0  0  0  0  0  0  0
    2.9691    0.1276   -2.2758 N   0  0  0  0  0  0  0  0  0  0  0  0
    4.4428    3.5291   -5.3844 N   0  0  0  0  0  0  0  0  0  0  0  0
  1  6  1  0  0  0  0
  2  1  1  0  0  0  0
  2  3  2  0  0  0  0
  3  4  1  0  0  0  0
  4  5  2  0  0  0  0
  4 12  1  0  0  0  0
  5  8  1  0  0  0  0
  6  7  2  0  0  0  0
  6  5  1  0  0  0  0
  8 11  2  0  0  0  0
  8  9  1  0  0  0  0
 10  9  1  0  0  0  0
 12 11  1  0  0  0  0
 13  2  1  0  0  0  0
M  END
>  <CHROM.1>
66.45321394,91.81272123,1.83546350,1.95820390,-3.13517183,0.69729312,0.27610217
-0.62107686

>  <Name>
lig.pdb

>  <RI>
0

>  <Rbt.Current_Directory>
/home/itssahil/PROJECTS/Mol_Feturizer/New_Systems/rnas/2l1v

>  <Rbt.Executable>
rbdock ($Id: //depot/dev/client3/rdock/2013.1/src/exe/rbdock.cxx#4 $)

>  <Rbt.Library>
libRbt.so (2013.1, Build901 2013/11/27)

>  <Rbt.Parameter_File>
/export/apps/rDock/src/rDock_2013.1_src/data/scripts/dock_solv.prm

>  <Rbt.Receptor>
prm/pocket_docking_3.prm

>  <SCORE>
-64.2801

>  <SCORE.INTER>
-65.1824

>  <SCORE.INTER.CONST>
1

>  <SCORE.INTER.POLAR>
-6.71945

>  <SCORE.INTER.ROT>
2

>  <SCORE.INTER.SOLV>
18.615

>  <SCORE.INTER.VDW>
-32.1951

>  <SCORE.INTER.norm>
-5.01403

>  <SCORE.INTRA>
0.90234

>  <SCORE.INTRA.DIHEDRAL>
-0.0183568

>  <SCORE.INTRA.DIHEDRAL.0>
1.43995

>  <SCORE.INTRA.POLAR>
0.272593

>  <SCORE.INTRA.POLAR.0>
-0.272593

>  <SCORE.INTRA.REPUL>
0

>  <SCORE.INTRA.REPUL.0>
0

>  <SCORE.INTRA.SOLV>
-0.0993564

>  <SCORE.INTRA.SOLV.lig_0>
-22.6728

>  <SCORE.INTRA.VDW>
0.0343816

>  <SCORE.INTRA.VDW.0>
-0.754459

>  <SCORE.INTRA.norm>
0.0694108

>  <SCORE.RESTR>
0

>  <SCORE.RESTR.CAVITY>
0

>  <SCORE.RESTR.norm>
0

>  <SCORE.SYSTEM>
0

>  <SCORE.SYSTEM.CONST>
0

>  <SCORE.SYSTEM.DIHEDRAL>
0

>  <SCORE.SYSTEM.SOLV>
0

>  <SCORE.SYSTEM.norm>
0

>  <SCORE.heavy>
13

>  <SCORE.norm>
-4.94462

>  <RMSD>
0.370

$$$$
lig.pdb
 OpenBabel11021811453D
libRbt.so/2013.1/901 2013/11/27
 13 14  0  0  0  0  0  0  0  0999 V2000
    2.3036    3.5600   -4.3650 N   0  0  0  0  0  0  0  0  0  0  0  0
    3.5332    2.9712   -4.5310 C   0  0  0  0  0  0  0  0  0  0  0  0
    3.8328    1.8524   -3.8803 N   0  0  0  0  0  0  0  0  0  0  0  0
    2.9370    1.2543   -3.0351 C   0  0  0  0  0  0  0  0  0  0  0  0
    1.6594    1.8340   -2.8279 C   0  0  0  0  0  0  0  0  0  0  0  0
    1.3533    3.0310   -3.5358 C   0  0  0  0  0  0  0  0  0  0  0  0
    0.2721    3.5773   -3.4120 O   0  0  0  0  0  0  0  0  0  0  0  0
    0.9647    0.9848   -1.8604 C   0  0  0  0  0  0  0  0  0  0  0  0
   -0.4004    1.2138   -1.2702 C   0  0  0  0  0  0  0  0  0  0  0  0
   -1.4176    1.1071   -2.3254 N   0  0  0  0  0  0  0  0  0  0  0  0
    1.8008   -0.0243   -1.5854 C   0  0  0  0  0  0  0  0  0  0  0  0
    2.9765    0.1333   -2.2702 N   0  0  0  0  0  0  0  0  0  0  0  0
    4.4506    3.5356   -5.3778 N   0  0  0  0  0  0  0  0  0  0  0  0
  1  6  1  0  0  0  0
  2  1  1  0  0  0  0
  2  3  2  0  0  0  0
  3  4  1  0  0  0  0
  4  5  2  0  0  0  0
  4 12  1  0  0  0  0
  5  8  1  0  0  0  0
  6  7  2  0  0  0  0
  6  5  1  0  0  0  0
  8 11  2  0  0  0  0
  8  9  1  0  0  0  0
 10  9  1  0  0  0  0
 12 11  1  0  0  0  0
 13  2  1  0  0  0  0
M  END
>  <CHROM.1>
66.01354988,-89.74315652,1.84007096,1.96051636,-3.13564064,0.69679228,0.27195894
-0.62263181

>  <Name>
lig.pdb

>  <RI>
4.02536e+07

>  <Rbt.Current_Directory>
/home/itssahil/PROJECTS/Mol_Feturizer/New_Systems/rnas/2l1v

>  <Rbt.Executable>
rbdock ($Id: //depot/dev/client3/rdock/2013.1/src/exe/rbdock.cxx#4 $)

>  <Rbt.Library>
libRbt.so (2013.1, Build901 2013/11/27)

>  <Rbt.Parameter_File>
/export/apps/rDock/src/rDock_2013.1_src/data/scripts/dock_solv.prm

>  <Rbt.Receptor>
prm/blind_docking_40.prm

>  <SCORE>
-64.1274

>  <SCORE.INTER>
-65.0979

>  <SCORE.INTER.CONST>
1

>  <SCORE.INTER.POLAR>
-6.73007

>  <SCORE.INTER.ROT>
2

>  <SCORE.INTER.SOLV>
18.6247

>  <SCORE.INTER.VDW>
-32.1066

>  <SCORE.INTER.norm>
-5.00753

>  <SCORE.INTRA>
0.970575

>  <SCORE.INTRA.DIHEDRAL>
0.106291

>  <SCORE.INTRA.DIHEDRAL.0>
1.43995

>  <SCORE.INTRA.POLAR>
0.272593

>  <SCORE.INTRA.POLAR.0>
-0.272593

>  <SCORE.INTRA.REPUL>
0

>  <SCORE.INTRA.REPUL.0>
0

>  <SCORE.INTRA.SOLV>
-0.098055

>  <SCORE.INTRA.SOLV.lig_0>
-22.6728

>  <SCORE.INTRA.VDW>
0.0396418

>  <SCORE.INTRA.VDW.0>
-0.754459

>  <SCORE.INTRA.norm>
0.0746596

>  <SCORE.RESTR>
0

>  <SCORE.RESTR.CAVITY>
0

>  <SCORE.RESTR.norm>
0

>  <SCORE.SYSTEM>
0

>  <SCORE.SYSTEM.CONST>
0

>  <SCORE.SYSTEM.DIHEDRAL>
0

>  <SCORE.SYSTEM.SOLV>
0

>  <SCORE.SYSTEM.norm>
0

>  <SCORE.heavy>
13

>  <SCORE.norm>
-4.93287

>  <RMSD>
0.371

$$$$
lig.pdb
 OpenBabel11021811453D
libRbt.so/2013.1/901 2013/11/27
 13 14  0  0  0  0  0  0  0  0999 V2000
    2.2961    3.5598   -4.3707 N   0  0  0  0  0  0  0  0  0  0  0  0
    3.5234    2.9668   -4.5381 C   0  0  0  0  0  0  0  0  0  0  0  0
    3.8204    1.8475   -3.8869 N   0  0  0  0  0  0  0  0  0  0  0  0
    2.9240    1.2532   -3.0399 C   0  0  0  0  0  0  0  0  0  0  0  0
    1.6487    1.8372   -2.8311 C   0  0  0  0  0  0  0  0  0  0  0  0
    1.3454    3.0346   -3.5395 C   0  0  0  0  0  0  0  0  0  0  0  0
    0.2662    3.5846   -3.4144 O   0  0  0  0  0  0  0  0  0  0  0  0
    0.9527    0.9911   -1.8617 C   0  0  0  0  0  0  0  0  0  0  0  0
   -0.4107    1.2252   -1.2695 C   0  0  0  0  0  0  0  0  0  0  0  0
   -1.4312    1.1061   -2.3202 N   0  0  0  0  0  0  0  0  0  0  0  0
    1.7859   -0.0205   -1.5873 C   0  0  0  0  0  0  0  0  0  0  0  0
    2.9610    0.1326   -2.2741 N   0  0  0  0  0  0  0  0  0  0  0  0
    4.4413    3.5274   -5.3869 N   0  0  0  0  0  0  0  0  0  0  0  0
  1  6  1  0  0  0  0
  2  1  1  0  0  0  0
  2  3  2  0  0  0  0
  3  4  1  0  0  0  0
  4  5  2  0  0  0  0
  4 12  1  0  0  0  0
  5  8  1  0  0  0  0
  6  7  2  0  0  0  0
  6  5  1  0  0  0  0
  8 11  2  0  0  0  0
  8  9  1  0  0  0  0
 10  9  1  0  0  0  0
 12 11  1  0  0  0  0
 13  2  1  0  0  0  0
M  END
>  <CHROM.1>
66.64001460,91.65730526,1.82937311,1.96140922,-3.13918440,0.69619334,0.27464304
-0.62262212

>  <Name>
lig.pdb

>  <RI>
4.02536e+07

>  <Rbt.Current_Directory>
/home/itssahil/PROJECTS/Mol_Feturizer/New_Systems/rnas/2l1v

>  <Rbt.Executable>
rbdock ($Id: //depot/dev/client3/rdock/2013.1/src/exe/rbdock.cxx#4 $)

>  <Rbt.Library>
libRbt.so (2013.1, Build901 2013/11/27)

>  <Rbt.Parameter_File>
/export/apps/rDock/src/rDock_2013.1_src/data/scripts/dock_solv.prm

>  <Rbt.Receptor>
prm/blind_docking_40.prm

>  <SCORE>
-64.2766

>  <SCORE.INTER>
-65.1803

>  <SCORE.INTER.CONST>
1

>  <SCORE.INTER.POLAR>
-6.70979

>  <SCORE.INTER.ROT>
2

>  <SCORE.INTER.SOLV>
18.6434

>  <SCORE.INTER.VDW>
-32.2354

>  <SCORE.INTER.norm>
-5.01387

>  <SCORE.INTRA>
0.90371

>  <SCORE.INTRA.DIHEDRAL>
-0.0152955

>  <SCORE.INTRA.DIHEDRAL.0>
1.43995

>  <SCORE.INTRA.POLAR>
0.272593

>  <SCORE.INTRA.POLAR.0>
-0.272593

>  <SCORE.INTRA.REPUL>
0

>  <SCORE.INTRA.REPUL.0>
0

>  <SCORE.INTRA.SOLV>
-0.101227

>  <SCORE.INTRA.SOLV.lig_0>
-22.6728

>  <SCORE.INTRA.VDW>
0.0351557

>  <SCORE.INTRA.VDW.0>
-0.754459

>  <SCORE.INTRA.norm>
0.0695161

>  <SCORE.RESTR>
0

>  <SCORE.RESTR.CAVITY>
0

>  <SCORE.RESTR.norm>
0

>  <SCORE.SYSTEM>
0

>  <SCORE.SYSTEM.CONST>
0

>  <SCORE.SYSTEM.DIHEDRAL>
0

>  <SCORE.SYSTEM.SOLV>
0

>  <SCORE.SYSTEM.norm>
0

>  <SCORE.heavy>
13

>  <SCORE.norm>
-4.94436

>  <RMSD>
0.371

$$$$
lig.pdb
 OpenBabel11021811453D
libRbt.so/2013.1/901 2013/11/27
 13 14  0  0  0  0  0  0  0  0999 V2000
    2.2939    3.5601   -4.3706 N   0  0  0  0  0  0  0  0  0  0  0  0
    3.5158    2.9569   -4.5421 C   0  0  0  0  0  0  0  0  0  0  0  0
    3.8034    1.8321   -3.8964 N   0  0  0  0  0  0  0  0  0  0  0  0
    2.9026    1.2419   -3.0510 C   0  0  0  0  0  0  0  0  0  0  0  0
    1.6328    1.8363   -2.8382 C   0  0  0  0  0  0  0  0  0  0  0  0
    1.3394    3.0396   -3.5409 C   0  0  0  0  0  0  0  0  0  0  0  0
    0.2653    3.5986   -3.4121 O   0  0  0  0  0  0  0  0  0  0  0  0
    0.9303    0.9921   -1.8720 C   0  0  0  0  0  0  0  0  0  0  0  0
   -0.4304    1.2355   -1.2773 C   0  0  0  0  0  0  0  0  0  0  0  0
   -1.4547    1.1125   -2.3238 N   0  0  0  0  0  0  0  0  0  0  0  0
    1.7547   -0.0282   -1.6030 C   0  0  0  0  0  0  0  0  0  0  0  0
    2.9304    0.1176   -2.2904 N   0  0  0  0  0  0  0  0  0  0  0  0
    4.4377    3.5132   -5.3893 N   0  0  0  0  0  0  0  0  0  0  0  0
  1  6  1  0  0  0  0
  2  1  1  0  0  0  0
  2  3  2  0  0  0  0
  3  4  1  0  0  0  0
  4  5  2  0  0  0  0
  4 12  1  0  0  0  0
  5  8  1  0  0  0  0
  6  7  2  0  0  0  0
  6  5  1  0  0  0  0
  8 11  2  0  0  0  0
  8  9  1  0  0  0  0
 10  9  1  0  0  0  0
 12 11  1  0  0  0  0
 13  2  1  0  0  0  0
M  END
>  <CHROM.1>
67.39885261,90.39036769,1.81408056,1.95864078,-3.14562684,0.69023663,0.28019737
-0.61561602

>  <Name>
lig.pdb

>  <RI>
1.459e+07

>  <Rbt.Current_Directory>
/home/itssahil/PROJECTS/Mol_Feturizer/New_Systems/rnas/2l1v

>  <Rbt.Executable>
rbdock ($Id: //depot/dev/client3/rdock/2013.1/src/exe/rbdock.cxx#4 $)

>  <Rbt.Library>
libRbt.so (2013.1, Build901 2013/11/27)

>  <Rbt.Parameter_File>
/export/apps/rDock/src/rDock_2013.1_src/data/scripts/dock_solv.prm

>  <Rbt.Receptor>
prm/pocket_docking_2.prm

>  <SCORE>
-64.2841

>  <SCORE.INTER>
-65.1942

>  <SCORE.INTER.CONST>
1

>  <SCORE.INTER.POLAR>
-6.68378

>  <SCORE.INTER.ROT>
2

>  <SCORE.INTER.SOLV>
18.734

>  <SCORE.INTER.VDW>
-32.3616

>  <SCORE.INTER.norm>
-5.01494

>  <SCORE.INTRA>
0.910157

>  <SCORE.INTRA.DIHEDRAL>
-0.00198881

>  <SCORE.INTRA.DIHEDRAL.0>
1.43995

>  <SCORE.INTRA.POLAR>
0.272593

>  <SCORE.INTRA.POLAR.0>
-0.272593

>  <SCORE.INTRA.REPUL>
0

>  <SCORE.INTRA.REPUL.0>
0

>  <SCORE.INTRA.SOLV>
-0.109056

>  <SCORE.INTRA.SOLV.lig_0>
-22.6728

>  <SCORE.INTRA.VDW>
0.0388646

>  <SCORE.INTRA.VDW.0>
-0.754459

>  <SCORE.INTRA.norm>
0.0700121

>  <SCORE.RESTR>
0

>  <SCORE.RESTR.CAVITY>
0

>  <SCORE.RESTR.norm>
0

>  <SCORE.SYSTEM>
0

>  <SCORE.SYSTEM.CONST>
0

>  <SCORE.SYSTEM.DIHEDRAL>
0

>  <SCORE.SYSTEM.SOLV>
0

>  <SCORE.SYSTEM.norm>
0

>  <SCORE.heavy>
13

>  <SCORE.norm>
-4.94493

>  <RMSD>
0.371

$$$$
lig.pdb
 OpenBabel11021811453D
libRbt.so/2013.1/901 2013/11/27
 13 14  0  0  0  0  0  0  0  0999 V2000
    2.2881    3.5336   -4.3682 N   0  0  0  0  0  0  0  0  0  0  0  0
    3.5214    2.9478   -4.5162 C   0  0  0  0  0  0  0  0  0  0  0  0
    3.8183    1.8360   -3.8522 N   0  0  0  0  0  0  0  0  0  0  0  0
    2.9160    1.2425   -3.0108 C   0  0  0  0  0  0  0  0  0  0  0  0
    1.6344    1.8194   -2.8220 C   0  0  0  0  0  0  0  0  0  0  0  0
    1.3313    3.0087   -3.5439 C   0  0  0  0  0  0  0  0  0  0  0  0
    0.2469    3.5521   -3.4362 O   0  0  0  0  0  0  0  0  0  0  0  0
    0.9328    0.9765   -1.8539 C   0  0  0  0  0  0  0  0  0  0  0  0
   -0.4391    1.2059   -1.2798 C   0  0  0  0  0  0  0  0  0  0  0  0
   -1.4424    1.1154   -2.3497 N   0  0  0  0  0  0  0  0  0  0  0  0
    1.7696   -0.0270   -1.5612 C   0  0  0  0  0  0  0  0  0  0  0  0
    2.9517    0.1286   -2.2353 N   0  0  0  0  0  0  0  0  0  0  0  0
    4.4454    3.5077   -5.3588 N   0  0  0  0  0  0  0  0  0  0  0  0
  1  6  1  0  0  0  0
  2  1  1  0  0  0  0
  2  3  2  0  0  0  0
  3  4  1  0  0  0  0
  4  5  2  0  0  0  0
  4 12  1  0  0  0  0
  5  8  1  0  0  0  0
  6  7  2  0  0  0  0
  6  5  1  0  0  0  0
  8 11  2  0  0  0  0
  8  9  1  0  0  0  0
 10  9  1  0  0  0  0
 12 11  1  0  0  0  0
 13  2  1  0  0  0  0
M  END
>  <CHROM.1>
64.76684264,-89.88783695,1.81793186,1.94646139,-3.12952130,0.69197305,0.26251898
-0.63173498

>  <Name>
lig.pdb

>  <RI>
1.459e+07

>  <Rbt.Current_Directory>
/home/itssahil/PROJECTS/Mol_Feturizer/New_Systems/rnas/2l1v

>  <Rbt.Executable>
rbdock ($Id: //depot/dev/client3/rdock/2013.1/src/exe/rbdock.cxx#4 $)

>  <Rbt.Library>
libRbt.so (2013.1, Build901 2013/11/27)

>  <Rbt.Parameter_File>
/export/apps/rDock/src/rDock_2013.1_src/data/scripts/dock_solv.prm

>  <Rbt.Receptor>
prm/pocket_docking_2.prm

>  <SCORE>
-64.1484

>  <SCORE.INTER>
-65.1127

>  <SCORE.INTER.CONST>
1

>  <SCORE.INTER.POLAR>
-6.71574

>  <SCORE.INTER.ROT>
2

>  <SCORE.INTER.SOLV>
18.6035

>  <SCORE.INTER.VDW>
-32.1572

>  <SCORE.INTER.norm>
-5.00867

>  <SCORE.INTRA>
0.964359

>  <SCORE.INTRA.DIHEDRAL>
0.0895622

>  <SCORE.INTRA.DIHEDRAL.0>
1.43995

>  <SCORE.INTRA.POLAR>
0.272593

>  <SCORE.INTRA.POLAR.0>
-0.272593

>  <SCORE.INTRA.REPUL>
0

>  <SCORE.INTRA.REPUL.0>
0

>  <SCORE.INTRA.SOLV>
-0.0861

>  <SCORE.INTRA.SOLV.lig_0>
-22.6728

>  <SCORE.INTRA.VDW>
0.035813

>  <SCORE.INTRA.VDW.0>
-0.754459

>  <SCORE.INTRA.norm>
0.0741815

>  <SCORE.RESTR>
0

>  <SCORE.RESTR.CAVITY>
0

>  <SCORE.RESTR.norm>
0

>  <SCORE.SYSTEM>
0

>  <SCORE.SYSTEM.CONST>
0

>  <SCORE.SYSTEM.DIHEDRAL>
0

>  <SCORE.SYSTEM.SOLV>
0

>  <SCORE.SYSTEM.norm>
0

>  <SCORE.heavy>
13

>  <SCORE.norm>
-4.93449

>  <RMSD>
0.371

$$$$
lig.pdb
 OpenBabel11021811453D
libRbt.so/2013.1/901 2013/11/27
 13 14  0  0  0  0  0  0  0  0999 V2000
    2.3154    3.5452   -4.3207 N   0  0  0  0  0  0  0  0  0  0  0  0
    3.5372    2.9468   -4.5082 C   0  0  0  0  0  0  0  0  0  0  0  0
    3.8304    1.8128   -3.8812 N   0  0  0  0  0  0  0  0  0  0  0  0
    2.9354    1.2083   -3.0399 C   0  0  0  0  0  0  0  0  0  0  0  0
    1.6658    1.7972   -2.8109 C   0  0  0  0  0  0  0  0  0  0  0  0
    1.3665    3.0105   -3.4936 C   0  0  0  0  0  0  0  0  0  0  0  0
    0.2922    3.5656   -3.3503 O   0  0  0  0  0  0  0  0  0  0  0  0
    0.9702    0.9372   -1.8537 C   0  0  0  0  0  0  0  0  0  0  0  0
   -0.3875    1.1692   -1.2477 C   0  0  0  0  0  0  0  0  0  0  0  0
   -1.4140    1.0975   -2.2967 N   0  0  0  0  0  0  0  0  0  0  0  0
    1.7978   -0.0856   -1.6049 C   0  0  0  0  0  0  0  0  0  0  0  0
    2.9694    0.0727   -2.2966 N   0  0  0  0  0  0  0  0  0  0  0  0
    4.4534    3.5175   -5.3521 N   0  0  0  0  0  0  0  0  0  0  0  0
  1  6  1  0  0  0  0
  2  1  1  0  0  0  0
  2  3  2  0  0  0  0
  3  4  1  0  0  0  0
  4  5  2  0  0  0  0
  4 12  1  0  0  0  0
  5  8  1  0  0  0  0
  6  7  2  0  0  0  0
  6  5  1  0  0  0  0
  8 11  2  0  0  0  0
  8  9  1  0  0  0  0
 10  9  1  0  0  0  0
 12 11  1  0  0  0  0
 13  2  1  0  0  0  0
M  END
>  <CHROM.1>
65.82954093,91.63903876,1.84548956,1.92797172,-3.11806712,0.69305474,0.28492585
-0.60286879

>  <Name>
lig.pdb

>  <RI>
1.75485e+07

>  <Rbt.Current_Directory>
/home/itssahil/PROJECTS/Mol_Feturizer/New_Systems/rnas/2l1v

>  <Rbt.Executable>
rbdock ($Id: //depot/dev/client3/rdock/2013.1/src/exe/rbdock.cxx#4 $)

>  <Rbt.Library>
libRbt.so (2013.1, Build901 2013/11/27)

>  <Rbt.Parameter_File>
/export/apps/rDock/src/rDock_2013.1_src/data/scripts/dock_solv.prm

>  <Rbt.Receptor>
prm/pocket_docking_4.prm

>  <SCORE>
-64.173

>  <SCORE.INTER>
-65.0958

>  <SCORE.INTER.CONST>
1

>  <SCORE.INTER.POLAR>
-6.75582

>  <SCORE.INTER.ROT>
2

>  <SCORE.INTER.SOLV>
18.5472

>  <SCORE.INTER.VDW>
-31.9935

>  <SCORE.INTER.norm>
-5.00737

>  <SCORE.INTRA>
0.89843

>  <SCORE.INTRA.DIHEDRAL>
-0.0281962

>  <SCORE.INTRA.DIHEDRAL.0>
1.43995

>  <SCORE.INTRA.POLAR>
0.272593

>  <SCORE.INTRA.POLAR.0>
-0.272593

>  <SCORE.INTRA.REPUL>
0

>  <SCORE.INTRA.REPUL.0>
0

>  <SCORE.INTRA.SOLV>
-0.0933506

>  <SCORE.INTRA.SOLV.lig_0>
-22.6728

>  <SCORE.INTRA.VDW>
0.0323883

>  <SCORE.INTRA.VDW.0>
-0.754459

>  <SCORE.INTRA.norm>
0.06911

>  <SCORE.RESTR>
0.024403

>  <SCORE.RESTR.CAVITY>
0.024403

>  <SCORE.RESTR.norm>
0.00187716

>  <SCORE.SYSTEM>
0

>  <SCORE.SYSTEM.CONST>
0

>  <SCORE.SYSTEM.DIHEDRAL>
0

>  <SCORE.SYSTEM.SOLV>
0

>  <SCORE.SYSTEM.norm>
0

>  <SCORE.heavy>
13

>  <SCORE.norm>
-4.93638

>  <RMSD>
0.371

$$$$
lig.pdb
 OpenBabel11021811453D
libRbt.so/2013.1/901 2013/11/27
 13 14  0  0  0  0  0  0  0  0999 V2000
    2.2881    3.5472   -4.3802 N   0  0  0  0  0  0  0  0  0  0  0  0
    3.5204    2.9599   -4.5310 C   0  0  0  0  0  0  0  0  0  0  0  0
    3.8180    1.8487   -3.8664 N   0  0  0  0  0  0  0  0  0  0  0  0
    2.9175    1.2571   -3.0218 C   0  0  0  0  0  0  0  0  0  0  0  0
    1.6369    1.8356   -2.8300 C   0  0  0  0  0  0  0  0  0  0  0  0
    1.3330    3.0244   -3.5526 C   0  0  0  0  0  0  0  0  0  0  0  0
    0.2496    3.5690   -3.4425 O   0  0  0  0  0  0  0  0  0  0  0  0
    0.9372    0.9947   -1.8589 C   0  0  0  0  0  0  0  0  0  0  0  0
   -0.4328    1.2262   -1.2812 C   0  0  0  0  0  0  0  0  0  0  0  0
   -1.4414    1.1113   -2.3438 N   0  0  0  0  0  0  0  0  0  0  0  0
    1.7738   -0.0094   -1.5673 C   0  0  0  0  0  0  0  0  0  0  0  0
    2.9541    0.1442   -2.2450 N   0  0  0  0  0  0  0  0  0  0  0  0
    4.4426    3.5178   -5.3768 N   0  0  0  0  0  0  0  0  0  0  0  0
  1  6  1  0  0  0  0
  2  1  1  0  0  0  0
  2  3  2  0  0  0  0
  3  4  1  0  0  0  0
  4  5  2  0  0  0  0
  4 12  1  0  0  0  0
  5  8  1  0  0  0  0
  6  7  2  0  0  0  0
  6  5  1  0  0  0  0
  8 11  2  0  0  0  0
  8  9  1  0  0  0  0
 10  9  1  0  0  0  0
 12 11  1  0  0  0  0
 13  2  1  0  0  0  0
M  END
>  <CHROM.1>
65.78450182,-90.00484290,1.81957801,1.95986039,-3.13783377,0.69414330,0.26463044
-0.63255350

>  <Name>
lig.pdb

>  <RI>
0

>  <Rbt.Current_Directory>
/home/itssahil/PROJECTS/Mol_Feturizer/New_Systems/rnas/2l1v

>  <Rbt.Executable>
rbdock ($Id: //depot/dev/client3/rdock/2013.1/src/exe/rbdock.cxx#4 $)

>  <Rbt.Library>
libRbt.so (2013.1, Build901 2013/11/27)

>  <Rbt.Parameter_File>
/export/apps/rDock/src/rDock_2013.1_src/data/scripts/dock_solv.prm

>  <Rbt.Receptor>
prm/pocket_docking_3.prm

>  <SCORE>
-64.1336

>  <SCORE.INTER>
-65.103

>  <SCORE.INTER.CONST>
1

>  <SCORE.INTER.POLAR>
-6.70332

>  <SCORE.INTER.ROT>
2

>  <SCORE.INTER.SOLV>
18.6469

>  <SCORE.INTER.VDW>
-32.2065

>  <SCORE.INTER.norm>
-5.00792

>  <SCORE.INTRA>
0.969414

>  <SCORE.INTRA.DIHEDRAL>
0.102927

>  <SCORE.INTRA.DIHEDRAL.0>
1.43995

>  <SCORE.INTRA.POLAR>
0.272593

>  <SCORE.INTRA.POLAR.0>
-0.272593

>  <SCORE.INTRA.REPUL>
0

>  <SCORE.INTRA.REPUL.0>
0

>  <SCORE.INTRA.SOLV>
-0.0959492

>  <SCORE.INTRA.SOLV.lig_0>
-22.6728

>  <SCORE.INTRA.VDW>
0.0391107

>  <SCORE.INTRA.VDW.0>
-0.754459

>  <SCORE.INTRA.norm>
0.0745703

>  <SCORE.RESTR>
0

>  <SCORE.RESTR.CAVITY>
0

>  <SCORE.RESTR.norm>
0

>  <SCORE.SYSTEM>
0

>  <SCORE.SYSTEM.CONST>
0

>  <SCORE.SYSTEM.DIHEDRAL>
0

>  <SCORE.SYSTEM.SOLV>
0

>  <SCORE.SYSTEM.norm>
0

>  <SCORE.heavy>
13

>  <SCORE.norm>
-4.93335

>  <RMSD>
0.372

$$$$
lig.pdb
 OpenBabel11021811453D
libRbt.so/2013.1/901 2013/11/27
 13 14  0  0  0  0  0  0  0  0999 V2000
    2.3161    3.5459   -4.3211 N   0  0  0  0  0  0  0  0  0  0  0  0
    3.5363    2.9437   -4.5073 C   0  0  0  0  0  0  0  0  0  0  0  0
    3.8250    1.8085   -3.8804 N   0  0  0  0  0  0  0  0  0  0  0  0
    2.9269    1.2064   -3.0406 C   0  0  0  0  0  0  0  0  0  0  0  0
    1.6589    1.7993   -2.8131 C   0  0  0  0  0  0  0  0  0  0  0  0
    1.3644    3.0139   -3.4956 C   0  0  0  0  0  0  0  0  0  0  0  0
    0.2917    3.5723   -3.3535 O   0  0  0  0  0  0  0  0  0  0  0  0
    0.9592    0.9410   -1.8573 C   0  0  0  0  0  0  0  0  0  0  0  0
   -0.3985    1.1771   -1.2530 C   0  0  0  0  0  0  0  0  0  0  0  0
   -1.4251    1.0965   -2.3014 N   0  0  0  0  0  0  0  0  0  0  0  0
    1.7833   -0.0846   -1.6078 C   0  0  0  0  0  0  0  0  0  0  0  0
    2.9563    0.0703   -2.2978 N   0  0  0  0  0  0  0  0  0  0  0  0
    4.4555    3.5119   -5.3495 N   0  0  0  0  0  0  0  0  0  0  0  0
  1  6  1  0  0  0  0
  2  1  1  0  0  0  0
  2  3  2  0  0  0  0
  3  4  1  0  0  0  0
  4  5  2  0  0  0  0
  4 12  1  0  0  0  0
  5  8  1  0  0  0  0
  6  7  2  0  0  0  0
  6  5  1  0  0  0  0
  8 11  2  0  0  0  0
  8  9  1  0  0  0  0
 10  9  1  0  0  0  0
 12 11  1  0  0  0  0
 13  2  1  0  0  0  0
M  END
>  <CHROM.1>
66.36175250,91.51220243,1.83931218,1.92843946,-3.11974706,0.69018642,0.28519598
-0.60103506

>  <Name>
lig.pdb

>  <RI>
4.15415e+07

>  <Rbt.Current_Directory>
/home/itssahil/PROJECTS/Mol_Feturizer/New_Systems/rnas/2l1v

>  <Rbt.Executable>
rbdock ($Id: //depot/dev/client3/rdock/2013.1/src/exe/rbdock.cxx#4 $)

>  <Rbt.Library>
libRbt.so (2013.1, Build901 2013/11/27)

>  <Rbt.Parameter_File>
/export/apps/rDock/src/rDock_2013.1_src/data/scripts/dock_solv.prm

>  <Rbt.Receptor>
prm/blind_docking_60.prm

>  <SCORE>
-64.1562

>  <SCORE.INTER>
-65.0822

>  <SCORE.INTER.CONST>
1

>  <SCORE.INTER.POLAR>
-6.74892

>  <SCORE.INTER.ROT>
2

>  <SCORE.INTER.SOLV>
18.5777

>  <SCORE.INTER.VDW>
-32.0176

>  <SCORE.INTER.norm>
-5.00632

>  <SCORE.INTRA>
0.901828

>  <SCORE.INTRA.DIHEDRAL>
-0.0200054

>  <SCORE.INTRA.DIHEDRAL.0>
1.43995

>  <SCORE.INTRA.POLAR>
0.272593

>  <SCORE.INTRA.POLAR.0>
-0.272593

>  <SCORE.INTRA.REPUL>
0

>  <SCORE.INTRA.REPUL.0>
0

>  <SCORE.INTRA.SOLV>
-0.0985645

>  <SCORE.INTRA.SOLV.lig_0>
-22.6728

>  <SCORE.INTRA.VDW>
0.034298

>  <SCORE.INTRA.VDW.0>
-0.754459

>  <SCORE.INTRA.norm>
0.0693714

>  <SCORE.RESTR>
0.024134

>  <SCORE.RESTR.CAVITY>
0.024134

>  <SCORE.RESTR.norm>
0.00185646

>  <SCORE.SYSTEM>
0

>  <SCORE.SYSTEM.CONST>
0

>  <SCORE.SYSTEM.DIHEDRAL>
0

>  <SCORE.SYSTEM.SOLV>
0

>  <SCORE.SYSTEM.norm>
0

>  <SCORE.heavy>
13

>  <SCORE.norm>
-4.93509

>  <RMSD>
0.373

$$$$
lig.pdb
 OpenBabel11021811453D
libRbt.so/2013.1/901 2013/11/27
 13 14  0  0  0  0  0  0  0  0999 V2000
    2.2917    3.5402   -4.3722 N   0  0  0  0  0  0  0  0  0  0  0  0
    3.5239    2.9530   -4.5239 C   0  0  0  0  0  0  0  0  0  0  0  0
    3.8220    1.8416   -3.8599 N   0  0  0  0  0  0  0  0  0  0  0  0
    2.9220    1.2497   -3.0149 C   0  0  0  0  0  0  0  0  0  0  0  0
    1.6415    1.8281   -2.8221 C   0  0  0  0  0  0  0  0  0  0  0  0
    1.3372    3.0171   -3.5441 C   0  0  0  0  0  0  0  0  0  0  0  0
    0.2537    3.5617   -3.4332 O   0  0  0  0  0  0  0  0  0  0  0  0
    0.9424    0.9869   -1.8508 C   0  0  0  0  0  0  0  0  0  0  0  0
   -0.4273    1.2182   -1.2722 C   0  0  0  0  0  0  0  0  0  0  0  0
   -1.4360    1.1089   -2.3352 N   0  0  0  0  0  0  0  0  0  0  0  0
    1.7792   -0.0173   -1.5601 C   0  0  0  0  0  0  0  0  0  0  0  0
    2.9591    0.1366   -2.2385 N   0  0  0  0  0  0  0  0  0  0  0  0
    4.4455    3.5112   -5.3702 N   0  0  0  0  0  0  0  0  0  0  0  0
  1  6  1  0  0  0  0
  2  1  1  0  0  0  0
  2  3  2  0  0  0  0
  3  4  1  0  0  0  0
  4  5  2  0  0  0  0
  4 12  1  0  0  0  0
  5  8  1  0  0  0  0
  6  7  2  0  0  0  0
  6  5  1  0  0  0  0
  8 11  2  0  0  0  0
  8  9  1  0  0  0  0
 10  9  1  0  0  0  0
 12 11  1  0  0  0  0
 13  2  1  0  0  0  0
M  END
>  <CHROM.1>
65.56374471,-89.92504478,1.82401016,1.95297065,-3.13011089,0.69426084,0.26529821
-0.63247735

>  <Name>
lig.pdb

>  <RI>
1.459e+07

>  <Rbt.Current_Directory>
/home/itssahil/PROJECTS/Mol_Feturizer/New_Systems/rnas/2l1v

>  <Rbt.Executable>
rbdock ($Id: //depot/dev/client3/rdock/2013.1/src/exe/rbdock.cxx#4 $)

>  <Rbt.Library>
libRbt.so (2013.1, Build901 2013/11/27)

>  <Rbt.Parameter_File>
/export/apps/rDock/src/rDock_2013.1_src/data/scripts/dock_solv.prm

>  <Rbt.Receptor>
prm/pocket_docking_2.prm

>  <SCORE>
-64.1575

>  <SCORE.INTER>
-65.1256

>  <SCORE.INTER.CONST>
1

>  <SCORE.INTER.POLAR>
-6.71134

>  <SCORE.INTER.ROT>
2

>  <SCORE.INTER.SOLV>
18.6016

>  <SCORE.INTER.VDW>
-32.1798

>  <SCORE.INTER.norm>
-5.00966

>  <SCORE.INTRA>
0.96813

>  <SCORE.INTRA.DIHEDRAL>
0.0997591

>  <SCORE.INTRA.DIHEDRAL.0>
1.43995

>  <SCORE.INTRA.POLAR>
0.272593

>  <SCORE.INTRA.POLAR.0>
-0.272593

>  <SCORE.INTRA.REPUL>
0

>  <SCORE.INTRA.REPUL.0>
0

>  <SCORE.INTRA.SOLV>
-0.093785

>  <SCORE.INTRA.SOLV.lig_0>
-22.6728

>  <SCORE.INTRA.VDW>
0.0383278

>  <SCORE.INTRA.VDW.0>
-0.754459

>  <SCORE.INTRA.norm>
0.0744715

>  <SCORE.RESTR>
0

>  <SCORE.RESTR.CAVITY>
0

>  <SCORE.RESTR.norm>
0

>  <SCORE.SYSTEM>
0

>  <SCORE.SYSTEM.CONST>
0

>  <SCORE.SYSTEM.DIHEDRAL>
0

>  <SCORE.SYSTEM.SOLV>
0

>  <SCORE.SYSTEM.norm>
0

>  <SCORE.heavy>
13

>  <SCORE.norm>
-4.93519

>  <RMSD>
0.373

$$$$
lig.pdb
 OpenBabel11021811453D
libRbt.so/2013.1/901 2013/11/27
 13 14  0  0  0  0  0  0  0  0999 V2000
    2.2953    3.5584   -4.3652 N   0  0  0  0  0  0  0  0  0  0  0  0
    3.5218    2.9636   -4.5329 C   0  0  0  0  0  0  0  0  0  0  0  0
    3.8168    1.8432   -3.8828 N   0  0  0  0  0  0  0  0  0  0  0  0
    2.9191    1.2493   -3.0367 C   0  0  0  0  0  0  0  0  0  0  0  0
    1.6446    1.8351   -2.8277 C   0  0  0  0  0  0  0  0  0  0  0  0
    1.3435    3.0338   -3.5349 C   0  0  0  0  0  0  0  0  0  0  0  0
    0.2651    3.5853   -3.4096 O   0  0  0  0  0  0  0  0  0  0  0  0
    0.9470    0.9890   -1.8596 C   0  0  0  0  0  0  0  0  0  0  0  0
   -0.4163    1.2245   -1.2676 C   0  0  0  0  0  0  0  0  0  0  0  0
   -1.4368    1.1054   -2.3182 N   0  0  0  0  0  0  0  0  0  0  0  0
    1.7785   -0.0242   -1.5859 C   0  0  0  0  0  0  0  0  0  0  0  0
    2.9541    0.1279   -2.2722 N   0  0  0  0  0  0  0  0  0  0  0  0
    4.4408    3.5238   -5.3807 N   0  0  0  0  0  0  0  0  0  0  0  0
  1  6  1  0  0  0  0
  2  1  1  0  0  0  0
  2  3  2  0  0  0  0
  3  4  1  0  0  0  0
  4  5  2  0  0  0  0
  4 12  1  0  0  0  0
  5  8  1  0  0  0  0
  6  7  2  0  0  0  0
  6  5  1  0  0  0  0
  8 11  2  0  0  0  0
  8  9  1  0  0  0  0
 10  9  1  0  0  0  0
 12 11  1  0  0  0  0
 13  2  1  0  0  0  0
M  END
>  <CHROM.1>
66.76004223,91.54358073,1.82562436,1.95909451,-3.13558836,0.69482343,0.27518176
-0.62101460

>  <Name>
lig.pdb

>  <RI>
0

>  <Rbt.Current_Directory>
/home/itssahil/PROJECTS/Mol_Feturizer/New_Systems/rnas/2l1v

>  <Rbt.Executable>
rbdock ($Id: //depot/dev/client3/rdock/2013.1/src/exe/rbdock.cxx#4 $)

>  <Rbt.Library>
libRbt.so (2013.1, Build901 2013/11/27)

>  <Rbt.Parameter_File>
/export/apps/rDock/src/rDock_2013.1_src/data/scripts/dock_solv.prm

>  <Rbt.Receptor>
prm/pocket_docking_3.prm

>  <SCORE>
-64.2835

>  <SCORE.INTER>
-65.1882

>  <SCORE.INTER.CONST>
1

>  <SCORE.INTER.POLAR>
-6.70899

>  <SCORE.INTER.ROT>
2

>  <SCORE.INTER.SOLV>
18.643

>  <SCORE.INTER.VDW>
-32.2431

>  <SCORE.INTER.norm>
-5.01447

>  <SCORE.INTRA>
0.904626

>  <SCORE.INTRA.DIHEDRAL>
-0.0132797

>  <SCORE.INTRA.DIHEDRAL.0>
1.43995

>  <SCORE.INTRA.POLAR>
0.272593

>  <SCORE.INTRA.POLAR.0>
-0.272593

>  <SCORE.INTRA.REPUL>
0

>  <SCORE.INTRA.REPUL.0>
0

>  <SCORE.INTRA.SOLV>
-0.102434

>  <SCORE.INTRA.SOLV.lig_0>
-22.6728

>  <SCORE.INTRA.VDW>
0.0356674

>  <SCORE.INTRA.VDW.0>
-0.754459

>  <SCORE.INTRA.norm>
0.0695866

>  <SCORE.RESTR>
0

>  <SCORE.RESTR.CAVITY>
0

>  <SCORE.RESTR.norm>
0

>  <SCORE.SYSTEM>
0

>  <SCORE.SYSTEM.CONST>
0

>  <SCORE.SYSTEM.DIHEDRAL>
0

>  <SCORE.SYSTEM.SOLV>
0

>  <SCORE.SYSTEM.norm>
0

>  <SCORE.heavy>
13

>  <SCORE.norm>
-4.94489

>  <RMSD>
0.373

$$$$
lig.pdb
 OpenBabel11021811453D
libRbt.so/2013.1/901 2013/11/27
 13 14  0  0  0  0  0  0  0  0999 V2000
    2.3157    3.5413   -4.3194 N   0  0  0  0  0  0  0  0  0  0  0  0
    3.5368    2.9395   -4.5014 C   0  0  0  0  0  0  0  0  0  0  0  0
    3.8236    1.8043   -3.8736 N   0  0  0  0  0  0  0  0  0  0  0  0
    2.9228    1.2019   -3.0369 C   0  0  0  0  0  0  0  0  0  0  0  0
    1.6538    1.7944   -2.8137 C   0  0  0  0  0  0  0  0  0  0  0  0
    1.3613    3.0090   -3.4971 C   0  0  0  0  0  0  0  0  0  0  0  0
    0.2880    3.5671   -3.3587 O   0  0  0  0  0  0  0  0  0  0  0  0
    0.9512    0.9358   -1.8603 C   0  0  0  0  0  0  0  0  0  0  0  0
   -0.4088    1.1715   -1.2607 C   0  0  0  0  0  0  0  0  0  0  0  0
   -1.4305    1.1030   -2.3147 N   0  0  0  0  0  0  0  0  0  0  0  0
    1.7746   -0.0895   -1.6082 C   0  0  0  0  0  0  0  0  0  0  0  0
    2.9499    0.0658   -2.2941 N   0  0  0  0  0  0  0  0  0  0  0  0
    4.4587    3.5080   -5.3404 N   0  0  0  0  0  0  0  0  0  0  0  0
  1  6  1  0  0  0  0
  2  1  1  0  0  0  0
  2  3  2  0  0  0  0
  3  4  1  0  0  0  0
  4  5  2  0  0  0  0
  4 12  1  0  0  0  0
  5  8  1  0  0  0  0
  6  7  2  0  0  0  0
  6  5  1  0  0  0  0
  8 11  2  0  0  0  0
  8  9  1  0  0  0  0
 10  9  1  0  0  0  0
 12 11  1  0  0  0  0
 13  2  1  0  0  0  0
M  END
>  <CHROM.1>
65.84238355,91.35452424,1.83538268,1.92476907,-3.11992128,0.68773188,0.28260017
-0.60078946

>  <Name>
lig.pdb

>  <RI>
1.75485e+07

>  <Rbt.Current_Directory>
/home/itssahil/PROJECTS/Mol_Feturizer/New_Systems/rnas/2l1v

>  <Rbt.Executable>
rbdock ($Id: //depot/dev/client3/rdock/2013.1/src/exe/rbdock.cxx#4 $)

>  <Rbt.Library>
libRbt.so (2013.1, Build901 2013/11/27)

>  <Rbt.Parameter_File>
/export/apps/rDock/src/rDock_2013.1_src/data/scripts/dock_solv.prm

>  <Rbt.Receptor>
prm/pocket_docking_4.prm

>  <SCORE>
-64.1665

>  <SCORE.INTER>
-65.0883

>  <SCORE.INTER.CONST>
1

>  <SCORE.INTER.POLAR>
-6.75835

>  <SCORE.INTER.ROT>
2

>  <SCORE.INTER.SOLV>
18.5845

>  <SCORE.INTER.VDW>
-31.9926

>  <SCORE.INTER.norm>
-5.0068

>  <SCORE.INTRA>
0.898617

>  <SCORE.INTRA.DIHEDRAL>
-0.0281383

>  <SCORE.INTRA.DIHEDRAL.0>
1.43995

>  <SCORE.INTRA.POLAR>
0.272593

>  <SCORE.INTRA.POLAR.0>
-0.272593

>  <SCORE.INTRA.REPUL>
0

>  <SCORE.INTRA.REPUL.0>
0

>  <SCORE.INTRA.SOLV>
-0.0935715

>  <SCORE.INTRA.SOLV.lig_0>
-22.6728

>  <SCORE.INTRA.VDW>
0.0326568

>  <SCORE.INTRA.VDW.0>
-0.754459

>  <SCORE.INTRA.norm>
0.0691244

>  <SCORE.RESTR>
0.0231859

>  <SCORE.RESTR.CAVITY>
0.0231859

>  <SCORE.RESTR.norm>
0.00178353

>  <SCORE.SYSTEM>
0

>  <SCORE.SYSTEM.CONST>
0

>  <SCORE.SYSTEM.DIHEDRAL>
0

>  <SCORE.SYSTEM.SOLV>
0

>  <SCORE.SYSTEM.norm>
0

>  <SCORE.heavy>
13

>  <SCORE.norm>
-4.93589

>  <RMSD>
0.373

$$$$
lig.pdb
 OpenBabel11021811453D
libRbt.so/2013.1/901 2013/11/27
 13 14  0  0  0  0  0  0  0  0999 V2000
    2.3255    3.5514   -4.3191 N   0  0  0  0  0  0  0  0  0  0  0  0
    3.5484    2.9579   -4.5152 C   0  0  0  0  0  0  0  0  0  0  0  0
    3.8512    1.8260   -3.8890 N   0  0  0  0  0  0  0  0  0  0  0  0
    2.9651    1.2188   -3.0400 C   0  0  0  0  0  0  0  0  0  0  0  0
    1.6948    1.8027   -2.8021 C   0  0  0  0  0  0  0  0  0  0  0  0
    1.3852    3.0138   -3.4841 C   0  0  0  0  0  0  0  0  0  0  0  0
    0.3097    3.5646   -3.3334 O   0  0  0  0  0  0  0  0  0  0  0  0
    1.0102    0.9411   -1.8385 C   0  0  0  0  0  0  0  0  0  0  0  0
   -0.3438    1.1682   -1.2225 C   0  0  0  0  0  0  0  0  0  0  0  0
   -1.3793    1.0766   -2.2611 N   0  0  0  0  0  0  0  0  0  0  0  0
    1.8440   -0.0779   -1.5947 C   0  0  0  0  0  0  0  0  0  0  0  0
    3.0096    0.0844   -2.2955 N   0  0  0  0  0  0  0  0  0  0  0  0
    4.4558    3.5313   -5.3667 N   0  0  0  0  0  0  0  0  0  0  0  0
  1  6  1  0  0  0  0
  2  1  1  0  0  0  0
  2  3  2  0  0  0  0
  3  4  1  0  0  0  0
  4  5  2  0  0  0  0
  4 12  1  0  0  0  0
  5  8  1  0  0  0  0
  6  7  2  0  0  0  0
  6  5  1  0  0  0  0
  8 11  2  0  0  0  0
  8  9  1  0  0  0  0
 10  9  1  0  0  0  0
 12 11  1  0  0  0  0
 13  2  1  0  0  0  0
M  END
>  <CHROM.1>
66.42560664,92.35423537,1.87152478,1.93248781,-3.11059937,0.70197460,0.28835093
-0.60613430

>  <Name>
lig.pdb

>  <RI>
4.15415e+07

>  <Rbt.Current_Directory>
/home/itssahil/PROJECTS/Mol_Feturizer/New_Systems/rnas/2l1v

>  <Rbt.Executable>
rbdock ($Id: //depot/dev/client3/rdock/2013.1/src/exe/rbdock.cxx#4 $)

>  <Rbt.Library>
libRbt.so (2013.1, Build901 2013/11/27)

>  <Rbt.Parameter_File>
/export/apps/rDock/src/rDock_2013.1_src/data/scripts/dock_solv.prm

>  <Rbt.Receptor>
prm/blind_docking_60.prm

>  <SCORE>
-64.0814

>  <SCORE.INTER>
-65.0013

>  <SCORE.INTER.CONST>
1

>  <SCORE.INTER.POLAR>
-6.77514

>  <SCORE.INTER.ROT>
2

>  <SCORE.INTER.SOLV>
18.447

>  <SCORE.INTER.VDW>
-31.8327

>  <SCORE.INTER.norm>
-5.0001

>  <SCORE.INTRA>
0.901975

>  <SCORE.INTRA.DIHEDRAL>
-0.0185049

>  <SCORE.INTRA.DIHEDRAL.0>
1.43995

>  <SCORE.INTRA.POLAR>
0.272593

>  <SCORE.INTRA.POLAR.0>
-0.272593

>  <SCORE.INTRA.REPUL>
0

>  <SCORE.INTRA.REPUL.0>
0

>  <SCORE.INTRA.SOLV>
-0.0989155

>  <SCORE.INTRA.SOLV.lig_0>
-22.6728

>  <SCORE.INTRA.VDW>
0.0338707

>  <SCORE.INTRA.VDW.0>
-0.754459

>  <SCORE.INTRA.norm>
0.0693827

>  <SCORE.RESTR>
0.0178432

>  <SCORE.RESTR.CAVITY>
0.0178432

>  <SCORE.RESTR.norm>
0.00137255

>  <SCORE.SYSTEM>
0

>  <SCORE.SYSTEM.CONST>
0

>  <SCORE.SYSTEM.DIHEDRAL>
0

>  <SCORE.SYSTEM.SOLV>
0

>  <SCORE.SYSTEM.norm>
0

>  <SCORE.heavy>
13

>  <SCORE.norm>
-4.92934

>  <RMSD>
0.374

$$$$
lig.pdb
 OpenBabel11021811453D
libRbt.so/2013.1/901 2013/11/27
 13 14  0  0  0  0  0  0  0  0999 V2000
    2.2992    3.5296   -4.3752 N   0  0  0  0  0  0  0  0  0  0  0  0
    3.5377    2.9542   -4.5208 C   0  0  0  0  0  0  0  0  0  0  0  0
    3.8474    1.8525   -3.8459 N   0  0  0  0  0  0  0  0  0  0  0  0
    2.9534    1.2593   -2.9955 C   0  0  0  0  0  0  0  0  0  0  0  0
    1.6667    1.8258   -2.8089 C   0  0  0  0  0  0  0  0  0  0  0  0
    1.3500    3.0044   -3.5425 C   0  0  0  0  0  0  0  0  0  0  0  0
    0.2607    3.5384   -3.4372 O   0  0  0  0  0  0  0  0  0  0  0  0
    0.9763    0.9865   -1.8297 C   0  0  0  0  0  0  0  0  0  0  0  0
   -0.3961    1.2088   -1.2539 C   0  0  0  0  0  0  0  0  0  0  0  0
   -1.4012    1.1024   -2.3206 N   0  0  0  0  0  0  0  0  0  0  0  0
    1.8236   -0.0057   -1.5289 C   0  0  0  0  0  0  0  0  0  0  0  0
    3.0021    0.1542   -2.2083 N   0  0  0  0  0  0  0  0  0  0  0  0
    4.4537    3.5140   -5.3721 N   0  0  0  0  0  0  0  0  0  0  0  0
  1  6  1  0  0  0  0
  2  1  1  0  0  0  0
  2  3  2  0  0  0  0
  3  4  1  0  0  0  0
  4  5  2  0  0  0  0
  4 12  1  0  0  0  0
  5  8  1  0  0  0  0
  6  7  2  0  0  0  0
  6  5  1  0  0  0  0
  8 11  2  0  0  0  0
  8  9  1  0  0  0  0
 10  9  1  0  0  0  0
 12 11  1  0  0  0  0
 13  2  1  0  0  0  0
M  END
>  <CHROM.1>
64.54494232,-88.83692495,1.84820120,1.95181896,-3.11839574,0.70161915,0.25932848
-0.64511979

>  <Name>
lig.pdb

>  <RI>
0

>  <Rbt.Current_Directory>
/home/itssahil/PROJECTS/Mol_Feturizer/New_Systems/rnas/2l1v

>  <Rbt.Executable>
rbdock ($Id: //depot/dev/client3/rdock/2013.1/src/exe/rbdock.cxx#4 $)

>  <Rbt.Library>
libRbt.so (2013.1, Build901 2013/11/27)

>  <Rbt.Parameter_File>
/export/apps/rDock/src/rDock_2013.1_src/data/scripts/dock_solv.prm

>  <Rbt.Receptor>
prm/pocket_docking_3.prm

>  <SCORE>
-64.1301

>  <SCORE.INTER>
-65.0928

>  <SCORE.INTER.CONST>
1

>  <SCORE.INTER.POLAR>
-6.7547

>  <SCORE.INTER.ROT>
2

>  <SCORE.INTER.SOLV>
18.4622

>  <SCORE.INTER.VDW>
-31.9669

>  <SCORE.INTER.norm>
-5.00714

>  <SCORE.INTRA>
0.962656

>  <SCORE.INTRA.DIHEDRAL>
0.0867352

>  <SCORE.INTRA.DIHEDRAL.0>
1.43995

>  <SCORE.INTRA.POLAR>
0.272593

>  <SCORE.INTRA.POLAR.0>
-0.272593

>  <SCORE.INTRA.REPUL>
0

>  <SCORE.INTRA.REPUL.0>
0

>  <SCORE.INTRA.SOLV>
-0.0835314

>  <SCORE.INTRA.SOLV.lig_0>
-22.6728

>  <SCORE.INTRA.VDW>
0.0342393

>  <SCORE.INTRA.VDW.0>
-0.754459

>  <SCORE.INTRA.norm>
0.0740505

>  <SCORE.RESTR>
0

>  <SCORE.RESTR.CAVITY>
0

>  <SCORE.RESTR.norm>
0

>  <SCORE.SYSTEM>
0

>  <SCORE.SYSTEM.CONST>
0

>  <SCORE.SYSTEM.DIHEDRAL>
0

>  <SCORE.SYSTEM.SOLV>
0

>  <SCORE.SYSTEM.norm>
0

>  <SCORE.heavy>
13

>  <SCORE.norm>
-4.93309

>  <RMSD>
0.374

$$$$
lig.pdb
 OpenBabel11021811453D
libRbt.so/2013.1/901 2013/11/27
 13 14  0  0  0  0  0  0  0  0999 V2000
    2.2948    3.5269   -4.3794 N   0  0  0  0  0  0  0  0  0  0  0  0
    3.5340    2.9520   -4.5206 C   0  0  0  0  0  0  0  0  0  0  0  0
    3.8431    1.8527   -3.8416 N   0  0  0  0  0  0  0  0  0  0  0  0
    2.9479    1.2615   -2.9911 C   0  0  0  0  0  0  0  0  0  0  0  0
    1.6604    1.8276   -2.8089 C   0  0  0  0  0  0  0  0  0  0  0  0
    1.3443    3.0036   -3.5469 C   0  0  0  0  0  0  0  0  0  0  0  0
    0.2544    3.5371   -3.4456 O   0  0  0  0  0  0  0  0  0  0  0  0
    0.9686    0.9909   -1.8285 C   0  0  0  0  0  0  0  0  0  0  0  0
   -0.4052    1.2139   -1.2562 C   0  0  0  0  0  0  0  0  0  0  0  0
   -1.4079    1.1037   -2.3247 N   0  0  0  0  0  0  0  0  0  0  0  0
    1.8161    0.0003   -1.5228 C   0  0  0  0  0  0  0  0  0  0  0  0
    2.9958    0.1589   -2.2003 N   0  0  0  0  0  0  0  0  0  0  0  0
    4.4513    3.5098   -5.3718 N   0  0  0  0  0  0  0  0  0  0  0  0
  1  6  1  0  0  0  0
  2  1  1  0  0  0  0
  2  3  2  0  0  0  0
  3  4  1  0  0  0  0
  4  5  2  0  0  0  0
  4 12  1  0  0  0  0
  5  8  1  0  0  0  0
  6  7  2  0  0  0  0
  6  5  1  0  0  0  0
  8 11  2  0  0  0  0
  8  9  1  0  0  0  0
 10  9  1  0  0  0  0
 12 11  1  0  0  0  0
 13  2  1  0  0  0  0
M  END
>  <CHROM.1>
64.53541340,-89.04185577,1.84241117,1.95279554,-3.11845520,0.70095862,0.25725138
-0.64812311

>  <Name>
lig.pdb

>  <RI>
4.02536e+07

>  <Rbt.Current_Directory>
/home/itssahil/PROJECTS/Mol_Feturizer/New_Systems/rnas/2l1v

>  <Rbt.Executable>
rbdock ($Id: //depot/dev/client3/rdock/2013.1/src/exe/rbdock.cxx#4 $)

>  <Rbt.Library>
libRbt.so (2013.1, Build901 2013/11/27)

>  <Rbt.Parameter_File>
/export/apps/rDock/src/rDock_2013.1_src/data/scripts/dock_solv.prm

>  <Rbt.Receptor>
prm/blind_docking_40.prm

>  <SCORE>
-64.1407

>  <SCORE.INTER>
-65.1035

>  <SCORE.INTER.CONST>
1

>  <SCORE.INTER.POLAR>
-6.74352

>  <SCORE.INTER.ROT>
2

>  <SCORE.INTER.SOLV>
18.4695

>  <SCORE.INTER.VDW>
-32.0138

>  <SCORE.INTER.norm>
-5.00796

>  <SCORE.INTRA>
0.962795

>  <SCORE.INTRA.DIHEDRAL>
0.0867095

>  <SCORE.INTRA.DIHEDRAL.0>
1.43995

>  <SCORE.INTRA.POLAR>
0.272593

>  <SCORE.INTRA.POLAR.0>
-0.272593

>  <SCORE.INTRA.REPUL>
0

>  <SCORE.INTRA.REPUL.0>
0

>  <SCORE.INTRA.SOLV>
-0.0835238

>  <SCORE.INTRA.SOLV.lig_0>
-22.6728

>  <SCORE.INTRA.VDW>
0.034387

>  <SCORE.INTRA.VDW.0>
-0.754459

>  <SCORE.INTRA.norm>
0.0740611

>  <SCORE.RESTR>
0

>  <SCORE.RESTR.CAVITY>
0

>  <SCORE.RESTR.norm>
0

>  <SCORE.SYSTEM>
0

>  <SCORE.SYSTEM.CONST>
0

>  <SCORE.SYSTEM.DIHEDRAL>
0

>  <SCORE.SYSTEM.SOLV>
0

>  <SCORE.SYSTEM.norm>
0

>  <SCORE.heavy>
13

>  <SCORE.norm>
-4.9339

>  <RMSD>
0.375

$$$$
lig.pdb
 OpenBabel11021811453D
libRbt.so/2013.1/901 2013/11/27
 13 14  0  0  0  0  0  0  0  0999 V2000
    2.2963    3.5610   -4.3753 N   0  0  0  0  0  0  0  0  0  0  0  0
    3.5204    2.9623   -4.5469 C   0  0  0  0  0  0  0  0  0  0  0  0
    3.8156    1.8436   -3.8940 N   0  0  0  0  0  0  0  0  0  0  0  0
    2.9206    1.2553   -3.0412 C   0  0  0  0  0  0  0  0  0  0  0  0
    1.6487    1.8454   -2.8281 C   0  0  0  0  0  0  0  0  0  0  0  0
    1.3472    3.0421   -3.5384 C   0  0  0  0  0  0  0  0  0  0  0  0
    0.2710    3.5970   -3.4098 O   0  0  0  0  0  0  0  0  0  0  0  0
    0.9537    1.0049   -1.8532 C   0  0  0  0  0  0  0  0  0  0  0  0
   -0.4060    1.2463   -1.2554 C   0  0  0  0  0  0  0  0  0  0  0  0
   -1.4344    1.0986   -2.2947 N   0  0  0  0  0  0  0  0  0  0  0  0
    1.7838   -0.0096   -1.5799 C   0  0  0  0  0  0  0  0  0  0  0  0
    2.9564    0.1368   -2.2725 N   0  0  0  0  0  0  0  0  0  0  0  0
    4.4366    3.5167   -5.4014 N   0  0  0  0  0  0  0  0  0  0  0  0
  1  6  1  0  0  0  0
  2  1  1  0  0  0  0
  2  3  2  0  0  0  0
  3  4  1  0  0  0  0
  4  5  2  0  0  0  0
  4 12  1  0  0  0  0
  5  8  1  0  0  0  0
  6  7  2  0  0  0  0
  6  5  1  0  0  0  0
  8 11  2  0  0  0  0
  8  9  1  0  0  0  0
 10  9  1  0  0  0  0
 12 11  1  0  0  0  0
 13  2  1  0  0  0  0
M  END
>  <CHROM.1>
67.91721668,90.78869951,1.82828650,1.96515259,-3.13677295,0.69707992,0.28003568
-0.62423047

>  <Name>
lig.pdb

>  <RI>
1.77584e+07

>  <Rbt.Current_Directory>
/home/itssahil/PROJECTS/Mol_Feturizer/New_Systems/rnas/2l1v

>  <Rbt.Executable>
rbdock ($Id: //depot/dev/client3/rdock/2013.1/src/exe/rbdock.cxx#4 $)

>  <Rbt.Library>
libRbt.so (2013.1, Build901 2013/11/27)

>  <Rbt.Parameter_File>
/export/apps/rDock/src/rDock_2013.1_src/data/scripts/dock_solv.prm

>  <Rbt.Receptor>
prm/blind_docking_80.prm

>  <SCORE>
-64.282

>  <SCORE.INTER>
-65.1966

>  <SCORE.INTER.CONST>
1

>  <SCORE.INTER.POLAR>
-6.69011

>  <SCORE.INTER.ROT>
2

>  <SCORE.INTER.SOLV>
18.6485

>  <SCORE.INTER.VDW>
-32.3135

>  <SCORE.INTER.norm>
-5.01512

>  <SCORE.INTRA>
0.914527

>  <SCORE.INTRA.DIHEDRAL>
0.00848759

>  <SCORE.INTRA.DIHEDRAL.0>
1.43995

>  <SCORE.INTRA.POLAR>
0.272593

>  <SCORE.INTRA.POLAR.0>
-0.272593

>  <SCORE.INTRA.REPUL>
0

>  <SCORE.INTRA.REPUL.0>
0

>  <SCORE.INTRA.SOLV>
-0.113994

>  <SCORE.INTRA.SOLV.lig_0>
-22.6728

>  <SCORE.INTRA.VDW>
0.040465

>  <SCORE.INTRA.VDW.0>
-0.754459

>  <SCORE.INTRA.norm>
0.0703482

>  <SCORE.RESTR>
0

>  <SCORE.RESTR.CAVITY>
0

>  <SCORE.RESTR.norm>
0

>  <SCORE.SYSTEM>
0

>  <SCORE.SYSTEM.CONST>
0

>  <SCORE.SYSTEM.DIHEDRAL>
0

>  <SCORE.SYSTEM.SOLV>
0

>  <SCORE.SYSTEM.norm>
0

>  <SCORE.heavy>
13

>  <SCORE.norm>
-4.94477

>  <RMSD>
0.375

$$$$
lig.pdb
 OpenBabel11021811453D
libRbt.so/2013.1/901 2013/11/27
 13 14  0  0  0  0  0  0  0  0999 V2000
    2.2883    3.5440   -4.3745 N   0  0  0  0  0  0  0  0  0  0  0  0
    3.5211    2.9575   -4.5235 C   0  0  0  0  0  0  0  0  0  0  0  0
    3.8187    1.8467   -3.8583 N   0  0  0  0  0  0  0  0  0  0  0  0
    2.9174    1.2547   -3.0146 C   0  0  0  0  0  0  0  0  0  0  0  0
    1.6362    1.8324   -2.8247 C   0  0  0  0  0  0  0  0  0  0  0  0
    1.3325    3.0208   -3.5480 C   0  0  0  0  0  0  0  0  0  0  0  0
    0.2485    3.5647   -3.4395 O   0  0  0  0  0  0  0  0  0  0  0  0
    0.9358    0.9913   -1.8543 C   0  0  0  0  0  0  0  0  0  0  0  0
   -0.4352    1.2220   -1.2785 C   0  0  0  0  0  0  0  0  0  0  0  0
   -1.4415    1.1152   -2.3440 N   0  0  0  0  0  0  0  0  0  0  0  0
    1.7727   -0.0121   -1.5613 C   0  0  0  0  0  0  0  0  0  0  0  0
    2.9538    0.1421   -2.2375 N   0  0  0  0  0  0  0  0  0  0  0  0
    4.4441    3.5158   -5.3683 N   0  0  0  0  0  0  0  0  0  0  0  0
  1  6  1  0  0  0  0
  2  1  1  0  0  0  0
  2  3  2  0  0  0  0
  3  4  1  0  0  0  0
  4  5  2  0  0  0  0
  4 12  1  0  0  0  0
  5  8  1  0  0  0  0
  6  7  2  0  0  0  0
  6  5  1  0  0  0  0
  8 11  2  0  0  0  0
  8  9  1  0  0  0  0
 10  9  1  0  0  0  0
 12 11  1  0  0  0  0
 13  2  1  0  0  0  0
M  END
>  <CHROM.1>
65.40196853,-89.99038589,1.81925528,1.95753752,-3.13247321,0.69340217,0.26346212
-0.63300872

>  <Name>
lig.pdb

>  <RI>
1.459e+07

>  <Rbt.Current_Directory>
/home/itssahil/PROJECTS/Mol_Feturizer/New_Systems/rnas/2l1v

>  <Rbt.Executable>
rbdock ($Id: //depot/dev/client3/rdock/2013.1/src/exe/rbdock.cxx#4 $)

>  <Rbt.Library>
libRbt.so (2013.1, Build901 2013/11/27)

>  <Rbt.Parameter_File>
/export/apps/rDock/src/rDock_2013.1_src/data/scripts/dock_solv.prm

>  <Rbt.Receptor>
prm/pocket_docking_2.prm

>  <SCORE>
-64.1469

>  <SCORE.INTER>
-65.1142

>  <SCORE.INTER.CONST>
1

>  <SCORE.INTER.POLAR>
-6.71113

>  <SCORE.INTER.ROT>
2

>  <SCORE.INTER.SOLV>
18.6262

>  <SCORE.INTER.VDW>
-32.1811

>  <SCORE.INTER.norm>
-5.00879

>  <SCORE.INTRA>
0.967333

>  <SCORE.INTRA.DIHEDRAL>
0.0975529

>  <SCORE.INTRA.DIHEDRAL.0>
1.43995

>  <SCORE.INTRA.POLAR>
0.272593

>  <SCORE.INTRA.POLAR.0>
-0.272593

>  <SCORE.INTRA.REPUL>
0

>  <SCORE.INTRA.REPUL.0>
0

>  <SCORE.INTRA.SOLV>
-0.0922527

>  <SCORE.INTRA.SOLV.lig_0>
-22.6728

>  <SCORE.INTRA.VDW>
0.0378675

>  <SCORE.INTRA.VDW.0>
-0.754459

>  <SCORE.INTRA.norm>
0.0744102

>  <SCORE.RESTR>
0

>  <SCORE.RESTR.CAVITY>
0

>  <SCORE.RESTR.norm>
0

>  <SCORE.SYSTEM>
0

>  <SCORE.SYSTEM.CONST>
0

>  <SCORE.SYSTEM.DIHEDRAL>
0

>  <SCORE.SYSTEM.SOLV>
0

>  <SCORE.SYSTEM.norm>
0

>  <SCORE.heavy>
13

>  <SCORE.norm>
-4.93438

>  <RMSD>
0.375

$$$$
lig.pdb
 OpenBabel11021811453D
libRbt.so/2013.1/901 2013/11/27
 13 14  0  0  0  0  0  0  0  0999 V2000
    2.2917    3.5677   -4.3706 N   0  0  0  0  0  0  0  0  0  0  0  0
    3.5164    2.9694   -4.5388 C   0  0  0  0  0  0  0  0  0  0  0  0
    3.8074    1.8468   -3.8907 N   0  0  0  0  0  0  0  0  0  0  0  0
    2.9074    1.2541   -3.0462 C   0  0  0  0  0  0  0  0  0  0  0  0
    1.6347    1.8436   -2.8368 C   0  0  0  0  0  0  0  0  0  0  0  0
    1.3378    3.0446   -3.5419 C   0  0  0  0  0  0  0  0  0  0  0  0
    0.2611    3.5993   -3.4161 O   0  0  0  0  0  0  0  0  0  0  0  0
    0.9339    0.9980   -1.8706 C   0  0  0  0  0  0  0  0  0  0  0  0
   -0.4289    1.2367   -1.2789 C   0  0  0  0  0  0  0  0  0  0  0  0
   -1.4501    1.1138   -2.3284 N   0  0  0  0  0  0  0  0  0  0  0  0
    1.7620   -0.0185   -1.5984 C   0  0  0  0  0  0  0  0  0  0  0  0
    2.9385    0.1312   -2.2838 N   0  0  0  0  0  0  0  0  0  0  0  0
    4.4376    3.5282   -5.3851 N   0  0  0  0  0  0  0  0  0  0  0  0
  1  6  1  0  0  0  0
  2  1  1  0  0  0  0
  2  3  2  0  0  0  0
  3  4  1  0  0  0  0
  4  5  2  0  0  0  0
  4 12  1  0  0  0  0
  5  8  1  0  0  0  0
  6  7  2  0  0  0  0
  6  5  1  0  0  0  0
  8 11  2  0  0  0  0
  8  9  1  0  0  0  0
 10  9  1  0  0  0  0
 12 11  1  0  0  0  0
 13  2  1  0  0  0  0
M  END
>  <CHROM.1>
67.14036751,90.90580043,1.81619129,1.96678112,-3.14412515,0.69228420,0.27636623
-0.61802566

>  <Name>
lig.pdb

>  <RI>
2.86608e+07

>  <Rbt.Current_Directory>
/home/itssahil/PROJECTS/Mol_Feturizer/New_Systems/rnas/2l1v

>  <Rbt.Executable>
rbdock ($Id: //depot/dev/client3/rdock/2013.1/src/exe/rbdock.cxx#4 $)

>  <Rbt.Library>
libRbt.so (2013.1, Build901 2013/11/27)

>  <Rbt.Parameter_File>
/export/apps/rDock/src/rDock_2013.1_src/data/scripts/dock_solv.prm

>  <Rbt.Receptor>
prm/pocket_docking_7.prm

>  <SCORE>
-64.2979

>  <SCORE.INTER>
-65.2057

>  <SCORE.INTER.CONST>
1

>  <SCORE.INTER.POLAR>
-6.69245

>  <SCORE.INTER.ROT>
2

>  <SCORE.INTER.SOLV>
18.7208

>  <SCORE.INTER.VDW>
-32.3359

>  <SCORE.INTER.norm>
-5.01582

>  <SCORE.INTRA>
0.907805

>  <SCORE.INTRA.DIHEDRAL>
-0.00670966

>  <SCORE.INTRA.DIHEDRAL.0>
1.43995

>  <SCORE.INTRA.POLAR>
0.272593

>  <SCORE.INTRA.POLAR.0>
-0.272593

>  <SCORE.INTRA.REPUL>
0

>  <SCORE.INTRA.REPUL.0>
0

>  <SCORE.INTRA.SOLV>
-0.106356

>  <SCORE.INTRA.SOLV.lig_0>
-22.6728

>  <SCORE.INTRA.VDW>
0.0375228

>  <SCORE.INTRA.VDW.0>
-0.754459

>  <SCORE.INTRA.norm>
0.0698311

>  <SCORE.RESTR>
0

>  <SCORE.RESTR.CAVITY>
0

>  <SCORE.RESTR.norm>
0

>  <SCORE.SYSTEM>
0

>  <SCORE.SYSTEM.CONST>
0

>  <SCORE.SYSTEM.DIHEDRAL>
0

>  <SCORE.SYSTEM.SOLV>
0

>  <SCORE.SYSTEM.norm>
0

>  <SCORE.heavy>
13

>  <SCORE.norm>
-4.94599

>  <RMSD>
0.375

$$$$
lig.pdb
 OpenBabel11021811453D
libRbt.so/2013.1/901 2013/11/27
 13 14  0  0  0  0  0  0  0  0999 V2000
    2.3005    3.5648   -4.3698 N   0  0  0  0  0  0  0  0  0  0  0  0
    3.5242    2.9659   -4.5427 C   0  0  0  0  0  0  0  0  0  0  0  0
    3.8186    1.8451   -3.8929 N   0  0  0  0  0  0  0  0  0  0  0  0
    2.9230    1.2549   -3.0421 C   0  0  0  0  0  0  0  0  0  0  0  0
    1.6514    1.8451   -2.8277 C   0  0  0  0  0  0  0  0  0  0  0  0
    1.3508    3.0441   -3.5346 C   0  0  0  0  0  0  0  0  0  0  0  0
    0.2749    3.5992   -3.4049 O   0  0  0  0  0  0  0  0  0  0  0  0
    0.9556    1.0022   -1.8555 C   0  0  0  0  0  0  0  0  0  0  0  0
   -0.4041    1.2427   -1.2574 C   0  0  0  0  0  0  0  0  0  0  0  0
   -1.4321    1.1003   -2.2977 N   0  0  0  0  0  0  0  0  0  0  0  0
    1.7851   -0.0135   -1.5847 C   0  0  0  0  0  0  0  0  0  0  0  0
    2.9580    0.1342   -2.2766 N   0  0  0  0  0  0  0  0  0  0  0  0
    4.4411    3.5222   -5.3953 N   0  0  0  0  0  0  0  0  0  0  0  0
  1  6  1  0  0  0  0
  2  1  1  0  0  0  0
  2  3  2  0  0  0  0
  3  4  1  0  0  0  0
  4  5  2  0  0  0  0
  4 12  1  0  0  0  0
  5  8  1  0  0  0  0
  6  7  2  0  0  0  0
  6  5  1  0  0  0  0
  8 11  2  0  0  0  0
  8  9  1  0  0  0  0
 10  9  1  0  0  0  0
 12 11  1  0  0  0  0
 13  2  1  0  0  0  0
M  END
>  <CHROM.1>
67.84675057,91.13905772,1.83117537,1.96581687,-3.13601241,0.69632815,0.28016042
-0.62124748

>  <Name>
lig.pdb

>  <RI>
0

>  <Rbt.Current_Directory>
/home/itssahil/PROJECTS/Mol_Feturizer/New_Systems/rnas/2l1v

>  <Rbt.Executable>
rbdock ($Id: //depot/dev/client3/rdock/2013.1/src/exe/rbdock.cxx#4 $)

>  <Rbt.Library>
libRbt.so (2013.1, Build901 2013/11/27)

>  <Rbt.Parameter_File>
/export/apps/rDock/src/rDock_2013.1_src/data/scripts/dock_solv.prm

>  <Rbt.Receptor>
prm/pocket_docking_3.prm

>  <SCORE>
-64.2769

>  <SCORE.INTER>
-65.1907

>  <SCORE.INTER.CONST>
1

>  <SCORE.INTER.POLAR>
-6.70374

>  <SCORE.INTER.ROT>
2

>  <SCORE.INTER.SOLV>
18.6492

>  <SCORE.INTER.VDW>
-32.2643

>  <SCORE.INTER.norm>
-5.01467

>  <SCORE.INTRA>
0.913735

>  <SCORE.INTRA.DIHEDRAL>
0.00716334

>  <SCORE.INTRA.DIHEDRAL.0>
1.43995

>  <SCORE.INTRA.POLAR>
0.272593

>  <SCORE.INTRA.POLAR.0>
-0.272593

>  <SCORE.INTRA.REPUL>
0

>  <SCORE.INTRA.REPUL.0>
0

>  <SCORE.INTRA.SOLV>
-0.11319

>  <SCORE.INTRA.SOLV.lig_0>
-22.6728

>  <SCORE.INTRA.VDW>
0.0399332

>  <SCORE.INTRA.VDW.0>
-0.754459

>  <SCORE.INTRA.norm>
0.0702873

>  <SCORE.RESTR>
0

>  <SCORE.RESTR.CAVITY>
0

>  <SCORE.RESTR.norm>
0

>  <SCORE.SYSTEM>
0

>  <SCORE.SYSTEM.CONST>
0

>  <SCORE.SYSTEM.DIHEDRAL>
0

>  <SCORE.SYSTEM.SOLV>
0

>  <SCORE.SYSTEM.norm>
0

>  <SCORE.heavy>
13

>  <SCORE.norm>
-4.94438

>  <RMSD>
0.376

$$$$
lig.pdb
 OpenBabel11021811453D
libRbt.so/2013.1/901 2013/11/27
 13 14  0  0  0  0  0  0  0  0999 V2000
    2.3178    3.5588   -4.3229 N   0  0  0  0  0  0  0  0  0  0  0  0
    3.5383    2.9576   -4.5101 C   0  0  0  0  0  0  0  0  0  0  0  0
    3.8283    1.8224   -3.8839 N   0  0  0  0  0  0  0  0  0  0  0  0
    2.9312    1.2193   -3.0437 C   0  0  0  0  0  0  0  0  0  0  0  0
    1.6629    1.8112   -2.8151 C   0  0  0  0  0  0  0  0  0  0  0  0
    1.3670    3.0258   -3.4969 C   0  0  0  0  0  0  0  0  0  0  0  0
    0.2940    3.5833   -3.3539 O   0  0  0  0  0  0  0  0  0  0  0  0
    0.9645    0.9520   -1.8591 C   0  0  0  0  0  0  0  0  0  0  0  0
   -0.3930    1.1868   -1.2539 C   0  0  0  0  0  0  0  0  0  0  0  0
   -1.4209    1.0990   -2.3004 N   0  0  0  0  0  0  0  0  0  0  0  0
    1.7895   -0.0730   -1.6106 C   0  0  0  0  0  0  0  0  0  0  0  0
    2.9619    0.0830   -2.3013 N   0  0  0  0  0  0  0  0  0  0  0  0
    4.4565    3.5268   -5.3528 N   0  0  0  0  0  0  0  0  0  0  0  0
  1  6  1  0  0  0  0
  2  1  1  0  0  0  0
  2  3  2  0  0  0  0
  3  4  1  0  0  0  0
  4  5  2  0  0  0  0
  4 12  1  0  0  0  0
  5  8  1  0  0  0  0
  6  7  2  0  0  0  0
  6  5  1  0  0  0  0
  8 11  2  0  0  0  0
  8  9  1  0  0  0  0
 10  9  1  0  0  0  0
 12 11  1  0  0  0  0
 13  2  1  0  0  0  0
M  END
>  <CHROM.1>
66.64918204,91.43666276,1.84294417,1.93991014,-3.12169762,0.69160793,0.28512583
-0.60076763

>  <Name>
lig.pdb

>  <RI>
4.15415e+07

>  <Rbt.Current_Directory>
/home/itssahil/PROJECTS/Mol_Feturizer/New_Systems/rnas/2l1v

>  <Rbt.Executable>
rbdock ($Id: //depot/dev/client3/rdock/2013.1/src/exe/rbdock.cxx#4 $)

>  <Rbt.Library>
libRbt.so (2013.1, Build901 2013/11/27)

>  <Rbt.Parameter_File>
/export/apps/rDock/src/rDock_2013.1_src/data/scripts/dock_solv.prm

>  <Rbt.Receptor>
prm/blind_docking_60.prm

>  <SCORE>
-64.1348

>  <SCORE.INTER>
-65.064

>  <SCORE.INTER.CONST>
1

>  <SCORE.INTER.POLAR>
-6.7578

>  <SCORE.INTER.ROT>
2

>  <SCORE.INTER.SOLV>
18.5957

>  <SCORE.INTER.VDW>
-31.9819

>  <SCORE.INTER.norm>
-5.00492

>  <SCORE.INTRA>
0.903859

>  <SCORE.INTRA.DIHEDRAL>
-0.0152428

>  <SCORE.INTRA.DIHEDRAL.0>
1.43995

>  <SCORE.INTRA.POLAR>
0.272593

>  <SCORE.INTRA.POLAR.0>
-0.272593

>  <SCORE.INTRA.REPUL>
0

>  <SCORE.INTRA.REPUL.0>
0

>  <SCORE.INTRA.SOLV>
-0.101388

>  <SCORE.INTRA.SOLV.lig_0>
-22.6728

>  <SCORE.INTRA.VDW>
0.0353593

>  <SCORE.INTRA.VDW.0>
-0.754459

>  <SCORE.INTRA.norm>
0.0695276

>  <SCORE.RESTR>
0.0252734

>  <SCORE.RESTR.CAVITY>
0.0252734

>  <SCORE.RESTR.norm>
0.00194411

>  <SCORE.SYSTEM>
0

>  <SCORE.SYSTEM.CONST>
0

>  <SCORE.SYSTEM.DIHEDRAL>
0

>  <SCORE.SYSTEM.SOLV>
0

>  <SCORE.SYSTEM.norm>
0

>  <SCORE.heavy>
13

>  <SCORE.norm>
-4.93345

>  <RMSD>
0.377

$$$$
lig.pdb
 OpenBabel11021811453D
libRbt.so/2013.1/901 2013/11/27
 13 14  0  0  0  0  0  0  0  0999 V2000
    2.3136    3.5501   -4.3223 N   0  0  0  0  0  0  0  0  0  0  0  0
    3.5362    2.9515   -4.5042 C   0  0  0  0  0  0  0  0  0  0  0  0
    3.8278    1.8194   -3.8729 N   0  0  0  0  0  0  0  0  0  0  0  0
    2.9303    1.2172   -3.0325 C   0  0  0  0  0  0  0  0  0  0  0  0
    1.6598    1.8065   -2.8092 C   0  0  0  0  0  0  0  0  0  0  0  0
    1.3623    3.0177   -3.4964 C   0  0  0  0  0  0  0  0  0  0  0  0
    0.2875    3.5729   -3.3582 O   0  0  0  0  0  0  0  0  0  0  0  0
    0.9615    0.9492   -1.8516 C   0  0  0  0  0  0  0  0  0  0  0  0
   -0.3981    1.1827   -1.2505 C   0  0  0  0  0  0  0  0  0  0  0  0
   -1.4230    1.0908   -2.2996 N   0  0  0  0  0  0  0  0  0  0  0  0
    1.7886   -0.0727   -1.5971 C   0  0  0  0  0  0  0  0  0  0  0  0
    2.9622    0.0839   -2.2857 N   0  0  0  0  0  0  0  0  0  0  0  0
    4.4549    3.5198   -5.3469 N   0  0  0  0  0  0  0  0  0  0  0  0
  1  6  1  0  0  0  0
  2  1  1  0  0  0  0
  2  3  2  0  0  0  0
  3  4  1  0  0  0  0
  4  5  2  0  0  0  0
  4 12  1  0  0  0  0
  5  8  1  0  0  0  0
  6  7  2  0  0  0  0
  6  5  1  0  0  0  0
  8 11  2  0  0  0  0
  8  9  1  0  0  0  0
 10  9  1  0  0  0  0
 12 11  1  0  0  0  0
 13  2  1  0  0  0  0
M  END
>  <CHROM.1>
66.53546398,91.58963128,1.84029435,1.93482311,-3.11594081,0.69235699,0.28171946
-0.60497295

>  <Name>
lig.pdb

>  <RI>
4.15415e+07

>  <Rbt.Current_Directory>
/home/itssahil/PROJECTS/Mol_Feturizer/New_Systems/rnas/2l1v

>  <Rbt.Executable>
rbdock ($Id: //depot/dev/client3/rdock/2013.1/src/exe/rbdock.cxx#4 $)

>  <Rbt.Library>
libRbt.so (2013.1, Build901 2013/11/27)

>  <Rbt.Parameter_File>
/export/apps/rDock/src/rDock_2013.1_src/data/scripts/dock_solv.prm

>  <Rbt.Receptor>
prm/blind_docking_60.prm

>  <SCORE>
-64.1415

>  <SCORE.INTER>
-65.0712

>  <SCORE.INTER.CONST>
1

>  <SCORE.INTER.POLAR>
-6.75877

>  <SCORE.INTER.ROT>
2

>  <SCORE.INTER.SOLV>
18.5549

>  <SCORE.INTER.VDW>
-31.9699

>  <SCORE.INTER.norm>
-5.00548

>  <SCORE.INTRA>
0.902992

>  <SCORE.INTRA.DIHEDRAL>
-0.0170981

>  <SCORE.INTRA.DIHEDRAL.0>
1.43995

>  <SCORE.INTRA.POLAR>
0.272593

>  <SCORE.INTRA.POLAR.0>
-0.272593

>  <SCORE.INTRA.REPUL>
0

>  <SCORE.INTRA.REPUL.0>
0

>  <SCORE.INTRA.SOLV>
-0.10023

>  <SCORE.INTRA.SOLV.lig_0>
-22.6728

>  <SCORE.INTRA.VDW>
0.0348416

>  <SCORE.INTRA.VDW.0>
-0.754459

>  <SCORE.INTRA.norm>
0.069461

>  <SCORE.RESTR>
0.0267449

>  <SCORE.RESTR.CAVITY>
0.0267449

>  <SCORE.RESTR.norm>
0.0020573

>  <SCORE.SYSTEM>
0

>  <SCORE.SYSTEM.CONST>
0

>  <SCORE.SYSTEM.DIHEDRAL>
0

>  <SCORE.SYSTEM.SOLV>
0

>  <SCORE.SYSTEM.norm>
0

>  <SCORE.heavy>
13

>  <SCORE.norm>
-4.93396

>  <RMSD>
0.377

$$$$
lig.pdb
 OpenBabel11021811453D
libRbt.so/2013.1/901 2013/11/27
 13 14  0  0  0  0  0  0  0  0999 V2000
    2.2896    3.5475   -4.3719 N   0  0  0  0  0  0  0  0  0  0  0  0
    3.5233    2.9624   -4.5200 C   0  0  0  0  0  0  0  0  0  0  0  0
    3.8214    1.8517   -3.8547 N   0  0  0  0  0  0  0  0  0  0  0  0
    2.9201    1.2586   -3.0120 C   0  0  0  0  0  0  0  0  0  0  0  0
    1.6381    1.8348   -2.8231 C   0  0  0  0  0  0  0  0  0  0  0  0
    1.3337    3.0230   -3.5464 C   0  0  0  0  0  0  0  0  0  0  0  0
    0.2490    3.5658   -3.4386 O   0  0  0  0  0  0  0  0  0  0  0  0
    0.9377    0.9927   -1.8534 C   0  0  0  0  0  0  0  0  0  0  0  0
   -0.4340    1.2219   -1.2788 C   0  0  0  0  0  0  0  0  0  0  0  0
   -1.4392    1.1140   -2.3452 N   0  0  0  0  0  0  0  0  0  0  0  0
    1.7754   -0.0098   -1.5600 C   0  0  0  0  0  0  0  0  0  0  0  0
    2.9570    0.1458   -2.2351 N   0  0  0  0  0  0  0  0  0  0  0  0
    4.4463    3.5219   -5.3638 N   0  0  0  0  0  0  0  0  0  0  0  0
  1  6  1  0  0  0  0
  2  1  1  0  0  0  0
  2  3  2  0  0  0  0
  3  4  1  0  0  0  0
  4  5  2  0  0  0  0
  4 12  1  0  0  0  0
  5  8  1  0  0  0  0
  6  7  2  0  0  0  0
  6  5  1  0  0  0  0
  8 11  2  0  0  0  0
  8  9  1  0  0  0  0
 10  9  1  0  0  0  0
 12 11  1  0  0  0  0
 13  2  1  0  0  0  0
M  END
>  <CHROM.1>
65.41030325,-89.89617999,1.82126130,1.96022608,-3.13063348,0.69378428,0.26212336
-0.63286819

>  <Name>
lig.pdb

>  <RI>
1.459e+07

>  <Rbt.Current_Directory>
/home/itssahil/PROJECTS/Mol_Feturizer/New_Systems/rnas/2l1v

>  <Rbt.Executable>
rbdock ($Id: //depot/dev/client3/rdock/2013.1/src/exe/rbdock.cxx#4 $)

>  <Rbt.Library>
libRbt.so (2013.1, Build901 2013/11/27)

>  <Rbt.Parameter_File>
/export/apps/rDock/src/rDock_2013.1_src/data/scripts/dock_solv.prm

>  <Rbt.Receptor>
prm/pocket_docking_2.prm

>  <SCORE>
-64.1414

>  <SCORE.INTER>
-65.1087

>  <SCORE.INTER.CONST>
1

>  <SCORE.INTER.POLAR>
-6.72224

>  <SCORE.INTER.ROT>
2

>  <SCORE.INTER.SOLV>
18.6191

>  <SCORE.INTER.VDW>
-32.138

>  <SCORE.INTER.norm>
-5.00836

>  <SCORE.INTRA>
0.967304

>  <SCORE.INTRA.DIHEDRAL>
0.0976463

>  <SCORE.INTRA.DIHEDRAL.0>
1.43995

>  <SCORE.INTRA.POLAR>
0.272593

>  <SCORE.INTRA.POLAR.0>
-0.272593

>  <SCORE.INTRA.REPUL>
0

>  <SCORE.INTRA.REPUL.0>
0

>  <SCORE.INTRA.SOLV>
-0.0922934

>  <SCORE.INTRA.SOLV.lig_0>
-22.6728

>  <SCORE.INTRA.VDW>
0.0378129

>  <SCORE.INTRA.VDW.0>
-0.754459

>  <SCORE.INTRA.norm>
0.074408

>  <SCORE.RESTR>
0

>  <SCORE.RESTR.CAVITY>
0

>  <SCORE.RESTR.norm>
0

>  <SCORE.SYSTEM>
0

>  <SCORE.SYSTEM.CONST>
0

>  <SCORE.SYSTEM.DIHEDRAL>
0

>  <SCORE.SYSTEM.SOLV>
0

>  <SCORE.SYSTEM.norm>
0

>  <SCORE.heavy>
13

>  <SCORE.norm>
-4.93395

>  <RMSD>
0.377

$$$$
lig.pdb
 OpenBabel11021811453D
libRbt.so/2013.1/901 2013/11/27
 13 14  0  0  0  0  0  0  0  0999 V2000
    2.2935    3.5434   -4.3721 N   0  0  0  0  0  0  0  0  0  0  0  0
    3.5222    2.9504   -4.5290 C   0  0  0  0  0  0  0  0  0  0  0  0
    3.8179    1.8376   -3.8661 N   0  0  0  0  0  0  0  0  0  0  0  0
    2.9187    1.2501   -3.0172 C   0  0  0  0  0  0  0  0  0  0  0  0
    1.6419    1.8345   -2.8191 C   0  0  0  0  0  0  0  0  0  0  0  0
    1.3400    3.0249   -3.5400 C   0  0  0  0  0  0  0  0  0  0  0  0
    0.2597    3.5746   -3.4245 O   0  0  0  0  0  0  0  0  0  0  0  0
    0.9430    0.9967   -1.8448 C   0  0  0  0  0  0  0  0  0  0  0  0
   -0.4232    1.2345   -1.2604 C   0  0  0  0  0  0  0  0  0  0  0  0
   -1.4392    1.1051   -2.3141 N   0  0  0  0  0  0  0  0  0  0  0  0
    1.7762   -0.0114   -1.5574 C   0  0  0  0  0  0  0  0  0  0  0  0
    2.9539    0.1368   -2.2409 N   0  0  0  0  0  0  0  0  0  0  0  0
    4.4429    3.5041   -5.3792 N   0  0  0  0  0  0  0  0  0  0  0  0
  1  6  1  0  0  0  0
  2  1  1  0  0  0  0
  2  3  2  0  0  0  0
  3  4  1  0  0  0  0
  4  5  2  0  0  0  0
  4 12  1  0  0  0  0
  5  8  1  0  0  0  0
  6  7  2  0  0  0  0
  6  5  1  0  0  0  0
  8 11  2  0  0  0  0
  8  9  1  0  0  0  0
 10  9  1  0  0  0  0
 12 11  1  0  0  0  0
 13  2  1  0  0  0  0
M  END
>  <CHROM.1>
66.60977251,91.42521920,1.82367453,1.95608111,-3.12764353,0.69468295,0.27063820
-0.63159523

>  <Name>
lig.pdb

>  <RI>
2.86608e+07

>  <Rbt.Current_Directory>
/home/itssahil/PROJECTS/Mol_Feturizer/New_Systems/rnas/2l1v

>  <Rbt.Executable>
rbdock ($Id: //depot/dev/client3/rdock/2013.1/src/exe/rbdock.cxx#4 $)

>  <Rbt.Library>
libRbt.so (2013.1, Build901 2013/11/27)

>  <Rbt.Parameter_File>
/export/apps/rDock/src/rDock_2013.1_src/data/scripts/dock_solv.prm

>  <Rbt.Receptor>
prm/pocket_docking_7.prm

>  <SCORE>
-64.2962

>  <SCORE.INTER>
-65.1998

>  <SCORE.INTER.CONST>
1

>  <SCORE.INTER.POLAR>
-6.70644

>  <SCORE.INTER.ROT>
2

>  <SCORE.INTER.SOLV>
18.5883

>  <SCORE.INTER.VDW>
-32.2412

>  <SCORE.INTER.norm>
-5.01537

>  <SCORE.INTRA>
0.903581

>  <SCORE.INTRA.DIHEDRAL>
-0.0159198

>  <SCORE.INTRA.DIHEDRAL.0>
1.43995

>  <SCORE.INTRA.POLAR>
0.272593

>  <SCORE.INTRA.POLAR.0>
-0.272593

>  <SCORE.INTRA.REPUL>
0

>  <SCORE.INTRA.REPUL.0>
0

>  <SCORE.INTRA.SOLV>
-0.101008

>  <SCORE.INTRA.SOLV.lig_0>
-22.6728

>  <SCORE.INTRA.VDW>
0.0352299

>  <SCORE.INTRA.VDW.0>
-0.754459

>  <SCORE.INTRA.norm>
0.0695062

>  <SCORE.RESTR>
0

>  <SCORE.RESTR.CAVITY>
0

>  <SCORE.RESTR.norm>
0

>  <SCORE.SYSTEM>
0

>  <SCORE.SYSTEM.CONST>
0

>  <SCORE.SYSTEM.DIHEDRAL>
0

>  <SCORE.SYSTEM.SOLV>
0

>  <SCORE.SYSTEM.norm>
0

>  <SCORE.heavy>
13

>  <SCORE.norm>
-4.94586

>  <RMSD>
0.377

$$$$
lig.pdb
 OpenBabel11021811453D
libRbt.so/2013.1/901 2013/11/27
 13 14  0  0  0  0  0  0  0  0999 V2000
    2.2934    3.5696   -4.3664 N   0  0  0  0  0  0  0  0  0  0  0  0
    3.5187    2.9725   -4.5343 C   0  0  0  0  0  0  0  0  0  0  0  0
    3.8110    1.8506   -3.8856 N   0  0  0  0  0  0  0  0  0  0  0  0
    2.9117    1.2574   -3.0407 C   0  0  0  0  0  0  0  0  0  0  0  0
    1.6384    1.8457   -2.8315 C   0  0  0  0  0  0  0  0  0  0  0  0
    1.3401    3.0459   -3.5373 C   0  0  0  0  0  0  0  0  0  0  0  0
    0.2628    3.5995   -3.4117 O   0  0  0  0  0  0  0  0  0  0  0  0
    0.9385    0.9998   -1.8648 C   0  0  0  0  0  0  0  0  0  0  0  0
   -0.4245    1.2374   -1.2732 C   0  0  0  0  0  0  0  0  0  0  0  0
   -1.4459    1.1099   -2.3220 N   0  0  0  0  0  0  0  0  0  0  0  0
    1.7678   -0.0156   -1.5922 C   0  0  0  0  0  0  0  0  0  0  0  0
    2.9440    0.1349   -2.2777 N   0  0  0  0  0  0  0  0  0  0  0  0
    4.4393    3.5318   -5.3809 N   0  0  0  0  0  0  0  0  0  0  0  0
  1  6  1  0  0  0  0
  2  1  1  0  0  0  0
  2  3  2  0  0  0  0
  3  4  1  0  0  0  0
  4  5  2  0  0  0  0
  4 12  1  0  0  0  0
  5  8  1  0  0  0  0
  6  7  2  0  0  0  0
  6  5  1  0  0  0  0
  8 11  2  0  0  0  0
  8  9  1  0  0  0  0
 10  9  1  0  0  0  0
 12 11  1  0  0  0  0
 13  2  1  0  0  0  0
M  END
>  <CHROM.1>
67.26281456,91.24467658,1.81967220,1.96858760,-3.13891711,0.69340364,0.27569467
-0.61875664

>  <Name>
lig.pdb

>  <RI>
1.77584e+07

>  <Rbt.Current_Directory>
/home/itssahil/PROJECTS/Mol_Feturizer/New_Systems/rnas/2l1v

>  <Rbt.Executable>
rbdock ($Id: //depot/dev/client3/rdock/2013.1/src/exe/rbdock.cxx#4 $)

>  <Rbt.Library>
libRbt.so (2013.1, Build901 2013/11/27)

>  <Rbt.Parameter_File>
/export/apps/rDock/src/rDock_2013.1_src/data/scripts/dock_solv.prm

>  <Rbt.Receptor>
prm/blind_docking_80.prm

>  <SCORE>
-64.2789

>  <SCORE.INTER>
-65.1875

>  <SCORE.INTER.CONST>
1

>  <SCORE.INTER.POLAR>
-6.70192

>  <SCORE.INTER.ROT>
2

>  <SCORE.INTER.SOLV>
18.6925

>  <SCORE.INTER.VDW>
-32.2828

>  <SCORE.INTER.norm>
-5.01443

>  <SCORE.INTRA>
0.908651

>  <SCORE.INTRA.DIHEDRAL>
-0.0042907

>  <SCORE.INTRA.DIHEDRAL.0>
1.43995

>  <SCORE.INTRA.POLAR>
0.272593

>  <SCORE.INTRA.POLAR.0>
-0.272593

>  <SCORE.INTRA.REPUL>
0

>  <SCORE.INTRA.REPUL.0>
0

>  <SCORE.INTRA.SOLV>
-0.10744

>  <SCORE.INTRA.SOLV.lig_0>
-22.6728

>  <SCORE.INTRA.VDW>
0.0377019

>  <SCORE.INTRA.VDW.0>
-0.754459

>  <SCORE.INTRA.norm>
0.0698963

>  <SCORE.RESTR>
0

>  <SCORE.RESTR.CAVITY>
0

>  <SCORE.RESTR.norm>
0

>  <SCORE.SYSTEM>
0

>  <SCORE.SYSTEM.CONST>
0

>  <SCORE.SYSTEM.DIHEDRAL>
0

>  <SCORE.SYSTEM.SOLV>
0

>  <SCORE.SYSTEM.norm>
0

>  <SCORE.heavy>
13

>  <SCORE.norm>
-4.94453

>  <RMSD>
0.378

$$$$
lig.pdb
 OpenBabel11021811453D
libRbt.so/2013.1/901 2013/11/27
 13 14  0  0  0  0  0  0  0  0999 V2000
    2.2978    3.5604   -4.3646 N   0  0  0  0  0  0  0  0  0  0  0  0
    3.5204    2.9587   -4.5360 C   0  0  0  0  0  0  0  0  0  0  0  0
    3.8108    1.8363   -3.8872 N   0  0  0  0  0  0  0  0  0  0  0  0
    2.9122    1.2473   -3.0388 C   0  0  0  0  0  0  0  0  0  0  0  0
    1.6417    1.8403   -2.8260 C   0  0  0  0  0  0  0  0  0  0  0  0
    1.3453    3.0409   -3.5319 C   0  0  0  0  0  0  0  0  0  0  0  0
    0.2705    3.5985   -3.4033 O   0  0  0  0  0  0  0  0  0  0  0  0
    0.9420    0.9978   -1.8562 C   0  0  0  0  0  0  0  0  0  0  0  0
   -0.4183    1.2408   -1.2602 C   0  0  0  0  0  0  0  0  0  0  0  0
   -1.4445    1.1053   -2.3033 N   0  0  0  0  0  0  0  0  0  0  0  0
    1.7684   -0.0203   -1.5853 C   0  0  0  0  0  0  0  0  0  0  0  0
    2.9429    0.1254   -2.2748 N   0  0  0  0  0  0  0  0  0  0  0  0
    4.4402    3.5139   -5.3862 N   0  0  0  0  0  0  0  0  0  0  0  0
  1  6  1  0  0  0  0
  2  1  1  0  0  0  0
  2  3  2  0  0  0  0
  3  4  1  0  0  0  0
  4  5  2  0  0  0  0
  4 12  1  0  0  0  0
  5  8  1  0  0  0  0
  6  7  2  0  0  0  0
  6  5  1  0  0  0  0
  8 11  2  0  0  0  0
  8  9  1  0  0  0  0
 10  9  1  0  0  0  0
 12 11  1  0  0  0  0
 13  2  1  0  0  0  0
M  END
>  <CHROM.1>
67.72094096,90.40539818,1.82228290,1.96123072,-3.13387430,0.69293240,0.28020694
-0.61907478

>  <Name>
lig.pdb

>  <RI>
1.459e+07

>  <Rbt.Current_Directory>
/home/itssahil/PROJECTS/Mol_Feturizer/New_Systems/rnas/2l1v

>  <Rbt.Executable>
rbdock ($Id: //depot/dev/client3/rdock/2013.1/src/exe/rbdock.cxx#4 $)

>  <Rbt.Library>
libRbt.so (2013.1, Build901 2013/11/27)

>  <Rbt.Parameter_File>
/export/apps/rDock/src/rDock_2013.1_src/data/scripts/dock_solv.prm

>  <Rbt.Receptor>
prm/pocket_docking_2.prm

>  <SCORE>
-64.2813

>  <SCORE.INTER>
-65.1942

>  <SCORE.INTER.CONST>
1

>  <SCORE.INTER.POLAR>
-6.6944

>  <SCORE.INTER.ROT>
2

>  <SCORE.INTER.SOLV>
18.6697

>  <SCORE.INTER.VDW>
-32.3047

>  <SCORE.INTER.norm>
-5.01494

>  <SCORE.INTRA>
0.912929

>  <SCORE.INTRA.DIHEDRAL>
0.00436155

>  <SCORE.INTRA.DIHEDRAL.0>
1.43995

>  <SCORE.INTRA.POLAR>
0.272593

>  <SCORE.INTRA.POLAR.0>
-0.272593

>  <SCORE.INTRA.REPUL>
0

>  <SCORE.INTRA.REPUL.0>
0

>  <SCORE.INTRA.SOLV>
-0.1122

>  <SCORE.INTRA.SOLV.lig_0>
-22.6728

>  <SCORE.INTRA.VDW>
0.0400338

>  <SCORE.INTRA.VDW.0>
-0.754459

>  <SCORE.INTRA.norm>
0.0702253

>  <SCORE.RESTR>
0

>  <SCORE.RESTR.CAVITY>
0

>  <SCORE.RESTR.norm>
0

>  <SCORE.SYSTEM>
0

>  <SCORE.SYSTEM.CONST>
0

>  <SCORE.SYSTEM.DIHEDRAL>
0

>  <SCORE.SYSTEM.SOLV>
0

>  <SCORE.SYSTEM.norm>
0

>  <SCORE.heavy>
13

>  <SCORE.norm>
-4.94471

>  <RMSD>
0.378

$$$$
lig.pdb
 OpenBabel11021811453D
libRbt.so/2013.1/901 2013/11/27
 13 14  0  0  0  0  0  0  0  0999 V2000
    2.3122    3.5747   -4.3239 N   0  0  0  0  0  0  0  0  0  0  0  0
    3.5325    2.9742   -4.5146 C   0  0  0  0  0  0  0  0  0  0  0  0
    3.8232    1.8369   -3.8925 N   0  0  0  0  0  0  0  0  0  0  0  0
    2.9272    1.2309   -3.0533 C   0  0  0  0  0  0  0  0  0  0  0  0
    1.6591    1.8220   -2.8212 C   0  0  0  0  0  0  0  0  0  0  0  0
    1.3624    3.0389   -3.4986 C   0  0  0  0  0  0  0  0  0  0  0  0
    0.2895    3.5959   -3.3525 O   0  0  0  0  0  0  0  0  0  0  0  0
    0.9619    0.9595   -1.8673 C   0  0  0  0  0  0  0  0  0  0  0  0
   -0.3950    1.1922   -1.2597 C   0  0  0  0  0  0  0  0  0  0  0  0
   -1.4248    1.0998   -2.3038 N   0  0  0  0  0  0  0  0  0  0  0  0
    1.7872   -0.0663   -1.6233 C   0  0  0  0  0  0  0  0  0  0  0  0
    2.9588    0.0921   -2.3149 N   0  0  0  0  0  0  0  0  0  0  0  0
    4.4497    3.5463   -5.3564 N   0  0  0  0  0  0  0  0  0  0  0  0
  1  6  1  0  0  0  0
  2  1  1  0  0  0  0
  2  3  2  0  0  0  0
  3  4  1  0  0  0  0
  4  5  2  0  0  0  0
  4 12  1  0  0  0  0
  5  8  1  0  0  0  0
  6  7  2  0  0  0  0
  6  5  1  0  0  0  0
  8 11  2  0  0  0  0
  8  9  1  0  0  0  0
 10  9  1  0  0  0  0
 12 11  1  0  0  0  0
 13  2  1  0  0  0  0
M  END
>  <CHROM.1>
66.99191209,91.45041559,1.83870466,1.95098932,-3.12747914,0.69277453,0.28585622
-0.59735233

>  <Name>
lig.pdb

>  <RI>
1.75485e+07

>  <Rbt.Current_Directory>
/home/itssahil/PROJECTS/Mol_Feturizer/New_Systems/rnas/2l1v

>  <Rbt.Executable>
rbdock ($Id: //depot/dev/client3/rdock/2013.1/src/exe/rbdock.cxx#4 $)

>  <Rbt.Library>
libRbt.so (2013.1, Build901 2013/11/27)

>  <Rbt.Parameter_File>
/export/apps/rDock/src/rDock_2013.1_src/data/scripts/dock_solv.prm

>  <Rbt.Receptor>
prm/pocket_docking_4.prm

>  <SCORE>
-64.1366

>  <SCORE.INTER>
-65.0746

>  <SCORE.INTER.CONST>
1

>  <SCORE.INTER.POLAR>
-6.74735

>  <SCORE.INTER.ROT>
2

>  <SCORE.INTER.SOLV>
18.6461

>  <SCORE.INTER.VDW>
-32.0406

>  <SCORE.INTER.norm>
-5.00574

>  <SCORE.INTRA>
0.906414

>  <SCORE.INTRA.DIHEDRAL>
-0.00920586

>  <SCORE.INTRA.DIHEDRAL.0>
1.43995

>  <SCORE.INTRA.POLAR>
0.272593

>  <SCORE.INTRA.POLAR.0>
-0.272593

>  <SCORE.INTRA.REPUL>
0

>  <SCORE.INTRA.REPUL.0>
0

>  <SCORE.INTRA.SOLV>
-0.104727

>  <SCORE.INTRA.SOLV.lig_0>
-22.6728

>  <SCORE.INTRA.VDW>
0.0365655

>  <SCORE.INTRA.VDW.0>
-0.754459

>  <SCORE.INTRA.norm>
0.0697242

>  <SCORE.RESTR>
0.0315764

>  <SCORE.RESTR.CAVITY>
0.0315764

>  <SCORE.RESTR.norm>
0.00242895

>  <SCORE.SYSTEM>
0

>  <SCORE.SYSTEM.CONST>
0

>  <SCORE.SYSTEM.DIHEDRAL>
0

>  <SCORE.SYSTEM.SOLV>
0

>  <SCORE.SYSTEM.norm>
0

>  <SCORE.heavy>
13

>  <SCORE.norm>
-4.93358

>  <RMSD>
0.378

$$$$
lig.pdb
 OpenBabel11021811453D
libRbt.so/2013.1/901 2013/11/27
 13 14  0  0  0  0  0  0  0  0999 V2000
    2.2983    3.5303   -4.3712 N   0  0  0  0  0  0  0  0  0  0  0  0
    3.5366    2.9546   -4.5176 C   0  0  0  0  0  0  0  0  0  0  0  0
    3.8466    1.8529   -3.8429 N   0  0  0  0  0  0  0  0  0  0  0  0
    2.9531    1.2599   -2.9917 C   0  0  0  0  0  0  0  0  0  0  0  0
    1.6667    1.8266   -2.8042 C   0  0  0  0  0  0  0  0  0  0  0  0
    1.3496    3.0052   -3.5378 C   0  0  0  0  0  0  0  0  0  0  0  0
    0.2605    3.5394   -3.4317 O   0  0  0  0  0  0  0  0  0  0  0  0
    0.9768    0.9876   -1.8245 C   0  0  0  0  0  0  0  0  0  0  0  0
   -0.3952    1.2102   -1.2477 C   0  0  0  0  0  0  0  0  0  0  0  0
   -1.4013    1.1009   -2.3132 N   0  0  0  0  0  0  0  0  0  0  0  0
    1.8242   -0.0047   -1.5242 C   0  0  0  0  0  0  0  0  0  0  0  0
    3.0022    0.1549   -2.2045 N   0  0  0  0  0  0  0  0  0  0  0  0
    4.4521    3.5142   -5.3697 N   0  0  0  0  0  0  0  0  0  0  0  0
  1  6  1  0  0  0  0
  2  1  1  0  0  0  0
  2  3  2  0  0  0  0
  3  4  1  0  0  0  0
  4  5  2  0  0  0  0
  4 12  1  0  0  0  0
  5  8  1  0  0  0  0
  6  7  2  0  0  0  0
  6  5  1  0  0  0  0
  8 11  2  0  0  0  0
  8  9  1  0  0  0  0
 10  9  1  0  0  0  0
 12 11  1  0  0  0  0
 13  2  1  0  0  0  0
M  END
>  <CHROM.1>
64.66896216,-88.93965748,1.84791289,1.95236451,-3.11384929,0.70209325,0.25990916
-0.64521371

>  <Name>
lig.pdb

>  <RI>
2.86608e+07

>  <Rbt.Current_Directory>
/home/itssahil/PROJECTS/Mol_Feturizer/New_Systems/rnas/2l1v

>  <Rbt.Executable>
rbdock ($Id: //depot/dev/client3/rdock/2013.1/src/exe/rbdock.cxx#4 $)

>  <Rbt.Library>
libRbt.so (2013.1, Build901 2013/11/27)

>  <Rbt.Parameter_File>
/export/apps/rDock/src/rDock_2013.1_src/data/scripts/dock_solv.prm

>  <Rbt.Receptor>
prm/pocket_docking_7.prm

>  <SCORE>
-64.1371

>  <SCORE.INTER>
-65.1003

>  <SCORE.INTER.CONST>
1

>  <SCORE.INTER.POLAR>
-6.7531

>  <SCORE.INTER.ROT>
2

>  <SCORE.INTER.SOLV>
18.4488

>  <SCORE.INTER.VDW>
-31.9728

>  <SCORE.INTER.norm>
-5.00772

>  <SCORE.INTRA>
0.96321

>  <SCORE.INTRA.DIHEDRAL>
0.0881573

>  <SCORE.INTRA.DIHEDRAL.0>
1.43995

>  <SCORE.INTRA.POLAR>
0.272593

>  <SCORE.INTRA.POLAR.0>
-0.272593

>  <SCORE.INTRA.REPUL>
0

>  <SCORE.INTRA.REPUL.0>
0

>  <SCORE.INTRA.SOLV>
-0.0847642

>  <SCORE.INTRA.SOLV.lig_0>
-22.6728

>  <SCORE.INTRA.VDW>
0.0346982

>  <SCORE.INTRA.VDW.0>
-0.754459

>  <SCORE.INTRA.norm>
0.0740931

>  <SCORE.RESTR>
0

>  <SCORE.RESTR.CAVITY>
0

>  <SCORE.RESTR.norm>
0

>  <SCORE.SYSTEM>
0

>  <SCORE.SYSTEM.CONST>
0

>  <SCORE.SYSTEM.DIHEDRAL>
0

>  <SCORE.SYSTEM.SOLV>
0

>  <SCORE.SYSTEM.norm>
0

>  <SCORE.heavy>
13

>  <SCORE.norm>
-4.93362

>  <RMSD>
0.378

$$$$
lig.pdb
 OpenBabel11021811453D
libRbt.so/2013.1/901 2013/11/27
 13 14  0  0  0  0  0  0  0  0999 V2000
    2.2912    3.5457   -4.3731 N   0  0  0  0  0  0  0  0  0  0  0  0
    3.5237    2.9582   -4.5211 C   0  0  0  0  0  0  0  0  0  0  0  0
    3.8203    1.8480   -3.8544 N   0  0  0  0  0  0  0  0  0  0  0  0
    2.9184    1.2576   -3.0104 C   0  0  0  0  0  0  0  0  0  0  0  0
    1.6376    1.8363   -2.8215 C   0  0  0  0  0  0  0  0  0  0  0  0
    1.3348    3.0240   -3.5463 C   0  0  0  0  0  0  0  0  0  0  0  0
    0.2512    3.5689   -3.4387 O   0  0  0  0  0  0  0  0  0  0  0  0
    0.9363    0.9968   -1.8503 C   0  0  0  0  0  0  0  0  0  0  0  0
   -0.4347    1.2291   -1.2752 C   0  0  0  0  0  0  0  0  0  0  0  0
   -1.4422    1.1053   -2.3377 N   0  0  0  0  0  0  0  0  0  0  0  0
    1.7724   -0.0068   -1.5559 C   0  0  0  0  0  0  0  0  0  0  0  0
    2.9539    0.1458   -2.2319 N   0  0  0  0  0  0  0  0  0  0  0  0
    4.4473    3.5149   -5.3662 N   0  0  0  0  0  0  0  0  0  0  0  0
  1  6  1  0  0  0  0
  2  1  1  0  0  0  0
  2  3  2  0  0  0  0
  3  4  1  0  0  0  0
  4  5  2  0  0  0  0
  4 12  1  0  0  0  0
  5  8  1  0  0  0  0
  6  7  2  0  0  0  0
  6  5  1  0  0  0  0
  8 11  2  0  0  0  0
  8  9  1  0  0  0  0
 10  9  1  0  0  0  0
 12 11  1  0  0  0  0
 13  2  1  0  0  0  0
M  END
>  <CHROM.1>
66.09742330,-90.14158450,1.82063960,1.95945757,-3.12906863,0.69358329,0.26310099
-0.63353833

>  <Name>
lig.pdb

>  <RI>
4.02536e+07

>  <Rbt.Current_Directory>
/home/itssahil/PROJECTS/Mol_Feturizer/New_Systems/rnas/2l1v

>  <Rbt.Executable>
rbdock ($Id: //depot/dev/client3/rdock/2013.1/src/exe/rbdock.cxx#4 $)

>  <Rbt.Library>
libRbt.so (2013.1, Build901 2013/11/27)

>  <Rbt.Parameter_File>
/export/apps/rDock/src/rDock_2013.1_src/data/scripts/dock_solv.prm

>  <Rbt.Receptor>
prm/blind_docking_40.prm

>  <SCORE>
-64.1436

>  <SCORE.INTER>
-65.115

>  <SCORE.INTER.CONST>
1

>  <SCORE.INTER.POLAR>
-6.71159

>  <SCORE.INTER.ROT>
2

>  <SCORE.INTER.SOLV>
18.6149

>  <SCORE.INTER.VDW>
-32.1764

>  <SCORE.INTER.norm>
-5.00885

>  <SCORE.INTRA>
0.971389

>  <SCORE.INTRA.DIHEDRAL>
0.107662

>  <SCORE.INTRA.DIHEDRAL.0>
1.43995

>  <SCORE.INTRA.POLAR>
0.272593

>  <SCORE.INTRA.POLAR.0>
-0.272593

>  <SCORE.INTRA.REPUL>
0

>  <SCORE.INTRA.REPUL.0>
0

>  <SCORE.INTRA.SOLV>
-0.0990308

>  <SCORE.INTRA.SOLV.lig_0>
-22.6728

>  <SCORE.INTRA.VDW>
0.0402585

>  <SCORE.INTRA.VDW.0>
-0.754459

>  <SCORE.INTRA.norm>
0.0747222

>  <SCORE.RESTR>
0

>  <SCORE.RESTR.CAVITY>
0

>  <SCORE.RESTR.norm>
0

>  <SCORE.SYSTEM>
0

>  <SCORE.SYSTEM.CONST>
0

>  <SCORE.SYSTEM.DIHEDRAL>
0

>  <SCORE.SYSTEM.SOLV>
0

>  <SCORE.SYSTEM.norm>
0

>  <SCORE.heavy>
13

>  <SCORE.norm>
-4.93413

>  <RMSD>
0.379

$$$$
lig.pdb
 OpenBabel11021811453D
libRbt.so/2013.1/901 2013/11/27
 13 14  0  0  0  0  0  0  0  0999 V2000
    2.3327    3.5713   -4.3195 N   0  0  0  0  0  0  0  0  0  0  0  0
    3.5497    2.9653   -4.5145 C   0  0  0  0  0  0  0  0  0  0  0  0
    3.8365    1.8252   -3.8956 N   0  0  0  0  0  0  0  0  0  0  0  0
    2.9396    1.2218   -3.0555 C   0  0  0  0  0  0  0  0  0  0  0  0
    1.6749    1.8184   -2.8190 C   0  0  0  0  0  0  0  0  0  0  0  0
    1.3824    3.0382   -3.4930 C   0  0  0  0  0  0  0  0  0  0  0  0
    0.3126    3.6001   -3.3430 O   0  0  0  0  0  0  0  0  0  0  0  0
    0.9759    0.9573   -1.8652 C   0  0  0  0  0  0  0  0  0  0  0  0
   -0.3783    1.1953   -1.2537 C   0  0  0  0  0  0  0  0  0  0  0  0
   -1.4130    1.0899   -2.2918 N   0  0  0  0  0  0  0  0  0  0  0  0
    1.7969   -0.0730   -1.6254 C   0  0  0  0  0  0  0  0  0  0  0  0
    2.9675    0.0812   -2.3196 N   0  0  0  0  0  0  0  0  0  0  0  0
    4.4675    3.5347   -5.3574 N   0  0  0  0  0  0  0  0  0  0  0  0
  1  6  1  0  0  0  0
  2  1  1  0  0  0  0
  2  3  2  0  0  0  0
  3  4  1  0  0  0  0
  4  5  2  0  0  0  0
  4 12  1  0  0  0  0
  5  8  1  0  0  0  0
  6  7  2  0  0  0  0
  6  5  1  0  0  0  0
  8 11  2  0  0  0  0
  8  9  1  0  0  0  0
 10  9  1  0  0  0  0
 12 11  1  0  0  0  0
 13  2  1  0  0  0  0
M  END
>  <CHROM.1>
67.84395299,91.46499262,1.85423823,1.94537522,-3.12507003,0.69117932,0.29005624
-0.59385081

>  <Name>
lig.pdb

>  <RI>
4.15415e+07

>  <Rbt.Current_Directory>
/home/itssahil/PROJECTS/Mol_Feturizer/New_Systems/rnas/2l1v

>  <Rbt.Executable>
rbdock ($Id: //depot/dev/client3/rdock/2013.1/src/exe/rbdock.cxx#4 $)

>  <Rbt.Library>
libRbt.so (2013.1, Build901 2013/11/27)

>  <Rbt.Parameter_File>
/export/apps/rDock/src/rDock_2013.1_src/data/scripts/dock_solv.prm

>  <Rbt.Receptor>
prm/blind_docking_60.prm

>  <SCORE>
-64.1024

>  <SCORE.INTER>
-65.0315

>  <SCORE.INTER.CONST>
1

>  <SCORE.INTER.POLAR>
-6.77467

>  <SCORE.INTER.ROT>
2

>  <SCORE.INTER.SOLV>
18.618

>  <SCORE.INTER.VDW>
-31.9114

>  <SCORE.INTER.norm>
-5.00242

>  <SCORE.INTRA>
0.913584

>  <SCORE.INTRA.DIHEDRAL>
0.0072452

>  <SCORE.INTRA.DIHEDRAL.0>
1.43995

>  <SCORE.INTRA.POLAR>
0.272593

>  <SCORE.INTRA.POLAR.0>
-0.272593

>  <SCORE.INTRA.REPUL>
0

>  <SCORE.INTRA.REPUL.0>
0

>  <SCORE.INTRA.SOLV>
-0.113058

>  <SCORE.INTRA.SOLV.lig_0>
-22.6728

>  <SCORE.INTRA.VDW>
0.0396752

>  <SCORE.INTRA.VDW.0>
-0.754459

>  <SCORE.INTRA.norm>
0.0702757

>  <SCORE.RESTR>
0.0154979

>  <SCORE.RESTR.CAVITY>
0.0154979

>  <SCORE.RESTR.norm>
0.00119215

>  <SCORE.SYSTEM>
0

>  <SCORE.SYSTEM.CONST>
0

>  <SCORE.SYSTEM.DIHEDRAL>
0

>  <SCORE.SYSTEM.SOLV>
0

>  <SCORE.SYSTEM.norm>
0

>  <SCORE.heavy>
13

>  <SCORE.norm>
-4.93095

>  <RMSD>
0.380

$$$$
lig.pdb
 OpenBabel11021811453D
libRbt.so/2013.1/901 2013/11/27
 13 14  0  0  0  0  0  0  0  0999 V2000
    2.2887    3.5452   -4.3713 N   0  0  0  0  0  0  0  0  0  0  0  0
    3.5193    2.9545   -4.5226 C   0  0  0  0  0  0  0  0  0  0  0  0
    3.8156    1.8446   -3.8552 N   0  0  0  0  0  0  0  0  0  0  0  0
    2.9154    1.2578   -3.0070 C   0  0  0  0  0  0  0  0  0  0  0  0
    1.6366    1.8399   -2.8145 C   0  0  0  0  0  0  0  0  0  0  0  0
    1.3341    3.0271   -3.5402 C   0  0  0  0  0  0  0  0  0  0  0  0
    0.2521    3.5747   -3.4297 O   0  0  0  0  0  0  0  0  0  0  0  0
    0.9368    1.0036   -1.8395 C   0  0  0  0  0  0  0  0  0  0  0  0
   -0.4316    1.2401   -1.2599 C   0  0  0  0  0  0  0  0  0  0  0  0
   -1.4439    1.1088   -2.3170 N   0  0  0  0  0  0  0  0  0  0  0  0
    1.7716   -0.0015   -1.5464 C   0  0  0  0  0  0  0  0  0  0  0  0
    2.9509    0.1472   -2.2269 N   0  0  0  0  0  0  0  0  0  0  0  0
    4.4411    3.5077   -5.3720 N   0  0  0  0  0  0  0  0  0  0  0  0
  1  6  1  0  0  0  0
  2  1  1  0  0  0  0
  2  3  2  0  0  0  0
  3  4  1  0  0  0  0
  4  5  2  0  0  0  0
  4 12  1  0  0  0  0
  5  8  1  0  0  0  0
  6  7  2  0  0  0  0
  6  5  1  0  0  0  0
  8 11  2  0  0  0  0
  8  9  1  0  0  0  0
 10  9  1  0  0  0  0
 12 11  1  0  0  0  0
 13  2  1  0  0  0  0
M  END
>  <CHROM.1>
66.44283716,91.38509055,1.81902685,1.96122776,-3.12303521,0.69463632,0.26701673
-0.63504693

>  <Name>
lig.pdb

>  <RI>
4.02536e+07

>  <Rbt.Current_Directory>
/home/itssahil/PROJECTS/Mol_Feturizer/New_Systems/rnas/2l1v

>  <Rbt.Executable>
rbdock ($Id: //depot/dev/client3/rdock/2013.1/src/exe/rbdock.cxx#4 $)

>  <Rbt.Library>
libRbt.so (2013.1, Build901 2013/11/27)

>  <Rbt.Parameter_File>
/export/apps/rDock/src/rDock_2013.1_src/data/scripts/dock_solv.prm

>  <Rbt.Receptor>
prm/blind_docking_40.prm

>  <SCORE>
-64.2721

>  <SCORE.INTER>
-65.1746

>  <SCORE.INTER.CONST>
1

>  <SCORE.INTER.POLAR>
-6.70924

>  <SCORE.INTER.ROT>
2

>  <SCORE.INTER.SOLV>
18.5806

>  <SCORE.INTER.VDW>
-32.2124

>  <SCORE.INTER.norm>
-5.01343

>  <SCORE.INTRA>
0.902429

>  <SCORE.INTRA.DIHEDRAL>
-0.0187339

>  <SCORE.INTRA.DIHEDRAL.0>
1.43995

>  <SCORE.INTRA.POLAR>
0.272593

>  <SCORE.INTRA.POLAR.0>
-0.272593

>  <SCORE.INTRA.REPUL>
0

>  <SCORE.INTRA.REPUL.0>
0

>  <SCORE.INTRA.SOLV>
-0.0993959

>  <SCORE.INTRA.SOLV.lig_0>
-22.6728

>  <SCORE.INTRA.VDW>
0.0346786

>  <SCORE.INTRA.VDW.0>
-0.754459

>  <SCORE.INTRA.norm>
0.0694176

>  <SCORE.RESTR>
0

>  <SCORE.RESTR.CAVITY>
0

>  <SCORE.RESTR.norm>
0

>  <SCORE.SYSTEM>
0

>  <SCORE.SYSTEM.CONST>
0

>  <SCORE.SYSTEM.DIHEDRAL>
0

>  <SCORE.SYSTEM.SOLV>
0

>  <SCORE.SYSTEM.norm>
0

>  <SCORE.heavy>
13

>  <SCORE.norm>
-4.94401

>  <RMSD>
0.383

$$$$
lig.pdb
 OpenBabel11021811453D
libRbt.so/2013.1/901 2013/11/27
 13 14  0  0  0  0  0  0  0  0999 V2000
    2.2880    3.5408   -4.3659 N   0  0  0  0  0  0  0  0  0  0  0  0
    3.5199    2.9518   -4.5132 C   0  0  0  0  0  0  0  0  0  0  0  0
    3.8148    1.8411   -3.8465 N   0  0  0  0  0  0  0  0  0  0  0  0
    2.9117    1.2518   -3.0029 C   0  0  0  0  0  0  0  0  0  0  0  0
    1.6315    1.8322   -2.8146 C   0  0  0  0  0  0  0  0  0  0  0  0
    1.3306    3.0203   -3.5395 C   0  0  0  0  0  0  0  0  0  0  0  0
    0.2476    3.5665   -3.4324 O   0  0  0  0  0  0  0  0  0  0  0  0
    0.9287    0.9935   -1.8438 C   0  0  0  0  0  0  0  0  0  0  0  0
   -0.4422    1.2275   -1.2693 C   0  0  0  0  0  0  0  0  0  0  0  0
   -1.4486    1.1134   -2.3340 N   0  0  0  0  0  0  0  0  0  0  0  0
    1.7635   -0.0112   -1.5491 C   0  0  0  0  0  0  0  0  0  0  0  0
    2.9454    0.1400   -2.2245 N   0  0  0  0  0  0  0  0  0  0  0  0
    4.4445    3.5073   -5.3579 N   0  0  0  0  0  0  0  0  0  0  0  0
  1  6  1  0  0  0  0
  2  1  1  0  0  0  0
  2  3  2  0  0  0  0
  3  4  1  0  0  0  0
  4  5  2  0  0  0  0
  4 12  1  0  0  0  0
  5  8  1  0  0  0  0
  6  7  2  0  0  0  0
  6  5  1  0  0  0  0
  8 11  2  0  0  0  0
  8  9  1  0  0  0  0
 10  9  1  0  0  0  0
 12 11  1  0  0  0  0
 13  2  1  0  0  0  0
M  END
>  <CHROM.1>
65.74248820,91.78105471,1.81521808,1.95578058,-3.12249471,0.69217741,0.26360503
-0.63342961

>  <Name>
lig.pdb

>  <RI>
1.459e+07

>  <Rbt.Current_Directory>
/home/itssahil/PROJECTS/Mol_Feturizer/New_Systems/rnas/2l1v

>  <Rbt.Executable>
rbdock ($Id: //depot/dev/client3/rdock/2013.1/src/exe/rbdock.cxx#4 $)

>  <Rbt.Library>
libRbt.so (2013.1, Build901 2013/11/27)

>  <Rbt.Parameter_File>
/export/apps/rDock/src/rDock_2013.1_src/data/scripts/dock_solv.prm

>  <Rbt.Receptor>
prm/pocket_docking_2.prm

>  <SCORE>
-64.2995

>  <SCORE.INTER>
-65.1974

>  <SCORE.INTER.CONST>
1

>  <SCORE.INTER.POLAR>
-6.72021

>  <SCORE.INTER.ROT>
2

>  <SCORE.INTER.SOLV>
18.5806

>  <SCORE.INTER.VDW>
-32.1911

>  <SCORE.INTER.norm>
-5.01519

>  <SCORE.INTRA>
0.897874

>  <SCORE.INTRA.DIHEDRAL>
-0.0293964

>  <SCORE.INTRA.DIHEDRAL.0>
1.43995

>  <SCORE.INTRA.POLAR>
0.272593

>  <SCORE.INTRA.POLAR.0>
-0.272593

>  <SCORE.INTRA.REPUL>
0

>  <SCORE.INTRA.REPUL.0>
0

>  <SCORE.INTRA.SOLV>
-0.0924586

>  <SCORE.INTRA.SOLV.lig_0>
-22.6728

>  <SCORE.INTRA.VDW>
0.0319863

>  <SCORE.INTRA.VDW.0>
-0.754459

>  <SCORE.INTRA.norm>
0.0690672

>  <SCORE.RESTR>
0

>  <SCORE.RESTR.CAVITY>
0

>  <SCORE.RESTR.norm>
0

>  <SCORE.SYSTEM>
0

>  <SCORE.SYSTEM.CONST>
0

>  <SCORE.SYSTEM.DIHEDRAL>
0

>  <SCORE.SYSTEM.SOLV>
0

>  <SCORE.SYSTEM.norm>
0

>  <SCORE.heavy>
13

>  <SCORE.norm>
-4.94612

>  <RMSD>
0.383

$$$$
lig.pdb
 OpenBabel11021811453D
libRbt.so/2013.1/901 2013/11/27
 13 14  0  0  0  0  0  0  0  0999 V2000
    2.2875    3.5512   -4.3736 N   0  0  0  0  0  0  0  0  0  0  0  0
    3.5202    2.9640   -4.5211 C   0  0  0  0  0  0  0  0  0  0  0  0
    3.8172    1.8543   -3.8537 N   0  0  0  0  0  0  0  0  0  0  0  0
    2.9155    1.2644   -3.0091 C   0  0  0  0  0  0  0  0  0  0  0  0
    1.6345    1.8428   -2.8206 C   0  0  0  0  0  0  0  0  0  0  0  0
    1.3313    3.0299   -3.5463 C   0  0  0  0  0  0  0  0  0  0  0  0
    0.2475    3.5744   -3.4391 O   0  0  0  0  0  0  0  0  0  0  0  0
    0.9336    1.0038   -1.8487 C   0  0  0  0  0  0  0  0  0  0  0  0
   -0.4375    1.2362   -1.2737 C   0  0  0  0  0  0  0  0  0  0  0  0
   -1.4450    1.1116   -2.3362 N   0  0  0  0  0  0  0  0  0  0  0  0
    1.7700    0.0007   -1.5536 C   0  0  0  0  0  0  0  0  0  0  0  0
    2.9514    0.1532   -2.2298 N   0  0  0  0  0  0  0  0  0  0  0  0
    4.4435    3.5203   -5.3668 N   0  0  0  0  0  0  0  0  0  0  0  0
  1  6  1  0  0  0  0
  2  1  1  0  0  0  0
  2  3  2  0  0  0  0
  3  4  1  0  0  0  0
  4  5  2  0  0  0  0
  4 12  1  0  0  0  0
  5  8  1  0  0  0  0
  6  7  2  0  0  0  0
  6  5  1  0  0  0  0
  8 11  2  0  0  0  0
  8  9  1  0  0  0  0
 10  9  1  0  0  0  0
 12 11  1  0  0  0  0
 13  2  1  0  0  0  0
M  END
>  <CHROM.1>
66.08168387,-90.08890408,1.81752062,1.96580144,-3.12827586,0.69385643,0.26296446
-0.63440138

>  <Name>
lig.pdb

>  <RI>
1.459e+07

>  <Rbt.Current_Directory>
/home/itssahil/PROJECTS/Mol_Feturizer/New_Systems/rnas/2l1v

>  <Rbt.Executable>
rbdock ($Id: //depot/dev/client3/rdock/2013.1/src/exe/rbdock.cxx#4 $)

>  <Rbt.Library>
libRbt.so (2013.1, Build901 2013/11/27)

>  <Rbt.Parameter_File>
/export/apps/rDock/src/rDock_2013.1_src/data/scripts/dock_solv.prm

>  <Rbt.Receptor>
prm/pocket_docking_2.prm

>  <SCORE>
-64.1335

>  <SCORE.INTER>
-65.1047

>  <SCORE.INTER.CONST>
1

>  <SCORE.INTER.POLAR>
-6.70776

>  <SCORE.INTER.ROT>
2

>  <SCORE.INTER.SOLV>
18.6262

>  <SCORE.INTER.VDW>
-32.186

>  <SCORE.INTER.norm>
-5.00806

>  <SCORE.INTRA>
0.971253

>  <SCORE.INTRA.DIHEDRAL>
0.107409

>  <SCORE.INTRA.DIHEDRAL.0>
1.43995

>  <SCORE.INTRA.POLAR>
0.272593

>  <SCORE.INTRA.POLAR.0>
-0.272593

>  <SCORE.INTRA.REPUL>
0

>  <SCORE.INTRA.REPUL.0>
0

>  <SCORE.INTRA.SOLV>
-0.0988567

>  <SCORE.INTRA.SOLV.lig_0>
-22.6728

>  <SCORE.INTRA.VDW>
0.0401613

>  <SCORE.INTRA.VDW.0>
-0.754459

>  <SCORE.INTRA.norm>
0.0747117

>  <SCORE.RESTR>
0

>  <SCORE.RESTR.CAVITY>
0

>  <SCORE.RESTR.norm>
0

>  <SCORE.SYSTEM>
0

>  <SCORE.SYSTEM.CONST>
0

>  <SCORE.SYSTEM.DIHEDRAL>
0

>  <SCORE.SYSTEM.SOLV>
0

>  <SCORE.SYSTEM.norm>
0

>  <SCORE.heavy>
13

>  <SCORE.norm>
-4.93334

>  <RMSD>
0.383

$$$$
lig.pdb
 OpenBabel11021811453D
libRbt.so/2013.1/901 2013/11/27
 13 14  0  0  0  0  0  0  0  0999 V2000
    2.2897    3.5231   -4.3651 N   0  0  0  0  0  0  0  0  0  0  0  0
    3.5307    2.9501   -4.4983 C   0  0  0  0  0  0  0  0  0  0  0  0
    3.8371    1.8513   -3.8172 N   0  0  0  0  0  0  0  0  0  0  0  0
    2.9373    1.2587   -2.9725 C   0  0  0  0  0  0  0  0  0  0  0  0
    1.6478    1.8228   -2.7987 C   0  0  0  0  0  0  0  0  0  0  0  0
    1.3346    2.9983   -3.5388 C   0  0  0  0  0  0  0  0  0  0  0  0
    0.2432    3.5301   -3.4446 O   0  0  0  0  0  0  0  0  0  0  0  0
    0.9509    0.9851   -1.8228 C   0  0  0  0  0  0  0  0  0  0  0  0
   -0.4269    1.2060   -1.2594 C   0  0  0  0  0  0  0  0  0  0  0  0
   -1.4213    1.1079   -2.3368 N   0  0  0  0  0  0  0  0  0  0  0  0
    1.7980   -0.0042   -1.5115 C   0  0  0  0  0  0  0  0  0  0  0  0
    2.9818    0.1563   -2.1814 N   0  0  0  0  0  0  0  0  0  0  0  0
    4.4526    3.5093   -5.3435 N   0  0  0  0  0  0  0  0  0  0  0  0
  1  6  1  0  0  0  0
  2  1  1  0  0  0  0
  2  3  2  0  0  0  0
  3  4  1  0  0  0  0
  4  5  2  0  0  0  0
  4 12  1  0  0  0  0
  5  8  1  0  0  0  0
  6  7  2  0  0  0  0
  6  5  1  0  0  0  0
  8 11  2  0  0  0  0
  8  9  1  0  0  0  0
 10  9  1  0  0  0  0
 12 11  1  0  0  0  0
 13  2  1  0  0  0  0
M  END
>  <CHROM.1>
63.95188647,-88.93330860,1.83169537,1.94957619,-3.10731699,0.69746714,0.25159125
-0.64785251

>  <Name>
lig.pdb

>  <RI>
4.02536e+07

>  <Rbt.Current_Directory>
/home/itssahil/PROJECTS/Mol_Feturizer/New_Systems/rnas/2l1v

>  <Rbt.Executable>
rbdock ($Id: //depot/dev/client3/rdock/2013.1/src/exe/rbdock.cxx#4 $)

>  <Rbt.Library>
libRbt.so (2013.1, Build901 2013/11/27)

>  <Rbt.Parameter_File>
/export/apps/rDock/src/rDock_2013.1_src/data/scripts/dock_solv.prm

>  <Rbt.Receptor>
prm/blind_docking_40.prm

>  <SCORE>
-64.1172

>  <SCORE.INTER>
-65.078

>  <SCORE.INTER.CONST>
1

>  <SCORE.INTER.POLAR>
-6.75852

>  <SCORE.INTER.ROT>
2

>  <SCORE.INTER.SOLV>
18.4498

>  <SCORE.INTER.VDW>
-31.9402

>  <SCORE.INTER.norm>
-5.006

>  <SCORE.INTRA>
0.960877

>  <SCORE.INTRA.DIHEDRAL>
0.0807959

>  <SCORE.INTRA.DIHEDRAL.0>
1.43995

>  <SCORE.INTRA.POLAR>
0.272593

>  <SCORE.INTRA.POLAR.0>
-0.272593

>  <SCORE.INTRA.REPUL>
0

>  <SCORE.INTRA.REPUL.0>
0

>  <SCORE.INTRA.SOLV>
-0.0778888

>  <SCORE.INTRA.SOLV.lig_0>
-22.6728

>  <SCORE.INTRA.VDW>
0.0326083

>  <SCORE.INTRA.VDW.0>
-0.754459

>  <SCORE.INTRA.norm>
0.0739136

>  <SCORE.RESTR>
0

>  <SCORE.RESTR.CAVITY>
0

>  <SCORE.RESTR.norm>
0

>  <SCORE.SYSTEM>
0

>  <SCORE.SYSTEM.CONST>
0

>  <SCORE.SYSTEM.DIHEDRAL>
0

>  <SCORE.SYSTEM.SOLV>
0

>  <SCORE.SYSTEM.norm>
0

>  <SCORE.heavy>
13

>  <SCORE.norm>
-4.93209

>  <RMSD>
0.385

$$$$
lig.pdb
 OpenBabel11021811453D
libRbt.so/2013.1/901 2013/11/27
 13 14  0  0  0  0  0  0  0  0999 V2000
    2.3111    3.5432   -4.3228 N   0  0  0  0  0  0  0  0  0  0  0  0
    3.5330    2.9400   -4.4941 C   0  0  0  0  0  0  0  0  0  0  0  0
    3.8170    1.8102   -3.8554 N   0  0  0  0  0  0  0  0  0  0  0  0
    2.9124    1.2148   -3.0178 C   0  0  0  0  0  0  0  0  0  0  0  0
    1.6423    1.8091   -2.8055 C   0  0  0  0  0  0  0  0  0  0  0  0
    1.3529    3.0178   -3.5005 C   0  0  0  0  0  0  0  0  0  0  0  0
    0.2789    3.5769   -3.3718 O   0  0  0  0  0  0  0  0  0  0  0  0
    0.9353    0.9586   -1.8481 C   0  0  0  0  0  0  0  0  0  0  0  0
   -0.4274    1.1992   -1.2568 C   0  0  0  0  0  0  0  0  0  0  0  0
   -1.4465    1.0985   -2.3106 N   0  0  0  0  0  0  0  0  0  0  0  0
    1.7576   -0.0645   -1.5834 C   0  0  0  0  0  0  0  0  0  0  0  0
    2.9361    0.0850   -2.2653 N   0  0  0  0  0  0  0  0  0  0  0  0
    4.4587    3.5014   -5.3337 N   0  0  0  0  0  0  0  0  0  0  0  0
  1  6  1  0  0  0  0
  2  1  1  0  0  0  0
  2  3  2  0  0  0  0
  3  4  1  0  0  0  0
  4  5  2  0  0  0  0
  4 12  1  0  0  0  0
  5  8  1  0  0  0  0
  6  7  2  0  0  0  0
  6  5  1  0  0  0  0
  8 11  2  0  0  0  0
  8  9  1  0  0  0  0
 10  9  1  0  0  0  0
 12 11  1  0  0  0  0
 13  2  1  0  0  0  0
M  END
>  <CHROM.1>
66.82396115,90.97846258,1.82507675,1.93470133,-3.11154572,0.68633083,0.27807985
-0.60789510

>  <Name>
lig.pdb

>  <RI>
4.15415e+07

>  <Rbt.Current_Directory>
/home/itssahil/PROJECTS/Mol_Feturizer/New_Systems/rnas/2l1v

>  <Rbt.Executable>
rbdock ($Id: //depot/dev/client3/rdock/2013.1/src/exe/rbdock.cxx#4 $)

>  <Rbt.Library>
libRbt.so (2013.1, Build901 2013/11/27)

>  <Rbt.Parameter_File>
/export/apps/rDock/src/rDock_2013.1_src/data/scripts/dock_solv.prm

>  <Rbt.Receptor>
prm/blind_docking_60.prm

>  <SCORE>
-64.1889

>  <SCORE.INTER>
-65.122

>  <SCORE.INTER.CONST>
1

>  <SCORE.INTER.POLAR>
-6.7546

>  <SCORE.INTER.ROT>
2

>  <SCORE.INTER.SOLV>
18.5786

>  <SCORE.INTER.VDW>
-32.0255

>  <SCORE.INTER.norm>
-5.00938

>  <SCORE.INTRA>
0.905329

>  <SCORE.INTRA.DIHEDRAL>
-0.0123974

>  <SCORE.INTRA.DIHEDRAL.0>
1.43995

>  <SCORE.INTRA.POLAR>
0.272593

>  <SCORE.INTRA.POLAR.0>
-0.272593

>  <SCORE.INTRA.REPUL>
0

>  <SCORE.INTRA.REPUL.0>
0

>  <SCORE.INTRA.SOLV>
-0.103245

>  <SCORE.INTRA.SOLV.lig_0>
-22.6728

>  <SCORE.INTRA.VDW>
0.0363354

>  <SCORE.INTRA.VDW.0>
-0.754459

>  <SCORE.INTRA.norm>
0.0696407

>  <SCORE.RESTR>
0.027749

>  <SCORE.RESTR.CAVITY>
0.027749

>  <SCORE.RESTR.norm>
0.00213454

>  <SCORE.SYSTEM>
0

>  <SCORE.SYSTEM.CONST>
0

>  <SCORE.SYSTEM.DIHEDRAL>
0

>  <SCORE.SYSTEM.SOLV>
0

>  <SCORE.SYSTEM.norm>
0

>  <SCORE.heavy>
13

>  <SCORE.norm>
-4.93761

>  <RMSD>
0.385

$$$$
lig.pdb
 OpenBabel11021811453D
libRbt.so/2013.1/901 2013/11/27
 13 14  0  0  0  0  0  0  0  0999 V2000
    2.3215    3.5441   -4.3108 N   0  0  0  0  0  0  0  0  0  0  0  0
    3.5486    2.9538   -4.4895 C   0  0  0  0  0  0  0  0  0  0  0  0
    3.8481    1.8266   -3.8534 N   0  0  0  0  0  0  0  0  0  0  0  0
    2.9545    1.2211   -3.0112 C   0  0  0  0  0  0  0  0  0  0  0  0
    1.6795    1.8018   -2.7912 C   0  0  0  0  0  0  0  0  0  0  0  0
    1.3735    3.0080   -3.4835 C   0  0  0  0  0  0  0  0  0  0  0  0
    0.2945    3.5557   -3.3482 O   0  0  0  0  0  0  0  0  0  0  0  0
    0.9869    0.9432   -1.8306 C   0  0  0  0  0  0  0  0  0  0  0  0
   -0.3749    1.1690   -1.2313 C   0  0  0  0  0  0  0  0  0  0  0  0
   -1.3960    1.0910   -2.2852 N   0  0  0  0  0  0  0  0  0  0  0  0
    1.8214   -0.0714   -1.5714 C   0  0  0  0  0  0  0  0  0  0  0  0
    2.9943    0.0910   -2.2598 N   0  0  0  0  0  0  0  0  0  0  0  0
    4.4636    3.5256   -5.3339 N   0  0  0  0  0  0  0  0  0  0  0  0
  1  6  1  0  0  0  0
  2  1  1  0  0  0  0
  2  3  2  0  0  0  0
  3  4  1  0  0  0  0
  4  5  2  0  0  0  0
  4 12  1  0  0  0  0
  5  8  1  0  0  0  0
  6  7  2  0  0  0  0
  6  5  1  0  0  0  0
  8 11  2  0  0  0  0
  8  9  1  0  0  0  0
 10  9  1  0  0  0  0
 12 11  1  0  0  0  0
 13  2  1  0  0  0  0
M  END
>  <CHROM.1>
65.45127201,92.43018414,1.85946158,1.93263076,-3.09871478,0.69689071,0.27767329
-0.61137324

>  <Name>
lig.pdb

>  <RI>
1.75485e+07

>  <Rbt.Current_Directory>
/home/itssahil/PROJECTS/Mol_Feturizer/New_Systems/rnas/2l1v

>  <Rbt.Executable>
rbdock ($Id: //depot/dev/client3/rdock/2013.1/src/exe/rbdock.cxx#4 $)

>  <Rbt.Library>
libRbt.so (2013.1, Build901 2013/11/27)

>  <Rbt.Parameter_File>
/export/apps/rDock/src/rDock_2013.1_src/data/scripts/dock_solv.prm

>  <Rbt.Receptor>
prm/pocket_docking_4.prm

>  <SCORE>
-64.0983

>  <SCORE.INTER>
-65.0112

>  <SCORE.INTER.CONST>
1

>  <SCORE.INTER.POLAR>
-6.80191

>  <SCORE.INTER.ROT>
2

>  <SCORE.INTER.SOLV>
18.4228

>  <SCORE.INTER.VDW>
-31.7421

>  <SCORE.INTER.norm>
-5.00087

>  <SCORE.INTRA>
0.896066

>  <SCORE.INTRA.DIHEDRAL>
-0.0331173

>  <SCORE.INTRA.DIHEDRAL.0>
1.43995

>  <SCORE.INTRA.POLAR>
0.272593

>  <SCORE.INTRA.POLAR.0>
-0.272593

>  <SCORE.INTRA.REPUL>
0

>  <SCORE.INTRA.REPUL.0>
0

>  <SCORE.INTRA.SOLV>
-0.0894223

>  <SCORE.INTRA.SOLV.lig_0>
-22.6728

>  <SCORE.INTRA.VDW>
0.0305204

>  <SCORE.INTRA.VDW.0>
-0.754459

>  <SCORE.INTRA.norm>
0.0689281

>  <SCORE.RESTR>
0.0169311

>  <SCORE.RESTR.CAVITY>
0.0169311

>  <SCORE.RESTR.norm>
0.00130239

>  <SCORE.SYSTEM>
0

>  <SCORE.SYSTEM.CONST>
0

>  <SCORE.SYSTEM.DIHEDRAL>
0

>  <SCORE.SYSTEM.SOLV>
0

>  <SCORE.SYSTEM.norm>
0

>  <SCORE.heavy>
13

>  <SCORE.norm>
-4.93063

>  <RMSD>
0.385

$$$$
lig.pdb
 OpenBabel11021811453D
libRbt.so/2013.1/901 2013/11/27
 13 14  0  0  0  0  0  0  0  0999 V2000
    2.3124    3.5460   -4.3207 N   0  0  0  0  0  0  0  0  0  0  0  0
    3.5320    2.9405   -4.4998 C   0  0  0  0  0  0  0  0  0  0  0  0
    3.8173    1.8091   -3.8644 N   0  0  0  0  0  0  0  0  0  0  0  0
    2.9162    1.2144   -3.0225 C   0  0  0  0  0  0  0  0  0  0  0  0
    1.6487    1.8110   -2.8021 C   0  0  0  0  0  0  0  0  0  0  0  0
    1.3578    3.0213   -3.4937 C   0  0  0  0  0  0  0  0  0  0  0  0
    0.2857    3.5825   -3.3580 O   0  0  0  0  0  0  0  0  0  0  0  0
    0.9453    0.9605   -1.8420 C   0  0  0  0  0  0  0  0  0  0  0  0
   -0.4135    1.2031   -1.2426 C   0  0  0  0  0  0  0  0  0  0  0  0
   -1.4396    1.0972   -2.2891 N   0  0  0  0  0  0  0  0  0  0  0  0
    1.7670   -0.0647   -1.5835 C   0  0  0  0  0  0  0  0  0  0  0  0
    2.9419    0.0834   -2.2718 N   0  0  0  0  0  0  0  0  0  0  0  0
    4.4541    3.5012   -5.3438 N   0  0  0  0  0  0  0  0  0  0  0  0
  1  6  1  0  0  0  0
  2  1  1  0  0  0  0
  2  3  2  0  0  0  0
  3  4  1  0  0  0  0
  4  5  2  0  0  0  0
  4 12  1  0  0  0  0
  5  8  1  0  0  0  0
  6  7  2  0  0  0  0
  6  5  1  0  0  0  0
  8 11  2  0  0  0  0
  8  9  1  0  0  0  0
 10  9  1  0  0  0  0
 12 11  1  0  0  0  0
 13  2  1  0  0  0  0
M  END
>  <CHROM.1>
67.19532019,90.92198067,1.82983966,1.93584225,-3.10887111,0.68841729,0.28368258
-0.60658848

>  <Name>
lig.pdb

>  <RI>
1.75485e+07

>  <Rbt.Current_Directory>
/home/itssahil/PROJECTS/Mol_Feturizer/New_Systems/rnas/2l1v

>  <Rbt.Executable>
rbdock ($Id: //depot/dev/client3/rdock/2013.1/src/exe/rbdock.cxx#4 $)

>  <Rbt.Library>
libRbt.so (2013.1, Build901 2013/11/27)

>  <Rbt.Parameter_File>
/export/apps/rDock/src/rDock_2013.1_src/data/scripts/dock_solv.prm

>  <Rbt.Receptor>
prm/pocket_docking_4.prm

>  <SCORE>
-64.1554

>  <SCORE.INTER>
-65.0901

>  <SCORE.INTER.CONST>
1

>  <SCORE.INTER.POLAR>
-6.73604

>  <SCORE.INTER.ROT>
2

>  <SCORE.INTER.SOLV>
18.5662

>  <SCORE.INTER.VDW>
-32.062

>  <SCORE.INTER.norm>
-5.00693

>  <SCORE.INTRA>
0.908238

>  <SCORE.INTRA.DIHEDRAL>
-0.00568232

>  <SCORE.INTRA.DIHEDRAL.0>
1.43995

>  <SCORE.INTRA.POLAR>
0.272593

>  <SCORE.INTRA.POLAR.0>
-0.272593

>  <SCORE.INTRA.REPUL>
0

>  <SCORE.INTRA.REPUL.0>
0

>  <SCORE.INTRA.SOLV>
-0.106887

>  <SCORE.INTRA.SOLV.lig_0>
-22.6728

>  <SCORE.INTRA.VDW>
0.0377083

>  <SCORE.INTRA.VDW.0>
-0.754459

>  <SCORE.INTRA.norm>
0.0698645

>  <SCORE.RESTR>
0.0264979

>  <SCORE.RESTR.CAVITY>
0.0264979

>  <SCORE.RESTR.norm>
0.0020383

>  <SCORE.SYSTEM>
0

>  <SCORE.SYSTEM.CONST>
0

>  <SCORE.SYSTEM.DIHEDRAL>
0

>  <SCORE.SYSTEM.SOLV>
0

>  <SCORE.SYSTEM.norm>
0

>  <SCORE.heavy>
13

>  <SCORE.norm>
-4.93503

>  <RMSD>
0.386

$$$$
lig.pdb
 OpenBabel11021811453D
libRbt.so/2013.1/901 2013/11/27
 13 14  0  0  0  0  0  0  0  0999 V2000
    2.3151    3.5421   -4.3104 N   0  0  0  0  0  0  0  0  0  0  0  0
    3.5390    2.9439   -4.4845 C   0  0  0  0  0  0  0  0  0  0  0  0
    3.8283    1.8140   -3.8483 N   0  0  0  0  0  0  0  0  0  0  0  0
    2.9272    1.2136   -3.0105 C   0  0  0  0  0  0  0  0  0  0  0  0
    1.6552    1.8026   -2.7953 C   0  0  0  0  0  0  0  0  0  0  0  0
    1.3601    3.0114   -3.4876 C   0  0  0  0  0  0  0  0  0  0  0  0
    0.2842    3.5662   -3.3563 O   0  0  0  0  0  0  0  0  0  0  0  0
    0.9528    0.9476   -1.8385 C   0  0  0  0  0  0  0  0  0  0  0  0
   -0.4099    1.1819   -1.2448 C   0  0  0  0  0  0  0  0  0  0  0  0
   -1.4282    1.1000   -2.3011 N   0  0  0  0  0  0  0  0  0  0  0  0
    1.7794   -0.0728   -1.5769 C   0  0  0  0  0  0  0  0  0  0  0  0
    2.9563    0.0825   -2.2601 N   0  0  0  0  0  0  0  0  0  0  0  0
    4.4614    3.5104   -5.3244 N   0  0  0  0  0  0  0  0  0  0  0  0
  1  6  1  0  0  0  0
  2  1  1  0  0  0  0
  2  3  2  0  0  0  0
  3  4  1  0  0  0  0
  4  5  2  0  0  0  0
  4 12  1  0  0  0  0
  5  8  1  0  0  0  0
  6  7  2  0  0  0  0
  6  5  1  0  0  0  0
  8 11  2  0  0  0  0
  8  9  1  0  0  0  0
 10  9  1  0  0  0  0
 12 11  1  0  0  0  0
 13  2  1  0  0  0  0
M  END
>  <CHROM.1>
65.94475811,91.61908410,1.83717936,1.93141165,-3.10172916,0.68933491,0.27767170
-0.60776550

>  <Name>
lig.pdb

>  <RI>
4.15415e+07

>  <Rbt.Current_Directory>
/home/itssahil/PROJECTS/Mol_Feturizer/New_Systems/rnas/2l1v

>  <Rbt.Executable>
rbdock ($Id: //depot/dev/client3/rdock/2013.1/src/exe/rbdock.cxx#4 $)

>  <Rbt.Library>
libRbt.so (2013.1, Build901 2013/11/27)

>  <Rbt.Parameter_File>
/export/apps/rDock/src/rDock_2013.1_src/data/scripts/dock_solv.prm

>  <Rbt.Receptor>
prm/blind_docking_60.prm

>  <SCORE>
-64.1234

>  <SCORE.INTER>
-65.0432

>  <SCORE.INTER.CONST>
1

>  <SCORE.INTER.POLAR>
-6.77918

>  <SCORE.INTER.ROT>
2

>  <SCORE.INTER.SOLV>
18.5054

>  <SCORE.INTER.VDW>
-31.8666

>  <SCORE.INTER.norm>
-5.00332

>  <SCORE.INTRA>
0.899123

>  <SCORE.INTRA.DIHEDRAL>
-0.0264894

>  <SCORE.INTRA.DIHEDRAL.0>
1.43995

>  <SCORE.INTRA.POLAR>
0.272593

>  <SCORE.INTRA.POLAR.0>
-0.272593

>  <SCORE.INTRA.REPUL>
0

>  <SCORE.INTRA.REPUL.0>
0

>  <SCORE.INTRA.SOLV>
-0.0944756

>  <SCORE.INTRA.SOLV.lig_0>
-22.6728

>  <SCORE.INTRA.VDW>
0.0327907

>  <SCORE.INTRA.VDW.0>
-0.754459

>  <SCORE.INTRA.norm>
0.0691633

>  <SCORE.RESTR>
0.0206791

>  <SCORE.RESTR.CAVITY>
0.0206791

>  <SCORE.RESTR.norm>
0.0015907

>  <SCORE.SYSTEM>
0

>  <SCORE.SYSTEM.CONST>
0

>  <SCORE.SYSTEM.DIHEDRAL>
0

>  <SCORE.SYSTEM.SOLV>
0

>  <SCORE.SYSTEM.norm>
0

>  <SCORE.heavy>
13

>  <SCORE.norm>
-4.93257

>  <RMSD>
0.388

$$$$
lig.pdb
 OpenBabel11021811453D
libRbt.so/2013.1/901 2013/11/27
 13 14  0  0  0  0  0  0  0  0999 V2000
    2.2901    3.5710   -4.3631 N   0  0  0  0  0  0  0  0  0  0  0  0
    3.5185    2.9779   -4.5222 C   0  0  0  0  0  0  0  0  0  0  0  0
    3.8119    1.8602   -3.8667 N   0  0  0  0  0  0  0  0  0  0  0  0
    2.9108    1.2676   -3.0234 C   0  0  0  0  0  0  0  0  0  0  0  0
    1.6342    1.8519   -2.8233 C   0  0  0  0  0  0  0  0  0  0  0  0
    1.3347    3.0476   -3.5362 C   0  0  0  0  0  0  0  0  0  0  0  0
    0.2547    3.5976   -3.4186 O   0  0  0  0  0  0  0  0  0  0  0  0
    0.9328    1.0079   -1.8560 C   0  0  0  0  0  0  0  0  0  0  0  0
   -0.4340    1.2431   -1.2721 C   0  0  0  0  0  0  0  0  0  0  0  0
   -1.4495    1.1092   -2.3258 N   0  0  0  0  0  0  0  0  0  0  0  0
    1.7646   -0.0029   -1.5744 C   0  0  0  0  0  0  0  0  0  0  0  0
    2.9436    0.1489   -2.2549 N   0  0  0  0  0  0  0  0  0  0  0  0
    4.4411    3.5367   -5.3670 N   0  0  0  0  0  0  0  0  0  0  0  0
  1  6  1  0  0  0  0
  2  1  1  0  0  0  0
  2  3  2  0  0  0  0
  3  4  1  0  0  0  0
  4  5  2  0  0  0  0
  4 12  1  0  0  0  0
  5  8  1  0  0  0  0
  6  7  2  0  0  0  0
  6  5  1  0  0  0  0
  8 11  2  0  0  0  0
  8  9  1  0  0  0  0
 10  9  1  0  0  0  0
 12 11  1  0  0  0  0
 13  2  1  0  0  0  0
M  END
>  <CHROM.1>
67.15664477,-90.54952208,1.81625346,1.97435288,-3.13016928,0.69315315,0.26966781
-0.62363174

>  <Name>
lig.pdb

>  <RI>
2.86608e+07

>  <Rbt.Current_Directory>
/home/itssahil/PROJECTS/Mol_Feturizer/New_Systems/rnas/2l1v

>  <Rbt.Executable>
rbdock ($Id: //depot/dev/client3/rdock/2013.1/src/exe/rbdock.cxx#4 $)

>  <Rbt.Library>
libRbt.so (2013.1, Build901 2013/11/27)

>  <Rbt.Parameter_File>
/export/apps/rDock/src/rDock_2013.1_src/data/scripts/dock_solv.prm

>  <Rbt.Receptor>
prm/pocket_docking_7.prm

>  <SCORE>
-64.0972

>  <SCORE.INTER>
-65.0764

>  <SCORE.INTER.CONST>
1

>  <SCORE.INTER.POLAR>
-6.69513

>  <SCORE.INTER.ROT>
2

>  <SCORE.INTER.SOLV>
18.6823

>  <SCORE.INTER.VDW>
-32.2279

>  <SCORE.INTER.norm>
-5.00588

>  <SCORE.INTRA>
0.979197

>  <SCORE.INTRA.DIHEDRAL>
0.125762

>  <SCORE.INTRA.DIHEDRAL.0>
1.43995

>  <SCORE.INTRA.POLAR>
0.272593

>  <SCORE.INTRA.POLAR.0>
-0.272593

>  <SCORE.INTRA.REPUL>
0

>  <SCORE.INTRA.REPUL.0>
0

>  <SCORE.INTRA.SOLV>
-0.109473

>  <SCORE.INTRA.SOLV.lig_0>
-22.6728

>  <SCORE.INTRA.VDW>
0.0442382

>  <SCORE.INTRA.VDW.0>
-0.754459

>  <SCORE.INTRA.norm>
0.0753229

>  <SCORE.RESTR>
0

>  <SCORE.RESTR.CAVITY>
0

>  <SCORE.RESTR.norm>
0

>  <SCORE.SYSTEM>
0

>  <SCORE.SYSTEM.CONST>
0

>  <SCORE.SYSTEM.DIHEDRAL>
0

>  <SCORE.SYSTEM.SOLV>
0

>  <SCORE.SYSTEM.norm>
0

>  <SCORE.heavy>
13

>  <SCORE.norm>
-4.93055

>  <RMSD>
0.388

$$$$
lig.pdb
 OpenBabel11021811453D
libRbt.so/2013.1/901 2013/11/27
 13 14  0  0  0  0  0  0  0  0999 V2000
    2.3251    3.5234   -4.2974 N   0  0  0  0  0  0  0  0  0  0  0  0
    3.5593    2.9419   -4.4547 C   0  0  0  0  0  0  0  0  0  0  0  0
    3.8574    1.8194   -3.8096 N   0  0  0  0  0  0  0  0  0  0  0  0
    2.9555    1.2103   -2.9790 C   0  0  0  0  0  0  0  0  0  0  0  0
    1.6729    1.7821   -2.7811 C   0  0  0  0  0  0  0  0  0  0  0  0
    1.3685    2.9832   -3.4828 C   0  0  0  0  0  0  0  0  0  0  0  0
    0.2833    3.5231   -3.3664 O   0  0  0  0  0  0  0  0  0  0  0  0
    0.9720    0.9218   -1.8280 C   0  0  0  0  0  0  0  0  0  0  0  0
   -0.4006    1.1394   -1.2509 C   0  0  0  0  0  0  0  0  0  0  0  0
   -1.3994    1.1040   -2.3282 N   0  0  0  0  0  0  0  0  0  0  0  0
    1.8100   -0.0854   -1.5520 C   0  0  0  0  0  0  0  0  0  0  0  0
    2.9923    0.0834   -2.2227 N   0  0  0  0  0  0  0  0  0  0  0  0
    4.4830    3.5175   -5.2869 N   0  0  0  0  0  0  0  0  0  0  0  0
  1  6  1  0  0  0  0
  2  1  1  0  0  0  0
  2  3  2  0  0  0  0
  3  4  1  0  0  0  0
  4  5  2  0  0  0  0
  4 12  1  0  0  0  0
  5  8  1  0  0  0  0
  6  7  2  0  0  0  0
  6  5  1  0  0  0  0
  8 11  2  0  0  0  0
  8  9  1  0  0  0  0
 10  9  1  0  0  0  0
 12 11  1  0  0  0  0
 13  2  1  0  0  0  0
M  END
>  <CHROM.1>
63.16173900,-89.05588983,1.85680702,1.91821440,-3.08680705,0.69077538,0.26251975
-0.61583674

>  <Name>
lig.pdb

>  <RI>
4.15415e+07

>  <Rbt.Current_Directory>
/home/itssahil/PROJECTS/Mol_Feturizer/New_Systems/rnas/2l1v

>  <Rbt.Executable>
rbdock ($Id: //depot/dev/client3/rdock/2013.1/src/exe/rbdock.cxx#4 $)

>  <Rbt.Library>
libRbt.so (2013.1, Build901 2013/11/27)

>  <Rbt.Parameter_File>
/export/apps/rDock/src/rDock_2013.1_src/data/scripts/dock_solv.prm

>  <Rbt.Receptor>
prm/blind_docking_60.prm

>  <SCORE>
-63.9468

>  <SCORE.INTER>
-64.9023

>  <SCORE.INTER.CONST>
1

>  <SCORE.INTER.POLAR>
-6.85461

>  <SCORE.INTER.ROT>
2

>  <SCORE.INTER.SOLV>
18.37

>  <SCORE.INTER.VDW>
-31.4762

>  <SCORE.INTER.norm>
-4.99248

>  <SCORE.INTRA>
0.948098

>  <SCORE.INTRA.DIHEDRAL>
0.0745046

>  <SCORE.INTRA.DIHEDRAL.0>
1.43995

>  <SCORE.INTRA.POLAR>
0.272593

>  <SCORE.INTRA.POLAR.0>
-0.272593

>  <SCORE.INTRA.REPUL>
0

>  <SCORE.INTRA.REPUL.0>
0

>  <SCORE.INTRA.SOLV>
-0.0704055

>  <SCORE.INTRA.SOLV.lig_0>
-22.6728

>  <SCORE.INTRA.VDW>
0.0192336

>  <SCORE.INTRA.VDW.0>
-0.754459

>  <SCORE.INTRA.norm>
0.0729306

>  <SCORE.RESTR>
0.00734724

>  <SCORE.RESTR.CAVITY>
0.00734724

>  <SCORE.RESTR.norm>
0.000565172

>  <SCORE.SYSTEM>
0

>  <SCORE.SYSTEM.CONST>
0

>  <SCORE.SYSTEM.DIHEDRAL>
0

>  <SCORE.SYSTEM.SOLV>
0

>  <SCORE.SYSTEM.norm>
0

>  <SCORE.heavy>
13

>  <SCORE.norm>
-4.91899

>  <RMSD>
0.391

$$$$
lig.pdb
 OpenBabel11021811453D
libRbt.so/2013.1/901 2013/11/27
 13 14  0  0  0  0  0  0  0  0999 V2000
    2.3226    3.5257   -4.3043 N   0  0  0  0  0  0  0  0  0  0  0  0
    3.5622    2.9556   -4.4608 C   0  0  0  0  0  0  0  0  0  0  0  0
    3.8734    1.8408   -3.8086 N   0  0  0  0  0  0  0  0  0  0  0  0
    2.9799    1.2285   -2.9712 C   0  0  0  0  0  0  0  0  0  0  0  0
    1.6921    1.7887   -2.7739 C   0  0  0  0  0  0  0  0  0  0  0  0
    1.3737    2.9816   -3.4833 C   0  0  0  0  0  0  0  0  0  0  0  0
    0.2834    3.5114   -3.3678 O   0  0  0  0  0  0  0  0  0  0  0  0
    1.0025    0.9282   -1.8127 C   0  0  0  0  0  0  0  0  0  0  0  0
   -0.3707    1.1361   -1.2334 C   0  0  0  0  0  0  0  0  0  0  0  0
   -1.3707    1.0953   -2.3094 N   0  0  0  0  0  0  0  0  0  0  0  0
    1.8514   -0.0685   -1.5318 C   0  0  0  0  0  0  0  0  0  0  0  0
    3.0301    0.1075   -2.2069 N   0  0  0  0  0  0  0  0  0  0  0  0
    4.4778    3.5345   -5.2997 N   0  0  0  0  0  0  0  0  0  0  0  0
  1  6  1  0  0  0  0
  2  1  1  0  0  0  0
  2  3  2  0  0  0  0
  3  4  1  0  0  0  0
  4  5  2  0  0  0  0
  4 12  1  0  0  0  0
  5  8  1  0  0  0  0
  6  7  2  0  0  0  0
  6  5  1  0  0  0  0
  8 11  2  0  0  0  0
  8  9  1  0  0  0  0
 10  9  1  0  0  0  0
 12 11  1  0  0  0  0
 13  2  1  0  0  0  0
M  END
>  <CHROM.1>
62.64051858,-88.05804739,1.87393787,1.92569157,-3.08119551,0.70028824,0.25925321
-0.62594455

>  <Name>
lig.pdb

>  <RI>
4.15415e+07

>  <Rbt.Current_Directory>
/home/itssahil/PROJECTS/Mol_Feturizer/New_Systems/rnas/2l1v

>  <Rbt.Executable>
rbdock ($Id: //depot/dev/client3/rdock/2013.1/src/exe/rbdock.cxx#4 $)

>  <Rbt.Library>
libRbt.so (2013.1, Build901 2013/11/27)

>  <Rbt.Parameter_File>
/export/apps/rDock/src/rDock_2013.1_src/data/scripts/dock_solv.prm

>  <Rbt.Receptor>
prm/blind_docking_60.prm

>  <SCORE>
-63.9892

>  <SCORE.INTER>
-64.9475

>  <SCORE.INTER.CONST>
1

>  <SCORE.INTER.POLAR>
-6.86878

>  <SCORE.INTER.ROT>
2

>  <SCORE.INTER.SOLV>
18.2785

>  <SCORE.INTER.VDW>
-31.4286

>  <SCORE.INTER.norm>
-4.99596

>  <SCORE.INTRA>
0.94677

>  <SCORE.INTRA.DIHEDRAL>
0.0708946

>  <SCORE.INTRA.DIHEDRAL.0>
1.43995

>  <SCORE.INTRA.POLAR>
0.272593

>  <SCORE.INTRA.POLAR.0>
-0.272593

>  <SCORE.INTRA.REPUL>
0

>  <SCORE.INTRA.REPUL.0>
0

>  <SCORE.INTRA.SOLV>
-0.0650351

>  <SCORE.INTRA.SOLV.lig_0>
-22.6728

>  <SCORE.INTRA.VDW>
0.017025

>  <SCORE.INTRA.VDW.0>
-0.754459

>  <SCORE.INTRA.norm>
0.0728284

>  <SCORE.RESTR>
0.0115335

>  <SCORE.RESTR.CAVITY>
0.0115335

>  <SCORE.RESTR.norm>
0.000887191

>  <SCORE.SYSTEM>
0

>  <SCORE.SYSTEM.CONST>
0

>  <SCORE.SYSTEM.DIHEDRAL>
0

>  <SCORE.SYSTEM.SOLV>
0

>  <SCORE.SYSTEM.norm>
0

>  <SCORE.heavy>
13

>  <SCORE.norm>
-4.92224

>  <RMSD>
0.392

$$$$
lig.pdb
 OpenBabel11021811453D
libRbt.so/2013.1/901 2013/11/27
 13 14  0  0  0  0  0  0  0  0999 V2000
    2.3139    3.5621   -4.3216 N   0  0  0  0  0  0  0  0  0  0  0  0
    3.5345    2.9575   -4.4966 C   0  0  0  0  0  0  0  0  0  0  0  0
    3.8179    1.8254   -3.8616 N   0  0  0  0  0  0  0  0  0  0  0  0
    2.9138    1.2291   -3.0241 C   0  0  0  0  0  0  0  0  0  0  0  0
    1.6450    1.8247   -2.8080 C   0  0  0  0  0  0  0  0  0  0  0  0
    1.3563    3.0358   -3.4991 C   0  0  0  0  0  0  0  0  0  0  0  0
    0.2834    3.5963   -3.3670 O   0  0  0  0  0  0  0  0  0  0  0  0
    0.9383    0.9726   -1.8518 C   0  0  0  0  0  0  0  0  0  0  0  0
   -0.4230    1.2137   -1.2575 C   0  0  0  0  0  0  0  0  0  0  0  0
   -1.4453    1.1046   -2.3075 N   0  0  0  0  0  0  0  0  0  0  0  0
    1.7595   -0.0525   -1.5914 C   0  0  0  0  0  0  0  0  0  0  0  0
    2.9370    0.0972   -2.2748 N   0  0  0  0  0  0  0  0  0  0  0  0
    4.4597    3.5198   -5.3362 N   0  0  0  0  0  0  0  0  0  0  0  0
  1  6  1  0  0  0  0
  2  1  1  0  0  0  0
  2  3  2  0  0  0  0
  3  4  1  0  0  0  0
  4  5  2  0  0  0  0
  4 12  1  0  0  0  0
  5  8  1  0  0  0  0
  6  7  2  0  0  0  0
  6  5  1  0  0  0  0
  8 11  2  0  0  0  0
  8  9  1  0  0  0  0
 10  9  1  0  0  0  0
 12 11  1  0  0  0  0
 13  2  1  0  0  0  0
M  END
>  <CHROM.1>
67.36756933,91.07585852,1.82732638,1.94972998,-3.11379122,0.68673435,0.27997444
-0.60461979

>  <Name>
lig.pdb

>  <RI>
1.75485e+07

>  <Rbt.Current_Directory>
/home/itssahil/PROJECTS/Mol_Feturizer/New_Systems/rnas/2l1v

>  <Rbt.Executable>
rbdock ($Id: //depot/dev/client3/rdock/2013.1/src/exe/rbdock.cxx#4 $)

>  <Rbt.Library>
libRbt.so (2013.1, Build901 2013/11/27)

>  <Rbt.Parameter_File>
/export/apps/rDock/src/rDock_2013.1_src/data/scripts/dock_solv.prm

>  <Rbt.Receptor>
prm/pocket_docking_4.prm

>  <SCORE>
-64.1638

>  <SCORE.INTER>
-65.1014

>  <SCORE.INTER.CONST>
1

>  <SCORE.INTER.POLAR>
-6.75738

>  <SCORE.INTER.ROT>
2

>  <SCORE.INTER.SOLV>
18.6171

>  <SCORE.INTER.VDW>
-32.0153

>  <SCORE.INTER.norm>
-5.0078

>  <SCORE.INTRA>
0.909585

>  <SCORE.INTRA.DIHEDRAL>
-0.00236715

>  <SCORE.INTRA.DIHEDRAL.0>
1.43995

>  <SCORE.INTRA.POLAR>
0.272593

>  <SCORE.INTRA.POLAR.0>
-0.272593

>  <SCORE.INTRA.REPUL>
0

>  <SCORE.INTRA.REPUL.0>
0

>  <SCORE.INTRA.SOLV>
-0.10852

>  <SCORE.INTRA.SOLV.lig_0>
-22.6728

>  <SCORE.INTRA.VDW>
0.0382137

>  <SCORE.INTRA.VDW.0>
-0.754459

>  <SCORE.INTRA.norm>
0.0699681

>  <SCORE.RESTR>
0.0279381

>  <SCORE.RESTR.CAVITY>
0.0279381

>  <SCORE.RESTR.norm>
0.00214909

>  <SCORE.SYSTEM>
0

>  <SCORE.SYSTEM.CONST>
0

>  <SCORE.SYSTEM.DIHEDRAL>
0

>  <SCORE.SYSTEM.SOLV>
0

>  <SCORE.SYSTEM.norm>
0

>  <SCORE.heavy>
13

>  <SCORE.norm>
-4.93568

>  <RMSD>
0.392

$$$$
lig.pdb
 OpenBabel11021811453D
libRbt.so/2013.1/901 2013/11/27
 13 14  0  0  0  0  0  0  0  0999 V2000
    2.3224    3.5246   -4.3092 N   0  0  0  0  0  0  0  0  0  0  0  0
    3.5576    2.9436   -4.4601 C   0  0  0  0  0  0  0  0  0  0  0  0
    3.8555    1.8253   -3.8076 N   0  0  0  0  0  0  0  0  0  0  0  0
    2.9523    1.2202   -2.9754 C   0  0  0  0  0  0  0  0  0  0  0  0
    1.6686    1.7917   -2.7839 C   0  0  0  0  0  0  0  0  0  0  0  0
    1.3646    2.9882   -3.4936 C   0  0  0  0  0  0  0  0  0  0  0  0
    0.2785    3.5276   -3.3830 O   0  0  0  0  0  0  0  0  0  0  0  0
    0.9665    0.9364   -1.8273 C   0  0  0  0  0  0  0  0  0  0  0  0
   -0.4077    1.1559   -1.2547 C   0  0  0  0  0  0  0  0  0  0  0  0
   -1.4047    1.1051   -2.3330 N   0  0  0  0  0  0  0  0  0  0  0  0
    1.8050   -0.0682   -1.5433 C   0  0  0  0  0  0  0  0  0  0  0  0
    2.9886    0.0979   -2.2123 N   0  0  0  0  0  0  0  0  0  0  0  0
    4.4826    3.5151   -5.2937 N   0  0  0  0  0  0  0  0  0  0  0  0
  1  6  1  0  0  0  0
  2  1  1  0  0  0  0
  2  3  2  0  0  0  0
  3  4  1  0  0  0  0
  4  5  2  0  0  0  0
  4 12  1  0  0  0  0
  5  8  1  0  0  0  0
  6  7  2  0  0  0  0
  6  5  1  0  0  0  0
  8 11  2  0  0  0  0
  8  9  1  0  0  0  0
 10  9  1  0  0  0  0
 12 11  1  0  0  0  0
 13  2  1  0  0  0  0
M  END
>  <CHROM.1>
63.48769538,-89.02877387,1.85304146,1.92546127,-3.08994542,0.69074084,0.25970590
-0.62155741

>  <Name>
lig.pdb

>  <RI>
1.75485e+07

>  <Rbt.Current_Directory>
/home/itssahil/PROJECTS/Mol_Feturizer/New_Systems/rnas/2l1v

>  <Rbt.Executable>
rbdock ($Id: //depot/dev/client3/rdock/2013.1/src/exe/rbdock.cxx#4 $)

>  <Rbt.Library>
libRbt.so (2013.1, Build901 2013/11/27)

>  <Rbt.Parameter_File>
/export/apps/rDock/src/rDock_2013.1_src/data/scripts/dock_solv.prm

>  <Rbt.Receptor>
prm/pocket_docking_4.prm

>  <SCORE>
-63.9695

>  <SCORE.INTER>
-64.9313

>  <SCORE.INTER.CONST>
1

>  <SCORE.INTER.POLAR>
-6.84968

>  <SCORE.INTER.ROT>
2

>  <SCORE.INTER.SOLV>
18.387

>  <SCORE.INTER.VDW>
-31.5176

>  <SCORE.INTER.norm>
-4.99472

>  <SCORE.INTRA>
0.948674

>  <SCORE.INTRA.DIHEDRAL>
0.0768831

>  <SCORE.INTRA.DIHEDRAL.0>
1.43995

>  <SCORE.INTRA.POLAR>
0.272593

>  <SCORE.INTRA.POLAR.0>
-0.272593

>  <SCORE.INTRA.REPUL>
0

>  <SCORE.INTRA.REPUL.0>
0

>  <SCORE.INTRA.SOLV>
-0.0734973

>  <SCORE.INTRA.SOLV.lig_0>
-22.6728

>  <SCORE.INTRA.VDW>
0.0201659

>  <SCORE.INTRA.VDW.0>
-0.754459

>  <SCORE.INTRA.norm>
0.0729749

>  <SCORE.RESTR>
0.01314

>  <SCORE.RESTR.CAVITY>
0.01314

>  <SCORE.RESTR.norm>
0.00101077

>  <SCORE.SYSTEM>
0

>  <SCORE.SYSTEM.CONST>
0

>  <SCORE.SYSTEM.DIHEDRAL>
0

>  <SCORE.SYSTEM.SOLV>
0

>  <SCORE.SYSTEM.norm>
0

>  <SCORE.heavy>
13

>  <SCORE.norm>
-4.92073

>  <RMSD>
0.392

$$$$
lig.pdb
 OpenBabel11021811453D
libRbt.so/2013.1/901 2013/11/27
 13 14  0  0  0  0  0  0  0  0999 V2000
    2.3126    3.5240   -4.3153 N   0  0  0  0  0  0  0  0  0  0  0  0
    3.5545    2.9568   -4.4648 C   0  0  0  0  0  0  0  0  0  0  0  0
    3.8681    1.8483   -3.8031 N   0  0  0  0  0  0  0  0  0  0  0  0
    2.9749    1.2397   -2.9627 C   0  0  0  0  0  0  0  0  0  0  0  0
    1.6849    1.7971   -2.7724 C   0  0  0  0  0  0  0  0  0  0  0  0
    1.3639    2.9832   -3.4919 C   0  0  0  0  0  0  0  0  0  0  0  0
    0.2717    3.5103   -3.3828 O   0  0  0  0  0  0  0  0  0  0  0  0
    0.9962    0.9419   -1.8058 C   0  0  0  0  0  0  0  0  0  0  0  0
   -0.3789    1.1497   -1.2309 C   0  0  0  0  0  0  0  0  0  0  0  0
   -1.3771    1.0911   -2.3078 N   0  0  0  0  0  0  0  0  0  0  0  0
    1.8479   -0.0496   -1.5153 C   0  0  0  0  0  0  0  0  0  0  0  0
    3.0273    0.1249   -2.1895 N   0  0  0  0  0  0  0  0  0  0  0  0
    4.4698    3.5321   -5.3064 N   0  0  0  0  0  0  0  0  0  0  0  0
  1  6  1  0  0  0  0
  2  1  1  0  0  0  0
  2  3  2  0  0  0  0
  3  4  1  0  0  0  0
  4  5  2  0  0  0  0
  4 12  1  0  0  0  0
  5  8  1  0  0  0  0
  6  7  2  0  0  0  0
  6  5  1  0  0  0  0
  8 11  2  0  0  0  0
  8  9  1  0  0  0  0
 10  9  1  0  0  0  0
 12 11  1  0  0  0  0
 13  2  1  0  0  0  0
M  END
>  <CHROM.1>
62.88839243,-87.95492626,1.86682501,1.93166899,-3.08035682,0.70218136,0.25542433
-0.63413282

>  <Name>
lig.pdb

>  <RI>
4.15415e+07

>  <Rbt.Current_Directory>
/home/itssahil/PROJECTS/Mol_Feturizer/New_Systems/rnas/2l1v

>  <Rbt.Executable>
rbdock ($Id: //depot/dev/client3/rdock/2013.1/src/exe/rbdock.cxx#4 $)

>  <Rbt.Library>
libRbt.so (2013.1, Build901 2013/11/27)

>  <Rbt.Parameter_File>
/export/apps/rDock/src/rDock_2013.1_src/data/scripts/dock_solv.prm

>  <Rbt.Receptor>
prm/blind_docking_60.prm

>  <SCORE>
-64.028

>  <SCORE.INTER>
-64.9963

>  <SCORE.INTER.CONST>
1

>  <SCORE.INTER.POLAR>
-6.84845

>  <SCORE.INTER.ROT>
2

>  <SCORE.INTER.SOLV>
18.2762

>  <SCORE.INTER.VDW>
-31.5281

>  <SCORE.INTER.norm>
-4.99972

>  <SCORE.INTRA>
0.946891

>  <SCORE.INTRA.DIHEDRAL>
0.0722382

>  <SCORE.INTRA.DIHEDRAL.0>
1.43995

>  <SCORE.INTRA.POLAR>
0.272593

>  <SCORE.INTRA.POLAR.0>
-0.272593

>  <SCORE.INTRA.REPUL>
0

>  <SCORE.INTRA.REPUL.0>
0

>  <SCORE.INTRA.SOLV>
-0.0673465

>  <SCORE.INTRA.SOLV.lig_0>
-22.6728

>  <SCORE.INTRA.VDW>
0.0176303

>  <SCORE.INTRA.VDW.0>
-0.754459

>  <SCORE.INTRA.norm>
0.0728378

>  <SCORE.RESTR>
0.0214544

>  <SCORE.RESTR.CAVITY>
0.0214544

>  <SCORE.RESTR.norm>
0.00165034

>  <SCORE.SYSTEM>
0

>  <SCORE.SYSTEM.CONST>
0

>  <SCORE.SYSTEM.DIHEDRAL>
0

>  <SCORE.SYSTEM.SOLV>
0

>  <SCORE.SYSTEM.norm>
0

>  <SCORE.heavy>
13

>  <SCORE.norm>
-4.92523

>  <RMSD>
0.394

$$$$
lig.pdb
 OpenBabel11021811453D
libRbt.so/2013.1/901 2013/11/27
 13 14  0  0  0  0  0  0  0  0999 V2000
    2.3179    3.5284   -4.3025 N   0  0  0  0  0  0  0  0  0  0  0  0
    3.5533    2.9486   -4.4570 C   0  0  0  0  0  0  0  0  0  0  0  0
    3.8539    1.8302   -3.8059 N   0  0  0  0  0  0  0  0  0  0  0  0
    2.9535    1.2238   -2.9718 C   0  0  0  0  0  0  0  0  0  0  0  0
    1.6698    1.7940   -2.7765 C   0  0  0  0  0  0  0  0  0  0  0  0
    1.3627    2.9907   -3.4846 C   0  0  0  0  0  0  0  0  0  0  0  0
    0.2765    3.5290   -3.3709 O   0  0  0  0  0  0  0  0  0  0  0  0
    0.9709    0.9375   -1.8185 C   0  0  0  0  0  0  0  0  0  0  0  0
   -0.4019    1.1554   -1.2421 C   0  0  0  0  0  0  0  0  0  0  0  0
   -1.4018    1.1034   -2.3178 N   0  0  0  0  0  0  0  0  0  0  0  0
    1.8111   -0.0665   -1.5373 C   0  0  0  0  0  0  0  0  0  0  0  0
    2.9928    0.1011   -2.2093 N   0  0  0  0  0  0  0  0  0  0  0  0
    4.4755    3.5216   -5.2927 N   0  0  0  0  0  0  0  0  0  0  0  0
  1  6  1  0  0  0  0
  2  1  1  0  0  0  0
  2  3  2  0  0  0  0
  3  4  1  0  0  0  0
  4  5  2  0  0  0  0
  4 12  1  0  0  0  0
  5  8  1  0  0  0  0
  6  7  2  0  0  0  0
  6  5  1  0  0  0  0
  8 11  2  0  0  0  0
  8  9  1  0  0  0  0
 10  9  1  0  0  0  0
 12 11  1  0  0  0  0
 13  2  1  0  0  0  0
M  END
>  <CHROM.1>
63.52705846,-89.14673206,1.85325973,1.92807626,-3.08292725,0.69315244,0.26128139
-0.62155809

>  <Name>
lig.pdb

>  <RI>
4.15415e+07

>  <Rbt.Current_Directory>
/home/itssahil/PROJECTS/Mol_Feturizer/New_Systems/rnas/2l1v

>  <Rbt.Executable>
rbdock ($Id: //depot/dev/client3/rdock/2013.1/src/exe/rbdock.cxx#4 $)

>  <Rbt.Library>
libRbt.so (2013.1, Build901 2013/11/27)

>  <Rbt.Parameter_File>
/export/apps/rDock/src/rDock_2013.1_src/data/scripts/dock_solv.prm

>  <Rbt.Receptor>
prm/blind_docking_60.prm

>  <SCORE>
-63.9668

>  <SCORE.INTER>
-64.9298

>  <SCORE.INTER.CONST>
1

>  <SCORE.INTER.POLAR>
-6.83808

>  <SCORE.INTER.ROT>
2

>  <SCORE.INTER.SOLV>
18.3633

>  <SCORE.INTER.VDW>
-31.5474

>  <SCORE.INTER.norm>
-4.9946

>  <SCORE.INTRA>
0.948844

>  <SCORE.INTRA.DIHEDRAL>
0.0772351

>  <SCORE.INTRA.DIHEDRAL.0>
1.43995

>  <SCORE.INTRA.POLAR>
0.272593

>  <SCORE.INTRA.POLAR.0>
-0.272593

>  <SCORE.INTRA.REPUL>
0

>  <SCORE.INTRA.REPUL.0>
0

>  <SCORE.INTRA.SOLV>
-0.0739226

>  <SCORE.INTRA.SOLV.lig_0>
-22.6728

>  <SCORE.INTRA.VDW>
0.0203726

>  <SCORE.INTRA.VDW.0>
-0.754459

>  <SCORE.INTRA.norm>
0.072988

>  <SCORE.RESTR>
0.014215

>  <SCORE.RESTR.CAVITY>
0.014215

>  <SCORE.RESTR.norm>
0.00109346

>  <SCORE.SYSTEM>
0

>  <SCORE.SYSTEM.CONST>
0

>  <SCORE.SYSTEM.DIHEDRAL>
0

>  <SCORE.SYSTEM.SOLV>
0

>  <SCORE.SYSTEM.norm>
0

>  <SCORE.heavy>
13

>  <SCORE.norm>
-4.92052

>  <RMSD>
0.396

$$$$
lig.pdb
 OpenBabel11021811453D
libRbt.so/2013.1/901 2013/11/27
 13 14  0  0  0  0  0  0  0  0999 V2000
    2.3185    3.5228   -4.3238 N   0  0  0  0  0  0  0  0  0  0  0  0
    3.5596    2.9533   -4.4705 C   0  0  0  0  0  0  0  0  0  0  0  0
    3.8718    1.8477   -3.8032 N   0  0  0  0  0  0  0  0  0  0  0  0
    2.9779    1.2446   -2.9597 C   0  0  0  0  0  0  0  0  0  0  0  0
    1.6886    1.8047   -2.7721 C   0  0  0  0  0  0  0  0  0  0  0  0
    1.3692    2.9876   -3.4976 C   0  0  0  0  0  0  0  0  0  0  0  0
    0.2776    3.5166   -3.3911 O   0  0  0  0  0  0  0  0  0  0  0  0
    0.9988    0.9554   -1.8011 C   0  0  0  0  0  0  0  0  0  0  0  0
   -0.3759    1.1679   -1.2272 C   0  0  0  0  0  0  0  0  0  0  0  0
   -1.3757    1.0897   -2.3013 N   0  0  0  0  0  0  0  0  0  0  0  0
    1.8493   -0.0358   -1.5057 C   0  0  0  0  0  0  0  0  0  0  0  0
    3.0289    0.1338   -2.1808 N   0  0  0  0  0  0  0  0  0  0  0  0
    4.4756    3.5231   -5.3151 N   0  0  0  0  0  0  0  0  0  0  0  0
  1  6  1  0  0  0  0
  2  1  1  0  0  0  0
  2  3  2  0  0  0  0
  3  4  1  0  0  0  0
  4  5  2  0  0  0  0
  4 12  1  0  0  0  0
  5  8  1  0  0  0  0
  6  7  2  0  0  0  0
  6  5  1  0  0  0  0
  8 11  2  0  0  0  0
  8  9  1  0  0  0  0
 10  9  1  0  0  0  0
 12 11  1  0  0  0  0
 13  2  1  0  0  0  0
M  END
>  <CHROM.1>
63.54088784,-88.10991644,1.87055311,1.93602002,-3.08054805,0.70195031,0.25572449
-0.63856390

>  <Name>
lig.pdb

>  <RI>
1.75485e+07

>  <Rbt.Current_Directory>
/home/itssahil/PROJECTS/Mol_Feturizer/New_Systems/rnas/2l1v

>  <Rbt.Executable>
rbdock ($Id: //depot/dev/client3/rdock/2013.1/src/exe/rbdock.cxx#4 $)

>  <Rbt.Library>
libRbt.so (2013.1, Build901 2013/11/27)

>  <Rbt.Parameter_File>
/export/apps/rDock/src/rDock_2013.1_src/data/scripts/dock_solv.prm

>  <Rbt.Receptor>
prm/pocket_docking_4.prm

>  <SCORE>
-63.9902

>  <SCORE.INTER>
-64.9699

>  <SCORE.INTER.CONST>
1

>  <SCORE.INTER.POLAR>
-6.8494

>  <SCORE.INTER.ROT>
2

>  <SCORE.INTER.SOLV>
18.2733

>  <SCORE.INTER.VDW>
-31.5064

>  <SCORE.INTER.norm>
-4.99768

>  <SCORE.INTRA>
0.959214

>  <SCORE.INTRA.DIHEDRAL>
0.0768892

>  <SCORE.INTRA.DIHEDRAL.0>
1.43995

>  <SCORE.INTRA.POLAR>
0.272593

>  <SCORE.INTRA.POLAR.0>
-0.272593

>  <SCORE.INTRA.REPUL>
0

>  <SCORE.INTRA.REPUL.0>
0

>  <SCORE.INTRA.SOLV>
-0.0736247

>  <SCORE.INTRA.SOLV.lig_0>
-22.6728

>  <SCORE.INTRA.VDW>
0.0307669

>  <SCORE.INTRA.VDW.0>
-0.754459

>  <SCORE.INTRA.norm>
0.0737857

>  <SCORE.RESTR>
0.0204573

>  <SCORE.RESTR.CAVITY>
0.0204573

>  <SCORE.RESTR.norm>
0.00157363

>  <SCORE.SYSTEM>
0

>  <SCORE.SYSTEM.CONST>
0

>  <SCORE.SYSTEM.DIHEDRAL>
0

>  <SCORE.SYSTEM.SOLV>
0

>  <SCORE.SYSTEM.norm>
0

>  <SCORE.heavy>
13

>  <SCORE.norm>
-4.92232

>  <RMSD>
0.396

$$$$
lig.pdb
 OpenBabel11021811453D
libRbt.so/2013.1/901 2013/11/27
 13 14  0  0  0  0  0  0  0  0999 V2000
    2.3176    3.5181   -4.2984 N   0  0  0  0  0  0  0  0  0  0  0  0
    3.5474    2.9288   -4.4613 C   0  0  0  0  0  0  0  0  0  0  0  0
    3.8435    1.8076   -3.8131 N   0  0  0  0  0  0  0  0  0  0  0  0
    2.9438    1.2075   -2.9736 C   0  0  0  0  0  0  0  0  0  0  0  0
    1.6658    1.7875   -2.7697 C   0  0  0  0  0  0  0  0  0  0  0  0
    1.3635    2.9871   -3.4749 C   0  0  0  0  0  0  0  0  0  0  0  0
    0.2822    3.5337   -3.3537 O   0  0  0  0  0  0  0  0  0  0  0  0
    0.9665    0.9357   -1.8078 C   0  0  0  0  0  0  0  0  0  0  0  0
   -0.4009    1.1638   -1.2225 C   0  0  0  0  0  0  0  0  0  0  0  0
   -1.4108    1.0933   -2.2876 N   0  0  0  0  0  0  0  0  0  0  0  0
    1.8007   -0.0750   -1.5328 C   0  0  0  0  0  0  0  0  0  0  0  0
    2.9793    0.0840   -2.2122 N   0  0  0  0  0  0  0  0  0  0  0  0
    4.4686    3.4953   -5.3025 N   0  0  0  0  0  0  0  0  0  0  0  0
  1  6  1  0  0  0  0
  2  1  1  0  0  0  0
  2  3  2  0  0  0  0
  3  4  1  0  0  0  0
  4  5  2  0  0  0  0
  4 12  1  0  0  0  0
  5  8  1  0  0  0  0
  6  7  2  0  0  0  0
  6  5  1  0  0  0  0
  8 11  2  0  0  0  0
  8  9  1  0  0  0  0
 10  9  1  0  0  0  0
 12 11  1  0  0  0  0
 13  2  1  0  0  0  0
M  END
>  <CHROM.1>
64.66590514,92.25349809,1.84833497,1.91777720,-3.07700685,0.69234681,0.26997441
-0.61944360

>  <Name>
lig.pdb

>  <RI>
4.15415e+07

>  <Rbt.Current_Directory>
/home/itssahil/PROJECTS/Mol_Feturizer/New_Systems/rnas/2l1v

>  <Rbt.Executable>
rbdock ($Id: //depot/dev/client3/rdock/2013.1/src/exe/rbdock.cxx#4 $)

>  <Rbt.Library>
libRbt.so (2013.1, Build901 2013/11/27)

>  <Rbt.Parameter_File>
/export/apps/rDock/src/rDock_2013.1_src/data/scripts/dock_solv.prm

>  <Rbt.Receptor>
prm/blind_docking_60.prm

>  <SCORE>
-64.1079

>  <SCORE.INTER>
-65.012

>  <SCORE.INTER.CONST>
1

>  <SCORE.INTER.POLAR>
-6.81821

>  <SCORE.INTER.ROT>
2

>  <SCORE.INTER.SOLV>
18.3297

>  <SCORE.INTER.VDW>
-31.6572

>  <SCORE.INTER.norm>
-5.00092

>  <SCORE.INTRA>
0.892534

>  <SCORE.INTRA.DIHEDRAL>
-0.043021

>  <SCORE.INTRA.DIHEDRAL.0>
1.43995

>  <SCORE.INTRA.POLAR>
0.272593

>  <SCORE.INTRA.POLAR.0>
-0.272593

>  <SCORE.INTRA.REPUL>
0

>  <SCORE.INTRA.REPUL.0>
0

>  <SCORE.INTRA.SOLV>
-0.0818873

>  <SCORE.INTRA.SOLV.lig_0>
-22.6728

>  <SCORE.INTRA.VDW>
0.0281732

>  <SCORE.INTRA.VDW.0>
-0.754459

>  <SCORE.INTRA.norm>
0.0686565

>  <SCORE.RESTR>
0.0115446

>  <SCORE.RESTR.CAVITY>
0.0115446

>  <SCORE.RESTR.norm>
0.00088805

>  <SCORE.SYSTEM>
0

>  <SCORE.SYSTEM.CONST>
0

>  <SCORE.SYSTEM.DIHEDRAL>
0

>  <SCORE.SYSTEM.SOLV>
0

>  <SCORE.SYSTEM.norm>
0

>  <SCORE.heavy>
13

>  <SCORE.norm>
-4.93138

>  <RMSD>
0.397

$$$$
lig.pdb
 OpenBabel11021811453D
libRbt.so/2013.1/901 2013/11/27
 13 14  0  0  0  0  0  0  0  0999 V2000
    2.3154    3.5397   -4.3004 N   0  0  0  0  0  0  0  0  0  0  0  0
    3.5561    2.9712   -4.4540 C   0  0  0  0  0  0  0  0  0  0  0  0
    3.8667    1.8561   -3.8021 N   0  0  0  0  0  0  0  0  0  0  0  0
    2.9716    1.2420   -2.9678 C   0  0  0  0  0  0  0  0  0  0  0  0
    1.6826    1.8005   -2.7735 C   0  0  0  0  0  0  0  0  0  0  0  0
    1.3649    2.9938   -3.4826 C   0  0  0  0  0  0  0  0  0  0  0  0
    0.2737    3.5223   -3.3696 O   0  0  0  0  0  0  0  0  0  0  0  0
    0.9912    0.9383   -1.8152 C   0  0  0  0  0  0  0  0  0  0  0  0
   -0.3838    1.1440   -1.2395 C   0  0  0  0  0  0  0  0  0  0  0  0
   -1.3811    1.0992   -2.3178 N   0  0  0  0  0  0  0  0  0  0  0  0
    1.8405   -0.0578   -1.5329 C   0  0  0  0  0  0  0  0  0  0  0  0
    3.0209    0.1202   -2.2046 N   0  0  0  0  0  0  0  0  0  0  0  0
    4.4734    3.5520   -5.2898 N   0  0  0  0  0  0  0  0  0  0  0  0
  1  6  1  0  0  0  0
  2  1  1  0  0  0  0
  2  3  2  0  0  0  0
  3  4  1  0  0  0  0
  4  5  2  0  0  0  0
  4 12  1  0  0  0  0
  5  8  1  0  0  0  0
  6  7  2  0  0  0  0
  6  5  1  0  0  0  0
  8 11  2  0  0  0  0
  8  9  1  0  0  0  0
 10  9  1  0  0  0  0
 12 11  1  0  0  0  0
 13  2  1  0  0  0  0
M  END
>  <CHROM.1>
62.81026568,-88.02931803,1.86509954,1.93763101,-3.08014543,0.69974186,0.25618366
-0.62462473

>  <Name>
lig.pdb

>  <RI>
4.15415e+07

>  <Rbt.Current_Directory>
/home/itssahil/PROJECTS/Mol_Feturizer/New_Systems/rnas/2l1v

>  <Rbt.Executable>
rbdock ($Id: //depot/dev/client3/rdock/2013.1/src/exe/rbdock.cxx#4 $)

>  <Rbt.Library>
libRbt.so (2013.1, Build901 2013/11/27)

>  <Rbt.Parameter_File>
/export/apps/rDock/src/rDock_2013.1_src/data/scripts/dock_solv.prm

>  <Rbt.Receptor>
prm/blind_docking_60.prm

>  <SCORE>
-63.9826

>  <SCORE.INTER>
-64.9462

>  <SCORE.INTER.CONST>
1

>  <SCORE.INTER.POLAR>
-6.87154

>  <SCORE.INTER.ROT>
2

>  <SCORE.INTER.SOLV>
18.3148

>  <SCORE.INTER.VDW>
-31.4306

>  <SCORE.INTER.norm>
-4.99586

>  <SCORE.INTRA>
0.946875

>  <SCORE.INTRA.DIHEDRAL>
0.0718181

>  <SCORE.INTRA.DIHEDRAL.0>
1.43995

>  <SCORE.INTRA.POLAR>
0.272593

>  <SCORE.INTRA.POLAR.0>
-0.272593

>  <SCORE.INTRA.REPUL>
0

>  <SCORE.INTRA.REPUL.0>
0

>  <SCORE.INTRA.SOLV>
-0.0666346

>  <SCORE.INTRA.SOLV.lig_0>
-22.6728

>  <SCORE.INTRA.VDW>
0.0174685

>  <SCORE.INTRA.VDW.0>
-0.754459

>  <SCORE.INTRA.norm>
0.0728366

>  <SCORE.RESTR>
0.0167447

>  <SCORE.RESTR.CAVITY>
0.0167447

>  <SCORE.RESTR.norm>
0.00128806

>  <SCORE.SYSTEM>
0

>  <SCORE.SYSTEM.CONST>
0

>  <SCORE.SYSTEM.DIHEDRAL>
0

>  <SCORE.SYSTEM.SOLV>
0

>  <SCORE.SYSTEM.norm>
0

>  <SCORE.heavy>
13

>  <SCORE.norm>
-4.92174

>  <RMSD>
0.399

$$$$
lig.pdb
 OpenBabel11021811453D
libRbt.so/2013.1/901 2013/11/27
 13 14  0  0  0  0  0  0  0  0999 V2000
    2.3124    3.5184   -4.3171 N   0  0  0  0  0  0  0  0  0  0  0  0
    3.5541    2.9485   -4.4575 C   0  0  0  0  0  0  0  0  0  0  0  0
    3.8622    1.8423   -3.7892 N   0  0  0  0  0  0  0  0  0  0  0  0
    2.9635    1.2390   -2.9509 C   0  0  0  0  0  0  0  0  0  0  0  0
    1.6734    1.7995   -2.7699 C   0  0  0  0  0  0  0  0  0  0  0  0
    1.3584    2.9830   -3.4963 C   0  0  0  0  0  0  0  0  0  0  0  0
    0.2665    3.5124   -3.3954 O   0  0  0  0  0  0  0  0  0  0  0  0
    0.9781    0.9499   -1.8032 C   0  0  0  0  0  0  0  0  0  0  0  0
   -0.3996    1.1626   -1.2366 C   0  0  0  0  0  0  0  0  0  0  0  0
   -1.3926    1.0964   -2.3178 N   0  0  0  0  0  0  0  0  0  0  0  0
    1.8265   -0.0419   -1.5038 C   0  0  0  0  0  0  0  0  0  0  0  0
    3.0098    0.1276   -2.1725 N   0  0  0  0  0  0  0  0  0  0  0  0
    4.4748    3.5185   -5.2967 N   0  0  0  0  0  0  0  0  0  0  0  0
  1  6  1  0  0  0  0
  2  1  1  0  0  0  0
  2  3  2  0  0  0  0
  3  4  1  0  0  0  0
  4  5  2  0  0  0  0
  4 12  1  0  0  0  0
  5  8  1  0  0  0  0
  6  7  2  0  0  0  0
  6  5  1  0  0  0  0
  8 11  2  0  0  0  0
  8  9  1  0  0  0  0
 10  9  1  0  0  0  0
 12 11  1  0  0  0  0
 13  2  1  0  0  0  0
M  END
>  <CHROM.1>
63.08171589,-88.39625335,1.85721807,1.93199190,-3.07741733,0.69769992,0.25203859
-0.63725388

>  <Name>
lig.pdb

>  <RI>
4.15415e+07

>  <Rbt.Current_Directory>
/home/itssahil/PROJECTS/Mol_Feturizer/New_Systems/rnas/2l1v

>  <Rbt.Executable>
rbdock ($Id: //depot/dev/client3/rdock/2013.1/src/exe/rbdock.cxx#4 $)

>  <Rbt.Library>
libRbt.so (2013.1, Build901 2013/11/27)

>  <Rbt.Parameter_File>
/export/apps/rDock/src/rDock_2013.1_src/data/scripts/dock_solv.prm

>  <Rbt.Receptor>
prm/blind_docking_60.prm

>  <SCORE>
-64.0018

>  <SCORE.INTER>
-64.9708

>  <SCORE.INTER.CONST>
1

>  <SCORE.INTER.POLAR>
-6.85111

>  <SCORE.INTER.ROT>
2

>  <SCORE.INTER.SOLV>
18.2905

>  <SCORE.INTER.VDW>
-31.507

>  <SCORE.INTER.norm>
-4.99775

>  <SCORE.INTRA>
0.947482

>  <SCORE.INTRA.DIHEDRAL>
0.0736883

>  <SCORE.INTRA.DIHEDRAL.0>
1.43995

>  <SCORE.INTRA.POLAR>
0.272593

>  <SCORE.INTRA.POLAR.0>
-0.272593

>  <SCORE.INTRA.REPUL>
0

>  <SCORE.INTRA.REPUL.0>
0

>  <SCORE.INTRA.SOLV>
-0.0693663

>  <SCORE.INTRA.SOLV.lig_0>
-22.6728

>  <SCORE.INTRA.VDW>
0.018506

>  <SCORE.INTRA.VDW.0>
-0.754459

>  <SCORE.INTRA.norm>
0.0728832

>  <SCORE.RESTR>
0.0214666

>  <SCORE.RESTR.CAVITY>
0.0214666

>  <SCORE.RESTR.norm>
0.00165128

>  <SCORE.SYSTEM>
0

>  <SCORE.SYSTEM.CONST>
0

>  <SCORE.SYSTEM.DIHEDRAL>
0

>  <SCORE.SYSTEM.SOLV>
0

>  <SCORE.SYSTEM.norm>
0

>  <SCORE.heavy>
13

>  <SCORE.norm>
-4.92322

>  <RMSD>
0.399

$$$$
lig.pdb
 OpenBabel11021811453D
libRbt.so/2013.1/901 2013/11/27
 13 14  0  0  0  0  0  0  0  0999 V2000
    2.3198    3.5384   -4.3006 N   0  0  0  0  0  0  0  0  0  0  0  0
    3.5527    2.9538   -4.4570 C   0  0  0  0  0  0  0  0  0  0  0  0
    3.8487    1.8323   -3.8092 N   0  0  0  0  0  0  0  0  0  0  0  0
    2.9458    1.2272   -2.9767 C   0  0  0  0  0  0  0  0  0  0  0  0
    1.6646    1.8023   -2.7796 C   0  0  0  0  0  0  0  0  0  0  0  0
    1.3625    3.0023   -3.4841 C   0  0  0  0  0  0  0  0  0  0  0  0
    0.2786    3.5450   -3.3686 O   0  0  0  0  0  0  0  0  0  0  0  0
    0.9622    0.9460   -1.8239 C   0  0  0  0  0  0  0  0  0  0  0  0
   -0.4096    1.1681   -1.2467 C   0  0  0  0  0  0  0  0  0  0  0  0
   -1.4136    1.0855   -2.3166 N   0  0  0  0  0  0  0  0  0  0  0  0
    1.7982   -0.0623   -1.5458 C   0  0  0  0  0  0  0  0  0  0  0  0
    2.9805    0.1022   -2.2175 N   0  0  0  0  0  0  0  0  0  0  0  0
    4.4772    3.5252   -5.2912 N   0  0  0  0  0  0  0  0  0  0  0  0
  1  6  1  0  0  0  0
  2  1  1  0  0  0  0
  2  3  2  0  0  0  0
  3  4  1  0  0  0  0
  4  5  2  0  0  0  0
  4 12  1  0  0  0  0
  5  8  1  0  0  0  0
  6  7  2  0  0  0  0
  6  5  1  0  0  0  0
  8 11  2  0  0  0  0
  8  9  1  0  0  0  0
 10  9  1  0  0  0  0
 12 11  1  0  0  0  0
 13  2  1  0  0  0  0
M  END
>  <CHROM.1>
65.12163437,-89.33049865,1.84821398,1.93295822,-3.08506187,0.69171668,0.26259875
-0.61676623

>  <Name>
lig.pdb

>  <RI>
1.75485e+07

>  <Rbt.Current_Directory>
/home/itssahil/PROJECTS/Mol_Feturizer/New_Systems/rnas/2l1v

>  <Rbt.Executable>
rbdock ($Id: //depot/dev/client3/rdock/2013.1/src/exe/rbdock.cxx#4 $)

>  <Rbt.Library>
libRbt.so (2013.1, Build901 2013/11/27)

>  <Rbt.Parameter_File>
/export/apps/rDock/src/rDock_2013.1_src/data/scripts/dock_solv.prm

>  <Rbt.Receptor>
prm/pocket_docking_4.prm

>  <SCORE>
-63.9203

>  <SCORE.INTER>
-64.8995

>  <SCORE.INTER.CONST>
1

>  <SCORE.INTER.POLAR>
-6.83419

>  <SCORE.INTER.ROT>
2

>  <SCORE.INTER.SOLV>
18.4048

>  <SCORE.INTER.VDW>
-31.554

>  <SCORE.INTER.norm>
-4.99227

>  <SCORE.INTRA>
0.965456

>  <SCORE.INTRA.DIHEDRAL>
0.0937218

>  <SCORE.INTRA.DIHEDRAL.0>
1.43995

>  <SCORE.INTRA.POLAR>
0.272593

>  <SCORE.INTRA.POLAR.0>
-0.272593

>  <SCORE.INTRA.REPUL>
0

>  <SCORE.INTRA.REPUL.0>
0

>  <SCORE.INTRA.SOLV>
-0.0892777

>  <SCORE.INTRA.SOLV.lig_0>
-22.6728

>  <SCORE.INTRA.VDW>
0.036419

>  <SCORE.INTRA.VDW.0>
-0.754459

>  <SCORE.INTRA.norm>
0.0742659

>  <SCORE.RESTR>
0.0138097

>  <SCORE.RESTR.CAVITY>
0.0138097

>  <SCORE.RESTR.norm>
0.00106229

>  <SCORE.SYSTEM>
0

>  <SCORE.SYSTEM.CONST>
0

>  <SCORE.SYSTEM.DIHEDRAL>
0

>  <SCORE.SYSTEM.SOLV>
0

>  <SCORE.SYSTEM.norm>
0

>  <SCORE.heavy>
13

>  <SCORE.norm>
-4.91694

>  <RMSD>
0.399

$$$$
lig.pdb
 OpenBabel11021811453D
libRbt.so/2013.1/901 2013/11/27
 13 14  0  0  0  0  0  0  0  0999 V2000
    2.3131    3.5302   -4.3007 N   0  0  0  0  0  0  0  0  0  0  0  0
    3.5434    2.9420   -4.4640 C   0  0  0  0  0  0  0  0  0  0  0  0
    3.8413    1.8221   -3.8143 N   0  0  0  0  0  0  0  0  0  0  0  0
    2.9431    1.2224   -2.9729 C   0  0  0  0  0  0  0  0  0  0  0  0
    1.6648    1.8014   -2.7685 C   0  0  0  0  0  0  0  0  0  0  0  0
    1.3605    2.9996   -3.4753 C   0  0  0  0  0  0  0  0  0  0  0  0
    0.2788    3.5453   -3.3538 O   0  0  0  0  0  0  0  0  0  0  0  0
    0.9673    0.9504   -1.8046 C   0  0  0  0  0  0  0  0  0  0  0  0
   -0.3997    1.1780   -1.2181 C   0  0  0  0  0  0  0  0  0  0  0  0
   -1.4119    1.0913   -2.2798 N   0  0  0  0  0  0  0  0  0  0  0  0
    1.8028   -0.0591   -1.5289 C   0  0  0  0  0  0  0  0  0  0  0  0
    2.9805    0.1000   -2.2099 N   0  0  0  0  0  0  0  0  0  0  0  0
    4.4631    3.5080   -5.3071 N   0  0  0  0  0  0  0  0  0  0  0  0
  1  6  1  0  0  0  0
  2  1  1  0  0  0  0
  2  3  2  0  0  0  0
  3  4  1  0  0  0  0
  4  5  2  0  0  0  0
  4 12  1  0  0  0  0
  5  8  1  0  0  0  0
  6  7  2  0  0  0  0
  6  5  1  0  0  0  0
  8 11  2  0  0  0  0
  8  9  1  0  0  0  0
 10  9  1  0  0  0  0
 12 11  1  0  0  0  0
 13  2  1  0  0  0  0
M  END
>  <CHROM.1>
65.23990222,92.23113991,1.84670094,1.93010544,-3.07607129,0.69457990,0.26983238
-0.62104167

>  <Name>
lig.pdb

>  <RI>
1.75485e+07

>  <Rbt.Current_Directory>
/home/itssahil/PROJECTS/Mol_Feturizer/New_Systems/rnas/2l1v

>  <Rbt.Executable>
rbdock ($Id: //depot/dev/client3/rdock/2013.1/src/exe/rbdock.cxx#4 $)

>  <Rbt.Library>
libRbt.so (2013.1, Build901 2013/11/27)

>  <Rbt.Parameter_File>
/export/apps/rDock/src/rDock_2013.1_src/data/scripts/dock_solv.prm

>  <Rbt.Receptor>
prm/pocket_docking_4.prm

>  <SCORE>
-64.107

>  <SCORE.INTER>
-65.019

>  <SCORE.INTER.CONST>
1

>  <SCORE.INTER.POLAR>
-6.81038

>  <SCORE.INTER.ROT>
2

>  <SCORE.INTER.SOLV>
18.3438

>  <SCORE.INTER.VDW>
-31.6926

>  <SCORE.INTER.norm>
-5.00146

>  <SCORE.INTRA>
0.895059

>  <SCORE.INTRA.DIHEDRAL>
-0.0360537

>  <SCORE.INTRA.DIHEDRAL.0>
1.43995

>  <SCORE.INTRA.POLAR>
0.272593

>  <SCORE.INTRA.POLAR.0>
-0.272593

>  <SCORE.INTRA.REPUL>
0

>  <SCORE.INTRA.REPUL.0>
0

>  <SCORE.INTRA.SOLV>
-0.08744

>  <SCORE.INTRA.SOLV.lig_0>
-22.6728

>  <SCORE.INTRA.VDW>
0.0299907

>  <SCORE.INTRA.VDW.0>
-0.754459

>  <SCORE.INTRA.norm>
0.0688507

>  <SCORE.RESTR>
0.0168864

>  <SCORE.RESTR.CAVITY>
0.0168864

>  <SCORE.RESTR.norm>
0.00129895

>  <SCORE.SYSTEM>
0

>  <SCORE.SYSTEM.CONST>
0

>  <SCORE.SYSTEM.DIHEDRAL>
0

>  <SCORE.SYSTEM.SOLV>
0

>  <SCORE.SYSTEM.norm>
0

>  <SCORE.heavy>
13

>  <SCORE.norm>
-4.93131

>  <RMSD>
0.401

$$$$
lig.pdb
 OpenBabel11021811453D
libRbt.so/2013.1/901 2013/11/27
 13 14  0  0  0  0  0  0  0  0999 V2000
    2.3151    3.5479   -4.2969 N   0  0  0  0  0  0  0  0  0  0  0  0
    3.5488    2.9652   -4.4537 C   0  0  0  0  0  0  0  0  0  0  0  0
    3.8457    1.8427   -3.8079 N   0  0  0  0  0  0  0  0  0  0  0  0
    2.9431    1.2350   -2.9771 C   0  0  0  0  0  0  0  0  0  0  0  0
    1.6610    1.8081   -2.7797 C   0  0  0  0  0  0  0  0  0  0  0  0
    1.3579    3.0091   -3.4821 C   0  0  0  0  0  0  0  0  0  0  0  0
    0.2733    3.5502   -3.3662 O   0  0  0  0  0  0  0  0  0  0  0  0
    0.9591    0.9490   -1.8262 C   0  0  0  0  0  0  0  0  0  0  0  0
   -0.4133    1.1683   -1.2493 C   0  0  0  0  0  0  0  0  0  0  0  0
   -1.4152    1.1011   -2.3223 N   0  0  0  0  0  0  0  0  0  0  0  0
    1.7961   -0.0588   -1.5495 C   0  0  0  0  0  0  0  0  0  0  0  0
    2.9786    0.1085   -2.2201 N   0  0  0  0  0  0  0  0  0  0  0  0
    4.4731    3.5393   -5.2862 N   0  0  0  0  0  0  0  0  0  0  0  0
  1  6  1  0  0  0  0
  2  1  1  0  0  0  0
  2  3  2  0  0  0  0
  3  4  1  0  0  0  0
  4  5  2  0  0  0  0
  4 12  1  0  0  0  0
  5  8  1  0  0  0  0
  6  7  2  0  0  0  0
  6  5  1  0  0  0  0
  8 11  2  0  0  0  0
  8  9  1  0  0  0  0
 10  9  1  0  0  0  0
 12 11  1  0  0  0  0
 13  2  1  0  0  0  0
M  END
>  <CHROM.1>
64.51651723,-89.32299383,1.84480451,1.94088895,-3.08503875,0.69159006,0.26187268
-0.61534948

>  <Name>
lig.pdb

>  <RI>
4.15415e+07

>  <Rbt.Current_Directory>
/home/itssahil/PROJECTS/Mol_Feturizer/New_Systems/rnas/2l1v

>  <Rbt.Executable>
rbdock ($Id: //depot/dev/client3/rdock/2013.1/src/exe/rbdock.cxx#4 $)

>  <Rbt.Library>
libRbt.so (2013.1, Build901 2013/11/27)

>  <Rbt.Parameter_File>
/export/apps/rDock/src/rDock_2013.1_src/data/scripts/dock_solv.prm

>  <Rbt.Receptor>
prm/blind_docking_60.prm

>  <SCORE>
-63.9488

>  <SCORE.INTER>
-64.9287

>  <SCORE.INTER.CONST>
1

>  <SCORE.INTER.POLAR>
-6.83575

>  <SCORE.INTER.ROT>
2

>  <SCORE.INTER.SOLV>
18.4296

>  <SCORE.INTER.VDW>
-31.5765

>  <SCORE.INTER.norm>
-4.99452

>  <SCORE.INTRA>
0.962959

>  <SCORE.INTRA.DIHEDRAL>
0.086599

>  <SCORE.INTRA.DIHEDRAL.0>
1.43995

>  <SCORE.INTRA.POLAR>
0.272593

>  <SCORE.INTRA.POLAR.0>
-0.272593

>  <SCORE.INTRA.REPUL>
0

>  <SCORE.INTRA.REPUL.0>
0

>  <SCORE.INTRA.SOLV>
-0.0834591

>  <SCORE.INTRA.SOLV.lig_0>
-22.6728

>  <SCORE.INTRA.VDW>
0.034574

>  <SCORE.INTRA.VDW.0>
-0.754459

>  <SCORE.INTRA.norm>
0.0740738

>  <SCORE.RESTR>
0.0169787

>  <SCORE.RESTR.CAVITY>
0.0169787

>  <SCORE.RESTR.norm>
0.00130606

>  <SCORE.SYSTEM>
0

>  <SCORE.SYSTEM.CONST>
0

>  <SCORE.SYSTEM.DIHEDRAL>
0

>  <SCORE.SYSTEM.SOLV>
0

>  <SCORE.SYSTEM.norm>
0

>  <SCORE.heavy>
13

>  <SCORE.norm>
-4.91914

>  <RMSD>
0.403

$$$$
lig.pdb
 OpenBabel11021811453D
libRbt.so/2013.1/901 2013/11/27
 13 14  0  0  0  0  0  0  0  0999 V2000
    2.3060    3.5191   -4.3077 N   0  0  0  0  0  0  0  0  0  0  0  0
    3.5487    2.9516   -4.4478 C   0  0  0  0  0  0  0  0  0  0  0  0
    3.8582    1.8449   -3.7811 N   0  0  0  0  0  0  0  0  0  0  0  0
    2.9598    1.2386   -2.9446 C   0  0  0  0  0  0  0  0  0  0  0  0
    1.6685    1.7965   -2.7640 C   0  0  0  0  0  0  0  0  0  0  0  0
    1.3521    2.9806   -3.4888 C   0  0  0  0  0  0  0  0  0  0  0  0
    0.2592    3.5079   -3.3880 O   0  0  0  0  0  0  0  0  0  0  0  0
    0.9738    0.9440   -1.7994 C   0  0  0  0  0  0  0  0  0  0  0  0
   -0.4049    1.1534   -1.2338 C   0  0  0  0  0  0  0  0  0  0  0  0
   -1.3954    1.1013   -2.3180 N   0  0  0  0  0  0  0  0  0  0  0  0
    1.8237   -0.0467   -1.5008 C   0  0  0  0  0  0  0  0  0  0  0  0
    3.0073    0.1260   -2.1680 N   0  0  0  0  0  0  0  0  0  0  0  0
    4.4693    3.5246   -5.2853 N   0  0  0  0  0  0  0  0  0  0  0  0
  1  6  1  0  0  0  0
  2  1  1  0  0  0  0
  2  3  2  0  0  0  0
  3  4  1  0  0  0  0
  4  5  2  0  0  0  0
  4 12  1  0  0  0  0
  5  8  1  0  0  0  0
  6  7  2  0  0  0  0
  6  5  1  0  0  0  0
  8 11  2  0  0  0  0
  8  9  1  0  0  0  0
 10  9  1  0  0  0  0
 12 11  1  0  0  0  0
 13  2  1  0  0  0  0
M  END
>  <CHROM.1>
62.48921255,-88.30998558,1.85249157,1.93110005,-3.07131613,0.69783238,0.25071074
-0.63617602

>  <Name>
lig.pdb

>  <RI>
1.75485e+07

>  <Rbt.Current_Directory>
/home/itssahil/PROJECTS/Mol_Feturizer/New_Systems/rnas/2l1v

>  <Rbt.Executable>
rbdock ($Id: //depot/dev/client3/rdock/2013.1/src/exe/rbdock.cxx#4 $)

>  <Rbt.Library>
libRbt.so (2013.1, Build901 2013/11/27)

>  <Rbt.Parameter_File>
/export/apps/rDock/src/rDock_2013.1_src/data/scripts/dock_solv.prm

>  <Rbt.Receptor>
prm/pocket_docking_4.prm

>  <SCORE>
-64.0057

>  <SCORE.INTER>
-64.9749

>  <SCORE.INTER.CONST>
1

>  <SCORE.INTER.POLAR>
-6.85016

>  <SCORE.INTER.ROT>
2

>  <SCORE.INTER.SOLV>
18.2757

>  <SCORE.INTER.VDW>
-31.5079

>  <SCORE.INTER.norm>
-4.99807

>  <SCORE.INTRA>
0.946901

>  <SCORE.INTRA.DIHEDRAL>
0.0702613

>  <SCORE.INTRA.DIHEDRAL.0>
1.43995

>  <SCORE.INTRA.POLAR>
0.272593

>  <SCORE.INTRA.POLAR.0>
-0.272593

>  <SCORE.INTRA.REPUL>
0

>  <SCORE.INTRA.REPUL.0>
0

>  <SCORE.INTRA.SOLV>
-0.0637057

>  <SCORE.INTRA.SOLV.lig_0>
-22.6728

>  <SCORE.INTRA.VDW>
0.0168082

>  <SCORE.INTRA.VDW.0>
-0.754459

>  <SCORE.INTRA.norm>
0.0728385

>  <SCORE.RESTR>
0.0222595

>  <SCORE.RESTR.CAVITY>
0.0222595

>  <SCORE.RESTR.norm>
0.00171227

>  <SCORE.SYSTEM>
0

>  <SCORE.SYSTEM.CONST>
0

>  <SCORE.SYSTEM.DIHEDRAL>
0

>  <SCORE.SYSTEM.SOLV>
0

>  <SCORE.SYSTEM.norm>
0

>  <SCORE.heavy>
13

>  <SCORE.norm>
-4.92351

>  <RMSD>
0.403

$$$$
lig.pdb
 OpenBabel11021811453D
libRbt.so/2013.1/901 2013/11/27
 13 14  0  0  0  0  0  0  0  0999 V2000
    2.3281    3.5330   -4.3079 N   0  0  0  0  0  0  0  0  0  0  0  0
    3.5626    2.9512   -4.4618 C   0  0  0  0  0  0  0  0  0  0  0  0
    3.8636    1.8362   -3.8052 N   0  0  0  0  0  0  0  0  0  0  0  0
    2.9644    1.2352   -2.9658 C   0  0  0  0  0  0  0  0  0  0  0  0
    1.6817    1.8077   -2.7710 C   0  0  0  0  0  0  0  0  0  0  0  0
    1.3742    3.0006   -3.4851 C   0  0  0  0  0  0  0  0  0  0  0  0
    0.2887    3.5406   -3.3720 O   0  0  0  0  0  0  0  0  0  0  0  0
    0.9841    0.9571   -1.8068 C   0  0  0  0  0  0  0  0  0  0  0  0
   -0.3874    1.1795   -1.2287 C   0  0  0  0  0  0  0  0  0  0  0  0
   -1.3926    1.0905   -2.2969 N   0  0  0  0  0  0  0  0  0  0  0  0
    1.8240   -0.0461   -1.5218 C   0  0  0  0  0  0  0  0  0  0  0  0
    3.0043    0.1167   -2.1972 N   0  0  0  0  0  0  0  0  0  0  0  0
    4.4836    3.5186   -5.3027 N   0  0  0  0  0  0  0  0  0  0  0  0
  1  6  1  0  0  0  0
  2  1  1  0  0  0  0
  2  3  2  0  0  0  0
  3  4  1  0  0  0  0
  4  5  2  0  0  0  0
  4 12  1  0  0  0  0
  5  8  1  0  0  0  0
  6  7  2  0  0  0  0
  6  5  1  0  0  0  0
  8 11  2  0  0  0  0
  8  9  1  0  0  0  0
 10  9  1  0  0  0  0
 12 11  1  0  0  0  0
 13  2  1  0  0  0  0
M  END
>  <CHROM.1>
64.87111657,93.13959866,1.86457327,1.93678830,-3.07829575,0.69581938,0.26230719
-0.62650414

>  <Name>
lig.pdb

>  <RI>
1.75485e+07

>  <Rbt.Current_Directory>
/home/itssahil/PROJECTS/Mol_Feturizer/New_Systems/rnas/2l1v

>  <Rbt.Executable>
rbdock ($Id: //depot/dev/client3/rdock/2013.1/src/exe/rbdock.cxx#4 $)

>  <Rbt.Library>
libRbt.so (2013.1, Build901 2013/11/27)

>  <Rbt.Parameter_File>
/export/apps/rDock/src/rDock_2013.1_src/data/scripts/dock_solv.prm

>  <Rbt.Receptor>
prm/pocket_docking_4.prm

>  <SCORE>
-64.0635

>  <SCORE.INTER>
-64.9668

>  <SCORE.INTER.CONST>
1

>  <SCORE.INTER.POLAR>
-6.85824

>  <SCORE.INTER.ROT>
2

>  <SCORE.INTER.SOLV>
18.3071

>  <SCORE.INTER.VDW>
-31.4861

>  <SCORE.INTER.norm>
-4.99745

>  <SCORE.INTRA>
0.893127

>  <SCORE.INTRA.DIHEDRAL>
-0.0400368

>  <SCORE.INTRA.DIHEDRAL.0>
1.43995

>  <SCORE.INTRA.POLAR>
0.272593

>  <SCORE.INTRA.POLAR.0>
-0.272593

>  <SCORE.INTRA.REPUL>
0

>  <SCORE.INTRA.REPUL.0>
0

>  <SCORE.INTRA.SOLV>
-0.0835816

>  <SCORE.INTRA.SOLV.lig_0>
-22.6728

>  <SCORE.INTRA.VDW>
0.028121

>  <SCORE.INTRA.VDW.0>
-0.754459

>  <SCORE.INTRA.norm>
0.0687021

>  <SCORE.RESTR>
0.0101918

>  <SCORE.RESTR.CAVITY>
0.0101918

>  <SCORE.RESTR.norm>
0.000783986

>  <SCORE.SYSTEM>
0

>  <SCORE.SYSTEM.CONST>
0

>  <SCORE.SYSTEM.DIHEDRAL>
0

>  <SCORE.SYSTEM.SOLV>
0

>  <SCORE.SYSTEM.norm>
0

>  <SCORE.heavy>
13

>  <SCORE.norm>
-4.92796

>  <RMSD>
0.404

$$$$
lig.pdb
 OpenBabel11021811453D
libRbt.so/2013.1/901 2013/11/27
 13 14  0  0  0  0  0  0  0  0999 V2000
    2.3056    3.5153   -4.3114 N   0  0  0  0  0  0  0  0  0  0  0  0
    3.5499    2.9500   -4.4465 C   0  0  0  0  0  0  0  0  0  0  0  0
    3.8608    1.8476   -3.7733 N   0  0  0  0  0  0  0  0  0  0  0  0
    2.9625    1.2438   -2.9350 C   0  0  0  0  0  0  0  0  0  0  0  0
    1.6697    1.7997   -2.7594 C   0  0  0  0  0  0  0  0  0  0  0  0
    1.3517    2.9792   -3.4911 C   0  0  0  0  0  0  0  0  0  0  0  0
    0.2574    3.5045   -3.3949 O   0  0  0  0  0  0  0  0  0  0  0  0
    0.9754    0.9509   -1.7912 C   0  0  0  0  0  0  0  0  0  0  0  0
   -0.4046    1.1601   -1.2289 C   0  0  0  0  0  0  0  0  0  0  0  0
   -1.3945    1.0866   -2.3124 N   0  0  0  0  0  0  0  0  0  0  0  0
    1.8271   -0.0363   -1.4859 C   0  0  0  0  0  0  0  0  0  0  0  0
    3.0114    0.1356   -2.1522 N   0  0  0  0  0  0  0  0  0  0  0  0
    4.4704    3.5205   -5.2857 N   0  0  0  0  0  0  0  0  0  0  0  0
  1  6  1  0  0  0  0
  2  1  1  0  0  0  0
  2  3  2  0  0  0  0
  3  4  1  0  0  0  0
  4  5  2  0  0  0  0
  4 12  1  0  0  0  0
  5  8  1  0  0  0  0
  6  7  2  0  0  0  0
  6  5  1  0  0  0  0
  8 11  2  0  0  0  0
  8  9  1  0  0  0  0
 10  9  1  0  0  0  0
 12 11  1  0  0  0  0
 13  2  1  0  0  0  0
M  END
>  <CHROM.1>
63.04617986,-88.19211112,1.85370198,1.93183787,-3.06694511,0.69948944,0.24760118
-0.64152484

>  <Name>
lig.pdb

>  <RI>
4.15415e+07

>  <Rbt.Current_Directory>
/home/itssahil/PROJECTS/Mol_Feturizer/New_Systems/rnas/2l1v

>  <Rbt.Executable>
rbdock ($Id: //depot/dev/client3/rdock/2013.1/src/exe/rbdock.cxx#4 $)

>  <Rbt.Library>
libRbt.so (2013.1, Build901 2013/11/27)

>  <Rbt.Parameter_File>
/export/apps/rDock/src/rDock_2013.1_src/data/scripts/dock_solv.prm

>  <Rbt.Receptor>
prm/blind_docking_60.prm

>  <SCORE>
-63.9786

>  <SCORE.INTER>
-64.9492

>  <SCORE.INTER.CONST>
1

>  <SCORE.INTER.POLAR>
-6.85391

>  <SCORE.INTER.ROT>
2

>  <SCORE.INTER.SOLV>
18.2418

>  <SCORE.INTER.VDW>
-31.467

>  <SCORE.INTER.norm>
-4.99609

>  <SCORE.INTRA>
0.947272

>  <SCORE.INTRA.DIHEDRAL>
0.0733536

>  <SCORE.INTRA.DIHEDRAL.0>
1.43995

>  <SCORE.INTRA.POLAR>
0.272593

>  <SCORE.INTRA.POLAR.0>
-0.272593

>  <SCORE.INTRA.REPUL>
0

>  <SCORE.INTRA.REPUL.0>
0

>  <SCORE.INTRA.SOLV>
-0.068944

>  <SCORE.INTRA.SOLV.lig_0>
-22.6728

>  <SCORE.INTRA.VDW>
0.018252

>  <SCORE.INTRA.VDW.0>
-0.754459

>  <SCORE.INTRA.norm>
0.0728671

>  <SCORE.RESTR>
0.0233544

>  <SCORE.RESTR.CAVITY>
0.0233544

>  <SCORE.RESTR.norm>
0.00179649

>  <SCORE.SYSTEM>
0

>  <SCORE.SYSTEM.CONST>
0

>  <SCORE.SYSTEM.DIHEDRAL>
0

>  <SCORE.SYSTEM.SOLV>
0

>  <SCORE.SYSTEM.norm>
0

>  <SCORE.heavy>
13

>  <SCORE.norm>
-4.92143

>  <RMSD>
0.406

$$$$
lig.pdb
 OpenBabel11021811453D
libRbt.so/2013.1/901 2013/11/27
 13 14  0  0  0  0  0  0  0  0999 V2000
    2.3026    3.5147   -4.3083 N   0  0  0  0  0  0  0  0  0  0  0  0
    3.5558    2.9670   -4.4332 C   0  0  0  0  0  0  0  0  0  0  0  0
    3.8776    1.8705   -3.7556 N   0  0  0  0  0  0  0  0  0  0  0  0
    2.9819    1.2554   -2.9227 C   0  0  0  0  0  0  0  0  0  0  0  0
    1.6799    1.7929   -2.7577 C   0  0  0  0  0  0  0  0  0  0  0  0
    1.3505    2.9664   -3.4940 C   0  0  0  0  0  0  0  0  0  0  0  0
    0.2480    3.4761   -3.4069 O   0  0  0  0  0  0  0  0  0  0  0  0
    0.9908    0.9360   -1.7931 C   0  0  0  0  0  0  0  0  0  0  0  0
   -0.3962    1.1264   -1.2413 C   0  0  0  0  0  0  0  0  0  0  0  0
   -1.3710    1.1056   -2.3408 N   0  0  0  0  0  0  0  0  0  0  0  0
    1.8542   -0.0383   -1.4796 C   0  0  0  0  0  0  0  0  0  0  0  0
    3.0409    0.1494   -2.1375 N   0  0  0  0  0  0  0  0  0  0  0  0
    4.4743    3.5492   -5.2666 N   0  0  0  0  0  0  0  0  0  0  0  0
  1  6  1  0  0  0  0
  2  1  1  0  0  0  0
  2  3  2  0  0  0  0
  3  4  1  0  0  0  0
  4  5  2  0  0  0  0
  4 12  1  0  0  0  0
  5  8  1  0  0  0  0
  6  7  2  0  0  0  0
  6  5  1  0  0  0  0
  8 11  2  0  0  0  0
  8  9  1  0  0  0  0
 10  9  1  0  0  0  0
 12 11  1  0  0  0  0
 13  2  1  0  0  0  0
M  END
>  <CHROM.1>
60.15986086,-86.97739080,1.86487042,1.93357992,-3.06497629,0.70317493,0.23570018
-0.64677946

>  <Name>
lig.pdb

>  <RI>
1.75485e+07

>  <Rbt.Current_Directory>
/home/itssahil/PROJECTS/Mol_Feturizer/New_Systems/rnas/2l1v

>  <Rbt.Executable>
rbdock ($Id: //depot/dev/client3/rdock/2013.1/src/exe/rbdock.cxx#4 $)

>  <Rbt.Library>
libRbt.so (2013.1, Build901 2013/11/27)

>  <Rbt.Parameter_File>
/export/apps/rDock/src/rDock_2013.1_src/data/scripts/dock_solv.prm

>  <Rbt.Receptor>
prm/pocket_docking_4.prm

>  <SCORE>
-64.064

>  <SCORE.INTER>
-64.8949

>  <SCORE.INTER.CONST>
1

>  <SCORE.INTER.POLAR>
-6.89845

>  <SCORE.INTER.ROT>
2

>  <SCORE.INTER.SOLV>
18.1809

>  <SCORE.INTER.VDW>
-31.2621

>  <SCORE.INTER.norm>
-4.99192

>  <SCORE.INTRA>
0.807015

>  <SCORE.INTRA.DIHEDRAL>
0.0663679

>  <SCORE.INTRA.DIHEDRAL.0>
1.43995

>  <SCORE.INTRA.POLAR>
0.230529

>  <SCORE.INTRA.POLAR.0>
-0.272593

>  <SCORE.INTRA.REPUL>
0

>  <SCORE.INTRA.REPUL.0>
0

>  <SCORE.INTRA.SOLV>
-0.0412572

>  <SCORE.INTRA.SOLV.lig_0>
-22.6728

>  <SCORE.INTRA.VDW>
0.0106624

>  <SCORE.INTRA.VDW.0>
-0.754459

>  <SCORE.INTRA.norm>
0.0620781

>  <SCORE.RESTR>
0.0239453

>  <SCORE.RESTR.CAVITY>
0.0239453

>  <SCORE.RESTR.norm>
0.00184195

>  <SCORE.SYSTEM>
0

>  <SCORE.SYSTEM.CONST>
0

>  <SCORE.SYSTEM.DIHEDRAL>
0

>  <SCORE.SYSTEM.SOLV>
0

>  <SCORE.SYSTEM.norm>
0

>  <SCORE.heavy>
13

>  <SCORE.norm>
-4.928

>  <RMSD>
0.408

$$$$
lig.pdb
 OpenBabel11021811453D
libRbt.so/2013.1/901 2013/11/27
 13 14  0  0  0  0  0  0  0  0999 V2000
    2.3033    3.5134   -4.2990 N   0  0  0  0  0  0  0  0  0  0  0  0
    3.5560    2.9641   -4.4217 C   0  0  0  0  0  0  0  0  0  0  0  0
    3.8740    1.8651   -3.7462 N   0  0  0  0  0  0  0  0  0  0  0  0
    2.9749    1.2491   -2.9177 C   0  0  0  0  0  0  0  0  0  0  0  0
    1.6733    1.7882   -2.7551 C   0  0  0  0  0  0  0  0  0  0  0  0
    1.3478    2.9642   -3.4891 C   0  0  0  0  0  0  0  0  0  0  0  0
    0.2460    3.4754   -3.4038 O   0  0  0  0  0  0  0  0  0  0  0  0
    0.9799    0.9297   -1.7949 C   0  0  0  0  0  0  0  0  0  0  0  0
   -0.4084    1.1208   -1.2468 C   0  0  0  0  0  0  0  0  0  0  0  0
   -1.3793    1.1112   -2.3498 N   0  0  0  0  0  0  0  0  0  0  0  0
    1.8409   -0.0468   -1.4816 C   0  0  0  0  0  0  0  0  0  0  0  0
    3.0298    0.1408   -2.1354 N   0  0  0  0  0  0  0  0  0  0  0  0
    4.4779    3.5471   -5.2507 N   0  0  0  0  0  0  0  0  0  0  0  0
  1  6  1  0  0  0  0
  2  1  1  0  0  0  0
  2  3  2  0  0  0  0
  3  4  1  0  0  0  0
  4  5  2  0  0  0  0
  4 12  1  0  0  0  0
  5  8  1  0  0  0  0
  6  7  2  0  0  0  0
  6  5  1  0  0  0  0
  8 11  2  0  0  0  0
  8  9  1  0  0  0  0
 10  9  1  0  0  0  0
 12 11  1  0  0  0  0
 13  2  1  0  0  0  0
M  END
>  <CHROM.1>
59.87992446,-87.08838697,1.85942926,1.93007628,-3.06147938,0.69970181,0.23453929
-0.64341195

>  <Name>
lig.pdb

>  <RI>
4.15415e+07

>  <Rbt.Current_Directory>
/home/itssahil/PROJECTS/Mol_Feturizer/New_Systems/rnas/2l1v

>  <Rbt.Executable>
rbdock ($Id: //depot/dev/client3/rdock/2013.1/src/exe/rbdock.cxx#4 $)

>  <Rbt.Library>
libRbt.so (2013.1, Build901 2013/11/27)

>  <Rbt.Parameter_File>
/export/apps/rDock/src/rDock_2013.1_src/data/scripts/dock_solv.prm

>  <Rbt.Receptor>
prm/blind_docking_60.prm

>  <SCORE>
-63.9897

>  <SCORE.INTER>
-64.7986

>  <SCORE.INTER.CONST>
1

>  <SCORE.INTER.POLAR>
-6.90416

>  <SCORE.INTER.ROT>
2

>  <SCORE.INTER.SOLV>
18.1884

>  <SCORE.INTER.VDW>
-31.1813

>  <SCORE.INTER.norm>
-4.9845

>  <SCORE.INTRA>
0.789072

>  <SCORE.INTRA.DIHEDRAL>
0.0671794

>  <SCORE.INTRA.DIHEDRAL.0>
1.43995

>  <SCORE.INTRA.POLAR>
0.224868

>  <SCORE.INTRA.POLAR.0>
-0.272593

>  <SCORE.INTRA.REPUL>
0

>  <SCORE.INTRA.REPUL.0>
0

>  <SCORE.INTRA.SOLV>
-0.0386992

>  <SCORE.INTRA.SOLV.lig_0>
-22.6728

>  <SCORE.INTRA.VDW>
0.0102819

>  <SCORE.INTRA.VDW.0>
-0.754459

>  <SCORE.INTRA.norm>
0.0606978

>  <SCORE.RESTR>
0.0197662

>  <SCORE.RESTR.CAVITY>
0.0197662

>  <SCORE.RESTR.norm>
0.00152047

>  <SCORE.SYSTEM>
0

>  <SCORE.SYSTEM.CONST>
0

>  <SCORE.SYSTEM.DIHEDRAL>
0

>  <SCORE.SYSTEM.SOLV>
0

>  <SCORE.SYSTEM.norm>
0

>  <SCORE.heavy>
13

>  <SCORE.norm>
-4.92229

>  <RMSD>
0.412

$$$$
lig.pdb
 OpenBabel11021811453D
libRbt.so/2013.1/901 2013/11/27
 13 14  0  0  0  0  0  0  0  0999 V2000
    2.2989    3.5248   -4.3136 N   0  0  0  0  0  0  0  0  0  0  0  0
    3.5420    2.9530   -4.4314 C   0  0  0  0  0  0  0  0  0  0  0  0
    3.8410    1.8544   -3.7467 N   0  0  0  0  0  0  0  0  0  0  0  0
    2.9313    1.2609   -2.9132 C   0  0  0  0  0  0  0  0  0  0  0  0
    1.6392    1.8238   -2.7553 C   0  0  0  0  0  0  0  0  0  0  0  0
    1.3341    2.9990   -3.4992 C   0  0  0  0  0  0  0  0  0  0  0  0
    0.2412    3.5298   -3.4184 O   0  0  0  0  0  0  0  0  0  0  0  0
    0.9311    0.9854   -1.7882 C   0  0  0  0  0  0  0  0  0  0  0  0
   -0.4538    1.2049   -1.2419 C   0  0  0  0  0  0  0  0  0  0  0  0
   -1.4342    1.1111   -2.3325 N   0  0  0  0  0  0  0  0  0  0  0  0
    1.7751   -0.0031   -1.4665 C   0  0  0  0  0  0  0  0  0  0  0  0
    2.9671    0.1585   -2.1217 N   0  0  0  0  0  0  0  0  0  0  0  0
    4.4738    3.5131   -5.2651 N   0  0  0  0  0  0  0  0  0  0  0  0
  1  6  1  0  0  0  0
  2  1  1  0  0  0  0
  2  3  2  0  0  0  0
  3  4  1  0  0  0  0
  4  5  2  0  0  0  0
  4 12  1  0  0  0  0
  5  8  1  0  0  0  0
  6  7  2  0  0  0  0
  6  5  1  0  0  0  0
  8 11  2  0  0  0  0
  8  9  1  0  0  0  0
 10  9  1  0  0  0  0
 12 11  1  0  0  0  0
 13  2  1  0  0  0  0
M  END
>  <CHROM.1>
63.73626644,-89.00390407,1.82684947,1.95124777,-3.06172215,0.69025127,0.24132434
-0.64620814

>  <Name>
lig.pdb

>  <RI>
1.75485e+07

>  <Rbt.Current_Directory>
/home/itssahil/PROJECTS/Mol_Feturizer/New_Systems/rnas/2l1v

>  <Rbt.Executable>
rbdock ($Id: //depot/dev/client3/rdock/2013.1/src/exe/rbdock.cxx#4 $)

>  <Rbt.Library>
libRbt.so (2013.1, Build901 2013/11/27)

>  <Rbt.Parameter_File>
/export/apps/rDock/src/rDock_2013.1_src/data/scripts/dock_solv.prm

>  <Rbt.Receptor>
prm/pocket_docking_4.prm

>  <SCORE>
-63.9642

>  <SCORE.INTER>
-64.9545

>  <SCORE.INTER.CONST>
1

>  <SCORE.INTER.POLAR>
-6.84933

>  <SCORE.INTER.ROT>
2

>  <SCORE.INTER.SOLV>
18.325

>  <SCORE.INTER.VDW>
-31.5135

>  <SCORE.INTER.norm>
-4.9965

>  <SCORE.INTRA>
0.960412

>  <SCORE.INTRA.DIHEDRAL>
0.0789086

>  <SCORE.INTRA.DIHEDRAL.0>
1.43995

>  <SCORE.INTRA.POLAR>
0.272593

>  <SCORE.INTRA.POLAR.0>
-0.272593

>  <SCORE.INTRA.REPUL>
0

>  <SCORE.INTRA.REPUL.0>
0

>  <SCORE.INTRA.SOLV>
-0.0758581

>  <SCORE.INTRA.SOLV.lig_0>
-22.6728

>  <SCORE.INTRA.VDW>
0.0320723

>  <SCORE.INTRA.VDW.0>
-0.754459

>  <SCORE.INTRA.norm>
0.0738779

>  <SCORE.RESTR>
0.0298613

>  <SCORE.RESTR.CAVITY>
0.0298613

>  <SCORE.RESTR.norm>
0.00229702

>  <SCORE.SYSTEM>
0

>  <SCORE.SYSTEM.CONST>
0

>  <SCORE.SYSTEM.DIHEDRAL>
0

>  <SCORE.SYSTEM.SOLV>
0

>  <SCORE.SYSTEM.norm>
0

>  <SCORE.heavy>
13

>  <SCORE.norm>
-4.92032

>  <RMSD>
0.429

$$$$
lig.pdb
 OpenBabel11021811453D
libRbt.so/2013.1/901 2013/11/27
 13 14  0  0  0  0  0  0  0  0999 V2000
    2.2940    3.4896   -4.3054 N   0  0  0  0  0  0  0  0  0  0  0  0
    3.5509    2.9451   -4.4051 C   0  0  0  0  0  0  0  0  0  0  0  0
    3.8681    1.8612   -3.7054 N   0  0  0  0  0  0  0  0  0  0  0  0
    2.9641    1.2562   -2.8741 C   0  0  0  0  0  0  0  0  0  0  0  0
    1.6580    1.7910   -2.7348 C   0  0  0  0  0  0  0  0  0  0  0  0
    1.3335    2.9508   -3.4945 C   0  0  0  0  0  0  0  0  0  0  0  0
    0.2281    3.4574   -3.4300 O   0  0  0  0  0  0  0  0  0  0  0  0
    0.9597    0.9472   -1.7652 C   0  0  0  0  0  0  0  0  0  0  0  0
   -0.4350    1.1409   -1.2346 C   0  0  0  0  0  0  0  0  0  0  0  0
   -1.3941    1.1113   -2.3475 N   0  0  0  0  0  0  0  0  0  0  0  0
    1.8229   -0.0182   -1.4246 C   0  0  0  0  0  0  0  0  0  0  0  0
    3.0172    0.1635   -2.0701 N   0  0  0  0  0  0  0  0  0  0  0  0
    4.4778    3.5174   -5.2360 N   0  0  0  0  0  0  0  0  0  0  0  0
  1  6  1  0  0  0  0
  2  1  1  0  0  0  0
  2  3  2  0  0  0  0
  3  4  1  0  0  0  0
  4  5  2  0  0  0  0
  4 12  1  0  0  0  0
  5  8  1  0  0  0  0
  6  7  2  0  0  0  0
  6  5  1  0  0  0  0
  8 11  2  0  0  0  0
  8  9  1  0  0  0  0
 10  9  1  0  0  0  0
 12 11  1  0  0  0  0
 13  2  1  0  0  0  0
M  END
>  <CHROM.1>
59.60709532,-87.25452085,1.84649091,1.92857575,-3.04211033,0.69767385,0.22356541
-0.66241221

>  <Name>
lig.pdb

>  <RI>
4.02536e+07

>  <Rbt.Current_Directory>
/home/itssahil/PROJECTS/Mol_Feturizer/New_Systems/rnas/2l1v

>  <Rbt.Executable>
rbdock ($Id: //depot/dev/client3/rdock/2013.1/src/exe/rbdock.cxx#4 $)

>  <Rbt.Library>
libRbt.so (2013.1, Build901 2013/11/27)

>  <Rbt.Parameter_File>
/export/apps/rDock/src/rDock_2013.1_src/data/scripts/dock_solv.prm

>  <Rbt.Receptor>
prm/blind_docking_40.prm

>  <SCORE>
-64.1107

>  <SCORE.INTER>
-64.884

>  <SCORE.INTER.CONST>
1

>  <SCORE.INTER.POLAR>
-6.90776

>  <SCORE.INTER.ROT>
2

>  <SCORE.INTER.SOLV>
18.1033

>  <SCORE.INTER.VDW>
-31.1979

>  <SCORE.INTER.norm>
-4.99108

>  <SCORE.INTRA>
0.77323

>  <SCORE.INTRA.DIHEDRAL>
0.0682351

>  <SCORE.INTRA.DIHEDRAL.0>
1.43995

>  <SCORE.INTRA.POLAR>
0.219777

>  <SCORE.INTRA.POLAR.0>
-0.272593

>  <SCORE.INTRA.REPUL>
0

>  <SCORE.INTRA.REPUL.0>
0

>  <SCORE.INTRA.SOLV>
-0.0362381

>  <SCORE.INTRA.SOLV.lig_0>
-22.6728

>  <SCORE.INTRA.VDW>
0.00999057

>  <SCORE.INTRA.VDW.0>
-0.754459

>  <SCORE.INTRA.norm>
0.0594792

>  <SCORE.RESTR>
0

>  <SCORE.RESTR.CAVITY>
0

>  <SCORE.RESTR.norm>
0

>  <SCORE.SYSTEM>
0

>  <SCORE.SYSTEM.CONST>
0

>  <SCORE.SYSTEM.DIHEDRAL>
0

>  <SCORE.SYSTEM.SOLV>
0

>  <SCORE.SYSTEM.norm>
0

>  <SCORE.heavy>
13

>  <SCORE.norm>
-4.9316

>  <RMSD>
0.430

$$$$
lig.pdb
 OpenBabel11021811453D
libRbt.so/2013.1/901 2013/11/27
 13 14  0  0  0  0  0  0  0  0999 V2000
    2.2985    3.4952   -4.3088 N   0  0  0  0  0  0  0  0  0  0  0  0
    3.5577    2.9563   -4.4093 C   0  0  0  0  0  0  0  0  0  0  0  0
    3.8819    1.8769   -3.7059 N   0  0  0  0  0  0  0  0  0  0  0  0
    2.9828    1.2710   -2.8699 C   0  0  0  0  0  0  0  0  0  0  0  0
    1.6746    1.8001   -2.7295 C   0  0  0  0  0  0  0  0  0  0  0  0
    1.3426    2.9551   -3.4932 C   0  0  0  0  0  0  0  0  0  0  0  0
    0.2349    3.4566   -3.4281 O   0  0  0  0  0  0  0  0  0  0  0  0
    0.9828    0.9569   -1.7546 C   0  0  0  0  0  0  0  0  0  0  0  0
   -0.4116    1.1462   -1.2213 C   0  0  0  0  0  0  0  0  0  0  0  0
   -1.3733    1.1063   -2.3317 N   0  0  0  0  0  0  0  0  0  0  0  0
    1.8514   -0.0028   -1.4122 C   0  0  0  0  0  0  0  0  0  0  0  0
    3.0432    0.1819   -2.0614 N   0  0  0  0  0  0  0  0  0  0  0  0
    4.4798    3.5295   -5.2449 N   0  0  0  0  0  0  0  0  0  0  0  0
  1  6  1  0  0  0  0
  2  1  1  0  0  0  0
  2  3  2  0  0  0  0
  3  4  1  0  0  0  0
  4  5  2  0  0  0  0
  4 12  1  0  0  0  0
  5  8  1  0  0  0  0
  6  7  2  0  0  0  0
  6  5  1  0  0  0  0
  8 11  2  0  0  0  0
  8  9  1  0  0  0  0
 10  9  1  0  0  0  0
 12 11  1  0  0  0  0
 13  2  1  0  0  0  0
M  END
>  <CHROM.1>
59.64860682,-86.85674481,1.86160863,1.93716336,-3.03782781,0.70320047,0.22249372
-0.66779526

>  <Name>
lig.pdb

>  <RI>
2.86608e+07

>  <Rbt.Current_Directory>
/home/itssahil/PROJECTS/Mol_Feturizer/New_Systems/rnas/2l1v

>  <Rbt.Executable>
rbdock ($Id: //depot/dev/client3/rdock/2013.1/src/exe/rbdock.cxx#4 $)

>  <Rbt.Library>
libRbt.so (2013.1, Build901 2013/11/27)

>  <Rbt.Parameter_File>
/export/apps/rDock/src/rDock_2013.1_src/data/scripts/dock_solv.prm

>  <Rbt.Receptor>
prm/pocket_docking_7.prm

>  <SCORE>
-64.1012

>  <SCORE.INTER>
-64.8654

>  <SCORE.INTER.CONST>
1

>  <SCORE.INTER.POLAR>
-6.91774

>  <SCORE.INTER.ROT>
2

>  <SCORE.INTER.SOLV>
18.0534

>  <SCORE.INTER.VDW>
-31.1356

>  <SCORE.INTER.norm>
-4.98964

>  <SCORE.INTRA>
0.764149

>  <SCORE.INTRA.DIHEDRAL>
0.0677908

>  <SCORE.INTRA.DIHEDRAL.0>
1.43995

>  <SCORE.INTRA.POLAR>
0.217271

>  <SCORE.INTRA.POLAR.0>
-0.272593

>  <SCORE.INTRA.REPUL>
0

>  <SCORE.INTRA.REPUL.0>
0

>  <SCORE.INTRA.SOLV>
-0.036453

>  <SCORE.INTRA.SOLV.lig_0>
-22.6728

>  <SCORE.INTRA.VDW>
0.00975766

>  <SCORE.INTRA.VDW.0>
-0.754459

>  <SCORE.INTRA.norm>
0.0587807

>  <SCORE.RESTR>
0

>  <SCORE.RESTR.CAVITY>
0

>  <SCORE.RESTR.norm>
0

>  <SCORE.SYSTEM>
0

>  <SCORE.SYSTEM.CONST>
0

>  <SCORE.SYSTEM.DIHEDRAL>
0

>  <SCORE.SYSTEM.SOLV>
0

>  <SCORE.SYSTEM.norm>
0

>  <SCORE.heavy>
13

>  <SCORE.norm>
-4.93086

>  <RMSD>
0.434

$$$$
lig.pdb
 OpenBabel11021811453D
libRbt.so/2013.1/901 2013/11/27
 13 14  0  0  0  0  0  0  0  0999 V2000
    2.2812    3.4963   -4.2107 N   0  0  0  0  0  0  0  0  0  0  0  0
    3.5096    2.8945   -4.3336 C   0  0  0  0  0  0  0  0  0  0  0  0
    3.7680    1.7627   -3.6876 N   0  0  0  0  0  0  0  0  0  0  0  0
    2.8302    1.1639   -2.8900 C   0  0  0  0  0  0  0  0  0  0  0  0
    1.5520    1.7566   -2.7280 C   0  0  0  0  0  0  0  0  0  0  0  0
    1.2905    2.9674   -3.4302 C   0  0  0  0  0  0  0  0  0  0  0  0
    0.2116    3.5254   -3.3438 O   0  0  0  0  0  0  0  0  0  0  0  0
    0.8069    0.9023   -1.8034 C   0  0  0  0  0  0  0  0  0  0  0  0
   -0.5791    1.1399   -1.2678 C   0  0  0  0  0  0  0  0  0  0  0  0
   -1.5459    1.1146   -2.3742 N   0  0  0  0  0  0  0  0  0  0  0  0
    1.6185   -0.1212   -1.5087 C   0  0  0  0  0  0  0  0  0  0  0  0
    2.8239    0.0315   -2.1410 N   0  0  0  0  0  0  0  0  0  0  0  0
    4.4686    3.4594   -5.1325 N   0  0  0  0  0  0  0  0  0  0  0  0
  1  6  1  0  0  0  0
  2  1  1  0  0  0  0
  2  3  2  0  0  0  0
  3  4  1  0  0  0  0
  4  5  2  0  0  0  0
  4 12  1  0  0  0  0
  5  8  1  0  0  0  0
  6  7  2  0  0  0  0
  6  5  1  0  0  0  0
  8 11  2  0  0  0  0
  8  9  1  0  0  0  0
 10  9  1  0  0  0  0
 12 11  1  0  0  0  0
 13  2  1  0  0  0  0
M  END
>  <CHROM.1>
63.77202730,89.40298415,1.74784714,1.89010726,-3.02693070,0.65874643,0.24621957
-0.60018973

>  <Name>
lig.pdb

>  <RI>
2.50021e+07

>  <Rbt.Current_Directory>
/home/itssahil/PROJECTS/Mol_Feturizer/New_Systems/rnas/2l1v

>  <Rbt.Executable>
rbdock ($Id: //depot/dev/client3/rdock/2013.1/src/exe/rbdock.cxx#4 $)

>  <Rbt.Library>
libRbt.so (2013.1, Build901 2013/11/27)

>  <Rbt.Parameter_File>
/export/apps/rDock/src/rDock_2013.1_src/data/scripts/dock_solv.prm

>  <Rbt.Receptor>
prm/pocket_docking_5.prm

>  <SCORE>
-63.5202

>  <SCORE.INTER>
-64.4138

>  <SCORE.INTER.CONST>
1

>  <SCORE.INTER.POLAR>
-6.86728

>  <SCORE.INTER.ROT>
2

>  <SCORE.INTER.SOLV>
18.4128

>  <SCORE.INTER.VDW>
-31.1225

>  <SCORE.INTER.norm>
-4.95491

>  <SCORE.INTRA>
0.879484

>  <SCORE.INTRA.DIHEDRAL>
-0.0529245

>  <SCORE.INTRA.DIHEDRAL.0>
1.43995

>  <SCORE.INTRA.POLAR>
0.272593

>  <SCORE.INTRA.POLAR.0>
-0.272593

>  <SCORE.INTRA.REPUL>
0

>  <SCORE.INTRA.REPUL.0>
0

>  <SCORE.INTRA.SOLV>
-0.0743698

>  <SCORE.INTRA.SOLV.lig_0>
-22.6728

>  <SCORE.INTRA.VDW>
0.0163162

>  <SCORE.INTRA.VDW.0>
-0.754459

>  <SCORE.INTRA.norm>
0.0676526

>  <SCORE.RESTR>
0.0141044

>  <SCORE.RESTR.CAVITY>
0.0141044

>  <SCORE.RESTR.norm>
0.00108496

>  <SCORE.SYSTEM>
0

>  <SCORE.SYSTEM.CONST>
0

>  <SCORE.SYSTEM.DIHEDRAL>
0

>  <SCORE.SYSTEM.SOLV>
0

>  <SCORE.SYSTEM.norm>
0

>  <SCORE.heavy>
13

>  <SCORE.norm>
-4.88617

>  <RMSD>
0.472

$$$$
lig.pdb
 OpenBabel11021811453D
libRbt.so/2013.1/901 2013/11/27
 13 14  0  0  0  0  0  0  0  0999 V2000
    2.2655    3.4318   -4.2384 N   0  0  0  0  0  0  0  0  0  0  0  0
    3.4968    2.8318   -4.3388 C   0  0  0  0  0  0  0  0  0  0  0  0
    3.7561    1.7187   -3.6616 N   0  0  0  0  0  0  0  0  0  0  0  0
    2.8164    1.1375   -2.8532 C   0  0  0  0  0  0  0  0  0  0  0  0
    1.5351    1.7292   -2.7138 C   0  0  0  0  0  0  0  0  0  0  0  0
    1.2726    2.9199   -3.4493 C   0  0  0  0  0  0  0  0  0  0  0  0
    0.1912    3.4757   -3.3835 O   0  0  0  0  0  0  0  0  0  0  0  0
    0.7884    0.8969   -1.7707 C   0  0  0  0  0  0  0  0  0  0  0  0
   -0.6014    1.1431   -1.2488 C   0  0  0  0  0  0  0  0  0  0  0  0
   -1.5603    1.1001   -2.3615 N   0  0  0  0  0  0  0  0  0  0  0  0
    1.6023   -0.1152   -1.4446 C   0  0  0  0  0  0  0  0  0  0  0  0
    2.8104    0.0255   -2.0744 N   0  0  0  0  0  0  0  0  0  0  0  0
    4.4578    3.3791   -5.1475 N   0  0  0  0  0  0  0  0  0  0  0  0
  1  6  1  0  0  0  0
  2  1  1  0  0  0  0
  2  3  2  0  0  0  0
  3  4  1  0  0  0  0
  4  5  2  0  0  0  0
  4 12  1  0  0  0  0
  5  8  1  0  0  0  0
  6  7  2  0  0  0  0
  6  5  1  0  0  0  0
  8 11  2  0  0  0  0
  8  9  1  0  0  0  0
 10  9  1  0  0  0  0
 12 11  1  0  0  0  0
 13  2  1  0  0  0  0
M  END
>  <CHROM.1>
63.11165797,88.79828835,1.73218166,1.85697943,-3.01534143,0.65805678,0.24024570
-0.62720593

>  <Name>
lig.pdb

>  <RI>
2.05237e+07

>  <Rbt.Current_Directory>
/home/itssahil/PROJECTS/Mol_Feturizer/New_Systems/rnas/2l1v

>  <Rbt.Executable>
rbdock ($Id: //depot/dev/client3/rdock/2013.1/src/exe/rbdock.cxx#4 $)

>  <Rbt.Library>
libRbt.so (2013.1, Build901 2013/11/27)

>  <Rbt.Parameter_File>
/export/apps/rDock/src/rDock_2013.1_src/data/scripts/dock_solv.prm

>  <Rbt.Receptor>
prm/blind_docking_100.prm

>  <SCORE>
-63.5099

>  <SCORE.INTER>
-64.3908

>  <SCORE.INTER.CONST>
1

>  <SCORE.INTER.POLAR>
-6.81585

>  <SCORE.INTER.ROT>
2

>  <SCORE.INTER.SOLV>
18.2589

>  <SCORE.INTER.VDW>
-31.2273

>  <SCORE.INTER.norm>
-4.95314

>  <SCORE.INTRA>
0.878445

>  <SCORE.INTRA.DIHEDRAL>
-0.0580114

>  <SCORE.INTRA.DIHEDRAL.0>
1.43995

>  <SCORE.INTRA.POLAR>
0.272593

>  <SCORE.INTRA.POLAR.0>
-0.272593

>  <SCORE.INTRA.REPUL>
0

>  <SCORE.INTRA.REPUL.0>
0

>  <SCORE.INTRA.SOLV>
-0.0683311

>  <SCORE.INTRA.SOLV.lig_0>
-22.6728

>  <SCORE.INTRA.VDW>
0.0148017

>  <SCORE.INTRA.VDW.0>
-0.754459

>  <SCORE.INTRA.norm>
0.0675727

>  <SCORE.RESTR>
0.00242172

>  <SCORE.RESTR.CAVITY>
0.00242172

>  <SCORE.RESTR.norm>
0.000186286

>  <SCORE.SYSTEM>
0

>  <SCORE.SYSTEM.CONST>
0

>  <SCORE.SYSTEM.DIHEDRAL>
0

>  <SCORE.SYSTEM.SOLV>
0

>  <SCORE.SYSTEM.norm>
0

>  <SCORE.heavy>
13

>  <SCORE.norm>
-4.88538

>  <RMSD>
0.474

$$$$
lig.pdb
 OpenBabel11021811453D
libRbt.so/2013.1/901 2013/11/27
 13 14  0  0  0  0  0  0  0  0999 V2000
    2.2848    3.4563   -4.2570 N   0  0  0  0  0  0  0  0  0  0  0  0
    3.5352    2.8935   -4.3338 C   0  0  0  0  0  0  0  0  0  0  0  0
    3.8234    1.8045   -3.6294 N   0  0  0  0  0  0  0  0  0  0  0  0
    2.8952    1.2123   -2.8156 C   0  0  0  0  0  0  0  0  0  0  0  0
    1.5948    1.7662   -2.7000 C   0  0  0  0  0  0  0  0  0  0  0  0
    1.3016    2.9312   -3.4646 C   0  0  0  0  0  0  0  0  0  0  0  0
    0.2027    3.4539   -3.4202 O   0  0  0  0  0  0  0  0  0  0  0  0
    0.8663    0.9321   -1.7443 C   0  0  0  0  0  0  0  0  0  0  0  0
   -0.5350    1.1461   -1.2395 C   0  0  0  0  0  0  0  0  0  0  0  0
   -1.4747    1.1216   -2.3691 N   0  0  0  0  0  0  0  0  0  0  0  0
    1.7087   -0.0461   -1.3887 C   0  0  0  0  0  0  0  0  0  0  0  0
    2.9173    0.1184   -2.0117 N   0  0  0  0  0  0  0  0  0  0  0  0
    4.4857    3.4525   -5.1469 N   0  0  0  0  0  0  0  0  0  0  0  0
  1  6  1  0  0  0  0
  2  1  1  0  0  0  0
  2  3  2  0  0  0  0
  3  4  1  0  0  0  0
  4  5  2  0  0  0  0
  4 12  1  0  0  0  0
  5  8  1  0  0  0  0
  6  7  2  0  0  0  0
  6  5  1  0  0  0  0
  8 11  2  0  0  0  0
  8  9  1  0  0  0  0
 10  9  1  0  0  0  0
 12 11  1  0  0  0  0
 13  2  1  0  0  0  0
M  END
>  <CHROM.1>
60.01116879,-89.00549627,1.79086649,1.90031079,-3.00356899,0.67455370,0.21754287
-0.65621816

>  <Name>
lig.pdb

>  <RI>
2.50021e+07

>  <Rbt.Current_Directory>
/home/itssahil/PROJECTS/Mol_Feturizer/New_Systems/rnas/2l1v

>  <Rbt.Executable>
rbdock ($Id: //depot/dev/client3/rdock/2013.1/src/exe/rbdock.cxx#4 $)

>  <Rbt.Library>
libRbt.so (2013.1, Build901 2013/11/27)

>  <Rbt.Parameter_File>
/export/apps/rDock/src/rDock_2013.1_src/data/scripts/dock_solv.prm

>  <Rbt.Receptor>
prm/pocket_docking_5.prm

>  <SCORE>
-63.5812

>  <SCORE.INTER>
-64.4669

>  <SCORE.INTER.CONST>
1

>  <SCORE.INTER.POLAR>
-6.92915

>  <SCORE.INTER.ROT>
2

>  <SCORE.INTER.SOLV>
18.0926

>  <SCORE.INTER.VDW>
-30.845

>  <SCORE.INTER.norm>
-4.95899

>  <SCORE.INTRA>
0.855591

>  <SCORE.INTRA.DIHEDRAL>
0.0678504

>  <SCORE.INTRA.DIHEDRAL.0>
1.43995

>  <SCORE.INTRA.POLAR>
0.244146

>  <SCORE.INTRA.POLAR.0>
-0.272593

>  <SCORE.INTRA.REPUL>
0

>  <SCORE.INTRA.REPUL.0>
0

>  <SCORE.INTRA.SOLV>
-0.0407705

>  <SCORE.INTRA.SOLV.lig_0>
-22.6728

>  <SCORE.INTRA.VDW>
0.0119529

>  <SCORE.INTRA.VDW.0>
-0.754459

>  <SCORE.INTRA.norm>
0.0658147

>  <SCORE.RESTR>
0.0301315

>  <SCORE.RESTR.CAVITY>
0.0301315

>  <SCORE.RESTR.norm>
0.00231781

>  <SCORE.SYSTEM>
0

>  <SCORE.SYSTEM.CONST>
0

>  <SCORE.SYSTEM.DIHEDRAL>
0

>  <SCORE.SYSTEM.SOLV>
0

>  <SCORE.SYSTEM.norm>
0

>  <SCORE.heavy>
13

>  <SCORE.norm>
-4.89086

>  <RMSD>
0.475

$$$$
lig.pdb
 OpenBabel11021811453D
libRbt.so/2013.1/901 2013/11/27
 13 14  0  0  0  0  0  0  0  0999 V2000
    2.2825    3.4781   -4.2499 N   0  0  0  0  0  0  0  0  0  0  0  0
    3.5357    2.9223   -4.3319 C   0  0  0  0  0  0  0  0  0  0  0  0
    3.8312    1.8316   -3.6333 N   0  0  0  0  0  0  0  0  0  0  0  0
    2.9080    1.2305   -2.8205 C   0  0  0  0  0  0  0  0  0  0  0  0
    1.6049    1.7768   -2.6997 C   0  0  0  0  0  0  0  0  0  0  0  0
    1.3038    2.9438   -3.4580 C   0  0  0  0  0  0  0  0  0  0  0  0
    0.2022    3.4604   -3.4088 O   0  0  0  0  0  0  0  0  0  0  0  0
    0.8828    0.9342   -1.7465 C   0  0  0  0  0  0  0  0  0  0  0  0
   -0.5186    1.1381   -1.2379 C   0  0  0  0  0  0  0  0  0  0  0  0
   -1.4594    1.1244   -2.3667 N   0  0  0  0  0  0  0  0  0  0  0  0
    1.7312   -0.0412   -1.3973 C   0  0  0  0  0  0  0  0  0  0  0  0
    2.9376    0.1328   -2.0220 N   0  0  0  0  0  0  0  0  0  0  0  0
    4.4816    3.4904   -5.1442 N   0  0  0  0  0  0  0  0  0  0  0  0
  1  6  1  0  0  0  0
  2  1  1  0  0  0  0
  2  3  2  0  0  0  0
  3  4  1  0  0  0  0
  4  5  2  0  0  0  0
  4 12  1  0  0  0  0
  5  8  1  0  0  0  0
  6  7  2  0  0  0  0
  6  5  1  0  0  0  0
  8 11  2  0  0  0  0
  8  9  1  0  0  0  0
 10  9  1  0  0  0  0
 12 11  1  0  0  0  0
 13  2  1  0  0  0  0
M  END
>  <CHROM.1>
59.57553225,-89.11332434,1.79965429,1.91433643,-3.00305924,0.67965861,0.21632119
-0.65281667

>  <Name>
lig.pdb

>  <RI>
2.7104e+07

>  <Rbt.Current_Directory>
/home/itssahil/PROJECTS/Mol_Feturizer/New_Systems/rnas/2l1v

>  <Rbt.Executable>
rbdock ($Id: //depot/dev/client3/rdock/2013.1/src/exe/rbdock.cxx#4 $)

>  <Rbt.Library>
libRbt.so (2013.1, Build901 2013/11/27)

>  <Rbt.Parameter_File>
/export/apps/rDock/src/rDock_2013.1_src/data/scripts/dock_solv.prm

>  <Rbt.Receptor>
prm/pocket_docking_8.prm

>  <SCORE>
-63.6745

>  <SCORE.INTER>
-64.5434

>  <SCORE.INTER.CONST>
1

>  <SCORE.INTER.POLAR>
-6.9568

>  <SCORE.INTER.ROT>
2

>  <SCORE.INTER.SOLV>
18.1015

>  <SCORE.INTER.VDW>
-30.8068

>  <SCORE.INTER.norm>
-4.96487

>  <SCORE.INTRA>
0.828662

>  <SCORE.INTRA.DIHEDRAL>
0.0693239

>  <SCORE.INTRA.DIHEDRAL.0>
1.43995

>  <SCORE.INTRA.POLAR>
0.235596

>  <SCORE.INTRA.POLAR.0>
-0.272593

>  <SCORE.INTRA.REPUL>
0

>  <SCORE.INTRA.REPUL.0>
0

>  <SCORE.INTRA.SOLV>
-0.0367854

>  <SCORE.INTRA.SOLV.lig_0>
-22.6728

>  <SCORE.INTRA.VDW>
0.011366

>  <SCORE.INTRA.VDW.0>
-0.754459

>  <SCORE.INTRA.norm>
0.0637432

>  <SCORE.RESTR>
0.0401539

>  <SCORE.RESTR.CAVITY>
0.0401539

>  <SCORE.RESTR.norm>
0.00308876

>  <SCORE.SYSTEM>
0

>  <SCORE.SYSTEM.CONST>
0

>  <SCORE.SYSTEM.DIHEDRAL>
0

>  <SCORE.SYSTEM.SOLV>
0

>  <SCORE.SYSTEM.norm>
0

>  <SCORE.heavy>
13

>  <SCORE.norm>
-4.89804

>  <RMSD>
0.475

$$$$
lig.pdb
 OpenBabel11021811453D
libRbt.so/2013.1/901 2013/11/27
 13 14  0  0  0  0  0  0  0  0999 V2000
    2.2783    3.4612   -4.2573 N   0  0  0  0  0  0  0  0  0  0  0  0
    3.5242    2.8898   -4.3437 C   0  0  0  0  0  0  0  0  0  0  0  0
    3.8107    1.7996   -3.6407 N   0  0  0  0  0  0  0  0  0  0  0  0
    2.8853    1.2143   -2.8188 C   0  0  0  0  0  0  0  0  0  0  0  0
    1.5896    1.7771   -2.6932 C   0  0  0  0  0  0  0  0  0  0  0  0
    1.2981    2.9434   -3.4564 C   0  0  0  0  0  0  0  0  0  0  0  0
    0.2032    3.4735   -3.4036 O   0  0  0  0  0  0  0  0  0  0  0  0
    0.8633    0.9488   -1.7309 C   0  0  0  0  0  0  0  0  0  0  0  0
   -0.5324    1.1726   -1.2149 C   0  0  0  0  0  0  0  0  0  0  0  0
   -1.4855    1.1174   -2.3321 N   0  0  0  0  0  0  0  0  0  0  0  0
    1.7019   -0.0348   -1.3812 C   0  0  0  0  0  0  0  0  0  0  0  0
    2.9065    0.1210   -2.0142 N   0  0  0  0  0  0  0  0  0  0  0  0
    4.4718    3.4417   -5.1650 N   0  0  0  0  0  0  0  0  0  0  0  0
  1  6  1  0  0  0  0
  2  1  1  0  0  0  0
  2  3  2  0  0  0  0
  3  4  1  0  0  0  0
  4  5  2  0  0  0  0
  4 12  1  0  0  0  0
  5  8  1  0  0  0  0
  6  7  2  0  0  0  0
  6  5  1  0  0  0  0
  8 11  2  0  0  0  0
  8  9  1  0  0  0  0
 10  9  1  0  0  0  0
 12 11  1  0  0  0  0
 13  2  1  0  0  0  0
M  END
>  <CHROM.1>
61.52753476,91.90967159,1.78399428,1.90616386,-2.99824544,0.67642414,0.22652311
-0.65626087

>  <Name>
lig.pdb

>  <RI>
2.7104e+07

>  <Rbt.Current_Directory>
/home/itssahil/PROJECTS/Mol_Feturizer/New_Systems/rnas/2l1v

>  <Rbt.Executable>
rbdock ($Id: //depot/dev/client3/rdock/2013.1/src/exe/rbdock.cxx#4 $)

>  <Rbt.Library>
libRbt.so (2013.1, Build901 2013/11/27)

>  <Rbt.Parameter_File>
/export/apps/rDock/src/rDock_2013.1_src/data/scripts/dock_solv.prm

>  <Rbt.Receptor>
prm/pocket_docking_8.prm

>  <SCORE>
-63.8701

>  <SCORE.INTER>
-64.7251

>  <SCORE.INTER.CONST>
1

>  <SCORE.INTER.POLAR>
-6.89297

>  <SCORE.INTER.ROT>
2

>  <SCORE.INTER.SOLV>
18.0861

>  <SCORE.INTER.VDW>
-31.1355

>  <SCORE.INTER.norm>
-4.97885

>  <SCORE.INTRA>
0.812202

>  <SCORE.INTRA.DIHEDRAL>
-0.064049

>  <SCORE.INTRA.DIHEDRAL.0>
1.43995

>  <SCORE.INTRA.POLAR>
0.2535

>  <SCORE.INTRA.POLAR.0>
-0.272593

>  <SCORE.INTRA.REPUL>
0

>  <SCORE.INTRA.REPUL.0>
0

>  <SCORE.INTRA.SOLV>
-0.0520679

>  <SCORE.INTRA.SOLV.lig_0>
-22.6728

>  <SCORE.INTRA.VDW>
0.00835989

>  <SCORE.INTRA.VDW.0>
-0.754459

>  <SCORE.INTRA.norm>
0.0624771

>  <SCORE.RESTR>
0.0427769

>  <SCORE.RESTR.CAVITY>
0.0427769

>  <SCORE.RESTR.norm>
0.00329053

>  <SCORE.SYSTEM>
0

>  <SCORE.SYSTEM.CONST>
0

>  <SCORE.SYSTEM.DIHEDRAL>
0

>  <SCORE.SYSTEM.SOLV>
0

>  <SCORE.SYSTEM.norm>
0

>  <SCORE.heavy>
13

>  <SCORE.norm>
-4.91308

>  <RMSD>
0.479

$$$$
lig.pdb
 OpenBabel11021811453D
libRbt.so/2013.1/901 2013/11/27
 13 14  0  0  0  0  0  0  0  0999 V2000
    2.2801    3.5003   -4.2309 N   0  0  0  0  0  0  0  0  0  0  0  0
    3.5173    2.9133   -4.3355 C   0  0  0  0  0  0  0  0  0  0  0  0
    3.7895    1.8009   -3.6621 N   0  0  0  0  0  0  0  0  0  0  0  0
    2.8573    1.2078   -2.8535 C   0  0  0  0  0  0  0  0  0  0  0  0
    1.5703    1.7858   -2.7099 C   0  0  0  0  0  0  0  0  0  0  0  0
    1.2941    2.9759   -3.4414 C   0  0  0  0  0  0  0  0  0  0  0  0
    0.2072    3.5203   -3.3719 O   0  0  0  0  0  0  0  0  0  0  0  0
    0.8341    0.9430   -1.7678 C   0  0  0  0  0  0  0  0  0  0  0  0
   -0.5571    1.1735   -1.2426 C   0  0  0  0  0  0  0  0  0  0  0  0
   -1.5181    1.1207   -2.3531 N   0  0  0  0  0  0  0  0  0  0  0  0
    1.6590   -0.0615   -1.4462 C   0  0  0  0  0  0  0  0  0  0  0  0
    2.8644    0.0934   -2.0780 N   0  0  0  0  0  0  0  0  0  0  0  0
    4.4711    3.4729   -5.1444 N   0  0  0  0  0  0  0  0  0  0  0  0
  1  6  1  0  0  0  0
  2  1  1  0  0  0  0
  2  3  2  0  0  0  0
  3  4  1  0  0  0  0
  4  5  2  0  0  0  0
  4 12  1  0  0  0  0
  5  8  1  0  0  0  0
  6  7  2  0  0  0  0
  6  5  1  0  0  0  0
  8 11  2  0  0  0  0
  8  9  1  0  0  0  0
 10  9  1  0  0  0  0
 12 11  1  0  0  0  0
 13  2  1  0  0  0  0
M  END
>  <CHROM.1>
63.24246114,90.66862223,1.76542362,1.91617844,-3.01140762,0.66804782,0.23559442
-0.62656759

>  <Name>
lig.pdb

>  <RI>
2.05237e+07

>  <Rbt.Current_Directory>
/home/itssahil/PROJECTS/Mol_Feturizer/New_Systems/rnas/2l1v

>  <Rbt.Executable>
rbdock ($Id: //depot/dev/client3/rdock/2013.1/src/exe/rbdock.cxx#4 $)

>  <Rbt.Library>
libRbt.so (2013.1, Build901 2013/11/27)

>  <Rbt.Parameter_File>
/export/apps/rDock/src/rDock_2013.1_src/data/scripts/dock_solv.prm

>  <Rbt.Receptor>
prm/blind_docking_100.prm

>  <SCORE>
-63.7638

>  <SCORE.INTER>
-64.6721

>  <SCORE.INTER.CONST>
1

>  <SCORE.INTER.POLAR>
-6.90372

>  <SCORE.INTER.ROT>
2

>  <SCORE.INTER.SOLV>
18.2834

>  <SCORE.INTER.VDW>
-31.1301

>  <SCORE.INTER.norm>
-4.97478

>  <SCORE.INTRA>
0.877777

>  <SCORE.INTRA.DIHEDRAL>
-0.0568429

>  <SCORE.INTRA.DIHEDRAL.0>
1.43995

>  <SCORE.INTRA.POLAR>
0.272593

>  <SCORE.INTRA.POLAR.0>
-0.272593

>  <SCORE.INTRA.REPUL>
0

>  <SCORE.INTRA.REPUL.0>
0

>  <SCORE.INTRA.SOLV>
-0.06881

>  <SCORE.INTRA.SOLV.lig_0>
-22.6728

>  <SCORE.INTRA.VDW>
0.0137885

>  <SCORE.INTRA.VDW.0>
-0.754459

>  <SCORE.INTRA.norm>
0.0675213

>  <SCORE.RESTR>
0.0304656

>  <SCORE.RESTR.CAVITY>
0.0304656

>  <SCORE.RESTR.norm>
0.00234351

>  <SCORE.SYSTEM>
0

>  <SCORE.SYSTEM.CONST>
0

>  <SCORE.SYSTEM.DIHEDRAL>
0

>  <SCORE.SYSTEM.SOLV>
0

>  <SCORE.SYSTEM.norm>
0

>  <SCORE.heavy>
13

>  <SCORE.norm>
-4.90491

>  <RMSD>
0.481

$$$$
lig.pdb
 OpenBabel11021811453D
libRbt.so/2013.1/901 2013/11/27
 13 14  0  0  0  0  0  0  0  0999 V2000
    2.2752    3.4576   -4.2498 N   0  0  0  0  0  0  0  0  0  0  0  0
    3.5220    2.8878   -4.3342 C   0  0  0  0  0  0  0  0  0  0  0  0
    3.8078    1.7961   -3.6331 N   0  0  0  0  0  0  0  0  0  0  0  0
    2.8807    1.2077   -2.8154 C   0  0  0  0  0  0  0  0  0  0  0  0
    1.5841    1.7687   -2.6919 C   0  0  0  0  0  0  0  0  0  0  0  0
    1.2933    2.9367   -3.4529 C   0  0  0  0  0  0  0  0  0  0  0  0
    0.1977    3.4654   -3.4018 O   0  0  0  0  0  0  0  0  0  0  0  0
    0.8560    0.9371   -1.7337 C   0  0  0  0  0  0  0  0  0  0  0  0
   -0.5414    1.1581   -1.2210 C   0  0  0  0  0  0  0  0  0  0  0  0
   -1.4895    1.1205   -2.3431 N   0  0  0  0  0  0  0  0  0  0  0  0
    1.6948   -0.0464   -1.3842 C   0  0  0  0  0  0  0  0  0  0  0  0
    2.9010    0.1124   -2.0135 N   0  0  0  0  0  0  0  0  0  0  0  0
    4.4713    3.4429   -5.1514 N   0  0  0  0  0  0  0  0  0  0  0  0
  1  6  1  0  0  0  0
  2  1  1  0  0  0  0
  2  3  2  0  0  0  0
  3  4  1  0  0  0  0
  4  5  2  0  0  0  0
  4 12  1  0  0  0  0
  5  8  1  0  0  0  0
  6  7  2  0  0  0  0
  6  5  1  0  0  0  0
  8 11  2  0  0  0  0
  8  9  1  0  0  0  0
 10  9  1  0  0  0  0
 12 11  1  0  0  0  0
 13  2  1  0  0  0  0
M  END
>  <CHROM.1>
60.86511082,91.69406242,1.77932877,1.90026453,-2.99627395,0.67477092,0.22427745
-0.65385717

>  <Name>
lig.pdb

>  <RI>
2.50021e+07

>  <Rbt.Current_Directory>
/home/itssahil/PROJECTS/Mol_Feturizer/New_Systems/rnas/2l1v

>  <Rbt.Executable>
rbdock ($Id: //depot/dev/client3/rdock/2013.1/src/exe/rbdock.cxx#4 $)

>  <Rbt.Library>
libRbt.so (2013.1, Build901 2013/11/27)

>  <Rbt.Parameter_File>
/export/apps/rDock/src/rDock_2013.1_src/data/scripts/dock_solv.prm

>  <Rbt.Receptor>
prm/pocket_docking_5.prm

>  <SCORE>
-63.8575

>  <SCORE.INTER>
-64.656

>  <SCORE.INTER.CONST>
1

>  <SCORE.INTER.POLAR>
-6.90536

>  <SCORE.INTER.ROT>
2

>  <SCORE.INTER.SOLV>
18.0841

>  <SCORE.INTER.VDW>
-31.0475

>  <SCORE.INTER.norm>
-4.97354

>  <SCORE.INTRA>
0.769297

>  <SCORE.INTRA.DIHEDRAL>
-0.0647787

>  <SCORE.INTRA.DIHEDRAL.0>
1.43995

>  <SCORE.INTRA.POLAR>
0.240469

>  <SCORE.INTRA.POLAR.0>
-0.272593

>  <SCORE.INTRA.REPUL>
0

>  <SCORE.INTRA.REPUL.0>
0

>  <SCORE.INTRA.SOLV>
-0.0459213

>  <SCORE.INTRA.SOLV.lig_0>
-22.6728

>  <SCORE.INTRA.VDW>
0.00705333

>  <SCORE.INTRA.VDW.0>
-0.754459

>  <SCORE.INTRA.norm>
0.0591767

>  <SCORE.RESTR>
0.0291865

>  <SCORE.RESTR.CAVITY>
0.0291865

>  <SCORE.RESTR.norm>
0.00224511

>  <SCORE.SYSTEM>
0

>  <SCORE.SYSTEM.CONST>
0

>  <SCORE.SYSTEM.DIHEDRAL>
0

>  <SCORE.SYSTEM.SOLV>
0

>  <SCORE.SYSTEM.norm>
0

>  <SCORE.heavy>
13

>  <SCORE.norm>
-4.91211

>  <RMSD>
0.481

$$$$
lig.pdb
 OpenBabel11021811453D
libRbt.so/2013.1/901 2013/11/27
 13 14  0  0  0  0  0  0  0  0999 V2000
    2.2742    3.4561   -4.2450 N   0  0  0  0  0  0  0  0  0  0  0  0
    3.5209    2.8860   -4.3272 C   0  0  0  0  0  0  0  0  0  0  0  0
    3.8037    1.7915   -3.6293 N   0  0  0  0  0  0  0  0  0  0  0  0
    2.8735    1.2006   -2.8169 C   0  0  0  0  0  0  0  0  0  0  0  0
    1.5768    1.7619   -2.6958 C   0  0  0  0  0  0  0  0  0  0  0  0
    1.2893    2.9328   -3.4534 C   0  0  0  0  0  0  0  0  0  0  0  0
    0.1938    3.4621   -3.4041 O   0  0  0  0  0  0  0  0  0  0  0  0
    0.8449    0.9272   -1.7432 C   0  0  0  0  0  0  0  0  0  0  0  0
   -0.5541    1.1471   -1.2345 C   0  0  0  0  0  0  0  0  0  0  0  0
   -1.4970    1.1267   -2.3614 N   0  0  0  0  0  0  0  0  0  0  0  0
    1.6819   -0.0581   -1.3945 C   0  0  0  0  0  0  0  0  0  0  0  0
    2.8903    0.1023   -2.0190 N   0  0  0  0  0  0  0  0  0  0  0  0
    4.4733    3.4435   -5.1392 N   0  0  0  0  0  0  0  0  0  0  0  0
  1  6  1  0  0  0  0
  2  1  1  0  0  0  0
  2  3  2  0  0  0  0
  3  4  1  0  0  0  0
  4  5  2  0  0  0  0
  4 12  1  0  0  0  0
  5  8  1  0  0  0  0
  6  7  2  0  0  0  0
  6  5  1  0  0  0  0
  8 11  2  0  0  0  0
  8  9  1  0  0  0  0
 10  9  1  0  0  0  0
 12 11  1  0  0  0  0
 13  2  1  0  0  0  0
M  END
>  <CHROM.1>
60.34131276,91.29207501,1.77323557,1.89562925,-2.99911663,0.67149862,0.22244220
-0.64983215

>  <Name>
lig.pdb

>  <RI>
9.54411e+06

>  <Rbt.Current_Directory>
/home/itssahil/PROJECTS/Mol_Feturizer/New_Systems/rnas/2l1v

>  <Rbt.Executable>
rbdock ($Id: //depot/dev/client3/rdock/2013.1/src/exe/rbdock.cxx#4 $)

>  <Rbt.Library>
libRbt.so (2013.1, Build901 2013/11/27)

>  <Rbt.Parameter_File>
/export/apps/rDock/src/rDock_2013.1_src/data/scripts/dock_solv.prm

>  <Rbt.Receptor>
prm/pocket_docking_6.prm

>  <SCORE>
-63.791

>  <SCORE.INTER>
-64.5495

>  <SCORE.INTER.CONST>
1

>  <SCORE.INTER.POLAR>
-6.91804

>  <SCORE.INTER.ROT>
2

>  <SCORE.INTER.SOLV>
18.1116

>  <SCORE.INTER.VDW>
-30.9434

>  <SCORE.INTER.norm>
-4.96535

>  <SCORE.INTRA>
0.74073

>  <SCORE.INTRA.DIHEDRAL>
-0.0645169

>  <SCORE.INTRA.DIHEDRAL.0>
1.43995

>  <SCORE.INTRA.POLAR>
0.231547

>  <SCORE.INTRA.POLAR.0>
-0.272593

>  <SCORE.INTRA.REPUL>
0

>  <SCORE.INTRA.REPUL.0>
0

>  <SCORE.INTRA.SOLV>
-0.0411819

>  <SCORE.INTRA.SOLV.lig_0>
-22.6728

>  <SCORE.INTRA.VDW>
0.0063193

>  <SCORE.INTRA.VDW.0>
-0.754459

>  <SCORE.INTRA.norm>
0.0569793

>  <SCORE.RESTR>
0.0177807

>  <SCORE.RESTR.CAVITY>
0.0177807

>  <SCORE.RESTR.norm>
0.00136775

>  <SCORE.SYSTEM>
0

>  <SCORE.SYSTEM.CONST>
0

>  <SCORE.SYSTEM.DIHEDRAL>
0

>  <SCORE.SYSTEM.SOLV>
0

>  <SCORE.SYSTEM.norm>
0

>  <SCORE.heavy>
13

>  <SCORE.norm>
-4.907

>  <RMSD>
0.481

$$$$
lig.pdb
 OpenBabel11021811453D
libRbt.so/2013.1/901 2013/11/27
 13 14  0  0  0  0  0  0  0  0999 V2000
    2.2833    3.4743   -4.2529 N   0  0  0  0  0  0  0  0  0  0  0  0
    3.5410    2.9269   -4.3220 C   0  0  0  0  0  0  0  0  0  0  0  0
    3.8387    1.8425   -3.6145 N   0  0  0  0  0  0  0  0  0  0  0  0
    2.9135    1.2398   -2.8051 C   0  0  0  0  0  0  0  0  0  0  0  0
    1.6057    1.7777   -2.6975 C   0  0  0  0  0  0  0  0  0  0  0  0
    1.3023    2.9380   -3.4652 C   0  0  0  0  0  0  0  0  0  0  0  0
    0.1968    3.4471   -3.4276 O   0  0  0  0  0  0  0  0  0  0  0  0
    0.8823    0.9359   -1.7447 C   0  0  0  0  0  0  0  0  0  0  0  0
   -0.5244    1.1330   -1.2480 C   0  0  0  0  0  0  0  0  0  0  0  0
   -1.4540    1.1282   -2.3861 N   0  0  0  0  0  0  0  0  0  0  0  0
    1.7348   -0.0314   -1.3831 C   0  0  0  0  0  0  0  0  0  0  0  0
    2.9447    0.1473   -1.9997 N   0  0  0  0  0  0  0  0  0  0  0  0
    4.4890    3.4966   -5.1306 N   0  0  0  0  0  0  0  0  0  0  0  0
  1  6  1  0  0  0  0
  2  1  1  0  0  0  0
  2  3  2  0  0  0  0
  3  4  1  0  0  0  0
  4  5  2  0  0  0  0
  4 12  1  0  0  0  0
  5  8  1  0  0  0  0
  6  7  2  0  0  0  0
  6  5  1  0  0  0  0
  8 11  2  0  0  0  0
  8  9  1  0  0  0  0
 10  9  1  0  0  0  0
 12 11  1  0  0  0  0
 13  2  1  0  0  0  0
M  END
>  <CHROM.1>
58.64236456,-88.56777965,1.80206864,1.91688970,-3.00044593,0.67945016,0.20698157
-0.65956601

>  <Name>
lig.pdb

>  <RI>
9.54411e+06

>  <Rbt.Current_Directory>
/home/itssahil/PROJECTS/Mol_Feturizer/New_Systems/rnas/2l1v

>  <Rbt.Executable>
rbdock ($Id: //depot/dev/client3/rdock/2013.1/src/exe/rbdock.cxx#4 $)

>  <Rbt.Library>
libRbt.so (2013.1, Build901 2013/11/27)

>  <Rbt.Parameter_File>
/export/apps/rDock/src/rDock_2013.1_src/data/scripts/dock_solv.prm

>  <Rbt.Receptor>
prm/pocket_docking_6.prm

>  <SCORE>
-63.6815

>  <SCORE.INTER>
-64.4549

>  <SCORE.INTER.CONST>
1

>  <SCORE.INTER.POLAR>
-6.98867

>  <SCORE.INTER.ROT>
2

>  <SCORE.INTER.SOLV>
18.0727

>  <SCORE.INTER.VDW>
-30.6319

>  <SCORE.INTER.norm>
-4.95807

>  <SCORE.INTRA>
0.742618

>  <SCORE.INTRA.DIHEDRAL>
0.0740964

>  <SCORE.INTRA.DIHEDRAL.0>
1.43995

>  <SCORE.INTRA.POLAR>
0.208739

>  <SCORE.INTRA.POLAR.0>
-0.272593

>  <SCORE.INTRA.REPUL>
0

>  <SCORE.INTRA.REPUL.0>
0

>  <SCORE.INTRA.SOLV>
-0.027934

>  <SCORE.INTRA.SOLV.lig_0>
-22.6728

>  <SCORE.INTRA.VDW>
0.00982399

>  <SCORE.INTRA.VDW.0>
-0.754459

>  <SCORE.INTRA.norm>
0.0571245

>  <SCORE.RESTR>
0.0308091

>  <SCORE.RESTR.CAVITY>
0.0308091

>  <SCORE.RESTR.norm>
0.00236993

>  <SCORE.SYSTEM>
0

>  <SCORE.SYSTEM.CONST>
0

>  <SCORE.SYSTEM.DIHEDRAL>
0

>  <SCORE.SYSTEM.SOLV>
0

>  <SCORE.SYSTEM.norm>
0

>  <SCORE.heavy>
13

>  <SCORE.norm>
-4.89857

>  <RMSD>
0.481

$$$$
lig.pdb
 OpenBabel11021811453D
libRbt.so/2013.1/901 2013/11/27
 13 14  0  0  0  0  0  0  0  0999 V2000
    2.2863    3.4721   -4.2508 N   0  0  0  0  0  0  0  0  0  0  0  0
    3.5410    2.9186   -4.3244 C   0  0  0  0  0  0  0  0  0  0  0  0
    3.8358    1.8322   -3.6187 N   0  0  0  0  0  0  0  0  0  0  0  0
    2.9103    1.2335   -2.8067 C   0  0  0  0  0  0  0  0  0  0  0  0
    1.6055    1.7777   -2.6944 C   0  0  0  0  0  0  0  0  0  0  0  0
    1.3053    2.9400   -3.4603 C   0  0  0  0  0  0  0  0  0  0  0  0
    0.2024    3.4544   -3.4186 O   0  0  0  0  0  0  0  0  0  0  0  0
    0.8812    0.9387   -1.7398 C   0  0  0  0  0  0  0  0  0  0  0  0
   -0.5229    1.1424   -1.2383 C   0  0  0  0  0  0  0  0  0  0  0  0
   -1.4586    1.1218   -2.3712 N   0  0  0  0  0  0  0  0  0  0  0  0
    1.7301   -0.0329   -1.3817 C   0  0  0  0  0  0  0  0  0  0  0  0
    2.9388    0.1403   -2.0021 N   0  0  0  0  0  0  0  0  0  0  0  0
    4.4892    3.4843   -5.1357 N   0  0  0  0  0  0  0  0  0  0  0  0
  1  6  1  0  0  0  0
  2  1  1  0  0  0  0
  2  3  2  0  0  0  0
  3  4  1  0  0  0  0
  4  5  2  0  0  0  0
  4 12  1  0  0  0  0
  5  8  1  0  0  0  0
  6  7  2  0  0  0  0
  6  5  1  0  0  0  0
  8 11  2  0  0  0  0
  8  9  1  0  0  0  0
 10  9  1  0  0  0  0
 12 11  1  0  0  0  0
 13  2  1  0  0  0  0
M  END
>  <CHROM.1>
59.52742824,-88.35338246,1.80137104,1.91415114,-2.99765759,0.67865512,0.21163847
-0.65805487

>  <Name>
lig.pdb

>  <RI>
2.7104e+07

>  <Rbt.Current_Directory>
/home/itssahil/PROJECTS/Mol_Feturizer/New_Systems/rnas/2l1v

>  <Rbt.Executable>
rbdock ($Id: //depot/dev/client3/rdock/2013.1/src/exe/rbdock.cxx#4 $)

>  <Rbt.Library>
libRbt.so (2013.1, Build901 2013/11/27)

>  <Rbt.Parameter_File>
/export/apps/rDock/src/rDock_2013.1_src/data/scripts/dock_solv.prm

>  <Rbt.Receptor>
prm/pocket_docking_8.prm

>  <SCORE>
-63.6364

>  <SCORE.INTER>
-64.4678

>  <SCORE.INTER.CONST>
1

>  <SCORE.INTER.POLAR>
-6.96917

>  <SCORE.INTER.ROT>
2

>  <SCORE.INTER.SOLV>
18.065

>  <SCORE.INTER.VDW>
-30.7029

>  <SCORE.INTER.norm>
-4.95906

>  <SCORE.INTRA>
0.801548

>  <SCORE.INTRA.DIHEDRAL>
0.0691975

>  <SCORE.INTRA.DIHEDRAL.0>
1.43995

>  <SCORE.INTRA.POLAR>
0.227717

>  <SCORE.INTRA.POLAR.0>
-0.272593

>  <SCORE.INTRA.REPUL>
0

>  <SCORE.INTRA.REPUL.0>
0

>  <SCORE.INTRA.SOLV>
-0.0359883

>  <SCORE.INTRA.SOLV.lig_0>
-22.6728

>  <SCORE.INTRA.VDW>
0.0107072

>  <SCORE.INTRA.VDW.0>
-0.754459

>  <SCORE.INTRA.norm>
0.0616575

>  <SCORE.RESTR>
0.0298086

>  <SCORE.RESTR.CAVITY>
0.0298086

>  <SCORE.RESTR.norm>
0.00229297

>  <SCORE.SYSTEM>
0

>  <SCORE.SYSTEM.CONST>
0

>  <SCORE.SYSTEM.DIHEDRAL>
0

>  <SCORE.SYSTEM.SOLV>
0

>  <SCORE.SYSTEM.norm>
0

>  <SCORE.heavy>
13

>  <SCORE.norm>
-4.89511

>  <RMSD>
0.482

$$$$
lig.pdb
 OpenBabel11021811453D
libRbt.so/2013.1/901 2013/11/27
 13 14  0  0  0  0  0  0  0  0999 V2000
    2.2855    3.4990   -4.2228 N   0  0  0  0  0  0  0  0  0  0  0  0
    3.5221    2.9109   -4.3280 C   0  0  0  0  0  0  0  0  0  0  0  0
    3.7925    1.7964   -3.6572 N   0  0  0  0  0  0  0  0  0  0  0  0
    2.8591    1.2023   -2.8509 C   0  0  0  0  0  0  0  0  0  0  0  0
    1.5727    1.7814   -2.7067 C   0  0  0  0  0  0  0  0  0  0  0  0
    1.2984    2.9736   -3.4354 C   0  0  0  0  0  0  0  0  0  0  0  0
    0.2120    3.5191   -3.3653 O   0  0  0  0  0  0  0  0  0  0  0  0
    0.8348    0.9371   -1.7673 C   0  0  0  0  0  0  0  0  0  0  0  0
   -0.5565    1.1677   -1.2425 C   0  0  0  0  0  0  0  0  0  0  0  0
   -1.5183    1.1044   -2.3518 N   0  0  0  0  0  0  0  0  0  0  0  0
    1.6584   -0.0692   -1.4477 C   0  0  0  0  0  0  0  0  0  0  0  0
    2.8644    0.0860   -2.0782 N   0  0  0  0  0  0  0  0  0  0  0  0
    4.4772    3.4714   -5.1348 N   0  0  0  0  0  0  0  0  0  0  0  0
  1  6  1  0  0  0  0
  2  1  1  0  0  0  0
  2  3  2  0  0  0  0
  3  4  1  0  0  0  0
  4  5  2  0  0  0  0
  4 12  1  0  0  0  0
  5  8  1  0  0  0  0
  6  7  2  0  0  0  0
  6  5  1  0  0  0  0
  8 11  2  0  0  0  0
  8  9  1  0  0  0  0
 10  9  1  0  0  0  0
 12 11  1  0  0  0  0
 13  2  1  0  0  0  0
M  END
>  <CHROM.1>
63.85145622,-91.27116885,1.76773901,1.91104193,-3.00734930,0.66703977,0.23526122
-0.62326710

>  <Name>
lig.pdb

>  <RI>
2.7104e+07

>  <Rbt.Current_Directory>
/home/itssahil/PROJECTS/Mol_Feturizer/New_Systems/rnas/2l1v

>  <Rbt.Executable>
rbdock ($Id: //depot/dev/client3/rdock/2013.1/src/exe/rbdock.cxx#4 $)

>  <Rbt.Library>
libRbt.so (2013.1, Build901 2013/11/27)

>  <Rbt.Parameter_File>
/export/apps/rDock/src/rDock_2013.1_src/data/scripts/dock_solv.prm

>  <Rbt.Receptor>
prm/pocket_docking_8.prm

>  <SCORE>
-63.4512

>  <SCORE.INTER>
-64.4234

>  <SCORE.INTER.CONST>
1

>  <SCORE.INTER.POLAR>
-6.89025

>  <SCORE.INTER.ROT>
2

>  <SCORE.INTER.SOLV>
18.2857

>  <SCORE.INTER.VDW>
-31.01

>  <SCORE.INTER.norm>
-4.95565

>  <SCORE.INTRA>
0.950972

>  <SCORE.INTRA.DIHEDRAL>
0.0802916

>  <SCORE.INTRA.DIHEDRAL.0>
1.43995

>  <SCORE.INTRA.POLAR>
0.272593

>  <SCORE.INTRA.POLAR.0>
-0.272593

>  <SCORE.INTRA.REPUL>
0

>  <SCORE.INTRA.REPUL.0>
0

>  <SCORE.INTRA.SOLV>
-0.0779625

>  <SCORE.INTRA.SOLV.lig_0>
-22.6728

>  <SCORE.INTRA.VDW>
0.022993

>  <SCORE.INTRA.VDW.0>
-0.754459

>  <SCORE.INTRA.norm>
0.0731517

>  <SCORE.RESTR>
0.0212818

>  <SCORE.RESTR.CAVITY>
0.0212818

>  <SCORE.RESTR.norm>
0.00163706

>  <SCORE.SYSTEM>
0

>  <SCORE.SYSTEM.CONST>
0

>  <SCORE.SYSTEM.DIHEDRAL>
0

>  <SCORE.SYSTEM.SOLV>
0

>  <SCORE.SYSTEM.norm>
0

>  <SCORE.heavy>
13

>  <SCORE.norm>
-4.88086

>  <RMSD>
0.483

$$$$
lig.pdb
 OpenBabel11021811453D
libRbt.so/2013.1/901 2013/11/27
 13 14  0  0  0  0  0  0  0  0999 V2000
    2.2724    3.4408   -4.2558 N   0  0  0  0  0  0  0  0  0  0  0  0
    3.5174    2.8663   -4.3347 C   0  0  0  0  0  0  0  0  0  0  0  0
    3.7980    1.7771   -3.6277 N   0  0  0  0  0  0  0  0  0  0  0  0
    2.8671    1.1960   -2.8089 C   0  0  0  0  0  0  0  0  0  0  0  0
    1.5722    1.7621   -2.6910 C   0  0  0  0  0  0  0  0  0  0  0  0
    1.2871    2.9272   -3.4584 C   0  0  0  0  0  0  0  0  0  0  0  0
    0.1931    3.4600   -3.4122 O   0  0  0  0  0  0  0  0  0  0  0  0
    0.8393    0.9378   -1.7302 C   0  0  0  0  0  0  0  0  0  0  0  0
   -0.5584    1.1661   -1.2216 C   0  0  0  0  0  0  0  0  0  0  0  0
   -1.5049    1.1215   -2.3449 N   0  0  0  0  0  0  0  0  0  0  0  0
    1.6739   -0.0469   -1.3741 C   0  0  0  0  0  0  0  0  0  0  0  0
    2.8819    0.1046   -2.0016 N   0  0  0  0  0  0  0  0  0  0  0  0
    4.4703    3.4141   -5.1527 N   0  0  0  0  0  0  0  0  0  0  0  0
  1  6  1  0  0  0  0
  2  1  1  0  0  0  0
  2  3  2  0  0  0  0
  3  4  1  0  0  0  0
  4  5  2  0  0  0  0
  4 12  1  0  0  0  0
  5  8  1  0  0  0  0
  6  7  2  0  0  0  0
  6  5  1  0  0  0  0
  8 11  2  0  0  0  0
  8  9  1  0  0  0  0
 10  9  1  0  0  0  0
 12 11  1  0  0  0  0
 13  2  1  0  0  0  0
M  END
>  <CHROM.1>
61.05886964,91.32913663,1.76847151,1.89100821,-2.99555122,0.67089255,0.22453012
-0.65782179

>  <Name>
lig.pdb

>  <RI>
2.05237e+07

>  <Rbt.Current_Directory>
/home/itssahil/PROJECTS/Mol_Feturizer/New_Systems/rnas/2l1v

>  <Rbt.Executable>
rbdock ($Id: //depot/dev/client3/rdock/2013.1/src/exe/rbdock.cxx#4 $)

>  <Rbt.Library>
libRbt.so (2013.1, Build901 2013/11/27)

>  <Rbt.Parameter_File>
/export/apps/rDock/src/rDock_2013.1_src/data/scripts/dock_solv.prm

>  <Rbt.Receptor>
prm/blind_docking_100.prm

>  <SCORE>
-63.8552

>  <SCORE.INTER>
-64.6696

>  <SCORE.INTER.CONST>
1

>  <SCORE.INTER.POLAR>
-6.88754

>  <SCORE.INTER.ROT>
2

>  <SCORE.INTER.SOLV>
18.0813

>  <SCORE.INTER.VDW>
-31.1151

>  <SCORE.INTER.norm>
-4.97459

>  <SCORE.INTRA>
0.792799

>  <SCORE.INTRA.DIHEDRAL>
-0.0649044

>  <SCORE.INTRA.DIHEDRAL.0>
1.43995

>  <SCORE.INTRA.POLAR>
0.247492

>  <SCORE.INTRA.POLAR.0>
-0.272593

>  <SCORE.INTRA.REPUL>
0

>  <SCORE.INTRA.REPUL.0>
0

>  <SCORE.INTRA.SOLV>
-0.0478845

>  <SCORE.INTRA.SOLV.lig_0>
-22.6728

>  <SCORE.INTRA.VDW>
0.00772047

>  <SCORE.INTRA.VDW.0>
-0.754459

>  <SCORE.INTRA.norm>
0.0609845

>  <SCORE.RESTR>
0.0216067

>  <SCORE.RESTR.CAVITY>
0.0216067

>  <SCORE.RESTR.norm>
0.00166205

>  <SCORE.SYSTEM>
0

>  <SCORE.SYSTEM.CONST>
0

>  <SCORE.SYSTEM.DIHEDRAL>
0

>  <SCORE.SYSTEM.SOLV>
0

>  <SCORE.SYSTEM.norm>
0

>  <SCORE.heavy>
13

>  <SCORE.norm>
-4.91194

>  <RMSD>
0.484

$$$$
lig.pdb
 OpenBabel11021811453D
libRbt.so/2013.1/901 2013/11/27
 13 14  0  0  0  0  0  0  0  0999 V2000
    2.2832    3.4669   -4.2489 N   0  0  0  0  0  0  0  0  0  0  0  0
    3.5311    2.8994   -4.3308 C   0  0  0  0  0  0  0  0  0  0  0  0
    3.8179    1.8089   -3.6283 N   0  0  0  0  0  0  0  0  0  0  0  0
    2.8906    1.2195   -2.8114 C   0  0  0  0  0  0  0  0  0  0  0  0
    1.5928    1.7783   -2.6905 C   0  0  0  0  0  0  0  0  0  0  0  0
    1.3011    2.9449   -3.4531 C   0  0  0  0  0  0  0  0  0  0  0  0
    0.2043    3.4717   -3.4041 O   0  0  0  0  0  0  0  0  0  0  0  0
    0.8648    0.9462   -1.7327 C   0  0  0  0  0  0  0  0  0  0  0  0
   -0.5338    1.1650   -1.2224 C   0  0  0  0  0  0  0  0  0  0  0  0
   -1.4812    1.1150   -2.3446 N   0  0  0  0  0  0  0  0  0  0  0  0
    1.7048   -0.0355   -1.3810 C   0  0  0  0  0  0  0  0  0  0  0  0
    2.9117    0.1250   -2.0085 N   0  0  0  0  0  0  0  0  0  0  0  0
    4.4807    3.4555   -5.1471 N   0  0  0  0  0  0  0  0  0  0  0  0
  1  6  1  0  0  0  0
  2  1  1  0  0  0  0
  2  3  2  0  0  0  0
  3  4  1  0  0  0  0
  4  5  2  0  0  0  0
  4 12  1  0  0  0  0
  5  8  1  0  0  0  0
  6  7  2  0  0  0  0
  6  5  1  0  0  0  0
  8 11  2  0  0  0  0
  8  9  1  0  0  0  0
 10  9  1  0  0  0  0
 12 11  1  0  0  0  0
 13  2  1  0  0  0  0
M  END
>  <CHROM.1>
61.26993827,-89.69486353,1.78787657,1.90902741,-2.99433672,0.67541735,0.22163955
-0.65464256

>  <Name>
lig.pdb

>  <RI>
4.17264e+07

>  <Rbt.Current_Directory>
/home/itssahil/PROJECTS/Mol_Feturizer/New_Systems/rnas/2l1v

>  <Rbt.Executable>
rbdock ($Id: //depot/dev/client3/rdock/2013.1/src/exe/rbdock.cxx#4 $)

>  <Rbt.Library>
libRbt.so (2013.1, Build901 2013/11/27)

>  <Rbt.Parameter_File>
/export/apps/rDock/src/rDock_2013.1_src/data/scripts/dock_solv.prm

>  <Rbt.Receptor>
prm/blind_docking_20.prm

>  <SCORE>
-63.5465

>  <SCORE.INTER>
-64.525

>  <SCORE.INTER.CONST>
1

>  <SCORE.INTER.POLAR>
-6.91676

>  <SCORE.INTER.ROT>
2

>  <SCORE.INTER.SOLV>
18.0962

>  <SCORE.INTER.VDW>
-30.9262

>  <SCORE.INTER.norm>
-4.96346

>  <SCORE.INTRA>
0.948882

>  <SCORE.INTRA.DIHEDRAL>
0.0671304

>  <SCORE.INTRA.DIHEDRAL.0>
1.43995

>  <SCORE.INTRA.POLAR>
0.272593

>  <SCORE.INTRA.POLAR.0>
-0.272593

>  <SCORE.INTRA.REPUL>
0

>  <SCORE.INTRA.REPUL.0>
0

>  <SCORE.INTRA.SOLV>
-0.0528298

>  <SCORE.INTRA.SOLV.lig_0>
-22.6728

>  <SCORE.INTRA.VDW>
0.0149164

>  <SCORE.INTRA.VDW.0>
-0.754459

>  <SCORE.INTRA.norm>
0.0729909

>  <SCORE.RESTR>
0.0295928

>  <SCORE.RESTR.CAVITY>
0.0295928

>  <SCORE.RESTR.norm>
0.00227637

>  <SCORE.SYSTEM>
0

>  <SCORE.SYSTEM.CONST>
0

>  <SCORE.SYSTEM.DIHEDRAL>
0

>  <SCORE.SYSTEM.SOLV>
0

>  <SCORE.SYSTEM.norm>
0

>  <SCORE.heavy>
13

>  <SCORE.norm>
-4.88819

>  <RMSD>
0.484

$$$$
lig.pdb
 OpenBabel11021811453D
libRbt.so/2013.1/901 2013/11/27
 13 14  0  0  0  0  0  0  0  0999 V2000
    2.2831    3.4743   -4.2505 N   0  0  0  0  0  0  0  0  0  0  0  0
    3.5385    2.9220   -4.3225 C   0  0  0  0  0  0  0  0  0  0  0  0
    3.8337    1.8365   -3.6157 N   0  0  0  0  0  0  0  0  0  0  0  0
    2.9081    1.2375   -2.8040 C   0  0  0  0  0  0  0  0  0  0  0  0
    1.6027    1.7804   -2.6933 C   0  0  0  0  0  0  0  0  0  0  0  0
    1.3019    2.9418   -3.4604 C   0  0  0  0  0  0  0  0  0  0  0  0
    0.1985    3.4552   -3.4202 O   0  0  0  0  0  0  0  0  0  0  0  0
    0.8783    0.9415   -1.7388 C   0  0  0  0  0  0  0  0  0  0  0  0
   -0.5265    1.1441   -1.2387 C   0  0  0  0  0  0  0  0  0  0  0  0
   -1.4606    1.1261   -2.3729 N   0  0  0  0  0  0  0  0  0  0  0  0
    1.7278   -0.0290   -1.3791 C   0  0  0  0  0  0  0  0  0  0  0  0
    2.9370    0.1449   -1.9986 N   0  0  0  0  0  0  0  0  0  0  0  0
    4.4868    3.4880   -5.1334 N   0  0  0  0  0  0  0  0  0  0  0  0
  1  6  1  0  0  0  0
  2  1  1  0  0  0  0
  2  3  2  0  0  0  0
  3  4  1  0  0  0  0
  4  5  2  0  0  0  0
  4 12  1  0  0  0  0
  5  8  1  0  0  0  0
  6  7  2  0  0  0  0
  6  5  1  0  0  0  0
  8 11  2  0  0  0  0
  8  9  1  0  0  0  0
 10  9  1  0  0  0  0
 12 11  1  0  0  0  0
 13  2  1  0  0  0  0
M  END
>  <CHROM.1>
59.34400392,-88.88213005,1.79868326,1.91727507,-2.99658776,0.67865458,0.21049523
-0.65895894

>  <Name>
lig.pdb

>  <RI>
2.50021e+07

>  <Rbt.Current_Directory>
/home/itssahil/PROJECTS/Mol_Feturizer/New_Systems/rnas/2l1v

>  <Rbt.Executable>
rbdock ($Id: //depot/dev/client3/rdock/2013.1/src/exe/rbdock.cxx#4 $)

>  <Rbt.Library>
libRbt.so (2013.1, Build901 2013/11/27)

>  <Rbt.Parameter_File>
/export/apps/rDock/src/rDock_2013.1_src/data/scripts/dock_solv.prm

>  <Rbt.Receptor>
prm/pocket_docking_5.prm

>  <SCORE>
-63.6283

>  <SCORE.INTER>
-64.4631

>  <SCORE.INTER.CONST>
1

>  <SCORE.INTER.POLAR>
-6.97787

>  <SCORE.INTER.ROT>
2

>  <SCORE.INTER.SOLV>
18.0738

>  <SCORE.INTER.VDW>
-30.6737

>  <SCORE.INTER.norm>
-4.9587

>  <SCORE.INTRA>
0.80498

>  <SCORE.INTRA.DIHEDRAL>
0.0702323

>  <SCORE.INTRA.DIHEDRAL.0>
1.43995

>  <SCORE.INTRA.POLAR>
0.228314

>  <SCORE.INTRA.POLAR.0>
-0.272593

>  <SCORE.INTRA.REPUL>
0

>  <SCORE.INTRA.REPUL.0>
0

>  <SCORE.INTRA.SOLV>
-0.034538

>  <SCORE.INTRA.SOLV.lig_0>
-22.6728

>  <SCORE.INTRA.VDW>
0.0108661

>  <SCORE.INTRA.VDW.0>
-0.754459

>  <SCORE.INTRA.norm>
0.0619215

>  <SCORE.RESTR>
0.0297664

>  <SCORE.RESTR.CAVITY>
0.0297664

>  <SCORE.RESTR.norm>
0.00228973

>  <SCORE.SYSTEM>
0

>  <SCORE.SYSTEM.CONST>
0

>  <SCORE.SYSTEM.DIHEDRAL>
0

>  <SCORE.SYSTEM.SOLV>
0

>  <SCORE.SYSTEM.norm>
0

>  <SCORE.heavy>
13

>  <SCORE.norm>
-4.89449

>  <RMSD>
0.484

$$$$
lig.pdb
 OpenBabel11021811453D
libRbt.so/2013.1/901 2013/11/27
 13 14  0  0  0  0  0  0  0  0999 V2000
    2.2878    3.5007   -4.2009 N   0  0  0  0  0  0  0  0  0  0  0  0
    3.5141    2.8940   -4.3208 C   0  0  0  0  0  0  0  0  0  0  0  0
    3.7664    1.7610   -3.6744 N   0  0  0  0  0  0  0  0  0  0  0  0
    2.8241    1.1657   -2.8794 C   0  0  0  0  0  0  0  0  0  0  0  0
    1.5479    1.7634   -2.7206 C   0  0  0  0  0  0  0  0  0  0  0  0
    1.2930    2.9755   -3.4232 C   0  0  0  0  0  0  0  0  0  0  0  0
    0.2161    3.5377   -3.3395 O   0  0  0  0  0  0  0  0  0  0  0  0
    0.7970    0.9118   -1.7982 C   0  0  0  0  0  0  0  0  0  0  0  0
   -0.5895    1.1548   -1.2662 C   0  0  0  0  0  0  0  0  0  0  0  0
   -1.5563    1.1105   -2.3720 N   0  0  0  0  0  0  0  0  0  0  0  0
    1.6038   -0.1149   -1.5017 C   0  0  0  0  0  0  0  0  0  0  0  0
    2.8114    0.0332   -2.1308 N   0  0  0  0  0  0  0  0  0  0  0  0
    4.4775    3.4554   -5.1170 N   0  0  0  0  0  0  0  0  0  0  0  0
  1  6  1  0  0  0  0
  2  1  1  0  0  0  0
  2  3  2  0  0  0  0
  3  4  1  0  0  0  0
  4  5  2  0  0  0  0
  4 12  1  0  0  0  0
  5  8  1  0  0  0  0
  6  7  2  0  0  0  0
  6  5  1  0  0  0  0
  8 11  2  0  0  0  0
  8  9  1  0  0  0  0
 10  9  1  0  0  0  0
 12 11  1  0  0  0  0
 13  2  1  0  0  0  0
M  END
>  <CHROM.1>
64.74439587,-93.29886489,1.74450204,1.89414896,-3.01847545,0.65469017,0.24562206
-0.59806442

>  <Name>
lig.pdb

>  <RI>
2.05237e+07

>  <Rbt.Current_Directory>
/home/itssahil/PROJECTS/Mol_Feturizer/New_Systems/rnas/2l1v

>  <Rbt.Executable>
rbdock ($Id: //depot/dev/client3/rdock/2013.1/src/exe/rbdock.cxx#4 $)

>  <Rbt.Library>
libRbt.so (2013.1, Build901 2013/11/27)

>  <Rbt.Parameter_File>
/export/apps/rDock/src/rDock_2013.1_src/data/scripts/dock_solv.prm

>  <Rbt.Receptor>
prm/blind_docking_100.prm

>  <SCORE>
-63.2074

>  <SCORE.INTER>
-64.1641

>  <SCORE.INTER.CONST>
1

>  <SCORE.INTER.POLAR>
-6.8615

>  <SCORE.INTER.ROT>
2

>  <SCORE.INTER.SOLV>
18.4416

>  <SCORE.INTER.VDW>
-30.9849

>  <SCORE.INTER.norm>
-4.9357

>  <SCORE.INTRA>
0.954985

>  <SCORE.INTRA.DIHEDRAL>
0.0889693

>  <SCORE.INTRA.DIHEDRAL.0>
1.43995

>  <SCORE.INTRA.POLAR>
0.272593

>  <SCORE.INTRA.POLAR.0>
-0.272593

>  <SCORE.INTRA.REPUL>
0

>  <SCORE.INTRA.REPUL.0>
0

>  <SCORE.INTRA.SOLV>
-0.0874638

>  <SCORE.INTRA.SOLV.lig_0>
-22.6728

>  <SCORE.INTRA.VDW>
0.0274176

>  <SCORE.INTRA.VDW.0>
-0.754459

>  <SCORE.INTRA.norm>
0.0734604

>  <SCORE.RESTR>
0.00177298

>  <SCORE.RESTR.CAVITY>
0.00177298

>  <SCORE.RESTR.norm>
0.000136383

>  <SCORE.SYSTEM>
0

>  <SCORE.SYSTEM.CONST>
0

>  <SCORE.SYSTEM.DIHEDRAL>
0

>  <SCORE.SYSTEM.SOLV>
0

>  <SCORE.SYSTEM.norm>
0

>  <SCORE.heavy>
13

>  <SCORE.norm>
-4.86211

>  <RMSD>
0.485

$$$$
lig.pdb
 OpenBabel11021811453D
libRbt.so/2013.1/901 2013/11/27
 13 14  0  0  0  0  0  0  0  0999 V2000
    2.2763    3.4826   -4.2313 N   0  0  0  0  0  0  0  0  0  0  0  0
    3.5161    2.8997   -4.3273 C   0  0  0  0  0  0  0  0  0  0  0  0
    3.7899    1.7929   -3.6453 N   0  0  0  0  0  0  0  0  0  0  0  0
    2.8571    1.2018   -2.8362 C   0  0  0  0  0  0  0  0  0  0  0  0
    1.5674    1.7759   -2.7012 C   0  0  0  0  0  0  0  0  0  0  0  0
    1.2894    2.9599   -3.4419 C   0  0  0  0  0  0  0  0  0  0  0  0
    0.2002    3.5007   -3.3800 O   0  0  0  0  0  0  0  0  0  0  0  0
    0.8308    0.9369   -1.7560 C   0  0  0  0  0  0  0  0  0  0  0  0
   -0.5632    1.1656   -1.2375 C   0  0  0  0  0  0  0  0  0  0  0  0
   -1.5179    1.1185   -2.3536 N   0  0  0  0  0  0  0  0  0  0  0  0
    1.6583   -0.0623   -1.4246 C   0  0  0  0  0  0  0  0  0  0  0  0
    2.8654    0.0928   -2.0529 N   0  0  0  0  0  0  0  0  0  0  0  0
    4.4708    3.4572   -5.1366 N   0  0  0  0  0  0  0  0  0  0  0  0
  1  6  1  0  0  0  0
  2  1  1  0  0  0  0
  2  3  2  0  0  0  0
  3  4  1  0  0  0  0
  4  5  2  0  0  0  0
  4 12  1  0  0  0  0
  5  8  1  0  0  0  0
  6  7  2  0  0  0  0
  6  5  1  0  0  0  0
  8 11  2  0  0  0  0
  8  9  1  0  0  0  0
 10  9  1  0  0  0  0
 12 11  1  0  0  0  0
 13  2  1  0  0  0  0
M  END
>  <CHROM.1>
62.53422428,90.75769637,1.76328227,1.90656661,-3.00311227,0.66803842,0.23103887
-0.63402749

>  <Name>
lig.pdb

>  <RI>
4.17264e+07

>  <Rbt.Current_Directory>
/home/itssahil/PROJECTS/Mol_Feturizer/New_Systems/rnas/2l1v

>  <Rbt.Executable>
rbdock ($Id: //depot/dev/client3/rdock/2013.1/src/exe/rbdock.cxx#4 $)

>  <Rbt.Library>
libRbt.so (2013.1, Build901 2013/11/27)

>  <Rbt.Parameter_File>
/export/apps/rDock/src/rDock_2013.1_src/data/scripts/dock_solv.prm

>  <Rbt.Receptor>
prm/blind_docking_20.prm

>  <SCORE>
-63.7365

>  <SCORE.INTER>
-64.6311

>  <SCORE.INTER.CONST>
1

>  <SCORE.INTER.POLAR>
-6.90916

>  <SCORE.INTER.ROT>
2

>  <SCORE.INTER.SOLV>
18.218

>  <SCORE.INTER.VDW>
-31.0629

>  <SCORE.INTER.norm>
-4.97162

>  <SCORE.INTRA>
0.87698

>  <SCORE.INTRA.DIHEDRAL>
-0.0610786

>  <SCORE.INTRA.DIHEDRAL.0>
1.43995

>  <SCORE.INTRA.POLAR>
0.272593

>  <SCORE.INTRA.POLAR.0>
-0.272593

>  <SCORE.INTRA.REPUL>
0

>  <SCORE.INTRA.REPUL.0>
0

>  <SCORE.INTRA.SOLV>
-0.0620384

>  <SCORE.INTRA.SOLV.lig_0>
-22.6728

>  <SCORE.INTRA.VDW>
0.0117238

>  <SCORE.INTRA.VDW.0>
-0.754459

>  <SCORE.INTRA.norm>
0.06746

>  <SCORE.RESTR>
0.017603

>  <SCORE.RESTR.CAVITY>
0.017603

>  <SCORE.RESTR.norm>
0.00135407

>  <SCORE.SYSTEM>
0

>  <SCORE.SYSTEM.CONST>
0

>  <SCORE.SYSTEM.DIHEDRAL>
0

>  <SCORE.SYSTEM.SOLV>
0

>  <SCORE.SYSTEM.norm>
0

>  <SCORE.heavy>
13

>  <SCORE.norm>
-4.90281

>  <RMSD>
0.485

$$$$
lig.pdb
 OpenBabel11021811453D
libRbt.so/2013.1/901 2013/11/27
 13 14  0  0  0  0  0  0  0  0999 V2000
    2.2806    3.4726   -4.2501 N   0  0  0  0  0  0  0  0  0  0  0  0
    3.5360    2.9200   -4.3200 C   0  0  0  0  0  0  0  0  0  0  0  0
    3.8296    1.8343   -3.6129 N   0  0  0  0  0  0  0  0  0  0  0  0
    2.9024    1.2353   -2.8030 C   0  0  0  0  0  0  0  0  0  0  0  0
    1.5969    1.7786   -2.6946 C   0  0  0  0  0  0  0  0  0  0  0  0
    1.2979    2.9403   -3.4619 C   0  0  0  0  0  0  0  0  0  0  0  0
    0.1945    3.4539   -3.4236 O   0  0  0  0  0  0  0  0  0  0  0  0
    0.8705    0.9396   -1.7415 C   0  0  0  0  0  0  0  0  0  0  0  0
   -0.5350    1.1425   -1.2439 C   0  0  0  0  0  0  0  0  0  0  0  0
   -1.4670    1.1260   -2.3800 N   0  0  0  0  0  0  0  0  0  0  0  0
    1.7192   -0.0312   -1.3806 C   0  0  0  0  0  0  0  0  0  0  0  0
    2.9295    0.1426   -1.9978 N   0  0  0  0  0  0  0  0  0  0  0  0
    4.4859    3.4859   -5.1290 N   0  0  0  0  0  0  0  0  0  0  0  0
  1  6  1  0  0  0  0
  2  1  1  0  0  0  0
  2  3  2  0  0  0  0
  3  4  1  0  0  0  0
  4  5  2  0  0  0  0
  4 12  1  0  0  0  0
  5  8  1  0  0  0  0
  6  7  2  0  0  0  0
  6  5  1  0  0  0  0
  8 11  2  0  0  0  0
  8  9  1  0  0  0  0
 10  9  1  0  0  0  0
 12 11  1  0  0  0  0
 13  2  1  0  0  0  0
M  END
>  <CHROM.1>
59.30044065,-88.71853359,1.79349047,1.91554377,-2.99746215,0.67725629,0.20927984
-0.65847790

>  <Name>
lig.pdb

>  <RI>
4.17264e+07

>  <Rbt.Current_Directory>
/home/itssahil/PROJECTS/Mol_Feturizer/New_Systems/rnas/2l1v

>  <Rbt.Executable>
rbdock ($Id: //depot/dev/client3/rdock/2013.1/src/exe/rbdock.cxx#4 $)

>  <Rbt.Library>
libRbt.so (2013.1, Build901 2013/11/27)

>  <Rbt.Parameter_File>
/export/apps/rDock/src/rDock_2013.1_src/data/scripts/dock_solv.prm

>  <Rbt.Receptor>
prm/blind_docking_20.prm

>  <SCORE>
-63.6221

>  <SCORE.INTER>
-64.4442

>  <SCORE.INTER.CONST>
1

>  <SCORE.INTER.POLAR>
-6.97039

>  <SCORE.INTER.ROT>
2

>  <SCORE.INTER.SOLV>
18.0844

>  <SCORE.INTER.VDW>
-30.6896

>  <SCORE.INTER.norm>
-4.95725

>  <SCORE.INTRA>
0.79659

>  <SCORE.INTRA.DIHEDRAL>
0.0703705

>  <SCORE.INTRA.DIHEDRAL.0>
1.43995

>  <SCORE.INTRA.POLAR>
0.22581

>  <SCORE.INTRA.POLAR.0>
-0.272593

>  <SCORE.INTRA.REPUL>
0

>  <SCORE.INTRA.REPUL.0>
0

>  <SCORE.INTRA.SOLV>
-0.0340595

>  <SCORE.INTRA.SOLV.lig_0>
-22.6728

>  <SCORE.INTRA.VDW>
0.0106817

>  <SCORE.INTRA.VDW.0>
-0.754459

>  <SCORE.INTRA.norm>
0.0612761

>  <SCORE.RESTR>
0.025568

>  <SCORE.RESTR.CAVITY>
0.025568

>  <SCORE.RESTR.norm>
0.00196677

>  <SCORE.SYSTEM>
0

>  <SCORE.SYSTEM.CONST>
0

>  <SCORE.SYSTEM.DIHEDRAL>
0

>  <SCORE.SYSTEM.SOLV>
0

>  <SCORE.SYSTEM.norm>
0

>  <SCORE.heavy>
13

>  <SCORE.norm>
-4.89401

>  <RMSD>
0.485

$$$$
lig.pdb
 OpenBabel11021811453D
libRbt.so/2013.1/901 2013/11/27
 13 14  0  0  0  0  0  0  0  0999 V2000
    2.2838    3.4995   -4.2313 N   0  0  0  0  0  0  0  0  0  0  0  0
    3.5376    2.9457   -4.3180 C   0  0  0  0  0  0  0  0  0  0  0  0
    3.8349    1.8507   -3.6269 N   0  0  0  0  0  0  0  0  0  0  0  0
    2.9130    1.2432   -2.8174 C   0  0  0  0  0  0  0  0  0  0  0  0
    1.6093    1.7872   -2.6919 C   0  0  0  0  0  0  0  0  0  0  0  0
    1.3063    2.9589   -3.4422 C   0  0  0  0  0  0  0  0  0  0  0  0
    0.2042    3.4739   -3.3888 O   0  0  0  0  0  0  0  0  0  0  0  0
    0.8890    0.9375   -1.7438 C   0  0  0  0  0  0  0  0  0  0  0  0
   -0.5123    1.1365   -1.2327 C   0  0  0  0  0  0  0  0  0  0  0  0
   -1.4550    1.1192   -2.3599 N   0  0  0  0  0  0  0  0  0  0  0  0
    1.7387   -0.0392   -1.4017 C   0  0  0  0  0  0  0  0  0  0  0  0
    2.9445    0.1403   -2.0262 N   0  0  0  0  0  0  0  0  0  0  0  0
    4.4822    3.5202   -5.1273 N   0  0  0  0  0  0  0  0  0  0  0  0
  1  6  1  0  0  0  0
  2  1  1  0  0  0  0
  2  3  2  0  0  0  0
  3  4  1  0  0  0  0
  4  5  2  0  0  0  0
  4 12  1  0  0  0  0
  5  8  1  0  0  0  0
  6  7  2  0  0  0  0
  6  5  1  0  0  0  0
  8 11  2  0  0  0  0
  8  9  1  0  0  0  0
 10  9  1  0  0  0  0
 12 11  1  0  0  0  0
 13  2  1  0  0  0  0
M  END
>  <CHROM.1>
59.99377327,-88.49315959,1.80362090,1.92607671,-2.99441621,0.68159949,0.21582042
-0.64631789

>  <Name>
lig.pdb

>  <RI>
9.54411e+06

>  <Rbt.Current_Directory>
/home/itssahil/PROJECTS/Mol_Feturizer/New_Systems/rnas/2l1v

>  <Rbt.Executable>
rbdock ($Id: //depot/dev/client3/rdock/2013.1/src/exe/rbdock.cxx#4 $)

>  <Rbt.Library>
libRbt.so (2013.1, Build901 2013/11/27)

>  <Rbt.Parameter_File>
/export/apps/rDock/src/rDock_2013.1_src/data/scripts/dock_solv.prm

>  <Rbt.Receptor>
prm/pocket_docking_6.prm

>  <SCORE>
-63.6556

>  <SCORE.INTER>
-64.535

>  <SCORE.INTER.CONST>
1

>  <SCORE.INTER.POLAR>
-6.98684

>  <SCORE.INTER.ROT>
2

>  <SCORE.INTER.SOLV>
18.0983

>  <SCORE.INTER.VDW>
-30.7

>  <SCORE.INTER.norm>
-4.96423

>  <SCORE.INTRA>
0.839308

>  <SCORE.INTRA.DIHEDRAL>
0.0676826

>  <SCORE.INTRA.DIHEDRAL.0>
1.43995

>  <SCORE.INTRA.POLAR>
0.239449

>  <SCORE.INTRA.POLAR.0>
-0.272593

>  <SCORE.INTRA.REPUL>
0

>  <SCORE.INTRA.REPUL.0>
0

>  <SCORE.INTRA.SOLV>
-0.040374

>  <SCORE.INTRA.SOLV.lig_0>
-22.6728

>  <SCORE.INTRA.VDW>
0.0115266

>  <SCORE.INTRA.VDW.0>
-0.754459

>  <SCORE.INTRA.norm>
0.0645622

>  <SCORE.RESTR>
0.040077

>  <SCORE.RESTR.CAVITY>
0.040077

>  <SCORE.RESTR.norm>
0.00308284

>  <SCORE.SYSTEM>
0

>  <SCORE.SYSTEM.CONST>
0

>  <SCORE.SYSTEM.DIHEDRAL>
0

>  <SCORE.SYSTEM.SOLV>
0

>  <SCORE.SYSTEM.norm>
0

>  <SCORE.heavy>
13

>  <SCORE.norm>
-4.89659

>  <RMSD>
0.485

$$$$
lig.pdb
 OpenBabel11021811453D
libRbt.so/2013.1/901 2013/11/27
 13 14  0  0  0  0  0  0  0  0999 V2000
    2.2678    3.4329   -4.2508 N   0  0  0  0  0  0  0  0  0  0  0  0
    3.5129    2.8579   -4.3250 C   0  0  0  0  0  0  0  0  0  0  0  0
    3.7890    1.7662   -3.6201 N   0  0  0  0  0  0  0  0  0  0  0  0
    2.8534    1.1829   -2.8084 C   0  0  0  0  0  0  0  0  0  0  0  0
    1.5582    1.7493   -2.6955 C   0  0  0  0  0  0  0  0  0  0  0  0
    1.2779    2.9172   -3.4605 C   0  0  0  0  0  0  0  0  0  0  0  0
    0.1841    3.4505   -3.4183 O   0  0  0  0  0  0  0  0  0  0  0  0
    0.8197    0.9222   -1.7414 C   0  0  0  0  0  0  0  0  0  0  0  0
   -0.5806    1.1497   -1.2395 C   0  0  0  0  0  0  0  0  0  0  0  0
   -1.5185    1.1311   -2.3707 N   0  0  0  0  0  0  0  0  0  0  0  0
    1.6518   -0.0641   -1.3841 C   0  0  0  0  0  0  0  0  0  0  0  0
    2.8633    0.0887   -2.0046 N   0  0  0  0  0  0  0  0  0  0  0  0
    4.4705    3.4078   -5.1360 N   0  0  0  0  0  0  0  0  0  0  0  0
  1  6  1  0  0  0  0
  2  1  1  0  0  0  0
  2  3  2  0  0  0  0
  3  4  1  0  0  0  0
  4  5  2  0  0  0  0
  4 12  1  0  0  0  0
  5  8  1  0  0  0  0
  6  7  2  0  0  0  0
  6  5  1  0  0  0  0
  8 11  2  0  0  0  0
  8  9  1  0  0  0  0
 10  9  1  0  0  0  0
 12 11  1  0  0  0  0
 13  2  1  0  0  0  0
M  END
>  <CHROM.1>
60.15112975,90.57595044,1.75645144,1.88117505,-2.99877197,0.66589214,0.22157227
-0.65402198

>  <Name>
lig.pdb

>  <RI>
9.54411e+06

>  <Rbt.Current_Directory>
/home/itssahil/PROJECTS/Mol_Feturizer/New_Systems/rnas/2l1v

>  <Rbt.Executable>
rbdock ($Id: //depot/dev/client3/rdock/2013.1/src/exe/rbdock.cxx#4 $)

>  <Rbt.Library>
libRbt.so (2013.1, Build901 2013/11/27)

>  <Rbt.Parameter_File>
/export/apps/rDock/src/rDock_2013.1_src/data/scripts/dock_solv.prm

>  <Rbt.Receptor>
prm/pocket_docking_6.prm

>  <SCORE>
-63.7735

>  <SCORE.INTER>
-64.5254

>  <SCORE.INTER.CONST>
1

>  <SCORE.INTER.POLAR>
-6.89735

>  <SCORE.INTER.ROT>
2

>  <SCORE.INTER.SOLV>
18.1131

>  <SCORE.INTER.VDW>
-30.9968

>  <SCORE.INTER.norm>
-4.96349

>  <SCORE.INTRA>
0.746615

>  <SCORE.INTRA.DIHEDRAL>
-0.0644083

>  <SCORE.INTRA.DIHEDRAL.0>
1.43995

>  <SCORE.INTRA.POLAR>
0.232992

>  <SCORE.INTRA.POLAR.0>
-0.272593

>  <SCORE.INTRA.REPUL>
0

>  <SCORE.INTRA.REPUL.0>
0

>  <SCORE.INTRA.SOLV>
-0.0397084

>  <SCORE.INTRA.SOLV.lig_0>
-22.6728

>  <SCORE.INTRA.VDW>
0.00650051

>  <SCORE.INTRA.VDW.0>
-0.754459

>  <SCORE.INTRA.norm>
0.0574319

>  <SCORE.RESTR>
0.00520387

>  <SCORE.RESTR.CAVITY>
0.00520387

>  <SCORE.RESTR.norm>
0.000400297

>  <SCORE.SYSTEM>
0

>  <SCORE.SYSTEM.CONST>
0

>  <SCORE.SYSTEM.DIHEDRAL>
0

>  <SCORE.SYSTEM.SOLV>
0

>  <SCORE.SYSTEM.norm>
0

>  <SCORE.heavy>
13

>  <SCORE.norm>
-4.90566

>  <RMSD>
0.485

$$$$
lig.pdb
 OpenBabel11021811453D
libRbt.so/2013.1/901 2013/11/27
 13 14  0  0  0  0  0  0  0  0999 V2000
    2.2709    3.4551   -4.2402 N   0  0  0  0  0  0  0  0  0  0  0  0
    3.5177    2.8847   -4.3196 C   0  0  0  0  0  0  0  0  0  0  0  0
    3.7986    1.7898   -3.6215 N   0  0  0  0  0  0  0  0  0  0  0  0
    2.8662    1.1987   -2.8117 C   0  0  0  0  0  0  0  0  0  0  0  0
    1.5693    1.7602   -2.6936 C   0  0  0  0  0  0  0  0  0  0  0  0
    1.2839    2.9315   -3.4514 C   0  0  0  0  0  0  0  0  0  0  0  0
    0.1884    3.4609   -3.4044 O   0  0  0  0  0  0  0  0  0  0  0  0
    0.8350    0.9251   -1.7432 C   0  0  0  0  0  0  0  0  0  0  0  0
   -0.5653    1.1450   -1.2379 C   0  0  0  0  0  0  0  0  0  0  0  0
   -1.5048    1.1302   -2.3677 N   0  0  0  0  0  0  0  0  0  0  0  0
    1.6709   -0.0605   -1.3929 C   0  0  0  0  0  0  0  0  0  0  0  0
    2.8809    0.1000   -2.0144 N   0  0  0  0  0  0  0  0  0  0  0  0
    4.4722    3.4425   -5.1289 N   0  0  0  0  0  0  0  0  0  0  0  0
  1  6  1  0  0  0  0
  2  1  1  0  0  0  0
  2  3  2  0  0  0  0
  3  4  1  0  0  0  0
  4  5  2  0  0  0  0
  4 12  1  0  0  0  0
  5  8  1  0  0  0  0
  6  7  2  0  0  0  0
  6  5  1  0  0  0  0
  8 11  2  0  0  0  0
  8  9  1  0  0  0  0
 10  9  1  0  0  0  0
 12 11  1  0  0  0  0
 13  2  1  0  0  0  0
M  END
>  <CHROM.1>
60.13682166,90.90869169,1.76661911,1.89447203,-2.99640398,0.66955536,0.22077649
-0.64905176

>  <Name>
lig.pdb

>  <RI>
2.05237e+07

>  <Rbt.Current_Directory>
/home/itssahil/PROJECTS/Mol_Feturizer/New_Systems/rnas/2l1v

>  <Rbt.Executable>
rbdock ($Id: //depot/dev/client3/rdock/2013.1/src/exe/rbdock.cxx#4 $)

>  <Rbt.Library>
libRbt.so (2013.1, Build901 2013/11/27)

>  <Rbt.Parameter_File>
/export/apps/rDock/src/rDock_2013.1_src/data/scripts/dock_solv.prm

>  <Rbt.Receptor>
prm/blind_docking_100.prm

>  <SCORE>
-63.7965

>  <SCORE.INTER>
-64.5404

>  <SCORE.INTER.CONST>
1

>  <SCORE.INTER.POLAR>
-6.9228

>  <SCORE.INTER.ROT>
2

>  <SCORE.INTER.SOLV>
18.1198

>  <SCORE.INTER.VDW>
-30.9242

>  <SCORE.INTER.norm>
-4.96465

>  <SCORE.INTRA>
0.736042

>  <SCORE.INTRA.DIHEDRAL>
-0.0642678

>  <SCORE.INTRA.DIHEDRAL.0>
1.43995

>  <SCORE.INTRA.POLAR>
0.2299

>  <SCORE.INTRA.POLAR.0>
-0.272593

>  <SCORE.INTRA.REPUL>
0

>  <SCORE.INTRA.REPUL.0>
0

>  <SCORE.INTRA.SOLV>
-0.0394343

>  <SCORE.INTRA.SOLV.lig_0>
-22.6728

>  <SCORE.INTRA.VDW>
0.00623169

>  <SCORE.INTRA.VDW.0>
-0.754459

>  <SCORE.INTRA.norm>
0.0566186

>  <SCORE.RESTR>
0.00790237

>  <SCORE.RESTR.CAVITY>
0.00790237

>  <SCORE.RESTR.norm>
0.000607874

>  <SCORE.SYSTEM>
0

>  <SCORE.SYSTEM.CONST>
0

>  <SCORE.SYSTEM.DIHEDRAL>
0

>  <SCORE.SYSTEM.SOLV>
0

>  <SCORE.SYSTEM.norm>
0

>  <SCORE.heavy>
13

>  <SCORE.norm>
-4.90742

>  <RMSD>
0.486

$$$$
lig.pdb
 OpenBabel11021811453D
libRbt.so/2013.1/901 2013/11/27
 13 14  0  0  0  0  0  0  0  0999 V2000
    2.2724    3.4539   -4.2464 N   0  0  0  0  0  0  0  0  0  0  0  0
    3.5192    2.8835   -4.3266 C   0  0  0  0  0  0  0  0  0  0  0  0
    3.8023    1.7921   -3.6238 N   0  0  0  0  0  0  0  0  0  0  0  0
    2.8724    1.2048   -2.8085 C   0  0  0  0  0  0  0  0  0  0  0  0
    1.5757    1.7666   -2.6894 C   0  0  0  0  0  0  0  0  0  0  0  0
    1.2879    2.9341   -3.4522 C   0  0  0  0  0  0  0  0  0  0  0  0
    0.1923    3.4635   -3.4047 O   0  0  0  0  0  0  0  0  0  0  0  0
    0.8443    0.9361   -1.7328 C   0  0  0  0  0  0  0  0  0  0  0  0
   -0.5546    1.1581   -1.2245 C   0  0  0  0  0  0  0  0  0  0  0  0
   -1.4989    1.1238   -2.3499 N   0  0  0  0  0  0  0  0  0  0  0  0
    1.6815   -0.0476   -1.3800 C   0  0  0  0  0  0  0  0  0  0  0  0
    2.8897    0.1101   -2.0057 N   0  0  0  0  0  0  0  0  0  0  0  0
    4.4712    3.4374   -5.1413 N   0  0  0  0  0  0  0  0  0  0  0  0
  1  6  1  0  0  0  0
  2  1  1  0  0  0  0
  2  3  2  0  0  0  0
  3  4  1  0  0  0  0
  4  5  2  0  0  0  0
  4 12  1  0  0  0  0
  5  8  1  0  0  0  0
  6  7  2  0  0  0  0
  6  5  1  0  0  0  0
  8 11  2  0  0  0  0
  8  9  1  0  0  0  0
 10  9  1  0  0  0  0
 12 11  1  0  0  0  0
 13  2  1  0  0  0  0
M  END
>  <CHROM.1>
60.71179019,91.50266751,1.77196687,1.89813542,-2.99327100,0.67225931,0.22232253
-0.65418524

>  <Name>
lig.pdb

>  <RI>
2.05237e+07

>  <Rbt.Current_Directory>
/home/itssahil/PROJECTS/Mol_Feturizer/New_Systems/rnas/2l1v

>  <Rbt.Executable>
rbdock ($Id: //depot/dev/client3/rdock/2013.1/src/exe/rbdock.cxx#4 $)

>  <Rbt.Library>
libRbt.so (2013.1, Build901 2013/11/27)

>  <Rbt.Parameter_File>
/export/apps/rDock/src/rDock_2013.1_src/data/scripts/dock_solv.prm

>  <Rbt.Receptor>
prm/blind_docking_100.prm

>  <SCORE>
-63.8363

>  <SCORE.INTER>
-64.6175

>  <SCORE.INTER.CONST>
1

>  <SCORE.INTER.POLAR>
-6.90869

>  <SCORE.INTER.ROT>
2

>  <SCORE.INTER.SOLV>
18.0874

>  <SCORE.INTER.VDW>
-31.0119

>  <SCORE.INTER.norm>
-4.97058

>  <SCORE.INTRA>
0.762878

>  <SCORE.INTRA.DIHEDRAL>
-0.0648253

>  <SCORE.INTRA.DIHEDRAL.0>
1.43995

>  <SCORE.INTRA.POLAR>
0.238439

>  <SCORE.INTRA.POLAR.0>
-0.272593

>  <SCORE.INTRA.REPUL>
0

>  <SCORE.INTRA.REPUL.0>
0

>  <SCORE.INTRA.SOLV>
-0.0445604

>  <SCORE.INTRA.SOLV.lig_0>
-22.6728

>  <SCORE.INTRA.VDW>
0.00687787

>  <SCORE.INTRA.VDW.0>
-0.754459

>  <SCORE.INTRA.norm>
0.0586829

>  <SCORE.RESTR>
0.0183363

>  <SCORE.RESTR.CAVITY>
0.0183363

>  <SCORE.RESTR.norm>
0.00141048

>  <SCORE.SYSTEM>
0

>  <SCORE.SYSTEM.CONST>
0

>  <SCORE.SYSTEM.DIHEDRAL>
0

>  <SCORE.SYSTEM.SOLV>
0

>  <SCORE.SYSTEM.norm>
0

>  <SCORE.heavy>
13

>  <SCORE.norm>
-4.91048

>  <RMSD>
0.486

$$$$
lig.pdb
 OpenBabel11021811453D
libRbt.so/2013.1/901 2013/11/27
 13 14  0  0  0  0  0  0  0  0999 V2000
    2.2712    3.4368   -4.2511 N   0  0  0  0  0  0  0  0  0  0  0  0
    3.5166    2.8628   -4.3269 C   0  0  0  0  0  0  0  0  0  0  0  0
    3.7953    1.7726   -3.6206 N   0  0  0  0  0  0  0  0  0  0  0  0
    2.8620    1.1899   -2.8059 C   0  0  0  0  0  0  0  0  0  0  0  0
    1.5665    1.7554   -2.6913 C   0  0  0  0  0  0  0  0  0  0  0  0
    1.2835    2.9216   -3.4577 C   0  0  0  0  0  0  0  0  0  0  0  0
    0.1892    3.4539   -3.4142 O   0  0  0  0  0  0  0  0  0  0  0  0
    0.8307    0.9293   -1.7342 C   0  0  0  0  0  0  0  0  0  0  0  0
   -0.5687    1.1563   -1.2297 C   0  0  0  0  0  0  0  0  0  0  0  0
   -1.5100    1.1261   -2.3578 N   0  0  0  0  0  0  0  0  0  0  0  0
    1.6645   -0.0557   -1.3768 C   0  0  0  0  0  0  0  0  0  0  0  0
    2.8745    0.0972   -2.0002 N   0  0  0  0  0  0  0  0  0  0  0  0
    4.4720    3.4122   -5.1409 N   0  0  0  0  0  0  0  0  0  0  0  0
  1  6  1  0  0  0  0
  2  1  1  0  0  0  0
  2  3  2  0  0  0  0
  3  4  1  0  0  0  0
  4  5  2  0  0  0  0
  4 12  1  0  0  0  0
  5  8  1  0  0  0  0
  6  7  2  0  0  0  0
  6  5  1  0  0  0  0
  8 11  2  0  0  0  0
  8  9  1  0  0  0  0
 10  9  1  0  0  0  0
 12 11  1  0  0  0  0
 13  2  1  0  0  0  0
M  END
>  <CHROM.1>
60.51860178,91.06145397,1.76386058,1.88601527,-2.99508454,0.66844145,0.22228934
-0.65610878

>  <Name>
lig.pdb

>  <RI>
2.50021e+07

>  <Rbt.Current_Directory>
/home/itssahil/PROJECTS/Mol_Feturizer/New_Systems/rnas/2l1v

>  <Rbt.Executable>
rbdock ($Id: //depot/dev/client3/rdock/2013.1/src/exe/rbdock.cxx#4 $)

>  <Rbt.Library>
libRbt.so (2013.1, Build901 2013/11/27)

>  <Rbt.Parameter_File>
/export/apps/rDock/src/rDock_2013.1_src/data/scripts/dock_solv.prm

>  <Rbt.Receptor>
prm/pocket_docking_5.prm

>  <SCORE>
-63.7982

>  <SCORE.INTER>
-64.5685

>  <SCORE.INTER.CONST>
1

>  <SCORE.INTER.POLAR>
-6.89904

>  <SCORE.INTER.ROT>
2

>  <SCORE.INTER.SOLV>
18.086

>  <SCORE.INTER.VDW>
-31.0109

>  <SCORE.INTER.norm>
-4.96681

>  <SCORE.INTRA>
0.760332

>  <SCORE.INTRA.DIHEDRAL>
-0.0648542

>  <SCORE.INTRA.DIHEDRAL.0>
1.43995

>  <SCORE.INTRA.POLAR>
0.237473

>  <SCORE.INTRA.POLAR.0>
-0.272593

>  <SCORE.INTRA.REPUL>
0

>  <SCORE.INTRA.REPUL.0>
0

>  <SCORE.INTRA.SOLV>
-0.0429324

>  <SCORE.INTRA.SOLV.lig_0>
-22.6728

>  <SCORE.INTRA.VDW>
0.00681726

>  <SCORE.INTRA.VDW.0>
-0.754459

>  <SCORE.INTRA.norm>
0.0584871

>  <SCORE.RESTR>
0.00997955

>  <SCORE.RESTR.CAVITY>
0.00997955

>  <SCORE.RESTR.norm>
0.000767658

>  <SCORE.SYSTEM>
0

>  <SCORE.SYSTEM.CONST>
0

>  <SCORE.SYSTEM.DIHEDRAL>
0

>  <SCORE.SYSTEM.SOLV>
0

>  <SCORE.SYSTEM.norm>
0

>  <SCORE.heavy>
13

>  <SCORE.norm>
-4.90755

>  <RMSD>
0.486

$$$$
lig.pdb
 OpenBabel11021811453D
libRbt.so/2013.1/901 2013/11/27
 13 14  0  0  0  0  0  0  0  0999 V2000
    2.2699    3.4397   -4.2500 N   0  0  0  0  0  0  0  0  0  0  0  0
    3.5140    2.8633   -4.3285 C   0  0  0  0  0  0  0  0  0  0  0  0
    3.7914    1.7716   -3.6241 N   0  0  0  0  0  0  0  0  0  0  0  0
    2.8582    1.1897   -2.8087 C   0  0  0  0  0  0  0  0  0  0  0  0
    1.5640    1.7577   -2.6914 C   0  0  0  0  0  0  0  0  0  0  0  0
    1.2823    2.9255   -3.4559 C   0  0  0  0  0  0  0  0  0  0  0  0
    0.1892    3.4601   -3.4100 O   0  0  0  0  0  0  0  0  0  0  0  0
    0.8280    0.9318   -1.7343 C   0  0  0  0  0  0  0  0  0  0  0  0
   -0.5702    1.1611   -1.2274 C   0  0  0  0  0  0  0  0  0  0  0  0
   -1.5143    1.1254   -2.3529 N   0  0  0  0  0  0  0  0  0  0  0  0
    1.6603   -0.0553   -1.3796 C   0  0  0  0  0  0  0  0  0  0  0  0
    2.8697    0.0959   -2.0045 N   0  0  0  0  0  0  0  0  0  0  0  0
    4.4692    3.4118   -5.1432 N   0  0  0  0  0  0  0  0  0  0  0  0
  1  6  1  0  0  0  0
  2  1  1  0  0  0  0
  2  3  2  0  0  0  0
  3  4  1  0  0  0  0
  4  5  2  0  0  0  0
  4 12  1  0  0  0  0
  5  8  1  0  0  0  0
  6  7  2  0  0  0  0
  6  5  1  0  0  0  0
  8 11  2  0  0  0  0
  8  9  1  0  0  0  0
 10  9  1  0  0  0  0
 12 11  1  0  0  0  0
 13  2  1  0  0  0  0
M  END
>  <CHROM.1>
60.89491022,90.84064666,1.76110021,1.88749377,-2.99522779,0.66816810,0.22440145
-0.65439668

>  <Name>
lig.pdb

>  <RI>
9.54411e+06

>  <Rbt.Current_Directory>
/home/itssahil/PROJECTS/Mol_Feturizer/New_Systems/rnas/2l1v

>  <Rbt.Executable>
rbdock ($Id: //depot/dev/client3/rdock/2013.1/src/exe/rbdock.cxx#4 $)

>  <Rbt.Library>
libRbt.so (2013.1, Build901 2013/11/27)

>  <Rbt.Parameter_File>
/export/apps/rDock/src/rDock_2013.1_src/data/scripts/dock_solv.prm

>  <Rbt.Receptor>
prm/pocket_docking_6.prm

>  <SCORE>
-63.7913

>  <SCORE.INTER>
-64.5967

>  <SCORE.INTER.CONST>
1

>  <SCORE.INTER.POLAR>
-6.89169

>  <SCORE.INTER.ROT>
2

>  <SCORE.INTER.SOLV>
18.1016

>  <SCORE.INTER.VDW>
-31.0594

>  <SCORE.INTER.norm>
-4.96898

>  <SCORE.INTRA>
0.79356

>  <SCORE.INTRA.DIHEDRAL>
-0.0651385

>  <SCORE.INTRA.DIHEDRAL.0>
1.43995

>  <SCORE.INTRA.POLAR>
0.247551

>  <SCORE.INTRA.POLAR.0>
-0.272593

>  <SCORE.INTRA.REPUL>
0

>  <SCORE.INTRA.REPUL.0>
0

>  <SCORE.INTRA.SOLV>
-0.046545

>  <SCORE.INTRA.SOLV.lig_0>
-22.6728

>  <SCORE.INTRA.VDW>
0.00772789

>  <SCORE.INTRA.VDW.0>
-0.754459

>  <SCORE.INTRA.norm>
0.0610431

>  <SCORE.RESTR>
0.0118624

>  <SCORE.RESTR.CAVITY>
0.0118624

>  <SCORE.RESTR.norm>
0.000912491

>  <SCORE.SYSTEM>
0

>  <SCORE.SYSTEM.CONST>
0

>  <SCORE.SYSTEM.DIHEDRAL>
0

>  <SCORE.SYSTEM.SOLV>
0

>  <SCORE.SYSTEM.norm>
0

>  <SCORE.heavy>
13

>  <SCORE.norm>
-4.90702

>  <RMSD>
0.486

$$$$
lig.pdb
 OpenBabel11021811453D
libRbt.so/2013.1/901 2013/11/27
 13 14  0  0  0  0  0  0  0  0999 V2000
    2.2781    3.4757   -4.2459 N   0  0  0  0  0  0  0  0  0  0  0  0
    3.5335    2.9239   -4.3195 C   0  0  0  0  0  0  0  0  0  0  0  0
    3.8295    1.8375   -3.6144 N   0  0  0  0  0  0  0  0  0  0  0  0
    2.9046    1.2370   -2.8031 C   0  0  0  0  0  0  0  0  0  0  0  0
    1.5991    1.7795   -2.6908 C   0  0  0  0  0  0  0  0  0  0  0  0
    1.2975    2.9419   -3.4559 C   0  0  0  0  0  0  0  0  0  0  0  0
    0.1940    3.4549   -3.4143 O   0  0  0  0  0  0  0  0  0  0  0  0
    0.8755    0.9389   -1.7370 C   0  0  0  0  0  0  0  0  0  0  0  0
   -0.5290    1.1404   -1.2357 C   0  0  0  0  0  0  0  0  0  0  0  0
   -1.4642    1.1208   -2.3690 N   0  0  0  0  0  0  0  0  0  0  0  0
    1.7256   -0.0319   -1.3792 C   0  0  0  0  0  0  0  0  0  0  0  0
    2.9343    0.1433   -1.9992 N   0  0  0  0  0  0  0  0  0  0  0  0
    4.4811    3.4914   -5.1301 N   0  0  0  0  0  0  0  0  0  0  0  0
  1  6  1  0  0  0  0
  2  1  1  0  0  0  0
  2  3  2  0  0  0  0
  3  4  1  0  0  0  0
  4  5  2  0  0  0  0
  4 12  1  0  0  0  0
  5  8  1  0  0  0  0
  6  7  2  0  0  0  0
  6  5  1  0  0  0  0
  8 11  2  0  0  0  0
  8  9  1  0  0  0  0
 10  9  1  0  0  0  0
 12 11  1  0  0  0  0
 13  2  1  0  0  0  0
M  END
>  <CHROM.1>
59.46694571,-88.63909037,1.79480577,1.91650157,-2.99390212,0.67944305,0.21069535
-0.65758404

>  <Name>
lig.pdb

>  <RI>
9.54411e+06

>  <Rbt.Current_Directory>
/home/itssahil/PROJECTS/Mol_Feturizer/New_Systems/rnas/2l1v

>  <Rbt.Executable>
rbdock ($Id: //depot/dev/client3/rdock/2013.1/src/exe/rbdock.cxx#4 $)

>  <Rbt.Library>
libRbt.so (2013.1, Build901 2013/11/27)

>  <Rbt.Parameter_File>
/export/apps/rDock/src/rDock_2013.1_src/data/scripts/dock_solv.prm

>  <Rbt.Receptor>
prm/pocket_docking_6.prm

>  <SCORE>
-63.6245

>  <SCORE.INTER>
-64.4576

>  <SCORE.INTER.CONST>
1

>  <SCORE.INTER.POLAR>
-6.96578

>  <SCORE.INTER.ROT>
2

>  <SCORE.INTER.SOLV>
18.0701

>  <SCORE.INTER.VDW>
-30.7092

>  <SCORE.INTER.norm>
-4.95828

>  <SCORE.INTRA>
0.806128

>  <SCORE.INTRA.DIHEDRAL>
0.069583

>  <SCORE.INTRA.DIHEDRAL.0>
1.43995

>  <SCORE.INTRA.POLAR>
0.228904

>  <SCORE.INTRA.POLAR.0>
-0.272593

>  <SCORE.INTRA.REPUL>
0

>  <SCORE.INTRA.REPUL.0>
0

>  <SCORE.INTRA.SOLV>
-0.0355603

>  <SCORE.INTRA.SOLV.lig_0>
-22.6728

>  <SCORE.INTRA.VDW>
0.0108432

>  <SCORE.INTRA.VDW.0>
-0.754459

>  <SCORE.INTRA.norm>
0.0620099

>  <SCORE.RESTR>
0.0269098

>  <SCORE.RESTR.CAVITY>
0.0269098

>  <SCORE.RESTR.norm>
0.00206998

>  <SCORE.SYSTEM>
0

>  <SCORE.SYSTEM.CONST>
0

>  <SCORE.SYSTEM.DIHEDRAL>
0

>  <SCORE.SYSTEM.SOLV>
0

>  <SCORE.SYSTEM.norm>
0

>  <SCORE.heavy>
13

>  <SCORE.norm>
-4.8942

>  <RMSD>
0.486

$$$$
lig.pdb
 OpenBabel11021811453D
libRbt.so/2013.1/901 2013/11/27
 13 14  0  0  0  0  0  0  0  0999 V2000
    2.2775    3.4544   -4.2419 N   0  0  0  0  0  0  0  0  0  0  0  0
    3.5258    2.8867   -4.3167 C   0  0  0  0  0  0  0  0  0  0  0  0
    3.8068    1.7932   -3.6164 N   0  0  0  0  0  0  0  0  0  0  0  0
    2.8731    1.2009   -2.8091 C   0  0  0  0  0  0  0  0  0  0  0  0
    1.5746    1.7597   -2.6958 C   0  0  0  0  0  0  0  0  0  0  0  0
    1.2891    2.9296   -3.4558 C   0  0  0  0  0  0  0  0  0  0  0  0
    0.1923    3.4566   -3.4130 O   0  0  0  0  0  0  0  0  0  0  0  0
    0.8390    0.9240   -1.7469 C   0  0  0  0  0  0  0  0  0  0  0  0
   -0.5634    1.1414   -1.2464 C   0  0  0  0  0  0  0  0  0  0  0  0
   -1.4990    1.1253   -2.3795 N   0  0  0  0  0  0  0  0  0  0  0  0
    1.6759   -0.0594   -1.3928 C   0  0  0  0  0  0  0  0  0  0  0  0
    2.8876    0.1031   -2.0105 N   0  0  0  0  0  0  0  0  0  0  0  0
    4.4818    3.4457   -5.1234 N   0  0  0  0  0  0  0  0  0  0  0  0
  1  6  1  0  0  0  0
  2  1  1  0  0  0  0
  2  3  2  0  0  0  0
  3  4  1  0  0  0  0
  4  5  2  0  0  0  0
  4 12  1  0  0  0  0
  5  8  1  0  0  0  0
  6  7  2  0  0  0  0
  6  5  1  0  0  0  0
  8 11  2  0  0  0  0
  8  9  1  0  0  0  0
 10  9  1  0  0  0  0
 12 11  1  0  0  0  0
 13  2  1  0  0  0  0
M  END
>  <CHROM.1>
60.05495151,-89.52738573,1.77234044,1.89430445,-2.99790973,0.66882228,0.21701840
-0.65009545

>  <Name>
lig.pdb

>  <RI>
2.7104e+07

>  <Rbt.Current_Directory>
/home/itssahil/PROJECTS/Mol_Feturizer/New_Systems/rnas/2l1v

>  <Rbt.Executable>
rbdock ($Id: //depot/dev/client3/rdock/2013.1/src/exe/rbdock.cxx#4 $)

>  <Rbt.Library>
libRbt.so (2013.1, Build901 2013/11/27)

>  <Rbt.Parameter_File>
/export/apps/rDock/src/rDock_2013.1_src/data/scripts/dock_solv.prm

>  <Rbt.Receptor>
prm/pocket_docking_8.prm

>  <SCORE>
-63.4605

>  <SCORE.INTER>
-64.3403

>  <SCORE.INTER.CONST>
1

>  <SCORE.INTER.POLAR>
-6.92183

>  <SCORE.INTER.ROT>
2

>  <SCORE.INTER.SOLV>
18.124

>  <SCORE.INTER.VDW>
-30.7954

>  <SCORE.INTER.norm>
-4.94925

>  <SCORE.INTRA>
0.873736

>  <SCORE.INTRA.DIHEDRAL>
0.0679071

>  <SCORE.INTRA.DIHEDRAL.0>
1.43995

>  <SCORE.INTRA.POLAR>
0.249429

>  <SCORE.INTRA.POLAR.0>
-0.272593

>  <SCORE.INTRA.REPUL>
0

>  <SCORE.INTRA.REPUL.0>
0

>  <SCORE.INTRA.SOLV>
-0.0414215

>  <SCORE.INTRA.SOLV.lig_0>
-22.6728

>  <SCORE.INTRA.VDW>
0.0124357

>  <SCORE.INTRA.VDW.0>
-0.754459

>  <SCORE.INTRA.norm>
0.0672105

>  <SCORE.RESTR>
0.00601439

>  <SCORE.RESTR.CAVITY>
0.00601439

>  <SCORE.RESTR.norm>
0.000462646

>  <SCORE.SYSTEM>
0

>  <SCORE.SYSTEM.CONST>
0

>  <SCORE.SYSTEM.DIHEDRAL>
0

>  <SCORE.SYSTEM.SOLV>
0

>  <SCORE.SYSTEM.norm>
0

>  <SCORE.heavy>
13

>  <SCORE.norm>
-4.88158

>  <RMSD>
0.486

$$$$
lig.pdb
 OpenBabel11021811453D
libRbt.so/2013.1/901 2013/11/27
 13 14  0  0  0  0  0  0  0  0999 V2000
    2.2782    3.4627   -4.2501 N   0  0  0  0  0  0  0  0  0  0  0  0
    3.5246    2.8917   -4.3312 C   0  0  0  0  0  0  0  0  0  0  0  0
    3.8084    1.8013   -3.6272 N   0  0  0  0  0  0  0  0  0  0  0  0
    2.8794    1.2156   -2.8097 C   0  0  0  0  0  0  0  0  0  0  0  0
    1.5831    1.7780   -2.6896 C   0  0  0  0  0  0  0  0  0  0  0  0
    1.2946    2.9444   -3.4537 C   0  0  0  0  0  0  0  0  0  0  0  0
    0.1993    3.4743   -3.4056 O   0  0  0  0  0  0  0  0  0  0  0  0
    0.8528    0.9492   -1.7308 C   0  0  0  0  0  0  0  0  0  0  0  0
   -0.5453    1.1725   -1.2209 C   0  0  0  0  0  0  0  0  0  0  0  0
   -1.4939    1.1129   -2.3416 N   0  0  0  0  0  0  0  0  0  0  0  0
    1.6901   -0.0343   -1.3777 C   0  0  0  0  0  0  0  0  0  0  0  0
    2.8974    0.1220   -2.0053 N   0  0  0  0  0  0  0  0  0  0  0  0
    4.4757    3.4442   -5.1482 N   0  0  0  0  0  0  0  0  0  0  0  0
  1  6  1  0  0  0  0
  2  1  1  0  0  0  0
  2  3  2  0  0  0  0
  3  4  1  0  0  0  0
  4  5  2  0  0  0  0
  4 12  1  0  0  0  0
  5  8  1  0  0  0  0
  6  7  2  0  0  0  0
  6  5  1  0  0  0  0
  8 11  2  0  0  0  0
  8  9  1  0  0  0  0
 10  9  1  0  0  0  0
 12 11  1  0  0  0  0
 13  2  1  0  0  0  0
M  END
>  <CHROM.1>
61.71444638,-90.10596512,1.77845201,1.90684636,-2.99347042,0.67370597,0.22280846
-0.65521700

>  <Name>
lig.pdb

>  <RI>
2.05237e+07

>  <Rbt.Current_Directory>
/home/itssahil/PROJECTS/Mol_Feturizer/New_Systems/rnas/2l1v

>  <Rbt.Executable>
rbdock ($Id: //depot/dev/client3/rdock/2013.1/src/exe/rbdock.cxx#4 $)

>  <Rbt.Library>
libRbt.so (2013.1, Build901 2013/11/27)

>  <Rbt.Parameter_File>
/export/apps/rDock/src/rDock_2013.1_src/data/scripts/dock_solv.prm

>  <Rbt.Receptor>
prm/blind_docking_100.prm

>  <SCORE>
-63.523

>  <SCORE.INTER>
-64.4994

>  <SCORE.INTER.CONST>
1

>  <SCORE.INTER.POLAR>
-6.89292

>  <SCORE.INTER.ROT>
2

>  <SCORE.INTER.SOLV>
18.1096

>  <SCORE.INTER.VDW>
-30.993

>  <SCORE.INTER.norm>
-4.96149

>  <SCORE.INTRA>
0.948485

>  <SCORE.INTRA.DIHEDRAL>
0.0680276

>  <SCORE.INTRA.DIHEDRAL.0>
1.43995

>  <SCORE.INTRA.POLAR>
0.272593

>  <SCORE.INTRA.POLAR.0>
-0.272593

>  <SCORE.INTRA.REPUL>
0

>  <SCORE.INTRA.REPUL.0>
0

>  <SCORE.INTRA.SOLV>
-0.0571923

>  <SCORE.INTRA.SOLV.lig_0>
-22.6728

>  <SCORE.INTRA.VDW>
0.0162524

>  <SCORE.INTRA.VDW.0>
-0.754459

>  <SCORE.INTRA.norm>
0.0729604

>  <SCORE.RESTR>
0.0279036

>  <SCORE.RESTR.CAVITY>
0.0279036

>  <SCORE.RESTR.norm>
0.00214643

>  <SCORE.SYSTEM>
0

>  <SCORE.SYSTEM.CONST>
0

>  <SCORE.SYSTEM.DIHEDRAL>
0

>  <SCORE.SYSTEM.SOLV>
0

>  <SCORE.SYSTEM.norm>
0

>  <SCORE.heavy>
13

>  <SCORE.norm>
-4.88638

>  <RMSD>
0.487

$$$$
lig.pdb
 OpenBabel11021811453D
libRbt.so/2013.1/901 2013/11/27
 13 14  0  0  0  0  0  0  0  0999 V2000
    2.2750    3.4580   -4.2450 N   0  0  0  0  0  0  0  0  0  0  0  0
    3.5216    2.8877   -4.3281 C   0  0  0  0  0  0  0  0  0  0  0  0
    3.8066    1.7966   -3.6256 N   0  0  0  0  0  0  0  0  0  0  0  0
    2.8789    1.2095   -2.8077 C   0  0  0  0  0  0  0  0  0  0  0  0
    1.5824    1.7711   -2.6856 C   0  0  0  0  0  0  0  0  0  0  0  0
    1.2925    2.9383   -3.4481 C   0  0  0  0  0  0  0  0  0  0  0  0
    0.1970    3.4675   -3.3981 O   0  0  0  0  0  0  0  0  0  0  0  0
    0.8535    0.9409   -1.7268 C   0  0  0  0  0  0  0  0  0  0  0  0
   -0.5441    1.1629   -1.2151 C   0  0  0  0  0  0  0  0  0  0  0  0
   -1.4925    1.1165   -2.3366 N   0  0  0  0  0  0  0  0  0  0  0  0
    1.6918   -0.0425   -1.3757 C   0  0  0  0  0  0  0  0  0  0  0  0
    2.8983    0.1151   -2.0045 N   0  0  0  0  0  0  0  0  0  0  0  0
    4.4715    3.4415   -5.1454 N   0  0  0  0  0  0  0  0  0  0  0  0
  1  6  1  0  0  0  0
  2  1  1  0  0  0  0
  2  3  2  0  0  0  0
  3  4  1  0  0  0  0
  4  5  2  0  0  0  0
  4 12  1  0  0  0  0
  5  8  1  0  0  0  0
  6  7  2  0  0  0  0
  6  5  1  0  0  0  0
  8 11  2  0  0  0  0
  8  9  1  0  0  0  0
 10  9  1  0  0  0  0
 12 11  1  0  0  0  0
 13  2  1  0  0  0  0
M  END
>  <CHROM.1>
61.19380129,91.80506491,1.77775901,1.90151316,-2.98984954,0.67456703,0.22374748
-0.65470810

>  <Name>
lig.pdb

>  <RI>
4.17264e+07

>  <Rbt.Current_Directory>
/home/itssahil/PROJECTS/Mol_Feturizer/New_Systems/rnas/2l1v

>  <Rbt.Executable>
rbdock ($Id: //depot/dev/client3/rdock/2013.1/src/exe/rbdock.cxx#4 $)

>  <Rbt.Library>
libRbt.so (2013.1, Build901 2013/11/27)

>  <Rbt.Parameter_File>
/export/apps/rDock/src/rDock_2013.1_src/data/scripts/dock_solv.prm

>  <Rbt.Receptor>
prm/blind_docking_20.prm

>  <SCORE>
-63.8019

>  <SCORE.INTER>
-64.6146

>  <SCORE.INTER.CONST>
1

>  <SCORE.INTER.POLAR>
-6.90966

>  <SCORE.INTER.ROT>
2

>  <SCORE.INTER.SOLV>
18.066

>  <SCORE.INTER.VDW>
-30.9995

>  <SCORE.INTER.norm>
-4.97036

>  <SCORE.INTRA>
0.790677

>  <SCORE.INTRA.DIHEDRAL>
-0.0645809

>  <SCORE.INTRA.DIHEDRAL.0>
1.43995

>  <SCORE.INTRA.POLAR>
0.246992

>  <SCORE.INTRA.POLAR.0>
-0.272593

>  <SCORE.INTRA.REPUL>
0

>  <SCORE.INTRA.REPUL.0>
0

>  <SCORE.INTRA.SOLV>
-0.048965

>  <SCORE.INTRA.SOLV.lig_0>
-22.6728

>  <SCORE.INTRA.VDW>
0.00767595

>  <SCORE.INTRA.VDW.0>
-0.754459

>  <SCORE.INTRA.norm>
0.0608213

>  <SCORE.RESTR>
0.0220738

>  <SCORE.RESTR.CAVITY>
0.0220738

>  <SCORE.RESTR.norm>
0.00169799

>  <SCORE.SYSTEM>
0

>  <SCORE.SYSTEM.CONST>
0

>  <SCORE.SYSTEM.DIHEDRAL>
0

>  <SCORE.SYSTEM.SOLV>
0

>  <SCORE.SYSTEM.norm>
0

>  <SCORE.heavy>
13

>  <SCORE.norm>
-4.90784

>  <RMSD>
0.487

$$$$
lig.pdb
 OpenBabel11021811453D
libRbt.so/2013.1/901 2013/11/27
 13 14  0  0  0  0  0  0  0  0999 V2000
    2.2997    3.5063   -4.2099 N   0  0  0  0  0  0  0  0  0  0  0  0
    3.5328    2.9131   -4.3262 C   0  0  0  0  0  0  0  0  0  0  0  0
    3.8027    1.7944   -3.6624 N   0  0  0  0  0  0  0  0  0  0  0  0
    2.8721    1.2008   -2.8524 C   0  0  0  0  0  0  0  0  0  0  0  0
    1.5893    1.7851   -2.6968 C   0  0  0  0  0  0  0  0  0  0  0  0
    1.3155    2.9819   -3.4181 C   0  0  0  0  0  0  0  0  0  0  0  0
    0.2321    3.5320   -3.3380 O   0  0  0  0  0  0  0  0  0  0  0  0
    0.8540    0.9398   -1.7562 C   0  0  0  0  0  0  0  0  0  0  0  0
   -0.5327    1.1744   -1.2209 C   0  0  0  0  0  0  0  0  0  0  0  0
   -1.5036    1.1087   -2.3220 N   0  0  0  0  0  0  0  0  0  0  0  0
    1.6751   -0.0717   -1.4469 C   0  0  0  0  0  0  0  0  0  0  0  0
    2.8775    0.0809   -2.0849 N   0  0  0  0  0  0  0  0  0  0  0  0
    4.4849    3.4730   -5.1369 N   0  0  0  0  0  0  0  0  0  0  0  0
  1  6  1  0  0  0  0
  2  1  1  0  0  0  0
  2  3  2  0  0  0  0
  3  4  1  0  0  0  0
  4  5  2  0  0  0  0
  4 12  1  0  0  0  0
  5  8  1  0  0  0  0
  6  7  2  0  0  0  0
  6  5  1  0  0  0  0
  8 11  2  0  0  0  0
  8  9  1  0  0  0  0
 10  9  1  0  0  0  0
 12 11  1  0  0  0  0
 13  2  1  0  0  0  0
M  END
>  <CHROM.1>
64.35204185,-91.25654633,1.78278971,1.91411348,-2.99796981,0.66795138,0.24306335
-0.61844963

>  <Name>
lig.pdb

>  <RI>
9.54411e+06

>  <Rbt.Current_Directory>
/home/itssahil/PROJECTS/Mol_Feturizer/New_Systems/rnas/2l1v

>  <Rbt.Executable>
rbdock ($Id: //depot/dev/client3/rdock/2013.1/src/exe/rbdock.cxx#4 $)

>  <Rbt.Library>
libRbt.so (2013.1, Build901 2013/11/27)

>  <Rbt.Parameter_File>
/export/apps/rDock/src/rDock_2013.1_src/data/scripts/dock_solv.prm

>  <Rbt.Receptor>
prm/pocket_docking_6.prm

>  <SCORE>
-63.3736

>  <SCORE.INTER>
-64.3517

>  <SCORE.INTER.CONST>
1

>  <SCORE.INTER.POLAR>
-6.89756

>  <SCORE.INTER.ROT>
2

>  <SCORE.INTER.SOLV>
18.2528

>  <SCORE.INTER.VDW>
-30.9269

>  <SCORE.INTER.norm>
-4.95013

>  <SCORE.INTRA>
0.952553

>  <SCORE.INTRA.DIHEDRAL>
0.0851194

>  <SCORE.INTRA.DIHEDRAL.0>
1.43995

>  <SCORE.INTRA.POLAR>
0.272593

>  <SCORE.INTRA.POLAR.0>
-0.272593

>  <SCORE.INTRA.REPUL>
0

>  <SCORE.INTRA.REPUL.0>
0

>  <SCORE.INTRA.SOLV>
-0.0827335

>  <SCORE.INTRA.SOLV.lig_0>
-22.6728

>  <SCORE.INTRA.VDW>
0.0245449

>  <SCORE.INTRA.VDW.0>
-0.754459

>  <SCORE.INTRA.norm>
0.0732733

>  <SCORE.RESTR>
0.0256107

>  <SCORE.RESTR.CAVITY>
0.0256107

>  <SCORE.RESTR.norm>
0.00197006

>  <SCORE.SYSTEM>
0

>  <SCORE.SYSTEM.CONST>
0

>  <SCORE.SYSTEM.DIHEDRAL>
0

>  <SCORE.SYSTEM.SOLV>
0

>  <SCORE.SYSTEM.norm>
0

>  <SCORE.heavy>
13

>  <SCORE.norm>
-4.87489

>  <RMSD>
0.487

$$$$
lig.pdb
 OpenBabel11021811453D
libRbt.so/2013.1/901 2013/11/27
 13 14  0  0  0  0  0  0  0  0999 V2000
    2.2733    3.4566   -4.2451 N   0  0  0  0  0  0  0  0  0  0  0  0
    3.5212    2.8886   -4.3242 C   0  0  0  0  0  0  0  0  0  0  0  0
    3.8059    1.7978   -3.6213 N   0  0  0  0  0  0  0  0  0  0  0  0
    2.8764    1.2087   -2.8068 C   0  0  0  0  0  0  0  0  0  0  0  0
    1.5785    1.7679   -2.6889 C   0  0  0  0  0  0  0  0  0  0  0  0
    1.2891    2.9348   -3.4518 C   0  0  0  0  0  0  0  0  0  0  0  0
    0.1924    3.4620   -3.4054 O   0  0  0  0  0  0  0  0  0  0  0  0
    0.8479    0.9359   -1.7329 C   0  0  0  0  0  0  0  0  0  0  0  0
   -0.5519    1.1552   -1.2259 C   0  0  0  0  0  0  0  0  0  0  0  0
   -1.4949    1.1205   -2.3524 N   0  0  0  0  0  0  0  0  0  0  0  0
    1.6867   -0.0462   -1.3794 C   0  0  0  0  0  0  0  0  0  0  0  0
    2.8951    0.1139   -2.0040 N   0  0  0  0  0  0  0  0  0  0  0  0
    4.4729    3.4445   -5.1381 N   0  0  0  0  0  0  0  0  0  0  0  0
  1  6  1  0  0  0  0
  2  1  1  0  0  0  0
  2  3  2  0  0  0  0
  3  4  1  0  0  0  0
  4  5  2  0  0  0  0
  4 12  1  0  0  0  0
  5  8  1  0  0  0  0
  6  7  2  0  0  0  0
  6  5  1  0  0  0  0
  8 11  2  0  0  0  0
  8  9  1  0  0  0  0
 10  9  1  0  0  0  0
 12 11  1  0  0  0  0
 13  2  1  0  0  0  0
M  END
>  <CHROM.1>
60.65024309,91.66331613,1.77480044,1.89994469,-2.99257127,0.67322319,0.22046891
-0.65440030

>  <Name>
lig.pdb

>  <RI>
9.54411e+06

>  <Rbt.Current_Directory>
/home/itssahil/PROJECTS/Mol_Feturizer/New_Systems/rnas/2l1v

>  <Rbt.Executable>
rbdock ($Id: //depot/dev/client3/rdock/2013.1/src/exe/rbdock.cxx#4 $)

>  <Rbt.Library>
libRbt.so (2013.1, Build901 2013/11/27)

>  <Rbt.Parameter_File>
/export/apps/rDock/src/rDock_2013.1_src/data/scripts/dock_solv.prm

>  <Rbt.Receptor>
prm/pocket_docking_6.prm

>  <SCORE>
-63.8031

>  <SCORE.INTER>
-64.5748

>  <SCORE.INTER.CONST>
1

>  <SCORE.INTER.POLAR>
-6.92033

>  <SCORE.INTER.ROT>
2

>  <SCORE.INTER.SOLV>
18.0796

>  <SCORE.INTER.VDW>
-30.942

>  <SCORE.INTER.norm>
-4.96729

>  <SCORE.INTRA>
0.754023

>  <SCORE.INTRA.DIHEDRAL>
-0.0647104

>  <SCORE.INTRA.DIHEDRAL.0>
1.43995

>  <SCORE.INTRA.POLAR>
0.235793

>  <SCORE.INTRA.POLAR.0>
-0.272593

>  <SCORE.INTRA.REPUL>
0

>  <SCORE.INTRA.REPUL.0>
0

>  <SCORE.INTRA.SOLV>
-0.04392

>  <SCORE.INTRA.SOLV.lig_0>
-22.6728

>  <SCORE.INTRA.VDW>
0.0066419

>  <SCORE.INTRA.VDW.0>
-0.754459

>  <SCORE.INTRA.norm>
0.0580018

>  <SCORE.RESTR>
0.0176418

>  <SCORE.RESTR.CAVITY>
0.0176418

>  <SCORE.RESTR.norm>
0.00135706

>  <SCORE.SYSTEM>
0

>  <SCORE.SYSTEM.CONST>
0

>  <SCORE.SYSTEM.DIHEDRAL>
0

>  <SCORE.SYSTEM.SOLV>
0

>  <SCORE.SYSTEM.norm>
0

>  <SCORE.heavy>
13

>  <SCORE.norm>
-4.90793

>  <RMSD>
0.487

$$$$
lig.pdb
 OpenBabel11021811453D
libRbt.so/2013.1/901 2013/11/27
 13 14  0  0  0  0  0  0  0  0999 V2000
    2.2752    3.4467   -4.2505 N   0  0  0  0  0  0  0  0  0  0  0  0
    3.5200    2.8719   -4.3292 C   0  0  0  0  0  0  0  0  0  0  0  0
    3.7996    1.7816   -3.6234 N   0  0  0  0  0  0  0  0  0  0  0  0
    2.8680    1.1997   -2.8063 C   0  0  0  0  0  0  0  0  0  0  0  0
    1.5731    1.7661   -2.6886 C   0  0  0  0  0  0  0  0  0  0  0  0
    1.2890    2.9323   -3.4546 C   0  0  0  0  0  0  0  0  0  0  0  0
    0.1952    3.4654   -3.4085 O   0  0  0  0  0  0  0  0  0  0  0  0
    0.8392    0.9407   -1.7295 C   0  0  0  0  0  0  0  0  0  0  0  0
   -0.5589    1.1688   -1.2216 C   0  0  0  0  0  0  0  0  0  0  0  0
   -1.5051    1.1204   -2.3449 N   0  0  0  0  0  0  0  0  0  0  0  0
    1.6732   -0.0447   -1.3740 C   0  0  0  0  0  0  0  0  0  0  0  0
    2.8817    0.1072   -2.0004 N   0  0  0  0  0  0  0  0  0  0  0  0
    4.4737    3.4204   -5.1457 N   0  0  0  0  0  0  0  0  0  0  0  0
  1  6  1  0  0  0  0
  2  1  1  0  0  0  0
  2  3  2  0  0  0  0
  3  4  1  0  0  0  0
  4  5  2  0  0  0  0
  4 12  1  0  0  0  0
  5  8  1  0  0  0  0
  6  7  2  0  0  0  0
  6  5  1  0  0  0  0
  8 11  2  0  0  0  0
  8  9  1  0  0  0  0
 10  9  1  0  0  0  0
 12 11  1  0  0  0  0
 13  2  1  0  0  0  0
M  END
>  <CHROM.1>
61.29700084,91.37859035,1.76961801,1.89479721,-2.99269267,0.67041373,0.22389384
-0.65615187

>  <Name>
lig.pdb

>  <RI>
4.17264e+07

>  <Rbt.Current_Directory>
/home/itssahil/PROJECTS/Mol_Feturizer/New_Systems/rnas/2l1v

>  <Rbt.Executable>
rbdock ($Id: //depot/dev/client3/rdock/2013.1/src/exe/rbdock.cxx#4 $)

>  <Rbt.Library>
libRbt.so (2013.1, Build901 2013/11/27)

>  <Rbt.Parameter_File>
/export/apps/rDock/src/rDock_2013.1_src/data/scripts/dock_solv.prm

>  <Rbt.Receptor>
prm/blind_docking_20.prm

>  <SCORE>
-63.7921

>  <SCORE.INTER>
-64.6174

>  <SCORE.INTER.CONST>
1

>  <SCORE.INTER.POLAR>
-6.9018

>  <SCORE.INTER.ROT>
2

>  <SCORE.INTER.SOLV>
18.0825

>  <SCORE.INTER.VDW>
-31.0331

>  <SCORE.INTER.norm>
-4.97057

>  <SCORE.INTRA>
0.808602

>  <SCORE.INTRA.DIHEDRAL>
-0.0646737

>  <SCORE.INTRA.DIHEDRAL.0>
1.43995

>  <SCORE.INTRA.POLAR>
0.252289

>  <SCORE.INTRA.POLAR.0>
-0.272593

>  <SCORE.INTRA.REPUL>
0

>  <SCORE.INTRA.REPUL.0>
0

>  <SCORE.INTRA.SOLV>
-0.0501029

>  <SCORE.INTRA.SOLV.lig_0>
-22.6728

>  <SCORE.INTRA.VDW>
0.00820748

>  <SCORE.INTRA.VDW.0>
-0.754459

>  <SCORE.INTRA.norm>
0.0622002

>  <SCORE.RESTR>
0.0167066

>  <SCORE.RESTR.CAVITY>
0.0167066

>  <SCORE.RESTR.norm>
0.00128513

>  <SCORE.SYSTEM>
0

>  <SCORE.SYSTEM.CONST>
0

>  <SCORE.SYSTEM.DIHEDRAL>
0

>  <SCORE.SYSTEM.SOLV>
0

>  <SCORE.SYSTEM.norm>
0

>  <SCORE.heavy>
13

>  <SCORE.norm>
-4.90709

>  <RMSD>
0.488

$$$$
lig.pdb
 OpenBabel11021811453D
libRbt.so/2013.1/901 2013/11/27
 13 14  0  0  0  0  0  0  0  0999 V2000
    2.2704    3.4439   -4.2436 N   0  0  0  0  0  0  0  0  0  0  0  0
    3.5188    2.8756   -4.3129 C   0  0  0  0  0  0  0  0  0  0  0  0
    3.7968    1.7833   -3.6096 N   0  0  0  0  0  0  0  0  0  0  0  0
    2.8601    1.1930   -2.8044 C   0  0  0  0  0  0  0  0  0  0  0  0
    1.5614    1.7524   -2.6968 C   0  0  0  0  0  0  0  0  0  0  0  0
    1.2791    2.9210   -3.4600 C   0  0  0  0  0  0  0  0  0  0  0  0
    0.1823    3.4485   -3.4221 O   0  0  0  0  0  0  0  0  0  0  0  0
    0.8221    0.9189   -1.7489 C   0  0  0  0  0  0  0  0  0  0  0  0
   -0.5820    1.1377   -1.2538 C   0  0  0  0  0  0  0  0  0  0  0  0
   -1.5127    1.1272   -2.3910 N   0  0  0  0  0  0  0  0  0  0  0  0
    1.6574   -0.0642   -1.3900 C   0  0  0  0  0  0  0  0  0  0  0  0
    2.8713    0.0966   -2.0036 N   0  0  0  0  0  0  0  0  0  0  0  0
    4.4778    3.4327   -5.1173 N   0  0  0  0  0  0  0  0  0  0  0  0
  1  6  1  0  0  0  0
  2  1  1  0  0  0  0
  2  3  2  0  0  0  0
  3  4  1  0  0  0  0
  4  5  2  0  0  0  0
  4 12  1  0  0  0  0
  5  8  1  0  0  0  0
  6  7  2  0  0  0  0
  6  5  1  0  0  0  0
  8 11  2  0  0  0  0
  8  9  1  0  0  0  0
 10  9  1  0  0  0  0
 12 11  1  0  0  0  0
 13  2  1  0  0  0  0
M  END
>  <CHROM.1>
59.74248945,-90.26726116,1.76031354,1.88709855,-2.99851604,0.66590947,0.21476691
-0.65160002

>  <Name>
lig.pdb

>  <RI>
4.17264e+07

>  <Rbt.Current_Directory>
/home/itssahil/PROJECTS/Mol_Feturizer/New_Systems/rnas/2l1v

>  <Rbt.Executable>
rbdock ($Id: //depot/dev/client3/rdock/2013.1/src/exe/rbdock.cxx#4 $)

>  <Rbt.Library>
libRbt.so (2013.1, Build901 2013/11/27)

>  <Rbt.Parameter_File>
/export/apps/rDock/src/rDock_2013.1_src/data/scripts/dock_solv.prm

>  <Rbt.Receptor>
prm/blind_docking_20.prm

>  <SCORE>
-63.3987

>  <SCORE.INTER>
-64.2736

>  <SCORE.INTER.CONST>
1

>  <SCORE.INTER.POLAR>
-6.91229

>  <SCORE.INTER.ROT>
2

>  <SCORE.INTER.SOLV>
18.1368

>  <SCORE.INTER.VDW>
-30.787

>  <SCORE.INTER.norm>
-4.94412

>  <SCORE.INTRA>
0.874899

>  <SCORE.INTRA.DIHEDRAL>
0.0689925

>  <SCORE.INTRA.DIHEDRAL.0>
1.43995

>  <SCORE.INTRA.POLAR>
0.24921

>  <SCORE.INTRA.POLAR.0>
-0.272593

>  <SCORE.INTRA.REPUL>
0

>  <SCORE.INTRA.REPUL.0>
0

>  <SCORE.INTRA.SOLV>
-0.0388851

>  <SCORE.INTRA.SOLV.lig_0>
-22.6728

>  <SCORE.INTRA.VDW>
0.01253

>  <SCORE.INTRA.VDW.0>
-0.754459

>  <SCORE.INTRA.norm>
0.0672999

>  <SCORE.RESTR>
0

>  <SCORE.RESTR.CAVITY>
0

>  <SCORE.RESTR.norm>
0

>  <SCORE.SYSTEM>
0

>  <SCORE.SYSTEM.CONST>
0

>  <SCORE.SYSTEM.DIHEDRAL>
0

>  <SCORE.SYSTEM.SOLV>
0

>  <SCORE.SYSTEM.norm>
0

>  <SCORE.heavy>
13

>  <SCORE.norm>
-4.87682

>  <RMSD>
0.488

$$$$
lig.pdb
 OpenBabel11021811453D
libRbt.so/2013.1/901 2013/11/27
 13 14  0  0  0  0  0  0  0  0999 V2000
    2.2737    3.4601   -4.2396 N   0  0  0  0  0  0  0  0  0  0  0  0
    3.5209    2.8907   -4.3206 C   0  0  0  0  0  0  0  0  0  0  0  0
    3.8045    1.7979   -3.6204 N   0  0  0  0  0  0  0  0  0  0  0  0
    2.8747    1.2079   -2.8069 C   0  0  0  0  0  0  0  0  0  0  0  0
    1.5776    1.7685   -2.6870 C   0  0  0  0  0  0  0  0  0  0  0  0
    1.2892    2.9376   -3.4470 C   0  0  0  0  0  0  0  0  0  0  0  0
    0.1933    3.4661   -3.3988 O   0  0  0  0  0  0  0  0  0  0  0  0
    0.8463    0.9352   -1.7327 C   0  0  0  0  0  0  0  0  0  0  0  0
   -0.5529    1.1550   -1.2245 C   0  0  0  0  0  0  0  0  0  0  0  0
   -1.4966    1.1240   -2.3505 N   0  0  0  0  0  0  0  0  0  0  0  0
    1.6841   -0.0488   -1.3819 C   0  0  0  0  0  0  0  0  0  0  0  0
    2.8924    0.1112   -2.0067 N   0  0  0  0  0  0  0  0  0  0  0  0
    4.4729    3.4473   -5.1336 N   0  0  0  0  0  0  0  0  0  0  0  0
  1  6  1  0  0  0  0
  2  1  1  0  0  0  0
  2  3  2  0  0  0  0
  3  4  1  0  0  0  0
  4  5  2  0  0  0  0
  4 12  1  0  0  0  0
  5  8  1  0  0  0  0
  6  7  2  0  0  0  0
  6  5  1  0  0  0  0
  8 11  2  0  0  0  0
  8  9  1  0  0  0  0
 10  9  1  0  0  0  0
 12 11  1  0  0  0  0
 13  2  1  0  0  0  0
M  END
>  <CHROM.1>
60.65612707,91.45871882,1.77385968,1.90103133,-2.99046672,0.67250430,0.22161984
-0.65185044

>  <Name>
lig.pdb

>  <RI>
4.17264e+07

>  <Rbt.Current_Directory>
/home/itssahil/PROJECTS/Mol_Feturizer/New_Systems/rnas/2l1v

>  <Rbt.Executable>
rbdock ($Id: //depot/dev/client3/rdock/2013.1/src/exe/rbdock.cxx#4 $)

>  <Rbt.Library>
libRbt.so (2013.1, Build901 2013/11/27)

>  <Rbt.Parameter_File>
/export/apps/rDock/src/rDock_2013.1_src/data/scripts/dock_solv.prm

>  <Rbt.Receptor>
prm/blind_docking_20.prm

>  <SCORE>
-63.82

>  <SCORE.INTER>
-64.5929

>  <SCORE.INTER.CONST>
1

>  <SCORE.INTER.POLAR>
-6.92468

>  <SCORE.INTER.ROT>
2

>  <SCORE.INTER.SOLV>
18.0865

>  <SCORE.INTER.VDW>
-30.9419

>  <SCORE.INTER.norm>
-4.96869

>  <SCORE.INTRA>
0.759889

>  <SCORE.INTRA.DIHEDRAL>
-0.0648115

>  <SCORE.INTRA.DIHEDRAL.0>
1.43995

>  <SCORE.INTRA.POLAR>
0.237507

>  <SCORE.INTRA.POLAR.0>
-0.272593

>  <SCORE.INTRA.REPUL>
0

>  <SCORE.INTRA.REPUL.0>
0

>  <SCORE.INTRA.SOLV>
-0.0440569

>  <SCORE.INTRA.SOLV.lig_0>
-22.6728

>  <SCORE.INTRA.VDW>
0.00679875

>  <SCORE.INTRA.VDW.0>
-0.754459

>  <SCORE.INTRA.norm>
0.058453

>  <SCORE.RESTR>
0.0130883

>  <SCORE.RESTR.CAVITY>
0.0130883

>  <SCORE.RESTR.norm>
0.00100679

>  <SCORE.SYSTEM>
0

>  <SCORE.SYSTEM.CONST>
0

>  <SCORE.SYSTEM.DIHEDRAL>
0

>  <SCORE.SYSTEM.SOLV>
0

>  <SCORE.SYSTEM.norm>
0

>  <SCORE.heavy>
13

>  <SCORE.norm>
-4.90923

>  <RMSD>
0.489

$$$$
lig.pdb
 OpenBabel11021811453D
libRbt.so/2013.1/901 2013/11/27
 13 14  0  0  0  0  0  0  0  0999 V2000
    2.2737    3.4606   -4.2370 N   0  0  0  0  0  0  0  0  0  0  0  0
    3.5207    2.8908   -4.3185 C   0  0  0  0  0  0  0  0  0  0  0  0
    3.8039    1.7973   -3.6192 N   0  0  0  0  0  0  0  0  0  0  0  0
    2.8739    1.2071   -2.8061 C   0  0  0  0  0  0  0  0  0  0  0  0
    1.5770    1.7680   -2.6857 C   0  0  0  0  0  0  0  0  0  0  0  0
    1.2890    2.9378   -3.4448 C   0  0  0  0  0  0  0  0  0  0  0  0
    0.1932    3.4666   -3.3961 O   0  0  0  0  0  0  0  0  0  0  0  0
    0.8455    0.9341   -1.7321 C   0  0  0  0  0  0  0  0  0  0  0  0
   -0.5537    1.1540   -1.2237 C   0  0  0  0  0  0  0  0  0  0  0  0
   -1.4975    1.1227   -2.3495 N   0  0  0  0  0  0  0  0  0  0  0  0
    1.6829   -0.0504   -1.3821 C   0  0  0  0  0  0  0  0  0  0  0  0
    2.8913    0.1097   -2.0068 N   0  0  0  0  0  0  0  0  0  0  0  0
    4.4728    3.4478   -5.1311 N   0  0  0  0  0  0  0  0  0  0  0  0
  1  6  1  0  0  0  0
  2  1  1  0  0  0  0
  2  3  2  0  0  0  0
  3  4  1  0  0  0  0
  4  5  2  0  0  0  0
  4 12  1  0  0  0  0
  5  8  1  0  0  0  0
  6  7  2  0  0  0  0
  6  5  1  0  0  0  0
  8 11  2  0  0  0  0
  8  9  1  0  0  0  0
 10  9  1  0  0  0  0
 12 11  1  0  0  0  0
 13  2  1  0  0  0  0
M  END
>  <CHROM.1>
60.72159899,91.60774557,1.77329843,1.90052890,-2.98909878,0.67232496,0.22176544
-0.65095115

>  <Name>
lig.pdb

>  <RI>
2.05237e+07

>  <Rbt.Current_Directory>
/home/itssahil/PROJECTS/Mol_Feturizer/New_Systems/rnas/2l1v

>  <Rbt.Executable>
rbdock ($Id: //depot/dev/client3/rdock/2013.1/src/exe/rbdock.cxx#4 $)

>  <Rbt.Library>
libRbt.so (2013.1, Build901 2013/11/27)

>  <Rbt.Parameter_File>
/export/apps/rDock/src/rDock_2013.1_src/data/scripts/dock_solv.prm

>  <Rbt.Receptor>
prm/blind_docking_100.prm

>  <SCORE>
-63.8475

>  <SCORE.INTER>
-64.6194

>  <SCORE.INTER.CONST>
1

>  <SCORE.INTER.POLAR>
-6.92503

>  <SCORE.INTER.ROT>
2

>  <SCORE.INTER.SOLV>
18.0837

>  <SCORE.INTER.VDW>
-30.9574

>  <SCORE.INTER.norm>
-4.97072

>  <SCORE.INTRA>
0.760845

>  <SCORE.INTRA.DIHEDRAL>
-0.0647807

>  <SCORE.INTRA.DIHEDRAL.0>
1.43995

>  <SCORE.INTRA.POLAR>
0.237858

>  <SCORE.INTRA.POLAR.0>
-0.272593

>  <SCORE.INTRA.REPUL>
0

>  <SCORE.INTRA.REPUL.0>
0

>  <SCORE.INTRA.SOLV>
-0.0446103

>  <SCORE.INTRA.SOLV.lig_0>
-22.6728

>  <SCORE.INTRA.VDW>
0.00682285

>  <SCORE.INTRA.VDW.0>
-0.754459

>  <SCORE.INTRA.norm>
0.0585266

>  <SCORE.RESTR>
0.0110203

>  <SCORE.RESTR.CAVITY>
0.0110203

>  <SCORE.RESTR.norm>
0.000847717

>  <SCORE.SYSTEM>
0

>  <SCORE.SYSTEM.CONST>
0

>  <SCORE.SYSTEM.DIHEDRAL>
0

>  <SCORE.SYSTEM.SOLV>
0

>  <SCORE.SYSTEM.norm>
0

>  <SCORE.heavy>
13

>  <SCORE.norm>
-4.91135

>  <RMSD>
0.490

$$$$
lig.pdb
 OpenBabel11021811453D
libRbt.so/2013.1/901 2013/11/27
 13 14  0  0  0  0  0  0  0  0999 V2000
    2.2748    3.4665   -4.2357 N   0  0  0  0  0  0  0  0  0  0  0  0
    3.5228    2.8991   -4.3171 C   0  0  0  0  0  0  0  0  0  0  0  0
    3.8075    1.8052   -3.6189 N   0  0  0  0  0  0  0  0  0  0  0  0
    2.8780    1.2123   -2.8071 C   0  0  0  0  0  0  0  0  0  0  0  0
    1.5800    1.7708   -2.6869 C   0  0  0  0  0  0  0  0  0  0  0  0
    1.2905    2.9410   -3.4448 C   0  0  0  0  0  0  0  0  0  0  0  0
    0.1937    3.4679   -3.3962 O   0  0  0  0  0  0  0  0  0  0  0  0
    0.8494    0.9345   -1.7348 C   0  0  0  0  0  0  0  0  0  0  0  0
   -0.5505    1.1513   -1.2271 C   0  0  0  0  0  0  0  0  0  0  0  0
   -1.4928    1.1263   -2.3543 N   0  0  0  0  0  0  0  0  0  0  0  0
    1.6883   -0.0490   -1.3855 C   0  0  0  0  0  0  0  0  0  0  0  0
    2.8968    0.1141   -2.0092 N   0  0  0  0  0  0  0  0  0  0  0  0
    4.4745    3.4587   -5.1284 N   0  0  0  0  0  0  0  0  0  0  0  0
  1  6  1  0  0  0  0
  2  1  1  0  0  0  0
  2  3  2  0  0  0  0
  3  4  1  0  0  0  0
  4  5  2  0  0  0  0
  4 12  1  0  0  0  0
  5  8  1  0  0  0  0
  6  7  2  0  0  0  0
  6  5  1  0  0  0  0
  8 11  2  0  0  0  0
  8  9  1  0  0  0  0
 10  9  1  0  0  0  0
 12 11  1  0  0  0  0
 13  2  1  0  0  0  0
M  END
>  <CHROM.1>
60.44355472,91.42866929,1.77636574,1.90469290,-2.99010742,0.67300685,0.22045453
-0.65011359

>  <Name>
lig.pdb

>  <RI>
9.54411e+06

>  <Rbt.Current_Directory>
/home/itssahil/PROJECTS/Mol_Feturizer/New_Systems/rnas/2l1v

>  <Rbt.Executable>
rbdock ($Id: //depot/dev/client3/rdock/2013.1/src/exe/rbdock.cxx#4 $)

>  <Rbt.Library>
libRbt.so (2013.1, Build901 2013/11/27)

>  <Rbt.Parameter_File>
/export/apps/rDock/src/rDock_2013.1_src/data/scripts/dock_solv.prm

>  <Rbt.Receptor>
prm/pocket_docking_6.prm

>  <SCORE>
-63.8093

>  <SCORE.INTER>
-64.5658

>  <SCORE.INTER.CONST>
1

>  <SCORE.INTER.POLAR>
-6.93791

>  <SCORE.INTER.ROT>
2

>  <SCORE.INTER.SOLV>
18.0922

>  <SCORE.INTER.VDW>
-30.8816

>  <SCORE.INTER.norm>
-4.9666

>  <SCORE.INTRA>
0.744719

>  <SCORE.INTRA.DIHEDRAL>
-0.0646094

>  <SCORE.INTRA.DIHEDRAL.0>
1.43995

>  <SCORE.INTRA.POLAR>
0.232839

>  <SCORE.INTRA.POLAR.0>
-0.272593

>  <SCORE.INTRA.REPUL>
0

>  <SCORE.INTRA.REPUL.0>
0

>  <SCORE.INTRA.SOLV>
-0.042081

>  <SCORE.INTRA.SOLV.lig_0>
-22.6728

>  <SCORE.INTRA.VDW>
0.0064111

>  <SCORE.INTRA.VDW.0>
-0.754459

>  <SCORE.INTRA.norm>
0.0572861

>  <SCORE.RESTR>
0.01177

>  <SCORE.RESTR.CAVITY>
0.01177

>  <SCORE.RESTR.norm>
0.000905384

>  <SCORE.SYSTEM>
0

>  <SCORE.SYSTEM.CONST>
0

>  <SCORE.SYSTEM.DIHEDRAL>
0

>  <SCORE.SYSTEM.SOLV>
0

>  <SCORE.SYSTEM.norm>
0

>  <SCORE.heavy>
13

>  <SCORE.norm>
-4.90841

>  <RMSD>
0.490

$$$$
lig.pdb
 OpenBabel11021811453D
libRbt.so/2013.1/901 2013/11/27
 13 14  0  0  0  0  0  0  0  0999 V2000
    2.2707    3.4495   -4.2414 N   0  0  0  0  0  0  0  0  0  0  0  0
    3.5188    2.8810   -4.3139 C   0  0  0  0  0  0  0  0  0  0  0  0
    3.7987    1.7889   -3.6111 N   0  0  0  0  0  0  0  0  0  0  0  0
    2.8641    1.1988   -2.8031 C   0  0  0  0  0  0  0  0  0  0  0  0
    1.5657    1.7585   -2.6921 C   0  0  0  0  0  0  0  0  0  0  0  0
    1.2814    2.9268   -3.4549 C   0  0  0  0  0  0  0  0  0  0  0  0
    0.1848    3.4545   -3.4141 O   0  0  0  0  0  0  0  0  0  0  0  0
    0.8290    0.9253   -1.7420 C   0  0  0  0  0  0  0  0  0  0  0  0
   -0.5737    1.1444   -1.2430 C   0  0  0  0  0  0  0  0  0  0  0  0
   -1.5082    1.1276   -2.3770 N   0  0  0  0  0  0  0  0  0  0  0  0
    1.6652   -0.0578   -1.3850 C   0  0  0  0  0  0  0  0  0  0  0  0
    2.8774    0.1027   -2.0021 N   0  0  0  0  0  0  0  0  0  0  0  0
    4.4756    3.4378   -5.1211 N   0  0  0  0  0  0  0  0  0  0  0  0
  1  6  1  0  0  0  0
  2  1  1  0  0  0  0
  2  3  2  0  0  0  0
  3  4  1  0  0  0  0
  4  5  2  0  0  0  0
  4 12  1  0  0  0  0
  5  8  1  0  0  0  0
  6  7  2  0  0  0  0
  6  5  1  0  0  0  0
  8 11  2  0  0  0  0
  8  9  1  0  0  0  0
 10  9  1  0  0  0  0
 12 11  1  0  0  0  0
 13  2  1  0  0  0  0
M  END
>  <CHROM.1>
59.99558019,-90.61992900,1.76379082,1.89247112,-2.99434722,0.66785055,0.21677662
-0.65209283

>  <Name>
lig.pdb

>  <RI>
9.54411e+06

>  <Rbt.Current_Directory>
/home/itssahil/PROJECTS/Mol_Feturizer/New_Systems/rnas/2l1v

>  <Rbt.Executable>
rbdock ($Id: //depot/dev/client3/rdock/2013.1/src/exe/rbdock.cxx#4 $)

>  <Rbt.Library>
libRbt.so (2013.1, Build901 2013/11/27)

>  <Rbt.Parameter_File>
/export/apps/rDock/src/rDock_2013.1_src/data/scripts/dock_solv.prm

>  <Rbt.Receptor>
prm/pocket_docking_6.prm

>  <SCORE>
-63.436

>  <SCORE.INTER>
-64.3381

>  <SCORE.INTER.CONST>
1

>  <SCORE.INTER.POLAR>
-6.91138

>  <SCORE.INTER.ROT>
2

>  <SCORE.INTER.SOLV>
18.1271

>  <SCORE.INTER.VDW>
-30.8299

>  <SCORE.INTER.norm>
-4.94909

>  <SCORE.INTRA>
0.901235

>  <SCORE.INTRA.DIHEDRAL>
0.0682559

>  <SCORE.INTRA.DIHEDRAL.0>
1.43995

>  <SCORE.INTRA.POLAR>
0.257234

>  <SCORE.INTRA.POLAR.0>
-0.272593

>  <SCORE.INTRA.REPUL>
0

>  <SCORE.INTRA.REPUL.0>
0

>  <SCORE.INTRA.SOLV>
-0.0414017

>  <SCORE.INTRA.SOLV.lig_0>
-22.6728

>  <SCORE.INTRA.VDW>
0.0132132

>  <SCORE.INTRA.VDW.0>
-0.754459

>  <SCORE.INTRA.norm>
0.0693258

>  <SCORE.RESTR>
0.000882744

>  <SCORE.RESTR.CAVITY>
0.000882744

>  <SCORE.RESTR.norm>
6.79033e-05

>  <SCORE.SYSTEM>
0

>  <SCORE.SYSTEM.CONST>
0

>  <SCORE.SYSTEM.DIHEDRAL>
0

>  <SCORE.SYSTEM.SOLV>
0

>  <SCORE.SYSTEM.norm>
0

>  <SCORE.heavy>
13

>  <SCORE.norm>
-4.87969

>  <RMSD>
0.490

$$$$
lig.pdb
 OpenBabel11021811453D
libRbt.so/2013.1/901 2013/11/27
 13 14  0  0  0  0  0  0  0  0999 V2000
    2.2833    3.4807   -4.2358 N   0  0  0  0  0  0  0  0  0  0  0  0
    3.5318    2.9147   -4.3201 C   0  0  0  0  0  0  0  0  0  0  0  0
    3.8194    1.8213   -3.6224 N   0  0  0  0  0  0  0  0  0  0  0  0
    2.8925    1.2274   -2.8084 C   0  0  0  0  0  0  0  0  0  0  0  0
    1.5941    1.7844   -2.6853 C   0  0  0  0  0  0  0  0  0  0  0  0
    1.3015    2.9542   -3.4426 C   0  0  0  0  0  0  0  0  0  0  0  0
    0.2043    3.4798   -3.3915 O   0  0  0  0  0  0  0  0  0  0  0  0
    0.8666    0.9474   -1.7313 C   0  0  0  0  0  0  0  0  0  0  0  0
   -0.5323    1.1626   -1.2204 C   0  0  0  0  0  0  0  0  0  0  0  0
   -1.4803    1.1083   -2.3419 N   0  0  0  0  0  0  0  0  0  0  0  0
    1.7075   -0.0351   -1.3839 C   0  0  0  0  0  0  0  0  0  0  0  0
    2.9143    0.1292   -2.0104 N   0  0  0  0  0  0  0  0  0  0  0  0
    4.4810    3.4753   -5.1336 N   0  0  0  0  0  0  0  0  0  0  0  0
  1  6  1  0  0  0  0
  2  1  1  0  0  0  0
  2  3  2  0  0  0  0
  3  4  1  0  0  0  0
  4  5  2  0  0  0  0
  4 12  1  0  0  0  0
  5  8  1  0  0  0  0
  6  7  2  0  0  0  0
  6  5  1  0  0  0  0
  8 11  2  0  0  0  0
  8  9  1  0  0  0  0
 10  9  1  0  0  0  0
 12 11  1  0  0  0  0
 13  2  1  0  0  0  0
M  END
>  <CHROM.1>
61.62581392,-89.56116419,1.78904814,1.91592132,-2.98835721,0.67647466,0.22056909
-0.65008530

>  <Name>
lig.pdb

>  <RI>
2.05237e+07

>  <Rbt.Current_Directory>
/home/itssahil/PROJECTS/Mol_Feturizer/New_Systems/rnas/2l1v

>  <Rbt.Executable>
rbdock ($Id: //depot/dev/client3/rdock/2013.1/src/exe/rbdock.cxx#4 $)

>  <Rbt.Library>
libRbt.so (2013.1, Build901 2013/11/27)

>  <Rbt.Parameter_File>
/export/apps/rDock/src/rDock_2013.1_src/data/scripts/dock_solv.prm

>  <Rbt.Receptor>
prm/blind_docking_100.prm

>  <SCORE>
-63.5005

>  <SCORE.INTER>
-64.471

>  <SCORE.INTER.CONST>
1

>  <SCORE.INTER.POLAR>
-6.93919

>  <SCORE.INTER.ROT>
2

>  <SCORE.INTER.SOLV>
18.0972

>  <SCORE.INTER.VDW>
-30.8157

>  <SCORE.INTER.norm>
-4.95931

>  <SCORE.INTRA>
0.948226

>  <SCORE.INTRA.DIHEDRAL>
0.0676976

>  <SCORE.INTRA.DIHEDRAL.0>
1.43995

>  <SCORE.INTRA.POLAR>
0.272593

>  <SCORE.INTRA.POLAR.0>
-0.272593

>  <SCORE.INTRA.REPUL>
0

>  <SCORE.INTRA.REPUL.0>
0

>  <SCORE.INTRA.SOLV>
-0.0561077

>  <SCORE.INTRA.SOLV.lig_0>
-22.6728

>  <SCORE.INTRA.VDW>
0.0156156

>  <SCORE.INTRA.VDW.0>
-0.754459

>  <SCORE.INTRA.norm>
0.0729404

>  <SCORE.RESTR>
0.0222062

>  <SCORE.RESTR.CAVITY>
0.0222062

>  <SCORE.RESTR.norm>
0.00170817

>  <SCORE.SYSTEM>
0

>  <SCORE.SYSTEM.CONST>
0

>  <SCORE.SYSTEM.DIHEDRAL>
0

>  <SCORE.SYSTEM.SOLV>
0

>  <SCORE.SYSTEM.norm>
0

>  <SCORE.heavy>
13

>  <SCORE.norm>
-4.88466

>  <RMSD>
0.491

$$$$
lig.pdb
 OpenBabel11021811453D
libRbt.so/2013.1/901 2013/11/27
 13 14  0  0  0  0  0  0  0  0999 V2000
    2.2818    3.4718   -4.2437 N   0  0  0  0  0  0  0  0  0  0  0  0
    3.5355    2.9159   -4.3163 C   0  0  0  0  0  0  0  0  0  0  0  0
    3.8280    1.8296   -3.6095 N   0  0  0  0  0  0  0  0  0  0  0  0
    2.9010    1.2333   -2.7974 C   0  0  0  0  0  0  0  0  0  0  0  0
    1.5972    1.7799   -2.6862 C   0  0  0  0  0  0  0  0  0  0  0  0
    1.2994    2.9422   -3.4532 C   0  0  0  0  0  0  0  0  0  0  0  0
    0.1975    3.4586   -3.4126 O   0  0  0  0  0  0  0  0  0  0  0  0
    0.8708    0.9431   -1.7313 C   0  0  0  0  0  0  0  0  0  0  0  0
   -0.5332    1.1498   -1.2307 C   0  0  0  0  0  0  0  0  0  0  0  0
   -1.4692    1.1222   -2.3632 N   0  0  0  0  0  0  0  0  0  0  0  0
    1.7177   -0.0298   -1.3719 C   0  0  0  0  0  0  0  0  0  0  0  0
    2.9271    0.1407   -1.9919 N   0  0  0  0  0  0  0  0  0  0  0  0
    4.4851    3.4792   -5.1275 N   0  0  0  0  0  0  0  0  0  0  0  0
  1  6  1  0  0  0  0
  2  1  1  0  0  0  0
  2  3  2  0  0  0  0
  3  4  1  0  0  0  0
  4  5  2  0  0  0  0
  4 12  1  0  0  0  0
  5  8  1  0  0  0  0
  6  7  2  0  0  0  0
  6  5  1  0  0  0  0
  8 11  2  0  0  0  0
  8  9  1  0  0  0  0
 10  9  1  0  0  0  0
 12 11  1  0  0  0  0
 13  2  1  0  0  0  0
M  END
>  <CHROM.1>
59.85150526,-88.91130289,1.79330262,1.91507178,-2.98942412,0.67724399,0.21204722
-0.65834063

>  <Name>
lig.pdb

>  <RI>
2.50021e+07

>  <Rbt.Current_Directory>
/home/itssahil/PROJECTS/Mol_Feturizer/New_Systems/rnas/2l1v

>  <Rbt.Executable>
rbdock ($Id: //depot/dev/client3/rdock/2013.1/src/exe/rbdock.cxx#4 $)

>  <Rbt.Library>
libRbt.so (2013.1, Build901 2013/11/27)

>  <Rbt.Parameter_File>
/export/apps/rDock/src/rDock_2013.1_src/data/scripts/dock_solv.prm

>  <Rbt.Receptor>
prm/pocket_docking_5.prm

>  <SCORE>
-63.5741

>  <SCORE.INTER>
-64.4348

>  <SCORE.INTER.CONST>
1

>  <SCORE.INTER.POLAR>
-6.96943

>  <SCORE.INTER.ROT>
2

>  <SCORE.INTER.SOLV>
18.0622

>  <SCORE.INTER.VDW>
-30.6792

>  <SCORE.INTER.norm>
-4.95652

>  <SCORE.INTRA>
0.841771

>  <SCORE.INTRA.DIHEDRAL>
0.068274

>  <SCORE.INTRA.DIHEDRAL.0>
1.43995

>  <SCORE.INTRA.POLAR>
0.239892

>  <SCORE.INTRA.POLAR.0>
-0.272593

>  <SCORE.INTRA.REPUL>
0

>  <SCORE.INTRA.REPUL.0>
0

>  <SCORE.INTRA.SOLV>
-0.0392458

>  <SCORE.INTRA.SOLV.lig_0>
-22.6728

>  <SCORE.INTRA.VDW>
0.0116227

>  <SCORE.INTRA.VDW.0>
-0.754459

>  <SCORE.INTRA.norm>
0.0647516

>  <SCORE.RESTR>
0.0189422

>  <SCORE.RESTR.CAVITY>
0.0189422

>  <SCORE.RESTR.norm>
0.00145709

>  <SCORE.SYSTEM>
0

>  <SCORE.SYSTEM.CONST>
0

>  <SCORE.SYSTEM.DIHEDRAL>
0

>  <SCORE.SYSTEM.SOLV>
0

>  <SCORE.SYSTEM.norm>
0

>  <SCORE.heavy>
13

>  <SCORE.norm>
-4.89031

>  <RMSD>
0.491

$$$$
lig.pdb
 OpenBabel11021811453D
libRbt.so/2013.1/901 2013/11/27
 13 14  0  0  0  0  0  0  0  0999 V2000
    2.2777    3.4686   -4.2433 N   0  0  0  0  0  0  0  0  0  0  0  0
    3.5289    2.9076   -4.3218 C   0  0  0  0  0  0  0  0  0  0  0  0
    3.8203    1.8203   -3.6163 N   0  0  0  0  0  0  0  0  0  0  0  0
    2.8949    1.2279   -2.7996 C   0  0  0  0  0  0  0  0  0  0  0  0
    1.5938    1.7798   -2.6822 C   0  0  0  0  0  0  0  0  0  0  0  0
    1.2971    2.9431   -3.4480 C   0  0  0  0  0  0  0  0  0  0  0  0
    0.1974    3.4640   -3.4021 O   0  0  0  0  0  0  0  0  0  0  0  0
    0.8687    0.9461   -1.7236 C   0  0  0  0  0  0  0  0  0  0  0  0
   -0.5319    1.1585   -1.2162 C   0  0  0  0  0  0  0  0  0  0  0  0
   -1.4747    1.1239   -2.3429 N   0  0  0  0  0  0  0  0  0  0  0  0
    1.7135   -0.0302   -1.3682 C   0  0  0  0  0  0  0  0  0  0  0  0
    2.9205    0.1353   -1.9940 N   0  0  0  0  0  0  0  0  0  0  0  0
    4.4768    3.4669   -5.1378 N   0  0  0  0  0  0  0  0  0  0  0  0
  1  6  1  0  0  0  0
  2  1  1  0  0  0  0
  2  3  2  0  0  0  0
  3  4  1  0  0  0  0
  4  5  2  0  0  0  0
  4 12  1  0  0  0  0
  5  8  1  0  0  0  0
  6  7  2  0  0  0  0
  6  5  1  0  0  0  0
  8 11  2  0  0  0  0
  8  9  1  0  0  0  0
 10  9  1  0  0  0  0
 12 11  1  0  0  0  0
 13  2  1  0  0  0  0
M  END
>  <CHROM.1>
60.29532361,91.70773603,1.78922649,1.91302432,-2.98648078,0.67794522,0.21781997
-0.65828833

>  <Name>
lig.pdb

>  <RI>
9.54411e+06

>  <Rbt.Current_Directory>
/home/itssahil/PROJECTS/Mol_Feturizer/New_Systems/rnas/2l1v

>  <Rbt.Executable>
rbdock ($Id: //depot/dev/client3/rdock/2013.1/src/exe/rbdock.cxx#4 $)

>  <Rbt.Library>
libRbt.so (2013.1, Build901 2013/11/27)

>  <Rbt.Parameter_File>
/export/apps/rDock/src/rDock_2013.1_src/data/scripts/dock_solv.prm

>  <Rbt.Receptor>
prm/pocket_docking_6.prm

>  <SCORE>
-63.8052

>  <SCORE.INTER>
-64.555

>  <SCORE.INTER.CONST>
1

>  <SCORE.INTER.POLAR>
-6.94319

>  <SCORE.INTER.ROT>
2

>  <SCORE.INTER.SOLV>
18.0437

>  <SCORE.INTER.VDW>
-30.8406

>  <SCORE.INTER.norm>
-4.96577

>  <SCORE.INTRA>
0.725711

>  <SCORE.INTRA.DIHEDRAL>
-0.0642458

>  <SCORE.INTRA.DIHEDRAL.0>
1.43995

>  <SCORE.INTRA.POLAR>
0.227114

>  <SCORE.INTRA.POLAR.0>
-0.272593

>  <SCORE.INTRA.REPUL>
0

>  <SCORE.INTRA.REPUL.0>
0

>  <SCORE.INTRA.SOLV>
-0.0405842

>  <SCORE.INTRA.SOLV.lig_0>
-22.6728

>  <SCORE.INTRA.VDW>
0.00593986

>  <SCORE.INTRA.VDW.0>
-0.754459

>  <SCORE.INTRA.norm>
0.0558239

>  <SCORE.RESTR>
0.0240823

>  <SCORE.RESTR.CAVITY>
0.0240823

>  <SCORE.RESTR.norm>
0.00185248

>  <SCORE.SYSTEM>
0

>  <SCORE.SYSTEM.CONST>
0

>  <SCORE.SYSTEM.DIHEDRAL>
0

>  <SCORE.SYSTEM.SOLV>
0

>  <SCORE.SYSTEM.norm>
0

>  <SCORE.heavy>
13

>  <SCORE.norm>
-4.9081

>  <RMSD>
0.491

$$$$
lig.pdb
 OpenBabel11021811453D
libRbt.so/2013.1/901 2013/11/27
 13 14  0  0  0  0  0  0  0  0999 V2000
    2.2800    3.4608   -4.2434 N   0  0  0  0  0  0  0  0  0  0  0  0
    3.5340    2.9045   -4.3088 C   0  0  0  0  0  0  0  0  0  0  0  0
    3.8218    1.8175   -3.6012 N   0  0  0  0  0  0  0  0  0  0  0  0
    2.8896    1.2208   -2.7953 C   0  0  0  0  0  0  0  0  0  0  0  0
    1.5853    1.7678   -2.6916 C   0  0  0  0  0  0  0  0  0  0  0  0
    1.2927    2.9308   -3.4594 C   0  0  0  0  0  0  0  0  0  0  0  0
    0.1907    3.4477   -3.4250 O   0  0  0  0  0  0  0  0  0  0  0  0
    0.8528    0.9304   -1.7419 C   0  0  0  0  0  0  0  0  0  0  0  0
   -0.5541    1.1371   -1.2496 C   0  0  0  0  0  0  0  0  0  0  0  0
   -1.4813    1.1279   -2.3896 N   0  0  0  0  0  0  0  0  0  0  0  0
    1.6972   -0.0431   -1.3782 C   0  0  0  0  0  0  0  0  0  0  0  0
    2.9104    0.1275   -1.9907 N   0  0  0  0  0  0  0  0  0  0  0  0
    4.4887    3.4682   -5.1138 N   0  0  0  0  0  0  0  0  0  0  0  0
  1  6  1  0  0  0  0
  2  1  1  0  0  0  0
  2  3  2  0  0  0  0
  3  4  1  0  0  0  0
  4  5  2  0  0  0  0
  4 12  1  0  0  0  0
  5  8  1  0  0  0  0
  6  7  2  0  0  0  0
  6  5  1  0  0  0  0
  8 11  2  0  0  0  0
  8  9  1  0  0  0  0
 10  9  1  0  0  0  0
 12 11  1  0  0  0  0
 13  2  1  0  0  0  0
M  END
>  <CHROM.1>
59.13702167,-89.06381763,1.78353957,1.90475346,-2.99367541,0.67226567,0.20818099
-0.65694734

>  <Name>
lig.pdb

>  <RI>
9.54411e+06

>  <Rbt.Current_Directory>
/home/itssahil/PROJECTS/Mol_Feturizer/New_Systems/rnas/2l1v

>  <Rbt.Executable>
rbdock ($Id: //depot/dev/client3/rdock/2013.1/src/exe/rbdock.cxx#4 $)

>  <Rbt.Library>
libRbt.so (2013.1, Build901 2013/11/27)

>  <Rbt.Parameter_File>
/export/apps/rDock/src/rDock_2013.1_src/data/scripts/dock_solv.prm

>  <Rbt.Receptor>
prm/pocket_docking_6.prm

>  <SCORE>
-63.5159

>  <SCORE.INTER>
-64.316

>  <SCORE.INTER.CONST>
1

>  <SCORE.INTER.POLAR>
-6.9736

>  <SCORE.INTER.ROT>
2

>  <SCORE.INTER.SOLV>
18.0848

>  <SCORE.INTER.VDW>
-30.5936

>  <SCORE.INTER.norm>
-4.94739

>  <SCORE.INTRA>
0.795975

>  <SCORE.INTRA.DIHEDRAL>
0.0713264

>  <SCORE.INTRA.DIHEDRAL.0>
1.43995

>  <SCORE.INTRA.POLAR>
0.225272

>  <SCORE.INTRA.POLAR.0>
-0.272593

>  <SCORE.INTRA.REPUL>
0

>  <SCORE.INTRA.REPUL.0>
0

>  <SCORE.INTRA.SOLV>
-0.0327155

>  <SCORE.INTRA.SOLV.lig_0>
-22.6728

>  <SCORE.INTRA.VDW>
0.0107459

>  <SCORE.INTRA.VDW.0>
-0.754459

>  <SCORE.INTRA.norm>
0.0612288

>  <SCORE.RESTR>
0.00414569

>  <SCORE.RESTR.CAVITY>
0.00414569

>  <SCORE.RESTR.norm>
0.000318899

>  <SCORE.SYSTEM>
0

>  <SCORE.SYSTEM.CONST>
0

>  <SCORE.SYSTEM.DIHEDRAL>
0

>  <SCORE.SYSTEM.SOLV>
0

>  <SCORE.SYSTEM.norm>
0

>  <SCORE.heavy>
13

>  <SCORE.norm>
-4.88584

>  <RMSD>
0.491

$$$$
lig.pdb
 OpenBabel11021811453D
libRbt.so/2013.1/901 2013/11/27
 13 14  0  0  0  0  0  0  0  0999 V2000
    2.2769    3.4673   -4.2355 N   0  0  0  0  0  0  0  0  0  0  0  0
    3.5213    2.8919   -4.3179 C   0  0  0  0  0  0  0  0  0  0  0  0
    3.7986    1.7944   -3.6225 N   0  0  0  0  0  0  0  0  0  0  0  0
    2.8649    1.2054   -2.8127 C   0  0  0  0  0  0  0  0  0  0  0  0
    1.5705    1.7720   -2.6916 C   0  0  0  0  0  0  0  0  0  0  0  0
    1.2889    2.9461   -3.4464 C   0  0  0  0  0  0  0  0  0  0  0  0
    0.1956    3.4799   -3.3969 O   0  0  0  0  0  0  0  0  0  0  0  0
    0.8340    0.9379   -1.7420 C   0  0  0  0  0  0  0  0  0  0  0  0
   -0.5646    1.1624   -1.2342 C   0  0  0  0  0  0  0  0  0  0  0  0
   -1.5102    1.1161   -2.3582 N   0  0  0  0  0  0  0  0  0  0  0  0
    1.6664   -0.0520   -1.3950 C   0  0  0  0  0  0  0  0  0  0  0  0
    2.8761    0.1049   -2.0177 N   0  0  0  0  0  0  0  0  0  0  0  0
    4.4770    3.4475   -5.1273 N   0  0  0  0  0  0  0  0  0  0  0  0
  1  6  1  0  0  0  0
  2  1  1  0  0  0  0
  2  3  2  0  0  0  0
  3  4  1  0  0  0  0
  4  5  2  0  0  0  0
  4 12  1  0  0  0  0
  5  8  1  0  0  0  0
  6  7  2  0  0  0  0
  6  5  1  0  0  0  0
  8 11  2  0  0  0  0
  8  9  1  0  0  0  0
 10  9  1  0  0  0  0
 12 11  1  0  0  0  0
 13  2  1  0  0  0  0
M  END
>  <CHROM.1>
61.72321090,-90.79933917,1.76723167,1.90262051,-2.99371219,0.66860582,0.22294300
-0.64545368

>  <Name>
lig.pdb

>  <RI>
2.7104e+07

>  <Rbt.Current_Directory>
/home/itssahil/PROJECTS/Mol_Feturizer/New_Systems/rnas/2l1v

>  <Rbt.Executable>
rbdock ($Id: //depot/dev/client3/rdock/2013.1/src/exe/rbdock.cxx#4 $)

>  <Rbt.Library>
libRbt.so (2013.1, Build901 2013/11/27)

>  <Rbt.Parameter_File>
/export/apps/rDock/src/rDock_2013.1_src/data/scripts/dock_solv.prm

>  <Rbt.Receptor>
prm/pocket_docking_8.prm

>  <SCORE>
-63.4732

>  <SCORE.INTER>
-64.4307

>  <SCORE.INTER.CONST>
1

>  <SCORE.INTER.POLAR>
-6.9076

>  <SCORE.INTER.ROT>
2

>  <SCORE.INTER.SOLV>
18.1594

>  <SCORE.INTER.VDW>
-30.915

>  <SCORE.INTER.norm>
-4.95621

>  <SCORE.INTRA>
0.948902

>  <SCORE.INTRA.DIHEDRAL>
0.0681255

>  <SCORE.INTRA.DIHEDRAL.0>
1.43995

>  <SCORE.INTRA.POLAR>
0.272593

>  <SCORE.INTRA.POLAR.0>
-0.272593

>  <SCORE.INTRA.REPUL>
0

>  <SCORE.INTRA.REPUL.0>
0

>  <SCORE.INTRA.SOLV>
-0.0576034

>  <SCORE.INTRA.SOLV.lig_0>
-22.6728

>  <SCORE.INTRA.VDW>
0.0168255

>  <SCORE.INTRA.VDW.0>
-0.754459

>  <SCORE.INTRA.norm>
0.0729924

>  <SCORE.RESTR>
0.0086595

>  <SCORE.RESTR.CAVITY>
0.0086595

>  <SCORE.RESTR.norm>
0.000666115

>  <SCORE.SYSTEM>
0

>  <SCORE.SYSTEM.CONST>
0

>  <SCORE.SYSTEM.DIHEDRAL>
0

>  <SCORE.SYSTEM.SOLV>
0

>  <SCORE.SYSTEM.norm>
0

>  <SCORE.heavy>
13

>  <SCORE.norm>
-4.88255

>  <RMSD>
0.491

$$$$
lig.pdb
 OpenBabel11021811453D
libRbt.so/2013.1/901 2013/11/27
 13 14  0  0  0  0  0  0  0  0999 V2000
    2.2687    3.4507   -4.2380 N   0  0  0  0  0  0  0  0  0  0  0  0
    3.5071    2.8628   -4.3221 C   0  0  0  0  0  0  0  0  0  0  0  0
    3.7732    1.7607   -3.6294 N   0  0  0  0  0  0  0  0  0  0  0  0
    2.8336    1.1794   -2.8210 C   0  0  0  0  0  0  0  0  0  0  0  0
    1.5451    1.7589   -2.6982 C   0  0  0  0  0  0  0  0  0  0  0  0
    1.2755    2.9377   -3.4501 C   0  0  0  0  0  0  0  0  0  0  0  0
    0.1877    3.4826   -3.3991 O   0  0  0  0  0  0  0  0  0  0  0  0
    0.8003    0.9300   -1.7506 C   0  0  0  0  0  0  0  0  0  0  0  0
   -0.5960    1.1676   -1.2421 C   0  0  0  0  0  0  0  0  0  0  0  0
   -1.5429    1.1268   -2.3651 N   0  0  0  0  0  0  0  0  0  0  0  0
    1.6224   -0.0692   -1.4062 C   0  0  0  0  0  0  0  0  0  0  0  0
    2.8337    0.0768   -2.0287 N   0  0  0  0  0  0  0  0  0  0  0  0
    4.4683    3.4106   -5.1302 N   0  0  0  0  0  0  0  0  0  0  0  0
  1  6  1  0  0  0  0
  2  1  1  0  0  0  0
  2  3  2  0  0  0  0
  3  4  1  0  0  0  0
  4  5  2  0  0  0  0
  4 12  1  0  0  0  0
  5  8  1  0  0  0  0
  6  7  2  0  0  0  0
  6  5  1  0  0  0  0
  8 11  2  0  0  0  0
  8  9  1  0  0  0  0
 10  9  1  0  0  0  0
 12 11  1  0  0  0  0
 13  2  1  0  0  0  0
M  END
>  <CHROM.1>
62.01745030,89.94760235,1.74336773,1.88752665,-3.00022041,0.66102203,0.22883415
-0.64099785

>  <Name>
lig.pdb

>  <RI>
2.05237e+07

>  <Rbt.Current_Directory>
/home/itssahil/PROJECTS/Mol_Feturizer/New_Systems/rnas/2l1v

>  <Rbt.Executable>
rbdock ($Id: //depot/dev/client3/rdock/2013.1/src/exe/rbdock.cxx#4 $)

>  <Rbt.Library>
libRbt.so (2013.1, Build901 2013/11/27)

>  <Rbt.Parameter_File>
/export/apps/rDock/src/rDock_2013.1_src/data/scripts/dock_solv.prm

>  <Rbt.Receptor>
prm/blind_docking_100.prm

>  <SCORE>
-63.6194

>  <SCORE.INTER>
-64.4969

>  <SCORE.INTER.CONST>
1

>  <SCORE.INTER.POLAR>
-6.88146

>  <SCORE.INTER.ROT>
2

>  <SCORE.INTER.SOLV>
18.2015

>  <SCORE.INTER.VDW>
-31.0602

>  <SCORE.INTER.norm>
-4.9613

>  <SCORE.INTRA>
0.877325

>  <SCORE.INTRA.DIHEDRAL>
-0.0634472

>  <SCORE.INTRA.DIHEDRAL.0>
1.43995

>  <SCORE.INTRA.POLAR>
0.272593

>  <SCORE.INTRA.POLAR.0>
-0.272593

>  <SCORE.INTRA.REPUL>
0

>  <SCORE.INTRA.REPUL.0>
0

>  <SCORE.INTRA.SOLV>
-0.0574764

>  <SCORE.INTRA.SOLV.lig_0>
-22.6728

>  <SCORE.INTRA.VDW>
0.0109716

>  <SCORE.INTRA.VDW.0>
-0.754459

>  <SCORE.INTRA.norm>
0.0674865

>  <SCORE.RESTR>
0.000138231

>  <SCORE.RESTR.CAVITY>
0.000138231

>  <SCORE.RESTR.norm>
1.06332e-05

>  <SCORE.SYSTEM>
0

>  <SCORE.SYSTEM.CONST>
0

>  <SCORE.SYSTEM.DIHEDRAL>
0

>  <SCORE.SYSTEM.SOLV>
0

>  <SCORE.SYSTEM.norm>
0

>  <SCORE.heavy>
13

>  <SCORE.norm>
-4.8938

>  <RMSD>
0.492

$$$$
lig.pdb
 OpenBabel11021811453D
libRbt.so/2013.1/901 2013/11/27
 13 14  0  0  0  0  0  0  0  0999 V2000
    2.2786    3.4650   -4.2307 N   0  0  0  0  0  0  0  0  0  0  0  0
    3.5243    2.8928   -4.3142 C   0  0  0  0  0  0  0  0  0  0  0  0
    3.8052    1.7964   -3.6183 N   0  0  0  0  0  0  0  0  0  0  0  0
    2.8740    1.2056   -2.8071 C   0  0  0  0  0  0  0  0  0  0  0  0
    1.5783    1.7689   -2.6848 C   0  0  0  0  0  0  0  0  0  0  0  0
    1.2928    2.9418   -3.4402 C   0  0  0  0  0  0  0  0  0  0  0  0
    0.1982    3.4728   -3.3897 O   0  0  0  0  0  0  0  0  0  0  0  0
    0.8450    0.9336   -1.7338 C   0  0  0  0  0  0  0  0  0  0  0  0
   -0.5536    1.1549   -1.2246 C   0  0  0  0  0  0  0  0  0  0  0  0
   -1.4984    1.1229   -2.3497 N   0  0  0  0  0  0  0  0  0  0  0  0
    1.6803   -0.0538   -1.3870 C   0  0  0  0  0  0  0  0  0  0  0  0
    2.8890    0.1057   -2.0113 N   0  0  0  0  0  0  0  0  0  0  0  0
    4.4776    3.4502   -5.1250 N   0  0  0  0  0  0  0  0  0  0  0  0
  1  6  1  0  0  0  0
  2  1  1  0  0  0  0
  2  3  2  0  0  0  0
  3  4  1  0  0  0  0
  4  5  2  0  0  0  0
  4 12  1  0  0  0  0
  5  8  1  0  0  0  0
  6  7  2  0  0  0  0
  6  5  1  0  0  0  0
  8 11  2  0  0  0  0
  8  9  1  0  0  0  0
 10  9  1  0  0  0  0
 12 11  1  0  0  0  0
 13  2  1  0  0  0  0
M  END
>  <CHROM.1>
60.98942965,91.50898632,1.77478482,1.90144599,-2.98772694,0.67091731,0.22287482
-0.64725376

>  <Name>
lig.pdb

>  <RI>
4.17264e+07

>  <Rbt.Current_Directory>
/home/itssahil/PROJECTS/Mol_Feturizer/New_Systems/rnas/2l1v

>  <Rbt.Executable>
rbdock ($Id: //depot/dev/client3/rdock/2013.1/src/exe/rbdock.cxx#4 $)

>  <Rbt.Library>
libRbt.so (2013.1, Build901 2013/11/27)

>  <Rbt.Parameter_File>
/export/apps/rDock/src/rDock_2013.1_src/data/scripts/dock_solv.prm

>  <Rbt.Receptor>
prm/blind_docking_20.prm

>  <SCORE>
-63.8014

>  <SCORE.INTER>
-64.5922

>  <SCORE.INTER.CONST>
1

>  <SCORE.INTER.POLAR>
-6.94168

>  <SCORE.INTER.ROT>
2

>  <SCORE.INTER.SOLV>
18.0927

>  <SCORE.INTER.VDW>
-30.8867

>  <SCORE.INTER.norm>
-4.96863

>  <SCORE.INTRA>
0.783195

>  <SCORE.INTRA.DIHEDRAL>
-0.0648525

>  <SCORE.INTRA.DIHEDRAL.0>
1.43995

>  <SCORE.INTRA.POLAR>
0.244635

>  <SCORE.INTRA.POLAR.0>
-0.272593

>  <SCORE.INTRA.REPUL>
0

>  <SCORE.INTRA.REPUL.0>
0

>  <SCORE.INTRA.SOLV>
-0.0471609

>  <SCORE.INTRA.SOLV.lig_0>
-22.6728

>  <SCORE.INTRA.VDW>
0.00744419

>  <SCORE.INTRA.VDW.0>
-0.754459

>  <SCORE.INTRA.norm>
0.0602458

>  <SCORE.RESTR>
0.00755607

>  <SCORE.RESTR.CAVITY>
0.00755607

>  <SCORE.RESTR.norm>
0.000581237

>  <SCORE.SYSTEM>
0

>  <SCORE.SYSTEM.CONST>
0

>  <SCORE.SYSTEM.DIHEDRAL>
0

>  <SCORE.SYSTEM.SOLV>
0

>  <SCORE.SYSTEM.norm>
0

>  <SCORE.heavy>
13

>  <SCORE.norm>
-4.9078

>  <RMSD>
0.493

$$$$
lig.pdb
 OpenBabel11021811453D
libRbt.so/2013.1/901 2013/11/27
 13 14  0  0  0  0  0  0  0  0999 V2000
    2.2749    3.4643   -4.2470 N   0  0  0  0  0  0  0  0  0  0  0  0
    3.5315    2.9137   -4.3105 C   0  0  0  0  0  0  0  0  0  0  0  0
    3.8248    1.8314   -3.5980 N   0  0  0  0  0  0  0  0  0  0  0  0
    2.8959    1.2340   -2.7888 C   0  0  0  0  0  0  0  0  0  0  0  0
    1.5891    1.7754   -2.6869 C   0  0  0  0  0  0  0  0  0  0  0  0
    1.2905    2.9334   -3.4599 C   0  0  0  0  0  0  0  0  0  0  0  0
    0.1861    3.4452   -3.4273 O   0  0  0  0  0  0  0  0  0  0  0  0
    0.8612    0.9389   -1.7328 C   0  0  0  0  0  0  0  0  0  0  0  0
   -0.5464    1.1413   -1.2407 C   0  0  0  0  0  0  0  0  0  0  0  0
   -1.4738    1.1263   -2.3805 N   0  0  0  0  0  0  0  0  0  0  0  0
    1.7103   -0.0289   -1.3651 C   0  0  0  0  0  0  0  0  0  0  0  0
    2.9224    0.1446   -1.9791 N   0  0  0  0  0  0  0  0  0  0  0  0
    4.4830    3.4781   -5.1187 N   0  0  0  0  0  0  0  0  0  0  0  0
  1  6  1  0  0  0  0
  2  1  1  0  0  0  0
  2  3  2  0  0  0  0
  3  4  1  0  0  0  0
  4  5  2  0  0  0  0
  4 12  1  0  0  0  0
  5  8  1  0  0  0  0
  6  7  2  0  0  0  0
  6  5  1  0  0  0  0
  8 11  2  0  0  0  0
  8  9  1  0  0  0  0
 10  9  1  0  0  0  0
 12 11  1  0  0  0  0
 13  2  1  0  0  0  0
M  END
>  <CHROM.1>
58.97556040,-88.60067842,1.78654314,1.91217391,-2.98971807,0.67626392,0.20590963
-0.66256873

>  <Name>
lig.pdb

>  <RI>
4.17264e+07

>  <Rbt.Current_Directory>
/home/itssahil/PROJECTS/Mol_Feturizer/New_Systems/rnas/2l1v

>  <Rbt.Executable>
rbdock ($Id: //depot/dev/client3/rdock/2013.1/src/exe/rbdock.cxx#4 $)

>  <Rbt.Library>
libRbt.so (2013.1, Build901 2013/11/27)

>  <Rbt.Parameter_File>
/export/apps/rDock/src/rDock_2013.1_src/data/scripts/dock_solv.prm

>  <Rbt.Receptor>
prm/blind_docking_20.prm

>  <SCORE>
-63.5606

>  <SCORE.INTER>
-64.3423

>  <SCORE.INTER.CONST>
1

>  <SCORE.INTER.POLAR>
-6.96639

>  <SCORE.INTER.ROT>
2

>  <SCORE.INTER.SOLV>
18.0579

>  <SCORE.INTER.VDW>
-30.6262

>  <SCORE.INTER.norm>
-4.94941

>  <SCORE.INTRA>
0.768816

>  <SCORE.INTRA.DIHEDRAL>
0.072029

>  <SCORE.INTRA.DIHEDRAL.0>
1.43995

>  <SCORE.INTRA.POLAR>
0.217091

>  <SCORE.INTRA.POLAR.0>
-0.272593

>  <SCORE.INTRA.REPUL>
0

>  <SCORE.INTRA.REPUL.0>
0

>  <SCORE.INTRA.SOLV>
-0.0310109

>  <SCORE.INTRA.SOLV.lig_0>
-22.6728

>  <SCORE.INTRA.VDW>
0.0101959

>  <SCORE.INTRA.VDW.0>
-0.754459

>  <SCORE.INTRA.norm>
0.0591397

>  <SCORE.RESTR>
0.0128998

>  <SCORE.RESTR.CAVITY>
0.0128998

>  <SCORE.RESTR.norm>
0.00099229

>  <SCORE.SYSTEM>
0

>  <SCORE.SYSTEM.CONST>
0

>  <SCORE.SYSTEM.DIHEDRAL>
0

>  <SCORE.SYSTEM.SOLV>
0

>  <SCORE.SYSTEM.norm>
0

>  <SCORE.heavy>
13

>  <SCORE.norm>
-4.88928

>  <RMSD>
0.493

$$$$
lig.pdb
 OpenBabel11021811453D
libRbt.so/2013.1/901 2013/11/27
 13 14  0  0  0  0  0  0  0  0999 V2000
    2.2721    3.4598   -4.2402 N   0  0  0  0  0  0  0  0  0  0  0  0
    3.5234    2.8982   -4.3108 C   0  0  0  0  0  0  0  0  0  0  0  0
    3.8091    1.8094   -3.6051 N   0  0  0  0  0  0  0  0  0  0  0  0
    2.8773    1.2161   -2.7962 C   0  0  0  0  0  0  0  0  0  0  0  0
    1.5759    1.7687   -2.6871 C   0  0  0  0  0  0  0  0  0  0  0  0
    1.2854    2.9336   -3.4529 C   0  0  0  0  0  0  0  0  0  0  0  0
    0.1858    3.4552   -3.4140 O   0  0  0  0  0  0  0  0  0  0  0  0
    0.8433    0.9338   -1.7353 C   0  0  0  0  0  0  0  0  0  0  0  0
   -0.5608    1.1463   -1.2376 C   0  0  0  0  0  0  0  0  0  0  0  0
   -1.4944    1.1235   -2.3722 N   0  0  0  0  0  0  0  0  0  0  0  0
    1.6848   -0.0437   -1.3755 C   0  0  0  0  0  0  0  0  0  0  0  0
    2.8964    0.1221   -1.9924 N   0  0  0  0  0  0  0  0  0  0  0  0
    4.4775    3.4583   -5.1189 N   0  0  0  0  0  0  0  0  0  0  0  0
  1  6  1  0  0  0  0
  2  1  1  0  0  0  0
  2  3  2  0  0  0  0
  3  4  1  0  0  0  0
  4  5  2  0  0  0  0
  4 12  1  0  0  0  0
  5  8  1  0  0  0  0
  6  7  2  0  0  0  0
  6  5  1  0  0  0  0
  8 11  2  0  0  0  0
  8  9  1  0  0  0  0
 10  9  1  0  0  0  0
 12 11  1  0  0  0  0
 13  2  1  0  0  0  0
M  END
>  <CHROM.1>
59.91183943,-89.73719266,1.77333694,1.90329459,-2.98963671,0.67200370,0.21304585
-0.65553406

>  <Name>
lig.pdb

>  <RI>
4.17264e+07

>  <Rbt.Current_Directory>
/home/itssahil/PROJECTS/Mol_Feturizer/New_Systems/rnas/2l1v

>  <Rbt.Executable>
rbdock ($Id: //depot/dev/client3/rdock/2013.1/src/exe/rbdock.cxx#4 $)

>  <Rbt.Library>
libRbt.so (2013.1, Build901 2013/11/27)

>  <Rbt.Parameter_File>
/export/apps/rDock/src/rDock_2013.1_src/data/scripts/dock_solv.prm

>  <Rbt.Receptor>
prm/blind_docking_20.prm

>  <SCORE>
-63.4868

>  <SCORE.INTER>
-64.3619

>  <SCORE.INTER.CONST>
1

>  <SCORE.INTER.POLAR>
-6.93608

>  <SCORE.INTER.ROT>
2

>  <SCORE.INTER.SOLV>
18.0959

>  <SCORE.INTER.VDW>
-30.753

>  <SCORE.INTER.norm>
-4.95092

>  <SCORE.INTRA>
0.870356

>  <SCORE.INTRA.DIHEDRAL>
0.0683507

>  <SCORE.INTRA.DIHEDRAL.0>
1.43995

>  <SCORE.INTRA.POLAR>
0.248209

>  <SCORE.INTRA.POLAR.0>
-0.272593

>  <SCORE.INTRA.REPUL>
0

>  <SCORE.INTRA.REPUL.0>
0

>  <SCORE.INTRA.SOLV>
-0.0401947

>  <SCORE.INTRA.SOLV.lig_0>
-22.6728

>  <SCORE.INTRA.VDW>
0.0123689

>  <SCORE.INTRA.VDW.0>
-0.754459

>  <SCORE.INTRA.norm>
0.0669505

>  <SCORE.RESTR>
0.00477116

>  <SCORE.RESTR.CAVITY>
0.00477116

>  <SCORE.RESTR.norm>
0.000367012

>  <SCORE.SYSTEM>
0

>  <SCORE.SYSTEM.CONST>
0

>  <SCORE.SYSTEM.DIHEDRAL>
0

>  <SCORE.SYSTEM.SOLV>
0

>  <SCORE.SYSTEM.norm>
0

>  <SCORE.heavy>
13

>  <SCORE.norm>
-4.8836

>  <RMSD>
0.493

$$$$
lig.pdb
 OpenBabel11021811453D
libRbt.so/2013.1/901 2013/11/27
 13 14  0  0  0  0  0  0  0  0999 V2000
    2.2775    3.4631   -4.2345 N   0  0  0  0  0  0  0  0  0  0  0  0
    3.5245    2.8936   -4.3158 C   0  0  0  0  0  0  0  0  0  0  0  0
    3.8081    1.8005   -3.6159 N   0  0  0  0  0  0  0  0  0  0  0  0
    2.8783    1.2105   -2.8025 C   0  0  0  0  0  0  0  0  0  0  0  0
    1.5812    1.7711   -2.6823 C   0  0  0  0  0  0  0  0  0  0  0  0
    1.2929    2.9405   -3.4420 C   0  0  0  0  0  0  0  0  0  0  0  0
    0.1971    3.4691   -3.3935 O   0  0  0  0  0  0  0  0  0  0  0  0
    0.8500    0.9376   -1.7281 C   0  0  0  0  0  0  0  0  0  0  0  0
   -0.5491    1.1575   -1.2197 C   0  0  0  0  0  0  0  0  0  0  0  0
   -1.4935    1.1222   -2.3451 N   0  0  0  0  0  0  0  0  0  0  0  0
    1.6876   -0.0465   -1.3777 C   0  0  0  0  0  0  0  0  0  0  0  0
    2.8959    0.1135   -2.0026 N   0  0  0  0  0  0  0  0  0  0  0  0
    4.4765    3.4503   -5.1288 N   0  0  0  0  0  0  0  0  0  0  0  0
  1  6  1  0  0  0  0
  2  1  1  0  0  0  0
  2  3  2  0  0  0  0
  3  4  1  0  0  0  0
  4  5  2  0  0  0  0
  4 12  1  0  0  0  0
  5  8  1  0  0  0  0
  6  7  2  0  0  0  0
  6  5  1  0  0  0  0
  8 11  2  0  0  0  0
  8  9  1  0  0  0  0
 10  9  1  0  0  0  0
 12 11  1  0  0  0  0
 13  2  1  0  0  0  0
M  END
>  <CHROM.1>
60.85633506,91.77649663,1.77745418,1.90327878,-2.98569945,0.67272802,0.22156871
-0.65147647

>  <Name>
lig.pdb

>  <RI>
2.7104e+07

>  <Rbt.Current_Directory>
/home/itssahil/PROJECTS/Mol_Feturizer/New_Systems/rnas/2l1v

>  <Rbt.Executable>
rbdock ($Id: //depot/dev/client3/rdock/2013.1/src/exe/rbdock.cxx#4 $)

>  <Rbt.Library>
libRbt.so (2013.1, Build901 2013/11/27)

>  <Rbt.Parameter_File>
/export/apps/rDock/src/rDock_2013.1_src/data/scripts/dock_solv.prm

>  <Rbt.Receptor>
prm/pocket_docking_8.prm

>  <SCORE>
-63.8164

>  <SCORE.INTER>
-64.5934

>  <SCORE.INTER.CONST>
1

>  <SCORE.INTER.POLAR>
-6.93406

>  <SCORE.INTER.ROT>
2

>  <SCORE.INTER.SOLV>
18.069

>  <SCORE.INTER.VDW>
-30.9051

>  <SCORE.INTER.norm>
-4.96873

>  <SCORE.INTRA>
0.766519

>  <SCORE.INTRA.DIHEDRAL>
-0.0647364

>  <SCORE.INTRA.DIHEDRAL.0>
1.43995

>  <SCORE.INTRA.POLAR>
0.239651

>  <SCORE.INTRA.POLAR.0>
-0.272593

>  <SCORE.INTRA.REPUL>
0

>  <SCORE.INTRA.REPUL.0>
0

>  <SCORE.INTRA.SOLV>
-0.0458066

>  <SCORE.INTRA.SOLV.lig_0>
-22.6728

>  <SCORE.INTRA.VDW>
0.00697714

>  <SCORE.INTRA.VDW.0>
-0.754459

>  <SCORE.INTRA.norm>
0.058963

>  <SCORE.RESTR>
0.0105352

>  <SCORE.RESTR.CAVITY>
0.0105352

>  <SCORE.RESTR.norm>
0.000810399

>  <SCORE.SYSTEM>
0

>  <SCORE.SYSTEM.CONST>
0

>  <SCORE.SYSTEM.DIHEDRAL>
0

>  <SCORE.SYSTEM.SOLV>
0

>  <SCORE.SYSTEM.norm>
0

>  <SCORE.heavy>
13

>  <SCORE.norm>
-4.90895

>  <RMSD>
0.493

$$$$
lig.pdb
 OpenBabel11021811453D
libRbt.so/2013.1/901 2013/11/27
 13 14  0  0  0  0  0  0  0  0999 V2000
    2.2767    3.4614   -4.2336 N   0  0  0  0  0  0  0  0  0  0  0  0
    3.5233    2.8908   -4.3140 C   0  0  0  0  0  0  0  0  0  0  0  0
    3.8048    1.7965   -3.6151 N   0  0  0  0  0  0  0  0  0  0  0  0
    2.8734    1.2065   -2.8035 C   0  0  0  0  0  0  0  0  0  0  0  0
    1.5768    1.7684   -2.6843 C   0  0  0  0  0  0  0  0  0  0  0  0
    1.2906    2.9389   -3.4430 C   0  0  0  0  0  0  0  0  0  0  0  0
    0.1953    3.4686   -3.3952 O   0  0  0  0  0  0  0  0  0  0  0  0
    0.8435    0.9344   -1.7321 C   0  0  0  0  0  0  0  0  0  0  0  0
   -0.5561    1.1551   -1.2252 C   0  0  0  0  0  0  0  0  0  0  0  0
   -1.4987    1.1252   -2.3522 N   0  0  0  0  0  0  0  0  0  0  0  0
    1.6797   -0.0510   -1.3818 C   0  0  0  0  0  0  0  0  0  0  0  0
    2.8889    0.1086   -2.0050 N   0  0  0  0  0  0  0  0  0  0  0  0
    4.4769    3.4475   -5.1251 N   0  0  0  0  0  0  0  0  0  0  0  0
  1  6  1  0  0  0  0
  2  1  1  0  0  0  0
  2  3  2  0  0  0  0
  3  4  1  0  0  0  0
  4  5  2  0  0  0  0
  4 12  1  0  0  0  0
  5  8  1  0  0  0  0
  6  7  2  0  0  0  0
  6  5  1  0  0  0  0
  8 11  2  0  0  0  0
  8  9  1  0  0  0  0
 10  9  1  0  0  0  0
 12 11  1  0  0  0  0
 13  2  1  0  0  0  0
M  END
>  <CHROM.1>
60.73044546,91.36611197,1.77354937,1.90095410,-2.98736644,0.67092762,0.22130548
-0.64996762

>  <Name>
lig.pdb

>  <RI>
2.7104e+07

>  <Rbt.Current_Directory>
/home/itssahil/PROJECTS/Mol_Feturizer/New_Systems/rnas/2l1v

>  <Rbt.Executable>
rbdock ($Id: //depot/dev/client3/rdock/2013.1/src/exe/rbdock.cxx#4 $)

>  <Rbt.Library>
libRbt.so (2013.1, Build901 2013/11/27)

>  <Rbt.Parameter_File>
/export/apps/rDock/src/rDock_2013.1_src/data/scripts/dock_solv.prm

>  <Rbt.Receptor>
prm/pocket_docking_8.prm

>  <SCORE>
-63.8125

>  <SCORE.INTER>
-64.5871

>  <SCORE.INTER.CONST>
1

>  <SCORE.INTER.POLAR>
-6.93938

>  <SCORE.INTER.ROT>
2

>  <SCORE.INTER.SOLV>
18.0861

>  <SCORE.INTER.VDW>
-30.8888

>  <SCORE.INTER.norm>
-4.96824

>  <SCORE.INTRA>
0.76786

>  <SCORE.INTRA.DIHEDRAL>
-0.0648962

>  <SCORE.INTRA.DIHEDRAL.0>
1.43995

>  <SCORE.INTRA.POLAR>
0.239909

>  <SCORE.INTRA.POLAR.0>
-0.272593

>  <SCORE.INTRA.REPUL>
0

>  <SCORE.INTRA.REPUL.0>
0

>  <SCORE.INTRA.SOLV>
-0.04479

>  <SCORE.INTRA.SOLV.lig_0>
-22.6728

>  <SCORE.INTRA.VDW>
0.00701263

>  <SCORE.INTRA.VDW.0>
-0.754459

>  <SCORE.INTRA.norm>
0.0590662

>  <SCORE.RESTR>
0.00678732

>  <SCORE.RESTR.CAVITY>
0.00678732

>  <SCORE.RESTR.norm>
0.000522102

>  <SCORE.SYSTEM>
0

>  <SCORE.SYSTEM.CONST>
0

>  <SCORE.SYSTEM.DIHEDRAL>
0

>  <SCORE.SYSTEM.SOLV>
0

>  <SCORE.SYSTEM.norm>
0

>  <SCORE.heavy>
13

>  <SCORE.norm>
-4.90865

>  <RMSD>
0.493

$$$$
lig.pdb
 OpenBabel11021811453D
libRbt.so/2013.1/901 2013/11/27
 13 14  0  0  0  0  0  0  0  0999 V2000
    2.2973    3.4800   -4.2325 N   0  0  0  0  0  0  0  0  0  0  0  0
    3.5522    2.9262   -4.3013 C   0  0  0  0  0  0  0  0  0  0  0  0
    3.8423    1.8364   -3.5989 N   0  0  0  0  0  0  0  0  0  0  0  0
    2.9118    1.2344   -2.7951 C   0  0  0  0  0  0  0  0  0  0  0  0
    1.6066    1.7787   -2.6879 C   0  0  0  0  0  0  0  0  0  0  0  0
    1.3114    2.9447   -3.4502 C   0  0  0  0  0  0  0  0  0  0  0  0
    0.2086    3.4595   -3.4126 O   0  0  0  0  0  0  0  0  0  0  0  0
    0.8763    0.9357   -1.7415 C   0  0  0  0  0  0  0  0  0  0  0  0
   -0.5306    1.1377   -1.2473 C   0  0  0  0  0  0  0  0  0  0  0  0
   -1.4589    1.1300   -2.3865 N   0  0  0  0  0  0  0  0  0  0  0  0
    1.7226   -0.0380   -1.3829 C   0  0  0  0  0  0  0  0  0  0  0  0
    2.9351    0.1375   -1.9954 N   0  0  0  0  0  0  0  0  0  0  0  0
    4.5054    3.4951   -5.1043 N   0  0  0  0  0  0  0  0  0  0  0  0
  1  6  1  0  0  0  0
  2  1  1  0  0  0  0
  2  3  2  0  0  0  0
  3  4  1  0  0  0  0
  4  5  2  0  0  0  0
  4 12  1  0  0  0  0
  5  8  1  0  0  0  0
  6  7  2  0  0  0  0
  6  5  1  0  0  0  0
  8 11  2  0  0  0  0
  8  9  1  0  0  0  0
 10  9  1  0  0  0  0
 12 11  1  0  0  0  0
 13  2  1  0  0  0  0
M  END
>  <CHROM.1>
59.22973887,-88.88019565,1.80438041,1.91716003,-2.98947621,0.67421812,0.20760424
-0.65270311

>  <Name>
lig.pdb

>  <RI>
9.54411e+06

>  <Rbt.Current_Directory>
/home/itssahil/PROJECTS/Mol_Feturizer/New_Systems/rnas/2l1v

>  <Rbt.Executable>
rbdock ($Id: //depot/dev/client3/rdock/2013.1/src/exe/rbdock.cxx#4 $)

>  <Rbt.Library>
libRbt.so (2013.1, Build901 2013/11/27)

>  <Rbt.Parameter_File>
/export/apps/rDock/src/rDock_2013.1_src/data/scripts/dock_solv.prm

>  <Rbt.Receptor>
prm/pocket_docking_6.prm

>  <SCORE>
-63.5756

>  <SCORE.INTER>
-64.3803

>  <SCORE.INTER.CONST>
1

>  <SCORE.INTER.POLAR>
-7.04396

>  <SCORE.INTER.ROT>
2

>  <SCORE.INTER.SOLV>
18.0665

>  <SCORE.INTER.VDW>
-30.3958

>  <SCORE.INTER.norm>
-4.95233

>  <SCORE.INTRA>
0.796683

>  <SCORE.INTRA.DIHEDRAL>
0.0707817

>  <SCORE.INTRA.DIHEDRAL.0>
1.43995

>  <SCORE.INTRA.POLAR>
0.225681

>  <SCORE.INTRA.POLAR.0>
-0.272593

>  <SCORE.INTRA.REPUL>
0

>  <SCORE.INTRA.REPUL.0>
0

>  <SCORE.INTRA.SOLV>
-0.0334831

>  <SCORE.INTRA.SOLV.lig_0>
-22.6728

>  <SCORE.INTRA.VDW>
0.0107171

>  <SCORE.INTRA.VDW.0>
-0.754459

>  <SCORE.INTRA.norm>
0.0612833

>  <SCORE.RESTR>
0.00804136

>  <SCORE.RESTR.CAVITY>
0.00804136

>  <SCORE.RESTR.norm>
0.000618567

>  <SCORE.SYSTEM>
0

>  <SCORE.SYSTEM.CONST>
0

>  <SCORE.SYSTEM.DIHEDRAL>
0

>  <SCORE.SYSTEM.SOLV>
0

>  <SCORE.SYSTEM.norm>
0

>  <SCORE.heavy>
13

>  <SCORE.norm>
-4.89043

>  <RMSD>
0.495

$$$$
lig.pdb
 OpenBabel11021811453D
libRbt.so/2013.1/901 2013/11/27
 13 14  0  0  0  0  0  0  0  0999 V2000
    2.2737    3.4628   -4.2368 N   0  0  0  0  0  0  0  0  0  0  0  0
    3.5197    2.8908   -4.3160 C   0  0  0  0  0  0  0  0  0  0  0  0
    3.8000    1.7973   -3.6155 N   0  0  0  0  0  0  0  0  0  0  0  0
    2.8678    1.2093   -2.8033 C   0  0  0  0  0  0  0  0  0  0  0  0
    1.5716    1.7726   -2.6853 C   0  0  0  0  0  0  0  0  0  0  0  0
    1.2869    2.9424   -3.4457 C   0  0  0  0  0  0  0  0  0  0  0  0
    0.1920    3.4732   -3.3990 O   0  0  0  0  0  0  0  0  0  0  0  0
    0.8373    0.9407   -1.7321 C   0  0  0  0  0  0  0  0  0  0  0  0
   -0.5622    1.1635   -1.2259 C   0  0  0  0  0  0  0  0  0  0  0  0
   -1.5067    1.1141   -2.3507 N   0  0  0  0  0  0  0  0  0  0  0  0
    1.6724   -0.0450   -1.3802 C   0  0  0  0  0  0  0  0  0  0  0  0
    2.8819    0.1125   -2.0032 N   0  0  0  0  0  0  0  0  0  0  0  0
    4.4741    3.4454   -5.1276 N   0  0  0  0  0  0  0  0  0  0  0  0
  1  6  1  0  0  0  0
  2  1  1  0  0  0  0
  2  3  2  0  0  0  0
  3  4  1  0  0  0  0
  4  5  2  0  0  0  0
  4 12  1  0  0  0  0
  5  8  1  0  0  0  0
  6  7  2  0  0  0  0
  6  5  1  0  0  0  0
  8 11  2  0  0  0  0
  8  9  1  0  0  0  0
 10  9  1  0  0  0  0
 12 11  1  0  0  0  0
 13  2  1  0  0  0  0
M  END
>  <CHROM.1>
61.51952029,-90.57839551,1.76817271,1.90287580,-2.98801976,0.67052438,0.22104818
-0.65067718

>  <Name>
lig.pdb

>  <RI>
2.7104e+07

>  <Rbt.Current_Directory>
/home/itssahil/PROJECTS/Mol_Feturizer/New_Systems/rnas/2l1v

>  <Rbt.Executable>
rbdock ($Id: //depot/dev/client3/rdock/2013.1/src/exe/rbdock.cxx#4 $)

>  <Rbt.Library>
libRbt.so (2013.1, Build901 2013/11/27)

>  <Rbt.Parameter_File>
/export/apps/rDock/src/rDock_2013.1_src/data/scripts/dock_solv.prm

>  <Rbt.Receptor>
prm/pocket_docking_8.prm

>  <SCORE>
-63.4962

>  <SCORE.INTER>
-64.453

>  <SCORE.INTER.CONST>
1

>  <SCORE.INTER.POLAR>
-6.90367

>  <SCORE.INTER.ROT>
2

>  <SCORE.INTER.SOLV>
18.1209

>  <SCORE.INTER.VDW>
-30.9301

>  <SCORE.INTER.norm>
-4.95792

>  <SCORE.INTRA>
0.949028

>  <SCORE.INTRA.DIHEDRAL>
0.0676599

>  <SCORE.INTRA.DIHEDRAL.0>
1.43995

>  <SCORE.INTRA.POLAR>
0.272593

>  <SCORE.INTRA.POLAR.0>
-0.272593

>  <SCORE.INTRA.REPUL>
0

>  <SCORE.INTRA.REPUL.0>
0

>  <SCORE.INTRA.SOLV>
-0.0555858

>  <SCORE.INTRA.SOLV.lig_0>
-22.6728

>  <SCORE.INTRA.VDW>
0.0161761

>  <SCORE.INTRA.VDW.0>
-0.754459

>  <SCORE.INTRA.norm>
0.0730022

>  <SCORE.RESTR>
0.00780855

>  <SCORE.RESTR.CAVITY>
0.00780855

>  <SCORE.RESTR.norm>
0.000600658

>  <SCORE.SYSTEM>
0

>  <SCORE.SYSTEM.CONST>
0

>  <SCORE.SYSTEM.DIHEDRAL>
0

>  <SCORE.SYSTEM.SOLV>
0

>  <SCORE.SYSTEM.norm>
0

>  <SCORE.heavy>
13

>  <SCORE.norm>
-4.88432

>  <RMSD>
0.495

$$$$
lig.pdb
 OpenBabel11021811453D
libRbt.so/2013.1/901 2013/11/27
 13 14  0  0  0  0  0  0  0  0999 V2000
    2.2736    3.4549   -4.2383 N   0  0  0  0  0  0  0  0  0  0  0  0
    3.5190    2.8814   -4.3172 C   0  0  0  0  0  0  0  0  0  0  0  0
    3.7984    1.7888   -3.6149 N   0  0  0  0  0  0  0  0  0  0  0  0
    2.8660    1.2033   -2.8012 C   0  0  0  0  0  0  0  0  0  0  0  0
    1.5705    1.7682   -2.6834 C   0  0  0  0  0  0  0  0  0  0  0  0
    1.2866    2.9370   -3.4457 C   0  0  0  0  0  0  0  0  0  0  0  0
    0.1924    3.4691   -3.3994 O   0  0  0  0  0  0  0  0  0  0  0  0
    0.8358    0.9389   -1.7284 C   0  0  0  0  0  0  0  0  0  0  0  0
   -0.5632    1.1640   -1.2218 C   0  0  0  0  0  0  0  0  0  0  0  0
   -1.5075    1.1209   -2.3469 N   0  0  0  0  0  0  0  0  0  0  0  0
    1.6700   -0.0472   -1.3752 C   0  0  0  0  0  0  0  0  0  0  0  0
    2.8794    0.1079   -1.9992 N   0  0  0  0  0  0  0  0  0  0  0  0
    4.4735    3.4335   -5.1303 N   0  0  0  0  0  0  0  0  0  0  0  0
  1  6  1  0  0  0  0
  2  1  1  0  0  0  0
  2  3  2  0  0  0  0
  3  4  1  0  0  0  0
  4  5  2  0  0  0  0
  4 12  1  0  0  0  0
  5  8  1  0  0  0  0
  6  7  2  0  0  0  0
  6  5  1  0  0  0  0
  8 11  2  0  0  0  0
  8  9  1  0  0  0  0
 10  9  1  0  0  0  0
 12 11  1  0  0  0  0
 13  2  1  0  0  0  0
M  END
>  <CHROM.1>
61.21557180,91.23548285,1.76739319,1.89836219,-2.98681303,0.67000979,0.22231998
-0.65255470

>  <Name>
lig.pdb

>  <RI>
2.7104e+07

>  <Rbt.Current_Directory>
/home/itssahil/PROJECTS/Mol_Feturizer/New_Systems/rnas/2l1v

>  <Rbt.Executable>
rbdock ($Id: //depot/dev/client3/rdock/2013.1/src/exe/rbdock.cxx#4 $)

>  <Rbt.Library>
libRbt.so (2013.1, Build901 2013/11/27)

>  <Rbt.Parameter_File>
/export/apps/rDock/src/rDock_2013.1_src/data/scripts/dock_solv.prm

>  <Rbt.Receptor>
prm/pocket_docking_8.prm

>  <SCORE>
-63.7641

>  <SCORE.INTER>
-64.5775

>  <SCORE.INTER.CONST>
1

>  <SCORE.INTER.POLAR>
-6.92048

>  <SCORE.INTER.ROT>
2

>  <SCORE.INTER.SOLV>
18.0855

>  <SCORE.INTER.VDW>
-30.9452

>  <SCORE.INTER.norm>
-4.9675

>  <SCORE.INTRA>
0.806357

>  <SCORE.INTRA.DIHEDRAL>
-0.0648257

>  <SCORE.INTRA.DIHEDRAL.0>
1.43995

>  <SCORE.INTRA.POLAR>
0.25157

>  <SCORE.INTRA.POLAR.0>
-0.272593

>  <SCORE.INTRA.REPUL>
0

>  <SCORE.INTRA.REPUL.0>
0

>  <SCORE.INTRA.SOLV>
-0.0493941

>  <SCORE.INTRA.SOLV.lig_0>
-22.6728

>  <SCORE.INTRA.VDW>
0.00812878

>  <SCORE.INTRA.VDW.0>
-0.754459

>  <SCORE.INTRA.norm>
0.0620274

>  <SCORE.RESTR>
0.00701306

>  <SCORE.RESTR.CAVITY>
0.00701306

>  <SCORE.RESTR.norm>
0.000539466

>  <SCORE.SYSTEM>
0

>  <SCORE.SYSTEM.CONST>
0

>  <SCORE.SYSTEM.DIHEDRAL>
0

>  <SCORE.SYSTEM.SOLV>
0

>  <SCORE.SYSTEM.norm>
0

>  <SCORE.heavy>
13

>  <SCORE.norm>
-4.90493

>  <RMSD>
0.495

$$$$
lig.pdb
 OpenBabel11021811453D
libRbt.so/2013.1/901 2013/11/27
 13 14  0  0  0  0  0  0  0  0999 V2000
    2.2733    3.4469   -4.2477 N   0  0  0  0  0  0  0  0  0  0  0  0
    3.5220    2.8799   -4.3207 C   0  0  0  0  0  0  0  0  0  0  0  0
    3.8074    1.7955   -3.6082 N   0  0  0  0  0  0  0  0  0  0  0  0
    2.8779    1.2120   -2.7897 C   0  0  0  0  0  0  0  0  0  0  0  0
    1.5791    1.7705   -2.6778 C   0  0  0  0  0  0  0  0  0  0  0  0
    1.2889    2.9306   -3.4510 C   0  0  0  0  0  0  0  0  0  0  0  0
    0.1916    3.4567   -3.4100 O   0  0  0  0  0  0  0  0  0  0  0  0
    0.8486    0.9457   -1.7156 C   0  0  0  0  0  0  0  0  0  0  0  0
   -0.5519    1.1674   -1.2119 C   0  0  0  0  0  0  0  0  0  0  0  0
   -1.4940    1.1198   -2.3387 N   0  0  0  0  0  0  0  0  0  0  0  0
    1.6884   -0.0323   -1.3530 C   0  0  0  0  0  0  0  0  0  0  0  0
    2.8972    0.1241   -1.9777 N   0  0  0  0  0  0  0  0  0  0  0  0
    4.4738    3.4302   -5.1383 N   0  0  0  0  0  0  0  0  0  0  0  0
  1  6  1  0  0  0  0
  2  1  1  0  0  0  0
  2  3  2  0  0  0  0
  3  4  1  0  0  0  0
  4  5  2  0  0  0  0
  4 12  1  0  0  0  0
  5  8  1  0  0  0  0
  6  7  2  0  0  0  0
  6  5  1  0  0  0  0
  8 11  2  0  0  0  0
  8  9  1  0  0  0  0
 10  9  1  0  0  0  0
 12 11  1  0  0  0  0
 13  2  1  0  0  0  0
M  END
>  <CHROM.1>
60.74009906,91.84229877,1.77554397,1.90004673,-2.98243356,0.67377877,0.21876936
-0.66292690

>  <Name>
lig.pdb

>  <RI>
2.05237e+07

>  <Rbt.Current_Directory>
/home/itssahil/PROJECTS/Mol_Feturizer/New_Systems/rnas/2l1v

>  <Rbt.Executable>
rbdock ($Id: //depot/dev/client3/rdock/2013.1/src/exe/rbdock.cxx#4 $)

>  <Rbt.Library>
libRbt.so (2013.1, Build901 2013/11/27)

>  <Rbt.Parameter_File>
/export/apps/rDock/src/rDock_2013.1_src/data/scripts/dock_solv.prm

>  <Rbt.Receptor>
prm/blind_docking_100.prm

>  <SCORE>
-63.7729

>  <SCORE.INTER>
-64.5421

>  <SCORE.INTER.CONST>
1

>  <SCORE.INTER.POLAR>
-6.91641

>  <SCORE.INTER.ROT>
2

>  <SCORE.INTER.SOLV>
18.0234

>  <SCORE.INTER.VDW>
-30.9145

>  <SCORE.INTER.norm>
-4.96478

>  <SCORE.INTRA>
0.756093

>  <SCORE.INTRA.DIHEDRAL>
-0.0646713

>  <SCORE.INTRA.DIHEDRAL.0>
1.43995

>  <SCORE.INTRA.POLAR>
0.236494

>  <SCORE.INTRA.POLAR.0>
-0.272593

>  <SCORE.INTRA.REPUL>
0

>  <SCORE.INTRA.REPUL.0>
0

>  <SCORE.INTRA.SOLV>
-0.044691

>  <SCORE.INTRA.SOLV.lig_0>
-22.6728

>  <SCORE.INTRA.VDW>
0.00669452

>  <SCORE.INTRA.VDW.0>
-0.754459

>  <SCORE.INTRA.norm>
0.058161

>  <SCORE.RESTR>
0.0131396

>  <SCORE.RESTR.CAVITY>
0.0131396

>  <SCORE.RESTR.norm>
0.00101074

>  <SCORE.SYSTEM>
0

>  <SCORE.SYSTEM.CONST>
0

>  <SCORE.SYSTEM.DIHEDRAL>
0

>  <SCORE.SYSTEM.SOLV>
0

>  <SCORE.SYSTEM.norm>
0

>  <SCORE.heavy>
13

>  <SCORE.norm>
-4.90561

>  <RMSD>
0.496

$$$$
lig.pdb
 OpenBabel11021811453D
libRbt.so/2013.1/901 2013/11/27
 13 14  0  0  0  0  0  0  0  0999 V2000
    2.2738    3.4621   -4.2338 N   0  0  0  0  0  0  0  0  0  0  0  0
    3.5199    2.8903   -4.3152 C   0  0  0  0  0  0  0  0  0  0  0  0
    3.8017    1.7971   -3.6149 N   0  0  0  0  0  0  0  0  0  0  0  0
    2.8711    1.2090   -2.8009 C   0  0  0  0  0  0  0  0  0  0  0  0
    1.5751    1.7720   -2.6806 C   0  0  0  0  0  0  0  0  0  0  0  0
    1.2886    2.9416   -3.4407 C   0  0  0  0  0  0  0  0  0  0  0  0
    0.1937    3.4721   -3.3921 O   0  0  0  0  0  0  0  0  0  0  0  0
    0.8427    0.9402   -1.7259 C   0  0  0  0  0  0  0  0  0  0  0  0
   -0.5559    1.1627   -1.2172 C   0  0  0  0  0  0  0  0  0  0  0  0
   -1.5028    1.1097   -2.3398 N   0  0  0  0  0  0  0  0  0  0  0  0
    1.6787   -0.0453   -1.3753 C   0  0  0  0  0  0  0  0  0  0  0  0
    2.8871    0.1124   -2.0006 N   0  0  0  0  0  0  0  0  0  0  0  0
    4.4726    3.4450   -5.1287 N   0  0  0  0  0  0  0  0  0  0  0  0
  1  6  1  0  0  0  0
  2  1  1  0  0  0  0
  2  3  2  0  0  0  0
  3  4  1  0  0  0  0
  4  5  2  0  0  0  0
  4 12  1  0  0  0  0
  5  8  1  0  0  0  0
  6  7  2  0  0  0  0
  6  5  1  0  0  0  0
  8 11  2  0  0  0  0
  8  9  1  0  0  0  0
 10  9  1  0  0  0  0
 12 11  1  0  0  0  0
 13  2  1  0  0  0  0
M  END
>  <CHROM.1>
61.65044060,-90.44410965,1.77099406,1.90200966,-2.98369461,0.67204488,0.22223636
-0.65112788

>  <Name>
lig.pdb

>  <RI>
4.17264e+07

>  <Rbt.Current_Directory>
/home/itssahil/PROJECTS/Mol_Feturizer/New_Systems/rnas/2l1v

>  <Rbt.Executable>
rbdock ($Id: //depot/dev/client3/rdock/2013.1/src/exe/rbdock.cxx#4 $)

>  <Rbt.Library>
libRbt.so (2013.1, Build901 2013/11/27)

>  <Rbt.Parameter_File>
/export/apps/rDock/src/rDock_2013.1_src/data/scripts/dock_solv.prm

>  <Rbt.Receptor>
prm/blind_docking_20.prm

>  <SCORE>
-63.4762

>  <SCORE.INTER>
-64.4333

>  <SCORE.INTER.CONST>
1

>  <SCORE.INTER.POLAR>
-6.89886

>  <SCORE.INTER.ROT>
2

>  <SCORE.INTER.SOLV>
18.0953

>  <SCORE.INTER.VDW>
-30.9244

>  <SCORE.INTER.norm>
-4.95641

>  <SCORE.INTRA>
0.948772

>  <SCORE.INTRA.DIHEDRAL>
0.0679221

>  <SCORE.INTRA.DIHEDRAL.0>
1.43995

>  <SCORE.INTRA.POLAR>
0.272593

>  <SCORE.INTRA.POLAR.0>
-0.272593

>  <SCORE.INTRA.REPUL>
0

>  <SCORE.INTRA.REPUL.0>
0

>  <SCORE.INTRA.SOLV>
-0.0567503

>  <SCORE.INTRA.SOLV.lig_0>
-22.6728

>  <SCORE.INTRA.VDW>
0.0163708

>  <SCORE.INTRA.VDW.0>
-0.754459

>  <SCORE.INTRA.norm>
0.0729824

>  <SCORE.RESTR>
0.00825874

>  <SCORE.RESTR.CAVITY>
0.00825874

>  <SCORE.RESTR.norm>
0.000635288

>  <SCORE.SYSTEM>
0

>  <SCORE.SYSTEM.CONST>
0

>  <SCORE.SYSTEM.DIHEDRAL>
0

>  <SCORE.SYSTEM.SOLV>
0

>  <SCORE.SYSTEM.norm>
0

>  <SCORE.heavy>
13

>  <SCORE.norm>
-4.88279

>  <RMSD>
0.496

$$$$
lig.pdb
 OpenBabel11021811453D
libRbt.so/2013.1/901 2013/11/27
 13 14  0  0  0  0  0  0  0  0999 V2000
    2.2731    3.4449   -4.2569 N   0  0  0  0  0  0  0  0  0  0  0  0
    3.5237    2.8817   -4.3262 C   0  0  0  0  0  0  0  0  0  0  0  0
    3.8129    1.8032   -3.6062 N   0  0  0  0  0  0  0  0  0  0  0  0
    2.8855    1.2223   -2.7834 C   0  0  0  0  0  0  0  0  0  0  0  0
    1.5848    1.7771   -2.6753 C   0  0  0  0  0  0  0  0  0  0  0  0
    1.2906    2.9307   -3.4565 C   0  0  0  0  0  0  0  0  0  0  0  0
    0.1914    3.4534   -3.4192 O   0  0  0  0  0  0  0  0  0  0  0  0
    0.8572    0.9566   -1.7073 C   0  0  0  0  0  0  0  0  0  0  0  0
   -0.5440    1.1770   -1.2049 C   0  0  0  0  0  0  0  0  0  0  0  0
   -1.4863    1.1161   -2.3309 N   0  0  0  0  0  0  0  0  0  0  0  0
    1.7003   -0.0159   -1.3379 C   0  0  0  0  0  0  0  0  0  0  0  0
    2.9086    0.1402   -1.9638 N   0  0  0  0  0  0  0  0  0  0  0  0
    4.4736    3.4294   -5.1477 N   0  0  0  0  0  0  0  0  0  0  0  0
  1  6  1  0  0  0  0
  2  1  1  0  0  0  0
  2  3  2  0  0  0  0
  3  4  1  0  0  0  0
  4  5  2  0  0  0  0
  4 12  1  0  0  0  0
  5  8  1  0  0  0  0
  6  7  2  0  0  0  0
  6  5  1  0  0  0  0
  8 11  2  0  0  0  0
  8  9  1  0  0  0  0
 10  9  1  0  0  0  0
 12 11  1  0  0  0  0
 13  2  1  0  0  0  0
M  END
>  <CHROM.1>
60.83279107,91.97390899,1.78070462,1.90500443,-2.98081353,0.67671410,0.21665039
-0.67049025

>  <Name>
lig.pdb

>  <RI>
2.50021e+07

>  <Rbt.Current_Directory>
/home/itssahil/PROJECTS/Mol_Feturizer/New_Systems/rnas/2l1v

>  <Rbt.Executable>
rbdock ($Id: //depot/dev/client3/rdock/2013.1/src/exe/rbdock.cxx#4 $)

>  <Rbt.Library>
libRbt.so (2013.1, Build901 2013/11/27)

>  <Rbt.Parameter_File>
/export/apps/rDock/src/rDock_2013.1_src/data/scripts/dock_solv.prm

>  <Rbt.Receptor>
prm/pocket_docking_5.prm

>  <SCORE>
-63.8102

>  <SCORE.INTER>
-64.5937

>  <SCORE.INTER.CONST>
1

>  <SCORE.INTER.POLAR>
-6.91164

>  <SCORE.INTER.ROT>
2

>  <SCORE.INTER.SOLV>
17.9973

>  <SCORE.INTER.VDW>
-30.9562

>  <SCORE.INTER.norm>
-4.96875

>  <SCORE.INTRA>
0.75967

>  <SCORE.INTRA.DIHEDRAL>
-0.0646287

>  <SCORE.INTRA.DIHEDRAL.0>
1.43995

>  <SCORE.INTRA.POLAR>
0.237632

>  <SCORE.INTRA.POLAR.0>
-0.272593

>  <SCORE.INTRA.REPUL>
0

>  <SCORE.INTRA.REPUL.0>
0

>  <SCORE.INTRA.SOLV>
-0.0455086

>  <SCORE.INTRA.SOLV.lig_0>
-22.6728

>  <SCORE.INTRA.VDW>
0.00679044

>  <SCORE.INTRA.VDW.0>
-0.754459

>  <SCORE.INTRA.norm>
0.0584362

>  <SCORE.RESTR>
0.0238975

>  <SCORE.RESTR.CAVITY>
0.0238975

>  <SCORE.RESTR.norm>
0.00183827

>  <SCORE.SYSTEM>
0

>  <SCORE.SYSTEM.CONST>
0

>  <SCORE.SYSTEM.DIHEDRAL>
0

>  <SCORE.SYSTEM.SOLV>
0

>  <SCORE.SYSTEM.norm>
0

>  <SCORE.heavy>
13

>  <SCORE.norm>
-4.90848

>  <RMSD>
0.496

$$$$
lig.pdb
 OpenBabel11021811453D
libRbt.so/2013.1/901 2013/11/27
 13 14  0  0  0  0  0  0  0  0999 V2000
    2.2749    3.4629   -4.2326 N   0  0  0  0  0  0  0  0  0  0  0  0
    3.5204    2.8901   -4.3145 C   0  0  0  0  0  0  0  0  0  0  0  0
    3.8015    1.7965   -3.6143 N   0  0  0  0  0  0  0  0  0  0  0  0
    2.8707    1.2093   -2.8000 C   0  0  0  0  0  0  0  0  0  0  0  0
    1.5752    1.7734   -2.6793 C   0  0  0  0  0  0  0  0  0  0  0  0
    1.2895    2.9432   -3.4393 C   0  0  0  0  0  0  0  0  0  0  0  0
    0.1950    3.4747   -3.3904 O   0  0  0  0  0  0  0  0  0  0  0  0
    0.8424    0.9422   -1.7244 C   0  0  0  0  0  0  0  0  0  0  0  0
   -0.5559    1.1659   -1.2152 C   0  0  0  0  0  0  0  0  0  0  0  0
   -1.5024    1.1199   -2.3384 N   0  0  0  0  0  0  0  0  0  0  0  0
    1.6776   -0.0440   -1.3741 C   0  0  0  0  0  0  0  0  0  0  0  0
    2.8860    0.1127   -1.9998 N   0  0  0  0  0  0  0  0  0  0  0  0
    4.4734    3.4440   -5.1282 N   0  0  0  0  0  0  0  0  0  0  0  0
  1  6  1  0  0  0  0
  2  1  1  0  0  0  0
  2  3  2  0  0  0  0
  3  4  1  0  0  0  0
  4  5  2  0  0  0  0
  4 12  1  0  0  0  0
  5  8  1  0  0  0  0
  6  7  2  0  0  0  0
  6  5  1  0  0  0  0
  8 11  2  0  0  0  0
  8  9  1  0  0  0  0
 10  9  1  0  0  0  0
 12 11  1  0  0  0  0
 13  2  1  0  0  0  0
M  END
>  <CHROM.1>
61.39127688,91.53428552,1.77144256,1.90372396,-2.98275189,0.67163212,0.22311699
-0.65121128

>  <Name>
lig.pdb

>  <RI>
9.54411e+06

>  <Rbt.Current_Directory>
/home/itssahil/PROJECTS/Mol_Feturizer/New_Systems/rnas/2l1v

>  <Rbt.Executable>
rbdock ($Id: //depot/dev/client3/rdock/2013.1/src/exe/rbdock.cxx#4 $)

>  <Rbt.Library>
libRbt.so (2013.1, Build901 2013/11/27)

>  <Rbt.Parameter_File>
/export/apps/rDock/src/rDock_2013.1_src/data/scripts/dock_solv.prm

>  <Rbt.Receptor>
prm/pocket_docking_6.prm

>  <SCORE>
-63.7988

>  <SCORE.INTER>
-64.6181

>  <SCORE.INTER.CONST>
1

>  <SCORE.INTER.POLAR>
-6.92746

>  <SCORE.INTER.ROT>
2

>  <SCORE.INTER.SOLV>
18.0758

>  <SCORE.INTER.VDW>
-30.9458

>  <SCORE.INTER.norm>
-4.97063

>  <SCORE.INTRA>
0.811497

>  <SCORE.INTRA.DIHEDRAL>
-0.0644729

>  <SCORE.INTRA.DIHEDRAL.0>
1.43995

>  <SCORE.INTRA.POLAR>
0.253202

>  <SCORE.INTRA.POLAR.0>
-0.272593

>  <SCORE.INTRA.REPUL>
0

>  <SCORE.INTRA.REPUL.0>
0

>  <SCORE.INTRA.SOLV>
-0.0509289

>  <SCORE.INTRA.SOLV.lig_0>
-22.6728

>  <SCORE.INTRA.VDW>
0.00830981

>  <SCORE.INTRA.VDW.0>
-0.754459

>  <SCORE.INTRA.norm>
0.0624228

>  <SCORE.RESTR>
0.00780653

>  <SCORE.RESTR.CAVITY>
0.00780653

>  <SCORE.RESTR.norm>
0.000600503

>  <SCORE.SYSTEM>
0

>  <SCORE.SYSTEM.CONST>
0

>  <SCORE.SYSTEM.DIHEDRAL>
0

>  <SCORE.SYSTEM.SOLV>
0

>  <SCORE.SYSTEM.norm>
0

>  <SCORE.heavy>
13

>  <SCORE.norm>
-4.9076

>  <RMSD>
0.497

$$$$
lig.pdb
 OpenBabel11021811453D
libRbt.so/2013.1/901 2013/11/27
 13 14  0  0  0  0  0  0  0  0999 V2000
    2.2785    3.4656   -4.2317 N   0  0  0  0  0  0  0  0  0  0  0  0
    3.5242    2.8929   -4.3121 C   0  0  0  0  0  0  0  0  0  0  0  0
    3.8042    1.7987   -3.6125 N   0  0  0  0  0  0  0  0  0  0  0  0
    2.8721    1.2108   -2.8001 C   0  0  0  0  0  0  0  0  0  0  0  0
    1.5764    1.7748   -2.6809 C   0  0  0  0  0  0  0  0  0  0  0  0
    1.2919    2.9452   -3.4403 C   0  0  0  0  0  0  0  0  0  0  0  0
    0.1974    3.4767   -3.3926 O   0  0  0  0  0  0  0  0  0  0  0  0
    0.8421    0.9427   -1.7278 C   0  0  0  0  0  0  0  0  0  0  0  0
   -0.5569    1.1660   -1.2206 C   0  0  0  0  0  0  0  0  0  0  0  0
   -1.5029    1.1099   -2.3437 N   0  0  0  0  0  0  0  0  0  0  0  0
    1.6769   -0.0438   -1.3771 C   0  0  0  0  0  0  0  0  0  0  0  0
    2.8862    0.1134   -2.0008 N   0  0  0  0  0  0  0  0  0  0  0  0
    4.4784    3.4475   -5.1240 N   0  0  0  0  0  0  0  0  0  0  0  0
  1  6  1  0  0  0  0
  2  1  1  0  0  0  0
  2  3  2  0  0  0  0
  3  4  1  0  0  0  0
  4  5  2  0  0  0  0
  4 12  1  0  0  0  0
  5  8  1  0  0  0  0
  6  7  2  0  0  0  0
  6  5  1  0  0  0  0
  8 11  2  0  0  0  0
  8  9  1  0  0  0  0
 10  9  1  0  0  0  0
 12 11  1  0  0  0  0
 13  2  1  0  0  0  0
M  END
>  <CHROM.1>
61.85647368,-90.36694677,1.77276789,1.90439474,-2.98355827,0.67085563,0.22160337
-0.64980843

>  <Name>
lig.pdb

>  <RI>
2.7104e+07

>  <Rbt.Current_Directory>
/home/itssahil/PROJECTS/Mol_Feturizer/New_Systems/rnas/2l1v

>  <Rbt.Executable>
rbdock ($Id: //depot/dev/client3/rdock/2013.1/src/exe/rbdock.cxx#4 $)

>  <Rbt.Library>
libRbt.so (2013.1, Build901 2013/11/27)

>  <Rbt.Parameter_File>
/export/apps/rDock/src/rDock_2013.1_src/data/scripts/dock_solv.prm

>  <Rbt.Receptor>
prm/pocket_docking_8.prm

>  <SCORE>
-63.4737

>  <SCORE.INTER>
-64.4284

>  <SCORE.INTER.CONST>
1

>  <SCORE.INTER.POLAR>
-6.91602

>  <SCORE.INTER.ROT>
2

>  <SCORE.INTER.SOLV>
18.1032

>  <SCORE.INTER.VDW>
-30.8666

>  <SCORE.INTER.norm>
-4.95603

>  <SCORE.INTRA>
0.948514

>  <SCORE.INTRA.DIHEDRAL>
0.068451

>  <SCORE.INTRA.DIHEDRAL.0>
1.43995

>  <SCORE.INTRA.POLAR>
0.272593

>  <SCORE.INTRA.POLAR.0>
-0.272593

>  <SCORE.INTRA.REPUL>
0

>  <SCORE.INTRA.REPUL.0>
0

>  <SCORE.INTRA.SOLV>
-0.0586499

>  <SCORE.INTRA.SOLV.lig_0>
-22.6728

>  <SCORE.INTRA.VDW>
0.0167981

>  <SCORE.INTRA.VDW.0>
-0.754459

>  <SCORE.INTRA.norm>
0.0729626

>  <SCORE.RESTR>
0.00613617

>  <SCORE.RESTR.CAVITY>
0.00613617

>  <SCORE.RESTR.norm>
0.000472013

>  <SCORE.SYSTEM>
0

>  <SCORE.SYSTEM.CONST>
0

>  <SCORE.SYSTEM.DIHEDRAL>
0

>  <SCORE.SYSTEM.SOLV>
0

>  <SCORE.SYSTEM.norm>
0

>  <SCORE.heavy>
13

>  <SCORE.norm>
-4.88259

>  <RMSD>
0.498

$$$$
lig.pdb
 OpenBabel11021811453D
libRbt.so/2013.1/901 2013/11/27
 13 14  0  0  0  0  0  0  0  0999 V2000
    2.2729    3.4613   -4.2313 N   0  0  0  0  0  0  0  0  0  0  0  0
    3.5173    2.8860   -4.3137 C   0  0  0  0  0  0  0  0  0  0  0  0
    3.7962    1.7913   -3.6144 N   0  0  0  0  0  0  0  0  0  0  0  0
    2.8643    1.2054   -2.8005 C   0  0  0  0  0  0  0  0  0  0  0  0
    1.5699    1.7721   -2.6792 C   0  0  0  0  0  0  0  0  0  0  0  0
    1.2865    2.9430   -3.4382 C   0  0  0  0  0  0  0  0  0  0  0  0
    0.1932    3.4767   -3.3888 O   0  0  0  0  0  0  0  0  0  0  0  0
    0.8355    0.9416   -1.7248 C   0  0  0  0  0  0  0  0  0  0  0  0
   -0.5622    1.1678   -1.2153 C   0  0  0  0  0  0  0  0  0  0  0  0
   -1.5095    1.1200   -2.3377 N   0  0  0  0  0  0  0  0  0  0  0  0
    1.6688   -0.0465   -1.3753 C   0  0  0  0  0  0  0  0  0  0  0  0
    2.8774    0.1081   -2.0010 N   0  0  0  0  0  0  0  0  0  0  0  0
    4.4713    3.4385   -5.1272 N   0  0  0  0  0  0  0  0  0  0  0  0
  1  6  1  0  0  0  0
  2  1  1  0  0  0  0
  2  3  2  0  0  0  0
  3  4  1  0  0  0  0
  4  5  2  0  0  0  0
  4 12  1  0  0  0  0
  5  8  1  0  0  0  0
  6  7  2  0  0  0  0
  6  5  1  0  0  0  0
  8 11  2  0  0  0  0
  8  9  1  0  0  0  0
 10  9  1  0  0  0  0
 12 11  1  0  0  0  0
 13  2  1  0  0  0  0
M  END
>  <CHROM.1>
61.58682351,91.23458219,1.76636453,1.90178612,-2.98246515,0.67026884,0.22428517
-0.64999037

>  <Name>
lig.pdb

>  <RI>
9.54411e+06

>  <Rbt.Current_Directory>
/home/itssahil/PROJECTS/Mol_Feturizer/New_Systems/rnas/2l1v

>  <Rbt.Executable>
rbdock ($Id: //depot/dev/client3/rdock/2013.1/src/exe/rbdock.cxx#4 $)

>  <Rbt.Library>
libRbt.so (2013.1, Build901 2013/11/27)

>  <Rbt.Parameter_File>
/export/apps/rDock/src/rDock_2013.1_src/data/scripts/dock_solv.prm

>  <Rbt.Receptor>
prm/pocket_docking_6.prm

>  <SCORE>
-63.7822

>  <SCORE.INTER>
-64.6197

>  <SCORE.INTER.CONST>
1

>  <SCORE.INTER.POLAR>
-6.92051

>  <SCORE.INTER.ROT>
2

>  <SCORE.INTER.SOLV>
18.0874

>  <SCORE.INTER.VDW>
-30.9739

>  <SCORE.INTER.norm>
-4.97075

>  <SCORE.INTRA>
0.832363

>  <SCORE.INTRA.DIHEDRAL>
-0.0642504

>  <SCORE.INTRA.DIHEDRAL.0>
1.43995

>  <SCORE.INTRA.POLAR>
0.259399

>  <SCORE.INTRA.POLAR.0>
-0.272593

>  <SCORE.INTRA.REPUL>
0

>  <SCORE.INTRA.REPUL.0>
0

>  <SCORE.INTRA.SOLV>
-0.0528893

>  <SCORE.INTRA.SOLV.lig_0>
-22.6728

>  <SCORE.INTRA.VDW>
0.0089774

>  <SCORE.INTRA.VDW.0>
-0.754459

>  <SCORE.INTRA.norm>
0.0640279

>  <SCORE.RESTR>
0.00513425

>  <SCORE.RESTR.CAVITY>
0.00513425

>  <SCORE.RESTR.norm>
0.000394942

>  <SCORE.SYSTEM>
0

>  <SCORE.SYSTEM.CONST>
0

>  <SCORE.SYSTEM.DIHEDRAL>
0

>  <SCORE.SYSTEM.SOLV>
0

>  <SCORE.SYSTEM.norm>
0

>  <SCORE.heavy>
13

>  <SCORE.norm>
-4.90632

>  <RMSD>
0.499

$$$$
lig.pdb
 OpenBabel11021811453D
libRbt.so/2013.1/901 2013/11/27
 13 14  0  0  0  0  0  0  0  0999 V2000
    2.2770    3.4575   -4.2537 N   0  0  0  0  0  0  0  0  0  0  0  0
    3.5337    2.9069   -4.3151 C   0  0  0  0  0  0  0  0  0  0  0  0
    3.8293    1.8317   -3.5928 N   0  0  0  0  0  0  0  0  0  0  0  0
    2.9029    1.2419   -2.7753 C   0  0  0  0  0  0  0  0  0  0  0  0
    1.5961    1.7836   -2.6753 C   0  0  0  0  0  0  0  0  0  0  0  0
    1.2949    2.9338   -3.4589 C   0  0  0  0  0  0  0  0  0  0  0  0
    0.1904    3.4454   -3.4284 O   0  0  0  0  0  0  0  0  0  0  0  0
    0.8710    0.9562   -1.7112 C   0  0  0  0  0  0  0  0  0  0  0  0
   -0.5354    1.1628   -1.2174 C   0  0  0  0  0  0  0  0  0  0  0  0
   -1.4674    1.1199   -2.3527 N   0  0  0  0  0  0  0  0  0  0  0  0
    1.7216   -0.0075   -1.3362 C   0  0  0  0  0  0  0  0  0  0  0  0
    2.9320    0.1605   -1.9550 N   0  0  0  0  0  0  0  0  0  0  0  0
    4.4828    3.4638   -5.1312 N   0  0  0  0  0  0  0  0  0  0  0  0
  1  6  1  0  0  0  0
  2  1  1  0  0  0  0
  2  3  2  0  0  0  0
  3  4  1  0  0  0  0
  4  5  2  0  0  0  0
  4 12  1  0  0  0  0
  5  8  1  0  0  0  0
  6  7  2  0  0  0  0
  6  5  1  0  0  0  0
  8 11  2  0  0  0  0
  8  9  1  0  0  0  0
 10  9  1  0  0  0  0
 12 11  1  0  0  0  0
 13  2  1  0  0  0  0
M  END
>  <CHROM.1>
59.65688791,-88.71794013,1.79250898,1.91601387,-2.97980596,0.67912219,0.20694910
-0.67244874

>  <Name>
lig.pdb

>  <RI>
2.05237e+07

>  <Rbt.Current_Directory>
/home/itssahil/PROJECTS/Mol_Feturizer/New_Systems/rnas/2l1v

>  <Rbt.Executable>
rbdock ($Id: //depot/dev/client3/rdock/2013.1/src/exe/rbdock.cxx#4 $)

>  <Rbt.Library>
libRbt.so (2013.1, Build901 2013/11/27)

>  <Rbt.Parameter_File>
/export/apps/rDock/src/rDock_2013.1_src/data/scripts/dock_solv.prm

>  <Rbt.Receptor>
prm/blind_docking_100.prm

>  <SCORE>
-63.6164

>  <SCORE.INTER>
-64.4597

>  <SCORE.INTER.CONST>
1

>  <SCORE.INTER.POLAR>
-6.96038

>  <SCORE.INTER.ROT>
2

>  <SCORE.INTER.SOLV>
18.0004

>  <SCORE.INTER.VDW>
-30.7053

>  <SCORE.INTER.norm>
-4.95843

>  <SCORE.INTRA>
0.822206

>  <SCORE.INTRA.DIHEDRAL>
0.0688593

>  <SCORE.INTRA.DIHEDRAL.0>
1.43995

>  <SCORE.INTRA.POLAR>
0.233905

>  <SCORE.INTRA.POLAR.0>
-0.272593

>  <SCORE.INTRA.REPUL>
0

>  <SCORE.INTRA.REPUL.0>
0

>  <SCORE.INTRA.SOLV>
-0.0373535

>  <SCORE.INTRA.SOLV.lig_0>
-22.6728

>  <SCORE.INTRA.VDW>
0.0111758

>  <SCORE.INTRA.VDW.0>
-0.754459

>  <SCORE.INTRA.norm>
0.0632466

>  <SCORE.RESTR>
0.0210329

>  <SCORE.RESTR.CAVITY>
0.0210329

>  <SCORE.RESTR.norm>
0.00161792

>  <SCORE.SYSTEM>
0

>  <SCORE.SYSTEM.CONST>
0

>  <SCORE.SYSTEM.DIHEDRAL>
0

>  <SCORE.SYSTEM.SOLV>
0

>  <SCORE.SYSTEM.norm>
0

>  <SCORE.heavy>
13

>  <SCORE.norm>
-4.89357

>  <RMSD>
0.500

$$$$
lig.pdb
 OpenBabel11021811453D
libRbt.so/2013.1/901 2013/11/27
 13 14  0  0  0  0  0  0  0  0999 V2000
    2.2764    3.4645   -4.2486 N   0  0  0  0  0  0  0  0  0  0  0  0
    3.5354    2.9190   -4.3067 C   0  0  0  0  0  0  0  0  0  0  0  0
    3.8322    1.8424   -3.5871 N   0  0  0  0  0  0  0  0  0  0  0  0
    2.9046    1.2460   -2.7757 C   0  0  0  0  0  0  0  0  0  0  0  0
    1.5953    1.7823   -2.6792 C   0  0  0  0  0  0  0  0  0  0  0  0
    1.2930    2.9342   -3.4599 C   0  0  0  0  0  0  0  0  0  0  0  0
    0.1863    3.4414   -3.4322 O   0  0  0  0  0  0  0  0  0  0  0  0
    0.8694    0.9486   -1.7212 C   0  0  0  0  0  0  0  0  0  0  0  0
   -0.5399    1.1479   -1.2327 C   0  0  0  0  0  0  0  0  0  0  0  0
   -1.4649    1.1258   -2.3743 N   0  0  0  0  0  0  0  0  0  0  0  0
    1.7221   -0.0132   -1.3462 C   0  0  0  0  0  0  0  0  0  0  0  0
    2.9344    0.1617   -1.9592 N   0  0  0  0  0  0  0  0  0  0  0  0
    4.4859    3.4825   -5.1168 N   0  0  0  0  0  0  0  0  0  0  0  0
  1  6  1  0  0  0  0
  2  1  1  0  0  0  0
  2  3  2  0  0  0  0
  3  4  1  0  0  0  0
  4  5  2  0  0  0  0
  4 12  1  0  0  0  0
  5  8  1  0  0  0  0
  6  7  2  0  0  0  0
  6  5  1  0  0  0  0
  8 11  2  0  0  0  0
  8  9  1  0  0  0  0
 10  9  1  0  0  0  0
 12 11  1  0  0  0  0
 13  2  1  0  0  0  0
M  END
>  <CHROM.1>
58.81190239,-88.44917331,1.79266700,1.91845924,-2.98265247,0.67849758,0.20210489
-0.66931101

>  <Name>
lig.pdb

>  <RI>
2.50021e+07

>  <Rbt.Current_Directory>
/home/itssahil/PROJECTS/Mol_Feturizer/New_Systems/rnas/2l1v

>  <Rbt.Executable>
rbdock ($Id: //depot/dev/client3/rdock/2013.1/src/exe/rbdock.cxx#4 $)

>  <Rbt.Library>
libRbt.so (2013.1, Build901 2013/11/27)

>  <Rbt.Parameter_File>
/export/apps/rDock/src/rDock_2013.1_src/data/scripts/dock_solv.prm

>  <Rbt.Receptor>
prm/pocket_docking_5.prm

>  <SCORE>
-63.6097

>  <SCORE.INTER>
-64.3739

>  <SCORE.INTER.CONST>
1

>  <SCORE.INTER.POLAR>
-6.98505

>  <SCORE.INTER.ROT>
2

>  <SCORE.INTER.SOLV>
18.0191

>  <SCORE.INTER.VDW>
-30.5721

>  <SCORE.INTER.norm>
-4.95184

>  <SCORE.INTRA>
0.751387

>  <SCORE.INTRA.DIHEDRAL>
0.0729407

>  <SCORE.INTRA.DIHEDRAL.0>
1.43995

>  <SCORE.INTRA.POLAR>
0.211686

>  <SCORE.INTRA.POLAR.0>
-0.272593

>  <SCORE.INTRA.REPUL>
0

>  <SCORE.INTRA.REPUL.0>
0

>  <SCORE.INTRA.SOLV>
-0.0294352

>  <SCORE.INTRA.SOLV.lig_0>
-22.6728

>  <SCORE.INTRA.VDW>
0.00990127

>  <SCORE.INTRA.VDW.0>
-0.754459

>  <SCORE.INTRA.norm>
0.057799

>  <SCORE.RESTR>
0.0128409

>  <SCORE.RESTR.CAVITY>
0.0128409

>  <SCORE.RESTR.norm>
0.000987759

>  <SCORE.SYSTEM>
0

>  <SCORE.SYSTEM.CONST>
0

>  <SCORE.SYSTEM.DIHEDRAL>
0

>  <SCORE.SYSTEM.SOLV>
0

>  <SCORE.SYSTEM.norm>
0

>  <SCORE.heavy>
13

>  <SCORE.norm>
-4.89305

>  <RMSD>
0.500

$$$$
lig.pdb
 OpenBabel11021811453D
libRbt.so/2013.1/901 2013/11/27
 13 14  0  0  0  0  0  0  0  0999 V2000
    2.2737    3.4606   -4.2296 N   0  0  0  0  0  0  0  0  0  0  0  0
    3.5183    2.8858   -4.3112 C   0  0  0  0  0  0  0  0  0  0  0  0
    3.7972    1.7913   -3.6117 N   0  0  0  0  0  0  0  0  0  0  0  0
    2.8649    1.2049   -2.7984 C   0  0  0  0  0  0  0  0  0  0  0  0
    1.5703    1.7710   -2.6780 C   0  0  0  0  0  0  0  0  0  0  0  0
    1.2869    2.9419   -3.4373 C   0  0  0  0  0  0  0  0  0  0  0  0
    0.1933    3.4751   -3.3886 O   0  0  0  0  0  0  0  0  0  0  0  0
    0.8355    0.9402   -1.7242 C   0  0  0  0  0  0  0  0  0  0  0  0
   -0.5627    1.1658   -1.2157 C   0  0  0  0  0  0  0  0  0  0  0  0
   -1.5092    1.1167   -2.3387 N   0  0  0  0  0  0  0  0  0  0  0  0
    1.6690   -0.0476   -1.3742 C   0  0  0  0  0  0  0  0  0  0  0  0
    2.8779    0.1076   -1.9990 N   0  0  0  0  0  0  0  0  0  0  0  0
    4.4726    3.4388   -5.1239 N   0  0  0  0  0  0  0  0  0  0  0  0
  1  6  1  0  0  0  0
  2  1  1  0  0  0  0
  2  3  2  0  0  0  0
  3  4  1  0  0  0  0
  4  5  2  0  0  0  0
  4 12  1  0  0  0  0
  5  8  1  0  0  0  0
  6  7  2  0  0  0  0
  6  5  1  0  0  0  0
  8 11  2  0  0  0  0
  8  9  1  0  0  0  0
 10  9  1  0  0  0  0
 12 11  1  0  0  0  0
 13  2  1  0  0  0  0
M  END
>  <CHROM.1>
61.62299129,91.55401036,1.76685943,1.90071667,-2.98118612,0.67023005,0.22340311
-0.64992174

>  <Name>
lig.pdb

>  <RI>
9.54411e+06

>  <Rbt.Current_Directory>
/home/itssahil/PROJECTS/Mol_Feturizer/New_Systems/rnas/2l1v

>  <Rbt.Executable>
rbdock ($Id: //depot/dev/client3/rdock/2013.1/src/exe/rbdock.cxx#4 $)

>  <Rbt.Library>
libRbt.so (2013.1, Build901 2013/11/27)

>  <Rbt.Parameter_File>
/export/apps/rDock/src/rDock_2013.1_src/data/scripts/dock_solv.prm

>  <Rbt.Receptor>
prm/pocket_docking_6.prm

>  <SCORE>
-63.7574

>  <SCORE.INTER>
-64.5875

>  <SCORE.INTER.CONST>
1

>  <SCORE.INTER.POLAR>
-6.92173

>  <SCORE.INTER.ROT>
2

>  <SCORE.INTER.SOLV>
18.0779

>  <SCORE.INTER.VDW>
-30.9452

>  <SCORE.INTER.norm>
-4.96827

>  <SCORE.INTRA>
0.827327

>  <SCORE.INTRA.DIHEDRAL>
-0.0640304

>  <SCORE.INTRA.DIHEDRAL.0>
1.43995

>  <SCORE.INTRA.POLAR>
0.257959

>  <SCORE.INTRA.POLAR.0>
-0.272593

>  <SCORE.INTRA.REPUL>
0

>  <SCORE.INTRA.REPUL.0>
0

>  <SCORE.INTRA.SOLV>
-0.0531051

>  <SCORE.INTRA.SOLV.lig_0>
-22.6728

>  <SCORE.INTRA.VDW>
0.00883508

>  <SCORE.INTRA.VDW.0>
-0.754459

>  <SCORE.INTRA.norm>
0.0636405

>  <SCORE.RESTR>
0.00278642

>  <SCORE.RESTR.CAVITY>
0.00278642

>  <SCORE.RESTR.norm>
0.00021434

>  <SCORE.SYSTEM>
0

>  <SCORE.SYSTEM.CONST>
0

>  <SCORE.SYSTEM.DIHEDRAL>
0

>  <SCORE.SYSTEM.SOLV>
0

>  <SCORE.SYSTEM.norm>
0

>  <SCORE.heavy>
13

>  <SCORE.norm>
-4.90442

>  <RMSD>
0.500

$$$$
lig.pdb
 OpenBabel11021811453D
libRbt.so/2013.1/901 2013/11/27
 13 14  0  0  0  0  0  0  0  0999 V2000
    2.2780    3.4609   -4.2467 N   0  0  0  0  0  0  0  0  0  0  0  0
    3.5337    2.9084   -4.3092 C   0  0  0  0  0  0  0  0  0  0  0  0
    3.8264    1.8290   -3.5920 N   0  0  0  0  0  0  0  0  0  0  0  0
    2.8977    1.2365   -2.7791 C   0  0  0  0  0  0  0  0  0  0  0  0
    1.5917    1.7800   -2.6781 C   0  0  0  0  0  0  0  0  0  0  0  0
    1.2938    2.9349   -3.4561 C   0  0  0  0  0  0  0  0  0  0  0  0
    0.1900    3.4482   -3.4246 O   0  0  0  0  0  0  0  0  0  0  0  0
    0.8638    0.9489   -1.7194 C   0  0  0  0  0  0  0  0  0  0  0  0
   -0.5430    1.1553   -1.2267 C   0  0  0  0  0  0  0  0  0  0  0  0
   -1.4727    1.1267   -2.3643 N   0  0  0  0  0  0  0  0  0  0  0  0
    1.7121   -0.0183   -1.3483 C   0  0  0  0  0  0  0  0  0  0  0  0
    2.9237    0.1508   -1.9644 N   0  0  0  0  0  0  0  0  0  0  0  0
    4.4851    3.4678   -5.1210 N   0  0  0  0  0  0  0  0  0  0  0  0
  1  6  1  0  0  0  0
  2  1  1  0  0  0  0
  2  3  2  0  0  0  0
  3  4  1  0  0  0  0
  4  5  2  0  0  0  0
  4 12  1  0  0  0  0
  5  8  1  0  0  0  0
  6  7  2  0  0  0  0
  6  5  1  0  0  0  0
  8 11  2  0  0  0  0
  8  9  1  0  0  0  0
 10  9  1  0  0  0  0
 12 11  1  0  0  0  0
 13  2  1  0  0  0  0
M  END
>  <CHROM.1>
59.37786044,-89.03401838,1.78889986,1.91427634,-2.98173598,0.67641173,0.20717295
-0.66687327

>  <Name>
lig.pdb

>  <RI>
9.54411e+06

>  <Rbt.Current_Directory>
/home/itssahil/PROJECTS/Mol_Feturizer/New_Systems/rnas/2l1v

>  <Rbt.Executable>
rbdock ($Id: //depot/dev/client3/rdock/2013.1/src/exe/rbdock.cxx#4 $)

>  <Rbt.Library>
libRbt.so (2013.1, Build901 2013/11/27)

>  <Rbt.Parameter_File>
/export/apps/rDock/src/rDock_2013.1_src/data/scripts/dock_solv.prm

>  <Rbt.Receptor>
prm/pocket_docking_6.prm

>  <SCORE>
-63.5697

>  <SCORE.INTER>
-64.3927

>  <SCORE.INTER.CONST>
1

>  <SCORE.INTER.POLAR>
-6.96915

>  <SCORE.INTER.ROT>
2

>  <SCORE.INTER.SOLV>
18.0287

>  <SCORE.INTER.VDW>
-30.6409

>  <SCORE.INTER.norm>
-4.95329

>  <SCORE.INTRA>
0.812236

>  <SCORE.INTRA.DIHEDRAL>
0.0701345

>  <SCORE.INTRA.DIHEDRAL.0>
1.43995

>  <SCORE.INTRA.POLAR>
0.230471

>  <SCORE.INTRA.POLAR.0>
-0.272593

>  <SCORE.INTRA.REPUL>
0

>  <SCORE.INTRA.REPUL.0>
0

>  <SCORE.INTRA.SOLV>
-0.0349219

>  <SCORE.INTRA.SOLV.lig_0>
-22.6728

>  <SCORE.INTRA.VDW>
0.0110298

>  <SCORE.INTRA.VDW.0>
-0.754459

>  <SCORE.INTRA.norm>
0.0624797

>  <SCORE.RESTR>
0.0108166

>  <SCORE.RESTR.CAVITY>
0.0108166

>  <SCORE.RESTR.norm>
0.000832045

>  <SCORE.SYSTEM>
0

>  <SCORE.SYSTEM.CONST>
0

>  <SCORE.SYSTEM.DIHEDRAL>
0

>  <SCORE.SYSTEM.SOLV>
0

>  <SCORE.SYSTEM.norm>
0

>  <SCORE.heavy>
13

>  <SCORE.norm>
-4.88998

>  <RMSD>
0.500

$$$$
lig.pdb
 OpenBabel11021811453D
libRbt.so/2013.1/901 2013/11/27
 13 14  0  0  0  0  0  0  0  0999 V2000
    2.2781    3.4572   -4.2523 N   0  0  0  0  0  0  0  0  0  0  0  0
    3.5363    2.9095   -4.3083 C   0  0  0  0  0  0  0  0  0  0  0  0
    3.8309    1.8342   -3.5859 N   0  0  0  0  0  0  0  0  0  0  0  0
    2.9018    1.2413   -2.7736 C   0  0  0  0  0  0  0  0  0  0  0  0
    1.5933    1.7798   -2.6793 C   0  0  0  0  0  0  0  0  0  0  0  0
    1.2933    2.9303   -3.4629 C   0  0  0  0  0  0  0  0  0  0  0  0
    0.1874    3.4393   -3.4372 O   0  0  0  0  0  0  0  0  0  0  0  0
    0.8655    0.9496   -1.7197 C   0  0  0  0  0  0  0  0  0  0  0  0
   -0.5438    1.1523   -1.2325 C   0  0  0  0  0  0  0  0  0  0  0  0
   -1.4683    1.1267   -2.3744 N   0  0  0  0  0  0  0  0  0  0  0  0
    1.7165   -0.0126   -1.3418 C   0  0  0  0  0  0  0  0  0  0  0  0
    2.9294    0.1589   -1.9545 N   0  0  0  0  0  0  0  0  0  0  0  0
    4.4881    3.4696   -5.1191 N   0  0  0  0  0  0  0  0  0  0  0  0
  1  6  1  0  0  0  0
  2  1  1  0  0  0  0
  2  3  2  0  0  0  0
  3  4  1  0  0  0  0
  4  5  2  0  0  0  0
  4 12  1  0  0  0  0
  5  8  1  0  0  0  0
  6  7  2  0  0  0  0
  6  5  1  0  0  0  0
  8 11  2  0  0  0  0
  8  9  1  0  0  0  0
 10  9  1  0  0  0  0
 12 11  1  0  0  0  0
 13  2  1  0  0  0  0
M  END
>  <CHROM.1>
58.90029032,-88.71003710,1.79107623,1.91473699,-2.98288400,0.67693359,0.20250717
-0.67135254

>  <Name>
lig.pdb

>  <RI>
9.54411e+06

>  <Rbt.Current_Directory>
/home/itssahil/PROJECTS/Mol_Feturizer/New_Systems/rnas/2l1v

>  <Rbt.Executable>
rbdock ($Id: //depot/dev/client3/rdock/2013.1/src/exe/rbdock.cxx#4 $)

>  <Rbt.Library>
libRbt.so (2013.1, Build901 2013/11/27)

>  <Rbt.Parameter_File>
/export/apps/rDock/src/rDock_2013.1_src/data/scripts/dock_solv.prm

>  <Rbt.Receptor>
prm/pocket_docking_6.prm

>  <SCORE>
-63.6082

>  <SCORE.INTER>
-64.3867

>  <SCORE.INTER.CONST>
1

>  <SCORE.INTER.POLAR>
-6.98285

>  <SCORE.INTER.ROT>
2

>  <SCORE.INTER.SOLV>
18.0162

>  <SCORE.INTER.VDW>
-30.587

>  <SCORE.INTER.norm>
-4.95282

>  <SCORE.INTRA>
0.766894

>  <SCORE.INTRA.DIHEDRAL>
0.0725178

>  <SCORE.INTRA.DIHEDRAL.0>
1.43995

>  <SCORE.INTRA.POLAR>
0.21636

>  <SCORE.INTRA.POLAR.0>
-0.272593

>  <SCORE.INTRA.REPUL>
0

>  <SCORE.INTRA.REPUL.0>
0

>  <SCORE.INTRA.SOLV>
-0.0303698

>  <SCORE.INTRA.SOLV.lig_0>
-22.6728

>  <SCORE.INTRA.VDW>
0.0101972

>  <SCORE.INTRA.VDW.0>
-0.754459

>  <SCORE.INTRA.norm>
0.0589919

>  <SCORE.RESTR>
0.0116292

>  <SCORE.RESTR.CAVITY>
0.0116292

>  <SCORE.RESTR.norm>
0.000894551

>  <SCORE.SYSTEM>
0

>  <SCORE.SYSTEM.CONST>
0

>  <SCORE.SYSTEM.DIHEDRAL>
0

>  <SCORE.SYSTEM.SOLV>
0

>  <SCORE.SYSTEM.norm>
0

>  <SCORE.heavy>
13

>  <SCORE.norm>
-4.89294

>  <RMSD>
0.500

$$$$
lig.pdb
 OpenBabel11021811453D
libRbt.so/2013.1/901 2013/11/27
 13 14  0  0  0  0  0  0  0  0999 V2000
    2.2722    3.4520   -4.2475 N   0  0  0  0  0  0  0  0  0  0  0  0
    3.5273    2.8974   -4.3069 C   0  0  0  0  0  0  0  0  0  0  0  0
    3.8167    1.8179   -3.5886 N   0  0  0  0  0  0  0  0  0  0  0  0
    2.8854    1.2274   -2.7773 C   0  0  0  0  0  0  0  0  0  0  0  0
    1.5801    1.7730   -2.6794 C   0  0  0  0  0  0  0  0  0  0  0  0
    1.2855    2.9279   -3.4587 C   0  0  0  0  0  0  0  0  0  0  0  0
    0.1826    3.4430   -3.4298 O   0  0  0  0  0  0  0  0  0  0  0  0
    0.8488    0.9435   -1.7218 C   0  0  0  0  0  0  0  0  0  0  0  0
   -0.5587    1.1524   -1.2322 C   0  0  0  0  0  0  0  0  0  0  0  0
   -1.4860    1.1249   -2.3718 N   0  0  0  0  0  0  0  0  0  0  0  0
    1.6948   -0.0248   -1.3484 C   0  0  0  0  0  0  0  0  0  0  0  0
    2.9079    0.1420   -1.9620 N   0  0  0  0  0  0  0  0  0  0  0  0
    4.4812    3.4550   -5.1170 N   0  0  0  0  0  0  0  0  0  0  0  0
  1  6  1  0  0  0  0
  2  1  1  0  0  0  0
  2  3  2  0  0  0  0
  3  4  1  0  0  0  0
  4  5  2  0  0  0  0
  4 12  1  0  0  0  0
  5  8  1  0  0  0  0
  6  7  2  0  0  0  0
  6  5  1  0  0  0  0
  8 11  2  0  0  0  0
  8  9  1  0  0  0  0
 10  9  1  0  0  0  0
 12 11  1  0  0  0  0
 13  2  1  0  0  0  0
M  END
>  <CHROM.1>
59.36491117,-88.98756155,1.77807902,1.90679616,-2.98268259,0.67380460,0.20649070
-0.66687630

>  <Name>
lig.pdb

>  <RI>
9.54411e+06

>  <Rbt.Current_Directory>
/home/itssahil/PROJECTS/Mol_Feturizer/New_Systems/rnas/2l1v

>  <Rbt.Executable>
rbdock ($Id: //depot/dev/client3/rdock/2013.1/src/exe/rbdock.cxx#4 $)

>  <Rbt.Library>
libRbt.so (2013.1, Build901 2013/11/27)

>  <Rbt.Parameter_File>
/export/apps/rDock/src/rDock_2013.1_src/data/scripts/dock_solv.prm

>  <Rbt.Receptor>
prm/pocket_docking_6.prm

>  <SCORE>
-63.5214

>  <SCORE.INTER>
-64.3356

>  <SCORE.INTER.CONST>
1

>  <SCORE.INTER.POLAR>
-6.95223

>  <SCORE.INTER.ROT>
2

>  <SCORE.INTER.SOLV>
18.0395

>  <SCORE.INTER.VDW>
-30.6628

>  <SCORE.INTER.norm>
-4.94889

>  <SCORE.INTRA>
0.809837

>  <SCORE.INTRA.DIHEDRAL>
0.0701764

>  <SCORE.INTRA.DIHEDRAL.0>
1.43995

>  <SCORE.INTRA.POLAR>
0.229754

>  <SCORE.INTRA.POLAR.0>
-0.272593

>  <SCORE.INTRA.REPUL>
0

>  <SCORE.INTRA.REPUL.0>
0

>  <SCORE.INTRA.SOLV>
-0.0347805

>  <SCORE.INTRA.SOLV.lig_0>
-22.6728

>  <SCORE.INTRA.VDW>
0.0109762

>  <SCORE.INTRA.VDW.0>
-0.754459

>  <SCORE.INTRA.norm>
0.0622952

>  <SCORE.RESTR>
0.00437931

>  <SCORE.RESTR.CAVITY>
0.00437931

>  <SCORE.RESTR.norm>
0.00033687

>  <SCORE.SYSTEM>
0

>  <SCORE.SYSTEM.CONST>
0

>  <SCORE.SYSTEM.DIHEDRAL>
0

>  <SCORE.SYSTEM.SOLV>
0

>  <SCORE.SYSTEM.norm>
0

>  <SCORE.heavy>
13

>  <SCORE.norm>
-4.88626

>  <RMSD>
0.500

$$$$
lig.pdb
 OpenBabel11021811453D
libRbt.so/2013.1/901 2013/11/27
 13 14  0  0  0  0  0  0  0  0999 V2000
    2.2807    3.4688   -4.2283 N   0  0  0  0  0  0  0  0  0  0  0  0
    3.5256    2.8945   -4.3095 C   0  0  0  0  0  0  0  0  0  0  0  0
    3.8045    1.7994   -3.6109 N   0  0  0  0  0  0  0  0  0  0  0  0
    2.8719    1.2120   -2.7987 C   0  0  0  0  0  0  0  0  0  0  0  0
    1.5769    1.7776   -2.6787 C   0  0  0  0  0  0  0  0  0  0  0  0
    1.2937    2.9490   -3.4370 C   0  0  0  0  0  0  0  0  0  0  0  0
    0.1998    3.4818   -3.3885 O   0  0  0  0  0  0  0  0  0  0  0  0
    0.8419    0.9457   -1.7260 C   0  0  0  0  0  0  0  0  0  0  0  0
   -0.5567    1.1703   -1.2182 C   0  0  0  0  0  0  0  0  0  0  0  0
   -1.5030    1.1183   -2.3414 N   0  0  0  0  0  0  0  0  0  0  0  0
    1.6754   -0.0422   -1.3764 C   0  0  0  0  0  0  0  0  0  0  0  0
    2.8847    0.1140   -2.0003 N   0  0  0  0  0  0  0  0  0  0  0  0
    4.4803    3.4486   -5.1212 N   0  0  0  0  0  0  0  0  0  0  0  0
  1  6  1  0  0  0  0
  2  1  1  0  0  0  0
  2  3  2  0  0  0  0
  3  4  1  0  0  0  0
  4  5  2  0  0  0  0
  4 12  1  0  0  0  0
  5  8  1  0  0  0  0
  6  7  2  0  0  0  0
  6  5  1  0  0  0  0
  8 11  2  0  0  0  0
  8  9  1  0  0  0  0
 10  9  1  0  0  0  0
 12 11  1  0  0  0  0
 13  2  1  0  0  0  0
M  END
>  <CHROM.1>
61.77223789,-90.38426322,1.77336023,1.90736338,-2.98129221,0.66989022,0.22267991
-0.64884704

>  <Name>
lig.pdb

>  <RI>
2.05237e+07

>  <Rbt.Current_Directory>
/home/itssahil/PROJECTS/Mol_Feturizer/New_Systems/rnas/2l1v

>  <Rbt.Executable>
rbdock ($Id: //depot/dev/client3/rdock/2013.1/src/exe/rbdock.cxx#4 $)

>  <Rbt.Library>
libRbt.so (2013.1, Build901 2013/11/27)

>  <Rbt.Parameter_File>
/export/apps/rDock/src/rDock_2013.1_src/data/scripts/dock_solv.prm

>  <Rbt.Receptor>
prm/blind_docking_100.prm

>  <SCORE>
-63.4524

>  <SCORE.INTER>
-64.4055

>  <SCORE.INTER.CONST>
1

>  <SCORE.INTER.POLAR>
-6.91905

>  <SCORE.INTER.ROT>
2

>  <SCORE.INTER.SOLV>
18.1077

>  <SCORE.INTER.VDW>
-30.8427

>  <SCORE.INTER.norm>
-4.95427

>  <SCORE.INTRA>
0.948601

>  <SCORE.INTRA.DIHEDRAL>
0.0682178

>  <SCORE.INTRA.DIHEDRAL.0>
1.43995

>  <SCORE.INTRA.POLAR>
0.272593

>  <SCORE.INTRA.POLAR.0>
-0.272593

>  <SCORE.INTRA.REPUL>
0

>  <SCORE.INTRA.REPUL.0>
0

>  <SCORE.INTRA.SOLV>
-0.0578661

>  <SCORE.INTRA.SOLV.lig_0>
-22.6728

>  <SCORE.INTRA.VDW>
0.0166101

>  <SCORE.INTRA.VDW.0>
-0.754459

>  <SCORE.INTRA.norm>
0.0729693

>  <SCORE.RESTR>
0.00443273

>  <SCORE.RESTR.CAVITY>
0.00443273

>  <SCORE.RESTR.norm>
0.000340979

>  <SCORE.SYSTEM>
0

>  <SCORE.SYSTEM.CONST>
0

>  <SCORE.SYSTEM.DIHEDRAL>
0

>  <SCORE.SYSTEM.SOLV>
0

>  <SCORE.SYSTEM.norm>
0

>  <SCORE.heavy>
13

>  <SCORE.norm>
-4.88096

>  <RMSD>
0.501

$$$$
lig.pdb
 OpenBabel11021811453D
libRbt.so/2013.1/901 2013/11/27
 13 14  0  0  0  0  0  0  0  0999 V2000
    2.2768    3.4560   -4.2462 N   0  0  0  0  0  0  0  0  0  0  0  0
    3.5326    2.9032   -4.3054 C   0  0  0  0  0  0  0  0  0  0  0  0
    3.8232    1.8238   -3.5873 N   0  0  0  0  0  0  0  0  0  0  0  0
    2.8924    1.2319   -2.7765 C   0  0  0  0  0  0  0  0  0  0  0  0
    1.5863    1.7757   -2.6789 C   0  0  0  0  0  0  0  0  0  0  0  0
    1.2905    2.9304   -3.4579 C   0  0  0  0  0  0  0  0  0  0  0  0
    0.1869    3.4441   -3.4293 O   0  0  0  0  0  0  0  0  0  0  0  0
    0.8557    0.9450   -1.7219 C   0  0  0  0  0  0  0  0  0  0  0  0
   -0.5522    1.1519   -1.2326 C   0  0  0  0  0  0  0  0  0  0  0  0
   -1.4788    1.1264   -2.3729 N   0  0  0  0  0  0  0  0  0  0  0  0
    1.7029   -0.0224   -1.3484 C   0  0  0  0  0  0  0  0  0  0  0  0
    2.9161    0.1463   -1.9615 N   0  0  0  0  0  0  0  0  0  0  0  0
    4.4861    3.4622   -5.1150 N   0  0  0  0  0  0  0  0  0  0  0  0
  1  6  1  0  0  0  0
  2  1  1  0  0  0  0
  2  3  2  0  0  0  0
  3  4  1  0  0  0  0
  4  5  2  0  0  0  0
  4 12  1  0  0  0  0
  5  8  1  0  0  0  0
  6  7  2  0  0  0  0
  6  5  1  0  0  0  0
  8 11  2  0  0  0  0
  8  9  1  0  0  0  0
 10  9  1  0  0  0  0
 12 11  1  0  0  0  0
 13  2  1  0  0  0  0
M  END
>  <CHROM.1>
59.24223658,-89.04519329,1.78427616,1.91012444,-2.98211437,0.67448382,0.20553977
-0.66680571

>  <Name>
lig.pdb

>  <RI>
4.17264e+07

>  <Rbt.Current_Directory>
/home/itssahil/PROJECTS/Mol_Feturizer/New_Systems/rnas/2l1v

>  <Rbt.Executable>
rbdock ($Id: //depot/dev/client3/rdock/2013.1/src/exe/rbdock.cxx#4 $)

>  <Rbt.Library>
libRbt.so (2013.1, Build901 2013/11/27)

>  <Rbt.Parameter_File>
/export/apps/rDock/src/rDock_2013.1_src/data/scripts/dock_solv.prm

>  <Rbt.Receptor>
prm/blind_docking_20.prm

>  <SCORE>
-63.5203

>  <SCORE.INTER>
-64.3269

>  <SCORE.INTER.CONST>
1

>  <SCORE.INTER.POLAR>
-6.97432

>  <SCORE.INTER.ROT>
2

>  <SCORE.INTER.SOLV>
18.0333

>  <SCORE.INTER.VDW>
-30.5812

>  <SCORE.INTER.norm>
-4.94822

>  <SCORE.INTRA>
0.802919

>  <SCORE.INTRA.DIHEDRAL>
0.0707823

>  <SCORE.INTRA.DIHEDRAL.0>
1.43995

>  <SCORE.INTRA.POLAR>
0.227501

>  <SCORE.INTRA.POLAR.0>
-0.272593

>  <SCORE.INTRA.REPUL>
0

>  <SCORE.INTRA.REPUL.0>
0

>  <SCORE.INTRA.SOLV>
-0.0336762

>  <SCORE.INTRA.SOLV.lig_0>
-22.6728

>  <SCORE.INTRA.VDW>
0.0108619

>  <SCORE.INTRA.VDW.0>
-0.754459

>  <SCORE.INTRA.norm>
0.061763

>  <SCORE.RESTR>
0.00361975

>  <SCORE.RESTR.CAVITY>
0.00361975

>  <SCORE.RESTR.norm>
0.000278442

>  <SCORE.SYSTEM>
0

>  <SCORE.SYSTEM.CONST>
0

>  <SCORE.SYSTEM.DIHEDRAL>
0

>  <SCORE.SYSTEM.SOLV>
0

>  <SCORE.SYSTEM.norm>
0

>  <SCORE.heavy>
13

>  <SCORE.norm>
-4.88618

>  <RMSD>
0.501

$$$$
lig.pdb
 OpenBabel11021811453D
libRbt.so/2013.1/901 2013/11/27
 13 14  0  0  0  0  0  0  0  0999 V2000
    2.2946    3.4758   -4.2307 N   0  0  0  0  0  0  0  0  0  0  0  0
    3.5494    2.9216   -4.2977 C   0  0  0  0  0  0  0  0  0  0  0  0
    3.8395    1.8345   -3.5911 N   0  0  0  0  0  0  0  0  0  0  0  0
    2.9091    1.2358   -2.7848 C   0  0  0  0  0  0  0  0  0  0  0  0
    1.6041    1.7806   -2.6794 C   0  0  0  0  0  0  0  0  0  0  0  0
    1.3088    2.9437   -3.4461 C   0  0  0  0  0  0  0  0  0  0  0  0
    0.2060    3.4588   -3.4103 O   0  0  0  0  0  0  0  0  0  0  0  0
    0.8738    0.9413   -1.7296 C   0  0  0  0  0  0  0  0  0  0  0  0
   -0.5329    1.1455   -1.2359 C   0  0  0  0  0  0  0  0  0  0  0  0
   -1.4624    1.1252   -2.3739 N   0  0  0  0  0  0  0  0  0  0  0  0
    1.7201   -0.0311   -1.3675 C   0  0  0  0  0  0  0  0  0  0  0  0
    2.9324    0.1419   -1.9810 N   0  0  0  0  0  0  0  0  0  0  0  0
    4.5024    3.4874   -5.1032 N   0  0  0  0  0  0  0  0  0  0  0  0
  1  6  1  0  0  0  0
  2  1  1  0  0  0  0
  2  3  2  0  0  0  0
  3  4  1  0  0  0  0
  4  5  2  0  0  0  0
  4 12  1  0  0  0  0
  5  8  1  0  0  0  0
  6  7  2  0  0  0  0
  6  5  1  0  0  0  0
  8 11  2  0  0  0  0
  8  9  1  0  0  0  0
 10  9  1  0  0  0  0
 12 11  1  0  0  0  0
 13  2  1  0  0  0  0
M  END
>  <CHROM.1>
59.57430339,-88.51372567,1.80166246,1.91710425,-2.98148894,0.67469841,0.20750101
-0.65641252

>  <Name>
lig.pdb

>  <RI>
2.05237e+07

>  <Rbt.Current_Directory>
/home/itssahil/PROJECTS/Mol_Feturizer/New_Systems/rnas/2l1v

>  <Rbt.Executable>
rbdock ($Id: //depot/dev/client3/rdock/2013.1/src/exe/rbdock.cxx#4 $)

>  <Rbt.Library>
libRbt.so (2013.1, Build901 2013/11/27)

>  <Rbt.Parameter_File>
/export/apps/rDock/src/rDock_2013.1_src/data/scripts/dock_solv.prm

>  <Rbt.Receptor>
prm/blind_docking_100.prm

>  <SCORE>
-63.5371

>  <SCORE.INTER>
-64.3498

>  <SCORE.INTER.CONST>
1

>  <SCORE.INTER.POLAR>
-7.02397

>  <SCORE.INTER.ROT>
2

>  <SCORE.INTER.SOLV>
18.0341

>  <SCORE.INTER.VDW>
-30.4313

>  <SCORE.INTER.norm>
-4.94998

>  <SCORE.INTRA>
0.809964

>  <SCORE.INTRA.DIHEDRAL>
0.0690851

>  <SCORE.INTRA.DIHEDRAL.0>
1.43995

>  <SCORE.INTRA.POLAR>
0.230227

>  <SCORE.INTRA.POLAR.0>
-0.272593

>  <SCORE.INTRA.REPUL>
0

>  <SCORE.INTRA.REPUL.0>
0

>  <SCORE.INTRA.SOLV>
-0.0364953

>  <SCORE.INTRA.SOLV.lig_0>
-22.6728

>  <SCORE.INTRA.VDW>
0.0108975

>  <SCORE.INTRA.VDW.0>
-0.754459

>  <SCORE.INTRA.norm>
0.062305

>  <SCORE.RESTR>
0.00266867

>  <SCORE.RESTR.CAVITY>
0.00266867

>  <SCORE.RESTR.norm>
0.000205282

>  <SCORE.SYSTEM>
0

>  <SCORE.SYSTEM.CONST>
0

>  <SCORE.SYSTEM.DIHEDRAL>
0

>  <SCORE.SYSTEM.SOLV>
0

>  <SCORE.SYSTEM.norm>
0

>  <SCORE.heavy>
13

>  <SCORE.norm>
-4.88747

>  <RMSD>
0.502

$$$$
lig.pdb
 OpenBabel11021811453D
libRbt.so/2013.1/901 2013/11/27
 13 14  0  0  0  0  0  0  0  0999 V2000
    2.2760    3.4680   -4.2441 N   0  0  0  0  0  0  0  0  0  0  0  0
    3.5329    2.9183   -4.3080 C   0  0  0  0  0  0  0  0  0  0  0  0
    3.8288    1.8394   -3.5914 N   0  0  0  0  0  0  0  0  0  0  0  0
    2.9024    1.2448   -2.7775 C   0  0  0  0  0  0  0  0  0  0  0  0
    1.5953    1.7853   -2.6750 C   0  0  0  0  0  0  0  0  0  0  0  0
    1.2939    2.9396   -3.4524 C   0  0  0  0  0  0  0  0  0  0  0  0
    0.1891    3.4505   -3.4196 O   0  0  0  0  0  0  0  0  0  0  0  0
    0.8703    0.9524   -1.7156 C   0  0  0  0  0  0  0  0  0  0  0  0
   -0.5363    1.1556   -1.2212 C   0  0  0  0  0  0  0  0  0  0  0  0
   -1.4676    1.1222   -2.3574 N   0  0  0  0  0  0  0  0  0  0  0  0
    1.7213   -0.0129   -1.3455 C   0  0  0  0  0  0  0  0  0  0  0  0
    2.9317    0.1590   -1.9630 N   0  0  0  0  0  0  0  0  0  0  0  0
    4.4821    3.4800   -5.1209 N   0  0  0  0  0  0  0  0  0  0  0  0
  1  6  1  0  0  0  0
  2  1  1  0  0  0  0
  2  3  2  0  0  0  0
  3  4  1  0  0  0  0
  4  5  2  0  0  0  0
  4 12  1  0  0  0  0
  5  8  1  0  0  0  0
  6  7  2  0  0  0  0
  6  5  1  0  0  0  0
  8 11  2  0  0  0  0
  8  9  1  0  0  0  0
 10  9  1  0  0  0  0
 12 11  1  0  0  0  0
 13  2  1  0  0  0  0
M  END
>  <CHROM.1>
59.49885692,-88.76558366,1.79181323,1.91981025,-2.97874878,0.67909079,0.20656060
-0.66717848

>  <Name>
lig.pdb

>  <RI>
2.05237e+07

>  <Rbt.Current_Directory>
/home/itssahil/PROJECTS/Mol_Feturizer/New_Systems/rnas/2l1v

>  <Rbt.Executable>
rbdock ($Id: //depot/dev/client3/rdock/2013.1/src/exe/rbdock.cxx#4 $)

>  <Rbt.Library>
libRbt.so (2013.1, Build901 2013/11/27)

>  <Rbt.Parameter_File>
/export/apps/rDock/src/rDock_2013.1_src/data/scripts/dock_solv.prm

>  <Rbt.Receptor>
prm/blind_docking_100.prm

>  <SCORE>
-63.597

>  <SCORE.INTER>
-64.4236

>  <SCORE.INTER.CONST>
1

>  <SCORE.INTER.POLAR>
-6.9762

>  <SCORE.INTER.ROT>
2

>  <SCORE.INTER.SOLV>
18.0175

>  <SCORE.INTER.VDW>
-30.6342

>  <SCORE.INTER.norm>
-4.95566

>  <SCORE.INTRA>
0.812401

>  <SCORE.INTRA.DIHEDRAL>
0.069502

>  <SCORE.INTRA.DIHEDRAL.0>
1.43995

>  <SCORE.INTRA.POLAR>
0.230771

>  <SCORE.INTRA.POLAR.0>
-0.272593

>  <SCORE.INTRA.REPUL>
0

>  <SCORE.INTRA.REPUL.0>
0

>  <SCORE.INTRA.SOLV>
-0.0359139

>  <SCORE.INTRA.SOLV.lig_0>
-22.6728

>  <SCORE.INTRA.VDW>
0.0109858

>  <SCORE.INTRA.VDW.0>
-0.754459

>  <SCORE.INTRA.norm>
0.0624924

>  <SCORE.RESTR>
0.0142329

>  <SCORE.RESTR.CAVITY>
0.0142329

>  <SCORE.RESTR.norm>
0.00109484

>  <SCORE.SYSTEM>
0

>  <SCORE.SYSTEM.CONST>
0

>  <SCORE.SYSTEM.DIHEDRAL>
0

>  <SCORE.SYSTEM.SOLV>
0

>  <SCORE.SYSTEM.norm>
0

>  <SCORE.heavy>
13

>  <SCORE.norm>
-4.89207

>  <RMSD>
0.502

$$$$
lig.pdb
 OpenBabel11021811453D
libRbt.so/2013.1/901 2013/11/27
 13 14  0  0  0  0  0  0  0  0999 V2000
    2.2715    3.4638   -4.2350 N   0  0  0  0  0  0  0  0  0  0  0  0
    3.5088    2.8738   -4.3200 C   0  0  0  0  0  0  0  0  0  0  0  0
    3.7750    1.7738   -3.6240 N   0  0  0  0  0  0  0  0  0  0  0  0
    2.8366    1.1968   -2.8111 C   0  0  0  0  0  0  0  0  0  0  0  0
    1.5493    1.7787   -2.6872 C   0  0  0  0  0  0  0  0  0  0  0  0
    1.2795    2.9552   -3.4427 C   0  0  0  0  0  0  0  0  0  0  0  0
    0.1927    3.5019   -3.3909 O   0  0  0  0  0  0  0  0  0  0  0  0
    0.8056    0.9545   -1.7347 C   0  0  0  0  0  0  0  0  0  0  0  0
   -0.5890    1.1960   -1.2235 C   0  0  0  0  0  0  0  0  0  0  0  0
   -1.5428    1.1182   -2.3386 N   0  0  0  0  0  0  0  0  0  0  0  0
    1.6271   -0.0447   -1.3886 C   0  0  0  0  0  0  0  0  0  0  0  0
    2.8370    0.0972   -2.0148 N   0  0  0  0  0  0  0  0  0  0  0  0
    4.4688    3.4171   -5.1325 N   0  0  0  0  0  0  0  0  0  0  0  0
  1  6  1  0  0  0  0
  2  1  1  0  0  0  0
  2  3  2  0  0  0  0
  3  4  1  0  0  0  0
  4  5  2  0  0  0  0
  4 12  1  0  0  0  0
  5  8  1  0  0  0  0
  6  7  2  0  0  0  0
  6  5  1  0  0  0  0
  8 11  2  0  0  0  0
  8  9  1  0  0  0  0
 10  9  1  0  0  0  0
 12 11  1  0  0  0  0
 13  2  1  0  0  0  0
M  END
>  <CHROM.1>
63.46675307,90.10580415,1.74658616,1.90277642,-2.98963437,0.66320105,0.23046437
-0.64391391

>  <Name>
lig.pdb

>  <RI>
2.05237e+07

>  <Rbt.Current_Directory>
/home/itssahil/PROJECTS/Mol_Feturizer/New_Systems/rnas/2l1v

>  <Rbt.Executable>
rbdock ($Id: //depot/dev/client3/rdock/2013.1/src/exe/rbdock.cxx#4 $)

>  <Rbt.Library>
libRbt.so (2013.1, Build901 2013/11/27)

>  <Rbt.Parameter_File>
/export/apps/rDock/src/rDock_2013.1_src/data/scripts/dock_solv.prm

>  <Rbt.Receptor>
prm/blind_docking_100.prm

>  <SCORE>
-63.6397

>  <SCORE.INTER>
-64.5218

>  <SCORE.INTER.CONST>
1

>  <SCORE.INTER.POLAR>
-6.879

>  <SCORE.INTER.ROT>
2

>  <SCORE.INTER.SOLV>
18.1842

>  <SCORE.INTER.VDW>
-31.0793

>  <SCORE.INTER.norm>
-4.96321

>  <SCORE.INTRA>
0.878432

>  <SCORE.INTRA.DIHEDRAL>
-0.0553267

>  <SCORE.INTRA.DIHEDRAL.0>
1.43995

>  <SCORE.INTRA.POLAR>
0.272593

>  <SCORE.INTRA.POLAR.0>
-0.272593

>  <SCORE.INTRA.REPUL>
0

>  <SCORE.INTRA.REPUL.0>
0

>  <SCORE.INTRA.SOLV>
-0.0711709

>  <SCORE.INTRA.SOLV.lig_0>
-22.6728

>  <SCORE.INTRA.VDW>
0.0148653

>  <SCORE.INTRA.VDW.0>
-0.754459

>  <SCORE.INTRA.norm>
0.0675717

>  <SCORE.RESTR>
0.00366481

>  <SCORE.RESTR.CAVITY>
0.00366481

>  <SCORE.RESTR.norm>
0.000281908

>  <SCORE.SYSTEM>
0

>  <SCORE.SYSTEM.CONST>
0

>  <SCORE.SYSTEM.DIHEDRAL>
0

>  <SCORE.SYSTEM.SOLV>
0

>  <SCORE.SYSTEM.norm>
0

>  <SCORE.heavy>
13

>  <SCORE.norm>
-4.89536

>  <RMSD>
0.503

$$$$
lig.pdb
 OpenBabel11021811453D
libRbt.so/2013.1/901 2013/11/27
 13 14  0  0  0  0  0  0  0  0999 V2000
    2.2810    3.4613   -4.2494 N   0  0  0  0  0  0  0  0  0  0  0  0
    3.5358    2.9065   -4.3112 C   0  0  0  0  0  0  0  0  0  0  0  0
    3.8274    1.8288   -3.5912 N   0  0  0  0  0  0  0  0  0  0  0  0
    2.8985    1.2403   -2.7756 C   0  0  0  0  0  0  0  0  0  0  0  0
    1.5934    1.7862   -2.6752 C   0  0  0  0  0  0  0  0  0  0  0  0
    1.2966    2.9391   -3.4564 C   0  0  0  0  0  0  0  0  0  0  0  0
    0.1938    3.4544   -3.4255 O   0  0  0  0  0  0  0  0  0  0  0  0
    0.8649    0.9591   -1.7134 C   0  0  0  0  0  0  0  0  0  0  0  0
   -0.5411    1.1692   -1.2200 C   0  0  0  0  0  0  0  0  0  0  0  0
   -1.4737    1.1212   -2.3547 N   0  0  0  0  0  0  0  0  0  0  0  0
    1.7121   -0.0084   -1.3400 C   0  0  0  0  0  0  0  0  0  0  0  0
    2.9234    0.1569   -1.9577 N   0  0  0  0  0  0  0  0  0  0  0  0
    4.4874    3.4621   -5.1255 N   0  0  0  0  0  0  0  0  0  0  0  0
  1  6  1  0  0  0  0
  2  1  1  0  0  0  0
  2  3  2  0  0  0  0
  3  4  1  0  0  0  0
  4  5  2  0  0  0  0
  4 12  1  0  0  0  0
  5  8  1  0  0  0  0
  6  7  2  0  0  0  0
  6  5  1  0  0  0  0
  8 11  2  0  0  0  0
  8  9  1  0  0  0  0
 10  9  1  0  0  0  0
 12 11  1  0  0  0  0
 13  2  1  0  0  0  0
M  END
>  <CHROM.1>
60.10817562,-88.87605045,1.79036847,1.91757447,-2.97916502,0.67658027,0.20808837
-0.66935521

>  <Name>
lig.pdb

>  <RI>
4.17264e+07

>  <Rbt.Current_Directory>
/home/itssahil/PROJECTS/Mol_Feturizer/New_Systems/rnas/2l1v

>  <Rbt.Executable>
rbdock ($Id: //depot/dev/client3/rdock/2013.1/src/exe/rbdock.cxx#4 $)

>  <Rbt.Library>
libRbt.so (2013.1, Build901 2013/11/27)

>  <Rbt.Parameter_File>
/export/apps/rDock/src/rDock_2013.1_src/data/scripts/dock_solv.prm

>  <Rbt.Receptor>
prm/blind_docking_20.prm

>  <SCORE>
-63.5721

>  <SCORE.INTER>
-64.4444

>  <SCORE.INTER.CONST>
1

>  <SCORE.INTER.POLAR>
-6.96883

>  <SCORE.INTER.ROT>
2

>  <SCORE.INTER.SOLV>
18.0191

>  <SCORE.INTER.VDW>
-30.6732

>  <SCORE.INTER.norm>
-4.95726

>  <SCORE.INTRA>
0.858473

>  <SCORE.INTRA.DIHEDRAL>
0.0675591

>  <SCORE.INTRA.DIHEDRAL.0>
1.43995

>  <SCORE.INTRA.POLAR>
0.245143

>  <SCORE.INTRA.POLAR.0>
-0.272593

>  <SCORE.INTRA.REPUL>
0

>  <SCORE.INTRA.REPUL.0>
0

>  <SCORE.INTRA.SOLV>
-0.0416115

>  <SCORE.INTRA.SOLV.lig_0>
-22.6728

>  <SCORE.INTRA.VDW>
0.0120137

>  <SCORE.INTRA.VDW.0>
-0.754459

>  <SCORE.INTRA.norm>
0.0660364

>  <SCORE.RESTR>
0.0138614

>  <SCORE.RESTR.CAVITY>
0.0138614

>  <SCORE.RESTR.norm>
0.00106626

>  <SCORE.SYSTEM>
0

>  <SCORE.SYSTEM.CONST>
0

>  <SCORE.SYSTEM.DIHEDRAL>
0

>  <SCORE.SYSTEM.SOLV>
0

>  <SCORE.SYSTEM.norm>
0

>  <SCORE.heavy>
13

>  <SCORE.norm>
-4.89016

>  <RMSD>
0.503

$$$$
lig.pdb
 OpenBabel11021811453D
libRbt.so/2013.1/901 2013/11/27
 13 14  0  0  0  0  0  0  0  0999 V2000
    2.2757    3.4643   -4.2432 N   0  0  0  0  0  0  0  0  0  0  0  0
    3.5315    2.9118   -4.3069 C   0  0  0  0  0  0  0  0  0  0  0  0
    3.8253    1.8331   -3.5892 N   0  0  0  0  0  0  0  0  0  0  0  0
    2.8978    1.2413   -2.7744 C   0  0  0  0  0  0  0  0  0  0  0  0
    1.5919    1.7847   -2.6721 C   0  0  0  0  0  0  0  0  0  0  0  0
    1.2927    2.9388   -3.4508 C   0  0  0  0  0  0  0  0  0  0  0  0
    0.1890    3.4521   -3.4182 O   0  0  0  0  0  0  0  0  0  0  0  0
    0.8654    0.9544   -1.7116 C   0  0  0  0  0  0  0  0  0  0  0  0
   -0.5407    1.1611   -1.2171 C   0  0  0  0  0  0  0  0  0  0  0  0
   -1.4734    1.1176   -2.3517 N   0  0  0  0  0  0  0  0  0  0  0  0
    1.7144   -0.0124   -1.3408 C   0  0  0  0  0  0  0  0  0  0  0  0
    2.9251    0.1563   -1.9587 N   0  0  0  0  0  0  0  0  0  0  0  0
    4.4816    3.4707   -5.1206 N   0  0  0  0  0  0  0  0  0  0  0  0
  1  6  1  0  0  0  0
  2  1  1  0  0  0  0
  2  3  2  0  0  0  0
  3  4  1  0  0  0  0
  4  5  2  0  0  0  0
  4 12  1  0  0  0  0
  5  8  1  0  0  0  0
  6  7  2  0  0  0  0
  6  5  1  0  0  0  0
  8 11  2  0  0  0  0
  8  9  1  0  0  0  0
 10  9  1  0  0  0  0
 12 11  1  0  0  0  0
 13  2  1  0  0  0  0
M  END
>  <CHROM.1>
59.95248592,-88.41657778,1.78851632,1.91744890,-2.97597944,0.67813396,0.20760299
-0.66773352

>  <Name>
lig.pdb

>  <RI>
9.54411e+06

>  <Rbt.Current_Directory>
/home/itssahil/PROJECTS/Mol_Feturizer/New_Systems/rnas/2l1v

>  <Rbt.Executable>
rbdock ($Id: //depot/dev/client3/rdock/2013.1/src/exe/rbdock.cxx#4 $)

>  <Rbt.Library>
libRbt.so (2013.1, Build901 2013/11/27)

>  <Rbt.Parameter_File>
/export/apps/rDock/src/rDock_2013.1_src/data/scripts/dock_solv.prm

>  <Rbt.Receptor>
prm/pocket_docking_6.prm

>  <SCORE>
-63.5605

>  <SCORE.INTER>
-64.4053

>  <SCORE.INTER.CONST>
1

>  <SCORE.INTER.POLAR>
-6.96017

>  <SCORE.INTER.ROT>
2

>  <SCORE.INTER.SOLV>
18.0089

>  <SCORE.INTER.VDW>
-30.6726

>  <SCORE.INTER.norm>
-4.95426

>  <SCORE.INTRA>
0.834118

>  <SCORE.INTRA.DIHEDRAL>
0.0677601

>  <SCORE.INTRA.DIHEDRAL.0>
1.43995

>  <SCORE.INTRA.POLAR>
0.237887

>  <SCORE.INTRA.POLAR.0>
-0.272593

>  <SCORE.INTRA.REPUL>
0

>  <SCORE.INTRA.REPUL.0>
0

>  <SCORE.INTRA.SOLV>
-0.039956

>  <SCORE.INTRA.SOLV.lig_0>
-22.6728

>  <SCORE.INTRA.VDW>
0.0114004

>  <SCORE.INTRA.VDW.0>
-0.754459

>  <SCORE.INTRA.norm>
0.0641629

>  <SCORE.RESTR>
0.010665

>  <SCORE.RESTR.CAVITY>
0.010665

>  <SCORE.RESTR.norm>
0.000820383

>  <SCORE.SYSTEM>
0

>  <SCORE.SYSTEM.CONST>
0

>  <SCORE.SYSTEM.DIHEDRAL>
0

>  <SCORE.SYSTEM.SOLV>
0

>  <SCORE.SYSTEM.norm>
0

>  <SCORE.heavy>
13

>  <SCORE.norm>
-4.88927

>  <RMSD>
0.504

$$$$
lig.pdb
 OpenBabel11021811453D
libRbt.so/2013.1/901 2013/11/27
 13 14  0  0  0  0  0  0  0  0999 V2000
    2.2838    3.4657   -4.2441 N   0  0  0  0  0  0  0  0  0  0  0  0
    3.5470    2.9287   -4.2919 C   0  0  0  0  0  0  0  0  0  0  0  0
    3.8468    1.8576   -3.5654 N   0  0  0  0  0  0  0  0  0  0  0  0
    2.9183    1.2585   -2.7570 C   0  0  0  0  0  0  0  0  0  0  0  0
    1.6048    1.7860   -2.6711 C   0  0  0  0  0  0  0  0  0  0  0  0
    1.2993    2.9322   -3.4590 C   0  0  0  0  0  0  0  0  0  0  0  0
    0.1890    3.4317   -3.4405 O   0  0  0  0  0  0  0  0  0  0  0  0
    0.8787    0.9517   -1.7137 C   0  0  0  0  0  0  0  0  0  0  0  0
   -0.5349    1.1434   -1.2348 C   0  0  0  0  0  0  0  0  0  0  0  0
   -1.4505    1.1308   -2.3841 N   0  0  0  0  0  0  0  0  0  0  0  0
    1.7358   -0.0024   -1.3289 C   0  0  0  0  0  0  0  0  0  0  0  0
    2.9507    0.1782   -1.9353 N   0  0  0  0  0  0  0  0  0  0  0  0
    4.4985    3.4952   -5.0987 N   0  0  0  0  0  0  0  0  0  0  0  0
  1  6  1  0  0  0  0
  2  1  1  0  0  0  0
  2  3  2  0  0  0  0
  3  4  1  0  0  0  0
  4  5  2  0  0  0  0
  4 12  1  0  0  0  0
  5  8  1  0  0  0  0
  6  7  2  0  0  0  0
  6  5  1  0  0  0  0
  8 11  2  0  0  0  0
  8  9  1  0  0  0  0
 10  9  1  0  0  0  0
 12 11  1  0  0  0  0
 13  2  1  0  0  0  0
M  END
>  <CHROM.1>
57.92189738,-88.26078116,1.80327148,1.92415124,-2.97412805,0.67907200,0.19388046
-0.67469652

>  <Name>
lig.pdb

>  <RI>
9.54411e+06

>  <Rbt.Current_Directory>
/home/itssahil/PROJECTS/Mol_Feturizer/New_Systems/rnas/2l1v

>  <Rbt.Executable>
rbdock ($Id: //depot/dev/client3/rdock/2013.1/src/exe/rbdock.cxx#4 $)

>  <Rbt.Library>
libRbt.so (2013.1, Build901 2013/11/27)

>  <Rbt.Parameter_File>
/export/apps/rDock/src/rDock_2013.1_src/data/scripts/dock_solv.prm

>  <Rbt.Receptor>
prm/pocket_docking_6.prm

>  <SCORE>
-63.5812

>  <SCORE.INTER>
-64.2564

>  <SCORE.INTER.CONST>
1

>  <SCORE.INTER.POLAR>
-7.02815

>  <SCORE.INTER.ROT>
2

>  <SCORE.INTER.SOLV>
17.9706

>  <SCORE.INTER.VDW>
-30.3339

>  <SCORE.INTER.norm>
-4.9428

>  <SCORE.INTRA>
0.675135

>  <SCORE.INTRA.DIHEDRAL>
0.0795866

>  <SCORE.INTRA.DIHEDRAL.0>
1.43995

>  <SCORE.INTRA.POLAR>
0.187321

>  <SCORE.INTRA.POLAR.0>
-0.272593

>  <SCORE.INTRA.REPUL>
0

>  <SCORE.INTRA.REPUL.0>
0

>  <SCORE.INTRA.SOLV>
-0.0212008

>  <SCORE.INTRA.SOLV.lig_0>
-22.6728

>  <SCORE.INTRA.VDW>
0.00905073

>  <SCORE.INTRA.VDW.0>
-0.754459

>  <SCORE.INTRA.norm>
0.0519335

>  <SCORE.RESTR>
0

>  <SCORE.RESTR.CAVITY>
0

>  <SCORE.RESTR.norm>
0

>  <SCORE.SYSTEM>
0

>  <SCORE.SYSTEM.CONST>
0

>  <SCORE.SYSTEM.DIHEDRAL>
0

>  <SCORE.SYSTEM.SOLV>
0

>  <SCORE.SYSTEM.norm>
0

>  <SCORE.heavy>
13

>  <SCORE.norm>
-4.89086

>  <RMSD>
0.511

$$$$
lig.pdb
 OpenBabel11021811453D
libRbt.so/2013.1/901 2013/11/27
 13 14  0  0  0  0  0  0  0  0999 V2000
    2.2851    3.4715   -4.2431 N   0  0  0  0  0  0  0  0  0  0  0  0
    3.5472    2.9322   -4.2934 C   0  0  0  0  0  0  0  0  0  0  0  0
    3.8460    1.8597   -3.5684 N   0  0  0  0  0  0  0  0  0  0  0  0
    2.9177    1.2616   -2.7592 C   0  0  0  0  0  0  0  0  0  0  0  0
    1.6053    1.7916   -2.6708 C   0  0  0  0  0  0  0  0  0  0  0  0
    1.3008    2.9391   -3.4571 C   0  0  0  0  0  0  0  0  0  0  0  0
    0.1914    3.4407   -3.4364 O   0  0  0  0  0  0  0  0  0  0  0  0
    0.8791    0.9577   -1.7132 C   0  0  0  0  0  0  0  0  0  0  0  0
   -0.5334    1.1516   -1.2319 C   0  0  0  0  0  0  0  0  0  0  0  0
   -1.4522    1.1280   -2.3785 N   0  0  0  0  0  0  0  0  0  0  0  0
    1.7350    0.0015   -1.3306 C   0  0  0  0  0  0  0  0  0  0  0  0
    2.9492    0.1804   -1.9386 N   0  0  0  0  0  0  0  0  0  0  0  0
    4.4985    3.4976   -5.1011 N   0  0  0  0  0  0  0  0  0  0  0  0
  1  6  1  0  0  0  0
  2  1  1  0  0  0  0
  2  3  2  0  0  0  0
  3  4  1  0  0  0  0
  4  5  2  0  0  0  0
  4 12  1  0  0  0  0
  5  8  1  0  0  0  0
  6  7  2  0  0  0  0
  6  5  1  0  0  0  0
  8 11  2  0  0  0  0
  8  9  1  0  0  0  0
 10  9  1  0  0  0  0
 12 11  1  0  0  0  0
 13  2  1  0  0  0  0
M  END
>  <CHROM.1>
58.49851648,-88.00014481,1.80343608,1.92831394,-2.97386920,0.67922516,0.19561308
-0.67332320

>  <Name>
lig.pdb

>  <RI>
4.17264e+07

>  <Rbt.Current_Directory>
/home/itssahil/PROJECTS/Mol_Feturizer/New_Systems/rnas/2l1v

>  <Rbt.Executable>
rbdock ($Id: //depot/dev/client3/rdock/2013.1/src/exe/rbdock.cxx#4 $)

>  <Rbt.Library>
libRbt.so (2013.1, Build901 2013/11/27)

>  <Rbt.Parameter_File>
/export/apps/rDock/src/rDock_2013.1_src/data/scripts/dock_solv.prm

>  <Rbt.Receptor>
prm/blind_docking_20.prm

>  <SCORE>
-63.6157

>  <SCORE.INTER>
-64.3275

>  <SCORE.INTER.CONST>
1

>  <SCORE.INTER.POLAR>
-7.03918

>  <SCORE.INTER.ROT>
2

>  <SCORE.INTER.SOLV>
17.9794

>  <SCORE.INTER.VDW>
-30.3475

>  <SCORE.INTER.norm>
-4.94827

>  <SCORE.INTRA>
0.711457

>  <SCORE.INTRA.DIHEDRAL>
0.0748132

>  <SCORE.INTRA.DIHEDRAL.0>
1.43995

>  <SCORE.INTRA.POLAR>
0.199402

>  <SCORE.INTRA.POLAR.0>
-0.272593

>  <SCORE.INTRA.REPUL>
0

>  <SCORE.INTRA.REPUL.0>
0

>  <SCORE.INTRA.SOLV>
-0.0263506

>  <SCORE.INTRA.SOLV.lig_0>
-22.6728

>  <SCORE.INTRA.VDW>
0.00925832

>  <SCORE.INTRA.VDW.0>
-0.754459

>  <SCORE.INTRA.norm>
0.0547274

>  <SCORE.RESTR>
0.000293156

>  <SCORE.RESTR.CAVITY>
0.000293156

>  <SCORE.RESTR.norm>
2.25504e-05

>  <SCORE.SYSTEM>
0

>  <SCORE.SYSTEM.CONST>
0

>  <SCORE.SYSTEM.DIHEDRAL>
0

>  <SCORE.SYSTEM.SOLV>
0

>  <SCORE.SYSTEM.norm>
0

>  <SCORE.heavy>
13

>  <SCORE.norm>
-4.89352

>  <RMSD>
0.512

$$$$
lig.pdb
 OpenBabel11021811453D
libRbt.so/2013.1/901 2013/11/27
 13 14  0  0  0  0  0  0  0  0999 V2000
    2.2826    3.4675   -4.2462 N   0  0  0  0  0  0  0  0  0  0  0  0
    3.5462    2.9314   -4.2908 C   0  0  0  0  0  0  0  0  0  0  0  0
    3.8462    1.8630   -3.5603 N   0  0  0  0  0  0  0  0  0  0  0  0
    2.9175    1.2660   -2.7507 C   0  0  0  0  0  0  0  0  0  0  0  0
    1.6034    1.7927   -2.6680 C   0  0  0  0  0  0  0  0  0  0  0  0
    1.2977    2.9358   -3.4602 C   0  0  0  0  0  0  0  0  0  0  0  0
    0.1869    3.4345   -3.4446 O   0  0  0  0  0  0  0  0  0  0  0  0
    0.8771    0.9612   -1.7083 C   0  0  0  0  0  0  0  0  0  0  0  0
   -0.5371    1.1534   -1.2315 C   0  0  0  0  0  0  0  0  0  0  0  0
   -1.4522    1.1296   -2.3811 N   0  0  0  0  0  0  0  0  0  0  0  0
    1.7346    0.0092   -1.3193 C   0  0  0  0  0  0  0  0  0  0  0  0
    2.9499    0.1887   -1.9251 N   0  0  0  0  0  0  0  0  0  0  0  0
    4.4980    3.4958   -5.0987 N   0  0  0  0  0  0  0  0  0  0  0  0
  1  6  1  0  0  0  0
  2  1  1  0  0  0  0
  2  3  2  0  0  0  0
  3  4  1  0  0  0  0
  4  5  2  0  0  0  0
  4 12  1  0  0  0  0
  5  8  1  0  0  0  0
  6  7  2  0  0  0  0
  6  5  1  0  0  0  0
  8 11  2  0  0  0  0
  8  9  1  0  0  0  0
 10  9  1  0  0  0  0
 12 11  1  0  0  0  0
 13  2  1  0  0  0  0
M  END
>  <CHROM.1>
58.18541175,-88.15061568,1.80201179,1.92936466,-2.97119991,0.67943381,0.19227097
-0.67811657

>  <Name>
lig.pdb

>  <RI>
2.7104e+07

>  <Rbt.Current_Directory>
/home/itssahil/PROJECTS/Mol_Feturizer/New_Systems/rnas/2l1v

>  <Rbt.Executable>
rbdock ($Id: //depot/dev/client3/rdock/2013.1/src/exe/rbdock.cxx#4 $)

>  <Rbt.Library>
libRbt.so (2013.1, Build901 2013/11/27)

>  <Rbt.Parameter_File>
/export/apps/rDock/src/rDock_2013.1_src/data/scripts/dock_solv.prm

>  <Rbt.Receptor>
prm/pocket_docking_8.prm

>  <SCORE>
-63.5904

>  <SCORE.INTER>
-64.2825

>  <SCORE.INTER.CONST>
1

>  <SCORE.INTER.POLAR>
-7.04016

>  <SCORE.INTER.ROT>
2

>  <SCORE.INTER.SOLV>
17.9654

>  <SCORE.INTER.VDW>
-30.3096

>  <SCORE.INTER.norm>
-4.94481

>  <SCORE.INTRA>
0.692068

>  <SCORE.INTRA.DIHEDRAL>
0.0772883

>  <SCORE.INTRA.DIHEDRAL.0>
1.43995

>  <SCORE.INTRA.POLAR>
0.192962

>  <SCORE.INTRA.POLAR.0>
-0.272593

>  <SCORE.INTRA.REPUL>
0

>  <SCORE.INTRA.REPUL.0>
0

>  <SCORE.INTRA.SOLV>
-0.0235542

>  <SCORE.INTRA.SOLV.lig_0>
-22.6728

>  <SCORE.INTRA.VDW>
0.00912851

>  <SCORE.INTRA.VDW.0>
-0.754459

>  <SCORE.INTRA.norm>
0.053236

>  <SCORE.RESTR>
8.00681e-05

>  <SCORE.RESTR.CAVITY>
8.00681e-05

>  <SCORE.RESTR.norm>
6.15908e-06

>  <SCORE.SYSTEM>
0

>  <SCORE.SYSTEM.CONST>
0

>  <SCORE.SYSTEM.DIHEDRAL>
0

>  <SCORE.SYSTEM.SOLV>
0

>  <SCORE.SYSTEM.norm>
0

>  <SCORE.heavy>
13

>  <SCORE.norm>
-4.89157

>  <RMSD>
0.516

$$$$
lig.pdb
 OpenBabel11021811453D
libRbt.so/2013.1/901 2013/11/27
 13 14  0  0  0  0  0  0  0  0999 V2000
    2.2852    3.4767   -4.2360 N   0  0  0  0  0  0  0  0  0  0  0  0
    3.5461    2.9350   -4.2909 C   0  0  0  0  0  0  0  0  0  0  0  0
    3.8450    1.8608   -3.5684 N   0  0  0  0  0  0  0  0  0  0  0  0
    2.9179    1.2634   -2.7573 C   0  0  0  0  0  0  0  0  0  0  0  0
    1.6068    1.7958   -2.6641 C   0  0  0  0  0  0  0  0  0  0  0  0
    1.3022    2.9450   -3.4478 C   0  0  0  0  0  0  0  0  0  0  0  0
    0.1939    3.4488   -3.4230 O   0  0  0  0  0  0  0  0  0  0  0  0
    0.8819    0.9619   -1.7055 C   0  0  0  0  0  0  0  0  0  0  0  0
   -0.5288    1.1579   -1.2197 C   0  0  0  0  0  0  0  0  0  0  0  0
   -1.4525    1.1236   -2.3620 N   0  0  0  0  0  0  0  0  0  0  0  0
    1.7370    0.0035   -1.3270 C   0  0  0  0  0  0  0  0  0  0  0  0
    2.9498    0.1809   -1.9384 N   0  0  0  0  0  0  0  0  0  0  0  0
    4.4961    3.4997   -5.1006 N   0  0  0  0  0  0  0  0  0  0  0  0
  1  6  1  0  0  0  0
  2  1  1  0  0  0  0
  2  3  2  0  0  0  0
  3  4  1  0  0  0  0
  4  5  2  0  0  0  0
  4 12  1  0  0  0  0
  5  8  1  0  0  0  0
  6  7  2  0  0  0  0
  6  5  1  0  0  0  0
  8 11  2  0  0  0  0
  8  9  1  0  0  0  0
 10  9  1  0  0  0  0
 12 11  1  0  0  0  0
 13  2  1  0  0  0  0
M  END
>  <CHROM.1>
59.09252549,-88.02954679,1.80419922,1.93123699,-2.96743949,0.68029886,0.19857126
-0.67164749

>  <Name>
lig.pdb

>  <RI>
2.7104e+07

>  <Rbt.Current_Directory>
/home/itssahil/PROJECTS/Mol_Feturizer/New_Systems/rnas/2l1v

>  <Rbt.Executable>
rbdock ($Id: //depot/dev/client3/rdock/2013.1/src/exe/rbdock.cxx#4 $)

>  <Rbt.Library>
libRbt.so (2013.1, Build901 2013/11/27)

>  <Rbt.Parameter_File>
/export/apps/rDock/src/rDock_2013.1_src/data/scripts/dock_solv.prm

>  <Rbt.Receptor>
prm/pocket_docking_8.prm

>  <SCORE>
-63.6162

>  <SCORE.INTER>
-64.3748

>  <SCORE.INTER.CONST>
1

>  <SCORE.INTER.POLAR>
-7.03433

>  <SCORE.INTER.ROT>
2

>  <SCORE.INTER.SOLV>
17.9664

>  <SCORE.INTER.VDW>
-30.3909

>  <SCORE.INTER.norm>
-4.95191

>  <SCORE.INTRA>
0.758613

>  <SCORE.INTRA.DIHEDRAL>
0.0710937

>  <SCORE.INTRA.DIHEDRAL.0>
1.43995

>  <SCORE.INTRA.POLAR>
0.214437

>  <SCORE.INTRA.POLAR.0>
-0.272593

>  <SCORE.INTRA.REPUL>
0

>  <SCORE.INTRA.REPUL.0>
0

>  <SCORE.INTRA.SOLV>
-0.0318249

>  <SCORE.INTRA.SOLV.lig_0>
-22.6728

>  <SCORE.INTRA.VDW>
0.00989315

>  <SCORE.INTRA.VDW.0>
-0.754459

>  <SCORE.INTRA.norm>
0.0583549

>  <SCORE.RESTR>
0

>  <SCORE.RESTR.CAVITY>
0

>  <SCORE.RESTR.norm>
0

>  <SCORE.SYSTEM>
0

>  <SCORE.SYSTEM.CONST>
0

>  <SCORE.SYSTEM.DIHEDRAL>
0

>  <SCORE.SYSTEM.SOLV>
0

>  <SCORE.SYSTEM.norm>
0

>  <SCORE.heavy>
13

>  <SCORE.norm>
-4.89356

>  <RMSD>
0.516

$$$$
lig.pdb
 OpenBabel11021811453D
libRbt.so/2013.1/901 2013/11/27
 13 14  0  0  0  0  0  0  0  0999 V2000
    2.2886    3.4762   -4.2410 N   0  0  0  0  0  0  0  0  0  0  0  0
    3.5519    2.9395   -4.2897 C   0  0  0  0  0  0  0  0  0  0  0  0
    3.8534    1.8703   -3.5611 N   0  0  0  0  0  0  0  0  0  0  0  0
    2.9267    1.2730   -2.7494 C   0  0  0  0  0  0  0  0  0  0  0  0
    1.6131    1.8003   -2.6624 C   0  0  0  0  0  0  0  0  0  0  0  0
    1.3058    2.9443   -3.4526 C   0  0  0  0  0  0  0  0  0  0  0  0
    0.1953    3.4435   -3.4334 O   0  0  0  0  0  0  0  0  0  0  0  0
    0.8892    0.9682   -1.7015 C   0  0  0  0  0  0  0  0  0  0  0  0
   -0.5236    1.1606   -1.2204 C   0  0  0  0  0  0  0  0  0  0  0  0
   -1.4435    1.1232   -2.3658 N   0  0  0  0  0  0  0  0  0  0  0  0
    1.7474    0.0154   -1.3159 C   0  0  0  0  0  0  0  0  0  0  0  0
    2.9610    0.1948   -1.9250 N   0  0  0  0  0  0  0  0  0  0  0  0
    4.5017    3.5042   -5.0998 N   0  0  0  0  0  0  0  0  0  0  0  0
  1  6  1  0  0  0  0
  2  1  1  0  0  0  0
  2  3  2  0  0  0  0
  3  4  1  0  0  0  0
  4  5  2  0  0  0  0
  4 12  1  0  0  0  0
  5  8  1  0  0  0  0
  6  7  2  0  0  0  0
  6  5  1  0  0  0  0
  8 11  2  0  0  0  0
  8  9  1  0  0  0  0
 10  9  1  0  0  0  0
 12 11  1  0  0  0  0
 13  2  1  0  0  0  0
M  END
>  <CHROM.1>
58.81741007,-87.51498722,1.81082155,1.93570128,-2.96595401,0.68166314,0.19411797
-0.67715114

>  <Name>
lig.pdb

>  <RI>
9.54411e+06

>  <Rbt.Current_Directory>
/home/itssahil/PROJECTS/Mol_Feturizer/New_Systems/rnas/2l1v

>  <Rbt.Executable>
rbdock ($Id: //depot/dev/client3/rdock/2013.1/src/exe/rbdock.cxx#4 $)

>  <Rbt.Library>
libRbt.so (2013.1, Build901 2013/11/27)

>  <Rbt.Parameter_File>
/export/apps/rDock/src/rDock_2013.1_src/data/scripts/dock_solv.prm

>  <Rbt.Receptor>
prm/pocket_docking_6.prm

>  <SCORE>
-63.5977

>  <SCORE.INTER>
-64.3225

>  <SCORE.INTER.CONST>
1

>  <SCORE.INTER.POLAR>
-7.05246

>  <SCORE.INTER.ROT>
2

>  <SCORE.INTER.SOLV>
17.9403

>  <SCORE.INTER.VDW>
-30.2869

>  <SCORE.INTER.norm>
-4.94789

>  <SCORE.INTRA>
0.719838

>  <SCORE.INTRA.DIHEDRAL>
0.072387

>  <SCORE.INTRA.DIHEDRAL.0>
1.43995

>  <SCORE.INTRA.POLAR>
0.20264

>  <SCORE.INTRA.POLAR.0>
-0.272593

>  <SCORE.INTRA.REPUL>
0

>  <SCORE.INTRA.REPUL.0>
0

>  <SCORE.INTRA.SOLV>
-0.0290594

>  <SCORE.INTRA.SOLV.lig_0>
-22.6728

>  <SCORE.INTRA.VDW>
0.00919752

>  <SCORE.INTRA.VDW.0>
-0.754459

>  <SCORE.INTRA.norm>
0.0553721

>  <SCORE.RESTR>
0.00498971

>  <SCORE.RESTR.CAVITY>
0.00498971

>  <SCORE.RESTR.norm>
0.000383824

>  <SCORE.SYSTEM>
0

>  <SCORE.SYSTEM.CONST>
0

>  <SCORE.SYSTEM.DIHEDRAL>
0

>  <SCORE.SYSTEM.SOLV>
0

>  <SCORE.SYSTEM.norm>
0

>  <SCORE.heavy>
13

>  <SCORE.norm>
-4.89213

>  <RMSD>
0.520

$$$$
lig.pdb
 OpenBabel11021811453D
libRbt.so/2013.1/901 2013/11/27
 13 14  0  0  0  0  0  0  0  0999 V2000
    2.3269    3.4783   -4.2700 N   0  0  0  0  0  0  0  0  0  0  0  0
    3.6015    2.9959   -4.4395 C   0  0  0  0  0  0  0  0  0  0  0  0
    3.9420    1.8139   -3.9376 N   0  0  0  0  0  0  0  0  0  0  0  0
    3.0451    1.0451   -3.2456 C   0  0  0  0  0  0  0  0  0  0  0  0
    1.7211    1.5096   -3.0396 C   0  0  0  0  0  0  0  0  0  0  0  0
    1.3718    2.7767   -3.5873 C   0  0  0  0  0  0  0  0  0  0  0  0
    0.2503    3.2323   -3.4560 O   0  0  0  0  0  0  0  0  0  0  0  0
    1.0353    0.4870   -2.2498 C   0  0  0  0  0  0  0  0  0  0  0  0
   -0.3725    0.5437   -1.7214 C   0  0  0  0  0  0  0  0  0  0  0  0
   -0.6993    1.9239   -1.3370 N   0  0  0  0  0  0  0  0  0  0  0  0
    1.9230   -0.4990   -2.0691 C   0  0  0  0  0  0  0  0  0  0  0  0
    3.1205   -0.1716   -2.6478 N   0  0  0  0  0  0  0  0  0  0  0  0
    4.5223    3.7330   -5.1367 N   0  0  0  0  0  0  0  0  0  0  0  0
  1  6  1  0  0  0  0
  2  1  1  0  0  0  0
  2  3  2  0  0  0  0
  3  4  1  0  0  0  0
  4  5  2  0  0  0  0
  4 12  1  0  0  0  0
  5  8  1  0  0  0  0
  6  7  2  0  0  0  0
  6  5  1  0  0  0  0
  8 11  2  0  0  0  0
  8  9  1  0  0  0  0
 10  9  1  0  0  0  0
 12 11  1  0  0  0  0
 13  2  1  0  0  0  0
M  END
>  <CHROM.1>
-35.44877053,65.22937132,1.96734738,1.82048900,-3.17351209,0.69125071,0.38566337
-0.47026733

>  <Name>
lig.pdb

>  <RI>
9.54411e+06

>  <Rbt.Current_Directory>
/home/itssahil/PROJECTS/Mol_Feturizer/New_Systems/rnas/2l1v

>  <Rbt.Executable>
rbdock ($Id: //depot/dev/client3/rdock/2013.1/src/exe/rbdock.cxx#4 $)

>  <Rbt.Library>
libRbt.so (2013.1, Build901 2013/11/27)

>  <Rbt.Parameter_File>
/export/apps/rDock/src/rDock_2013.1_src/data/scripts/dock_solv.prm

>  <Rbt.Receptor>
prm/pocket_docking_6.prm

>  <SCORE>
-50.0977

>  <SCORE.INTER>
-49.4236

>  <SCORE.INTER.CONST>
1

>  <SCORE.INTER.POLAR>
-4.95763

>  <SCORE.INTER.ROT>
2

>  <SCORE.INTER.SOLV>
18.7136

>  <SCORE.INTER.VDW>
-27.5949

>  <SCORE.INTER.norm>
-3.80182

>  <SCORE.INTRA>
-0.920411

>  <SCORE.INTRA.DIHEDRAL>
0.720644

>  <SCORE.INTRA.DIHEDRAL.0>
1.43995

>  <SCORE.INTRA.POLAR>
-0.464513

>  <SCORE.INTRA.POLAR.0>
-0.272593

>  <SCORE.INTRA.REPUL>
0

>  <SCORE.INTRA.REPUL.0>
0

>  <SCORE.INTRA.SOLV>
0.18342

>  <SCORE.INTRA.SOLV.lig_0>
-22.6728

>  <SCORE.INTRA.VDW>
0.206901

>  <SCORE.INTRA.VDW.0>
-0.754459

>  <SCORE.INTRA.norm>
-0.0708008

>  <SCORE.RESTR>
0.246383

>  <SCORE.RESTR.CAVITY>
0.246383

>  <SCORE.RESTR.norm>
0.0189526

>  <SCORE.SYSTEM>
0

>  <SCORE.SYSTEM.CONST>
0

>  <SCORE.SYSTEM.DIHEDRAL>
0

>  <SCORE.SYSTEM.SOLV>
0

>  <SCORE.SYSTEM.norm>
0

>  <SCORE.heavy>
13

>  <SCORE.norm>
-3.85367

>  <RMSD>
0.601

$$$$
lig.pdb
 OpenBabel11021811453D
libRbt.so/2013.1/901 2013/11/27
 13 14  0  0  0  0  0  0  0  0999 V2000
    2.3291    3.4738   -4.2630 N   0  0  0  0  0  0  0  0  0  0  0  0
    3.6035    2.9928   -4.4374 C   0  0  0  0  0  0  0  0  0  0  0  0
    3.9463    1.8096   -3.9397 N   0  0  0  0  0  0  0  0  0  0  0  0
    3.0518    1.0382   -3.2473 C   0  0  0  0  0  0  0  0  0  0  0  0
    1.7280    1.5012   -3.0365 C   0  0  0  0  0  0  0  0  0  0  0  0
    1.3763    2.7697   -3.5796 C   0  0  0  0  0  0  0  0  0  0  0  0
    0.2548    3.2241   -3.4440 O   0  0  0  0  0  0  0  0  0  0  0  0
    1.0451    0.4760   -2.2476 C   0  0  0  0  0  0  0  0  0  0  0  0
   -0.3613    0.5302   -1.7152 C   0  0  0  0  0  0  0  0  0  0  0  0
   -0.6835    1.9067   -1.3139 N   0  0  0  0  0  0  0  0  0  0  0  0
    1.9340   -0.5099   -2.0721 C   0  0  0  0  0  0  0  0  0  0  0  0
    3.1296   -0.1801   -2.6532 N   0  0  0  0  0  0  0  0  0  0  0  0
    4.5219    3.7324   -5.1350 N   0  0  0  0  0  0  0  0  0  0  0  0
  1  6  1  0  0  0  0
  2  1  1  0  0  0  0
  2  3  2  0  0  0  0
  3  4  1  0  0  0  0
  4  5  2  0  0  0  0
  4 12  1  0  0  0  0
  5  8  1  0  0  0  0
  6  7  2  0  0  0  0
  6  5  1  0  0  0  0
  8 11  2  0  0  0  0
  8  9  1  0  0  0  0
 10  9  1  0  0  0  0
 12 11  1  0  0  0  0
 13  2  1  0  0  0  0
M  END
>  <CHROM.1>
-35.99545290,-116.52215267,1.97373427,1.81237503,-3.16907986,0.69332466,0.38868474
-0.46824012

>  <Name>
lig.pdb

>  <RI>
2.50021e+07

>  <Rbt.Current_Directory>
/home/itssahil/PROJECTS/Mol_Feturizer/New_Systems/rnas/2l1v

>  <Rbt.Executable>
rbdock ($Id: //depot/dev/client3/rdock/2013.1/src/exe/rbdock.cxx#4 $)

>  <Rbt.Library>
libRbt.so (2013.1, Build901 2013/11/27)

>  <Rbt.Parameter_File>
/export/apps/rDock/src/rDock_2013.1_src/data/scripts/dock_solv.prm

>  <Rbt.Receptor>
prm/pocket_docking_5.prm

>  <SCORE>
-49.9166

>  <SCORE.INTER>
-49.2827

>  <SCORE.INTER.CONST>
1

>  <SCORE.INTER.POLAR>
-4.91582

>  <SCORE.INTER.ROT>
2

>  <SCORE.INTER.SOLV>
18.6734

>  <SCORE.INTER.VDW>
-27.6269

>  <SCORE.INTER.norm>
-3.79098

>  <SCORE.INTRA>
-0.878352

>  <SCORE.INTRA.DIHEDRAL>
0.728044

>  <SCORE.INTRA.DIHEDRAL.0>
1.43995

>  <SCORE.INTRA.POLAR>
-0.447931

>  <SCORE.INTRA.POLAR.0>
-0.272593

>  <SCORE.INTRA.REPUL>
0

>  <SCORE.INTRA.REPUL.0>
0

>  <SCORE.INTRA.SOLV>
0.17661

>  <SCORE.INTRA.SOLV.lig_0>
-22.6728

>  <SCORE.INTRA.VDW>
0.192288

>  <SCORE.INTRA.VDW.0>
-0.754459

>  <SCORE.INTRA.norm>
-0.0675655

>  <SCORE.RESTR>
0.244464

>  <SCORE.RESTR.CAVITY>
0.244464

>  <SCORE.RESTR.norm>
0.0188049

>  <SCORE.SYSTEM>
0

>  <SCORE.SYSTEM.CONST>
0

>  <SCORE.SYSTEM.DIHEDRAL>
0

>  <SCORE.SYSTEM.SOLV>
0

>  <SCORE.SYSTEM.norm>
0

>  <SCORE.heavy>
13

>  <SCORE.norm>
-3.83974

>  <RMSD>
0.607

$$$$
lig.pdb
 OpenBabel11021811453D
libRbt.so/2013.1/901 2013/11/27
 13 14  0  0  0  0  0  0  0  0999 V2000
    2.2652    3.6387   -4.4042 N   0  0  0  0  0  0  0  0  0  0  0  0
    3.5180    3.0835   -4.4971 C   0  0  0  0  0  0  0  0  0  0  0  0
    3.7994    1.9554   -3.8543 N   0  0  0  0  0  0  0  0  0  0  0  0
    2.8619    1.3145   -3.0895 C   0  0  0  0  0  0  0  0  0  0  0  0
    1.5587    1.8584   -2.9592 C   0  0  0  0  0  0  0  0  0  0  0  0
    1.2728    3.0659   -3.6576 C   0  0  0  0  0  0  0  0  0  0  0  0
    0.1721    3.5832   -3.5973 O   0  0  0  0  0  0  0  0  0  0  0  0
    0.8195    0.9681   -2.0643 C   0  0  0  0  0  0  0  0  0  0  0  0
   -0.5891    1.1494   -1.5669 C   0  0  0  0  0  0  0  0  0  0  0  0
   -1.0961   -0.1280   -1.0467 N   0  0  0  0  0  0  0  0  0  0  0  0
    1.6595   -0.0280   -1.7556 C   0  0  0  0  0  0  0  0  0  0  0  0
    2.8760    0.1751   -2.3514 N   0  0  0  0  0  0  0  0  0  0  0  0
    4.4779    3.6912   -5.2628 N   0  0  0  0  0  0  0  0  0  0  0  0
  1  6  1  0  0  0  0
  2  1  1  0  0  0  0
  2  3  2  0  0  0  0
  3  4  1  0  0  0  0
  4  5  2  0  0  0  0
  4 12  1  0  0  0  0
  5  8  1  0  0  0  0
  6  7  2  0  0  0  0
  6  5  1  0  0  0  0
  8 11  2  0  0  0  0
  8  9  1  0  0  0  0
 10  9  1  0  0  0  0
 12 11  1  0  0  0  0
 13  2  1  0  0  0  0
M  END
>  <CHROM.1>
162.66352750,82.20562574,1.79766469,1.88742854,-3.09672516,0.82330786,0.28665920
-0.57103767

>  <Name>
lig.pdb

>  <RI>
1.459e+07

>  <Rbt.Current_Directory>
/home/itssahil/PROJECTS/Mol_Feturizer/New_Systems/rnas/2l1v

>  <Rbt.Executable>
rbdock ($Id: //depot/dev/client3/rdock/2013.1/src/exe/rbdock.cxx#4 $)

>  <Rbt.Library>
libRbt.so (2013.1, Build901 2013/11/27)

>  <Rbt.Parameter_File>
/export/apps/rDock/src/rDock_2013.1_src/data/scripts/dock_solv.prm

>  <Rbt.Receptor>
prm/pocket_docking_2.prm

>  <SCORE>
-59.6318

>  <SCORE.INTER>
-61.0484

>  <SCORE.INTER.CONST>
1

>  <SCORE.INTER.POLAR>
-5.88195

>  <SCORE.INTER.ROT>
2

>  <SCORE.INTER.SOLV>
17.3712

>  <SCORE.INTER.VDW>
-31.8162

>  <SCORE.INTER.norm>
-4.69603

>  <SCORE.INTRA>
1.41666

>  <SCORE.INTRA.DIHEDRAL>
0.402175

>  <SCORE.INTRA.DIHEDRAL.0>
1.43995

>  <SCORE.INTRA.POLAR>
0.272593

>  <SCORE.INTRA.POLAR.0>
-0.272593

>  <SCORE.INTRA.REPUL>
0

>  <SCORE.INTRA.REPUL.0>
0

>  <SCORE.INTRA.SOLV>
-0.504101

>  <SCORE.INTRA.SOLV.lig_0>
-22.6728

>  <SCORE.INTRA.VDW>
0.54081

>  <SCORE.INTRA.VDW.0>
-0.754459

>  <SCORE.INTRA.norm>
0.108974

>  <SCORE.RESTR>
0

>  <SCORE.RESTR.CAVITY>
0

>  <SCORE.RESTR.norm>
0

>  <SCORE.SYSTEM>
0

>  <SCORE.SYSTEM.CONST>
0

>  <SCORE.SYSTEM.DIHEDRAL>
0

>  <SCORE.SYSTEM.SOLV>
0

>  <SCORE.SYSTEM.norm>
0

>  <SCORE.heavy>
13

>  <SCORE.norm>
-4.58706

>  <RMSD>
0.628

$$$$
lig.pdb
 OpenBabel11021811453D
libRbt.so/2013.1/901 2013/11/27
 13 14  0  0  0  0  0  0  0  0999 V2000
    2.2725    3.6401   -4.3911 N   0  0  0  0  0  0  0  0  0  0  0  0
    3.5223    3.0801   -4.4930 C   0  0  0  0  0  0  0  0  0  0  0  0
    3.8015    1.9465   -3.8589 N   0  0  0  0  0  0  0  0  0  0  0  0
    2.8645    1.3047   -3.0944 C   0  0  0  0  0  0  0  0  0  0  0  0
    1.5642    1.8534   -2.9549 C   0  0  0  0  0  0  0  0  0  0  0  0
    1.2807    3.0668   -3.6441 C   0  0  0  0  0  0  0  0  0  0  0  0
    0.1825    3.5884   -3.5757 O   0  0  0  0  0  0  0  0  0  0  0  0
    0.8249    0.9603   -2.0628 C   0  0  0  0  0  0  0  0  0  0  0  0
   -0.5807    1.1445   -1.5582 C   0  0  0  0  0  0  0  0  0  0  0  0
   -1.0847   -0.1299   -1.0278 N   0  0  0  0  0  0  0  0  0  0  0  0
    1.6618   -0.0414   -1.7643 C   0  0  0  0  0  0  0  0  0  0  0  0
    2.8767    0.1604   -2.3639 N   0  0  0  0  0  0  0  0  0  0  0  0
    4.4817    3.6887   -5.2587 N   0  0  0  0  0  0  0  0  0  0  0  0
  1  6  1  0  0  0  0
  2  1  1  0  0  0  0
  2  3  2  0  0  0  0
  3  4  1  0  0  0  0
  4  5  2  0  0  0  0
  4 12  1  0  0  0  0
  5  8  1  0  0  0  0
  6  7  2  0  0  0  0
  6  5  1  0  0  0  0
  8 11  2  0  0  0  0
  8  9  1  0  0  0  0
 10  9  1  0  0  0  0
 12 11  1  0  0  0  0
 13  2  1  0  0  0  0
M  END
>  <CHROM.1>
163.41793465,-95.98676226,1.80303995,1.88282704,-3.09162345,0.82217907,0.29385737
-0.56478014

>  <Name>
lig.pdb

>  <RI>
1.77584e+07

>  <Rbt.Current_Directory>
/home/itssahil/PROJECTS/Mol_Feturizer/New_Systems/rnas/2l1v

>  <Rbt.Executable>
rbdock ($Id: //depot/dev/client3/rdock/2013.1/src/exe/rbdock.cxx#4 $)

>  <Rbt.Library>
libRbt.so (2013.1, Build901 2013/11/27)

>  <Rbt.Parameter_File>
/export/apps/rDock/src/rDock_2013.1_src/data/scripts/dock_solv.prm

>  <Rbt.Receptor>
prm/blind_docking_80.prm

>  <SCORE>
-59.5914

>  <SCORE.INTER>
-61.0595

>  <SCORE.INTER.CONST>
1

>  <SCORE.INTER.POLAR>
-5.87668

>  <SCORE.INTER.ROT>
2

>  <SCORE.INTER.SOLV>
17.3557

>  <SCORE.INTER.VDW>
-31.836

>  <SCORE.INTER.norm>
-4.69689

>  <SCORE.INTRA>
1.46812

>  <SCORE.INTRA.DIHEDRAL>
0.493518

>  <SCORE.INTRA.DIHEDRAL.0>
1.43995

>  <SCORE.INTRA.POLAR>
0.272593

>  <SCORE.INTRA.POLAR.0>
-0.272593

>  <SCORE.INTRA.REPUL>
0

>  <SCORE.INTRA.REPUL.0>
0

>  <SCORE.INTRA.SOLV>
-0.504945

>  <SCORE.INTRA.SOLV.lig_0>
-22.6728

>  <SCORE.INTRA.VDW>
0.547019

>  <SCORE.INTRA.VDW.0>
-0.754459

>  <SCORE.INTRA.norm>
0.112932

>  <SCORE.RESTR>
0

>  <SCORE.RESTR.CAVITY>
0

>  <SCORE.RESTR.norm>
0

>  <SCORE.SYSTEM>
0

>  <SCORE.SYSTEM.CONST>
0

>  <SCORE.SYSTEM.DIHEDRAL>
0

>  <SCORE.SYSTEM.SOLV>
0

>  <SCORE.SYSTEM.norm>
0

>  <SCORE.heavy>
13

>  <SCORE.norm>
-4.58396

>  <RMSD>
0.631

$$$$
lig.pdb
 OpenBabel11021811453D
libRbt.so/2013.1/901 2013/11/27
 13 14  0  0  0  0  0  0  0  0999 V2000
    2.2590    3.6046   -4.4081 N   0  0  0  0  0  0  0  0  0  0  0  0
    3.5177    3.0592   -4.4727 C   0  0  0  0  0  0  0  0  0  0  0  0
    3.7994    1.9450   -3.8062 N   0  0  0  0  0  0  0  0  0  0  0  0
    2.8563    1.3091   -3.0443 C   0  0  0  0  0  0  0  0  0  0  0  0
    1.5466    1.8434   -2.9427 C   0  0  0  0  0  0  0  0  0  0  0  0
    1.2606    3.0360   -3.6662 C   0  0  0  0  0  0  0  0  0  0  0  0
    0.1546    3.5443   -3.6313 O   0  0  0  0  0  0  0  0  0  0  0  0
    0.8019    0.9622   -2.0434 C   0  0  0  0  0  0  0  0  0  0  0  0
   -0.6154    1.1394   -1.5700 C   0  0  0  0  0  0  0  0  0  0  0  0
   -1.1235   -0.1366   -1.0473 N   0  0  0  0  0  0  0  0  0  0  0  0
    1.6459   -0.0208   -1.7049 C   0  0  0  0  0  0  0  0  0  0  0  0
    2.8693    0.1829   -2.2862 N   0  0  0  0  0  0  0  0  0  0  0  0
    4.4836    3.6621   -5.2347 N   0  0  0  0  0  0  0  0  0  0  0  0
  1  6  1  0  0  0  0
  2  1  1  0  0  0  0
  2  3  2  0  0  0  0
  3  4  1  0  0  0  0
  4  5  2  0  0  0  0
  4 12  1  0  0  0  0
  5  8  1  0  0  0  0
  6  7  2  0  0  0  0
  6  5  1  0  0  0  0
  8 11  2  0  0  0  0
  8  9  1  0  0  0  0
 10  9  1  0  0  0  0
 12 11  1  0  0  0  0
 13  2  1  0  0  0  0
M  END
>  <CHROM.1>
162.10397238,81.77700585,1.78686817,1.87189537,-3.07831861,0.82204807,0.26854749
-0.58772794

>  <Name>
lig.pdb

>  <RI>
0

>  <Rbt.Current_Directory>
/home/itssahil/PROJECTS/Mol_Feturizer/New_Systems/rnas/2l1v

>  <Rbt.Executable>
rbdock ($Id: //depot/dev/client3/rdock/2013.1/src/exe/rbdock.cxx#4 $)

>  <Rbt.Library>
libRbt.so (2013.1, Build901 2013/11/27)

>  <Rbt.Parameter_File>
/export/apps/rDock/src/rDock_2013.1_src/data/scripts/dock_solv.prm

>  <Rbt.Receptor>
prm/pocket_docking_3.prm

>  <SCORE>
-59.6512

>  <SCORE.INTER>
-61.0784

>  <SCORE.INTER.CONST>
1

>  <SCORE.INTER.POLAR>
-5.89825

>  <SCORE.INTER.ROT>
2

>  <SCORE.INTER.SOLV>
17.2511

>  <SCORE.INTER.VDW>
-31.7418

>  <SCORE.INTER.norm>
-4.69834

>  <SCORE.INTRA>
1.42725

>  <SCORE.INTRA.DIHEDRAL>
0.429248

>  <SCORE.INTRA.DIHEDRAL.0>
1.43995

>  <SCORE.INTRA.POLAR>
0.272593

>  <SCORE.INTRA.POLAR.0>
-0.272593

>  <SCORE.INTRA.REPUL>
0

>  <SCORE.INTRA.REPUL.0>
0

>  <SCORE.INTRA.SOLV>
-0.504646

>  <SCORE.INTRA.SOLV.lig_0>
-22.6728

>  <SCORE.INTRA.VDW>
0.538133

>  <SCORE.INTRA.VDW.0>
-0.754459

>  <SCORE.INTRA.norm>
0.109788

>  <SCORE.RESTR>
0

>  <SCORE.RESTR.CAVITY>
0

>  <SCORE.RESTR.norm>
0

>  <SCORE.SYSTEM>
0

>  <SCORE.SYSTEM.CONST>
0

>  <SCORE.SYSTEM.DIHEDRAL>
0

>  <SCORE.SYSTEM.SOLV>
0

>  <SCORE.SYSTEM.norm>
0

>  <SCORE.heavy>
13

>  <SCORE.norm>
-4.58855

>  <RMSD>
0.631

$$$$
lig.pdb
 OpenBabel11021811453D
libRbt.so/2013.1/901 2013/11/27
 13 14  0  0  0  0  0  0  0  0999 V2000
    2.2611    3.6117   -4.4057 N   0  0  0  0  0  0  0  0  0  0  0  0
    3.5186    3.0649   -4.4819 C   0  0  0  0  0  0  0  0  0  0  0  0
    3.8044    1.9488   -3.8203 N   0  0  0  0  0  0  0  0  0  0  0  0
    2.8666    1.3122   -3.0522 C   0  0  0  0  0  0  0  0  0  0  0  0
    1.5584    1.8478   -2.9388 C   0  0  0  0  0  0  0  0  0  0  0  0
    1.2680    3.0425   -3.6572 C   0  0  0  0  0  0  0  0  0  0  0  0
    0.1630    3.5521   -3.6121 O   0  0  0  0  0  0  0  0  0  0  0  0
    0.8200    0.9654   -2.0356 C   0  0  0  0  0  0  0  0  0  0  0  0
   -0.5932    1.1432   -1.5503 C   0  0  0  0  0  0  0  0  0  0  0  0
   -1.0970   -0.1323   -1.0223 N   0  0  0  0  0  0  0  0  0  0  0  0
    1.6655   -0.0194   -1.7063 C   0  0  0  0  0  0  0  0  0  0  0  0
    2.8844    0.1842   -2.2969 N   0  0  0  0  0  0  0  0  0  0  0  0
    4.4791    3.6685   -5.2502 N   0  0  0  0  0  0  0  0  0  0  0  0
  1  6  1  0  0  0  0
  2  1  1  0  0  0  0
  2  3  2  0  0  0  0
  3  4  1  0  0  0  0
  4  5  2  0  0  0  0
  4 12  1  0  0  0  0
  5  8  1  0  0  0  0
  6  7  2  0  0  0  0
  6  5  1  0  0  0  0
  8 11  2  0  0  0  0
  8  9  1  0  0  0  0
 10  9  1  0  0  0  0
 12 11  1  0  0  0  0
 13  2  1  0  0  0  0
M  END
>  <CHROM.1>
162.30151644,-95.95252733,1.79750446,1.87664847,-3.07578747,0.82546523,0.27638186
-0.58655253

>  <Name>
lig.pdb

>  <RI>
2.86608e+07

>  <Rbt.Current_Directory>
/home/itssahil/PROJECTS/Mol_Feturizer/New_Systems/rnas/2l1v

>  <Rbt.Executable>
rbdock ($Id: //depot/dev/client3/rdock/2013.1/src/exe/rbdock.cxx#4 $)

>  <Rbt.Library>
libRbt.so (2013.1, Build901 2013/11/27)

>  <Rbt.Parameter_File>
/export/apps/rDock/src/rDock_2013.1_src/data/scripts/dock_solv.prm

>  <Rbt.Receptor>
prm/pocket_docking_7.prm

>  <SCORE>
-59.6478

>  <SCORE.INTER>
-61.1355

>  <SCORE.INTER.CONST>
1

>  <SCORE.INTER.POLAR>
-5.88157

>  <SCORE.INTER.ROT>
2

>  <SCORE.INTER.SOLV>
17.2282

>  <SCORE.INTER.VDW>
-31.8278

>  <SCORE.INTER.norm>
-4.70273

>  <SCORE.INTRA>
1.48765

>  <SCORE.INTRA.DIHEDRAL>
0.545579

>  <SCORE.INTRA.DIHEDRAL.0>
1.43995

>  <SCORE.INTRA.POLAR>
0.272593

>  <SCORE.INTRA.POLAR.0>
-0.272593

>  <SCORE.INTRA.REPUL>
0

>  <SCORE.INTRA.REPUL.0>
0

>  <SCORE.INTRA.SOLV>
-0.506035

>  <SCORE.INTRA.SOLV.lig_0>
-22.6728

>  <SCORE.INTRA.VDW>
0.541065

>  <SCORE.INTRA.VDW.0>
-0.754459

>  <SCORE.INTRA.norm>
0.114435

>  <SCORE.RESTR>
0

>  <SCORE.RESTR.CAVITY>
0

>  <SCORE.RESTR.norm>
0

>  <SCORE.SYSTEM>
0

>  <SCORE.SYSTEM.CONST>
0

>  <SCORE.SYSTEM.DIHEDRAL>
0

>  <SCORE.SYSTEM.SOLV>
0

>  <SCORE.SYSTEM.norm>
0

>  <SCORE.heavy>
13

>  <SCORE.norm>
-4.5883

>  <RMSD>
0.632

$$$$
lig.pdb
 OpenBabel11021811453D
libRbt.so/2013.1/901 2013/11/27
 13 14  0  0  0  0  0  0  0  0999 V2000
    2.2656    3.6258   -4.3942 N   0  0  0  0  0  0  0  0  0  0  0  0
    3.5206    3.0741   -4.4757 C   0  0  0  0  0  0  0  0  0  0  0  0
    3.8023    1.9523   -3.8219 N   0  0  0  0  0  0  0  0  0  0  0  0
    2.8628    1.3147   -3.0569 C   0  0  0  0  0  0  0  0  0  0  0  0
    1.5571    1.8552   -2.9382 C   0  0  0  0  0  0  0  0  0  0  0  0
    1.2710    3.0559   -3.6482 C   0  0  0  0  0  0  0  0  0  0  0  0
    0.1683    3.5699   -3.5982 O   0  0  0  0  0  0  0  0  0  0  0  0
    0.8161    0.9699   -2.0399 C   0  0  0  0  0  0  0  0  0  0  0  0
   -0.5958    1.1506   -1.5516 C   0  0  0  0  0  0  0  0  0  0  0  0
   -1.1094   -0.1295   -1.0447 N   0  0  0  0  0  0  0  0  0  0  0  0
    1.6577   -0.0206   -1.7183 C   0  0  0  0  0  0  0  0  0  0  0  0
    2.8767    0.1816   -2.3092 N   0  0  0  0  0  0  0  0  0  0  0  0
    4.4827    3.6786   -5.2413 N   0  0  0  0  0  0  0  0  0  0  0  0
  1  6  1  0  0  0  0
  2  1  1  0  0  0  0
  2  3  2  0  0  0  0
  3  4  1  0  0  0  0
  4  5  2  0  0  0  0
  4 12  1  0  0  0  0
  5  8  1  0  0  0  0
  6  7  2  0  0  0  0
  6  5  1  0  0  0  0
  8 11  2  0  0  0  0
  8  9  1  0  0  0  0
 10  9  1  0  0  0  0
 12 11  1  0  0  0  0
 13  2  1  0  0  0  0
M  END
>  <CHROM.1>
161.70186297,83.07832614,1.79599404,1.88343697,-3.07665115,0.82223949,0.27888964
-0.57837005

>  <Name>
lig.pdb

>  <RI>
0

>  <Rbt.Current_Directory>
/home/itssahil/PROJECTS/Mol_Feturizer/New_Systems/rnas/2l1v

>  <Rbt.Executable>
rbdock ($Id: //depot/dev/client3/rdock/2013.1/src/exe/rbdock.cxx#4 $)

>  <Rbt.Library>
libRbt.so (2013.1, Build901 2013/11/27)

>  <Rbt.Parameter_File>
/export/apps/rDock/src/rDock_2013.1_src/data/scripts/dock_solv.prm

>  <Rbt.Receptor>
prm/pocket_docking_3.prm

>  <SCORE>
-59.715

>  <SCORE.INTER>
-61.1478

>  <SCORE.INTER.CONST>
1

>  <SCORE.INTER.POLAR>
-5.92338

>  <SCORE.INTER.ROT>
2

>  <SCORE.INTER.SOLV>
17.2846

>  <SCORE.INTER.VDW>
-31.7155

>  <SCORE.INTER.norm>
-4.70368

>  <SCORE.INTRA>
1.4328

>  <SCORE.INTRA.DIHEDRAL>
0.447137

>  <SCORE.INTRA.DIHEDRAL.0>
1.43995

>  <SCORE.INTRA.POLAR>
0.272593

>  <SCORE.INTRA.POLAR.0>
-0.272593

>  <SCORE.INTRA.REPUL>
0

>  <SCORE.INTRA.REPUL.0>
0

>  <SCORE.INTRA.SOLV>
-0.505093

>  <SCORE.INTRA.SOLV.lig_0>
-22.6728

>  <SCORE.INTRA.VDW>
0.534962

>  <SCORE.INTRA.VDW.0>
-0.754459

>  <SCORE.INTRA.norm>
0.110215

>  <SCORE.RESTR>
0

>  <SCORE.RESTR.CAVITY>
0

>  <SCORE.RESTR.norm>
0

>  <SCORE.SYSTEM>
0

>  <SCORE.SYSTEM.CONST>
0

>  <SCORE.SYSTEM.DIHEDRAL>
0

>  <SCORE.SYSTEM.SOLV>
0

>  <SCORE.SYSTEM.norm>
0

>  <SCORE.heavy>
13

>  <SCORE.norm>
-4.59346

>  <RMSD>
0.633

$$$$
lig.pdb
 OpenBabel11021811453D
libRbt.so/2013.1/901 2013/11/27
 13 14  0  0  0  0  0  0  0  0999 V2000
    2.2589    3.6089   -4.4027 N   0  0  0  0  0  0  0  0  0  0  0  0
    3.5154    3.0596   -4.4773 C   0  0  0  0  0  0  0  0  0  0  0  0
    3.7975    1.9418   -3.8171 N   0  0  0  0  0  0  0  0  0  0  0  0
    2.8569    1.3059   -3.0520 C   0  0  0  0  0  0  0  0  0  0  0  0
    1.5496    1.8441   -2.9402 C   0  0  0  0  0  0  0  0  0  0  0  0
    1.2631    3.0406   -3.6571 C   0  0  0  0  0  0  0  0  0  0  0  0
    0.1591    3.5524   -3.6133 O   0  0  0  0  0  0  0  0  0  0  0  0
    0.8076    0.9616   -2.0400 C   0  0  0  0  0  0  0  0  0  0  0  0
   -0.6063    1.1416   -1.5572 C   0  0  0  0  0  0  0  0  0  0  0  0
   -1.1104   -0.1314   -1.0234 N   0  0  0  0  0  0  0  0  0  0  0  0
    1.6503   -0.0255   -1.7107 C   0  0  0  0  0  0  0  0  0  0  0  0
    2.8708    0.1765   -2.2987 N   0  0  0  0  0  0  0  0  0  0  0  0
    4.4786    3.6625   -5.2428 N   0  0  0  0  0  0  0  0  0  0  0  0
  1  6  1  0  0  0  0
  2  1  1  0  0  0  0
  2  3  2  0  0  0  0
  3  4  1  0  0  0  0
  4  5  2  0  0  0  0
  4 12  1  0  0  0  0
  5  8  1  0  0  0  0
  6  7  2  0  0  0  0
  6  5  1  0  0  0  0
  8 11  2  0  0  0  0
  8  9  1  0  0  0  0
 10  9  1  0  0  0  0
 12 11  1  0  0  0  0
 13  2  1  0  0  0  0
M  END
>  <CHROM.1>
162.70735983,83.36905090,1.78962621,1.87265960,-3.07596727,0.82327332,0.27649330
-0.58434791

>  <Name>
lig.pdb

>  <RI>
0

>  <Rbt.Current_Directory>
/home/itssahil/PROJECTS/Mol_Feturizer/New_Systems/rnas/2l1v

>  <Rbt.Executable>
rbdock ($Id: //depot/dev/client3/rdock/2013.1/src/exe/rbdock.cxx#4 $)

>  <Rbt.Library>
libRbt.so (2013.1, Build901 2013/11/27)

>  <Rbt.Parameter_File>
/export/apps/rDock/src/rDock_2013.1_src/data/scripts/dock_solv.prm

>  <Rbt.Receptor>
prm/pocket_docking_3.prm

>  <SCORE>
-59.6973

>  <SCORE.INTER>
-61.1118

>  <SCORE.INTER.CONST>
1

>  <SCORE.INTER.POLAR>
-5.88927

>  <SCORE.INTER.ROT>
2

>  <SCORE.INTER.SOLV>
17.2389

>  <SCORE.INTER.VDW>
-31.7899

>  <SCORE.INTER.norm>
-4.7009

>  <SCORE.INTRA>
1.4144

>  <SCORE.INTRA.DIHEDRAL>
0.39884

>  <SCORE.INTRA.DIHEDRAL.0>
1.43995

>  <SCORE.INTRA.POLAR>
0.272593

>  <SCORE.INTRA.POLAR.0>
-0.272593

>  <SCORE.INTRA.REPUL>
0

>  <SCORE.INTRA.REPUL.0>
0

>  <SCORE.INTRA.SOLV>
-0.50409

>  <SCORE.INTRA.SOLV.lig_0>
-22.6728

>  <SCORE.INTRA.VDW>
0.540213

>  <SCORE.INTRA.VDW.0>
-0.754459

>  <SCORE.INTRA.norm>
0.1088

>  <SCORE.RESTR>
0

>  <SCORE.RESTR.CAVITY>
0

>  <SCORE.RESTR.norm>
0

>  <SCORE.SYSTEM>
0

>  <SCORE.SYSTEM.CONST>
0

>  <SCORE.SYSTEM.DIHEDRAL>
0

>  <SCORE.SYSTEM.SOLV>
0

>  <SCORE.SYSTEM.norm>
0

>  <SCORE.heavy>
13

>  <SCORE.norm>
-4.5921

>  <RMSD>
0.633

$$$$
lig.pdb
 OpenBabel11021811453D
libRbt.so/2013.1/901 2013/11/27
 13 14  0  0  0  0  0  0  0  0999 V2000
    2.2680    3.6212   -4.3941 N   0  0  0  0  0  0  0  0  0  0  0  0
    3.5248    3.0731   -4.4732 C   0  0  0  0  0  0  0  0  0  0  0  0
    3.8088    1.9527   -3.8180 N   0  0  0  0  0  0  0  0  0  0  0  0
    2.8701    1.3131   -3.0538 C   0  0  0  0  0  0  0  0  0  0  0  0
    1.5626    1.8499   -2.9375 C   0  0  0  0  0  0  0  0  0  0  0  0
    1.2740    3.0491   -3.6490 C   0  0  0  0  0  0  0  0  0  0  0  0
    0.1697    3.5599   -3.6011 O   0  0  0  0  0  0  0  0  0  0  0  0
    0.8228    0.9632   -2.0395 C   0  0  0  0  0  0  0  0  0  0  0  0
   -0.5902    1.1403   -1.5534 C   0  0  0  0  0  0  0  0  0  0  0  0
   -1.0974   -0.1386   -1.0368 N   0  0  0  0  0  0  0  0  0  0  0  0
    1.6669   -0.0246   -1.7157 C   0  0  0  0  0  0  0  0  0  0  0  0
    2.8862    0.1807   -2.3050 N   0  0  0  0  0  0  0  0  0  0  0  0
    4.4862    3.6797   -5.2379 N   0  0  0  0  0  0  0  0  0  0  0  0
  1  6  1  0  0  0  0
  2  1  1  0  0  0  0
  2  3  2  0  0  0  0
  3  4  1  0  0  0  0
  4  5  2  0  0  0  0
  4 12  1  0  0  0  0
  5  8  1  0  0  0  0
  6  7  2  0  0  0  0
  6  5  1  0  0  0  0
  8 11  2  0  0  0  0
  8  9  1  0  0  0  0
 10  9  1  0  0  0  0
 12 11  1  0  0  0  0
 13  2  1  0  0  0  0
M  END
>  <CHROM.1>
162.11967231,80.76489969,1.80192470,1.87888831,-3.07475252,0.82436610,0.27656755
-0.58024421

>  <Name>
lig.pdb

>  <RI>
1.77584e+07

>  <Rbt.Current_Directory>
/home/itssahil/PROJECTS/Mol_Feturizer/New_Systems/rnas/2l1v

>  <Rbt.Executable>
rbdock ($Id: //depot/dev/client3/rdock/2013.1/src/exe/rbdock.cxx#4 $)

>  <Rbt.Library>
libRbt.so (2013.1, Build901 2013/11/27)

>  <Rbt.Parameter_File>
/export/apps/rDock/src/rDock_2013.1_src/data/scripts/dock_solv.prm

>  <Rbt.Receptor>
prm/blind_docking_80.prm

>  <SCORE>
-59.6873

>  <SCORE.INTER>
-61.1158

>  <SCORE.INTER.CONST>
1

>  <SCORE.INTER.POLAR>
-5.91216

>  <SCORE.INTER.ROT>
2

>  <SCORE.INTER.SOLV>
17.2567

>  <SCORE.INTER.VDW>
-31.7222

>  <SCORE.INTER.norm>
-4.70121

>  <SCORE.INTRA>
1.42853

>  <SCORE.INTRA.DIHEDRAL>
0.42987

>  <SCORE.INTRA.DIHEDRAL.0>
1.43995

>  <SCORE.INTRA.POLAR>
0.272593

>  <SCORE.INTRA.POLAR.0>
-0.272593

>  <SCORE.INTRA.REPUL>
0

>  <SCORE.INTRA.REPUL.0>
0

>  <SCORE.INTRA.SOLV>
-0.504598

>  <SCORE.INTRA.SOLV.lig_0>
-22.6728

>  <SCORE.INTRA.VDW>
0.539077

>  <SCORE.INTRA.VDW.0>
-0.754459

>  <SCORE.INTRA.norm>
0.109887

>  <SCORE.RESTR>
0

>  <SCORE.RESTR.CAVITY>
0

>  <SCORE.RESTR.norm>
0

>  <SCORE.SYSTEM>
0

>  <SCORE.SYSTEM.CONST>
0

>  <SCORE.SYSTEM.DIHEDRAL>
0

>  <SCORE.SYSTEM.SOLV>
0

>  <SCORE.SYSTEM.norm>
0

>  <SCORE.heavy>
13

>  <SCORE.norm>
-4.59133

>  <RMSD>
0.634

$$$$
lig.pdb
 OpenBabel11021811453D
libRbt.so/2013.1/901 2013/11/27
 13 14  0  0  0  0  0  0  0  0999 V2000
    2.2625    3.6119   -4.3927 N   0  0  0  0  0  0  0  0  0  0  0  0
    3.5178    3.0600   -4.4687 C   0  0  0  0  0  0  0  0  0  0  0  0
    3.7970    1.9390   -3.8126 N   0  0  0  0  0  0  0  0  0  0  0  0
    2.8546    1.3024   -3.0504 C   0  0  0  0  0  0  0  0  0  0  0  0
    1.5485    1.8432   -2.9372 C   0  0  0  0  0  0  0  0  0  0  0  0
    1.2651    3.0431   -3.6497 C   0  0  0  0  0  0  0  0  0  0  0  0
    0.1623    3.5572   -3.6045 O   0  0  0  0  0  0  0  0  0  0  0  0
    0.8040    0.9590   -2.0406 C   0  0  0  0  0  0  0  0  0  0  0  0
   -0.6097    1.1404   -1.5578 C   0  0  0  0  0  0  0  0  0  0  0  0
   -1.1182   -0.1342   -1.0324 N   0  0  0  0  0  0  0  0  0  0  0  0
    1.6443   -0.0313   -1.7147 C   0  0  0  0  0  0  0  0  0  0  0  0
    2.8656    0.1702   -2.3012 N   0  0  0  0  0  0  0  0  0  0  0  0
    4.4828    3.6636   -5.2314 N   0  0  0  0  0  0  0  0  0  0  0  0
  1  6  1  0  0  0  0
  2  1  1  0  0  0  0
  2  3  2  0  0  0  0
  3  4  1  0  0  0  0
  4  5  2  0  0  0  0
  4 12  1  0  0  0  0
  5  8  1  0  0  0  0
  6  7  2  0  0  0  0
  6  5  1  0  0  0  0
  8 11  2  0  0  0  0
  8  9  1  0  0  0  0
 10  9  1  0  0  0  0
 12 11  1  0  0  0  0
 13  2  1  0  0  0  0
M  END
>  <CHROM.1>
162.55982005,-94.49009749,1.78824057,1.87180858,-3.07288275,0.82046785,0.27724332
-0.57982092

>  <Name>
lig.pdb

>  <RI>
1.459e+07

>  <Rbt.Current_Directory>
/home/itssahil/PROJECTS/Mol_Feturizer/New_Systems/rnas/2l1v

>  <Rbt.Executable>
rbdock ($Id: //depot/dev/client3/rdock/2013.1/src/exe/rbdock.cxx#4 $)

>  <Rbt.Library>
libRbt.so (2013.1, Build901 2013/11/27)

>  <Rbt.Parameter_File>
/export/apps/rDock/src/rDock_2013.1_src/data/scripts/dock_solv.prm

>  <Rbt.Receptor>
prm/pocket_docking_2.prm

>  <SCORE>
-59.6328

>  <SCORE.INTER>
-61.1157

>  <SCORE.INTER.CONST>
1

>  <SCORE.INTER.POLAR>
-5.91183

>  <SCORE.INTER.ROT>
2

>  <SCORE.INTER.SOLV>
17.2488

>  <SCORE.INTER.VDW>
-31.7207

>  <SCORE.INTER.norm>
-4.70121

>  <SCORE.INTRA>
1.48296

>  <SCORE.INTRA.DIHEDRAL>
0.534444

>  <SCORE.INTRA.DIHEDRAL.0>
1.43995

>  <SCORE.INTRA.POLAR>
0.272593

>  <SCORE.INTRA.POLAR.0>
-0.272593

>  <SCORE.INTRA.REPUL>
0

>  <SCORE.INTRA.REPUL.0>
0

>  <SCORE.INTRA.SOLV>
-0.505821

>  <SCORE.INTRA.SOLV.lig_0>
-22.6728

>  <SCORE.INTRA.VDW>
0.541835

>  <SCORE.INTRA.VDW.0>
-0.754459

>  <SCORE.INTRA.norm>
0.114074

>  <SCORE.RESTR>
0

>  <SCORE.RESTR.CAVITY>
0

>  <SCORE.RESTR.norm>
0

>  <SCORE.SYSTEM>
0

>  <SCORE.SYSTEM.CONST>
0

>  <SCORE.SYSTEM.DIHEDRAL>
0

>  <SCORE.SYSTEM.SOLV>
0

>  <SCORE.SYSTEM.norm>
0

>  <SCORE.heavy>
13

>  <SCORE.norm>
-4.58714

>  <RMSD>
0.634

$$$$
lig.pdb
 OpenBabel11021811453D
libRbt.so/2013.1/901 2013/11/27
 13 14  0  0  0  0  0  0  0  0999 V2000
    2.2660    3.6105   -4.4026 N   0  0  0  0  0  0  0  0  0  0  0  0
    3.5241    3.0653   -4.4807 C   0  0  0  0  0  0  0  0  0  0  0  0
    3.8118    1.9489   -3.8205 N   0  0  0  0  0  0  0  0  0  0  0  0
    2.8757    1.3106   -3.0519 C   0  0  0  0  0  0  0  0  0  0  0  0
    1.5670    1.8446   -2.9365 C   0  0  0  0  0  0  0  0  0  0  0  0
    1.2744    3.0396   -3.6534 C   0  0  0  0  0  0  0  0  0  0  0  0
    0.1689    3.5478   -3.6066 O   0  0  0  0  0  0  0  0  0  0  0  0
    0.8307    0.9604   -2.0332 C   0  0  0  0  0  0  0  0  0  0  0  0
   -0.5822    1.1362   -1.5461 C   0  0  0  0  0  0  0  0  0  0  0  0
   -1.0784   -0.1364   -1.0042 N   0  0  0  0  0  0  0  0  0  0  0  0
    1.6777   -0.0236   -1.7057 C   0  0  0  0  0  0  0  0  0  0  0  0
    2.8957    0.1819   -2.2976 N   0  0  0  0  0  0  0  0  0  0  0  0
    4.4829    3.6707   -5.2497 N   0  0  0  0  0  0  0  0  0  0  0  0
  1  6  1  0  0  0  0
  2  1  1  0  0  0  0
  2  3  2  0  0  0  0
  3  4  1  0  0  0  0
  4  5  2  0  0  0  0
  4 12  1  0  0  0  0
  5  8  1  0  0  0  0
  6  7  2  0  0  0  0
  6  5  1  0  0  0  0
  8 11  2  0  0  0  0
  8  9  1  0  0  0  0
 10  9  1  0  0  0  0
 12 11  1  0  0  0  0
 13  2  1  0  0  0  0
M  END
>  <CHROM.1>
162.96014094,-95.88420322,1.80645418,1.87414573,-3.07234822,0.82777009,0.27770315
-0.58678587

>  <Name>
lig.pdb

>  <RI>
2.86608e+07

>  <Rbt.Current_Directory>
/home/itssahil/PROJECTS/Mol_Feturizer/New_Systems/rnas/2l1v

>  <Rbt.Executable>
rbdock ($Id: //depot/dev/client3/rdock/2013.1/src/exe/rbdock.cxx#4 $)

>  <Rbt.Library>
libRbt.so (2013.1, Build901 2013/11/27)

>  <Rbt.Parameter_File>
/export/apps/rDock/src/rDock_2013.1_src/data/scripts/dock_solv.prm

>  <Rbt.Receptor>
prm/pocket_docking_7.prm

>  <SCORE>
-59.6666

>  <SCORE.INTER>
-61.1426

>  <SCORE.INTER.CONST>
1

>  <SCORE.INTER.POLAR>
-5.88131

>  <SCORE.INTER.ROT>
2

>  <SCORE.INTER.SOLV>
17.1966

>  <SCORE.INTER.VDW>
-31.8229

>  <SCORE.INTER.norm>
-4.70328

>  <SCORE.INTRA>
1.47602

>  <SCORE.INTRA.DIHEDRAL>
0.514676

>  <SCORE.INTRA.DIHEDRAL.0>
1.43995

>  <SCORE.INTRA.POLAR>
0.272593

>  <SCORE.INTRA.POLAR.0>
-0.272593

>  <SCORE.INTRA.REPUL>
0

>  <SCORE.INTRA.REPUL.0>
0

>  <SCORE.INTRA.SOLV>
-0.505389

>  <SCORE.INTRA.SOLV.lig_0>
-22.6728

>  <SCORE.INTRA.VDW>
0.544565

>  <SCORE.INTRA.VDW.0>
-0.754459

>  <SCORE.INTRA.norm>
0.11354

>  <SCORE.RESTR>
0

>  <SCORE.RESTR.CAVITY>
0

>  <SCORE.RESTR.norm>
0

>  <SCORE.SYSTEM>
0

>  <SCORE.SYSTEM.CONST>
0

>  <SCORE.SYSTEM.DIHEDRAL>
0

>  <SCORE.SYSTEM.SOLV>
0

>  <SCORE.SYSTEM.norm>
0

>  <SCORE.heavy>
13

>  <SCORE.norm>
-4.58973

>  <RMSD>
0.634

$$$$
lig.pdb
 OpenBabel11021811453D
libRbt.so/2013.1/901 2013/11/27
 13 14  0  0  0  0  0  0  0  0999 V2000
    2.2664    3.6051   -4.3981 N   0  0  0  0  0  0  0  0  0  0  0  0
    3.5278    3.0661   -4.4639 C   0  0  0  0  0  0  0  0  0  0  0  0
    3.8143    1.9503   -3.8021 N   0  0  0  0  0  0  0  0  0  0  0  0
    2.8734    1.3064   -3.0441 C   0  0  0  0  0  0  0  0  0  0  0  0
    1.5610    1.8338   -2.9415 C   0  0  0  0  0  0  0  0  0  0  0  0
    1.2700    3.0283   -3.6599 C   0  0  0  0  0  0  0  0  0  0  0  0
    0.1615    3.5310   -3.6239 O   0  0  0  0  0  0  0  0  0  0  0  0
    0.8198    0.9449   -2.0470 C   0  0  0  0  0  0  0  0  0  0  0  0
   -0.5989    1.1131   -1.5743 C   0  0  0  0  0  0  0  0  0  0  0  0
   -1.0958   -0.1637   -1.0428 N   0  0  0  0  0  0  0  0  0  0  0  0
    1.6682   -0.0354   -1.7120 C   0  0  0  0  0  0  0  0  0  0  0  0
    2.8912    0.1768   -2.2911 N   0  0  0  0  0  0  0  0  0  0  0  0
    4.4916    3.6772   -5.2221 N   0  0  0  0  0  0  0  0  0  0  0  0
  1  6  1  0  0  0  0
  2  1  1  0  0  0  0
  2  3  2  0  0  0  0
  3  4  1  0  0  0  0
  4  5  2  0  0  0  0
  4 12  1  0  0  0  0
  5  8  1  0  0  0  0
  6  7  2  0  0  0  0
  6  5  1  0  0  0  0
  8 11  2  0  0  0  0
  8  9  1  0  0  0  0
 10  9  1  0  0  0  0
 12 11  1  0  0  0  0
 13  2  1  0  0  0  0
M  END
>  <CHROM.1>
162.79135732,80.20408360,1.80184431,1.86448856,-3.07530957,0.82631294,0.26591047
-0.58489401

>  <Name>
lig.pdb

>  <RI>
2.86608e+07

>  <Rbt.Current_Directory>
/home/itssahil/PROJECTS/Mol_Feturizer/New_Systems/rnas/2l1v

>  <Rbt.Executable>
rbdock ($Id: //depot/dev/client3/rdock/2013.1/src/exe/rbdock.cxx#4 $)

>  <Rbt.Library>
libRbt.so (2013.1, Build901 2013/11/27)

>  <Rbt.Parameter_File>
/export/apps/rDock/src/rDock_2013.1_src/data/scripts/dock_solv.prm

>  <Rbt.Receptor>
prm/pocket_docking_7.prm

>  <SCORE>
-59.6948

>  <SCORE.INTER>
-61.1124

>  <SCORE.INTER.CONST>
1

>  <SCORE.INTER.POLAR>
-5.93273

>  <SCORE.INTER.ROT>
2

>  <SCORE.INTER.SOLV>
17.2334

>  <SCORE.INTER.VDW>
-31.6436

>  <SCORE.INTER.norm>
-4.70095

>  <SCORE.INTRA>
1.41752

>  <SCORE.INTRA.DIHEDRAL>
0.398924

>  <SCORE.INTRA.DIHEDRAL.0>
1.43995

>  <SCORE.INTRA.POLAR>
0.272593

>  <SCORE.INTRA.POLAR.0>
-0.272593

>  <SCORE.INTRA.REPUL>
0

>  <SCORE.INTRA.REPUL.0>
0

>  <SCORE.INTRA.SOLV>
-0.503912

>  <SCORE.INTRA.SOLV.lig_0>
-22.6728

>  <SCORE.INTRA.VDW>
0.543197

>  <SCORE.INTRA.VDW.0>
-0.754459

>  <SCORE.INTRA.norm>
0.10904

>  <SCORE.RESTR>
0

>  <SCORE.RESTR.CAVITY>
0

>  <SCORE.RESTR.norm>
0

>  <SCORE.SYSTEM>
0

>  <SCORE.SYSTEM.CONST>
0

>  <SCORE.SYSTEM.DIHEDRAL>
0

>  <SCORE.SYSTEM.SOLV>
0

>  <SCORE.SYSTEM.norm>
0

>  <SCORE.heavy>
13

>  <SCORE.norm>
-4.59191

>  <RMSD>
0.634

$$$$
lig.pdb
 OpenBabel11021811453D
libRbt.so/2013.1/901 2013/11/27
 13 14  0  0  0  0  0  0  0  0999 V2000
    2.2683    3.6164   -4.3937 N   0  0  0  0  0  0  0  0  0  0  0  0
    3.5238    3.0661   -4.4778 C   0  0  0  0  0  0  0  0  0  0  0  0
    3.8083    1.9448   -3.8243 N   0  0  0  0  0  0  0  0  0  0  0  0
    2.8712    1.3065   -3.0570 C   0  0  0  0  0  0  0  0  0  0  0  0
    1.5651    1.8456   -2.9355 C   0  0  0  0  0  0  0  0  0  0  0  0
    1.2761    3.0457   -3.6452 C   0  0  0  0  0  0  0  0  0  0  0  0
    0.1729    3.5585   -3.5930 O   0  0  0  0  0  0  0  0  0  0  0  0
    0.8271    0.9597   -2.0352 C   0  0  0  0  0  0  0  0  0  0  0  0
   -0.5839    1.1390   -1.5438 C   0  0  0  0  0  0  0  0  0  0  0  0
   -1.0850   -0.1348   -1.0094 N   0  0  0  0  0  0  0  0  0  0  0  0
    1.6705   -0.0298   -1.7152 C   0  0  0  0  0  0  0  0  0  0  0  0
    2.8880    0.1736   -2.3089 N   0  0  0  0  0  0  0  0  0  0  0  0
    4.4835    3.6714   -5.2457 N   0  0  0  0  0  0  0  0  0  0  0  0
  1  6  1  0  0  0  0
  2  1  1  0  0  0  0
  2  3  2  0  0  0  0
  3  4  1  0  0  0  0
  4  5  2  0  0  0  0
  4 12  1  0  0  0  0
  5  8  1  0  0  0  0
  6  7  2  0  0  0  0
  6  5  1  0  0  0  0
  8 11  2  0  0  0  0
  8  9  1  0  0  0  0
 10  9  1  0  0  0  0
 12 11  1  0  0  0  0
 13  2  1  0  0  0  0
M  END
>  <CHROM.1>
162.87896674,-94.82322727,1.80428132,1.87476454,-3.07195050,0.82523988,0.28206502
-0.58053373

>  <Name>
lig.pdb

>  <RI>
2.86608e+07

>  <Rbt.Current_Directory>
/home/itssahil/PROJECTS/Mol_Feturizer/New_Systems/rnas/2l1v

>  <Rbt.Executable>
rbdock ($Id: //depot/dev/client3/rdock/2013.1/src/exe/rbdock.cxx#4 $)

>  <Rbt.Library>
libRbt.so (2013.1, Build901 2013/11/27)

>  <Rbt.Parameter_File>
/export/apps/rDock/src/rDock_2013.1_src/data/scripts/dock_solv.prm

>  <Rbt.Receptor>
prm/pocket_docking_7.prm

>  <SCORE>
-59.6677

>  <SCORE.INTER>
-61.1451

>  <SCORE.INTER.CONST>
1

>  <SCORE.INTER.POLAR>
-5.89647

>  <SCORE.INTER.ROT>
2

>  <SCORE.INTER.SOLV>
17.223

>  <SCORE.INTER.VDW>
-31.7828

>  <SCORE.INTER.norm>
-4.70347

>  <SCORE.INTRA>
1.47737

>  <SCORE.INTRA.DIHEDRAL>
0.519273

>  <SCORE.INTRA.DIHEDRAL.0>
1.43995

>  <SCORE.INTRA.POLAR>
0.272593

>  <SCORE.INTRA.POLAR.0>
-0.272593

>  <SCORE.INTRA.REPUL>
0

>  <SCORE.INTRA.REPUL.0>
0

>  <SCORE.INTRA.SOLV>
-0.505499

>  <SCORE.INTRA.SOLV.lig_0>
-22.6728

>  <SCORE.INTRA.VDW>
0.543673

>  <SCORE.INTRA.VDW.0>
-0.754459

>  <SCORE.INTRA.norm>
0.113644

>  <SCORE.RESTR>
0

>  <SCORE.RESTR.CAVITY>
0

>  <SCORE.RESTR.norm>
0

>  <SCORE.SYSTEM>
0

>  <SCORE.SYSTEM.CONST>
0

>  <SCORE.SYSTEM.DIHEDRAL>
0

>  <SCORE.SYSTEM.SOLV>
0

>  <SCORE.SYSTEM.norm>
0

>  <SCORE.heavy>
13

>  <SCORE.norm>
-4.58982

>  <RMSD>
0.635

$$$$
lig.pdb
 OpenBabel11021811453D
libRbt.so/2013.1/901 2013/11/27
 13 14  0  0  0  0  0  0  0  0999 V2000
    2.2705    3.6258   -4.3917 N   0  0  0  0  0  0  0  0  0  0  0  0
    3.5269    3.0774   -4.4748 C   0  0  0  0  0  0  0  0  0  0  0  0
    3.8117    1.9551   -3.8235 N   0  0  0  0  0  0  0  0  0  0  0  0
    2.8742    1.3136   -3.0593 C   0  0  0  0  0  0  0  0  0  0  0  0
    1.5671    1.8506   -2.9389 C   0  0  0  0  0  0  0  0  0  0  0  0
    1.2777    3.0520   -3.6463 C   0  0  0  0  0  0  0  0  0  0  0  0
    0.1737    3.5632   -3.5949 O   0  0  0  0  0  0  0  0  0  0  0  0
    0.8287    0.9617   -2.0421 C   0  0  0  0  0  0  0  0  0  0  0  0
   -0.5834    1.1379   -1.5528 C   0  0  0  0  0  0  0  0  0  0  0  0
   -1.0832   -0.1375   -1.0207 N   0  0  0  0  0  0  0  0  0  0  0  0
    1.6729   -0.0275   -1.7229 C   0  0  0  0  0  0  0  0  0  0  0  0
    2.8912    0.1790   -2.3139 N   0  0  0  0  0  0  0  0  0  0  0  0
    4.4871    3.6859   -5.2396 N   0  0  0  0  0  0  0  0  0  0  0  0
  1  6  1  0  0  0  0
  2  1  1  0  0  0  0
  2  3  2  0  0  0  0
  3  4  1  0  0  0  0
  4  5  2  0  0  0  0
  4 12  1  0  0  0  0
  5  8  1  0  0  0  0
  6  7  2  0  0  0  0
  6  5  1  0  0  0  0
  8 11  2  0  0  0  0
  8  9  1  0  0  0  0
 10  9  1  0  0  0  0
 12 11  1  0  0  0  0
 13  2  1  0  0  0  0
M  END
>  <CHROM.1>
162.94966275,-95.39729702,1.80654743,1.88051195,-3.07473302,0.82548548,0.27989113
-0.57832098

>  <Name>
lig.pdb

>  <RI>
4.02536e+07

>  <Rbt.Current_Directory>
/home/itssahil/PROJECTS/Mol_Feturizer/New_Systems/rnas/2l1v

>  <Rbt.Executable>
rbdock ($Id: //depot/dev/client3/rdock/2013.1/src/exe/rbdock.cxx#4 $)

>  <Rbt.Library>
libRbt.so (2013.1, Build901 2013/11/27)

>  <Rbt.Parameter_File>
/export/apps/rDock/src/rDock_2013.1_src/data/scripts/dock_solv.prm

>  <Rbt.Receptor>
prm/blind_docking_40.prm

>  <SCORE>
-59.6575

>  <SCORE.INTER>
-61.1337

>  <SCORE.INTER.CONST>
1

>  <SCORE.INTER.POLAR>
-5.92039

>  <SCORE.INTER.ROT>
2

>  <SCORE.INTER.SOLV>
17.2513

>  <SCORE.INTER.VDW>
-31.7049

>  <SCORE.INTER.norm>
-4.70259

>  <SCORE.INTRA>
1.47618

>  <SCORE.INTRA.DIHEDRAL>
0.515565

>  <SCORE.INTRA.DIHEDRAL.0>
1.43995

>  <SCORE.INTRA.POLAR>
0.272593

>  <SCORE.INTRA.POLAR.0>
-0.272593

>  <SCORE.INTRA.REPUL>
0

>  <SCORE.INTRA.REPUL.0>
0

>  <SCORE.INTRA.SOLV>
-0.505413

>  <SCORE.INTRA.SOLV.lig_0>
-22.6728

>  <SCORE.INTRA.VDW>
0.544289

>  <SCORE.INTRA.VDW.0>
-0.754459

>  <SCORE.INTRA.norm>
0.113552

>  <SCORE.RESTR>
0

>  <SCORE.RESTR.CAVITY>
0

>  <SCORE.RESTR.norm>
0

>  <SCORE.SYSTEM>
0

>  <SCORE.SYSTEM.CONST>
0

>  <SCORE.SYSTEM.DIHEDRAL>
0

>  <SCORE.SYSTEM.SOLV>
0

>  <SCORE.SYSTEM.norm>
0

>  <SCORE.heavy>
13

>  <SCORE.norm>
-4.58904

>  <RMSD>
0.636

$$$$
lig.pdb
 OpenBabel11021811453D
libRbt.so/2013.1/901 2013/11/27
 13 14  0  0  0  0  0  0  0  0999 V2000
    2.2695    3.6150   -4.3985 N   0  0  0  0  0  0  0  0  0  0  0  0
    3.5278    3.0700   -4.4762 C   0  0  0  0  0  0  0  0  0  0  0  0
    3.8152    1.9529   -3.8172 N   0  0  0  0  0  0  0  0  0  0  0  0
    2.8785    1.3134   -3.0503 C   0  0  0  0  0  0  0  0  0  0  0  0
    1.5696    1.8470   -2.9353 C   0  0  0  0  0  0  0  0  0  0  0  0
    1.2774    3.0428   -3.6509 C   0  0  0  0  0  0  0  0  0  0  0  0
    0.1718    3.5508   -3.6044 O   0  0  0  0  0  0  0  0  0  0  0  0
    0.8327    0.9615   -2.0338 C   0  0  0  0  0  0  0  0  0  0  0  0
   -0.5807    1.1363   -1.5477 C   0  0  0  0  0  0  0  0  0  0  0  0
   -1.0763   -0.1365   -1.0058 N   0  0  0  0  0  0  0  0  0  0  0  0
    1.6796   -0.0228   -1.7069 C   0  0  0  0  0  0  0  0  0  0  0  0
    2.8981    0.1837   -2.2975 N   0  0  0  0  0  0  0  0  0  0  0  0
    4.4872    3.6766   -5.2435 N   0  0  0  0  0  0  0  0  0  0  0  0
  1  6  1  0  0  0  0
  2  1  1  0  0  0  0
  2  3  2  0  0  0  0
  3  4  1  0  0  0  0
  4  5  2  0  0  0  0
  4 12  1  0  0  0  0
  5  8  1  0  0  0  0
  6  7  2  0  0  0  0
  6  5  1  0  0  0  0
  8 11  2  0  0  0  0
  8  9  1  0  0  0  0
 10  9  1  0  0  0  0
 12 11  1  0  0  0  0
 13  2  1  0  0  0  0
M  END
>  <CHROM.1>
163.05806514,-95.79752580,1.80924055,1.87680651,-3.07072596,0.82751806,0.27701696
-0.58547505

>  <Name>
lig.pdb

>  <RI>
1.459e+07

>  <Rbt.Current_Directory>
/home/itssahil/PROJECTS/Mol_Feturizer/New_Systems/rnas/2l1v

>  <Rbt.Executable>
rbdock ($Id: //depot/dev/client3/rdock/2013.1/src/exe/rbdock.cxx#4 $)

>  <Rbt.Library>
libRbt.so (2013.1, Build901 2013/11/27)

>  <Rbt.Parameter_File>
/export/apps/rDock/src/rDock_2013.1_src/data/scripts/dock_solv.prm

>  <Rbt.Receptor>
prm/pocket_docking_2.prm

>  <SCORE>
-59.6656

>  <SCORE.INTER>
-61.1399

>  <SCORE.INTER.CONST>
1

>  <SCORE.INTER.POLAR>
-5.89911

>  <SCORE.INTER.ROT>
2

>  <SCORE.INTER.SOLV>
17.1978

>  <SCORE.INTER.VDW>
-31.7622

>  <SCORE.INTER.norm>
-4.70307

>  <SCORE.INTRA>
1.47432

>  <SCORE.INTRA.DIHEDRAL>
0.510213

>  <SCORE.INTRA.DIHEDRAL.0>
1.43995

>  <SCORE.INTRA.POLAR>
0.272593

>  <SCORE.INTRA.POLAR.0>
-0.272593

>  <SCORE.INTRA.REPUL>
0

>  <SCORE.INTRA.REPUL.0>
0

>  <SCORE.INTRA.SOLV>
-0.505296

>  <SCORE.INTRA.SOLV.lig_0>
-22.6728

>  <SCORE.INTRA.VDW>
0.545043

>  <SCORE.INTRA.VDW.0>
-0.754459

>  <SCORE.INTRA.norm>
0.113409

>  <SCORE.RESTR>
0

>  <SCORE.RESTR.CAVITY>
0

>  <SCORE.RESTR.norm>
0

>  <SCORE.SYSTEM>
0

>  <SCORE.SYSTEM.CONST>
0

>  <SCORE.SYSTEM.DIHEDRAL>
0

>  <SCORE.SYSTEM.SOLV>
0

>  <SCORE.SYSTEM.norm>
0

>  <SCORE.heavy>
13

>  <SCORE.norm>
-4.58966

>  <RMSD>
0.636

$$$$
lig.pdb
 OpenBabel11021811453D
libRbt.so/2013.1/901 2013/11/27
 13 14  0  0  0  0  0  0  0  0999 V2000
    2.2646    3.6135   -4.3883 N   0  0  0  0  0  0  0  0  0  0  0  0
    3.5201    3.0624   -4.4667 C   0  0  0  0  0  0  0  0  0  0  0  0
    3.8008    1.9407   -3.8124 N   0  0  0  0  0  0  0  0  0  0  0  0
    2.8597    1.3025   -3.0498 C   0  0  0  0  0  0  0  0  0  0  0  0
    1.5534    1.8424   -2.9342 C   0  0  0  0  0  0  0  0  0  0  0  0
    1.2685    3.0430   -3.6447 C   0  0  0  0  0  0  0  0  0  0  0  0
    0.1653    3.5565   -3.5974 O   0  0  0  0  0  0  0  0  0  0  0  0
    0.8106    0.9565   -2.0379 C   0  0  0  0  0  0  0  0  0  0  0  0
   -0.6025    1.1364   -1.5531 C   0  0  0  0  0  0  0  0  0  0  0  0
   -1.1068   -0.1372   -1.0210 N   0  0  0  0  0  0  0  0  0  0  0  0
    1.6519   -0.0337   -1.7144 C   0  0  0  0  0  0  0  0  0  0  0  0
    2.8723    0.1693   -2.3022 N   0  0  0  0  0  0  0  0  0  0  0  0
    4.4837    3.6676   -5.2298 N   0  0  0  0  0  0  0  0  0  0  0  0
  1  6  1  0  0  0  0
  2  1  1  0  0  0  0
  2  3  2  0  0  0  0
  3  4  1  0  0  0  0
  4  5  2  0  0  0  0
  4 12  1  0  0  0  0
  5  8  1  0  0  0  0
  6  7  2  0  0  0  0
  6  5  1  0  0  0  0
  8 11  2  0  0  0  0
  8  9  1  0  0  0  0
 10  9  1  0  0  0  0
 12 11  1  0  0  0  0
 13  2  1  0  0  0  0
M  END
>  <CHROM.1>
162.90755429,83.35718889,1.79355854,1.87133316,-3.06959810,0.82244036,0.27838573
-0.57915838

>  <Name>
lig.pdb

>  <RI>
1.459e+07

>  <Rbt.Current_Directory>
/home/itssahil/PROJECTS/Mol_Feturizer/New_Systems/rnas/2l1v

>  <Rbt.Executable>
rbdock ($Id: //depot/dev/client3/rdock/2013.1/src/exe/rbdock.cxx#4 $)

>  <Rbt.Library>
libRbt.so (2013.1, Build901 2013/11/27)

>  <Rbt.Parameter_File>
/export/apps/rDock/src/rDock_2013.1_src/data/scripts/dock_solv.prm

>  <Rbt.Receptor>
prm/pocket_docking_2.prm

>  <SCORE>
-59.6986

>  <SCORE.INTER>
-61.1095

>  <SCORE.INTER.CONST>
1

>  <SCORE.INTER.POLAR>
-5.91739

>  <SCORE.INTER.ROT>
2

>  <SCORE.INTER.SOLV>
17.2319

>  <SCORE.INTER.VDW>
-31.6924

>  <SCORE.INTER.norm>
-4.70073

>  <SCORE.INTRA>
1.4109

>  <SCORE.INTRA.DIHEDRAL>
0.389502

>  <SCORE.INTRA.DIHEDRAL.0>
1.43995

>  <SCORE.INTRA.POLAR>
0.272593

>  <SCORE.INTRA.POLAR.0>
-0.272593

>  <SCORE.INTRA.REPUL>
0

>  <SCORE.INTRA.REPUL.0>
0

>  <SCORE.INTRA.SOLV>
-0.503894

>  <SCORE.INTRA.SOLV.lig_0>
-22.6728

>  <SCORE.INTRA.VDW>
0.541284

>  <SCORE.INTRA.VDW.0>
-0.754459

>  <SCORE.INTRA.norm>
0.108531

>  <SCORE.RESTR>
0

>  <SCORE.RESTR.CAVITY>
0

>  <SCORE.RESTR.norm>
0

>  <SCORE.SYSTEM>
0

>  <SCORE.SYSTEM.CONST>
0

>  <SCORE.SYSTEM.DIHEDRAL>
0

>  <SCORE.SYSTEM.SOLV>
0

>  <SCORE.SYSTEM.norm>
0

>  <SCORE.heavy>
13

>  <SCORE.norm>
-4.5922

>  <RMSD>
0.636

$$$$
lig.pdb
 OpenBabel11021811453D
libRbt.so/2013.1/901 2013/11/27
 13 14  0  0  0  0  0  0  0  0999 V2000
    2.2655    3.6024   -4.3989 N   0  0  0  0  0  0  0  0  0  0  0  0
    3.5272    3.0637   -4.4635 C   0  0  0  0  0  0  0  0  0  0  0  0
    3.8136    1.9487   -3.8005 N   0  0  0  0  0  0  0  0  0  0  0  0
    2.8726    1.3053   -3.0422 C   0  0  0  0  0  0  0  0  0  0  0  0
    1.5600    1.8324   -2.9408 C   0  0  0  0  0  0  0  0  0  0  0  0
    1.2689    3.0261   -3.6606 C   0  0  0  0  0  0  0  0  0  0  0  0
    0.1603    3.5285   -3.6257 O   0  0  0  0  0  0  0  0  0  0  0  0
    0.8185    0.9442   -2.0458 C   0  0  0  0  0  0  0  0  0  0  0  0
   -0.6005    1.1124   -1.5740 C   0  0  0  0  0  0  0  0  0  0  0  0
   -1.0919   -0.1599   -1.0271 N   0  0  0  0  0  0  0  0  0  0  0  0
    1.6671   -0.0355   -1.7094 C   0  0  0  0  0  0  0  0  0  0  0  0
    2.8903    0.1765   -2.2881 N   0  0  0  0  0  0  0  0  0  0  0  0
    4.4912    3.6743   -5.2219 N   0  0  0  0  0  0  0  0  0  0  0  0
  1  6  1  0  0  0  0
  2  1  1  0  0  0  0
  2  3  2  0  0  0  0
  3  4  1  0  0  0  0
  4  5  2  0  0  0  0
  4 12  1  0  0  0  0
  5  8  1  0  0  0  0
  6  7  2  0  0  0  0
  6  5  1  0  0  0  0
  8 11  2  0  0  0  0
  8  9  1  0  0  0  0
 10  9  1  0  0  0  0
 12 11  1  0  0  0  0
 13  2  1  0  0  0  0
M  END
>  <CHROM.1>
163.45028553,81.20493365,1.80135033,1.86339934,-3.07323091,0.82688769,0.26637496
-0.58654420

>  <Name>
lig.pdb

>  <RI>
1.459e+07

>  <Rbt.Current_Directory>
/home/itssahil/PROJECTS/Mol_Feturizer/New_Systems/rnas/2l1v

>  <Rbt.Executable>
rbdock ($Id: //depot/dev/client3/rdock/2013.1/src/exe/rbdock.cxx#4 $)

>  <Rbt.Library>
libRbt.so (2013.1, Build901 2013/11/27)

>  <Rbt.Parameter_File>
/export/apps/rDock/src/rDock_2013.1_src/data/scripts/dock_solv.prm

>  <Rbt.Receptor>
prm/pocket_docking_2.prm

>  <SCORE>
-59.7042

>  <SCORE.INTER>
-61.1086

>  <SCORE.INTER.CONST>
1

>  <SCORE.INTER.POLAR>
-5.92648

>  <SCORE.INTER.ROT>
2

>  <SCORE.INTER.SOLV>
17.2106

>  <SCORE.INTER.VDW>
-31.6543

>  <SCORE.INTER.norm>
-4.70066

>  <SCORE.INTRA>
1.40444

>  <SCORE.INTRA.DIHEDRAL>
0.367067

>  <SCORE.INTRA.DIHEDRAL.0>
1.43995

>  <SCORE.INTRA.POLAR>
0.272593

>  <SCORE.INTRA.POLAR.0>
-0.272593

>  <SCORE.INTRA.REPUL>
0

>  <SCORE.INTRA.REPUL.0>
0

>  <SCORE.INTRA.SOLV>
-0.503308

>  <SCORE.INTRA.SOLV.lig_0>
-22.6728

>  <SCORE.INTRA.VDW>
0.54575

>  <SCORE.INTRA.VDW.0>
-0.754459

>  <SCORE.INTRA.norm>
0.108034

>  <SCORE.RESTR>
0

>  <SCORE.RESTR.CAVITY>
0

>  <SCORE.RESTR.norm>
0

>  <SCORE.SYSTEM>
0

>  <SCORE.SYSTEM.CONST>
0

>  <SCORE.SYSTEM.DIHEDRAL>
0

>  <SCORE.SYSTEM.SOLV>
0

>  <SCORE.SYSTEM.norm>
0

>  <SCORE.heavy>
13

>  <SCORE.norm>
-4.59263

>  <RMSD>
0.636

$$$$
lig.pdb
 OpenBabel11021811453D
libRbt.so/2013.1/901 2013/11/27
 13 14  0  0  0  0  0  0  0  0999 V2000
    2.2678    3.6165   -4.4005 N   0  0  0  0  0  0  0  0  0  0  0  0
    3.5260    3.0715   -4.4787 C   0  0  0  0  0  0  0  0  0  0  0  0
    3.8135    1.9539   -3.8203 N   0  0  0  0  0  0  0  0  0  0  0  0
    2.8769    1.3142   -3.0535 C   0  0  0  0  0  0  0  0  0  0  0  0
    1.5681    1.8478   -2.9380 C   0  0  0  0  0  0  0  0  0  0  0  0
    1.2759    3.0441   -3.6530 C   0  0  0  0  0  0  0  0  0  0  0  0
    0.1702    3.5521   -3.6060 O   0  0  0  0  0  0  0  0  0  0  0  0
    0.8312    0.9620   -2.0367 C   0  0  0  0  0  0  0  0  0  0  0  0
   -0.5820    1.1367   -1.5503 C   0  0  0  0  0  0  0  0  0  0  0  0
   -1.0757   -0.1349   -1.0037 N   0  0  0  0  0  0  0  0  0  0  0  0
    1.6781   -0.0226   -1.7105 C   0  0  0  0  0  0  0  0  0  0  0  0
    2.8965    0.1841   -2.3012 N   0  0  0  0  0  0  0  0  0  0  0  0
    4.4853    3.6783   -5.2459 N   0  0  0  0  0  0  0  0  0  0  0  0
  1  6  1  0  0  0  0
  2  1  1  0  0  0  0
  2  3  2  0  0  0  0
  3  4  1  0  0  0  0
  4  5  2  0  0  0  0
  4 12  1  0  0  0  0
  5  8  1  0  0  0  0
  6  7  2  0  0  0  0
  6  5  1  0  0  0  0
  8 11  2  0  0  0  0
  8  9  1  0  0  0  0
 10  9  1  0  0  0  0
 12 11  1  0  0  0  0
 13  2  1  0  0  0  0
M  END
>  <CHROM.1>
163.29471245,-96.14247387,1.80783651,1.87784267,-3.07295484,0.82777940,0.27759670
-0.58524583

>  <Name>
lig.pdb

>  <RI>
0

>  <Rbt.Current_Directory>
/home/itssahil/PROJECTS/Mol_Feturizer/New_Systems/rnas/2l1v

>  <Rbt.Executable>
rbdock ($Id: //depot/dev/client3/rdock/2013.1/src/exe/rbdock.cxx#4 $)

>  <Rbt.Library>
libRbt.so (2013.1, Build901 2013/11/27)

>  <Rbt.Parameter_File>
/export/apps/rDock/src/rDock_2013.1_src/data/scripts/dock_solv.prm

>  <Rbt.Receptor>
prm/pocket_docking_3.prm

>  <SCORE>
-59.6648

>  <SCORE.INTER>
-61.1351

>  <SCORE.INTER.CONST>
1

>  <SCORE.INTER.POLAR>
-5.89099

>  <SCORE.INTER.ROT>
2

>  <SCORE.INTER.SOLV>
17.205

>  <SCORE.INTER.VDW>
-31.7884

>  <SCORE.INTER.norm>
-4.7027

>  <SCORE.INTRA>
1.47024

>  <SCORE.INTRA.DIHEDRAL>
0.499012

>  <SCORE.INTRA.DIHEDRAL.0>
1.43995

>  <SCORE.INTRA.POLAR>
0.272593

>  <SCORE.INTRA.POLAR.0>
-0.272593

>  <SCORE.INTRA.REPUL>
0

>  <SCORE.INTRA.REPUL.0>
0

>  <SCORE.INTRA.SOLV>
-0.505058

>  <SCORE.INTRA.SOLV.lig_0>
-22.6728

>  <SCORE.INTRA.VDW>
0.54645

>  <SCORE.INTRA.VDW.0>
-0.754459

>  <SCORE.INTRA.norm>
0.113095

>  <SCORE.RESTR>
0

>  <SCORE.RESTR.CAVITY>
0

>  <SCORE.RESTR.norm>
0

>  <SCORE.SYSTEM>
0

>  <SCORE.SYSTEM.CONST>
0

>  <SCORE.SYSTEM.DIHEDRAL>
0

>  <SCORE.SYSTEM.SOLV>
0

>  <SCORE.SYSTEM.norm>
0

>  <SCORE.heavy>
13

>  <SCORE.norm>
-4.5896

>  <RMSD>
0.636

$$$$
lig.pdb
 OpenBabel11021811453D
libRbt.so/2013.1/901 2013/11/27
 13 14  0  0  0  0  0  0  0  0999 V2000
    2.2637    3.6126   -4.4011 N   0  0  0  0  0  0  0  0  0  0  0  0
    3.5226    3.0674   -4.4655 C   0  0  0  0  0  0  0  0  0  0  0  0
    3.8036    1.9517   -3.8012 N   0  0  0  0  0  0  0  0  0  0  0  0
    2.8595    1.3140   -3.0419 C   0  0  0  0  0  0  0  0  0  0  0  0
    1.5497    1.8480   -2.9406 C   0  0  0  0  0  0  0  0  0  0  0  0
    1.2645    3.0423   -3.6617 C   0  0  0  0  0  0  0  0  0  0  0  0
    0.1585    3.5504   -3.6269 O   0  0  0  0  0  0  0  0  0  0  0  0
    0.8040    0.9646   -2.0442 C   0  0  0  0  0  0  0  0  0  0  0  0
   -0.6139    1.1407   -1.5720 C   0  0  0  0  0  0  0  0  0  0  0  0
   -1.1173   -0.1327   -1.0387 N   0  0  0  0  0  0  0  0  0  0  0  0
    1.6477   -0.0191   -1.7070 C   0  0  0  0  0  0  0  0  0  0  0  0
    2.8717    0.1860   -2.2864 N   0  0  0  0  0  0  0  0  0  0  0  0
    4.4894    3.6721   -5.2250 N   0  0  0  0  0  0  0  0  0  0  0  0
  1  6  1  0  0  0  0
  2  1  1  0  0  0  0
  2  3  2  0  0  0  0
  3  4  1  0  0  0  0
  4  5  2  0  0  0  0
  4 12  1  0  0  0  0
  5  8  1  0  0  0  0
  6  7  2  0  0  0  0
  6  5  1  0  0  0  0
  8 11  2  0  0  0  0
  8  9  1  0  0  0  0
 10  9  1  0  0  0  0
 12 11  1  0  0  0  0
 13  2  1  0  0  0  0
M  END
>  <CHROM.1>
162.75337469,81.40646230,1.79063507,1.87714363,-3.07453852,0.82203582,0.26850180
-0.58590184

>  <Name>
lig.pdb

>  <RI>
0

>  <Rbt.Current_Directory>
/home/itssahil/PROJECTS/Mol_Feturizer/New_Systems/rnas/2l1v

>  <Rbt.Executable>
rbdock ($Id: //depot/dev/client3/rdock/2013.1/src/exe/rbdock.cxx#4 $)

>  <Rbt.Library>
libRbt.so (2013.1, Build901 2013/11/27)

>  <Rbt.Parameter_File>
/export/apps/rDock/src/rDock_2013.1_src/data/scripts/dock_solv.prm

>  <Rbt.Receptor>
prm/pocket_docking_3.prm

>  <SCORE>
-59.6815

>  <SCORE.INTER>
-61.0977

>  <SCORE.INTER.CONST>
1

>  <SCORE.INTER.POLAR>
-5.91492

>  <SCORE.INTER.ROT>
2

>  <SCORE.INTER.SOLV>
17.242

>  <SCORE.INTER.VDW>
-31.6961

>  <SCORE.INTER.norm>
-4.69983

>  <SCORE.INTRA>
1.41623

>  <SCORE.INTRA.DIHEDRAL>
0.398976

>  <SCORE.INTRA.DIHEDRAL.0>
1.43995

>  <SCORE.INTRA.POLAR>
0.272593

>  <SCORE.INTRA.POLAR.0>
-0.272593

>  <SCORE.INTRA.REPUL>
0

>  <SCORE.INTRA.REPUL.0>
0

>  <SCORE.INTRA.SOLV>
-0.503988

>  <SCORE.INTRA.SOLV.lig_0>
-22.6728

>  <SCORE.INTRA.VDW>
0.541926

>  <SCORE.INTRA.VDW.0>
-0.754459

>  <SCORE.INTRA.norm>
0.108941

>  <SCORE.RESTR>
0

>  <SCORE.RESTR.CAVITY>
0

>  <SCORE.RESTR.norm>
0

>  <SCORE.SYSTEM>
0

>  <SCORE.SYSTEM.CONST>
0

>  <SCORE.SYSTEM.DIHEDRAL>
0

>  <SCORE.SYSTEM.SOLV>
0

>  <SCORE.SYSTEM.norm>
0

>  <SCORE.heavy>
13

>  <SCORE.norm>
-4.59088

>  <RMSD>
0.636

$$$$
lig.pdb
 OpenBabel11021811453D
libRbt.so/2013.1/901 2013/11/27
 13 14  0  0  0  0  0  0  0  0999 V2000
    2.2681    3.6174   -4.3958 N   0  0  0  0  0  0  0  0  0  0  0  0
    3.5254    3.0707   -4.4757 C   0  0  0  0  0  0  0  0  0  0  0  0
    3.8115    1.9513   -3.8197 N   0  0  0  0  0  0  0  0  0  0  0  0
    2.8743    1.3114   -3.0538 C   0  0  0  0  0  0  0  0  0  0  0  0
    1.5663    1.8468   -2.9366 C   0  0  0  0  0  0  0  0  0  0  0  0
    1.2756    3.0450   -3.6490 C   0  0  0  0  0  0  0  0  0  0  0  0
    0.1708    3.5545   -3.6005 O   0  0  0  0  0  0  0  0  0  0  0  0
    0.8285    0.9602   -2.0370 C   0  0  0  0  0  0  0  0  0  0  0  0
   -0.5842    1.1360   -1.5495 C   0  0  0  0  0  0  0  0  0  0  0  0
   -1.0809   -0.1369   -1.0087 N   0  0  0  0  0  0  0  0  0  0  0  0
    1.6741   -0.0264   -1.7131 C   0  0  0  0  0  0  0  0  0  0  0  0
    2.8925    0.1797   -2.3040 N   0  0  0  0  0  0  0  0  0  0  0  0
    4.4853    3.6777   -5.2420 N   0  0  0  0  0  0  0  0  0  0  0  0
  1  6  1  0  0  0  0
  2  1  1  0  0  0  0
  2  3  2  0  0  0  0
  3  4  1  0  0  0  0
  4  5  2  0  0  0  0
  4 12  1  0  0  0  0
  5  8  1  0  0  0  0
  6  7  2  0  0  0  0
  6  5  1  0  0  0  0
  8 11  2  0  0  0  0
  8  9  1  0  0  0  0
 10  9  1  0  0  0  0
 12 11  1  0  0  0  0
 13  2  1  0  0  0  0
M  END
>  <CHROM.1>
163.14348337,82.29000267,1.80624683,1.87645660,-3.07208692,0.82695682,0.27846184
-0.58267286

>  <Name>
lig.pdb

>  <RI>
2.86608e+07

>  <Rbt.Current_Directory>
/home/itssahil/PROJECTS/Mol_Feturizer/New_Systems/rnas/2l1v

>  <Rbt.Executable>
rbdock ($Id: //depot/dev/client3/rdock/2013.1/src/exe/rbdock.cxx#4 $)

>  <Rbt.Library>
libRbt.so (2013.1, Build901 2013/11/27)

>  <Rbt.Parameter_File>
/export/apps/rDock/src/rDock_2013.1_src/data/scripts/dock_solv.prm

>  <Rbt.Receptor>
prm/pocket_docking_7.prm

>  <SCORE>
-59.7336

>  <SCORE.INTER>
-61.1418

>  <SCORE.INTER.CONST>
1

>  <SCORE.INTER.POLAR>
-5.90153

>  <SCORE.INTER.ROT>
2

>  <SCORE.INTER.SOLV>
17.2164

>  <SCORE.INTER.VDW>
-31.7616

>  <SCORE.INTER.norm>
-4.70322

>  <SCORE.INTRA>
1.40815

>  <SCORE.INTRA.DIHEDRAL>
0.379741

>  <SCORE.INTRA.DIHEDRAL.0>
1.43995

>  <SCORE.INTRA.POLAR>
0.272593

>  <SCORE.INTRA.POLAR.0>
-0.272593

>  <SCORE.INTRA.REPUL>
0

>  <SCORE.INTRA.REPUL.0>
0

>  <SCORE.INTRA.SOLV>
-0.503635

>  <SCORE.INTRA.SOLV.lig_0>
-22.6728

>  <SCORE.INTRA.VDW>
0.543283

>  <SCORE.INTRA.VDW.0>
-0.754459

>  <SCORE.INTRA.norm>
0.108319

>  <SCORE.RESTR>
0

>  <SCORE.RESTR.CAVITY>
0

>  <SCORE.RESTR.norm>
0

>  <SCORE.SYSTEM>
0

>  <SCORE.SYSTEM.CONST>
0

>  <SCORE.SYSTEM.DIHEDRAL>
0

>  <SCORE.SYSTEM.SOLV>
0

>  <SCORE.SYSTEM.norm>
0

>  <SCORE.heavy>
13

>  <SCORE.norm>
-4.5949

>  <RMSD>
0.636

$$$$
lig.pdb
 OpenBabel11021811453D
libRbt.so/2013.1/901 2013/11/27
 13 14  0  0  0  0  0  0  0  0999 V2000
    2.2662    3.6033   -4.3985 N   0  0  0  0  0  0  0  0  0  0  0  0
    3.5279    3.0645   -4.4629 C   0  0  0  0  0  0  0  0  0  0  0  0
    3.8140    1.9492   -3.8002 N   0  0  0  0  0  0  0  0  0  0  0  0
    2.8726    1.3056   -3.0425 C   0  0  0  0  0  0  0  0  0  0  0  0
    1.5600    1.8328   -2.9413 C   0  0  0  0  0  0  0  0  0  0  0  0
    1.2693    3.0268   -3.6608 C   0  0  0  0  0  0  0  0  0  0  0  0
    0.1607    3.5293   -3.6260 O   0  0  0  0  0  0  0  0  0  0  0  0
    0.8182    0.9443   -2.0468 C   0  0  0  0  0  0  0  0  0  0  0  0
   -0.6009    1.1126   -1.5754 C   0  0  0  0  0  0  0  0  0  0  0  0
   -1.0891   -0.1570   -1.0192 N   0  0  0  0  0  0  0  0  0  0  0  0
    1.6665   -0.0356   -1.7106 C   0  0  0  0  0  0  0  0  0  0  0  0
    2.8900    0.1765   -2.2887 N   0  0  0  0  0  0  0  0  0  0  0  0
    4.4921    3.6753   -5.2207 N   0  0  0  0  0  0  0  0  0  0  0  0
  1  6  1  0  0  0  0
  2  1  1  0  0  0  0
  2  3  2  0  0  0  0
  3  4  1  0  0  0  0
  4  5  2  0  0  0  0
  4 12  1  0  0  0  0
  5  8  1  0  0  0  0
  6  7  2  0  0  0  0
  6  5  1  0  0  0  0
  8 11  2  0  0  0  0
  8  9  1  0  0  0  0
 10  9  1  0  0  0  0
 12 11  1  0  0  0  0
 13  2  1  0  0  0  0
M  END
>  <CHROM.1>
163.90044495,-97.27571632,1.80147228,1.86426746,-3.07257834,0.82665596,0.26693582
-0.58662827

>  <Name>
lig.pdb

>  <RI>
1.77584e+07

>  <Rbt.Current_Directory>
/home/itssahil/PROJECTS/Mol_Feturizer/New_Systems/rnas/2l1v

>  <Rbt.Executable>
rbdock ($Id: //depot/dev/client3/rdock/2013.1/src/exe/rbdock.cxx#4 $)

>  <Rbt.Library>
libRbt.so (2013.1, Build901 2013/11/27)

>  <Rbt.Parameter_File>
/export/apps/rDock/src/rDock_2013.1_src/data/scripts/dock_solv.prm

>  <Rbt.Receptor>
prm/blind_docking_80.prm

>  <SCORE>
-59.6372

>  <SCORE.INTER>
-61.0972

>  <SCORE.INTER.CONST>
1

>  <SCORE.INTER.POLAR>
-5.91843

>  <SCORE.INTER.ROT>
2

>  <SCORE.INTER.SOLV>
17.2007

>  <SCORE.INTER.VDW>
-31.6703

>  <SCORE.INTER.norm>
-4.69978

>  <SCORE.INTRA>
1.45998

>  <SCORE.INTRA.DIHEDRAL>
0.470443

>  <SCORE.INTRA.DIHEDRAL.0>
1.43995

>  <SCORE.INTRA.POLAR>
0.272593

>  <SCORE.INTRA.POLAR.0>
-0.272593

>  <SCORE.INTRA.REPUL>
0

>  <SCORE.INTRA.REPUL.0>
0

>  <SCORE.INTRA.SOLV>
-0.50445

>  <SCORE.INTRA.SOLV.lig_0>
-22.6728

>  <SCORE.INTRA.VDW>
0.55017

>  <SCORE.INTRA.VDW.0>
-0.754459

>  <SCORE.INTRA.norm>
0.112306

>  <SCORE.RESTR>
0

>  <SCORE.RESTR.CAVITY>
0

>  <SCORE.RESTR.norm>
0

>  <SCORE.SYSTEM>
0

>  <SCORE.SYSTEM.CONST>
0

>  <SCORE.SYSTEM.DIHEDRAL>
0

>  <SCORE.SYSTEM.SOLV>
0

>  <SCORE.SYSTEM.norm>
0

>  <SCORE.heavy>
13

>  <SCORE.norm>
-4.58748

>  <RMSD>
0.637

$$$$
lig.pdb
 OpenBabel11021811453D
libRbt.so/2013.1/901 2013/11/27
 13 14  0  0  0  0  0  0  0  0999 V2000
    2.2732    3.6298   -4.3824 N   0  0  0  0  0  0  0  0  0  0  0  0
    3.5269    3.0763   -4.4722 C   0  0  0  0  0  0  0  0  0  0  0  0
    3.8090    1.9498   -3.8269 N   0  0  0  0  0  0  0  0  0  0  0  0
    2.8712    1.3089   -3.0626 C   0  0  0  0  0  0  0  0  0  0  0  0
    1.5669    1.8510   -2.9353 C   0  0  0  0  0  0  0  0  0  0  0  0
    1.2804    3.0569   -3.6363 C   0  0  0  0  0  0  0  0  0  0  0  0
    0.1788    3.5726   -3.5788 O   0  0  0  0  0  0  0  0  0  0  0  0
    0.8276    0.9612   -2.0401 C   0  0  0  0  0  0  0  0  0  0  0  0
   -0.5821    1.1413   -1.5453 C   0  0  0  0  0  0  0  0  0  0  0  0
   -1.0862   -0.1346   -1.0186 N   0  0  0  0  0  0  0  0  0  0  0  0
    1.6685   -0.0330   -1.7283 C   0  0  0  0  0  0  0  0  0  0  0  0
    2.8857    0.1708   -2.3224 N   0  0  0  0  0  0  0  0  0  0  0  0
    4.4872    3.6841   -5.2373 N   0  0  0  0  0  0  0  0  0  0  0  0
  1  6  1  0  0  0  0
  2  1  1  0  0  0  0
  2  3  2  0  0  0  0
  3  4  1  0  0  0  0
  4  5  2  0  0  0  0
  4 12  1  0  0  0  0
  5  8  1  0  0  0  0
  6  7  2  0  0  0  0
  6  5  1  0  0  0  0
  8 11  2  0  0  0  0
  8  9  1  0  0  0  0
 10  9  1  0  0  0  0
 12 11  1  0  0  0  0
 13  2  1  0  0  0  0
M  END
>  <CHROM.1>
162.89518926,82.22830936,1.80625465,1.88031218,-3.07206038,0.82389902,0.28482289
-0.57314325

>  <Name>
lig.pdb

>  <RI>
1.459e+07

>  <Rbt.Current_Directory>
/home/itssahil/PROJECTS/Mol_Feturizer/New_Systems/rnas/2l1v

>  <Rbt.Executable>
rbdock ($Id: //depot/dev/client3/rdock/2013.1/src/exe/rbdock.cxx#4 $)

>  <Rbt.Library>
libRbt.so (2013.1, Build901 2013/11/27)

>  <Rbt.Parameter_File>
/export/apps/rDock/src/rDock_2013.1_src/data/scripts/dock_solv.prm

>  <Rbt.Receptor>
prm/pocket_docking_2.prm

>  <SCORE>
-59.7

>  <SCORE.INTER>
-61.1126

>  <SCORE.INTER.CONST>
1

>  <SCORE.INTER.POLAR>
-5.91982

>  <SCORE.INTER.ROT>
2

>  <SCORE.INTER.SOLV>
17.2621

>  <SCORE.INTER.VDW>
-31.6963

>  <SCORE.INTER.norm>
-4.70097

>  <SCORE.INTRA>
1.41256

>  <SCORE.INTRA.DIHEDRAL>
0.391317

>  <SCORE.INTRA.DIHEDRAL.0>
1.43995

>  <SCORE.INTRA.POLAR>
0.272593

>  <SCORE.INTRA.POLAR.0>
-0.272593

>  <SCORE.INTRA.REPUL>
0

>  <SCORE.INTRA.REPUL.0>
0

>  <SCORE.INTRA.SOLV>
-0.503874

>  <SCORE.INTRA.SOLV.lig_0>
-22.6728

>  <SCORE.INTRA.VDW>
0.542023

>  <SCORE.INTRA.VDW.0>
-0.754459

>  <SCORE.INTRA.norm>
0.108658

>  <SCORE.RESTR>
0

>  <SCORE.RESTR.CAVITY>
0

>  <SCORE.RESTR.norm>
0

>  <SCORE.SYSTEM>
0

>  <SCORE.SYSTEM.CONST>
0

>  <SCORE.SYSTEM.DIHEDRAL>
0

>  <SCORE.SYSTEM.SOLV>
0

>  <SCORE.SYSTEM.norm>
0

>  <SCORE.heavy>
13

>  <SCORE.norm>
-4.59231

>  <RMSD>
0.637

$$$$
lig.pdb
 OpenBabel11021811453D
libRbt.so/2013.1/901 2013/11/27
 13 14  0  0  0  0  0  0  0  0999 V2000
    2.2700    3.6251   -4.3906 N   0  0  0  0  0  0  0  0  0  0  0  0
    3.5223    3.0691   -4.4837 C   0  0  0  0  0  0  0  0  0  0  0  0
    3.8037    1.9418   -3.8393 N   0  0  0  0  0  0  0  0  0  0  0  0
    2.8666    1.3028   -3.0727 C   0  0  0  0  0  0  0  0  0  0  0  0
    1.5638    1.8476   -2.9419 C   0  0  0  0  0  0  0  0  0  0  0  0
    1.2779    3.0542   -3.6420 C   0  0  0  0  0  0  0  0  0  0  0  0
    0.1776    3.5722   -3.5816 O   0  0  0  0  0  0  0  0  0  0  0  0
    0.8250    0.9592   -2.0449 C   0  0  0  0  0  0  0  0  0  0  0  0
   -0.5830    1.1422   -1.5464 C   0  0  0  0  0  0  0  0  0  0  0  0
   -1.0775   -0.1251   -0.9906 N   0  0  0  0  0  0  0  0  0  0  0  0
    1.6647   -0.0368   -1.7354 C   0  0  0  0  0  0  0  0  0  0  0  0
    2.8807    0.1646   -2.3327 N   0  0  0  0  0  0  0  0  0  0  0  0
    4.4819    3.6750   -5.2513 N   0  0  0  0  0  0  0  0  0  0  0  0
  1  6  1  0  0  0  0
  2  1  1  0  0  0  0
  2  3  2  0  0  0  0
  3  4  1  0  0  0  0
  4  5  2  0  0  0  0
  4 12  1  0  0  0  0
  5  8  1  0  0  0  0
  6  7  2  0  0  0  0
  6  5  1  0  0  0  0
  8 11  2  0  0  0  0
  8  9  1  0  0  0  0
 10  9  1  0  0  0  0
 12 11  1  0  0  0  0
 13  2  1  0  0  0  0
M  END
>  <CHROM.1>
164.17833890,82.85931998,1.80385513,1.87715194,-3.07667132,0.82477019,0.29011273
-0.57422055

>  <Name>
lig.pdb

>  <RI>
0

>  <Rbt.Current_Directory>
/home/itssahil/PROJECTS/Mol_Feturizer/New_Systems/rnas/2l1v

>  <Rbt.Executable>
rbdock ($Id: //depot/dev/client3/rdock/2013.1/src/exe/rbdock.cxx#4 $)

>  <Rbt.Library>
libRbt.so (2013.1, Build901 2013/11/27)

>  <Rbt.Parameter_File>
/export/apps/rDock/src/rDock_2013.1_src/data/scripts/dock_solv.prm

>  <Rbt.Receptor>
prm/pocket_docking_3.prm

>  <SCORE>
-59.671

>  <SCORE.INTER>
-61.0609

>  <SCORE.INTER.CONST>
1

>  <SCORE.INTER.POLAR>
-5.86856

>  <SCORE.INTER.ROT>
2

>  <SCORE.INTER.SOLV>
17.2485

>  <SCORE.INTER.VDW>
-31.8282

>  <SCORE.INTER.norm>
-4.69699

>  <SCORE.INTRA>
1.38985

>  <SCORE.INTRA.DIHEDRAL>
0.332371

>  <SCORE.INTRA.DIHEDRAL.0>
1.43995

>  <SCORE.INTRA.POLAR>
0.272593

>  <SCORE.INTRA.POLAR.0>
-0.272593

>  <SCORE.INTRA.REPUL>
0

>  <SCORE.INTRA.REPUL.0>
0

>  <SCORE.INTRA.SOLV>
-0.502674

>  <SCORE.INTRA.SOLV.lig_0>
-22.6728

>  <SCORE.INTRA.VDW>
0.548187

>  <SCORE.INTRA.VDW.0>
-0.754459

>  <SCORE.INTRA.norm>
0.106912

>  <SCORE.RESTR>
0

>  <SCORE.RESTR.CAVITY>
0

>  <SCORE.RESTR.norm>
0

>  <SCORE.SYSTEM>
0

>  <SCORE.SYSTEM.CONST>
0

>  <SCORE.SYSTEM.DIHEDRAL>
0

>  <SCORE.SYSTEM.SOLV>
0

>  <SCORE.SYSTEM.norm>
0

>  <SCORE.heavy>
13

>  <SCORE.norm>
-4.59008

>  <RMSD>
0.637

$$$$
lig.pdb
 OpenBabel11021811453D
libRbt.so/2013.1/901 2013/11/27
 13 14  0  0  0  0  0  0  0  0999 V2000
    2.2660    3.6139   -4.4000 N   0  0  0  0  0  0  0  0  0  0  0  0
    3.5264    3.0717   -4.4604 C   0  0  0  0  0  0  0  0  0  0  0  0
    3.8096    1.9599   -3.7906 N   0  0  0  0  0  0  0  0  0  0  0  0
    2.8664    1.3233   -3.0293 C   0  0  0  0  0  0  0  0  0  0  0  0
    1.5550    1.8543   -2.9320 C   0  0  0  0  0  0  0  0  0  0  0  0
    1.2674    3.0444   -3.6590 C   0  0  0  0  0  0  0  0  0  0  0  0
    0.1600    3.5497   -3.6279 O   0  0  0  0  0  0  0  0  0  0  0  0
    0.8107    0.9732   -2.0322 C   0  0  0  0  0  0  0  0  0  0  0  0
   -0.6082    1.1477   -1.5625 C   0  0  0  0  0  0  0  0  0  0  0  0
   -1.1175   -0.1309   -1.0474 N   0  0  0  0  0  0  0  0  0  0  0  0
    1.6566   -0.0066   -1.6894 C   0  0  0  0  0  0  0  0  0  0  0  0
    2.8807    0.1990   -2.2684 N   0  0  0  0  0  0  0  0  0  0  0  0
    4.4924    3.6755   -5.2217 N   0  0  0  0  0  0  0  0  0  0  0  0
  1  6  1  0  0  0  0
  2  1  1  0  0  0  0
  2  3  2  0  0  0  0
  3  4  1  0  0  0  0
  4  5  2  0  0  0  0
  4 12  1  0  0  0  0
  5  8  1  0  0  0  0
  6  7  2  0  0  0  0
  6  5  1  0  0  0  0
  8 11  2  0  0  0  0
  8  9  1  0  0  0  0
 10  9  1  0  0  0  0
 12 11  1  0  0  0  0
 13  2  1  0  0  0  0
M  END
>  <CHROM.1>
161.67631966,-95.39475021,1.79490066,1.88304553,-3.06788432,0.82227645,0.26463659
-0.58999815

>  <Name>
lig.pdb

>  <RI>
2.86608e+07

>  <Rbt.Current_Directory>
/home/itssahil/PROJECTS/Mol_Feturizer/New_Systems/rnas/2l1v

>  <Rbt.Executable>
rbdock ($Id: //depot/dev/client3/rdock/2013.1/src/exe/rbdock.cxx#4 $)

>  <Rbt.Library>
libRbt.so (2013.1, Build901 2013/11/27)

>  <Rbt.Parameter_File>
/export/apps/rDock/src/rDock_2013.1_src/data/scripts/dock_solv.prm

>  <Rbt.Receptor>
prm/pocket_docking_7.prm

>  <SCORE>
-59.5831

>  <SCORE.INTER>
-61.082

>  <SCORE.INTER.CONST>
1

>  <SCORE.INTER.POLAR>
-5.94753

>  <SCORE.INTER.ROT>
2

>  <SCORE.INTER.SOLV>
17.2212

>  <SCORE.INTER.VDW>
-31.5699

>  <SCORE.INTER.norm>
-4.69861

>  <SCORE.INTRA>
1.49892

>  <SCORE.INTRA.DIHEDRAL>
0.576115

>  <SCORE.INTRA.DIHEDRAL.0>
1.43995

>  <SCORE.INTRA.POLAR>
0.272593

>  <SCORE.INTRA.POLAR.0>
-0.272593

>  <SCORE.INTRA.REPUL>
0

>  <SCORE.INTRA.REPUL.0>
0

>  <SCORE.INTRA.SOLV>
-0.506684

>  <SCORE.INTRA.SOLV.lig_0>
-22.6728

>  <SCORE.INTRA.VDW>
0.537387

>  <SCORE.INTRA.VDW.0>
-0.754459

>  <SCORE.INTRA.norm>
0.115301

>  <SCORE.RESTR>
0

>  <SCORE.RESTR.CAVITY>
0

>  <SCORE.RESTR.norm>
0

>  <SCORE.SYSTEM>
0

>  <SCORE.SYSTEM.CONST>
0

>  <SCORE.SYSTEM.DIHEDRAL>
0

>  <SCORE.SYSTEM.SOLV>
0

>  <SCORE.SYSTEM.norm>
0

>  <SCORE.heavy>
13

>  <SCORE.norm>
-4.58331

>  <RMSD>
0.637

$$$$
lig.pdb
 OpenBabel11021811453D
libRbt.so/2013.1/901 2013/11/27
 13 14  0  0  0  0  0  0  0  0999 V2000
    2.2692    3.6150   -4.3943 N   0  0  0  0  0  0  0  0  0  0  0  0
    3.5262    3.0676   -4.4746 C   0  0  0  0  0  0  0  0  0  0  0  0
    3.8123    1.9491   -3.8172 N   0  0  0  0  0  0  0  0  0  0  0  0
    2.8756    1.3106   -3.0496 C   0  0  0  0  0  0  0  0  0  0  0  0
    1.5680    1.8468   -2.9320 C   0  0  0  0  0  0  0  0  0  0  0  0
    1.2771    3.0441   -3.6458 C   0  0  0  0  0  0  0  0  0  0  0  0
    0.1725    3.5542   -3.5970 O   0  0  0  0  0  0  0  0  0  0  0  0
    0.8306    0.9618   -2.0303 C   0  0  0  0  0  0  0  0  0  0  0  0
   -0.5816    1.1389   -1.5419 C   0  0  0  0  0  0  0  0  0  0  0  0
   -1.0795   -0.1338   -1.0018 N   0  0  0  0  0  0  0  0  0  0  0  0
    1.6760   -0.0247   -1.7059 C   0  0  0  0  0  0  0  0  0  0  0  0
    2.8940    0.1801   -2.2981 N   0  0  0  0  0  0  0  0  0  0  0  0
    4.4856    3.6731   -5.2426 N   0  0  0  0  0  0  0  0  0  0  0  0
  1  6  1  0  0  0  0
  2  1  1  0  0  0  0
  2  3  2  0  0  0  0
  3  4  1  0  0  0  0
  4  5  2  0  0  0  0
  4 12  1  0  0  0  0
  5  8  1  0  0  0  0
  6  7  2  0  0  0  0
  6  5  1  0  0  0  0
  8 11  2  0  0  0  0
  8  9  1  0  0  0  0
 10  9  1  0  0  0  0
 12 11  1  0  0  0  0
 13  2  1  0  0  0  0
M  END
>  <CHROM.1>
163.00598320,82.79482132,1.80766769,1.87608386,-3.06796395,0.82697429,0.27928726
-0.58398110

>  <Name>
lig.pdb

>  <RI>
2.86608e+07

>  <Rbt.Current_Directory>
/home/itssahil/PROJECTS/Mol_Feturizer/New_Systems/rnas/2l1v

>  <Rbt.Executable>
rbdock ($Id: //depot/dev/client3/rdock/2013.1/src/exe/rbdock.cxx#4 $)

>  <Rbt.Library>
libRbt.so (2013.1, Build901 2013/11/27)

>  <Rbt.Parameter_File>
/export/apps/rDock/src/rDock_2013.1_src/data/scripts/dock_solv.prm

>  <Rbt.Receptor>
prm/pocket_docking_7.prm

>  <SCORE>
-59.7407

>  <SCORE.INTER>
-61.1506

>  <SCORE.INTER.CONST>
1

>  <SCORE.INTER.POLAR>
-5.90056

>  <SCORE.INTER.ROT>
2

>  <SCORE.INTER.SOLV>
17.1942

>  <SCORE.INTER.VDW>
-31.7633

>  <SCORE.INTER.norm>
-4.70389

>  <SCORE.INTRA>
1.40987

>  <SCORE.INTRA.DIHEDRAL>
0.385521

>  <SCORE.INTRA.DIHEDRAL.0>
1.43995

>  <SCORE.INTRA.POLAR>
0.272593

>  <SCORE.INTRA.POLAR.0>
-0.272593

>  <SCORE.INTRA.REPUL>
0

>  <SCORE.INTRA.REPUL.0>
0

>  <SCORE.INTRA.SOLV>
-0.503783

>  <SCORE.INTRA.SOLV.lig_0>
-22.6728

>  <SCORE.INTRA.VDW>
0.542191

>  <SCORE.INTRA.VDW.0>
-0.754459

>  <SCORE.INTRA.norm>
0.108452

>  <SCORE.RESTR>
0

>  <SCORE.RESTR.CAVITY>
0

>  <SCORE.RESTR.norm>
0

>  <SCORE.SYSTEM>
0

>  <SCORE.SYSTEM.CONST>
0

>  <SCORE.SYSTEM.DIHEDRAL>
0

>  <SCORE.SYSTEM.SOLV>
0

>  <SCORE.SYSTEM.norm>
0

>  <SCORE.heavy>
13

>  <SCORE.norm>
-4.59544

>  <RMSD>
0.637

$$$$
lig.pdb
 OpenBabel11021811453D
libRbt.so/2013.1/901 2013/11/27
 13 14  0  0  0  0  0  0  0  0999 V2000
    2.2710    3.6109   -4.3811 N   0  0  0  0  0  0  0  0  0  0  0  0
    3.5296    3.0664   -4.4541 C   0  0  0  0  0  0  0  0  0  0  0  0
    3.8131    1.9459   -3.7988 N   0  0  0  0  0  0  0  0  0  0  0  0
    2.8720    1.3027   -3.0406 C   0  0  0  0  0  0  0  0  0  0  0  0
    1.5624    1.8358   -2.9307 C   0  0  0  0  0  0  0  0  0  0  0  0
    1.2745    3.0352   -3.6422 C   0  0  0  0  0  0  0  0  0  0  0  0
    0.1685    3.5430   -3.5997 O   0  0  0  0  0  0  0  0  0  0  0  0
    0.8202    0.9459   -2.0379 C   0  0  0  0  0  0  0  0  0  0  0  0
   -0.5960    1.1185   -1.5593 C   0  0  0  0  0  0  0  0  0  0  0  0
   -1.1004   -0.1609   -1.0415 N   0  0  0  0  0  0  0  0  0  0  0  0
    1.6651   -0.0400   -1.7109 C   0  0  0  0  0  0  0  0  0  0  0  0
    2.8870    0.1694   -2.2933 N   0  0  0  0  0  0  0  0  0  0  0  0
    4.4935    3.6767   -5.2127 N   0  0  0  0  0  0  0  0  0  0  0  0
  1  6  1  0  0  0  0
  2  1  1  0  0  0  0
  2  3  2  0  0  0  0
  3  4  1  0  0  0  0
  4  5  2  0  0  0  0
  4 12  1  0  0  0  0
  5  8  1  0  0  0  0
  6  7  2  0  0  0  0
  6  5  1  0  0  0  0
  8 11  2  0  0  0  0
  8  9  1  0  0  0  0
 10  9  1  0  0  0  0
 12 11  1  0  0  0  0
 13  2  1  0  0  0  0
M  END
>  <CHROM.1>
162.38010853,80.56675709,1.80260439,1.86577240,-3.06608844,0.82386948,0.27088847
-0.57897148

>  <Name>
lig.pdb

>  <RI>
2.86608e+07

>  <Rbt.Current_Directory>
/home/itssahil/PROJECTS/Mol_Feturizer/New_Systems/rnas/2l1v

>  <Rbt.Executable>
rbdock ($Id: //depot/dev/client3/rdock/2013.1/src/exe/rbdock.cxx#4 $)

>  <Rbt.Library>
libRbt.so (2013.1, Build901 2013/11/27)

>  <Rbt.Parameter_File>
/export/apps/rDock/src/rDock_2013.1_src/data/scripts/dock_solv.prm

>  <Rbt.Receptor>
prm/pocket_docking_7.prm

>  <SCORE>
-59.6809

>  <SCORE.INTER>
-61.1051

>  <SCORE.INTER.CONST>
1

>  <SCORE.INTER.POLAR>
-5.95512

>  <SCORE.INTER.ROT>
2

>  <SCORE.INTER.SOLV>
17.2247

>  <SCORE.INTER.VDW>
-31.5612

>  <SCORE.INTER.norm>
-4.70039

>  <SCORE.INTRA>
1.42419

>  <SCORE.INTRA.DIHEDRAL>
0.417745

>  <SCORE.INTRA.DIHEDRAL.0>
1.43995

>  <SCORE.INTRA.POLAR>
0.272593

>  <SCORE.INTRA.POLAR.0>
-0.272593

>  <SCORE.INTRA.REPUL>
0

>  <SCORE.INTRA.REPUL.0>
0

>  <SCORE.INTRA.SOLV>
-0.50433

>  <SCORE.INTRA.SOLV.lig_0>
-22.6728

>  <SCORE.INTRA.VDW>
0.540664

>  <SCORE.INTRA.VDW.0>
-0.754459

>  <SCORE.INTRA.norm>
0.109553

>  <SCORE.RESTR>
0

>  <SCORE.RESTR.CAVITY>
0

>  <SCORE.RESTR.norm>
0

>  <SCORE.SYSTEM>
0

>  <SCORE.SYSTEM.CONST>
0

>  <SCORE.SYSTEM.DIHEDRAL>
0

>  <SCORE.SYSTEM.SOLV>
0

>  <SCORE.SYSTEM.norm>
0

>  <SCORE.heavy>
13

>  <SCORE.norm>
-4.59084

>  <RMSD>
0.637

$$$$
lig.pdb
 OpenBabel11021811453D
libRbt.so/2013.1/901 2013/11/27
 13 14  0  0  0  0  0  0  0  0999 V2000
    2.2728    3.6152   -4.3751 N   0  0  0  0  0  0  0  0  0  0  0  0
    3.5298    3.0672   -4.4520 C   0  0  0  0  0  0  0  0  0  0  0  0
    3.8117    1.9449   -3.7995 N   0  0  0  0  0  0  0  0  0  0  0  0
    2.8705    1.3030   -3.0401 C   0  0  0  0  0  0  0  0  0  0  0  0
    1.5628    1.8395   -2.9261 C   0  0  0  0  0  0  0  0  0  0  0  0
    1.2765    3.0410   -3.6348 C   0  0  0  0  0  0  0  0  0  0  0  0
    0.1721    3.5518   -3.5888 O   0  0  0  0  0  0  0  0  0  0  0  0
    0.8201    0.9502   -2.0332 C   0  0  0  0  0  0  0  0  0  0  0  0
   -0.5944    1.1259   -1.5509 C   0  0  0  0  0  0  0  0  0  0  0  0
   -1.1028   -0.1542   -1.0386 N   0  0  0  0  0  0  0  0  0  0  0  0
    1.6631   -0.0387   -1.7099 C   0  0  0  0  0  0  0  0  0  0  0  0
    2.8842    0.1682   -2.2948 N   0  0  0  0  0  0  0  0  0  0  0  0
    4.4936    3.6761   -5.2119 N   0  0  0  0  0  0  0  0  0  0  0  0
  1  6  1  0  0  0  0
  2  1  1  0  0  0  0
  2  3  2  0  0  0  0
  3  4  1  0  0  0  0
  4  5  2  0  0  0  0
  4 12  1  0  0  0  0
  5  8  1  0  0  0  0
  6  7  2  0  0  0  0
  6  5  1  0  0  0  0
  8 11  2  0  0  0  0
  8  9  1  0  0  0  0
 10  9  1  0  0  0  0
 12 11  1  0  0  0  0
 13  2  1  0  0  0  0
M  END
>  <CHROM.1>
162.17422681,82.22403402,1.80254639,1.86894884,-3.06247859,0.82257241,0.27420634
-0.57666834

>  <Name>
lig.pdb

>  <RI>
1.459e+07

>  <Rbt.Current_Directory>
/home/itssahil/PROJECTS/Mol_Feturizer/New_Systems/rnas/2l1v

>  <Rbt.Executable>
rbdock ($Id: //depot/dev/client3/rdock/2013.1/src/exe/rbdock.cxx#4 $)

>  <Rbt.Library>
libRbt.so (2013.1, Build901 2013/11/27)

>  <Rbt.Parameter_File>
/export/apps/rDock/src/rDock_2013.1_src/data/scripts/dock_solv.prm

>  <Rbt.Receptor>
prm/pocket_docking_2.prm

>  <SCORE>
-59.6891

>  <SCORE.INTER>
-61.1144

>  <SCORE.INTER.CONST>
1

>  <SCORE.INTER.POLAR>
-5.96846

>  <SCORE.INTER.ROT>
2

>  <SCORE.INTER.SOLV>
17.2244

>  <SCORE.INTER.VDW>
-31.5229

>  <SCORE.INTER.norm>
-4.70111

>  <SCORE.INTRA>
1.42535

>  <SCORE.INTRA.DIHEDRAL>
0.425335

>  <SCORE.INTRA.DIHEDRAL.0>
1.43995

>  <SCORE.INTRA.POLAR>
0.272593

>  <SCORE.INTRA.POLAR.0>
-0.272593

>  <SCORE.INTRA.REPUL>
0

>  <SCORE.INTRA.REPUL.0>
0

>  <SCORE.INTRA.SOLV>
-0.504588

>  <SCORE.INTRA.SOLV.lig_0>
-22.6728

>  <SCORE.INTRA.VDW>
0.538165

>  <SCORE.INTRA.VDW.0>
-0.754459

>  <SCORE.INTRA.norm>
0.109643

>  <SCORE.RESTR>
0

>  <SCORE.RESTR.CAVITY>
0

>  <SCORE.RESTR.norm>
0

>  <SCORE.SYSTEM>
0

>  <SCORE.SYSTEM.CONST>
0

>  <SCORE.SYSTEM.DIHEDRAL>
0

>  <SCORE.SYSTEM.SOLV>
0

>  <SCORE.SYSTEM.norm>
0

>  <SCORE.heavy>
13

>  <SCORE.norm>
-4.59147

>  <RMSD>
0.638

$$$$
lig.pdb
 OpenBabel11021811453D
libRbt.so/2013.1/901 2013/11/27
 13 14  0  0  0  0  0  0  0  0999 V2000
    2.2713    3.6106   -4.3841 N   0  0  0  0  0  0  0  0  0  0  0  0
    3.5280    3.0624   -4.4638 C   0  0  0  0  0  0  0  0  0  0  0  0
    3.8139    1.9452   -3.8042 N   0  0  0  0  0  0  0  0  0  0  0  0
    2.8772    1.3089   -3.0347 C   0  0  0  0  0  0  0  0  0  0  0  0
    1.5699    1.8460   -2.9175 C   0  0  0  0  0  0  0  0  0  0  0  0
    1.2793    3.0419   -3.6339 C   0  0  0  0  0  0  0  0  0  0  0  0
    0.1750    3.5527   -3.5856 O   0  0  0  0  0  0  0  0  0  0  0  0
    0.8326    0.9634   -2.0136 C   0  0  0  0  0  0  0  0  0  0  0  0
   -0.5793    1.1424   -1.5248 C   0  0  0  0  0  0  0  0  0  0  0  0
   -1.0898   -0.1374   -1.0139 N   0  0  0  0  0  0  0  0  0  0  0  0
    1.6776   -0.0228   -1.6874 C   0  0  0  0  0  0  0  0  0  0  0  0
    2.8954    0.1800   -2.2807 N   0  0  0  0  0  0  0  0  0  0  0  0
    4.4874    3.6657   -5.2337 N   0  0  0  0  0  0  0  0  0  0  0  0
  1  6  1  0  0  0  0
  2  1  1  0  0  0  0
  2  3  2  0  0  0  0
  3  4  1  0  0  0  0
  4  5  2  0  0  0  0
  4 12  1  0  0  0  0
  5  8  1  0  0  0  0
  6  7  2  0  0  0  0
  6  5  1  0  0  0  0
  8 11  2  0  0  0  0
  8  9  1  0  0  0  0
 10  9  1  0  0  0  0
 12 11  1  0  0  0  0
 13  2  1  0  0  0  0
M  END
>  <CHROM.1>
161.53718564,-94.96276305,1.80812656,1.87424577,-3.05662226,0.82499286,0.27792024
-0.58467506

>  <Name>
lig.pdb

>  <RI>
0

>  <Rbt.Current_Directory>
/home/itssahil/PROJECTS/Mol_Feturizer/New_Systems/rnas/2l1v

>  <Rbt.Executable>
rbdock ($Id: //depot/dev/client3/rdock/2013.1/src/exe/rbdock.cxx#4 $)

>  <Rbt.Library>
libRbt.so (2013.1, Build901 2013/11/27)

>  <Rbt.Parameter_File>
/export/apps/rDock/src/rDock_2013.1_src/data/scripts/dock_solv.prm

>  <Rbt.Receptor>
prm/pocket_docking_3.prm

>  <SCORE>
-59.6143

>  <SCORE.INTER>
-61.1158

>  <SCORE.INTER.CONST>
1

>  <SCORE.INTER.POLAR>
-5.92941

>  <SCORE.INTER.ROT>
2

>  <SCORE.INTER.SOLV>
17.1653

>  <SCORE.INTER.VDW>
-31.6342

>  <SCORE.INTER.norm>
-4.70121

>  <SCORE.INTRA>
1.50143

>  <SCORE.INTRA.DIHEDRAL>
0.583215

>  <SCORE.INTRA.DIHEDRAL.0>
1.43995

>  <SCORE.INTRA.POLAR>
0.272593

>  <SCORE.INTRA.POLAR.0>
-0.272593

>  <SCORE.INTRA.REPUL>
0

>  <SCORE.INTRA.REPUL.0>
0

>  <SCORE.INTRA.SOLV>
-0.50684

>  <SCORE.INTRA.SOLV.lig_0>
-22.6728

>  <SCORE.INTRA.VDW>
0.536431

>  <SCORE.INTRA.VDW.0>
-0.754459

>  <SCORE.INTRA.norm>
0.115495

>  <SCORE.RESTR>
0

>  <SCORE.RESTR.CAVITY>
0

>  <SCORE.RESTR.norm>
0

>  <SCORE.SYSTEM>
0

>  <SCORE.SYSTEM.CONST>
0

>  <SCORE.SYSTEM.DIHEDRAL>
0

>  <SCORE.SYSTEM.SOLV>
0

>  <SCORE.SYSTEM.norm>
0

>  <SCORE.heavy>
13

>  <SCORE.norm>
-4.58572

>  <RMSD>
0.638

$$$$
lig.pdb
 OpenBabel11021811453D
libRbt.so/2013.1/901 2013/11/27
 13 14  0  0  0  0  0  0  0  0999 V2000
    2.2579    3.6017   -4.4084 N   0  0  0  0  0  0  0  0  0  0  0  0
    3.5184    3.0596   -4.4675 C   0  0  0  0  0  0  0  0  0  0  0  0
    3.8007    1.9473   -3.7980 N   0  0  0  0  0  0  0  0  0  0  0  0
    2.8564    1.3101   -3.0386 C   0  0  0  0  0  0  0  0  0  0  0  0
    1.5449    1.8410   -2.9427 C   0  0  0  0  0  0  0  0  0  0  0  0
    1.2583    3.0316   -3.6693 C   0  0  0  0  0  0  0  0  0  0  0  0
    0.1508    3.5369   -3.6394 O   0  0  0  0  0  0  0  0  0  0  0  0
    0.7993    0.9592   -2.0447 C   0  0  0  0  0  0  0  0  0  0  0  0
   -0.6203    1.1333   -1.5769 C   0  0  0  0  0  0  0  0  0  0  0  0
   -1.1124   -0.1320   -1.0145 N   0  0  0  0  0  0  0  0  0  0  0  0
    1.6447   -0.0209   -1.7015 C   0  0  0  0  0  0  0  0  0  0  0  0
    2.8697    0.1852   -2.2785 N   0  0  0  0  0  0  0  0  0  0  0  0
    4.4855    3.6639   -5.2269 N   0  0  0  0  0  0  0  0  0  0  0  0
  1  6  1  0  0  0  0
  2  1  1  0  0  0  0
  2  3  2  0  0  0  0
  3  4  1  0  0  0  0
  4  5  2  0  0  0  0
  4 12  1  0  0  0  0
  5  8  1  0  0  0  0
  6  7  2  0  0  0  0
  6  5  1  0  0  0  0
  8 11  2  0  0  0  0
  8  9  1  0  0  0  0
 10  9  1  0  0  0  0
 12 11  1  0  0  0  0
 13  2  1  0  0  0  0
M  END
>  <CHROM.1>
163.90838794,81.38497595,1.78695109,1.87095131,-3.07383886,0.82395506,0.26661791
-0.59129430

>  <Name>
lig.pdb

>  <RI>
0

>  <Rbt.Current_Directory>
/home/itssahil/PROJECTS/Mol_Feturizer/New_Systems/rnas/2l1v

>  <Rbt.Executable>
rbdock ($Id: //depot/dev/client3/rdock/2013.1/src/exe/rbdock.cxx#4 $)

>  <Rbt.Library>
libRbt.so (2013.1, Build901 2013/11/27)

>  <Rbt.Parameter_File>
/export/apps/rDock/src/rDock_2013.1_src/data/scripts/dock_solv.prm

>  <Rbt.Receptor>
prm/pocket_docking_3.prm

>  <SCORE>
-59.6646

>  <SCORE.INTER>
-61.061

>  <SCORE.INTER.CONST>
1

>  <SCORE.INTER.POLAR>
-5.88106

>  <SCORE.INTER.ROT>
2

>  <SCORE.INTER.SOLV>
17.2023

>  <SCORE.INTER.VDW>
-31.7712

>  <SCORE.INTER.norm>
-4.697

>  <SCORE.INTRA>
1.3964

>  <SCORE.INTRA.DIHEDRAL>
0.346154

>  <SCORE.INTRA.DIHEDRAL.0>
1.43995

>  <SCORE.INTRA.POLAR>
0.272593

>  <SCORE.INTRA.POLAR.0>
-0.272593

>  <SCORE.INTRA.REPUL>
0

>  <SCORE.INTRA.REPUL.0>
0

>  <SCORE.INTRA.SOLV>
-0.502882

>  <SCORE.INTRA.SOLV.lig_0>
-22.6728

>  <SCORE.INTRA.VDW>
0.547949

>  <SCORE.INTRA.VDW.0>
-0.754459

>  <SCORE.INTRA.norm>
0.107415

>  <SCORE.RESTR>
0

>  <SCORE.RESTR.CAVITY>
0

>  <SCORE.RESTR.norm>
0

>  <SCORE.SYSTEM>
0

>  <SCORE.SYSTEM.CONST>
0

>  <SCORE.SYSTEM.DIHEDRAL>
0

>  <SCORE.SYSTEM.SOLV>
0

>  <SCORE.SYSTEM.norm>
0

>  <SCORE.heavy>
13

>  <SCORE.norm>
-4.58958

>  <RMSD>
0.638

$$$$
lig.pdb
 OpenBabel11021811453D
libRbt.so/2013.1/901 2013/11/27
 13 14  0  0  0  0  0  0  0  0999 V2000
    2.2742    3.6319   -4.3812 N   0  0  0  0  0  0  0  0  0  0  0  0
    3.5275    3.0778   -4.4720 C   0  0  0  0  0  0  0  0  0  0  0  0
    3.8092    1.9505   -3.8279 N   0  0  0  0  0  0  0  0  0  0  0  0
    2.8713    1.3095   -3.0637 C   0  0  0  0  0  0  0  0  0  0  0  0
    1.5674    1.8523   -2.9355 C   0  0  0  0  0  0  0  0  0  0  0  0
    1.2813    3.0589   -3.6353 C   0  0  0  0  0  0  0  0  0  0  0  0
    0.1801    3.5752   -3.5769 O   0  0  0  0  0  0  0  0  0  0  0  0
    0.8280    0.9621   -2.0407 C   0  0  0  0  0  0  0  0  0  0  0  0
   -0.5814    1.1426   -1.5452 C   0  0  0  0  0  0  0  0  0  0  0  0
   -1.0837   -0.1320   -1.0135 N   0  0  0  0  0  0  0  0  0  0  0  0
    1.6685   -0.0329   -1.7300 C   0  0  0  0  0  0  0  0  0  0  0  0
    2.8855    0.1708   -2.3245 N   0  0  0  0  0  0  0  0  0  0  0  0
    4.4879    3.6857   -5.2371 N   0  0  0  0  0  0  0  0  0  0  0  0
  1  6  1  0  0  0  0
  2  1  1  0  0  0  0
  2  3  2  0  0  0  0
  3  4  1  0  0  0  0
  4  5  2  0  0  0  0
  4 12  1  0  0  0  0
  5  8  1  0  0  0  0
  6  7  2  0  0  0  0
  6  5  1  0  0  0  0
  8 11  2  0  0  0  0
  8  9  1  0  0  0  0
 10  9  1  0  0  0  0
 12 11  1  0  0  0  0
 13  2  1  0  0  0  0
M  END
>  <CHROM.1>
163.16054334,-95.54888913,1.80665743,1.88183411,-3.07159329,0.82349762,0.28601570
-0.57249994

>  <Name>
lig.pdb

>  <RI>
0

>  <Rbt.Current_Directory>
/home/itssahil/PROJECTS/Mol_Feturizer/New_Systems/rnas/2l1v

>  <Rbt.Executable>
rbdock ($Id: //depot/dev/client3/rdock/2013.1/src/exe/rbdock.cxx#4 $)

>  <Rbt.Library>
libRbt.so (2013.1, Build901 2013/11/27)

>  <Rbt.Parameter_File>
/export/apps/rDock/src/rDock_2013.1_src/data/scripts/dock_solv.prm

>  <Rbt.Receptor>
prm/pocket_docking_3.prm

>  <SCORE>
-59.627

>  <SCORE.INTER>
-61.0996

>  <SCORE.INTER.CONST>
1

>  <SCORE.INTER.POLAR>
-5.91886

>  <SCORE.INTER.ROT>
2

>  <SCORE.INTER.SOLV>
17.259

>  <SCORE.INTER.VDW>
-31.6899

>  <SCORE.INTER.norm>
-4.69997

>  <SCORE.INTRA>
1.47253

>  <SCORE.INTRA.DIHEDRAL>
0.505688

>  <SCORE.INTRA.DIHEDRAL.0>
1.43995

>  <SCORE.INTRA.POLAR>
0.272593

>  <SCORE.INTRA.POLAR.0>
-0.272593

>  <SCORE.INTRA.REPUL>
0

>  <SCORE.INTRA.REPUL.0>
0

>  <SCORE.INTRA.SOLV>
-0.505205

>  <SCORE.INTRA.SOLV.lig_0>
-22.6728

>  <SCORE.INTRA.VDW>
0.54547

>  <SCORE.INTRA.VDW.0>
-0.754459

>  <SCORE.INTRA.norm>
0.113271

>  <SCORE.RESTR>
0

>  <SCORE.RESTR.CAVITY>
0

>  <SCORE.RESTR.norm>
0

>  <SCORE.SYSTEM>
0

>  <SCORE.SYSTEM.CONST>
0

>  <SCORE.SYSTEM.DIHEDRAL>
0

>  <SCORE.SYSTEM.SOLV>
0

>  <SCORE.SYSTEM.norm>
0

>  <SCORE.heavy>
13

>  <SCORE.norm>
-4.58669

>  <RMSD>
0.638

$$$$
lig.pdb
 OpenBabel11021811453D
libRbt.so/2013.1/901 2013/11/27
 13 14  0  0  0  0  0  0  0  0999 V2000
    2.2690    3.6153   -4.3934 N   0  0  0  0  0  0  0  0  0  0  0  0
    3.5268    3.0694   -4.4716 C   0  0  0  0  0  0  0  0  0  0  0  0
    3.8130    1.9509   -3.8144 N   0  0  0  0  0  0  0  0  0  0  0  0
    2.8755    1.3109   -3.0489 C   0  0  0  0  0  0  0  0  0  0  0  0
    1.5671    1.8454   -2.9334 C   0  0  0  0  0  0  0  0  0  0  0  0
    1.2762    3.0428   -3.6472 C   0  0  0  0  0  0  0  0  0  0  0  0
    0.1709    3.5516   -3.6001 O   0  0  0  0  0  0  0  0  0  0  0  0
    0.8290    0.9590   -2.0337 C   0  0  0  0  0  0  0  0  0  0  0  0
   -0.5843    1.1342   -1.5479 C   0  0  0  0  0  0  0  0  0  0  0  0
   -1.0775   -0.1363   -0.9984 N   0  0  0  0  0  0  0  0  0  0  0  0
    1.6750   -0.0266   -1.7083 C   0  0  0  0  0  0  0  0  0  0  0  0
    2.8938    0.1799   -2.2980 N   0  0  0  0  0  0  0  0  0  0  0  0
    4.4870    3.6765   -5.2375 N   0  0  0  0  0  0  0  0  0  0  0  0
  1  6  1  0  0  0  0
  2  1  1  0  0  0  0
  2  3  2  0  0  0  0
  3  4  1  0  0  0  0
  4  5  2  0  0  0  0
  4 12  1  0  0  0  0
  5  8  1  0  0  0  0
  6  7  2  0  0  0  0
  6  5  1  0  0  0  0
  8 11  2  0  0  0  0
  8  9  1  0  0  0  0
 10  9  1  0  0  0  0
 12 11  1  0  0  0  0
 13  2  1  0  0  0  0
M  END
>  <CHROM.1>
163.50919962,-95.26083575,1.80708958,1.87551606,-3.06784254,0.82698358,0.27792484
-0.58393039

>  <Name>
lig.pdb

>  <RI>
4.02536e+07

>  <Rbt.Current_Directory>
/home/itssahil/PROJECTS/Mol_Feturizer/New_Systems/rnas/2l1v

>  <Rbt.Executable>
rbdock ($Id: //depot/dev/client3/rdock/2013.1/src/exe/rbdock.cxx#4 $)

>  <Rbt.Library>
libRbt.so (2013.1, Build901 2013/11/27)

>  <Rbt.Parameter_File>
/export/apps/rDock/src/rDock_2013.1_src/data/scripts/dock_solv.prm

>  <Rbt.Receptor>
prm/blind_docking_40.prm

>  <SCORE>
-59.6516

>  <SCORE.INTER>
-61.1181

>  <SCORE.INTER.CONST>
1

>  <SCORE.INTER.POLAR>
-5.90527

>  <SCORE.INTER.ROT>
2

>  <SCORE.INTER.SOLV>
17.1898

>  <SCORE.INTER.VDW>
-31.7244

>  <SCORE.INTER.norm>
-4.70139

>  <SCORE.INTRA>
1.46652

>  <SCORE.INTRA.DIHEDRAL>
0.48996

>  <SCORE.INTRA.DIHEDRAL.0>
1.43995

>  <SCORE.INTRA.POLAR>
0.272593

>  <SCORE.INTRA.POLAR.0>
-0.272593

>  <SCORE.INTRA.REPUL>
0

>  <SCORE.INTRA.REPUL.0>
0

>  <SCORE.INTRA.SOLV>
-0.50488

>  <SCORE.INTRA.SOLV.lig_0>
-22.6728

>  <SCORE.INTRA.VDW>
0.547168

>  <SCORE.INTRA.VDW.0>
-0.754459

>  <SCORE.INTRA.norm>
0.112809

>  <SCORE.RESTR>
0

>  <SCORE.RESTR.CAVITY>
0

>  <SCORE.RESTR.norm>
0

>  <SCORE.SYSTEM>
0

>  <SCORE.SYSTEM.CONST>
0

>  <SCORE.SYSTEM.DIHEDRAL>
0

>  <SCORE.SYSTEM.SOLV>
0

>  <SCORE.SYSTEM.norm>
0

>  <SCORE.heavy>
13

>  <SCORE.norm>
-4.58858

>  <RMSD>
0.639

$$$$
lig.pdb
 OpenBabel11021811453D
libRbt.so/2013.1/901 2013/11/27
 13 14  0  0  0  0  0  0  0  0999 V2000
    2.2682    3.6205   -4.3915 N   0  0  0  0  0  0  0  0  0  0  0  0
    3.5247    3.0719   -4.4708 C   0  0  0  0  0  0  0  0  0  0  0  0
    3.8084    1.9513   -3.8158 N   0  0  0  0  0  0  0  0  0  0  0  0
    2.8694    1.3120   -3.0516 C   0  0  0  0  0  0  0  0  0  0  0  0
    1.5622    1.8494   -2.9350 C   0  0  0  0  0  0  0  0  0  0  0  0
    1.2741    3.0488   -3.6463 C   0  0  0  0  0  0  0  0  0  0  0  0
    0.1700    3.5602   -3.5982 O   0  0  0  0  0  0  0  0  0  0  0  0
    0.8222    0.9629   -2.0370 C   0  0  0  0  0  0  0  0  0  0  0  0
   -0.5908    1.1405   -1.5507 C   0  0  0  0  0  0  0  0  0  0  0  0
   -1.0872   -0.1302   -1.0046 N   0  0  0  0  0  0  0  0  0  0  0  0
    1.6658   -0.0253   -1.7135 C   0  0  0  0  0  0  0  0  0  0  0  0
    2.8851    0.1795   -2.3030 N   0  0  0  0  0  0  0  0  0  0  0  0
    4.4863    3.6782   -5.2356 N   0  0  0  0  0  0  0  0  0  0  0  0
  1  6  1  0  0  0  0
  2  1  1  0  0  0  0
  2  3  2  0  0  0  0
  3  4  1  0  0  0  0
  4  5  2  0  0  0  0
  4 12  1  0  0  0  0
  5  8  1  0  0  0  0
  6  7  2  0  0  0  0
  6  5  1  0  0  0  0
  8 11  2  0  0  0  0
  8  9  1  0  0  0  0
 10  9  1  0  0  0  0
 12 11  1  0  0  0  0
 13  2  1  0  0  0  0
M  END
>  <CHROM.1>
163.47200915,83.10562590,1.80257450,1.87902614,-3.06951173,0.82533050,0.27910741
-0.58131950

>  <Name>
lig.pdb

>  <RI>
1.459e+07

>  <Rbt.Current_Directory>
/home/itssahil/PROJECTS/Mol_Feturizer/New_Systems/rnas/2l1v

>  <Rbt.Executable>
rbdock ($Id: //depot/dev/client3/rdock/2013.1/src/exe/rbdock.cxx#4 $)

>  <Rbt.Library>
libRbt.so (2013.1, Build901 2013/11/27)

>  <Rbt.Parameter_File>
/export/apps/rDock/src/rDock_2013.1_src/data/scripts/dock_solv.prm

>  <Rbt.Receptor>
prm/pocket_docking_2.prm

>  <SCORE>
-59.7072

>  <SCORE.INTER>
-61.1087

>  <SCORE.INTER.CONST>
1

>  <SCORE.INTER.POLAR>
-5.91078

>  <SCORE.INTER.ROT>
2

>  <SCORE.INTER.SOLV>
17.2157

>  <SCORE.INTER.VDW>
-31.7084

>  <SCORE.INTER.norm>
-4.70067

>  <SCORE.INTRA>
1.40144

>  <SCORE.INTRA.DIHEDRAL>
0.363783

>  <SCORE.INTRA.DIHEDRAL.0>
1.43995

>  <SCORE.INTRA.POLAR>
0.272593

>  <SCORE.INTRA.POLAR.0>
-0.272593

>  <SCORE.INTRA.REPUL>
0

>  <SCORE.INTRA.REPUL.0>
0

>  <SCORE.INTRA.SOLV>
-0.503343

>  <SCORE.INTRA.SOLV.lig_0>
-22.6728

>  <SCORE.INTRA.VDW>
0.544409

>  <SCORE.INTRA.VDW.0>
-0.754459

>  <SCORE.INTRA.norm>
0.107803

>  <SCORE.RESTR>
0

>  <SCORE.RESTR.CAVITY>
0

>  <SCORE.RESTR.norm>
0

>  <SCORE.SYSTEM>
0

>  <SCORE.SYSTEM.CONST>
0

>  <SCORE.SYSTEM.DIHEDRAL>
0

>  <SCORE.SYSTEM.SOLV>
0

>  <SCORE.SYSTEM.norm>
0

>  <SCORE.heavy>
13

>  <SCORE.norm>
-4.59286

>  <RMSD>
0.639

$$$$
lig.pdb
 OpenBabel11021811453D
libRbt.so/2013.1/901 2013/11/27
 13 14  0  0  0  0  0  0  0  0999 V2000
    2.2676    3.6135   -4.4052 N   0  0  0  0  0  0  0  0  0  0  0  0
    3.5289    3.0737   -4.4660 C   0  0  0  0  0  0  0  0  0  0  0  0
    3.8139    1.9615   -3.7975 N   0  0  0  0  0  0  0  0  0  0  0  0
    2.8717    1.3223   -3.0372 C   0  0  0  0  0  0  0  0  0  0  0  0
    1.5593    1.8508   -2.9396 C   0  0  0  0  0  0  0  0  0  0  0  0
    1.2698    3.0413   -3.6652 C   0  0  0  0  0  0  0  0  0  0  0  0
    0.1615    3.5447   -3.6337 O   0  0  0  0  0  0  0  0  0  0  0  0
    0.8163    0.9673   -2.0412 C   0  0  0  0  0  0  0  0  0  0  0  0
   -0.6030    1.1387   -1.5716 C   0  0  0  0  0  0  0  0  0  0  0  0
   -1.0956   -0.1305   -1.0185 N   0  0  0  0  0  0  0  0  0  0  0  0
    1.6638   -0.0115   -1.6995 C   0  0  0  0  0  0  0  0  0  0  0  0
    2.8878    0.1970   -2.2778 N   0  0  0  0  0  0  0  0  0  0  0  0
    4.4941    3.6801   -5.2262 N   0  0  0  0  0  0  0  0  0  0  0  0
  1  6  1  0  0  0  0
  2  1  1  0  0  0  0
  2  3  2  0  0  0  0
  3  4  1  0  0  0  0
  4  5  2  0  0  0  0
  4 12  1  0  0  0  0
  5  8  1  0  0  0  0
  6  7  2  0  0  0  0
  6  5  1  0  0  0  0
  8 11  2  0  0  0  0
  8  9  1  0  0  0  0
 10  9  1  0  0  0  0
 12 11  1  0  0  0  0
 13  2  1  0  0  0  0
M  END
>  <CHROM.1>
163.48691652,-95.77977494,1.80056953,1.88118677,-3.07172310,0.82534733,0.26616631
-0.59090002

>  <Name>
lig.pdb

>  <RI>
0

>  <Rbt.Current_Directory>
/home/itssahil/PROJECTS/Mol_Feturizer/New_Systems/rnas/2l1v

>  <Rbt.Executable>
rbdock ($Id: //depot/dev/client3/rdock/2013.1/src/exe/rbdock.cxx#4 $)

>  <Rbt.Library>
libRbt.so (2013.1, Build901 2013/11/27)

>  <Rbt.Parameter_File>
/export/apps/rDock/src/rDock_2013.1_src/data/scripts/dock_solv.prm

>  <Rbt.Receptor>
prm/pocket_docking_3.prm

>  <SCORE>
-59.6063

>  <SCORE.INTER>
-61.0732

>  <SCORE.INTER.CONST>
1

>  <SCORE.INTER.POLAR>
-5.91937

>  <SCORE.INTER.ROT>
2

>  <SCORE.INTER.SOLV>
17.202

>  <SCORE.INTER.VDW>
-31.6516

>  <SCORE.INTER.norm>
-4.69794

>  <SCORE.INTRA>
1.46693

>  <SCORE.INTRA.DIHEDRAL>
0.490556

>  <SCORE.INTRA.DIHEDRAL.0>
1.43995

>  <SCORE.INTRA.POLAR>
0.272593

>  <SCORE.INTRA.POLAR.0>
-0.272593

>  <SCORE.INTRA.REPUL>
0

>  <SCORE.INTRA.REPUL.0>
0

>  <SCORE.INTRA.SOLV>
-0.504886

>  <SCORE.INTRA.SOLV.lig_0>
-22.6728

>  <SCORE.INTRA.VDW>
0.547282

>  <SCORE.INTRA.VDW.0>
-0.754459

>  <SCORE.INTRA.norm>
0.112841

>  <SCORE.RESTR>
0

>  <SCORE.RESTR.CAVITY>
0

>  <SCORE.RESTR.norm>
0

>  <SCORE.SYSTEM>
0

>  <SCORE.SYSTEM.CONST>
0

>  <SCORE.SYSTEM.DIHEDRAL>
0

>  <SCORE.SYSTEM.SOLV>
0

>  <SCORE.SYSTEM.norm>
0

>  <SCORE.heavy>
13

>  <SCORE.norm>
-4.5851

>  <RMSD>
0.639

$$$$
lig.pdb
 OpenBabel11021811453D
libRbt.so/2013.1/901 2013/11/27
 13 14  0  0  0  0  0  0  0  0999 V2000
    2.2733    3.6279   -4.3826 N   0  0  0  0  0  0  0  0  0  0  0  0
    3.5286    3.0774   -4.4680 C   0  0  0  0  0  0  0  0  0  0  0  0
    3.8122    1.9536   -3.8187 N   0  0  0  0  0  0  0  0  0  0  0  0
    2.8744    1.3126   -3.0544 C   0  0  0  0  0  0  0  0  0  0  0  0
    1.5685    1.8517   -2.9316 C   0  0  0  0  0  0  0  0  0  0  0  0
    1.2803    3.0547   -3.6370 C   0  0  0  0  0  0  0  0  0  0  0  0
    0.1773    3.5677   -3.5834 O   0  0  0  0  0  0  0  0  0  0  0  0
    0.8296    0.9627   -2.0353 C   0  0  0  0  0  0  0  0  0  0  0  0
   -0.5816    1.1406   -1.5440 C   0  0  0  0  0  0  0  0  0  0  0  0
   -1.0828   -0.1345   -1.0127 N   0  0  0  0  0  0  0  0  0  0  0  0
    1.6725   -0.0283   -1.7185 C   0  0  0  0  0  0  0  0  0  0  0  0
    2.8904    0.1769   -2.3107 N   0  0  0  0  0  0  0  0  0  0  0  0
    4.4889    3.6854   -5.2331 N   0  0  0  0  0  0  0  0  0  0  0  0
  1  6  1  0  0  0  0
  2  1  1  0  0  0  0
  2  3  2  0  0  0  0
  3  4  1  0  0  0  0
  4  5  2  0  0  0  0
  4 12  1  0  0  0  0
  5  8  1  0  0  0  0
  6  7  2  0  0  0  0
  6  5  1  0  0  0  0
  8 11  2  0  0  0  0
  8  9  1  0  0  0  0
 10  9  1  0  0  0  0
 12 11  1  0  0  0  0
 13  2  1  0  0  0  0
M  END
>  <CHROM.1>
162.97666097,-95.55301701,1.80782977,1.88142128,-3.06766150,0.82466997,0.28184781
-0.57664463

>  <Name>
lig.pdb

>  <RI>
2.86608e+07

>  <Rbt.Current_Directory>
/home/itssahil/PROJECTS/Mol_Feturizer/New_Systems/rnas/2l1v

>  <Rbt.Executable>
rbdock ($Id: //depot/dev/client3/rdock/2013.1/src/exe/rbdock.cxx#4 $)

>  <Rbt.Library>
libRbt.so (2013.1, Build901 2013/11/27)

>  <Rbt.Parameter_File>
/export/apps/rDock/src/rDock_2013.1_src/data/scripts/dock_solv.prm

>  <Rbt.Receptor>
prm/pocket_docking_7.prm

>  <SCORE>
-59.6577

>  <SCORE.INTER>
-61.1334

>  <SCORE.INTER.CONST>
1

>  <SCORE.INTER.POLAR>
-5.92915

>  <SCORE.INTER.ROT>
2

>  <SCORE.INTER.SOLV>
17.2315

>  <SCORE.INTER.VDW>
-31.6689

>  <SCORE.INTER.norm>
-4.70257

>  <SCORE.INTRA>
1.47572

>  <SCORE.INTRA.DIHEDRAL>
0.514187

>  <SCORE.INTRA.DIHEDRAL.0>
1.43995

>  <SCORE.INTRA.POLAR>
0.272593

>  <SCORE.INTRA.POLAR.0>
-0.272593

>  <SCORE.INTRA.REPUL>
0

>  <SCORE.INTRA.REPUL.0>
0

>  <SCORE.INTRA.SOLV>
-0.505383

>  <SCORE.INTRA.SOLV.lig_0>
-22.6728

>  <SCORE.INTRA.VDW>
0.544501

>  <SCORE.INTRA.VDW.0>
-0.754459

>  <SCORE.INTRA.norm>
0.113517

>  <SCORE.RESTR>
0

>  <SCORE.RESTR.CAVITY>
0

>  <SCORE.RESTR.norm>
0

>  <SCORE.SYSTEM>
0

>  <SCORE.SYSTEM.CONST>
0

>  <SCORE.SYSTEM.DIHEDRAL>
0

>  <SCORE.SYSTEM.SOLV>
0

>  <SCORE.SYSTEM.norm>
0

>  <SCORE.heavy>
13

>  <SCORE.norm>
-4.58905

>  <RMSD>
0.639

$$$$
lig.pdb
 OpenBabel11021811453D
libRbt.so/2013.1/901 2013/11/27
 13 14  0  0  0  0  0  0  0  0999 V2000
    2.2735    3.6268   -4.3821 N   0  0  0  0  0  0  0  0  0  0  0  0
    3.5289    3.0764   -4.4670 C   0  0  0  0  0  0  0  0  0  0  0  0
    3.8121    1.9524   -3.8176 N   0  0  0  0  0  0  0  0  0  0  0  0
    2.8739    1.3114   -3.0540 C   0  0  0  0  0  0  0  0  0  0  0  0
    1.5679    1.8505   -2.9318 C   0  0  0  0  0  0  0  0  0  0  0  0
    1.2802    3.0536   -3.6371 C   0  0  0  0  0  0  0  0  0  0  0  0
    0.1771    3.5666   -3.5840 O   0  0  0  0  0  0  0  0  0  0  0  0
    0.8285    0.9613   -2.0360 C   0  0  0  0  0  0  0  0  0  0  0  0
   -0.5829    1.1392   -1.5454 C   0  0  0  0  0  0  0  0  0  0  0  0
   -1.0818   -0.1342   -1.0079 N   0  0  0  0  0  0  0  0  0  0  0  0
    1.6712   -0.0298   -1.7189 C   0  0  0  0  0  0  0  0  0  0  0  0
    2.8894    0.1755   -2.3104 N   0  0  0  0  0  0  0  0  0  0  0  0
    4.4896    3.6844   -5.2314 N   0  0  0  0  0  0  0  0  0  0  0  0
  1  6  1  0  0  0  0
  2  1  1  0  0  0  0
  2  3  2  0  0  0  0
  3  4  1  0  0  0  0
  4  5  2  0  0  0  0
  4 12  1  0  0  0  0
  5  8  1  0  0  0  0
  6  7  2  0  0  0  0
  6  5  1  0  0  0  0
  8 11  2  0  0  0  0
  8  9  1  0  0  0  0
 10  9  1  0  0  0  0
 12 11  1  0  0  0  0
 13  2  1  0  0  0  0
M  END
>  <CHROM.1>
163.28318719,-95.55180788,1.80756471,1.88035872,-3.06705552,0.82464009,0.28188310
-0.57670675

>  <Name>
lig.pdb

>  <RI>
1.459e+07

>  <Rbt.Current_Directory>
/home/itssahil/PROJECTS/Mol_Feturizer/New_Systems/rnas/2l1v

>  <Rbt.Executable>
rbdock ($Id: //depot/dev/client3/rdock/2013.1/src/exe/rbdock.cxx#4 $)

>  <Rbt.Library>
libRbt.so (2013.1, Build901 2013/11/27)

>  <Rbt.Parameter_File>
/export/apps/rDock/src/rDock_2013.1_src/data/scripts/dock_solv.prm

>  <Rbt.Receptor>
prm/pocket_docking_2.prm

>  <SCORE>
-59.6558

>  <SCORE.INTER>
-61.1262

>  <SCORE.INTER.CONST>
1

>  <SCORE.INTER.POLAR>
-5.92646

>  <SCORE.INTER.ROT>
2

>  <SCORE.INTER.SOLV>
17.2248

>  <SCORE.INTER.VDW>
-31.6709

>  <SCORE.INTER.norm>
-4.70202

>  <SCORE.INTRA>
1.47041

>  <SCORE.INTRA.DIHEDRAL>
0.500049

>  <SCORE.INTRA.DIHEDRAL.0>
1.43995

>  <SCORE.INTRA.POLAR>
0.272593

>  <SCORE.INTRA.POLAR.0>
-0.272593

>  <SCORE.INTRA.REPUL>
0

>  <SCORE.INTRA.REPUL.0>
0

>  <SCORE.INTRA.SOLV>
-0.505087

>  <SCORE.INTRA.SOLV.lig_0>
-22.6728

>  <SCORE.INTRA.VDW>
0.546116

>  <SCORE.INTRA.VDW.0>
-0.754459

>  <SCORE.INTRA.norm>
0.113109

>  <SCORE.RESTR>
0

>  <SCORE.RESTR.CAVITY>
0

>  <SCORE.RESTR.norm>
0

>  <SCORE.SYSTEM>
0

>  <SCORE.SYSTEM.CONST>
0

>  <SCORE.SYSTEM.DIHEDRAL>
0

>  <SCORE.SYSTEM.SOLV>
0

>  <SCORE.SYSTEM.norm>
0

>  <SCORE.heavy>
13

>  <SCORE.norm>
-4.58891

>  <RMSD>
0.640

$$$$
lig.pdb
 OpenBabel11021811453D
libRbt.so/2013.1/901 2013/11/27
 13 14  0  0  0  0  0  0  0  0999 V2000
    2.2675    3.6151   -4.3819 N   0  0  0  0  0  0  0  0  0  0  0  0
    3.5226    3.0629   -4.4583 C   0  0  0  0  0  0  0  0  0  0  0  0
    3.7998    1.9383   -3.8076 N   0  0  0  0  0  0  0  0  0  0  0  0
    2.8554    1.2982   -3.0507 C   0  0  0  0  0  0  0  0  0  0  0  0
    1.5494    1.8391   -2.9373 C   0  0  0  0  0  0  0  0  0  0  0  0
    1.2682    3.0429   -3.6440 C   0  0  0  0  0  0  0  0  0  0  0  0
    0.1656    3.5575   -3.5984 O   0  0  0  0  0  0  0  0  0  0  0  0
    0.8025    0.9507   -2.0470 C   0  0  0  0  0  0  0  0  0  0  0  0
   -0.6120    1.1303   -1.5662 C   0  0  0  0  0  0  0  0  0  0  0  0
   -1.1107   -0.1383   -1.0172 N   0  0  0  0  0  0  0  0  0  0  0  0
    1.6416   -0.0418   -1.7246 C   0  0  0  0  0  0  0  0  0  0  0  0
    2.8642    0.1620   -2.3075 N   0  0  0  0  0  0  0  0  0  0  0  0
    4.4895    3.6699   -5.2158 N   0  0  0  0  0  0  0  0  0  0  0  0
  1  6  1  0  0  0  0
  2  1  1  0  0  0  0
  2  3  2  0  0  0  0
  3  4  1  0  0  0  0
  4  5  2  0  0  0  0
  4 12  1  0  0  0  0
  5  8  1  0  0  0  0
  6  7  2  0  0  0  0
  6  5  1  0  0  0  0
  8 11  2  0  0  0  0
  8  9  1  0  0  0  0
 10  9  1  0  0  0  0
 12 11  1  0  0  0  0
 13  2  1  0  0  0  0
M  END
>  <CHROM.1>
163.98848797,83.20788126,1.79083125,1.86895476,-3.06955409,0.82051740,0.27785879
-0.57550759

>  <Name>
lig.pdb

>  <RI>
1.459e+07

>  <Rbt.Current_Directory>
/home/itssahil/PROJECTS/Mol_Feturizer/New_Systems/rnas/2l1v

>  <Rbt.Executable>
rbdock ($Id: //depot/dev/client3/rdock/2013.1/src/exe/rbdock.cxx#4 $)

>  <Rbt.Library>
libRbt.so (2013.1, Build901 2013/11/27)

>  <Rbt.Parameter_File>
/export/apps/rDock/src/rDock_2013.1_src/data/scripts/dock_solv.prm

>  <Rbt.Receptor>
prm/pocket_docking_2.prm

>  <SCORE>
-59.6966

>  <SCORE.INTER>
-61.0892

>  <SCORE.INTER.CONST>
1

>  <SCORE.INTER.POLAR>
-5.92486

>  <SCORE.INTER.ROT>
2

>  <SCORE.INTER.SOLV>
17.2388

>  <SCORE.INTER.VDW>
-31.6562

>  <SCORE.INTER.norm>
-4.69917

>  <SCORE.INTRA>
1.39258

>  <SCORE.INTRA.DIHEDRAL>
0.340424

>  <SCORE.INTRA.DIHEDRAL.0>
1.43995

>  <SCORE.INTRA.POLAR>
0.272593

>  <SCORE.INTRA.POLAR.0>
-0.272593

>  <SCORE.INTRA.REPUL>
0

>  <SCORE.INTRA.REPUL.0>
0

>  <SCORE.INTRA.SOLV>
-0.50286

>  <SCORE.INTRA.SOLV.lig_0>
-22.6728

>  <SCORE.INTRA.VDW>
0.546988

>  <SCORE.INTRA.VDW.0>
-0.754459

>  <SCORE.INTRA.norm>
0.107122

>  <SCORE.RESTR>
0

>  <SCORE.RESTR.CAVITY>
0

>  <SCORE.RESTR.norm>
0

>  <SCORE.SYSTEM>
0

>  <SCORE.SYSTEM.CONST>
0

>  <SCORE.SYSTEM.DIHEDRAL>
0

>  <SCORE.SYSTEM.SOLV>
0

>  <SCORE.SYSTEM.norm>
0

>  <SCORE.heavy>
13

>  <SCORE.norm>
-4.59205

>  <RMSD>
0.640

$$$$
lig.pdb
 OpenBabel11021811453D
libRbt.so/2013.1/901 2013/11/27
 13 14  0  0  0  0  0  0  0  0999 V2000
    2.2711    3.6194   -4.3910 N   0  0  0  0  0  0  0  0  0  0  0  0
    3.5307    3.0763   -4.4583 C   0  0  0  0  0  0  0  0  0  0  0  0
    3.8144    1.9598   -3.7965 N   0  0  0  0  0  0  0  0  0  0  0  0
    2.8725    1.3193   -3.0369 C   0  0  0  0  0  0  0  0  0  0  0  0
    1.5620    1.8510   -2.9327 C   0  0  0  0  0  0  0  0  0  0  0  0
    1.2738    3.0462   -3.6512 C   0  0  0  0  0  0  0  0  0  0  0  0
    0.1671    3.5526   -3.6138 O   0  0  0  0  0  0  0  0  0  0  0  0
    0.8190    0.9649   -2.0368 C   0  0  0  0  0  0  0  0  0  0  0  0
   -0.5984    1.1379   -1.5622 C   0  0  0  0  0  0  0  0  0  0  0  0
   -1.0969   -0.1356   -1.0246 N   0  0  0  0  0  0  0  0  0  0  0  0
    1.6647   -0.0181   -1.7027 C   0  0  0  0  0  0  0  0  0  0  0  0
    2.8876    0.1899   -2.2835 N   0  0  0  0  0  0  0  0  0  0  0  0
    4.4954    3.6839   -5.2181 N   0  0  0  0  0  0  0  0  0  0  0  0
  1  6  1  0  0  0  0
  2  1  1  0  0  0  0
  2  3  2  0  0  0  0
  3  4  1  0  0  0  0
  4  5  2  0  0  0  0
  4 12  1  0  0  0  0
  5  8  1  0  0  0  0
  6  7  2  0  0  0  0
  6  5  1  0  0  0  0
  8 11  2  0  0  0  0
  8  9  1  0  0  0  0
 10  9  1  0  0  0  0
 12 11  1  0  0  0  0
 13  2  1  0  0  0  0
M  END
>  <CHROM.1>
163.01726107,-95.70092667,1.80256621,1.88114855,-3.06630494,0.82409335,0.26946019
-0.58493431

>  <Name>
lig.pdb

>  <RI>
1.459e+07

>  <Rbt.Current_Directory>
/home/itssahil/PROJECTS/Mol_Feturizer/New_Systems/rnas/2l1v

>  <Rbt.Executable>
rbdock ($Id: //depot/dev/client3/rdock/2013.1/src/exe/rbdock.cxx#4 $)

>  <Rbt.Library>
libRbt.so (2013.1, Build901 2013/11/27)

>  <Rbt.Parameter_File>
/export/apps/rDock/src/rDock_2013.1_src/data/scripts/dock_solv.prm

>  <Rbt.Receptor>
prm/pocket_docking_2.prm

>  <SCORE>
-59.6549

>  <SCORE.INTER>
-61.1299

>  <SCORE.INTER.CONST>
1

>  <SCORE.INTER.POLAR>
-5.94833

>  <SCORE.INTER.ROT>
2

>  <SCORE.INTER.SOLV>
17.2086

>  <SCORE.INTER.VDW>
-31.5951

>  <SCORE.INTER.norm>
-4.7023

>  <SCORE.INTRA>
1.47502

>  <SCORE.INTRA.DIHEDRAL>
0.512183

>  <SCORE.INTRA.DIHEDRAL.0>
1.43995

>  <SCORE.INTRA.POLAR>
0.272593

>  <SCORE.INTRA.POLAR.0>
-0.272593

>  <SCORE.INTRA.REPUL>
0

>  <SCORE.INTRA.REPUL.0>
0

>  <SCORE.INTRA.SOLV>
-0.505339

>  <SCORE.INTRA.SOLV.lig_0>
-22.6728

>  <SCORE.INTRA.VDW>
0.544783

>  <SCORE.INTRA.VDW.0>
-0.754459

>  <SCORE.INTRA.norm>
0.113463

>  <SCORE.RESTR>
0

>  <SCORE.RESTR.CAVITY>
0

>  <SCORE.RESTR.norm>
0

>  <SCORE.SYSTEM>
0

>  <SCORE.SYSTEM.CONST>
0

>  <SCORE.SYSTEM.DIHEDRAL>
0

>  <SCORE.SYSTEM.SOLV>
0

>  <SCORE.SYSTEM.norm>
0

>  <SCORE.heavy>
13

>  <SCORE.norm>
-4.58884

>  <RMSD>
0.641

$$$$
lig.pdb
 OpenBabel11021811453D
libRbt.so/2013.1/901 2013/11/27
 13 14  0  0  0  0  0  0  0  0999 V2000
    2.2713    3.6209   -4.3930 N   0  0  0  0  0  0  0  0  0  0  0  0
    3.5288    3.0747   -4.4738 C   0  0  0  0  0  0  0  0  0  0  0  0
    3.8157    1.9553   -3.8183 N   0  0  0  0  0  0  0  0  0  0  0  0
    2.8793    1.3147   -3.0521 C   0  0  0  0  0  0  0  0  0  0  0  0
    1.5711    1.8495   -2.9339 C   0  0  0  0  0  0  0  0  0  0  0  0
    1.2795    3.0478   -3.6457 C   0  0  0  0  0  0  0  0  0  0  0  0
    0.1745    3.5569   -3.5964 O   0  0  0  0  0  0  0  0  0  0  0  0
    0.8343    0.9624   -2.0340 C   0  0  0  0  0  0  0  0  0  0  0  0
   -0.5782    1.1375   -1.5456 C   0  0  0  0  0  0  0  0  0  0  0  0
   -1.0677   -0.1311   -0.9884 N   0  0  0  0  0  0  0  0  0  0  0  0
    1.6804   -0.0239   -1.7110 C   0  0  0  0  0  0  0  0  0  0  0  0
    2.8984    0.1829   -2.3025 N   0  0  0  0  0  0  0  0  0  0  0  0
    4.4879    3.6823   -5.2406 N   0  0  0  0  0  0  0  0  0  0  0  0
  1  6  1  0  0  0  0
  2  1  1  0  0  0  0
  2  3  2  0  0  0  0
  3  4  1  0  0  0  0
  4  5  2  0  0  0  0
  4 12  1  0  0  0  0
  5  8  1  0  0  0  0
  6  7  2  0  0  0  0
  6  5  1  0  0  0  0
  8 11  2  0  0  0  0
  8  9  1  0  0  0  0
 10  9  1  0  0  0  0
 12 11  1  0  0  0  0
 13  2  1  0  0  0  0
M  END
>  <CHROM.1>
163.89808933,-95.57484655,1.81125996,1.87997317,-3.06784638,0.82799291,0.28002446
-0.58337530

>  <Name>
lig.pdb

>  <RI>
0

>  <Rbt.Current_Directory>
/home/itssahil/PROJECTS/Mol_Feturizer/New_Systems/rnas/2l1v

>  <Rbt.Executable>
rbdock ($Id: //depot/dev/client3/rdock/2013.1/src/exe/rbdock.cxx#4 $)

>  <Rbt.Library>
libRbt.so (2013.1, Build901 2013/11/27)

>  <Rbt.Parameter_File>
/export/apps/rDock/src/rDock_2013.1_src/data/scripts/dock_solv.prm

>  <Rbt.Receptor>
prm/pocket_docking_3.prm

>  <SCORE>
-59.6535

>  <SCORE.INTER>
-61.1135

>  <SCORE.INTER.CONST>
1

>  <SCORE.INTER.POLAR>
-5.89967

>  <SCORE.INTER.ROT>
2

>  <SCORE.INTER.SOLV>
17.1862

>  <SCORE.INTER.VDW>
-31.7388

>  <SCORE.INTER.norm>
-4.70104

>  <SCORE.INTRA>
1.45997

>  <SCORE.INTRA.DIHEDRAL>
0.472185

>  <SCORE.INTRA.DIHEDRAL.0>
1.43995

>  <SCORE.INTRA.POLAR>
0.272593

>  <SCORE.INTRA.POLAR.0>
-0.272593

>  <SCORE.INTRA.REPUL>
0

>  <SCORE.INTRA.REPUL.0>
0

>  <SCORE.INTRA.SOLV>
-0.504505

>  <SCORE.INTRA.SOLV.lig_0>
-22.6728

>  <SCORE.INTRA.VDW>
0.549311

>  <SCORE.INTRA.VDW.0>
-0.754459

>  <SCORE.INTRA.norm>
0.112305

>  <SCORE.RESTR>
0

>  <SCORE.RESTR.CAVITY>
0

>  <SCORE.RESTR.norm>
0

>  <SCORE.SYSTEM>
0

>  <SCORE.SYSTEM.CONST>
0

>  <SCORE.SYSTEM.DIHEDRAL>
0

>  <SCORE.SYSTEM.SOLV>
0

>  <SCORE.SYSTEM.norm>
0

>  <SCORE.heavy>
13

>  <SCORE.norm>
-4.58873

>  <RMSD>
0.641

$$$$
lig.pdb
 OpenBabel11021811453D
libRbt.so/2013.1/901 2013/11/27
 13 14  0  0  0  0  0  0  0  0999 V2000
    2.2966    3.6049   -4.3299 N   0  0  0  0  0  0  0  0  0  0  0  0
    3.5472    3.0450   -4.4218 C   0  0  0  0  0  0  0  0  0  0  0  0
    3.8203    1.9093   -3.7888 N   0  0  0  0  0  0  0  0  0  0  0  0
    2.8759    1.2652   -3.0353 C   0  0  0  0  0  0  0  0  0  0  0  0
    1.5745    1.8137   -2.9063 C   0  0  0  0  0  0  0  0  0  0  0  0
    1.2977    3.0294   -3.5941 C   0  0  0  0  0  0  0  0  0  0  0  0
    0.1990    3.5510   -3.5344 O   0  0  0  0  0  0  0  0  0  0  0  0
    0.8266    0.9179   -2.0242 C   0  0  0  0  0  0  0  0  0  0  0  0
   -0.5837    1.1007   -1.5322 C   0  0  0  0  0  0  0  0  0  0  0  0
   -1.1098   -0.1859   -1.0555 N   0  0  0  0  0  0  0  0  0  0  0  0
    1.6605   -0.0850   -1.7210 C   0  0  0  0  0  0  0  0  0  0  0  0
    2.8810    0.1185   -2.3085 N   0  0  0  0  0  0  0  0  0  0  0  0
    4.5139    3.6559   -5.1765 N   0  0  0  0  0  0  0  0  0  0  0  0
  1  6  1  0  0  0  0
  2  1  1  0  0  0  0
  2  3  2  0  0  0  0
  3  4  1  0  0  0  0
  4  5  2  0  0  0  0
  4 12  1  0  0  0  0
  5  8  1  0  0  0  0
  6  7  2  0  0  0  0
  6  5  1  0  0  0  0
  8 11  2  0  0  0  0
  8  9  1  0  0  0  0
 10  9  1  0  0  0  0
 12 11  1  0  0  0  0
 13  2  1  0  0  0  0
M  END
>  <CHROM.1>
161.38919938,81.77331824,1.81330211,1.84237963,-3.04492852,0.81518136,0.28275546
-0.55792882

>  <Name>
lig.pdb

>  <RI>
1.75485e+07

>  <Rbt.Current_Directory>
/home/itssahil/PROJECTS/Mol_Feturizer/New_Systems/rnas/2l1v

>  <Rbt.Executable>
rbdock ($Id: //depot/dev/client3/rdock/2013.1/src/exe/rbdock.cxx#4 $)

>  <Rbt.Library>
libRbt.so (2013.1, Build901 2013/11/27)

>  <Rbt.Parameter_File>
/export/apps/rDock/src/rDock_2013.1_src/data/scripts/dock_solv.prm

>  <Rbt.Receptor>
prm/pocket_docking_4.prm

>  <SCORE>
-59.4229

>  <SCORE.INTER>
-60.912

>  <SCORE.INTER.CONST>
1

>  <SCORE.INTER.POLAR>
-6.02055

>  <SCORE.INTER.ROT>
2

>  <SCORE.INTER.SOLV>
17.2133

>  <SCORE.INTER.VDW>
-31.2106

>  <SCORE.INTER.norm>
-4.68554

>  <SCORE.INTRA>
1.44029

>  <SCORE.INTRA.DIHEDRAL>
0.463917

>  <SCORE.INTRA.DIHEDRAL.0>
1.43995

>  <SCORE.INTRA.POLAR>
0.272593

>  <SCORE.INTRA.POLAR.0>
-0.272593

>  <SCORE.INTRA.REPUL>
0

>  <SCORE.INTRA.REPUL.0>
0

>  <SCORE.INTRA.SOLV>
-0.505376

>  <SCORE.INTRA.SOLV.lig_0>
-22.6728

>  <SCORE.INTRA.VDW>
0.534207

>  <SCORE.INTRA.VDW.0>
-0.754459

>  <SCORE.INTRA.norm>
0.110792

>  <SCORE.RESTR>
0.0487531

>  <SCORE.RESTR.CAVITY>
0.0487531

>  <SCORE.RESTR.norm>
0.00375024

>  <SCORE.SYSTEM>
0

>  <SCORE.SYSTEM.CONST>
0

>  <SCORE.SYSTEM.DIHEDRAL>
0

>  <SCORE.SYSTEM.SOLV>
0

>  <SCORE.SYSTEM.norm>
0

>  <SCORE.heavy>
13

>  <SCORE.norm>
-4.57099

>  <RMSD>
0.641

$$$$
lig.pdb
 OpenBabel11021811453D
libRbt.so/2013.1/901 2013/11/27
 13 14  0  0  0  0  0  0  0  0999 V2000
    2.2772    3.6163   -4.3791 N   0  0  0  0  0  0  0  0  0  0  0  0
    3.5372    3.0749   -4.4539 C   0  0  0  0  0  0  0  0  0  0  0  0
    3.8231    1.9525   -3.8031 N   0  0  0  0  0  0  0  0  0  0  0  0
    2.8832    1.3041   -3.0477 C   0  0  0  0  0  0  0  0  0  0  0  0
    1.5724    1.8338   -2.9360 C   0  0  0  0  0  0  0  0  0  0  0  0
    1.2819    3.0353   -3.6428 C   0  0  0  0  0  0  0  0  0  0  0  0
    0.1748    3.5404   -3.5985 O   0  0  0  0  0  0  0  0  0  0  0  0
    0.8320    0.9387   -2.0470 C   0  0  0  0  0  0  0  0  0  0  0  0
   -0.5847    1.1060   -1.5681 C   0  0  0  0  0  0  0  0  0  0  0  0
   -1.0689   -0.1636   -1.0085 N   0  0  0  0  0  0  0  0  0  0  0  0
    1.6791   -0.0467   -1.7237 C   0  0  0  0  0  0  0  0  0  0  0  0
    2.9007    0.1678   -2.3049 N   0  0  0  0  0  0  0  0  0  0  0  0
    4.4999    3.6904   -5.2099 N   0  0  0  0  0  0  0  0  0  0  0  0
  1  6  1  0  0  0  0
  2  1  1  0  0  0  0
  2  3  2  0  0  0  0
  3  4  1  0  0  0  0
  4  5  2  0  0  0  0
  4 12  1  0  0  0  0
  5  8  1  0  0  0  0
  6  7  2  0  0  0  0
  6  5  1  0  0  0  0
  8 11  2  0  0  0  0
  8  9  1  0  0  0  0
 10  9  1  0  0  0  0
 12 11  1  0  0  0  0
 13  2  1  0  0  0  0
M  END
>  <CHROM.1>
164.52161249,81.59607763,1.81419068,1.86603025,-3.06682531,0.82770883,0.27270887
-0.57764841

>  <Name>
lig.pdb

>  <RI>
4.15415e+07

>  <Rbt.Current_Directory>
/home/itssahil/PROJECTS/Mol_Feturizer/New_Systems/rnas/2l1v

>  <Rbt.Executable>
rbdock ($Id: //depot/dev/client3/rdock/2013.1/src/exe/rbdock.cxx#4 $)

>  <Rbt.Library>
libRbt.so (2013.1, Build901 2013/11/27)

>  <Rbt.Parameter_File>
/export/apps/rDock/src/rDock_2013.1_src/data/scripts/dock_solv.prm

>  <Rbt.Receptor>
prm/blind_docking_60.prm

>  <SCORE>
-59.5761

>  <SCORE.INTER>
-61.0434

>  <SCORE.INTER.CONST>
1

>  <SCORE.INTER.POLAR>
-5.95962

>  <SCORE.INTER.ROT>
2

>  <SCORE.INTER.SOLV>
17.2013

>  <SCORE.INTER.VDW>
-31.4973

>  <SCORE.INTER.norm>
-4.69565

>  <SCORE.INTRA>
1.38592

>  <SCORE.INTRA.DIHEDRAL>
0.318833

>  <SCORE.INTRA.DIHEDRAL.0>
1.43995

>  <SCORE.INTRA.POLAR>
0.272593

>  <SCORE.INTRA.POLAR.0>
-0.272593

>  <SCORE.INTRA.REPUL>
0

>  <SCORE.INTRA.REPUL.0>
0

>  <SCORE.INTRA.SOLV>
-0.502324

>  <SCORE.INTRA.SOLV.lig_0>
-22.6728

>  <SCORE.INTRA.VDW>
0.550854

>  <SCORE.INTRA.VDW.0>
-0.754459

>  <SCORE.INTRA.norm>
0.106609

>  <SCORE.RESTR>
0.0814372

>  <SCORE.RESTR.CAVITY>
0.0814372

>  <SCORE.RESTR.norm>
0.0062644

>  <SCORE.SYSTEM>
0

>  <SCORE.SYSTEM.CONST>
0

>  <SCORE.SYSTEM.DIHEDRAL>
0

>  <SCORE.SYSTEM.SOLV>
0

>  <SCORE.SYSTEM.norm>
0

>  <SCORE.heavy>
13

>  <SCORE.norm>
-4.58277

>  <RMSD>
0.642

$$$$
lig.pdb
 OpenBabel11021811453D
libRbt.so/2013.1/901 2013/11/27
 13 14  0  0  0  0  0  0  0  0999 V2000
    2.2723    3.6188   -4.3861 N   0  0  0  0  0  0  0  0  0  0  0  0
    3.5303    3.0733   -4.4629 C   0  0  0  0  0  0  0  0  0  0  0  0
    3.8158    1.9543   -3.8060 N   0  0  0  0  0  0  0  0  0  0  0  0
    2.8774    1.3136   -3.0423 C   0  0  0  0  0  0  0  0  0  0  0  0
    1.5686    1.8478   -2.9283 C   0  0  0  0  0  0  0  0  0  0  0  0
    1.2785    3.0456   -3.6417 C   0  0  0  0  0  0  0  0  0  0  0  0
    0.1731    3.5542   -3.5959 O   0  0  0  0  0  0  0  0  0  0  0  0
    0.8295    0.9607   -2.0303 C   0  0  0  0  0  0  0  0  0  0  0  0
   -0.5846    1.1354   -1.5463 C   0  0  0  0  0  0  0  0  0  0  0  0
   -1.0795   -0.1365   -1.0013 N   0  0  0  0  0  0  0  0  0  0  0  0
    1.6751   -0.0249   -1.7042 C   0  0  0  0  0  0  0  0  0  0  0  0
    2.8948    0.1822   -2.2921 N   0  0  0  0  0  0  0  0  0  0  0  0
    4.4915    3.6810   -5.2270 N   0  0  0  0  0  0  0  0  0  0  0  0
  1  6  1  0  0  0  0
  2  1  1  0  0  0  0
  2  3  2  0  0  0  0
  3  4  1  0  0  0  0
  4  5  2  0  0  0  0
  4 12  1  0  0  0  0
  5  8  1  0  0  0  0
  6  7  2  0  0  0  0
  6  5  1  0  0  0  0
  8 11  2  0  0  0  0
  8  9  1  0  0  0  0
 10  9  1  0  0  0  0
 12 11  1  0  0  0  0
 13  2  1  0  0  0  0
M  END
>  <CHROM.1>
163.37672597,80.84053056,1.80901123,1.87785632,-3.06274616,0.82660904,0.27618989
-0.58300618

>  <Name>
lig.pdb

>  <RI>
1.77584e+07

>  <Rbt.Current_Directory>
/home/itssahil/PROJECTS/Mol_Feturizer/New_Systems/rnas/2l1v

>  <Rbt.Executable>
rbdock ($Id: //depot/dev/client3/rdock/2013.1/src/exe/rbdock.cxx#4 $)

>  <Rbt.Library>
libRbt.so (2013.1, Build901 2013/11/27)

>  <Rbt.Parameter_File>
/export/apps/rDock/src/rDock_2013.1_src/data/scripts/dock_solv.prm

>  <Rbt.Receptor>
prm/blind_docking_80.prm

>  <SCORE>
-59.7067

>  <SCORE.INTER>
-61.1129

>  <SCORE.INTER.CONST>
1

>  <SCORE.INTER.POLAR>
-5.91933

>  <SCORE.INTER.ROT>
2

>  <SCORE.INTER.SOLV>
17.1809

>  <SCORE.INTER.VDW>
-31.6712

>  <SCORE.INTER.norm>
-4.701

>  <SCORE.INTRA>
1.40628

>  <SCORE.INTRA.DIHEDRAL>
0.370932

>  <SCORE.INTRA.DIHEDRAL.0>
1.43995

>  <SCORE.INTRA.POLAR>
0.272593

>  <SCORE.INTRA.POLAR.0>
-0.272593

>  <SCORE.INTRA.REPUL>
0

>  <SCORE.INTRA.REPUL.0>
0

>  <SCORE.INTRA.SOLV>
-0.503367

>  <SCORE.INTRA.SOLV.lig_0>
-22.6728

>  <SCORE.INTRA.VDW>
0.545685

>  <SCORE.INTRA.VDW.0>
-0.754459

>  <SCORE.INTRA.norm>
0.108176

>  <SCORE.RESTR>
0

>  <SCORE.RESTR.CAVITY>
0

>  <SCORE.RESTR.norm>
0

>  <SCORE.SYSTEM>
0

>  <SCORE.SYSTEM.CONST>
0

>  <SCORE.SYSTEM.DIHEDRAL>
0

>  <SCORE.SYSTEM.SOLV>
0

>  <SCORE.SYSTEM.norm>
0

>  <SCORE.heavy>
13

>  <SCORE.norm>
-4.59282

>  <RMSD>
0.642

$$$$
lig.pdb
 OpenBabel11021811453D
libRbt.so/2013.1/901 2013/11/27
 13 14  0  0  0  0  0  0  0  0999 V2000
    2.2642    3.6053   -4.3980 N   0  0  0  0  0  0  0  0  0  0  0  0
    3.5259    3.0663   -4.4577 C   0  0  0  0  0  0  0  0  0  0  0  0
    3.8127    1.9577   -3.7841 N   0  0  0  0  0  0  0  0  0  0  0  0
    2.8720    1.3213   -3.0195 C   0  0  0  0  0  0  0  0  0  0  0  0
    1.5593    1.8491   -2.9229 C   0  0  0  0  0  0  0  0  0  0  0  0
    1.2679    3.0358   -3.6540 C   0  0  0  0  0  0  0  0  0  0  0  0
    0.1591    3.5383   -3.6235 O   0  0  0  0  0  0  0  0  0  0  0  0
    0.8183    0.9693   -2.0192 C   0  0  0  0  0  0  0  0  0  0  0  0
   -0.6007    1.1418   -1.5487 C   0  0  0  0  0  0  0  0  0  0  0  0
   -1.1004   -0.1321   -1.0131 N   0  0  0  0  0  0  0  0  0  0  0  0
    1.6671   -0.0070   -1.6737 C   0  0  0  0  0  0  0  0  0  0  0  0
    2.8901    0.1998   -2.2546 N   0  0  0  0  0  0  0  0  0  0  0  0
    4.4896    3.6698   -5.2221 N   0  0  0  0  0  0  0  0  0  0  0  0
  1  6  1  0  0  0  0
  2  1  1  0  0  0  0
  2  3  2  0  0  0  0
  3  4  1  0  0  0  0
  4  5  2  0  0  0  0
  4 12  1  0  0  0  0
  5  8  1  0  0  0  0
  6  7  2  0  0  0  0
  6  5  1  0  0  0  0
  8 11  2  0  0  0  0
  8  9  1  0  0  0  0
 10  9  1  0  0  0  0
 12 11  1  0  0  0  0
 13  2  1  0  0  0  0
M  END
>  <CHROM.1>
162.37480494,-95.75258301,1.79954427,1.87843176,-3.05769745,0.82580368,0.26500747
-0.59507353

>  <Name>
lig.pdb

>  <RI>
0

>  <Rbt.Current_Directory>
/home/itssahil/PROJECTS/Mol_Feturizer/New_Systems/rnas/2l1v

>  <Rbt.Executable>
rbdock ($Id: //depot/dev/client3/rdock/2013.1/src/exe/rbdock.cxx#4 $)

>  <Rbt.Library>
libRbt.so (2013.1, Build901 2013/11/27)

>  <Rbt.Parameter_File>
/export/apps/rDock/src/rDock_2013.1_src/data/scripts/dock_solv.prm

>  <Rbt.Receptor>
prm/pocket_docking_3.prm

>  <SCORE>
-59.573

>  <SCORE.INTER>
-61.0594

>  <SCORE.INTER.CONST>
1

>  <SCORE.INTER.POLAR>
-5.92955

>  <SCORE.INTER.ROT>
2

>  <SCORE.INTER.SOLV>
17.1452

>  <SCORE.INTER.VDW>
-31.5895

>  <SCORE.INTER.norm>
-4.69687

>  <SCORE.INTRA>
1.48633

>  <SCORE.INTRA.DIHEDRAL>
0.542269

>  <SCORE.INTRA.DIHEDRAL.0>
1.43995

>  <SCORE.INTRA.POLAR>
0.272593

>  <SCORE.INTRA.POLAR.0>
-0.272593

>  <SCORE.INTRA.REPUL>
0

>  <SCORE.INTRA.REPUL.0>
0

>  <SCORE.INTRA.SOLV>
-0.505968

>  <SCORE.INTRA.SOLV.lig_0>
-22.6728

>  <SCORE.INTRA.VDW>
0.541369

>  <SCORE.INTRA.VDW.0>
-0.754459

>  <SCORE.INTRA.norm>
0.114333

>  <SCORE.RESTR>
0

>  <SCORE.RESTR.CAVITY>
0

>  <SCORE.RESTR.norm>
0

>  <SCORE.SYSTEM>
0

>  <SCORE.SYSTEM.CONST>
0

>  <SCORE.SYSTEM.DIHEDRAL>
0

>  <SCORE.SYSTEM.SOLV>
0

>  <SCORE.SYSTEM.norm>
0

>  <SCORE.heavy>
13

>  <SCORE.norm>
-4.58254

>  <RMSD>
0.642

$$$$
lig.pdb
 OpenBabel11021811453D
libRbt.so/2013.1/901 2013/11/27
 13 14  0  0  0  0  0  0  0  0999 V2000
    2.2727    3.6229   -4.3869 N   0  0  0  0  0  0  0  0  0  0  0  0
    3.5314    3.0780   -4.4570 C   0  0  0  0  0  0  0  0  0  0  0  0
    3.8142    1.9595   -3.7983 N   0  0  0  0  0  0  0  0  0  0  0  0
    2.8722    1.3186   -3.0391 C   0  0  0  0  0  0  0  0  0  0  0  0
    1.5626    1.8521   -2.9320 C   0  0  0  0  0  0  0  0  0  0  0  0
    1.2755    3.0494   -3.6473 C   0  0  0  0  0  0  0  0  0  0  0  0
    0.1695    3.5574   -3.6074 O   0  0  0  0  0  0  0  0  0  0  0  0
    0.8194    0.9649   -2.0374 C   0  0  0  0  0  0  0  0  0  0  0  0
   -0.5973    1.1389   -1.5607 C   0  0  0  0  0  0  0  0  0  0  0  0
   -1.0959   -0.1343   -1.0224 N   0  0  0  0  0  0  0  0  0  0  0  0
    1.6639   -0.0202   -1.7067 C   0  0  0  0  0  0  0  0  0  0  0  0
    2.8864    0.1874   -2.2884 N   0  0  0  0  0  0  0  0  0  0  0  0
    4.4961    3.6860   -5.2165 N   0  0  0  0  0  0  0  0  0  0  0  0
  1  6  1  0  0  0  0
  2  1  1  0  0  0  0
  2  3  2  0  0  0  0
  3  4  1  0  0  0  0
  4  5  2  0  0  0  0
  4 12  1  0  0  0  0
  5  8  1  0  0  0  0
  6  7  2  0  0  0  0
  6  5  1  0  0  0  0
  8 11  2  0  0  0  0
  8  9  1  0  0  0  0
 10  9  1  0  0  0  0
 12 11  1  0  0  0  0
 13  2  1  0  0  0  0
M  END
>  <CHROM.1>
163.16495486,81.48189156,1.80351135,1.88205971,-3.06566220,0.82397037,0.27134468
-0.58249434

>  <Name>
lig.pdb

>  <RI>
0

>  <Rbt.Current_Directory>
/home/itssahil/PROJECTS/Mol_Feturizer/New_Systems/rnas/2l1v

>  <Rbt.Executable>
rbdock ($Id: //depot/dev/client3/rdock/2013.1/src/exe/rbdock.cxx#4 $)

>  <Rbt.Library>
libRbt.so (2013.1, Build901 2013/11/27)

>  <Rbt.Parameter_File>
/export/apps/rDock/src/rDock_2013.1_src/data/scripts/dock_solv.prm

>  <Rbt.Receptor>
prm/pocket_docking_3.prm

>  <SCORE>
-59.705

>  <SCORE.INTER>
-61.114

>  <SCORE.INTER.CONST>
1

>  <SCORE.INTER.POLAR>
-5.94665

>  <SCORE.INTER.ROT>
2

>  <SCORE.INTER.SOLV>
17.2136

>  <SCORE.INTER.VDW>
-31.5917

>  <SCORE.INTER.norm>
-4.70107

>  <SCORE.INTRA>
1.40894

>  <SCORE.INTRA.DIHEDRAL>
0.379764

>  <SCORE.INTRA.DIHEDRAL.0>
1.43995

>  <SCORE.INTRA.POLAR>
0.272593

>  <SCORE.INTRA.POLAR.0>
-0.272593

>  <SCORE.INTRA.REPUL>
0

>  <SCORE.INTRA.REPUL.0>
0

>  <SCORE.INTRA.SOLV>
-0.50359

>  <SCORE.INTRA.SOLV.lig_0>
-22.6728

>  <SCORE.INTRA.VDW>
0.544034

>  <SCORE.INTRA.VDW.0>
-0.754459

>  <SCORE.INTRA.norm>
0.10838

>  <SCORE.RESTR>
0

>  <SCORE.RESTR.CAVITY>
0

>  <SCORE.RESTR.norm>
0

>  <SCORE.SYSTEM>
0

>  <SCORE.SYSTEM.CONST>
0

>  <SCORE.SYSTEM.DIHEDRAL>
0

>  <SCORE.SYSTEM.SOLV>
0

>  <SCORE.SYSTEM.norm>
0

>  <SCORE.heavy>
13

>  <SCORE.norm>
-4.59269

>  <RMSD>
0.642

$$$$
lig.pdb
 OpenBabel11021811453D
libRbt.so/2013.1/901 2013/11/27
 13 14  0  0  0  0  0  0  0  0999 V2000
    2.2679    3.6105   -4.3905 N   0  0  0  0  0  0  0  0  0  0  0  0
    3.5275    3.0673   -4.4577 C   0  0  0  0  0  0  0  0  0  0  0  0
    3.8113    1.9513   -3.7952 N   0  0  0  0  0  0  0  0  0  0  0  0
    2.8696    1.3114   -3.0348 C   0  0  0  0  0  0  0  0  0  0  0  0
    1.5591    1.8432   -2.9306 C   0  0  0  0  0  0  0  0  0  0  0  0
    1.2708    3.0379   -3.6500 C   0  0  0  0  0  0  0  0  0  0  0  0
    0.1641    3.5443   -3.6126 O   0  0  0  0  0  0  0  0  0  0  0  0
    0.8164    0.9578   -2.0339 C   0  0  0  0  0  0  0  0  0  0  0  0
   -0.6009    1.1312   -1.5590 C   0  0  0  0  0  0  0  0  0  0  0  0
   -1.0908   -0.1353   -0.9973 N   0  0  0  0  0  0  0  0  0  0  0  0
    1.6622   -0.0250   -1.6992 C   0  0  0  0  0  0  0  0  0  0  0  0
    2.8849    0.1826   -2.2805 N   0  0  0  0  0  0  0  0  0  0  0  0
    4.4920    3.6743   -5.2183 N   0  0  0  0  0  0  0  0  0  0  0  0
  1  6  1  0  0  0  0
  2  1  1  0  0  0  0
  2  3  2  0  0  0  0
  3  4  1  0  0  0  0
  4  5  2  0  0  0  0
  4 12  1  0  0  0  0
  5  8  1  0  0  0  0
  6  7  2  0  0  0  0
  6  5  1  0  0  0  0
  8 11  2  0  0  0  0
  8  9  1  0  0  0  0
 10  9  1  0  0  0  0
 12 11  1  0  0  0  0
 13  2  1  0  0  0  0
M  END
>  <CHROM.1>
164.06870860,81.78889374,1.80079365,1.87368901,-3.06229261,0.82559413,0.27114214
-0.58679536

>  <Name>
lig.pdb

>  <RI>
4.02536e+07

>  <Rbt.Current_Directory>
/home/itssahil/PROJECTS/Mol_Feturizer/New_Systems/rnas/2l1v

>  <Rbt.Executable>
rbdock ($Id: //depot/dev/client3/rdock/2013.1/src/exe/rbdock.cxx#4 $)

>  <Rbt.Library>
libRbt.so (2013.1, Build901 2013/11/27)

>  <Rbt.Parameter_File>
/export/apps/rDock/src/rDock_2013.1_src/data/scripts/dock_solv.prm

>  <Rbt.Receptor>
prm/blind_docking_40.prm

>  <SCORE>
-59.6892

>  <SCORE.INTER>
-61.0823

>  <SCORE.INTER.CONST>
1

>  <SCORE.INTER.POLAR>
-5.91906

>  <SCORE.INTER.ROT>
2

>  <SCORE.INTER.SOLV>
17.1651

>  <SCORE.INTER.VDW>
-31.6464

>  <SCORE.INTER.norm>
-4.69864

>  <SCORE.INTRA>
1.39312

>  <SCORE.INTRA.DIHEDRAL>
0.338487

>  <SCORE.INTRA.DIHEDRAL.0>
1.43995

>  <SCORE.INTRA.POLAR>
0.272593

>  <SCORE.INTRA.POLAR.0>
-0.272593

>  <SCORE.INTRA.REPUL>
0

>  <SCORE.INTRA.REPUL.0>
0

>  <SCORE.INTRA.SOLV>
-0.502745

>  <SCORE.INTRA.SOLV.lig_0>
-22.6728

>  <SCORE.INTRA.VDW>
0.548433

>  <SCORE.INTRA.VDW.0>
-0.754459

>  <SCORE.INTRA.norm>
0.107163

>  <SCORE.RESTR>
0

>  <SCORE.RESTR.CAVITY>
0

>  <SCORE.RESTR.norm>
0

>  <SCORE.SYSTEM>
0

>  <SCORE.SYSTEM.CONST>
0

>  <SCORE.SYSTEM.DIHEDRAL>
0

>  <SCORE.SYSTEM.SOLV>
0

>  <SCORE.SYSTEM.norm>
0

>  <SCORE.heavy>
13

>  <SCORE.norm>
-4.59148

>  <RMSD>
0.643

$$$$
lig.pdb
 OpenBabel11021811453D
libRbt.so/2013.1/901 2013/11/27
 13 14  0  0  0  0  0  0  0  0999 V2000
    2.2721    3.6097   -4.3980 N   0  0  0  0  0  0  0  0  0  0  0  0
    3.5376    3.0793   -4.4553 C   0  0  0  0  0  0  0  0  0  0  0  0
    3.8306    1.9723   -3.7816 N   0  0  0  0  0  0  0  0  0  0  0  0
    2.8926    1.3292   -3.0194 C   0  0  0  0  0  0  0  0  0  0  0  0
    1.5761    1.8481   -2.9252 C   0  0  0  0  0  0  0  0  0  0  0  0
    1.2781    3.0331   -3.6563 C   0  0  0  0  0  0  0  0  0  0  0  0
    0.1660    3.5281   -3.6280 O   0  0  0  0  0  0  0  0  0  0  0  0
    0.8392    0.9628   -2.0235 C   0  0  0  0  0  0  0  0  0  0  0  0
   -0.5819    1.1254   -1.5559 C   0  0  0  0  0  0  0  0  0  0  0  0
   -1.0722   -0.1506   -1.0167 N   0  0  0  0  0  0  0  0  0  0  0  0
    1.6938   -0.0079   -1.6767 C   0  0  0  0  0  0  0  0  0  0  0  0
    2.9167    0.2074   -2.2550 N   0  0  0  0  0  0  0  0  0  0  0  0
    4.4988    3.6897   -5.2174 N   0  0  0  0  0  0  0  0  0  0  0  0
  1  6  1  0  0  0  0
  2  1  1  0  0  0  0
  2  3  2  0  0  0  0
  3  4  1  0  0  0  0
  4  5  2  0  0  0  0
  4 12  1  0  0  0  0
  5  8  1  0  0  0  0
  6  7  2  0  0  0  0
  6  5  1  0  0  0  0
  8 11  2  0  0  0  0
  8  9  1  0  0  0  0
 10  9  1  0  0  0  0
 12 11  1  0  0  0  0
 13  2  1  0  0  0  0
M  END
>  <CHROM.1>
162.61607229,-98.21140709,1.81660002,1.87918902,-3.05900414,0.83064802,0.25970319
-0.59610929

>  <Name>
lig.pdb

>  <RI>
1.77584e+07

>  <Rbt.Current_Directory>
/home/itssahil/PROJECTS/Mol_Feturizer/New_Systems/rnas/2l1v

>  <Rbt.Executable>
rbdock ($Id: //depot/dev/client3/rdock/2013.1/src/exe/rbdock.cxx#4 $)

>  <Rbt.Library>
libRbt.so (2013.1, Build901 2013/11/27)

>  <Rbt.Parameter_File>
/export/apps/rDock/src/rDock_2013.1_src/data/scripts/dock_solv.prm

>  <Rbt.Receptor>
prm/blind_docking_80.prm

>  <SCORE>
-59.5493

>  <SCORE.INTER>
-61.0314

>  <SCORE.INTER.CONST>
1

>  <SCORE.INTER.POLAR>
-5.95536

>  <SCORE.INTER.ROT>
2

>  <SCORE.INTER.SOLV>
17.14

>  <SCORE.INTER.VDW>
-31.4831

>  <SCORE.INTER.norm>
-4.69473

>  <SCORE.INTRA>
1.48212

>  <SCORE.INTRA.DIHEDRAL>
0.528266

>  <SCORE.INTRA.DIHEDRAL.0>
1.43995

>  <SCORE.INTRA.POLAR>
0.272593

>  <SCORE.INTRA.POLAR.0>
-0.272593

>  <SCORE.INTRA.REPUL>
0

>  <SCORE.INTRA.REPUL.0>
0

>  <SCORE.INTRA.SOLV>
-0.505647

>  <SCORE.INTRA.SOLV.lig_0>
-22.6728

>  <SCORE.INTRA.VDW>
0.543991

>  <SCORE.INTRA.VDW.0>
-0.754459

>  <SCORE.INTRA.norm>
0.114009

>  <SCORE.RESTR>
0

>  <SCORE.RESTR.CAVITY>
0

>  <SCORE.RESTR.norm>
0

>  <SCORE.SYSTEM>
0

>  <SCORE.SYSTEM.CONST>
0

>  <SCORE.SYSTEM.DIHEDRAL>
0

>  <SCORE.SYSTEM.SOLV>
0

>  <SCORE.SYSTEM.norm>
0

>  <SCORE.heavy>
13

>  <SCORE.norm>
-4.58072

>  <RMSD>
0.643

$$$$
lig.pdb
 OpenBabel11021811453D
libRbt.so/2013.1/901 2013/11/27
 13 14  0  0  0  0  0  0  0  0999 V2000
    2.2639    3.5815   -4.3615 N   0  0  0  0  0  0  0  0  0  0  0  0
    3.5177    3.0232   -4.4123 C   0  0  0  0  0  0  0  0  0  0  0  0
    3.7832    1.9112   -3.7355 N   0  0  0  0  0  0  0  0  0  0  0  0
    2.8279    1.2903   -2.9764 C   0  0  0  0  0  0  0  0  0  0  0  0
    1.5227    1.8381   -2.8890 C   0  0  0  0  0  0  0  0  0  0  0  0
    1.2542    3.0282   -3.6234 C   0  0  0  0  0  0  0  0  0  0  0  0
    0.1531    3.5476   -3.6008 O   0  0  0  0  0  0  0  0  0  0  0  0
    0.7625    0.9708   -1.9892 C   0  0  0  0  0  0  0  0  0  0  0  0
   -0.6567    1.1655   -1.5282 C   0  0  0  0  0  0  0  0  0  0  0  0
   -1.2003   -0.1144   -1.0529 N   0  0  0  0  0  0  0  0  0  0  0  0
    1.5940   -0.0178   -1.6370 C   0  0  0  0  0  0  0  0  0  0  0  0
    2.8239    0.1695   -2.2101 N   0  0  0  0  0  0  0  0  0  0  0  0
    4.4954    3.6111   -5.1710 N   0  0  0  0  0  0  0  0  0  0  0  0
  1  6  1  0  0  0  0
  2  1  1  0  0  0  0
  2  3  2  0  0  0  0
  3  4  1  0  0  0  0
  4  5  2  0  0  0  0
  4 12  1  0  0  0  0
  5  8  1  0  0  0  0
  6  7  2  0  0  0  0
  6  5  1  0  0  0  0
  8 11  2  0  0  0  0
  8  9  1  0  0  0  0
 10  9  1  0  0  0  0
 12 11  1  0  0  0  0
 13  2  1  0  0  0  0
M  END
>  <CHROM.1>
159.73339320,84.36832444,1.76261346,1.86206931,-3.02782230,0.80670101,0.26406177
-0.58921996

>  <Name>
lig.pdb

>  <RI>
1.77584e+07

>  <Rbt.Current_Directory>
/home/itssahil/PROJECTS/Mol_Feturizer/New_Systems/rnas/2l1v

>  <Rbt.Executable>
rbdock ($Id: //depot/dev/client3/rdock/2013.1/src/exe/rbdock.cxx#4 $)

>  <Rbt.Library>
libRbt.so (2013.1, Build901 2013/11/27)

>  <Rbt.Parameter_File>
/export/apps/rDock/src/rDock_2013.1_src/data/scripts/dock_solv.prm

>  <Rbt.Receptor>
prm/blind_docking_80.prm

>  <SCORE>
-59.5972

>  <SCORE.INTER>
-61.0657

>  <SCORE.INTER.CONST>
1

>  <SCORE.INTER.POLAR>
-5.97831

>  <SCORE.INTER.ROT>
2

>  <SCORE.INTER.SOLV>
17.1076

>  <SCORE.INTER.VDW>
-31.4186

>  <SCORE.INTER.norm>
-4.69736

>  <SCORE.INTRA>
1.46843

>  <SCORE.INTRA.DIHEDRAL>
0.544501

>  <SCORE.INTRA.DIHEDRAL.0>
1.43995

>  <SCORE.INTRA.POLAR>
0.272593

>  <SCORE.INTRA.POLAR.0>
-0.272593

>  <SCORE.INTRA.REPUL>
0

>  <SCORE.INTRA.REPUL.0>
0

>  <SCORE.INTRA.SOLV>
-0.507224

>  <SCORE.INTRA.SOLV.lig_0>
-22.6728

>  <SCORE.INTRA.VDW>
0.522972

>  <SCORE.INTRA.VDW.0>
-0.754459

>  <SCORE.INTRA.norm>
0.112956

>  <SCORE.RESTR>
0

>  <SCORE.RESTR.CAVITY>
0

>  <SCORE.RESTR.norm>
0

>  <SCORE.SYSTEM>
0

>  <SCORE.SYSTEM.CONST>
0

>  <SCORE.SYSTEM.DIHEDRAL>
0

>  <SCORE.SYSTEM.SOLV>
0

>  <SCORE.SYSTEM.norm>
0

>  <SCORE.heavy>
13

>  <SCORE.norm>
-4.5844

>  <RMSD>
0.649

$$$$
lig.pdb
 OpenBabel11021811453D
libRbt.so/2013.1/901 2013/11/27
 13 14  0  0  0  0  0  0  0  0999 V2000
    2.2631    3.5850   -4.3690 N   0  0  0  0  0  0  0  0  0  0  0  0
    3.5153    3.0228   -4.4140 C   0  0  0  0  0  0  0  0  0  0  0  0
    3.7733    1.9084   -3.7384 N   0  0  0  0  0  0  0  0  0  0  0  0
    2.8118    1.2888   -2.9861 C   0  0  0  0  0  0  0  0  0  0  0  0
    1.5080    1.8407   -2.9048 C   0  0  0  0  0  0  0  0  0  0  0  0
    1.2474    3.0333   -3.6379 C   0  0  0  0  0  0  0  0  0  0  0  0
    0.1479    3.5563   -3.6203 O   0  0  0  0  0  0  0  0  0  0  0  0
    0.7398    0.9739   -2.0113 C   0  0  0  0  0  0  0  0  0  0  0  0
   -0.6813    1.1721   -1.5578 C   0  0  0  0  0  0  0  0  0  0  0  0
   -1.2225   -0.1011   -1.0624 N   0  0  0  0  0  0  0  0  0  0  0  0
    1.5661   -0.0183   -1.6567 C   0  0  0  0  0  0  0  0  0  0  0  0
    2.7998    0.1663   -2.2224 N   0  0  0  0  0  0  0  0  0  0  0  0
    4.4992    3.6091   -5.1659 N   0  0  0  0  0  0  0  0  0  0  0  0
  1  6  1  0  0  0  0
  2  1  1  0  0  0  0
  2  3  2  0  0  0  0
  3  4  1  0  0  0  0
  4  5  2  0  0  0  0
  4 12  1  0  0  0  0
  5  8  1  0  0  0  0
  6  7  2  0  0  0  0
  6  5  1  0  0  0  0
  8 11  2  0  0  0  0
  8  9  1  0  0  0  0
 10  9  1  0  0  0  0
 12 11  1  0  0  0  0
 13  2  1  0  0  0  0
M  END
>  <CHROM.1>
160.90893914,-93.03372832,1.74924174,1.86492480,-3.03964953,0.80141389,0.26313464
-0.58643543

>  <Name>
lig.pdb

>  <RI>
2.86608e+07

>  <Rbt.Current_Directory>
/home/itssahil/PROJECTS/Mol_Feturizer/New_Systems/rnas/2l1v

>  <Rbt.Executable>
rbdock ($Id: //depot/dev/client3/rdock/2013.1/src/exe/rbdock.cxx#4 $)

>  <Rbt.Library>
libRbt.so (2013.1, Build901 2013/11/27)

>  <Rbt.Parameter_File>
/export/apps/rDock/src/rDock_2013.1_src/data/scripts/dock_solv.prm

>  <Rbt.Receptor>
prm/pocket_docking_7.prm

>  <SCORE>
-59.5304

>  <SCORE.INTER>
-61.0433

>  <SCORE.INTER.CONST>
1

>  <SCORE.INTER.POLAR>
-5.96478

>  <SCORE.INTER.ROT>
2

>  <SCORE.INTER.SOLV>
17.1637

>  <SCORE.INTER.VDW>
-31.4675

>  <SCORE.INTER.norm>
-4.69564

>  <SCORE.INTRA>
1.51287

>  <SCORE.INTRA.DIHEDRAL>
0.615232

>  <SCORE.INTRA.DIHEDRAL.0>
1.43995

>  <SCORE.INTRA.POLAR>
0.272593

>  <SCORE.INTRA.POLAR.0>
-0.272593

>  <SCORE.INTRA.REPUL>
0

>  <SCORE.INTRA.REPUL.0>
0

>  <SCORE.INTRA.SOLV>
-0.507547

>  <SCORE.INTRA.SOLV.lig_0>
-22.6728

>  <SCORE.INTRA.VDW>
0.532214

>  <SCORE.INTRA.VDW.0>
-0.754459

>  <SCORE.INTRA.norm>
0.116375

>  <SCORE.RESTR>
0

>  <SCORE.RESTR.CAVITY>
0

>  <SCORE.RESTR.norm>
0

>  <SCORE.SYSTEM>
0

>  <SCORE.SYSTEM.CONST>
0

>  <SCORE.SYSTEM.DIHEDRAL>
0

>  <SCORE.SYSTEM.SOLV>
0

>  <SCORE.SYSTEM.norm>
0

>  <SCORE.heavy>
13

>  <SCORE.norm>
-4.57926

>  <RMSD>
0.649

$$$$
lig.pdb
 OpenBabel11021811453D
libRbt.so/2013.1/901 2013/11/27
 13 14  0  0  0  0  0  0  0  0999 V2000
    2.2579    3.5783   -4.3804 N   0  0  0  0  0  0  0  0  0  0  0  0
    3.5125    3.0211   -4.4189 C   0  0  0  0  0  0  0  0  0  0  0  0
    3.7751    1.9153   -3.7309 N   0  0  0  0  0  0  0  0  0  0  0  0
    2.8160    1.2998   -2.9723 C   0  0  0  0  0  0  0  0  0  0  0  0
    1.5097    1.8469   -2.8974 C   0  0  0  0  0  0  0  0  0  0  0  0
    1.2443    3.0302   -3.6437 C   0  0  0  0  0  0  0  0  0  0  0  0
    0.1425    3.5485   -3.6322 O   0  0  0  0  0  0  0  0  0  0  0  0
    0.7450    0.9865   -1.9948 C   0  0  0  0  0  0  0  0  0  0  0  0
   -0.6771    1.1835   -1.5441 C   0  0  0  0  0  0  0  0  0  0  0  0
   -1.2169   -0.0894   -1.0461 N   0  0  0  0  0  0  0  0  0  0  0  0
    1.5755    0.0019   -1.6291 C   0  0  0  0  0  0  0  0  0  0  0  0
    2.8086    0.1857   -2.1963 N   0  0  0  0  0  0  0  0  0  0  0  0
    4.4942    3.6034   -5.1768 N   0  0  0  0  0  0  0  0  0  0  0  0
  1  6  1  0  0  0  0
  2  1  1  0  0  0  0
  2  3  2  0  0  0  0
  3  4  1  0  0  0  0
  4  5  2  0  0  0  0
  4 12  1  0  0  0  0
  5  8  1  0  0  0  0
  6  7  2  0  0  0  0
  6  5  1  0  0  0  0
  8 11  2  0  0  0  0
  8  9  1  0  0  0  0
 10  9  1  0  0  0  0
 12 11  1  0  0  0  0
 13  2  1  0  0  0  0
M  END
>  <CHROM.1>
160.40298332,-93.20365313,1.75060047,1.87038214,-3.03355985,0.80444978,0.25959582
-0.59783734

>  <Name>
lig.pdb

>  <RI>
4.02536e+07

>  <Rbt.Current_Directory>
/home/itssahil/PROJECTS/Mol_Feturizer/New_Systems/rnas/2l1v

>  <Rbt.Executable>
rbdock ($Id: //depot/dev/client3/rdock/2013.1/src/exe/rbdock.cxx#4 $)

>  <Rbt.Library>
libRbt.so (2013.1, Build901 2013/11/27)

>  <Rbt.Parameter_File>
/export/apps/rDock/src/rDock_2013.1_src/data/scripts/dock_solv.prm

>  <Rbt.Receptor>
prm/blind_docking_40.prm

>  <SCORE>
-59.5215

>  <SCORE.INTER>
-61.0439

>  <SCORE.INTER.CONST>
1

>  <SCORE.INTER.POLAR>
-5.94092

>  <SCORE.INTER.ROT>
2

>  <SCORE.INTER.SOLV>
17.1076

>  <SCORE.INTER.VDW>
-31.5288

>  <SCORE.INTER.norm>
-4.69568

>  <SCORE.INTRA>
1.52244

>  <SCORE.INTRA.DIHEDRAL>
0.640561

>  <SCORE.INTRA.DIHEDRAL.0>
1.43995

>  <SCORE.INTRA.POLAR>
0.272593

>  <SCORE.INTRA.POLAR.0>
-0.272593

>  <SCORE.INTRA.REPUL>
0

>  <SCORE.INTRA.REPUL.0>
0

>  <SCORE.INTRA.SOLV>
-0.508083

>  <SCORE.INTRA.SOLV.lig_0>
-22.6728

>  <SCORE.INTRA.VDW>
0.529385

>  <SCORE.INTRA.VDW.0>
-0.754459

>  <SCORE.INTRA.norm>
0.117111

>  <SCORE.RESTR>
0

>  <SCORE.RESTR.CAVITY>
0

>  <SCORE.RESTR.norm>
0

>  <SCORE.SYSTEM>
0

>  <SCORE.SYSTEM.CONST>
0

>  <SCORE.SYSTEM.DIHEDRAL>
0

>  <SCORE.SYSTEM.SOLV>
0

>  <SCORE.SYSTEM.norm>
0

>  <SCORE.heavy>
13

>  <SCORE.norm>
-4.57857

>  <RMSD>
0.651

$$$$
lig.pdb
 OpenBabel11021811453D
libRbt.so/2013.1/901 2013/11/27
 13 14  0  0  0  0  0  0  0  0999 V2000
    2.2720    3.6118   -4.3859 N   0  0  0  0  0  0  0  0  0  0  0  0
    3.5305    3.0669   -4.4591 C   0  0  0  0  0  0  0  0  0  0  0  0
    3.8130    1.9447   -3.8064 N   0  0  0  0  0  0  0  0  0  0  0  0
    2.8708    1.3000   -3.0507 C   0  0  0  0  0  0  0  0  0  0  0  0
    1.5614    1.8333   -2.9407 C   0  0  0  0  0  0  0  0  0  0  0  0
    1.2746    3.0346   -3.6494 C   0  0  0  0  0  0  0  0  0  0  0  0
    0.1688    3.5427   -3.6067 O   0  0  0  0  0  0  0  0  0  0  0  0
    0.8179    0.9415   -2.0509 C   0  0  0  0  0  0  0  0  0  0  0  0
   -0.5987    1.1134   -1.5732 C   0  0  0  0  0  0  0  0  0  0  0  0
   -1.0577   -0.1284   -0.9354 N   0  0  0  0  0  0  0  0  0  0  0  0
    1.6621   -0.0456   -1.7255 C   0  0  0  0  0  0  0  0  0  0  0  0
    2.8847    0.1647   -2.3062 N   0  0  0  0  0  0  0  0  0  0  0  0
    4.4954    3.6787   -5.2152 N   0  0  0  0  0  0  0  0  0  0  0  0
  1  6  1  0  0  0  0
  2  1  1  0  0  0  0
  2  3  2  0  0  0  0
  3  4  1  0  0  0  0
  4  5  2  0  0  0  0
  4 12  1  0  0  0  0
  5  8  1  0  0  0  0
  6  7  2  0  0  0  0
  6  5  1  0  0  0  0
  8 11  2  0  0  0  0
  8  9  1  0  0  0  0
 10  9  1  0  0  0  0
 12 11  1  0  0  0  0
 13  2  1  0  0  0  0
M  END
>  <CHROM.1>
168.07755840,-95.34231240,1.80572138,1.86728460,-3.06413417,0.82759647,0.27914889
-0.58214395

>  <Name>
lig.pdb

>  <RI>
1.459e+07

>  <Rbt.Current_Directory>
/home/itssahil/PROJECTS/Mol_Feturizer/New_Systems/rnas/2l1v

>  <Rbt.Executable>
rbdock ($Id: //depot/dev/client3/rdock/2013.1/src/exe/rbdock.cxx#4 $)

>  <Rbt.Library>
libRbt.so (2013.1, Build901 2013/11/27)

>  <Rbt.Parameter_File>
/export/apps/rDock/src/rDock_2013.1_src/data/scripts/dock_solv.prm

>  <Rbt.Receptor>
prm/pocket_docking_2.prm

>  <SCORE>
-59.5528

>  <SCORE.INTER>
-60.9607

>  <SCORE.INTER.CONST>
1

>  <SCORE.INTER.POLAR>
-5.87065

>  <SCORE.INTER.ROT>
2

>  <SCORE.INTER.SOLV>
17.1267

>  <SCORE.INTER.VDW>
-31.7139

>  <SCORE.INTER.norm>
-4.68928

>  <SCORE.INTRA>
1.40787

>  <SCORE.INTRA.DIHEDRAL>
0.303512

>  <SCORE.INTRA.DIHEDRAL.0>
1.43995

>  <SCORE.INTRA.POLAR>
0.272593

>  <SCORE.INTRA.POLAR.0>
-0.272593

>  <SCORE.INTRA.REPUL>
0

>  <SCORE.INTRA.REPUL.0>
0

>  <SCORE.INTRA.SOLV>
-0.500982

>  <SCORE.INTRA.SOLV.lig_0>
-22.6728

>  <SCORE.INTRA.VDW>
0.579787

>  <SCORE.INTRA.VDW.0>
-0.754459

>  <SCORE.INTRA.norm>
0.108298

>  <SCORE.RESTR>
0

>  <SCORE.RESTR.CAVITY>
0

>  <SCORE.RESTR.norm>
0

>  <SCORE.SYSTEM>
0

>  <SCORE.SYSTEM.CONST>
0

>  <SCORE.SYSTEM.DIHEDRAL>
0

>  <SCORE.SYSTEM.SOLV>
0

>  <SCORE.SYSTEM.norm>
0

>  <SCORE.heavy>
13

>  <SCORE.norm>
-4.58099

>  <RMSD>
0.651

$$$$
lig.pdb
 OpenBabel11021811453D
libRbt.so/2013.1/901 2013/11/27
 13 14  0  0  0  0  0  0  0  0999 V2000
    2.2718    3.5820   -4.3301 N   0  0  0  0  0  0  0  0  0  0  0  0
    3.5219    3.0174   -4.3990 C   0  0  0  0  0  0  0  0  0  0  0  0
    3.7864    1.8947   -3.7398 N   0  0  0  0  0  0  0  0  0  0  0  0
    2.8337    1.2687   -2.9816 C   0  0  0  0  0  0  0  0  0  0  0  0
    1.5325    1.8227   -2.8759 C   0  0  0  0  0  0  0  0  0  0  0  0
    1.2649    3.0243   -3.5915 C   0  0  0  0  0  0  0  0  0  0  0  0
    0.1671    3.5496   -3.5527 O   0  0  0  0  0  0  0  0  0  0  0  0
    0.7746    0.9474   -1.9819 C   0  0  0  0  0  0  0  0  0  0  0  0
   -0.6397    1.1437   -1.5067 C   0  0  0  0  0  0  0  0  0  0  0  0
   -1.1876   -0.1400   -1.0469 N   0  0  0  0  0  0  0  0  0  0  0  0
    1.6032   -0.0508   -1.6503 C   0  0  0  0  0  0  0  0  0  0  0  0
    2.8294    0.1375   -2.2308 N   0  0  0  0  0  0  0  0  0  0  0  0
    4.4968    3.6101   -5.1575 N   0  0  0  0  0  0  0  0  0  0  0  0
  1  6  1  0  0  0  0
  2  1  1  0  0  0  0
  2  3  2  0  0  0  0
  3  4  1  0  0  0  0
  4  5  2  0  0  0  0
  4 12  1  0  0  0  0
  5  8  1  0  0  0  0
  6  7  2  0  0  0  0
  6  5  1  0  0  0  0
  8 11  2  0  0  0  0
  8  9  1  0  0  0  0
 10  9  1  0  0  0  0
 12 11  1  0  0  0  0
 13  2  1  0  0  0  0
M  END
>  <CHROM.1>
159.63380517,84.74431137,1.77131388,1.84716026,-3.01653400,0.80626763,0.27392252
-0.57518132

>  <Name>
lig.pdb

>  <RI>
1.75485e+07

>  <Rbt.Current_Directory>
/home/itssahil/PROJECTS/Mol_Feturizer/New_Systems/rnas/2l1v

>  <Rbt.Executable>
rbdock ($Id: //depot/dev/client3/rdock/2013.1/src/exe/rbdock.cxx#4 $)

>  <Rbt.Library>
libRbt.so (2013.1, Build901 2013/11/27)

>  <Rbt.Parameter_File>
/export/apps/rDock/src/rDock_2013.1_src/data/scripts/dock_solv.prm

>  <Rbt.Receptor>
prm/pocket_docking_4.prm

>  <SCORE>
-59.5289

>  <SCORE.INTER>
-61.0623

>  <SCORE.INTER.CONST>
1

>  <SCORE.INTER.POLAR>
-6.01657

>  <SCORE.INTER.ROT>
2

>  <SCORE.INTER.SOLV>
17.0913

>  <SCORE.INTER.VDW>
-31.2834

>  <SCORE.INTER.norm>
-4.6971

>  <SCORE.INTRA>
1.46999

>  <SCORE.INTRA.DIHEDRAL>
0.549338

>  <SCORE.INTRA.DIHEDRAL.0>
1.43995

>  <SCORE.INTRA.POLAR>
0.272593

>  <SCORE.INTRA.POLAR.0>
-0.272593

>  <SCORE.INTRA.REPUL>
0

>  <SCORE.INTRA.REPUL.0>
0

>  <SCORE.INTRA.SOLV>
-0.507344

>  <SCORE.INTRA.SOLV.lig_0>
-22.6728

>  <SCORE.INTRA.VDW>
0.522174

>  <SCORE.INTRA.VDW.0>
-0.754459

>  <SCORE.INTRA.norm>
0.113076

>  <SCORE.RESTR>
0.0633824

>  <SCORE.RESTR.CAVITY>
0.0633824

>  <SCORE.RESTR.norm>
0.00487557

>  <SCORE.SYSTEM>
0

>  <SCORE.SYSTEM.CONST>
0

>  <SCORE.SYSTEM.DIHEDRAL>
0

>  <SCORE.SYSTEM.SOLV>
0

>  <SCORE.SYSTEM.norm>
0

>  <SCORE.heavy>
13

>  <SCORE.norm>
-4.57915

>  <RMSD>
0.651

$$$$
lig.pdb
 OpenBabel11021811453D
libRbt.so/2013.1/901 2013/11/27
 13 14  0  0  0  0  0  0  0  0999 V2000
    2.2881    3.6463   -4.3480 N   0  0  0  0  0  0  0  0  0  0  0  0
    3.5398    3.0891   -4.4422 C   0  0  0  0  0  0  0  0  0  0  0  0
    3.8168    1.9544   -3.8091 N   0  0  0  0  0  0  0  0  0  0  0  0
    2.8755    1.3087   -3.0532 C   0  0  0  0  0  0  0  0  0  0  0  0
    1.5731    1.8543   -2.9217 C   0  0  0  0  0  0  0  0  0  0  0  0
    1.2921    3.0690   -3.6097 C   0  0  0  0  0  0  0  0  0  0  0  0
    0.1924    3.5882   -3.5480 O   0  0  0  0  0  0  0  0  0  0  0  0
    0.8292    0.9574   -2.0374 C   0  0  0  0  0  0  0  0  0  0  0  0
   -0.5805    1.1374   -1.5425 C   0  0  0  0  0  0  0  0  0  0  0  0
   -1.0782   -0.1343   -0.9997 N   0  0  0  0  0  0  0  0  0  0  0  0
    1.6660   -0.0434   -1.7354 C   0  0  0  0  0  0  0  0  0  0  0  0
    2.8847    0.1624   -2.3256 N   0  0  0  0  0  0  0  0  0  0  0  0
    4.5035    3.7017   -5.1994 N   0  0  0  0  0  0  0  0  0  0  0  0
  1  6  1  0  0  0  0
  2  1  1  0  0  0  0
  2  3  2  0  0  0  0
  3  4  1  0  0  0  0
  4  5  2  0  0  0  0
  4 12  1  0  0  0  0
  5  8  1  0  0  0  0
  6  7  2  0  0  0  0
  6  5  1  0  0  0  0
  8 11  2  0  0  0  0
  8  9  1  0  0  0  0
 10  9  1  0  0  0  0
 12 11  1  0  0  0  0
 13  2  1  0  0  0  0
M  END
>  <CHROM.1>
164.30873615,83.39361688,1.81386344,1.88494198,-3.05487075,0.82113630,0.28790172
-0.56234878

>  <Name>
lig.pdb

>  <RI>
4.15415e+07

>  <Rbt.Current_Directory>
/home/itssahil/PROJECTS/Mol_Feturizer/New_Systems/rnas/2l1v

>  <Rbt.Executable>
rbdock ($Id: //depot/dev/client3/rdock/2013.1/src/exe/rbdock.cxx#4 $)

>  <Rbt.Library>
libRbt.so (2013.1, Build901 2013/11/27)

>  <Rbt.Parameter_File>
/export/apps/rDock/src/rDock_2013.1_src/data/scripts/dock_solv.prm

>  <Rbt.Receptor>
prm/blind_docking_60.prm

>  <SCORE>
-59.5891

>  <SCORE.INTER>
-61.0425

>  <SCORE.INTER.CONST>
1

>  <SCORE.INTER.POLAR>
-5.99632

>  <SCORE.INTER.ROT>
2

>  <SCORE.INTER.SOLV>
17.2357

>  <SCORE.INTER.VDW>
-31.3858

>  <SCORE.INTER.norm>
-4.69558

>  <SCORE.INTRA>
1.38705

>  <SCORE.INTRA.DIHEDRAL>
0.326072

>  <SCORE.INTRA.DIHEDRAL.0>
1.43995

>  <SCORE.INTRA.POLAR>
0.272593

>  <SCORE.INTRA.POLAR.0>
-0.272593

>  <SCORE.INTRA.REPUL>
0

>  <SCORE.INTRA.REPUL.0>
0

>  <SCORE.INTRA.SOLV>
-0.502568

>  <SCORE.INTRA.SOLV.lig_0>
-22.6728

>  <SCORE.INTRA.VDW>
0.548479

>  <SCORE.INTRA.VDW.0>
-0.754459

>  <SCORE.INTRA.norm>
0.106696

>  <SCORE.RESTR>
0.0663104

>  <SCORE.RESTR.CAVITY>
0.0663104

>  <SCORE.RESTR.norm>
0.0051008

>  <SCORE.SYSTEM>
0

>  <SCORE.SYSTEM.CONST>
0

>  <SCORE.SYSTEM.DIHEDRAL>
0

>  <SCORE.SYSTEM.SOLV>
0

>  <SCORE.SYSTEM.norm>
0

>  <SCORE.heavy>
13

>  <SCORE.norm>
-4.58378

>  <RMSD>
0.652

$$$$
lig.pdb
 OpenBabel11021811453D
libRbt.so/2013.1/901 2013/11/27
 13 14  0  0  0  0  0  0  0  0999 V2000
    2.2994    3.5943   -4.3252 N   0  0  0  0  0  0  0  0  0  0  0  0
    3.5574    3.0491   -4.4043 C   0  0  0  0  0  0  0  0  0  0  0  0
    3.8399    1.9217   -3.7607 N   0  0  0  0  0  0  0  0  0  0  0  0
    2.8984    1.2719   -3.0086 C   0  0  0  0  0  0  0  0  0  0  0  0
    1.5895    1.8053   -2.8926 C   0  0  0  0  0  0  0  0  0  0  0  0
    1.3026    3.0122   -3.5917 C   0  0  0  0  0  0  0  0  0  0  0  0
    0.1972    3.5207   -3.5435 O   0  0  0  0  0  0  0  0  0  0  0  0
    0.8467    0.9072   -2.0086 C   0  0  0  0  0  0  0  0  0  0  0  0
   -0.5691    1.0765   -1.5276 C   0  0  0  0  0  0  0  0  0  0  0  0
   -1.0724   -0.2061   -1.0165 N   0  0  0  0  0  0  0  0  0  0  0  0
    1.6907   -0.0830   -1.6920 C   0  0  0  0  0  0  0  0  0  0  0  0
    2.9126    0.1310   -2.2728 N   0  0  0  0  0  0  0  0  0  0  0  0
    4.5216    3.6660   -5.1572 N   0  0  0  0  0  0  0  0  0  0  0  0
  1  6  1  0  0  0  0
  2  1  1  0  0  0  0
  2  3  2  0  0  0  0
  3  4  1  0  0  0  0
  4  5  2  0  0  0  0
  4 12  1  0  0  0  0
  5  8  1  0  0  0  0
  6  7  2  0  0  0  0
  6  5  1  0  0  0  0
  8 11  2  0  0  0  0
  8  9  1  0  0  0  0
 10  9  1  0  0  0  0
 12 11  1  0  0  0  0
 13  2  1  0  0  0  0
M  END
>  <CHROM.1>
162.65562214,-98.41044744,1.82958048,1.83667633,-3.02711101,0.82305589,0.27238851
-0.56894894

>  <Name>
lig.pdb

>  <RI>
1.75485e+07

>  <Rbt.Current_Directory>
/home/itssahil/PROJECTS/Mol_Feturizer/New_Systems/rnas/2l1v

>  <Rbt.Executable>
rbdock ($Id: //depot/dev/client3/rdock/2013.1/src/exe/rbdock.cxx#4 $)

>  <Rbt.Library>
libRbt.so (2013.1, Build901 2013/11/27)

>  <Rbt.Parameter_File>
/export/apps/rDock/src/rDock_2013.1_src/data/scripts/dock_solv.prm

>  <Rbt.Receptor>
prm/pocket_docking_4.prm

>  <SCORE>
-59.3408

>  <SCORE.INTER>
-60.866

>  <SCORE.INTER.CONST>
1

>  <SCORE.INTER.POLAR>
-6.05124

>  <SCORE.INTER.ROT>
2

>  <SCORE.INTER.SOLV>
17.0731

>  <SCORE.INTER.VDW>
-31.0309

>  <SCORE.INTER.norm>
-4.682

>  <SCORE.INTRA>
1.48142

>  <SCORE.INTRA.DIHEDRAL>
0.526151

>  <SCORE.INTRA.DIHEDRAL.0>
1.43995

>  <SCORE.INTRA.POLAR>
0.272593

>  <SCORE.INTRA.POLAR.0>
-0.272593

>  <SCORE.INTRA.REPUL>
0

>  <SCORE.INTRA.REPUL.0>
0

>  <SCORE.INTRA.SOLV>
-0.505601

>  <SCORE.INTRA.SOLV.lig_0>
-22.6728

>  <SCORE.INTRA.VDW>
0.544328

>  <SCORE.INTRA.VDW.0>
-0.754459

>  <SCORE.INTRA.norm>
0.113955

>  <SCORE.RESTR>
0.0437294

>  <SCORE.RESTR.CAVITY>
0.0437294

>  <SCORE.RESTR.norm>
0.0033638

>  <SCORE.SYSTEM>
0

>  <SCORE.SYSTEM.CONST>
0

>  <SCORE.SYSTEM.DIHEDRAL>
0

>  <SCORE.SYSTEM.SOLV>
0

>  <SCORE.SYSTEM.norm>
0

>  <SCORE.heavy>
13

>  <SCORE.norm>
-4.56468

>  <RMSD>
0.652

$$$$
lig.pdb
 OpenBabel11021811453D
libRbt.so/2013.1/901 2013/11/27
 13 14  0  0  0  0  0  0  0  0999 V2000
    2.2965    3.5918   -4.3310 N   0  0  0  0  0  0  0  0  0  0  0  0
    3.5555    3.0485   -4.4069 C   0  0  0  0  0  0  0  0  0  0  0  0
    3.8392    1.9236   -3.7593 N   0  0  0  0  0  0  0  0  0  0  0  0
    2.8979    1.2746   -3.0063 C   0  0  0  0  0  0  0  0  0  0  0  0
    1.5879    1.8061   -2.8936 C   0  0  0  0  0  0  0  0  0  0  0  0
    1.2998    3.0103   -3.5969 C   0  0  0  0  0  0  0  0  0  0  0  0
    0.1935    3.5171   -3.5516 O   0  0  0  0  0  0  0  0  0  0  0  0
    0.8455    0.9096   -2.0077 C   0  0  0  0  0  0  0  0  0  0  0  0
   -0.5711    1.0779   -1.5290 C   0  0  0  0  0  0  0  0  0  0  0  0
   -1.0693   -0.2013   -1.0048 N   0  0  0  0  0  0  0  0  0  0  0  0
    1.6908   -0.0782   -1.6870 C   0  0  0  0  0  0  0  0  0  0  0  0
    2.9131    0.1360   -2.2669 N   0  0  0  0  0  0  0  0  0  0  0  0
    4.5197    3.6646   -5.1605 N   0  0  0  0  0  0  0  0  0  0  0  0
  1  6  1  0  0  0  0
  2  1  1  0  0  0  0
  2  3  2  0  0  0  0
  3  4  1  0  0  0  0
  4  5  2  0  0  0  0
  4 12  1  0  0  0  0
  5  8  1  0  0  0  0
  6  7  2  0  0  0  0
  6  5  1  0  0  0  0
  8 11  2  0  0  0  0
  8  9  1  0  0  0  0
 10  9  1  0  0  0  0
 12 11  1  0  0  0  0
 13  2  1  0  0  0  0
M  END
>  <CHROM.1>
163.09285177,80.07686853,1.82873093,1.83752858,-3.02718499,0.82463495,0.27099794
-0.57271320

>  <Name>
lig.pdb

>  <RI>
4.15415e+07

>  <Rbt.Current_Directory>
/home/itssahil/PROJECTS/Mol_Feturizer/New_Systems/rnas/2l1v

>  <Rbt.Executable>
rbdock ($Id: //depot/dev/client3/rdock/2013.1/src/exe/rbdock.cxx#4 $)

>  <Rbt.Library>
libRbt.so (2013.1, Build901 2013/11/27)

>  <Rbt.Parameter_File>
/export/apps/rDock/src/rDock_2013.1_src/data/scripts/dock_solv.prm

>  <Rbt.Receptor>
prm/blind_docking_60.prm

>  <SCORE>
-59.4371

>  <SCORE.INTER>
-60.8969

>  <SCORE.INTER.CONST>
1

>  <SCORE.INTER.POLAR>
-6.04087

>  <SCORE.INTER.ROT>
2

>  <SCORE.INTER.SOLV>
17.0572

>  <SCORE.INTER.VDW>
-31.0808

>  <SCORE.INTER.norm>
-4.68438

>  <SCORE.INTRA>
1.41247

>  <SCORE.INTRA.DIHEDRAL>
0.385111

>  <SCORE.INTRA.DIHEDRAL.0>
1.43995

>  <SCORE.INTRA.POLAR>
0.272593

>  <SCORE.INTRA.POLAR.0>
-0.272593

>  <SCORE.INTRA.REPUL>
0

>  <SCORE.INTRA.REPUL.0>
0

>  <SCORE.INTRA.SOLV>
-0.503615

>  <SCORE.INTRA.SOLV.lig_0>
-22.6728

>  <SCORE.INTRA.VDW>
0.544908

>  <SCORE.INTRA.VDW.0>
-0.754459

>  <SCORE.INTRA.norm>
0.108652

>  <SCORE.RESTR>
0.04736

>  <SCORE.RESTR.CAVITY>
0.04736

>  <SCORE.RESTR.norm>
0.00364308

>  <SCORE.SYSTEM>
0

>  <SCORE.SYSTEM.CONST>
0

>  <SCORE.SYSTEM.DIHEDRAL>
0

>  <SCORE.SYSTEM.SOLV>
0

>  <SCORE.SYSTEM.norm>
0

>  <SCORE.heavy>
13

>  <SCORE.norm>
-4.57208

>  <RMSD>
0.653

$$$$
lig.pdb
 OpenBabel11021811453D
libRbt.so/2013.1/901 2013/11/27
 13 14  0  0  0  0  0  0  0  0999 V2000
    2.2882    3.5845   -4.3350 N   0  0  0  0  0  0  0  0  0  0  0  0
    3.5460    3.0380   -4.4082 C   0  0  0  0  0  0  0  0  0  0  0  0
    3.8258    1.9130   -3.7594 N   0  0  0  0  0  0  0  0  0  0  0  0
    2.8815    1.2667   -3.0077 C   0  0  0  0  0  0  0  0  0  0  0  0
    1.5727    1.8015   -2.8977 C   0  0  0  0  0  0  0  0  0  0  0  0
    1.2887    3.0060   -3.6023 C   0  0  0  0  0  0  0  0  0  0  0  0
    0.1837    3.5155   -3.5593 O   0  0  0  0  0  0  0  0  0  0  0  0
    0.8265    0.9074   -2.0125 C   0  0  0  0  0  0  0  0  0  0  0  0
   -0.5906    1.0795   -1.5364 C   0  0  0  0  0  0  0  0  0  0  0  0
   -1.0853   -0.1925   -0.9918 N   0  0  0  0  0  0  0  0  0  0  0  0
    1.6688   -0.0822   -1.6896 C   0  0  0  0  0  0  0  0  0  0  0  0
    2.8926    0.1286   -2.2675 N   0  0  0  0  0  0  0  0  0  0  0  0
    4.5130    3.6513   -5.1605 N   0  0  0  0  0  0  0  0  0  0  0  0
  1  6  1  0  0  0  0
  2  1  1  0  0  0  0
  2  3  2  0  0  0  0
  3  4  1  0  0  0  0
  4  5  2  0  0  0  0
  4 12  1  0  0  0  0
  5  8  1  0  0  0  0
  6  7  2  0  0  0  0
  6  5  1  0  0  0  0
  8 11  2  0  0  0  0
  8  9  1  0  0  0  0
 10  9  1  0  0  0  0
 12 11  1  0  0  0  0
 13  2  1  0  0  0  0
M  END
>  <CHROM.1>
164.02330126,81.85964668,1.81449514,1.83281140,-3.02889513,0.82235166,0.27232317
-0.57345077

>  <Name>
lig.pdb

>  <RI>
4.15415e+07

>  <Rbt.Current_Directory>
/home/itssahil/PROJECTS/Mol_Feturizer/New_Systems/rnas/2l1v

>  <Rbt.Executable>
rbdock ($Id: //depot/dev/client3/rdock/2013.1/src/exe/rbdock.cxx#4 $)

>  <Rbt.Library>
libRbt.so (2013.1, Build901 2013/11/27)

>  <Rbt.Parameter_File>
/export/apps/rDock/src/rDock_2013.1_src/data/scripts/dock_solv.prm

>  <Rbt.Receptor>
prm/blind_docking_60.prm

>  <SCORE>
-59.4774

>  <SCORE.INTER>
-60.9249

>  <SCORE.INTER.CONST>
1

>  <SCORE.INTER.POLAR>
-6.01501

>  <SCORE.INTER.ROT>
2

>  <SCORE.INTER.SOLV>
17.0548

>  <SCORE.INTER.VDW>
-31.1848

>  <SCORE.INTER.norm>
-4.68653

>  <SCORE.INTRA>
1.39378

>  <SCORE.INTRA.DIHEDRAL>
0.340415

>  <SCORE.INTRA.DIHEDRAL.0>
1.43995

>  <SCORE.INTRA.POLAR>
0.272593

>  <SCORE.INTRA.POLAR.0>
-0.272593

>  <SCORE.INTRA.REPUL>
0

>  <SCORE.INTRA.REPUL.0>
0

>  <SCORE.INTRA.SOLV>
-0.502789

>  <SCORE.INTRA.SOLV.lig_0>
-22.6728

>  <SCORE.INTRA.VDW>
0.548148

>  <SCORE.INTRA.VDW.0>
-0.754459

>  <SCORE.INTRA.norm>
0.107213

>  <SCORE.RESTR>
0.0537394

>  <SCORE.RESTR.CAVITY>
0.0537394

>  <SCORE.RESTR.norm>
0.0041338

>  <SCORE.SYSTEM>
0

>  <SCORE.SYSTEM.CONST>
0

>  <SCORE.SYSTEM.DIHEDRAL>
0

>  <SCORE.SYSTEM.SOLV>
0

>  <SCORE.SYSTEM.norm>
0

>  <SCORE.heavy>
13

>  <SCORE.norm>
-4.57518

>  <RMSD>
0.653

$$$$
lig.pdb
 OpenBabel11021811453D
libRbt.so/2013.1/901 2013/11/27
 13 14  0  0  0  0  0  0  0  0999 V2000
    2.2664    3.6141   -4.3591 N   0  0  0  0  0  0  0  0  0  0  0  0
    3.5042    3.0219   -4.4186 C   0  0  0  0  0  0  0  0  0  0  0  0
    3.7336    1.8843   -3.7720 N   0  0  0  0  0  0  0  0  0  0  0  0
    2.7563    1.2698   -3.0361 C   0  0  0  0  0  0  0  0  0  0  0  0
    1.4667    1.8520   -2.9405 C   0  0  0  0  0  0  0  0  0  0  0  0
    1.2367    3.0693   -3.6426 C   0  0  0  0  0  0  0  0  0  0  0  0
    0.1507    3.6191   -3.6115 O   0  0  0  0  0  0  0  0  0  0  0  0
    0.6764    0.9819   -2.0699 C   0  0  0  0  0  0  0  0  0  0  0  0
   -0.7396    1.2039   -1.6115 C   0  0  0  0  0  0  0  0  0  0  0  0
   -1.2959   -0.0571   -1.1018 N   0  0  0  0  0  0  0  0  0  0  0  0
    1.4773   -0.0396   -1.7411 C   0  0  0  0  0  0  0  0  0  0  0  0
    2.7156    0.1286   -2.3017 N   0  0  0  0  0  0  0  0  0  0  0  0
    4.5030    3.6027   -5.1550 N   0  0  0  0  0  0  0  0  0  0  0  0
  1  6  1  0  0  0  0
  2  1  1  0  0  0  0
  2  3  2  0  0  0  0
  3  4  1  0  0  0  0
  4  5  2  0  0  0  0
  4 12  1  0  0  0  0
  5  8  1  0  0  0  0
  6  7  2  0  0  0  0
  6  5  1  0  0  0  0
  8 11  2  0  0  0  0
  8  9  1  0  0  0  0
 10  9  1  0  0  0  0
 12 11  1  0  0  0  0
 13  2  1  0  0  0  0
M  END
>  <CHROM.1>
163.04250047,87.35616050,1.71049902,1.87441553,-3.07042023,0.78168540,0.27972914
-0.55649684

>  <Name>
lig.pdb

>  <RI>
0

>  <Rbt.Current_Directory>
/home/itssahil/PROJECTS/Mol_Feturizer/New_Systems/rnas/2l1v

>  <Rbt.Executable>
rbdock ($Id: //depot/dev/client3/rdock/2013.1/src/exe/rbdock.cxx#4 $)

>  <Rbt.Library>
libRbt.so (2013.1, Build901 2013/11/27)

>  <Rbt.Parameter_File>
/export/apps/rDock/src/rDock_2013.1_src/data/scripts/dock_solv.prm

>  <Rbt.Receptor>
prm/pocket_docking_3.prm

>  <SCORE>
-59.526

>  <SCORE.INTER>
-60.9502

>  <SCORE.INTER.CONST>
1

>  <SCORE.INTER.POLAR>
-5.93608

>  <SCORE.INTER.ROT>
2

>  <SCORE.INTER.SOLV>
17.4039

>  <SCORE.INTER.VDW>
-31.5812

>  <SCORE.INTER.norm>
-4.68848

>  <SCORE.INTRA>
1.40515

>  <SCORE.INTRA.DIHEDRAL>
0.380652

>  <SCORE.INTRA.DIHEDRAL.0>
1.43995

>  <SCORE.INTRA.POLAR>
0.272593

>  <SCORE.INTRA.POLAR.0>
-0.272593

>  <SCORE.INTRA.REPUL>
0

>  <SCORE.INTRA.REPUL.0>
0

>  <SCORE.INTRA.SOLV>
-0.503852

>  <SCORE.INTRA.SOLV.lig_0>
-22.6728

>  <SCORE.INTRA.VDW>
0.539933

>  <SCORE.INTRA.VDW.0>
-0.754459

>  <SCORE.INTRA.norm>
0.108088

>  <SCORE.RESTR>
0.0190934

>  <SCORE.RESTR.CAVITY>
0.0190934

>  <SCORE.RESTR.norm>
0.00146872

>  <SCORE.SYSTEM>
0

>  <SCORE.SYSTEM.CONST>
0

>  <SCORE.SYSTEM.DIHEDRAL>
0

>  <SCORE.SYSTEM.SOLV>
0

>  <SCORE.SYSTEM.norm>
0

>  <SCORE.heavy>
13

>  <SCORE.norm>
-4.57892

>  <RMSD>
0.653

$$$$
lig.pdb
 OpenBabel11021811453D
libRbt.so/2013.1/901 2013/11/27
 13 14  0  0  0  0  0  0  0  0999 V2000
    2.2860    3.5933   -4.3333 N   0  0  0  0  0  0  0  0  0  0  0  0
    3.5406    3.0393   -4.4065 C   0  0  0  0  0  0  0  0  0  0  0  0
    3.8125    1.9103   -3.7611 N   0  0  0  0  0  0  0  0  0  0  0  0
    2.8631    1.2675   -3.0128 C   0  0  0  0  0  0  0  0  0  0  0  0
    1.5575    1.8100   -2.9029 C   0  0  0  0  0  0  0  0  0  0  0  0
    1.2820    3.0185   -3.6039 C   0  0  0  0  0  0  0  0  0  0  0  0
    0.1800    3.5347   -3.5608 O   0  0  0  0  0  0  0  0  0  0  0  0
    0.8045    0.9176   -2.0217 C   0  0  0  0  0  0  0  0  0  0  0  0
   -0.6122    1.0970   -1.5470 C   0  0  0  0  0  0  0  0  0  0  0  0
   -1.1153   -0.1736   -1.0067 N   0  0  0  0  0  0  0  0  0  0  0  0
    1.6402   -0.0782   -1.7009 C   0  0  0  0  0  0  0  0  0  0  0  0
    2.8661    0.1269   -2.2764 N   0  0  0  0  0  0  0  0  0  0  0  0
    4.5124    3.6491   -5.1555 N   0  0  0  0  0  0  0  0  0  0  0  0
  1  6  1  0  0  0  0
  2  1  1  0  0  0  0
  2  3  2  0  0  0  0
  3  4  1  0  0  0  0
  4  5  2  0  0  0  0
  4 12  1  0  0  0  0
  5  8  1  0  0  0  0
  6  7  2  0  0  0  0
  6  5  1  0  0  0  0
  8 11  2  0  0  0  0
  8  9  1  0  0  0  0
 10  9  1  0  0  0  0
 12 11  1  0  0  0  0
 13  2  1  0  0  0  0
M  END
>  <CHROM.1>
164.05311676,82.10884101,1.79969271,1.84025570,-3.03360363,0.81617011,0.27454140
-0.56847742

>  <Name>
lig.pdb

>  <RI>
1.75485e+07

>  <Rbt.Current_Directory>
/home/itssahil/PROJECTS/Mol_Feturizer/New_Systems/rnas/2l1v

>  <Rbt.Executable>
rbdock ($Id: //depot/dev/client3/rdock/2013.1/src/exe/rbdock.cxx#4 $)

>  <Rbt.Library>
libRbt.so (2013.1, Build901 2013/11/27)

>  <Rbt.Parameter_File>
/export/apps/rDock/src/rDock_2013.1_src/data/scripts/dock_solv.prm

>  <Rbt.Receptor>
prm/pocket_docking_4.prm

>  <SCORE>
-59.4841

>  <SCORE.INTER>
-60.933

>  <SCORE.INTER.CONST>
1

>  <SCORE.INTER.POLAR>
-6.01105

>  <SCORE.INTER.ROT>
2

>  <SCORE.INTER.SOLV>
17.1112

>  <SCORE.INTER.VDW>
-31.2222

>  <SCORE.INTER.norm>
-4.68715

>  <SCORE.INTRA>
1.39293

>  <SCORE.INTRA.DIHEDRAL>
0.338782

>  <SCORE.INTRA.DIHEDRAL.0>
1.43995

>  <SCORE.INTRA.POLAR>
0.272593

>  <SCORE.INTRA.POLAR.0>
-0.272593

>  <SCORE.INTRA.REPUL>
0

>  <SCORE.INTRA.REPUL.0>
0

>  <SCORE.INTRA.SOLV>
-0.502769

>  <SCORE.INTRA.SOLV.lig_0>
-22.6728

>  <SCORE.INTRA.VDW>
0.548105

>  <SCORE.INTRA.VDW.0>
-0.754459

>  <SCORE.INTRA.norm>
0.107148

>  <SCORE.RESTR>
0.0559211

>  <SCORE.RESTR.CAVITY>
0.0559211

>  <SCORE.RESTR.norm>
0.00430162

>  <SCORE.SYSTEM>
0

>  <SCORE.SYSTEM.CONST>
0

>  <SCORE.SYSTEM.DIHEDRAL>
0

>  <SCORE.SYSTEM.SOLV>
0

>  <SCORE.SYSTEM.norm>
0

>  <SCORE.heavy>
13

>  <SCORE.norm>
-4.5757

>  <RMSD>
0.653

$$$$
lig.pdb
 OpenBabel11021811453D
libRbt.so/2013.1/901 2013/11/27
 13 14  0  0  0  0  0  0  0  0999 V2000
    2.2555    3.5805   -4.3794 N   0  0  0  0  0  0  0  0  0  0  0  0
    3.5048    3.0114   -4.4189 C   0  0  0  0  0  0  0  0  0  0  0  0
    3.7562    1.9006   -3.7347 N   0  0  0  0  0  0  0  0  0  0  0  0
    2.7906    1.2917   -2.9790 C   0  0  0  0  0  0  0  0  0  0  0  0
    1.4896    1.8510   -2.9032 C   0  0  0  0  0  0  0  0  0  0  0  0
    1.2362    3.0396   -3.6455 C   0  0  0  0  0  0  0  0  0  0  0  0
    0.1394    3.5684   -3.6330 O   0  0  0  0  0  0  0  0  0  0  0  0
    0.7159    0.9949   -2.0043 C   0  0  0  0  0  0  0  0  0  0  0  0
   -0.7046    1.2039   -1.5540 C   0  0  0  0  0  0  0  0  0  0  0  0
   -1.2518   -0.0619   -1.0462 N   0  0  0  0  0  0  0  0  0  0  0  0
    1.5366    0.0010   -1.6414 C   0  0  0  0  0  0  0  0  0  0  0  0
    2.7719    0.1750   -2.2071 N   0  0  0  0  0  0  0  0  0  0  0  0
    4.4926    3.5870   -5.1739 N   0  0  0  0  0  0  0  0  0  0  0  0
  1  6  1  0  0  0  0
  2  1  1  0  0  0  0
  2  3  2  0  0  0  0
  3  4  1  0  0  0  0
  4  5  2  0  0  0  0
  4 12  1  0  0  0  0
  5  8  1  0  0  0  0
  6  7  2  0  0  0  0
  6  5  1  0  0  0  0
  8 11  2  0  0  0  0
  8  9  1  0  0  0  0
 10  9  1  0  0  0  0
 12 11  1  0  0  0  0
 13  2  1  0  0  0  0
M  END
>  <CHROM.1>
161.06874766,-92.15177579,1.73127920,1.87306845,-3.03771483,0.79638811,0.26541161
-0.59257125

>  <Name>
lig.pdb

>  <RI>
0

>  <Rbt.Current_Directory>
/home/itssahil/PROJECTS/Mol_Feturizer/New_Systems/rnas/2l1v

>  <Rbt.Executable>
rbdock ($Id: //depot/dev/client3/rdock/2013.1/src/exe/rbdock.cxx#4 $)

>  <Rbt.Library>
libRbt.so (2013.1, Build901 2013/11/27)

>  <Rbt.Parameter_File>
/export/apps/rDock/src/rDock_2013.1_src/data/scripts/dock_solv.prm

>  <Rbt.Receptor>
prm/pocket_docking_3.prm

>  <SCORE>
-59.5418

>  <SCORE.INTER>
-61.0516

>  <SCORE.INTER.CONST>
1

>  <SCORE.INTER.POLAR>
-5.91168

>  <SCORE.INTER.ROT>
2

>  <SCORE.INTER.SOLV>
17.1472

>  <SCORE.INTER.VDW>
-31.6445

>  <SCORE.INTER.norm>
-4.69627

>  <SCORE.INTRA>
1.50975

>  <SCORE.INTRA.DIHEDRAL>
0.607537

>  <SCORE.INTRA.DIHEDRAL.0>
1.43995

>  <SCORE.INTRA.POLAR>
0.272593

>  <SCORE.INTRA.POLAR.0>
-0.272593

>  <SCORE.INTRA.REPUL>
0

>  <SCORE.INTRA.REPUL.0>
0

>  <SCORE.INTRA.SOLV>
-0.5074

>  <SCORE.INTRA.SOLV.lig_0>
-22.6728

>  <SCORE.INTRA.VDW>
0.532864

>  <SCORE.INTRA.VDW.0>
-0.754459

>  <SCORE.INTRA.norm>
0.116134

>  <SCORE.RESTR>
0

>  <SCORE.RESTR.CAVITY>
0

>  <SCORE.RESTR.norm>
0

>  <SCORE.SYSTEM>
0

>  <SCORE.SYSTEM.CONST>
0

>  <SCORE.SYSTEM.DIHEDRAL>
0

>  <SCORE.SYSTEM.SOLV>
0

>  <SCORE.SYSTEM.norm>
0

>  <SCORE.heavy>
13

>  <SCORE.norm>
-4.58014

>  <RMSD>
0.654

$$$$
lig.pdb
 OpenBabel11021811453D
libRbt.so/2013.1/901 2013/11/27
 13 14  0  0  0  0  0  0  0  0999 V2000
    2.2608    3.5741   -4.3545 N   0  0  0  0  0  0  0  0  0  0  0  0
    3.5111    3.0081   -4.4040 C   0  0  0  0  0  0  0  0  0  0  0  0
    3.7712    1.8990   -3.7203 N   0  0  0  0  0  0  0  0  0  0  0  0
    2.8136    1.2888   -2.9553 C   0  0  0  0  0  0  0  0  0  0  0  0
    1.5120    1.8451   -2.8691 C   0  0  0  0  0  0  0  0  0  0  0  0
    1.2492    3.0318   -3.6109 C   0  0  0  0  0  0  0  0  0  0  0  0
    0.1512    3.5580   -3.5897 O   0  0  0  0  0  0  0  0  0  0  0  0
    0.7482    0.9884   -1.9622 C   0  0  0  0  0  0  0  0  0  0  0  0
   -0.6689    1.1946   -1.4999 C   0  0  0  0  0  0  0  0  0  0  0  0
   -1.2327   -0.0867   -1.0528 N   0  0  0  0  0  0  0  0  0  0  0  0
    1.5745   -0.0029   -1.6050 C   0  0  0  0  0  0  0  0  0  0  0  0
    2.8043    0.1732   -2.1816 N   0  0  0  0  0  0  0  0  0  0  0  0
    4.4909    3.5850   -5.1684 N   0  0  0  0  0  0  0  0  0  0  0  0
  1  6  1  0  0  0  0
  2  1  1  0  0  0  0
  2  3  2  0  0  0  0
  3  4  1  0  0  0  0
  4  5  2  0  0  0  0
  4 12  1  0  0  0  0
  5  8  1  0  0  0  0
  6  7  2  0  0  0  0
  6  5  1  0  0  0  0
  8 11  2  0  0  0  0
  8  9  1  0  0  0  0
 10  9  1  0  0  0  0
 12 11  1  0  0  0  0
 13  2  1  0  0  0  0
M  END
>  <CHROM.1>
158.04399909,-92.53253363,1.75014832,1.86610001,-3.01198429,0.80047176,0.26654881
-0.59324069

>  <Name>
lig.pdb

>  <RI>
2.86608e+07

>  <Rbt.Current_Directory>
/home/itssahil/PROJECTS/Mol_Feturizer/New_Systems/rnas/2l1v

>  <Rbt.Executable>
rbdock ($Id: //depot/dev/client3/rdock/2013.1/src/exe/rbdock.cxx#4 $)

>  <Rbt.Library>
libRbt.so (2013.1, Build901 2013/11/27)

>  <Rbt.Parameter_File>
/export/apps/rDock/src/rDock_2013.1_src/data/scripts/dock_solv.prm

>  <Rbt.Receptor>
prm/pocket_docking_7.prm

>  <SCORE>
-59.5353

>  <SCORE.INTER>
-61.1038

>  <SCORE.INTER.CONST>
1

>  <SCORE.INTER.POLAR>
-5.96624

>  <SCORE.INTER.ROT>
2

>  <SCORE.INTER.SOLV>
17.0619

>  <SCORE.INTER.VDW>
-31.4691

>  <SCORE.INTER.norm>
-4.7003

>  <SCORE.INTRA>
1.56858

>  <SCORE.INTRA.DIHEDRAL>
0.763747

>  <SCORE.INTRA.DIHEDRAL.0>
1.43995

>  <SCORE.INTRA.POLAR>
0.272593

>  <SCORE.INTRA.POLAR.0>
-0.272593

>  <SCORE.INTRA.REPUL>
0

>  <SCORE.INTRA.REPUL.0>
0

>  <SCORE.INTRA.SOLV>
-0.51075

>  <SCORE.INTRA.SOLV.lig_0>
-22.6728

>  <SCORE.INTRA.VDW>
0.515268

>  <SCORE.INTRA.VDW.0>
-0.754459

>  <SCORE.INTRA.norm>
0.12066

>  <SCORE.RESTR>
0

>  <SCORE.RESTR.CAVITY>
0

>  <SCORE.RESTR.norm>
0

>  <SCORE.SYSTEM>
0

>  <SCORE.SYSTEM.CONST>
0

>  <SCORE.SYSTEM.DIHEDRAL>
0

>  <SCORE.SYSTEM.SOLV>
0

>  <SCORE.SYSTEM.norm>
0

>  <SCORE.heavy>
13

>  <SCORE.norm>
-4.57964

>  <RMSD>
0.654

$$$$
lig.pdb
 OpenBabel11021811453D
libRbt.so/2013.1/901 2013/11/27
 13 14  0  0  0  0  0  0  0  0999 V2000
    2.2931    3.5960   -4.3186 N   0  0  0  0  0  0  0  0  0  0  0  0
    3.5456    3.0395   -4.4051 C   0  0  0  0  0  0  0  0  0  0  0  0
    3.8206    1.9074   -3.7666 N   0  0  0  0  0  0  0  0  0  0  0  0
    2.8764    1.2636   -3.0126 C   0  0  0  0  0  0  0  0  0  0  0  0
    1.5730    1.8086   -2.8890 C   0  0  0  0  0  0  0  0  0  0  0  0
    1.2942    3.0206   -3.5827 C   0  0  0  0  0  0  0  0  0  0  0  0
    0.1938    3.5391   -3.5279 O   0  0  0  0  0  0  0  0  0  0  0  0
    0.8258    0.9144   -2.0048 C   0  0  0  0  0  0  0  0  0  0  0  0
   -0.5862    1.0950   -1.5170 C   0  0  0  0  0  0  0  0  0  0  0  0
   -1.0941   -0.1813   -0.9949 N   0  0  0  0  0  0  0  0  0  0  0  0
    1.6620   -0.0846   -1.6954 C   0  0  0  0  0  0  0  0  0  0  0  0
    2.8833    0.1201   -2.2808 N   0  0  0  0  0  0  0  0  0  0  0  0
    4.5122    3.6501   -5.1601 N   0  0  0  0  0  0  0  0  0  0  0  0
  1  6  1  0  0  0  0
  2  1  1  0  0  0  0
  2  3  2  0  0  0  0
  3  4  1  0  0  0  0
  4  5  2  0  0  0  0
  4 12  1  0  0  0  0
  5  8  1  0  0  0  0
  6  7  2  0  0  0  0
  6  5  1  0  0  0  0
  8 11  2  0  0  0  0
  8  9  1  0  0  0  0
 10  9  1  0  0  0  0
 12 11  1  0  0  0  0
 13  2  1  0  0  0  0
M  END
>  <CHROM.1>
163.25360783,81.57069678,1.81354591,1.83842226,-3.02337106,0.81836032,0.28193099
-0.56446874

>  <Name>
lig.pdb

>  <RI>
4.15415e+07

>  <Rbt.Current_Directory>
/home/itssahil/PROJECTS/Mol_Feturizer/New_Systems/rnas/2l1v

>  <Rbt.Executable>
rbdock ($Id: //depot/dev/client3/rdock/2013.1/src/exe/rbdock.cxx#4 $)

>  <Rbt.Library>
libRbt.so (2013.1, Build901 2013/11/27)

>  <Rbt.Parameter_File>
/export/apps/rDock/src/rDock_2013.1_src/data/scripts/dock_solv.prm

>  <Rbt.Receptor>
prm/blind_docking_60.prm

>  <SCORE>
-59.4364

>  <SCORE.INTER>
-60.8899

>  <SCORE.INTER.CONST>
1

>  <SCORE.INTER.POLAR>
-6.01894

>  <SCORE.INTER.ROT>
2

>  <SCORE.INTER.SOLV>
17.0763

>  <SCORE.INTER.VDW>
-31.1556

>  <SCORE.INTER.norm>
-4.68384

>  <SCORE.INTRA>
1.40727

>  <SCORE.INTRA.DIHEDRAL>
0.375571

>  <SCORE.INTRA.DIHEDRAL.0>
1.43995

>  <SCORE.INTRA.POLAR>
0.272593

>  <SCORE.INTRA.POLAR.0>
-0.272593

>  <SCORE.INTRA.REPUL>
0

>  <SCORE.INTRA.REPUL.0>
0

>  <SCORE.INTRA.SOLV>
-0.503508

>  <SCORE.INTRA.SOLV.lig_0>
-22.6728

>  <SCORE.INTRA.VDW>
0.544424

>  <SCORE.INTRA.VDW.0>
-0.754459

>  <SCORE.INTRA.norm>
0.108252

>  <SCORE.RESTR>
0.0462793

>  <SCORE.RESTR.CAVITY>
0.0462793

>  <SCORE.RESTR.norm>
0.00355995

>  <SCORE.SYSTEM>
0

>  <SCORE.SYSTEM.CONST>
0

>  <SCORE.SYSTEM.DIHEDRAL>
0

>  <SCORE.SYSTEM.SOLV>
0

>  <SCORE.SYSTEM.norm>
0

>  <SCORE.heavy>
13

>  <SCORE.norm>
-4.57203

>  <RMSD>
0.655

$$$$
lig.pdb
 OpenBabel11021811453D
libRbt.so/2013.1/901 2013/11/27
 13 14  0  0  0  0  0  0  0  0999 V2000
    2.2724    3.5794   -4.3272 N   0  0  0  0  0  0  0  0  0  0  0  0
    3.5225    3.0146   -4.3934 C   0  0  0  0  0  0  0  0  0  0  0  0
    3.7859    1.8925   -3.7326 N   0  0  0  0  0  0  0  0  0  0  0  0
    2.8319    1.2674   -2.9753 C   0  0  0  0  0  0  0  0  0  0  0  0
    1.5306    1.8216   -2.8723 C   0  0  0  0  0  0  0  0  0  0  0  0
    1.2642    3.0225   -3.5897 C   0  0  0  0  0  0  0  0  0  0  0  0
    0.1663    3.5479   -3.5532 O   0  0  0  0  0  0  0  0  0  0  0  0
    0.7711    0.9473   -1.9787 C   0  0  0  0  0  0  0  0  0  0  0  0
   -0.6439    1.1442   -1.5060 C   0  0  0  0  0  0  0  0  0  0  0  0
   -1.1852   -0.1346   -1.0252 N   0  0  0  0  0  0  0  0  0  0  0  0
    1.5991   -0.0506   -1.6446 C   0  0  0  0  0  0  0  0  0  0  0  0
    2.8263    0.1370   -2.2233 N   0  0  0  0  0  0  0  0  0  0  0  0
    4.4987    3.6065   -5.1509 N   0  0  0  0  0  0  0  0  0  0  0  0
  1  6  1  0  0  0  0
  2  1  1  0  0  0  0
  2  3  2  0  0  0  0
  3  4  1  0  0  0  0
  4  5  2  0  0  0  0
  4 12  1  0  0  0  0
  5  8  1  0  0  0  0
  6  7  2  0  0  0  0
  6  5  1  0  0  0  0
  8 11  2  0  0  0  0
  8  9  1  0  0  0  0
 10  9  1  0  0  0  0
 12 11  1  0  0  0  0
 13  2  1  0  0  0  0
M  END
>  <CHROM.1>
160.55402623,-93.32395555,1.77000124,1.84650119,-3.01058199,0.80582937,0.27408088
-0.57687601

>  <Name>
lig.pdb

>  <RI>
4.15415e+07

>  <Rbt.Current_Directory>
/home/itssahil/PROJECTS/Mol_Feturizer/New_Systems/rnas/2l1v

>  <Rbt.Executable>
rbdock ($Id: //depot/dev/client3/rdock/2013.1/src/exe/rbdock.cxx#4 $)

>  <Rbt.Library>
libRbt.so (2013.1, Build901 2013/11/27)

>  <Rbt.Parameter_File>
/export/apps/rDock/src/rDock_2013.1_src/data/scripts/dock_solv.prm

>  <Rbt.Receptor>
prm/blind_docking_60.prm

>  <SCORE>
-59.4589

>  <SCORE.INTER>
-61.04

>  <SCORE.INTER.CONST>
1

>  <SCORE.INTER.POLAR>
-6.00826

>  <SCORE.INTER.ROT>
2

>  <SCORE.INTER.SOLV>
17.0521

>  <SCORE.INTER.VDW>
-31.2831

>  <SCORE.INTER.norm>
-4.69538

>  <SCORE.INTRA>
1.51959

>  <SCORE.INTRA.DIHEDRAL>
0.632893

>  <SCORE.INTRA.DIHEDRAL.0>
1.43995

>  <SCORE.INTRA.POLAR>
0.272593

>  <SCORE.INTRA.POLAR.0>
-0.272593

>  <SCORE.INTRA.REPUL>
0

>  <SCORE.INTRA.REPUL.0>
0

>  <SCORE.INTRA.SOLV>
-0.507918

>  <SCORE.INTRA.SOLV.lig_0>
-22.6728

>  <SCORE.INTRA.VDW>
0.530288

>  <SCORE.INTRA.VDW.0>
-0.754459

>  <SCORE.INTRA.norm>
0.116892

>  <SCORE.RESTR>
0.061461

>  <SCORE.RESTR.CAVITY>
0.061461

>  <SCORE.RESTR.norm>
0.00472777

>  <SCORE.SYSTEM>
0

>  <SCORE.SYSTEM.CONST>
0

>  <SCORE.SYSTEM.DIHEDRAL>
0

>  <SCORE.SYSTEM.SOLV>
0

>  <SCORE.SYSTEM.norm>
0

>  <SCORE.heavy>
13

>  <SCORE.norm>
-4.57376

>  <RMSD>
0.656

$$$$
lig.pdb
 OpenBabel11021811453D
libRbt.so/2013.1/901 2013/11/27
 13 14  0  0  0  0  0  0  0  0999 V2000
    2.2622    3.5787   -4.3768 N   0  0  0  0  0  0  0  0  0  0  0  0
    3.5159    3.0184   -4.4036 C   0  0  0  0  0  0  0  0  0  0  0  0
    3.7707    1.9147   -3.7094 N   0  0  0  0  0  0  0  0  0  0  0  0
    2.8044    1.3044   -2.9557 C   0  0  0  0  0  0  0  0  0  0  0  0
    1.4989    1.8547   -2.8929 C   0  0  0  0  0  0  0  0  0  0  0  0
    1.2419    3.0358   -3.6457 C   0  0  0  0  0  0  0  0  0  0  0  0
    0.1412    3.5566   -3.6446 O   0  0  0  0  0  0  0  0  0  0  0  0
    0.7253    0.9996   -1.9928 C   0  0  0  0  0  0  0  0  0  0  0  0
   -0.6998    1.2016   -1.5537 C   0  0  0  0  0  0  0  0  0  0  0  0
   -1.2520   -0.0720   -1.0716 N   0  0  0  0  0  0  0  0  0  0  0  0
    1.5507    0.0145   -1.6170 C   0  0  0  0  0  0  0  0  0  0  0  0
    2.7885    0.1933   -2.1756 N   0  0  0  0  0  0  0  0  0  0  0  0
    4.5046    3.5956   -5.1562 N   0  0  0  0  0  0  0  0  0  0  0  0
  1  6  1  0  0  0  0
  2  1  1  0  0  0  0
  2  3  2  0  0  0  0
  3  4  1  0  0  0  0
  4  5  2  0  0  0  0
  4 12  1  0  0  0  0
  5  8  1  0  0  0  0
  6  7  2  0  0  0  0
  6  5  1  0  0  0  0
  8 11  2  0  0  0  0
  8  9  1  0  0  0  0
 10  9  1  0  0  0  0
 12 11  1  0  0  0  0
 13  2  1  0  0  0  0
M  END
>  <CHROM.1>
159.65642441,84.75107983,1.74057538,1.87661760,-3.02892634,0.79770962,0.25336444
-0.59936356

>  <Name>
lig.pdb

>  <RI>
1.459e+07

>  <Rbt.Current_Directory>
/home/itssahil/PROJECTS/Mol_Feturizer/New_Systems/rnas/2l1v

>  <Rbt.Executable>
rbdock ($Id: //depot/dev/client3/rdock/2013.1/src/exe/rbdock.cxx#4 $)

>  <Rbt.Library>
libRbt.so (2013.1, Build901 2013/11/27)

>  <Rbt.Parameter_File>
/export/apps/rDock/src/rDock_2013.1_src/data/scripts/dock_solv.prm

>  <Rbt.Receptor>
prm/pocket_docking_2.prm

>  <SCORE>
-59.5707

>  <SCORE.INTER>
-61.0402

>  <SCORE.INTER.CONST>
1

>  <SCORE.INTER.POLAR>
-5.96597

>  <SCORE.INTER.ROT>
2

>  <SCORE.INTER.SOLV>
17.1169

>  <SCORE.INTER.VDW>
-31.4459

>  <SCORE.INTER.norm>
-4.6954

>  <SCORE.INTRA>
1.46954

>  <SCORE.INTRA.DIHEDRAL>
0.548166

>  <SCORE.INTRA.DIHEDRAL.0>
1.43995

>  <SCORE.INTRA.POLAR>
0.272593

>  <SCORE.INTRA.POLAR.0>
-0.272593

>  <SCORE.INTRA.REPUL>
0

>  <SCORE.INTRA.REPUL.0>
0

>  <SCORE.INTRA.SOLV>
-0.507319

>  <SCORE.INTRA.SOLV.lig_0>
-22.6728

>  <SCORE.INTRA.VDW>
0.522302

>  <SCORE.INTRA.VDW.0>
-0.754459

>  <SCORE.INTRA.norm>
0.113042

>  <SCORE.RESTR>
0

>  <SCORE.RESTR.CAVITY>
0

>  <SCORE.RESTR.norm>
0

>  <SCORE.SYSTEM>
0

>  <SCORE.SYSTEM.CONST>
0

>  <SCORE.SYSTEM.DIHEDRAL>
0

>  <SCORE.SYSTEM.SOLV>
0

>  <SCORE.SYSTEM.norm>
0

>  <SCORE.heavy>
13

>  <SCORE.norm>
-4.58236

>  <RMSD>
0.656

$$$$
lig.pdb
 OpenBabel11021811453D
libRbt.so/2013.1/901 2013/11/27
 13 14  0  0  0  0  0  0  0  0999 V2000
    2.2680    3.5704   -4.3414 N   0  0  0  0  0  0  0  0  0  0  0  0
    3.5225    3.0146   -4.3998 C   0  0  0  0  0  0  0  0  0  0  0  0
    3.7942    1.9031   -3.7247 N   0  0  0  0  0  0  0  0  0  0  0  0
    2.8447    1.2802   -2.9599 C   0  0  0  0  0  0  0  0  0  0  0  0
    1.5391    1.8256   -2.8646 C   0  0  0  0  0  0  0  0  0  0  0  0
    1.2638    3.0151   -3.5972 C   0  0  0  0  0  0  0  0  0  0  0  0
    0.1619    3.5324   -3.5680 O   0  0  0  0  0  0  0  0  0  0  0  0
    0.7859    0.9568   -1.9603 C   0  0  0  0  0  0  0  0  0  0  0  0
   -0.6308    1.1486   -1.4908 C   0  0  0  0  0  0  0  0  0  0  0  0
   -1.1696   -0.1327   -1.0139 N   0  0  0  0  0  0  0  0  0  0  0  0
    1.6215   -0.0303   -1.6132 C   0  0  0  0  0  0  0  0  0  0  0  0
    2.8475    0.1595   -2.1936 N   0  0  0  0  0  0  0  0  0  0  0  0
    4.4945    3.6044   -5.1643 N   0  0  0  0  0  0  0  0  0  0  0  0
  1  6  1  0  0  0  0
  2  1  1  0  0  0  0
  2  3  2  0  0  0  0
  3  4  1  0  0  0  0
  4  5  2  0  0  0  0
  4 12  1  0  0  0  0
  5  8  1  0  0  0  0
  6  7  2  0  0  0  0
  6  5  1  0  0  0  0
  8 11  2  0  0  0  0
  8  9  1  0  0  0  0
 10  9  1  0  0  0  0
 12 11  1  0  0  0  0
 13  2  1  0  0  0  0
M  END
>  <CHROM.1>
159.66222505,-93.73133061,1.77772204,1.85011601,-3.00490011,0.81138075,0.26798224
-0.59047880

>  <Name>
lig.pdb

>  <RI>
0

>  <Rbt.Current_Directory>
/home/itssahil/PROJECTS/Mol_Feturizer/New_Systems/rnas/2l1v

>  <Rbt.Executable>
rbdock ($Id: //depot/dev/client3/rdock/2013.1/src/exe/rbdock.cxx#4 $)

>  <Rbt.Library>
libRbt.so (2013.1, Build901 2013/11/27)

>  <Rbt.Parameter_File>
/export/apps/rDock/src/rDock_2013.1_src/data/scripts/dock_solv.prm

>  <Rbt.Receptor>
prm/pocket_docking_3.prm

>  <SCORE>
-59.5729

>  <SCORE.INTER>
-61.1096

>  <SCORE.INTER.CONST>
1

>  <SCORE.INTER.POLAR>
-5.99709

>  <SCORE.INTER.ROT>
2

>  <SCORE.INTER.SOLV>
16.9892

>  <SCORE.INTER.VDW>
-31.3458

>  <SCORE.INTER.norm>
-4.70074

>  <SCORE.INTRA>
1.53673

>  <SCORE.INTRA.DIHEDRAL>
0.678168

>  <SCORE.INTRA.DIHEDRAL.0>
1.43995

>  <SCORE.INTRA.POLAR>
0.272593

>  <SCORE.INTRA.POLAR.0>
-0.272593

>  <SCORE.INTRA.REPUL>
0

>  <SCORE.INTRA.REPUL.0>
0

>  <SCORE.INTRA.SOLV>
-0.508877

>  <SCORE.INTRA.SOLV.lig_0>
-22.6728

>  <SCORE.INTRA.VDW>
0.52527

>  <SCORE.INTRA.VDW.0>
-0.754459

>  <SCORE.INTRA.norm>
0.11821

>  <SCORE.RESTR>
0

>  <SCORE.RESTR.CAVITY>
0

>  <SCORE.RESTR.norm>
0

>  <SCORE.SYSTEM>
0

>  <SCORE.SYSTEM.CONST>
0

>  <SCORE.SYSTEM.DIHEDRAL>
0

>  <SCORE.SYSTEM.SOLV>
0

>  <SCORE.SYSTEM.norm>
0

>  <SCORE.heavy>
13

>  <SCORE.norm>
-4.58253

>  <RMSD>
0.656

$$$$
lig.pdb
 OpenBabel11021811453D
libRbt.so/2013.1/901 2013/11/27
 13 14  0  0  0  0  0  0  0  0999 V2000
    2.2606    3.5756   -4.3692 N   0  0  0  0  0  0  0  0  0  0  0  0
    3.5146    3.0164   -4.4022 C   0  0  0  0  0  0  0  0  0  0  0  0
    3.7733    1.9119   -3.7108 N   0  0  0  0  0  0  0  0  0  0  0  0
    2.8107    1.2997   -2.9537 C   0  0  0  0  0  0  0  0  0  0  0  0
    1.5051    1.8490   -2.8844 C   0  0  0  0  0  0  0  0  0  0  0  0
    1.2439    3.0309   -3.6343 C   0  0  0  0  0  0  0  0  0  0  0  0
    0.1429    3.5509   -3.6277 O   0  0  0  0  0  0  0  0  0  0  0  0
    0.7362    0.9920   -1.9821 C   0  0  0  0  0  0  0  0  0  0  0  0
   -0.6871    1.1922   -1.5364 C   0  0  0  0  0  0  0  0  0  0  0  0
   -1.2399   -0.0849   -1.0643 N   0  0  0  0  0  0  0  0  0  0  0  0
    1.5640    0.0070   -1.6113 C   0  0  0  0  0  0  0  0  0  0  0  0
    2.7991    0.1875   -2.1751 N   0  0  0  0  0  0  0  0  0  0  0  0
    4.4995    3.5954   -5.1584 N   0  0  0  0  0  0  0  0  0  0  0  0
  1  6  1  0  0  0  0
  2  1  1  0  0  0  0
  2  3  2  0  0  0  0
  3  4  1  0  0  0  0
  4  5  2  0  0  0  0
  4 12  1  0  0  0  0
  5  8  1  0  0  0  0
  6  7  2  0  0  0  0
  6  5  1  0  0  0  0
  8 11  2  0  0  0  0
  8  9  1  0  0  0  0
 10  9  1  0  0  0  0
 12 11  1  0  0  0  0
 13  2  1  0  0  0  0
M  END
>  <CHROM.1>
159.18221626,-93.14827356,1.74554917,1.87119309,-3.02231161,0.80005239,0.25594184
-0.59834209

>  <Name>
lig.pdb

>  <RI>
0

>  <Rbt.Current_Directory>
/home/itssahil/PROJECTS/Mol_Feturizer/New_Systems/rnas/2l1v

>  <Rbt.Executable>
rbdock ($Id: //depot/dev/client3/rdock/2013.1/src/exe/rbdock.cxx#4 $)

>  <Rbt.Library>
libRbt.so (2013.1, Build901 2013/11/27)

>  <Rbt.Parameter_File>
/export/apps/rDock/src/rDock_2013.1_src/data/scripts/dock_solv.prm

>  <Rbt.Receptor>
prm/pocket_docking_3.prm

>  <SCORE>
-59.5154

>  <SCORE.INTER>
-61.0614

>  <SCORE.INTER.CONST>
1

>  <SCORE.INTER.POLAR>
-5.96885

>  <SCORE.INTER.ROT>
2

>  <SCORE.INTER.SOLV>
17.0889

>  <SCORE.INTER.VDW>
-31.4411

>  <SCORE.INTER.norm>
-4.69703

>  <SCORE.INTRA>
1.54602

>  <SCORE.INTRA.DIHEDRAL>
0.703333

>  <SCORE.INTRA.DIHEDRAL.0>
1.43995

>  <SCORE.INTRA.POLAR>
0.272593

>  <SCORE.INTRA.POLAR.0>
-0.272593

>  <SCORE.INTRA.REPUL>
0

>  <SCORE.INTRA.REPUL.0>
0

>  <SCORE.INTRA.SOLV>
-0.509428

>  <SCORE.INTRA.SOLV.lig_0>
-22.6728

>  <SCORE.INTRA.VDW>
0.522257

>  <SCORE.INTRA.VDW.0>
-0.754459

>  <SCORE.INTRA.norm>
0.118925

>  <SCORE.RESTR>
0

>  <SCORE.RESTR.CAVITY>
0

>  <SCORE.RESTR.norm>
0

>  <SCORE.SYSTEM>
0

>  <SCORE.SYSTEM.CONST>
0

>  <SCORE.SYSTEM.DIHEDRAL>
0

>  <SCORE.SYSTEM.SOLV>
0

>  <SCORE.SYSTEM.norm>
0

>  <SCORE.heavy>
13

>  <SCORE.norm>
-4.57811

>  <RMSD>
0.656

$$$$
lig.pdb
 OpenBabel11021811453D
libRbt.so/2013.1/901 2013/11/27
 13 14  0  0  0  0  0  0  0  0999 V2000
    2.2676    3.5715   -4.3428 N   0  0  0  0  0  0  0  0  0  0  0  0
    3.5214    3.0138   -4.3987 C   0  0  0  0  0  0  0  0  0  0  0  0
    3.7893    1.9004   -3.7253 N   0  0  0  0  0  0  0  0  0  0  0  0
    2.8366    1.2774   -2.9646 C   0  0  0  0  0  0  0  0  0  0  0  0
    1.5316    1.8246   -2.8719 C   0  0  0  0  0  0  0  0  0  0  0  0
    1.2604    3.0162   -3.6028 C   0  0  0  0  0  0  0  0  0  0  0  0
    0.1591    3.5352   -3.5756 O   0  0  0  0  0  0  0  0  0  0  0  0
    0.7744    0.9551   -1.9717 C   0  0  0  0  0  0  0  0  0  0  0  0
   -0.6434    1.1482   -1.5059 C   0  0  0  0  0  0  0  0  0  0  0  0
   -1.1766   -0.1276   -1.0082 N   0  0  0  0  0  0  0  0  0  0  0  0
    1.6074   -0.0341   -1.6243 C   0  0  0  0  0  0  0  0  0  0  0  0
    2.8354    0.1550   -2.2008 N   0  0  0  0  0  0  0  0  0  0  0  0
    4.4965    3.6037   -5.1592 N   0  0  0  0  0  0  0  0  0  0  0  0
  1  6  1  0  0  0  0
  2  1  1  0  0  0  0
  2  3  2  0  0  0  0
  3  4  1  0  0  0  0
  4  5  2  0  0  0  0
  4 12  1  0  0  0  0
  5  8  1  0  0  0  0
  6  7  2  0  0  0  0
  6  5  1  0  0  0  0
  8 11  2  0  0  0  0
  8  9  1  0  0  0  0
 10  9  1  0  0  0  0
 12 11  1  0  0  0  0
 13  2  1  0  0  0  0
M  END
>  <CHROM.1>
160.79217619,84.45094999,1.77182052,1.84946088,-3.00925008,0.80984698,0.26807815
-0.58852834

>  <Name>
lig.pdb

>  <RI>
1.459e+07

>  <Rbt.Current_Directory>
/home/itssahil/PROJECTS/Mol_Feturizer/New_Systems/rnas/2l1v

>  <Rbt.Executable>
rbdock ($Id: //depot/dev/client3/rdock/2013.1/src/exe/rbdock.cxx#4 $)

>  <Rbt.Library>
libRbt.so (2013.1, Build901 2013/11/27)

>  <Rbt.Parameter_File>
/export/apps/rDock/src/rDock_2013.1_src/data/scripts/dock_solv.prm

>  <Rbt.Receptor>
prm/pocket_docking_2.prm

>  <SCORE>
-59.6299

>  <SCORE.INTER>
-61.078

>  <SCORE.INTER.CONST>
1

>  <SCORE.INTER.POLAR>
-5.98686

>  <SCORE.INTER.ROT>
2

>  <SCORE.INTER.SOLV>
17.006

>  <SCORE.INTER.VDW>
-31.3645

>  <SCORE.INTER.norm>
-4.69831

>  <SCORE.INTRA>
1.44813

>  <SCORE.INTRA.DIHEDRAL>
0.490698

>  <SCORE.INTRA.DIHEDRAL.0>
1.43995

>  <SCORE.INTRA.POLAR>
0.272593

>  <SCORE.INTRA.POLAR.0>
-0.272593

>  <SCORE.INTRA.REPUL>
0

>  <SCORE.INTRA.REPUL.0>
0

>  <SCORE.INTRA.SOLV>
-0.506079

>  <SCORE.INTRA.SOLV.lig_0>
-22.6728

>  <SCORE.INTRA.VDW>
0.529004

>  <SCORE.INTRA.VDW.0>
-0.754459

>  <SCORE.INTRA.norm>
0.111394

>  <SCORE.RESTR>
0

>  <SCORE.RESTR.CAVITY>
0

>  <SCORE.RESTR.norm>
0

>  <SCORE.SYSTEM>
0

>  <SCORE.SYSTEM.CONST>
0

>  <SCORE.SYSTEM.DIHEDRAL>
0

>  <SCORE.SYSTEM.SOLV>
0

>  <SCORE.SYSTEM.norm>
0

>  <SCORE.heavy>
13

>  <SCORE.norm>
-4.58691

>  <RMSD>
0.657

$$$$
lig.pdb
 OpenBabel11021811453D
libRbt.so/2013.1/901 2013/11/27
 13 14  0  0  0  0  0  0  0  0999 V2000
    2.2729    3.5763   -4.3269 N   0  0  0  0  0  0  0  0  0  0  0  0
    3.5243    3.0141   -4.3914 C   0  0  0  0  0  0  0  0  0  0  0  0
    3.7905    1.8953   -3.7262 N   0  0  0  0  0  0  0  0  0  0  0  0
    2.8384    1.2711   -2.9659 C   0  0  0  0  0  0  0  0  0  0  0  0
    1.5358    1.8227   -2.8646 C   0  0  0  0  0  0  0  0  0  0  0  0
    1.2664    3.0201   -3.5867 C   0  0  0  0  0  0  0  0  0  0  0  0
    0.1673    3.5431   -3.5518 O   0  0  0  0  0  0  0  0  0  0  0  0
    0.7788    0.9502   -1.9671 C   0  0  0  0  0  0  0  0  0  0  0  0
   -0.6365    1.1458   -1.4945 C   0  0  0  0  0  0  0  0  0  0  0  0
   -1.1811   -0.1363   -1.0265 N   0  0  0  0  0  0  0  0  0  0  0  0
    1.6093   -0.0444   -1.6294 C   0  0  0  0  0  0  0  0  0  0  0  0
    2.8357    0.1437   -2.2094 N   0  0  0  0  0  0  0  0  0  0  0  0
    4.4988    3.6052   -5.1518 N   0  0  0  0  0  0  0  0  0  0  0  0
  1  6  1  0  0  0  0
  2  1  1  0  0  0  0
  2  3  2  0  0  0  0
  3  4  1  0  0  0  0
  4  5  2  0  0  0  0
  4 12  1  0  0  0  0
  5  8  1  0  0  0  0
  6  7  2  0  0  0  0
  6  5  1  0  0  0  0
  8 11  2  0  0  0  0
  8  9  1  0  0  0  0
 10  9  1  0  0  0  0
 12 11  1  0  0  0  0
 13  2  1  0  0  0  0
M  END
>  <CHROM.1>
159.74110838,84.41962435,1.77482038,1.84703207,-3.00487111,0.80767017,0.27183943
-0.58073843

>  <Name>
lig.pdb

>  <RI>
1.75485e+07

>  <Rbt.Current_Directory>
/home/itssahil/PROJECTS/Mol_Feturizer/New_Systems/rnas/2l1v

>  <Rbt.Executable>
rbdock ($Id: //depot/dev/client3/rdock/2013.1/src/exe/rbdock.cxx#4 $)

>  <Rbt.Library>
libRbt.so (2013.1, Build901 2013/11/27)

>  <Rbt.Parameter_File>
/export/apps/rDock/src/rDock_2013.1_src/data/scripts/dock_solv.prm

>  <Rbt.Receptor>
prm/pocket_docking_4.prm

>  <SCORE>
-59.5382

>  <SCORE.INTER>
-61.067

>  <SCORE.INTER.CONST>
1

>  <SCORE.INTER.POLAR>
-6.01882

>  <SCORE.INTER.ROT>
2

>  <SCORE.INTER.SOLV>
17.024

>  <SCORE.INTER.VDW>
-31.2566

>  <SCORE.INTER.norm>
-4.69746

>  <SCORE.INTRA>
1.46822

>  <SCORE.INTRA.DIHEDRAL>
0.544062

>  <SCORE.INTRA.DIHEDRAL.0>
1.43995

>  <SCORE.INTRA.POLAR>
0.272593

>  <SCORE.INTRA.POLAR.0>
-0.272593

>  <SCORE.INTRA.REPUL>
0

>  <SCORE.INTRA.REPUL.0>
0

>  <SCORE.INTRA.SOLV>
-0.507217

>  <SCORE.INTRA.SOLV.lig_0>
-22.6728

>  <SCORE.INTRA.VDW>
0.522987

>  <SCORE.INTRA.VDW.0>
-0.754459

>  <SCORE.INTRA.norm>
0.11294

>  <SCORE.RESTR>
0.0604881

>  <SCORE.RESTR.CAVITY>
0.0604881

>  <SCORE.RESTR.norm>
0.00465293

>  <SCORE.SYSTEM>
0

>  <SCORE.SYSTEM.CONST>
0

>  <SCORE.SYSTEM.DIHEDRAL>
0

>  <SCORE.SYSTEM.SOLV>
0

>  <SCORE.SYSTEM.norm>
0

>  <SCORE.heavy>
13

>  <SCORE.norm>
-4.57986

>  <RMSD>
0.657

$$$$
lig.pdb
 OpenBabel11021811453D
libRbt.so/2013.1/901 2013/11/27
 13 14  0  0  0  0  0  0  0  0999 V2000
    2.2631    3.5764   -4.3451 N   0  0  0  0  0  0  0  0  0  0  0  0
    3.5109    3.0056   -4.4007 C   0  0  0  0  0  0  0  0  0  0  0  0
    3.7680    1.8914   -3.7242 N   0  0  0  0  0  0  0  0  0  0  0  0
    2.8097    1.2806   -2.9607 C   0  0  0  0  0  0  0  0  0  0  0  0
    1.5105    1.8416   -2.8683 C   0  0  0  0  0  0  0  0  0  0  0  0
    1.2509    3.0338   -3.6024 C   0  0  0  0  0  0  0  0  0  0  0  0
    0.1551    3.5642   -3.5757 O   0  0  0  0  0  0  0  0  0  0  0  0
    0.7453    0.9826   -1.9647 C   0  0  0  0  0  0  0  0  0  0  0  0
   -0.6699    1.1918   -1.4980 C   0  0  0  0  0  0  0  0  0  0  0  0
   -1.2290   -0.0850   -1.0325 N   0  0  0  0  0  0  0  0  0  0  0  0
    1.5684   -0.0141   -1.6152 C   0  0  0  0  0  0  0  0  0  0  0  0
    2.7976    0.1605   -2.1935 N   0  0  0  0  0  0  0  0  0  0  0  0
    4.4914    3.5830   -5.1639 N   0  0  0  0  0  0  0  0  0  0  0  0
  1  6  1  0  0  0  0
  2  1  1  0  0  0  0
  2  3  2  0  0  0  0
  3  4  1  0  0  0  0
  4  5  2  0  0  0  0
  4 12  1  0  0  0  0
  5  8  1  0  0  0  0
  6  7  2  0  0  0  0
  6  5  1  0  0  0  0
  8 11  2  0  0  0  0
  8  9  1  0  0  0  0
 10  9  1  0  0  0  0
 12 11  1  0  0  0  0
 13  2  1  0  0  0  0
M  END
>  <CHROM.1>
159.15228997,-92.30291907,1.74930662,1.86294079,-3.00924184,0.79942519,0.27235523
-0.58772577

>  <Name>
lig.pdb

>  <RI>
0

>  <Rbt.Current_Directory>
/home/itssahil/PROJECTS/Mol_Feturizer/New_Systems/rnas/2l1v

>  <Rbt.Executable>
rbdock ($Id: //depot/dev/client3/rdock/2013.1/src/exe/rbdock.cxx#4 $)

>  <Rbt.Library>
libRbt.so (2013.1, Build901 2013/11/27)

>  <Rbt.Parameter_File>
/export/apps/rDock/src/rDock_2013.1_src/data/scripts/dock_solv.prm

>  <Rbt.Receptor>
prm/pocket_docking_3.prm

>  <SCORE>
-59.535

>  <SCORE.INTER>
-61.0815

>  <SCORE.INTER.CONST>
1

>  <SCORE.INTER.POLAR>
-5.96119

>  <SCORE.INTER.ROT>
2

>  <SCORE.INTER.SOLV>
17.0537

>  <SCORE.INTER.VDW>
-31.4683

>  <SCORE.INTER.norm>
-4.69858

>  <SCORE.INTRA>
1.54648

>  <SCORE.INTRA.DIHEDRAL>
0.705152

>  <SCORE.INTRA.DIHEDRAL.0>
1.43995

>  <SCORE.INTRA.POLAR>
0.272593

>  <SCORE.INTRA.POLAR.0>
-0.272593

>  <SCORE.INTRA.REPUL>
0

>  <SCORE.INTRA.REPUL.0>
0

>  <SCORE.INTRA.SOLV>
-0.509483

>  <SCORE.INTRA.SOLV.lig_0>
-22.6728

>  <SCORE.INTRA.VDW>
0.521833

>  <SCORE.INTRA.VDW.0>
-0.754459

>  <SCORE.INTRA.norm>
0.11896

>  <SCORE.RESTR>
0

>  <SCORE.RESTR.CAVITY>
0

>  <SCORE.RESTR.norm>
0

>  <SCORE.SYSTEM>
0

>  <SCORE.SYSTEM.CONST>
0

>  <SCORE.SYSTEM.DIHEDRAL>
0

>  <SCORE.SYSTEM.SOLV>
0

>  <SCORE.SYSTEM.norm>
0

>  <SCORE.heavy>
13

>  <SCORE.norm>
-4.57962

>  <RMSD>
0.658

$$$$
lig.pdb
 OpenBabel11021811453D
libRbt.so/2013.1/901 2013/11/27
 13 14  0  0  0  0  0  0  0  0999 V2000
    2.2713    3.5783   -4.3181 N   0  0  0  0  0  0  0  0  0  0  0  0
    3.5173    3.0054   -4.3933 C   0  0  0  0  0  0  0  0  0  0  0  0
    3.7781    1.8816   -3.7344 N   0  0  0  0  0  0  0  0  0  0  0  0
    2.8255    1.2626   -2.9703 C   0  0  0  0  0  0  0  0  0  0  0  0
    1.5286    1.8252   -2.8580 C   0  0  0  0  0  0  0  0  0  0  0  0
    1.2649    3.0279   -3.5733 C   0  0  0  0  0  0  0  0  0  0  0  0
    0.1708    3.5604   -3.5290 O   0  0  0  0  0  0  0  0  0  0  0  0
    0.7699    0.9557   -1.9590 C   0  0  0  0  0  0  0  0  0  0  0  0
   -0.6403    1.1618   -1.4761 C   0  0  0  0  0  0  0  0  0  0  0  0
   -1.1960   -0.1189   -1.0172 N   0  0  0  0  0  0  0  0  0  0  0  0
    1.5938   -0.0475   -1.6309 C   0  0  0  0  0  0  0  0  0  0  0  0
    2.8180    0.1322   -2.2184 N   0  0  0  0  0  0  0  0  0  0  0  0
    4.4918    3.5910   -5.1578 N   0  0  0  0  0  0  0  0  0  0  0  0
  1  6  1  0  0  0  0
  2  1  1  0  0  0  0
  2  3  2  0  0  0  0
  3  4  1  0  0  0  0
  4  5  2  0  0  0  0
  4 12  1  0  0  0  0
  5  8  1  0  0  0  0
  6  7  2  0  0  0  0
  6  5  1  0  0  0  0
  8 11  2  0  0  0  0
  8  9  1  0  0  0  0
 10  9  1  0  0  0  0
 12 11  1  0  0  0  0
 13  2  1  0  0  0  0
M  END
>  <CHROM.1>
159.39954639,85.46009940,1.76660455,1.84788208,-3.00047104,0.80345158,0.28180326
-0.57523267

>  <Name>
lig.pdb

>  <RI>
1.75485e+07

>  <Rbt.Current_Directory>
/home/itssahil/PROJECTS/Mol_Feturizer/New_Systems/rnas/2l1v

>  <Rbt.Executable>
rbdock ($Id: //depot/dev/client3/rdock/2013.1/src/exe/rbdock.cxx#4 $)

>  <Rbt.Library>
libRbt.so (2013.1, Build901 2013/11/27)

>  <Rbt.Parameter_File>
/export/apps/rDock/src/rDock_2013.1_src/data/scripts/dock_solv.prm

>  <Rbt.Receptor>
prm/pocket_docking_4.prm

>  <SCORE>
-59.5085

>  <SCORE.INTER>
-61.0409

>  <SCORE.INTER.CONST>
1

>  <SCORE.INTER.POLAR>
-5.99596

>  <SCORE.INTER.ROT>
2

>  <SCORE.INTER.SOLV>
17.0304

>  <SCORE.INTER.VDW>
-31.3176

>  <SCORE.INTER.norm>
-4.69545

>  <SCORE.INTRA>
1.47391

>  <SCORE.INTRA.DIHEDRAL>
0.560972

>  <SCORE.INTRA.DIHEDRAL.0>
1.43995

>  <SCORE.INTRA.POLAR>
0.272593

>  <SCORE.INTRA.POLAR.0>
-0.272593

>  <SCORE.INTRA.REPUL>
0

>  <SCORE.INTRA.REPUL.0>
0

>  <SCORE.INTRA.SOLV>
-0.507623

>  <SCORE.INTRA.SOLV.lig_0>
-22.6728

>  <SCORE.INTRA.VDW>
0.520418

>  <SCORE.INTRA.VDW.0>
-0.754459

>  <SCORE.INTRA.norm>
0.113377

>  <SCORE.RESTR>
0.0585037

>  <SCORE.RESTR.CAVITY>
0.0585037

>  <SCORE.RESTR.norm>
0.00450028

>  <SCORE.SYSTEM>
0

>  <SCORE.SYSTEM.CONST>
0

>  <SCORE.SYSTEM.DIHEDRAL>
0

>  <SCORE.SYSTEM.SOLV>
0

>  <SCORE.SYSTEM.norm>
0

>  <SCORE.heavy>
13

>  <SCORE.norm>
-4.57758

>  <RMSD>
0.658

$$$$
lig.pdb
 OpenBabel11021811453D
libRbt.so/2013.1/901 2013/11/27
 13 14  0  0  0  0  0  0  0  0999 V2000
    2.2608    3.5816   -4.3647 N   0  0  0  0  0  0  0  0  0  0  0  0
    3.5093    3.0111   -4.4082 C   0  0  0  0  0  0  0  0  0  0  0  0
    3.7605    1.8979   -3.7279 N   0  0  0  0  0  0  0  0  0  0  0  0
    2.7954    1.2878   -2.9723 C   0  0  0  0  0  0  0  0  0  0  0  0
    1.4952    1.8486   -2.8926 C   0  0  0  0  0  0  0  0  0  0  0  0
    1.2420    3.0397   -3.6306 C   0  0  0  0  0  0  0  0  0  0  0  0
    0.1459    3.5699   -3.6146 O   0  0  0  0  0  0  0  0  0  0  0  0
    0.7220    0.9906   -1.9949 C   0  0  0  0  0  0  0  0  0  0  0  0
   -0.6974    1.2000   -1.5414 C   0  0  0  0  0  0  0  0  0  0  0  0
   -1.2430   -0.0650   -1.0299 N   0  0  0  0  0  0  0  0  0  0  0  0
    1.5421   -0.0054   -1.6366 C   0  0  0  0  0  0  0  0  0  0  0  0
    2.7766    0.1688   -2.2038 N   0  0  0  0  0  0  0  0  0  0  0  0
    4.4965    3.5878   -5.1631 N   0  0  0  0  0  0  0  0  0  0  0  0
  1  6  1  0  0  0  0
  2  1  1  0  0  0  0
  2  3  2  0  0  0  0
  3  4  1  0  0  0  0
  4  5  2  0  0  0  0
  4 12  1  0  0  0  0
  5  8  1  0  0  0  0
  6  7  2  0  0  0  0
  6  5  1  0  0  0  0
  8 11  2  0  0  0  0
  8  9  1  0  0  0  0
 10  9  1  0  0  0  0
 12 11  1  0  0  0  0
 13  2  1  0  0  0  0
M  END
>  <CHROM.1>
161.36922285,-91.83221586,1.73693123,1.87088251,-3.02675454,0.79660296,0.26805831
-0.58972753

>  <Name>
lig.pdb

>  <RI>
1.459e+07

>  <Rbt.Current_Directory>
/home/itssahil/PROJECTS/Mol_Feturizer/New_Systems/rnas/2l1v

>  <Rbt.Executable>
rbdock ($Id: //depot/dev/client3/rdock/2013.1/src/exe/rbdock.cxx#4 $)

>  <Rbt.Library>
libRbt.so (2013.1, Build901 2013/11/27)

>  <Rbt.Parameter_File>
/export/apps/rDock/src/rDock_2013.1_src/data/scripts/dock_solv.prm

>  <Rbt.Receptor>
prm/pocket_docking_2.prm

>  <SCORE>
-59.5289

>  <SCORE.INTER>
-61.033

>  <SCORE.INTER.CONST>
1

>  <SCORE.INTER.POLAR>
-5.92959

>  <SCORE.INTER.ROT>
2

>  <SCORE.INTER.SOLV>
17.108

>  <SCORE.INTER.VDW>
-31.5593

>  <SCORE.INTER.norm>
-4.69485

>  <SCORE.INTRA>
1.50412

>  <SCORE.INTRA.DIHEDRAL>
0.592767

>  <SCORE.INTRA.DIHEDRAL.0>
1.43995

>  <SCORE.INTRA.POLAR>
0.272593

>  <SCORE.INTRA.POLAR.0>
-0.272593

>  <SCORE.INTRA.REPUL>
0

>  <SCORE.INTRA.REPUL.0>
0

>  <SCORE.INTRA.SOLV>
-0.507093

>  <SCORE.INTRA.SOLV.lig_0>
-22.6728

>  <SCORE.INTRA.VDW>
0.534467

>  <SCORE.INTRA.VDW.0>
-0.754459

>  <SCORE.INTRA.norm>
0.115702

>  <SCORE.RESTR>
0

>  <SCORE.RESTR.CAVITY>
0

>  <SCORE.RESTR.norm>
0

>  <SCORE.SYSTEM>
0

>  <SCORE.SYSTEM.CONST>
0

>  <SCORE.SYSTEM.DIHEDRAL>
0

>  <SCORE.SYSTEM.SOLV>
0

>  <SCORE.SYSTEM.norm>
0

>  <SCORE.heavy>
13

>  <SCORE.norm>
-4.57915

>  <RMSD>
0.659

$$$$
lig.pdb
 OpenBabel11021811453D
libRbt.so/2013.1/901 2013/11/27
 13 14  0  0  0  0  0  0  0  0999 V2000
    2.2714    3.5721   -4.3322 N   0  0  0  0  0  0  0  0  0  0  0  0
    3.5246    3.0135   -4.3916 C   0  0  0  0  0  0  0  0  0  0  0  0
    3.7928    1.8986   -3.7207 N   0  0  0  0  0  0  0  0  0  0  0  0
    2.8410    1.2750   -2.9594 C   0  0  0  0  0  0  0  0  0  0  0  0
    1.5366    1.8231   -2.8632 C   0  0  0  0  0  0  0  0  0  0  0  0
    1.2650    3.0163   -3.5914 C   0  0  0  0  0  0  0  0  0  0  0  0
    0.1643    3.5361   -3.5612 O   0  0  0  0  0  0  0  0  0  0  0  0
    0.7804    0.9525   -1.9633 C   0  0  0  0  0  0  0  0  0  0  0  0
   -0.6364    1.1460   -1.4945 C   0  0  0  0  0  0  0  0  0  0  0  0
   -1.1743   -0.1332   -1.0109 N   0  0  0  0  0  0  0  0  0  0  0  0
    1.6131   -0.0380   -1.6193 C   0  0  0  0  0  0  0  0  0  0  0  0
    2.8402    0.1511   -2.1977 N   0  0  0  0  0  0  0  0  0  0  0  0
    4.4988    3.6039   -5.1527 N   0  0  0  0  0  0  0  0  0  0  0  0
  1  6  1  0  0  0  0
  2  1  1  0  0  0  0
  2  3  2  0  0  0  0
  3  4  1  0  0  0  0
  4  5  2  0  0  0  0
  4 12  1  0  0  0  0
  5  8  1  0  0  0  0
  6  7  2  0  0  0  0
  6  5  1  0  0  0  0
  8 11  2  0  0  0  0
  8  9  1  0  0  0  0
 10  9  1  0  0  0  0
 12 11  1  0  0  0  0
 13  2  1  0  0  0  0
M  END
>  <CHROM.1>
160.22003851,84.38632433,1.77616788,1.84773491,-3.00217452,0.80960622,0.26921881
-0.58620800

>  <Name>
lig.pdb

>  <RI>
1.75485e+07

>  <Rbt.Current_Directory>
/home/itssahil/PROJECTS/Mol_Feturizer/New_Systems/rnas/2l1v

>  <Rbt.Executable>
rbdock ($Id: //depot/dev/client3/rdock/2013.1/src/exe/rbdock.cxx#4 $)

>  <Rbt.Library>
libRbt.so (2013.1, Build901 2013/11/27)

>  <Rbt.Parameter_File>
/export/apps/rDock/src/rDock_2013.1_src/data/scripts/dock_solv.prm

>  <Rbt.Receptor>
prm/pocket_docking_4.prm

>  <SCORE>
-59.551

>  <SCORE.INTER>
-61.073

>  <SCORE.INTER.CONST>
1

>  <SCORE.INTER.POLAR>
-6.00944

>  <SCORE.INTER.ROT>
2

>  <SCORE.INTER.SOLV>
16.9897

>  <SCORE.INTER.VDW>
-31.2804

>  <SCORE.INTER.norm>
-4.69793

>  <SCORE.INTRA>
1.45904

>  <SCORE.INTRA.DIHEDRAL>
0.51959

>  <SCORE.INTRA.DIHEDRAL.0>
1.43995

>  <SCORE.INTRA.POLAR>
0.272593

>  <SCORE.INTRA.POLAR.0>
-0.272593

>  <SCORE.INTRA.REPUL>
0

>  <SCORE.INTRA.REPUL.0>
0

>  <SCORE.INTRA.SOLV>
-0.506692

>  <SCORE.INTRA.SOLV.lig_0>
-22.6728

>  <SCORE.INTRA.VDW>
0.525777

>  <SCORE.INTRA.VDW.0>
-0.754459

>  <SCORE.INTRA.norm>
0.112234

>  <SCORE.RESTR>
0.0629791

>  <SCORE.RESTR.CAVITY>
0.0629791

>  <SCORE.RESTR.norm>
0.00484455

>  <SCORE.SYSTEM>
0

>  <SCORE.SYSTEM.CONST>
0

>  <SCORE.SYSTEM.DIHEDRAL>
0

>  <SCORE.SYSTEM.SOLV>
0

>  <SCORE.SYSTEM.norm>
0

>  <SCORE.heavy>
13

>  <SCORE.norm>
-4.58085

>  <RMSD>
0.659

$$$$
lig.pdb
 OpenBabel11021811453D
libRbt.so/2013.1/901 2013/11/27
 13 14  0  0  0  0  0  0  0  0999 V2000
    2.2672    3.6056   -4.3484 N   0  0  0  0  0  0  0  0  0  0  0  0
    3.5052    3.0139   -4.4049 C   0  0  0  0  0  0  0  0  0  0  0  0
    3.7370    1.8826   -3.7481 N   0  0  0  0  0  0  0  0  0  0  0  0
    2.7616    1.2743   -3.0044 C   0  0  0  0  0  0  0  0  0  0  0  0
    1.4717    1.8564   -2.9117 C   0  0  0  0  0  0  0  0  0  0  0  0
    1.2393    3.0669   -3.6247 C   0  0  0  0  0  0  0  0  0  0  0  0
    0.1529    3.6161   -3.5966 O   0  0  0  0  0  0  0  0  0  0  0  0
    0.6839    0.9939   -2.0312 C   0  0  0  0  0  0  0  0  0  0  0  0
   -0.7313    1.2192   -1.5721 C   0  0  0  0  0  0  0  0  0  0  0  0
   -1.2941   -0.0431   -1.0728 N   0  0  0  0  0  0  0  0  0  0  0  0
    1.4863   -0.0238   -1.6944 C   0  0  0  0  0  0  0  0  0  0  0  0
    2.7233    0.1401   -2.2592 N   0  0  0  0  0  0  0  0  0  0  0  0
    4.5021    3.5885   -5.1488 N   0  0  0  0  0  0  0  0  0  0  0  0
  1  6  1  0  0  0  0
  2  1  1  0  0  0  0
  2  3  2  0  0  0  0
  3  4  1  0  0  0  0
  4  5  2  0  0  0  0
  4 12  1  0  0  0  0
  5  8  1  0  0  0  0
  6  7  2  0  0  0  0
  6  5  1  0  0  0  0
  8 11  2  0  0  0  0
  8  9  1  0  0  0  0
 10  9  1  0  0  0  0
 12 11  1  0  0  0  0
 13  2  1  0  0  0  0
M  END
>  <CHROM.1>
161.98085448,87.41398619,1.71446223,1.87726289,-3.04445646,0.78252056,0.27940460
-0.56544221

>  <Name>
lig.pdb

>  <RI>
1.77584e+07

>  <Rbt.Current_Directory>
/home/itssahil/PROJECTS/Mol_Feturizer/New_Systems/rnas/2l1v

>  <Rbt.Executable>
rbdock ($Id: //depot/dev/client3/rdock/2013.1/src/exe/rbdock.cxx#4 $)

>  <Rbt.Library>
libRbt.so (2013.1, Build901 2013/11/27)

>  <Rbt.Parameter_File>
/export/apps/rDock/src/rDock_2013.1_src/data/scripts/dock_solv.prm

>  <Rbt.Receptor>
prm/blind_docking_80.prm

>  <SCORE>
-59.6328

>  <SCORE.INTER>
-61.0567

>  <SCORE.INTER.CONST>
1

>  <SCORE.INTER.POLAR>
-5.94184

>  <SCORE.INTER.ROT>
2

>  <SCORE.INTER.SOLV>
17.2788

>  <SCORE.INTER.VDW>
-31.5913

>  <SCORE.INTER.norm>
-4.69667

>  <SCORE.INTRA>
1.42394

>  <SCORE.INTRA.DIHEDRAL>
0.43076

>  <SCORE.INTRA.DIHEDRAL.0>
1.43995

>  <SCORE.INTRA.POLAR>
0.272593

>  <SCORE.INTRA.POLAR.0>
-0.272593

>  <SCORE.INTRA.REPUL>
0

>  <SCORE.INTRA.REPUL.0>
0

>  <SCORE.INTRA.SOLV>
-0.504909

>  <SCORE.INTRA.SOLV.lig_0>
-22.6728

>  <SCORE.INTRA.VDW>
0.534203

>  <SCORE.INTRA.VDW.0>
-0.754459

>  <SCORE.INTRA.norm>
0.109534

>  <SCORE.RESTR>
0

>  <SCORE.RESTR.CAVITY>
0

>  <SCORE.RESTR.norm>
0

>  <SCORE.SYSTEM>
0

>  <SCORE.SYSTEM.CONST>
0

>  <SCORE.SYSTEM.DIHEDRAL>
0

>  <SCORE.SYSTEM.SOLV>
0

>  <SCORE.SYSTEM.norm>
0

>  <SCORE.heavy>
13

>  <SCORE.norm>
-4.58714

>  <RMSD>
0.660

$$$$
lig.pdb
 OpenBabel11021811453D
libRbt.so/2013.1/901 2013/11/27
 13 14  0  0  0  0  0  0  0  0999 V2000
    2.2747    3.5805   -4.3142 N   0  0  0  0  0  0  0  0  0  0  0  0
    3.5199    3.0049   -4.3787 C   0  0  0  0  0  0  0  0  0  0  0  0
    3.7744    1.8838   -3.7129 N   0  0  0  0  0  0  0  0  0  0  0  0
    2.8159    1.2704   -2.9517 C   0  0  0  0  0  0  0  0  0  0  0  0
    1.5194    1.8360   -2.8502 C   0  0  0  0  0  0  0  0  0  0  0  0
    1.2626    3.0357   -3.5730 C   0  0  0  0  0  0  0  0  0  0  0  0
    0.1692    3.5705   -3.5381 O   0  0  0  0  0  0  0  0  0  0  0  0
    0.7534    0.9724   -1.9517 C   0  0  0  0  0  0  0  0  0  0  0  0
   -0.6594    1.1835   -1.4787 C   0  0  0  0  0  0  0  0  0  0  0  0
   -1.2365   -0.1020   -1.0615 N   0  0  0  0  0  0  0  0  0  0  0  0
    1.5733   -0.0308   -1.6136 C   0  0  0  0  0  0  0  0  0  0  0  0
    2.8015    0.1436   -2.1943 N   0  0  0  0  0  0  0  0  0  0  0  0
    4.5004    3.5849   -5.1400 N   0  0  0  0  0  0  0  0  0  0  0  0
  1  6  1  0  0  0  0
  2  1  1  0  0  0  0
  2  3  2  0  0  0  0
  3  4  1  0  0  0  0
  4  5  2  0  0  0  0
  4 12  1  0  0  0  0
  5  8  1  0  0  0  0
  6  7  2  0  0  0  0
  6  5  1  0  0  0  0
  8 11  2  0  0  0  0
  8  9  1  0  0  0  0
 10  9  1  0  0  0  0
 12 11  1  0  0  0  0
 13  2  1  0  0  0  0
M  END
>  <CHROM.1>
157.41444570,-91.91588217,1.75655403,1.85693904,-2.99536276,0.79572428,0.27470732
-0.57689979

>  <Name>
lig.pdb

>  <RI>
1.75485e+07

>  <Rbt.Current_Directory>
/home/itssahil/PROJECTS/Mol_Feturizer/New_Systems/rnas/2l1v

>  <Rbt.Executable>
rbdock ($Id: //depot/dev/client3/rdock/2013.1/src/exe/rbdock.cxx#4 $)

>  <Rbt.Library>
libRbt.so (2013.1, Build901 2013/11/27)

>  <Rbt.Parameter_File>
/export/apps/rDock/src/rDock_2013.1_src/data/scripts/dock_solv.prm

>  <Rbt.Receptor>
prm/pocket_docking_4.prm

>  <SCORE>
-59.4045

>  <SCORE.INTER>
-61.0408

>  <SCORE.INTER.CONST>
1

>  <SCORE.INTER.POLAR>
-6.03078

>  <SCORE.INTER.ROT>
2

>  <SCORE.INTER.SOLV>
17.054

>  <SCORE.INTER.VDW>
-31.2092

>  <SCORE.INTER.norm>
-4.69544

>  <SCORE.INTRA>
1.58124

>  <SCORE.INTRA.DIHEDRAL>
0.79781

>  <SCORE.INTRA.DIHEDRAL.0>
1.43995

>  <SCORE.INTRA.POLAR>
0.272593

>  <SCORE.INTRA.POLAR.0>
-0.272593

>  <SCORE.INTRA.REPUL>
0

>  <SCORE.INTRA.REPUL.0>
0

>  <SCORE.INTRA.SOLV>
-0.51151

>  <SCORE.INTRA.SOLV.lig_0>
-22.6728

>  <SCORE.INTRA.VDW>
0.511276

>  <SCORE.INTRA.VDW.0>
-0.754459

>  <SCORE.INTRA.norm>
0.121634

>  <SCORE.RESTR>
0.0550583

>  <SCORE.RESTR.CAVITY>
0.0550583

>  <SCORE.RESTR.norm>
0.00423525

>  <SCORE.SYSTEM>
0

>  <SCORE.SYSTEM.CONST>
0

>  <SCORE.SYSTEM.DIHEDRAL>
0

>  <SCORE.SYSTEM.SOLV>
0

>  <SCORE.SYSTEM.norm>
0

>  <SCORE.heavy>
13

>  <SCORE.norm>
-4.56957

>  <RMSD>
0.660

$$$$
lig.pdb
 OpenBabel11021811453D
libRbt.so/2013.1/901 2013/11/27
 13 14  0  0  0  0  0  0  0  0999 V2000
    2.2688    3.5860   -4.3628 N   0  0  0  0  0  0  0  0  0  0  0  0
    3.5160    3.0117   -4.3897 C   0  0  0  0  0  0  0  0  0  0  0  0
    3.7553    1.8986   -3.7050 N   0  0  0  0  0  0  0  0  0  0  0  0
    2.7789    1.2923   -2.9610 C   0  0  0  0  0  0  0  0  0  0  0  0
    1.4795    1.8570   -2.8983 C   0  0  0  0  0  0  0  0  0  0  0  0
    1.2392    3.0480   -3.6409 C   0  0  0  0  0  0  0  0  0  0  0  0
    0.1446    3.5814   -3.6394 O   0  0  0  0  0  0  0  0  0  0  0  0
    0.6925    1.0024   -2.0095 C   0  0  0  0  0  0  0  0  0  0  0  0
   -0.7320    1.2165   -1.5742 C   0  0  0  0  0  0  0  0  0  0  0  0
   -1.2974   -0.0530   -1.0969 N   0  0  0  0  0  0  0  0  0  0  0  0
    1.5050    0.0044   -1.6397 C   0  0  0  0  0  0  0  0  0  0  0  0
    2.7471    0.1742   -2.1915 N   0  0  0  0  0  0  0  0  0  0  0  0
    4.5144    3.5845   -5.1329 N   0  0  0  0  0  0  0  0  0  0  0  0
  1  6  1  0  0  0  0
  2  1  1  0  0  0  0
  2  3  2  0  0  0  0
  3  4  1  0  0  0  0
  4  5  2  0  0  0  0
  4 12  1  0  0  0  0
  5  8  1  0  0  0  0
  6  7  2  0  0  0  0
  6  5  1  0  0  0  0
  8 11  2  0  0  0  0
  8  9  1  0  0  0  0
 10  9  1  0  0  0  0
 12 11  1  0  0  0  0
 13  2  1  0  0  0  0
M  END
>  <CHROM.1>
160.08434825,-91.99824248,1.72205390,1.87776199,-3.03216615,0.78553130,0.25720849
-0.58719222

>  <Name>
lig.pdb

>  <RI>
1.459e+07

>  <Rbt.Current_Directory>
/home/itssahil/PROJECTS/Mol_Feturizer/New_Systems/rnas/2l1v

>  <Rbt.Executable>
rbdock ($Id: //depot/dev/client3/rdock/2013.1/src/exe/rbdock.cxx#4 $)

>  <Rbt.Library>
libRbt.so (2013.1, Build901 2013/11/27)

>  <Rbt.Parameter_File>
/export/apps/rDock/src/rDock_2013.1_src/data/scripts/dock_solv.prm

>  <Rbt.Receptor>
prm/pocket_docking_2.prm

>  <SCORE>
-59.5512

>  <SCORE.INTER>
-61.0795

>  <SCORE.INTER.CONST>
1

>  <SCORE.INTER.POLAR>
-5.98287

>  <SCORE.INTER.ROT>
2

>  <SCORE.INTER.SOLV>
17.1851

>  <SCORE.INTER.VDW>
-31.4385

>  <SCORE.INTER.norm>
-4.69842

>  <SCORE.INTRA>
1.52833

>  <SCORE.INTRA.DIHEDRAL>
0.657081

>  <SCORE.INTRA.DIHEDRAL.0>
1.43995

>  <SCORE.INTRA.POLAR>
0.272593

>  <SCORE.INTRA.POLAR.0>
-0.272593

>  <SCORE.INTRA.REPUL>
0

>  <SCORE.INTRA.REPUL.0>
0

>  <SCORE.INTRA.SOLV>
-0.508457

>  <SCORE.INTRA.SOLV.lig_0>
-22.6728

>  <SCORE.INTRA.VDW>
0.527203

>  <SCORE.INTRA.VDW.0>
-0.754459

>  <SCORE.INTRA.norm>
0.117564

>  <SCORE.RESTR>
0

>  <SCORE.RESTR.CAVITY>
0

>  <SCORE.RESTR.norm>
0

>  <SCORE.SYSTEM>
0

>  <SCORE.SYSTEM.CONST>
0

>  <SCORE.SYSTEM.DIHEDRAL>
0

>  <SCORE.SYSTEM.SOLV>
0

>  <SCORE.SYSTEM.norm>
0

>  <SCORE.heavy>
13

>  <SCORE.norm>
-4.58086

>  <RMSD>
0.661

$$$$
lig.pdb
 OpenBabel11021811453D
libRbt.so/2013.1/901 2013/11/27
 13 14  0  0  0  0  0  0  0  0999 V2000
    2.3011    3.5917   -4.3186 N   0  0  0  0  0  0  0  0  0  0  0  0
    3.5609    3.0502   -4.3956 C   0  0  0  0  0  0  0  0  0  0  0  0
    3.8452    1.9228   -3.7528 N   0  0  0  0  0  0  0  0  0  0  0  0
    2.9040    1.2693   -3.0036 C   0  0  0  0  0  0  0  0  0  0  0  0
    1.5933    1.7988   -2.8898 C   0  0  0  0  0  0  0  0  0  0  0  0
    1.3044    3.0057   -3.5880 C   0  0  0  0  0  0  0  0  0  0  0  0
    0.1975    3.5110   -3.5415 O   0  0  0  0  0  0  0  0  0  0  0  0
    0.8511    0.8974   -2.0086 C   0  0  0  0  0  0  0  0  0  0  0  0
   -0.5662    1.0620   -1.5304 C   0  0  0  0  0  0  0  0  0  0  0  0
   -1.0506   -0.2106   -0.9779 N   0  0  0  0  0  0  0  0  0  0  0  0
    1.6973   -0.0908   -1.6915 C   0  0  0  0  0  0  0  0  0  0  0  0
    2.9198    0.1274   -2.2693 N   0  0  0  0  0  0  0  0  0  0  0  0
    4.5250    3.6708   -5.1456 N   0  0  0  0  0  0  0  0  0  0  0  0
  1  6  1  0  0  0  0
  2  1  1  0  0  0  0
  2  3  2  0  0  0  0
  3  4  1  0  0  0  0
  4  5  2  0  0  0  0
  4 12  1  0  0  0  0
  5  8  1  0  0  0  0
  6  7  2  0  0  0  0
  6  5  1  0  0  0  0
  8 11  2  0  0  0  0
  8  9  1  0  0  0  0
 10  9  1  0  0  0  0
 12 11  1  0  0  0  0
 13  2  1  0  0  0  0
M  END
>  <CHROM.1>
164.66741316,78.18699060,1.83537423,1.83196136,-3.01977570,0.82657940,0.27183818
-0.57007278

>  <Name>
lig.pdb

>  <RI>
1.75485e+07

>  <Rbt.Current_Directory>
/home/itssahil/PROJECTS/Mol_Feturizer/New_Systems/rnas/2l1v

>  <Rbt.Executable>
rbdock ($Id: //depot/dev/client3/rdock/2013.1/src/exe/rbdock.cxx#4 $)

>  <Rbt.Library>
libRbt.so (2013.1, Build901 2013/11/27)

>  <Rbt.Parameter_File>
/export/apps/rDock/src/rDock_2013.1_src/data/scripts/dock_solv.prm

>  <Rbt.Receptor>
prm/pocket_docking_4.prm

>  <SCORE>
-59.4127

>  <SCORE.INTER>
-60.842

>  <SCORE.INTER.CONST>
1

>  <SCORE.INTER.POLAR>
-6.04797

>  <SCORE.INTER.ROT>
2

>  <SCORE.INTER.SOLV>
17.01

>  <SCORE.INTER.VDW>
-31.0047

>  <SCORE.INTER.norm>
-4.68015

>  <SCORE.INTRA>
1.38935

>  <SCORE.INTRA.DIHEDRAL>
0.317904

>  <SCORE.INTRA.DIHEDRAL.0>
1.43995

>  <SCORE.INTRA.POLAR>
0.272593

>  <SCORE.INTRA.POLAR.0>
-0.272593

>  <SCORE.INTRA.REPUL>
0

>  <SCORE.INTRA.REPUL.0>
0

>  <SCORE.INTRA.SOLV>
-0.50208

>  <SCORE.INTRA.SOLV.lig_0>
-22.6728

>  <SCORE.INTRA.VDW>
0.554618

>  <SCORE.INTRA.VDW.0>
-0.754459

>  <SCORE.INTRA.norm>
0.106873

>  <SCORE.RESTR>
0.0399531

>  <SCORE.RESTR.CAVITY>
0.0399531

>  <SCORE.RESTR.norm>
0.00307331

>  <SCORE.SYSTEM>
0

>  <SCORE.SYSTEM.CONST>
0

>  <SCORE.SYSTEM.DIHEDRAL>
0

>  <SCORE.SYSTEM.SOLV>
0

>  <SCORE.SYSTEM.norm>
0

>  <SCORE.heavy>
13

>  <SCORE.norm>
-4.5702

>  <RMSD>
0.661

$$$$
lig.pdb
 OpenBabel11021811453D
libRbt.so/2013.1/901 2013/11/27
 13 14  0  0  0  0  0  0  0  0999 V2000
    2.2987    3.5368   -4.3619 N   0  0  0  0  0  0  0  0  0  0  0  0
    3.5723    3.0351   -4.4734 C   0  0  0  0  0  0  0  0  0  0  0  0
    3.8788    1.8610   -3.9326 N   0  0  0  0  0  0  0  0  0  0  0  0
    2.9472    1.1193   -3.2569 C   0  0  0  0  0  0  0  0  0  0  0  0
    1.6227    1.6045   -3.1106 C   0  0  0  0  0  0  0  0  0  0  0  0
    1.3102    2.8629   -3.6993 C   0  0  0  0  0  0  0  0  0  0  0  0
    0.1906    3.3350   -3.6198 O   0  0  0  0  0  0  0  0  0  0  0  0
    0.8951    0.6089   -2.3237 C   0  0  0  0  0  0  0  0  0  0  0  0
   -0.5303    0.6949   -1.8490 C   0  0  0  0  0  0  0  0  0  0  0  0
   -0.6506    1.7576   -0.8412 N   0  0  0  0  0  0  0  0  0  0  0  0
    1.7627   -0.3834   -2.0880 C   0  0  0  0  0  0  0  0  0  0  0  0
    2.9848   -0.0841   -2.6294 N   0  0  0  0  0  0  0  0  0  0  0  0
    4.5275    3.7446   -5.1525 N   0  0  0  0  0  0  0  0  0  0  0  0
  1  6  1  0  0  0  0
  2  1  1  0  0  0  0
  2  3  2  0  0  0  0
  3  4  1  0  0  0  0
  4  5  2  0  0  0  0
  4 12  1  0  0  0  0
  5  8  1  0  0  0  0
  6  7  2  0  0  0  0
  6  5  1  0  0  0  0
  8 11  2  0  0  0  0
  8  9  1  0  0  0  0
 10  9  1  0  0  0  0
 12 11  1  0  0  0  0
 13  2  1  0  0  0  0
M  END
>  <CHROM.1>
-67.79327709,49.71122049,1.89652877,1.87837891,-3.18000304,0.70617536,0.39770335
-0.49625784

>  <Name>
lig.pdb

>  <RI>
4.02536e+07

>  <Rbt.Current_Directory>
/home/itssahil/PROJECTS/Mol_Feturizer/New_Systems/rnas/2l1v

>  <Rbt.Executable>
rbdock ($Id: //depot/dev/client3/rdock/2013.1/src/exe/rbdock.cxx#4 $)

>  <Rbt.Library>
libRbt.so (2013.1, Build901 2013/11/27)

>  <Rbt.Parameter_File>
/export/apps/rDock/src/rDock_2013.1_src/data/scripts/dock_solv.prm

>  <Rbt.Receptor>
prm/blind_docking_40.prm

>  <SCORE>
-51.7336

>  <SCORE.INTER>
-52.703

>  <SCORE.INTER.CONST>
1

>  <SCORE.INTER.POLAR>
-5.49517

>  <SCORE.INTER.ROT>
2

>  <SCORE.INTER.SOLV>
18.5469

>  <SCORE.INTER.VDW>
-27.9338

>  <SCORE.INTER.norm>
-4.05408

>  <SCORE.INTRA>
0.969479

>  <SCORE.INTRA.DIHEDRAL>
0.143196

>  <SCORE.INTRA.DIHEDRAL.0>
1.43995

>  <SCORE.INTRA.POLAR>
0.272593

>  <SCORE.INTRA.POLAR.0>
-0.272593

>  <SCORE.INTRA.REPUL>
0

>  <SCORE.INTRA.REPUL.0>
0

>  <SCORE.INTRA.SOLV>
-0.132457

>  <SCORE.INTRA.SOLV.lig_0>
-22.6728

>  <SCORE.INTRA.VDW>
0.0372944

>  <SCORE.INTRA.VDW.0>
-0.754459

>  <SCORE.INTRA.norm>
0.0745753

>  <SCORE.RESTR>
0

>  <SCORE.RESTR.CAVITY>
0

>  <SCORE.RESTR.norm>
0

>  <SCORE.SYSTEM>
0

>  <SCORE.SYSTEM.CONST>
0

>  <SCORE.SYSTEM.DIHEDRAL>
0

>  <SCORE.SYSTEM.SOLV>
0

>  <SCORE.SYSTEM.norm>
0

>  <SCORE.heavy>
13

>  <SCORE.norm>
-3.97951

>  <RMSD>
0.662

$$$$
lig.pdb
 OpenBabel11021811453D
libRbt.so/2013.1/901 2013/11/27
 13 14  0  0  0  0  0  0  0  0999 V2000
    2.2953    3.5954   -4.3173 N   0  0  0  0  0  0  0  0  0  0  0  0
    3.5525    3.0477   -4.3928 C   0  0  0  0  0  0  0  0  0  0  0  0
    3.8302    1.9184   -3.7504 N   0  0  0  0  0  0  0  0  0  0  0  0
    2.8845    1.2689   -3.0033 C   0  0  0  0  0  0  0  0  0  0  0  0
    1.5763    1.8049   -2.8911 C   0  0  0  0  0  0  0  0  0  0  0  0
    1.2945    3.0139   -3.5888 C   0  0  0  0  0  0  0  0  0  0  0  0
    0.1901    3.5246   -3.5437 O   0  0  0  0  0  0  0  0  0  0  0  0
    0.8282    0.9065   -2.0119 C   0  0  0  0  0  0  0  0  0  0  0  0
   -0.5890    1.0778   -1.5358 C   0  0  0  0  0  0  0  0  0  0  0  0
   -1.0791   -0.1916   -0.9809 N   0  0  0  0  0  0  0  0  0  0  0  0
    1.6689   -0.0861   -1.6942 C   0  0  0  0  0  0  0  0  0  0  0  0
    2.8934    0.1264   -2.2699 N   0  0  0  0  0  0  0  0  0  0  0  0
    4.5209    3.6641   -5.1407 N   0  0  0  0  0  0  0  0  0  0  0  0
  1  6  1  0  0  0  0
  2  1  1  0  0  0  0
  2  3  2  0  0  0  0
  3  4  1  0  0  0  0
  4  5  2  0  0  0  0
  4 12  1  0  0  0  0
  5  8  1  0  0  0  0
  6  7  2  0  0  0  0
  6  5  1  0  0  0  0
  8 11  2  0  0  0  0
  8  9  1  0  0  0  0
 10  9  1  0  0  0  0
 12 11  1  0  0  0  0
 13  2  1  0  0  0  0
M  END
>  <CHROM.1>
164.86251156,-97.69065726,1.81856722,1.83726292,-3.02016146,0.82110260,0.27371664
-0.56800223

>  <Name>
lig.pdb

>  <RI>
4.15415e+07

>  <Rbt.Current_Directory>
/home/itssahil/PROJECTS/Mol_Feturizer/New_Systems/rnas/2l1v

>  <Rbt.Executable>
rbdock ($Id: //depot/dev/client3/rdock/2013.1/src/exe/rbdock.cxx#4 $)

>  <Rbt.Library>
libRbt.so (2013.1, Build901 2013/11/27)

>  <Rbt.Parameter_File>
/export/apps/rDock/src/rDock_2013.1_src/data/scripts/dock_solv.prm

>  <Rbt.Receptor>
prm/blind_docking_60.prm

>  <SCORE>
-59.3515

>  <SCORE.INTER>
-60.851

>  <SCORE.INTER.CONST>
1

>  <SCORE.INTER.POLAR>
-6.04605

>  <SCORE.INTER.ROT>
2

>  <SCORE.INTER.SOLV>
17.0362

>  <SCORE.INTER.VDW>
-31.0259

>  <SCORE.INTER.norm>
-4.68085

>  <SCORE.INTRA>
1.45535

>  <SCORE.INTRA.DIHEDRAL>
0.427856

>  <SCORE.INTRA.DIHEDRAL.0>
1.43995

>  <SCORE.INTRA.POLAR>
0.272593

>  <SCORE.INTRA.POLAR.0>
-0.272593

>  <SCORE.INTRA.REPUL>
0

>  <SCORE.INTRA.REPUL.0>
0

>  <SCORE.INTRA.SOLV>
-0.50356

>  <SCORE.INTRA.SOLV.lig_0>
-22.6728

>  <SCORE.INTRA.VDW>
0.566392

>  <SCORE.INTRA.VDW.0>
-0.754459

>  <SCORE.INTRA.norm>
0.11195

>  <SCORE.RESTR>
0.0441475

>  <SCORE.RESTR.CAVITY>
0.0441475

>  <SCORE.RESTR.norm>
0.00339596

>  <SCORE.SYSTEM>
0

>  <SCORE.SYSTEM.CONST>
0

>  <SCORE.SYSTEM.DIHEDRAL>
0

>  <SCORE.SYSTEM.SOLV>
0

>  <SCORE.SYSTEM.norm>
0

>  <SCORE.heavy>
13

>  <SCORE.norm>
-4.5655

>  <RMSD>
0.662

$$$$
lig.pdb
 OpenBabel11021811453D
libRbt.so/2013.1/901 2013/11/27
 13 14  0  0  0  0  0  0  0  0999 V2000
    2.2787    3.5826   -4.3150 N   0  0  0  0  0  0  0  0  0  0  0  0
    3.5257    3.0116   -4.3869 C   0  0  0  0  0  0  0  0  0  0  0  0
    3.7816    1.8794   -3.7406 N   0  0  0  0  0  0  0  0  0  0  0  0
    2.8231    1.2499   -2.9928 C   0  0  0  0  0  0  0  0  0  0  0  0
    1.5248    1.8102   -2.8843 C   0  0  0  0  0  0  0  0  0  0  0  0
    1.2663    3.0219   -3.5862 C   0  0  0  0  0  0  0  0  0  0  0  0
    0.1714    3.5531   -3.5443 O   0  0  0  0  0  0  0  0  0  0  0  0
    0.7591    0.9286   -2.0032 C   0  0  0  0  0  0  0  0  0  0  0  0
   -0.6554    1.1274   -1.5299 C   0  0  0  0  0  0  0  0  0  0  0  0
   -1.1786   -0.1377   -0.9958 N   0  0  0  0  0  0  0  0  0  0  0  0
    1.5809   -0.0783   -1.6812 C   0  0  0  0  0  0  0  0  0  0  0  0
    2.8100    0.1098   -2.2557 N   0  0  0  0  0  0  0  0  0  0  0  0
    4.5063    3.6077   -5.1353 N   0  0  0  0  0  0  0  0  0  0  0  0
  1  6  1  0  0  0  0
  2  1  1  0  0  0  0
  2  3  2  0  0  0  0
  3  4  1  0  0  0  0
  4  5  2  0  0  0  0
  4 12  1  0  0  0  0
  5  8  1  0  0  0  0
  6  7  2  0  0  0  0
  6  5  1  0  0  0  0
  8 11  2  0  0  0  0
  8  9  1  0  0  0  0
 10  9  1  0  0  0  0
 12 11  1  0  0  0  0
 13  2  1  0  0  0  0
M  END
>  <CHROM.1>
163.75403113,-92.58964457,1.76698532,1.83706878,-3.01530653,0.80310569,0.28098190
-0.56522045

>  <Name>
lig.pdb

>  <RI>
1.75485e+07

>  <Rbt.Current_Directory>
/home/itssahil/PROJECTS/Mol_Feturizer/New_Systems/rnas/2l1v

>  <Rbt.Executable>
rbdock ($Id: //depot/dev/client3/rdock/2013.1/src/exe/rbdock.cxx#4 $)

>  <Rbt.Library>
libRbt.so (2013.1, Build901 2013/11/27)

>  <Rbt.Parameter_File>
/export/apps/rDock/src/rDock_2013.1_src/data/scripts/dock_solv.prm

>  <Rbt.Receptor>
prm/pocket_docking_4.prm

>  <SCORE>
-59.3542

>  <SCORE.INTER>
-60.8692

>  <SCORE.INTER.CONST>
1

>  <SCORE.INTER.POLAR>
-6.00022

>  <SCORE.INTER.ROT>
2

>  <SCORE.INTER.SOLV>
17.075

>  <SCORE.INTER.VDW>
-31.2037

>  <SCORE.INTER.norm>
-4.68225

>  <SCORE.INTRA>
1.46209

>  <SCORE.INTRA.DIHEDRAL>
0.480278

>  <SCORE.INTRA.DIHEDRAL.0>
1.43995

>  <SCORE.INTRA.POLAR>
0.272593

>  <SCORE.INTRA.POLAR.0>
-0.272593

>  <SCORE.INTRA.REPUL>
0

>  <SCORE.INTRA.REPUL.0>
0

>  <SCORE.INTRA.SOLV>
-0.504715

>  <SCORE.INTRA.SOLV.lig_0>
-22.6728

>  <SCORE.INTRA.VDW>
0.547492

>  <SCORE.INTRA.VDW.0>
-0.754459

>  <SCORE.INTRA.norm>
0.112468

>  <SCORE.RESTR>
0.0529619

>  <SCORE.RESTR.CAVITY>
0.0529619

>  <SCORE.RESTR.norm>
0.00407399

>  <SCORE.SYSTEM>
0

>  <SCORE.SYSTEM.CONST>
0

>  <SCORE.SYSTEM.DIHEDRAL>
0

>  <SCORE.SYSTEM.SOLV>
0

>  <SCORE.SYSTEM.norm>
0

>  <SCORE.heavy>
13

>  <SCORE.norm>
-4.56571

>  <RMSD>
0.662

$$$$
lig.pdb
 OpenBabel11021811453D
libRbt.so/2013.1/901 2013/11/27
 13 14  0  0  0  0  0  0  0  0999 V2000
    2.2737    3.5890   -4.3284 N   0  0  0  0  0  0  0  0  0  0  0  0
    3.5189    3.0128   -4.3875 C   0  0  0  0  0  0  0  0  0  0  0  0
    3.7703    1.8924   -3.7193 N   0  0  0  0  0  0  0  0  0  0  0  0
    2.8086    1.2803   -2.9611 C   0  0  0  0  0  0  0  0  0  0  0  0
    1.5120    1.8466   -2.8653 C   0  0  0  0  0  0  0  0  0  0  0  0
    1.2585    3.0455   -3.5906 C   0  0  0  0  0  0  0  0  0  0  0  0
    0.1652    3.5808   -3.5605 O   0  0  0  0  0  0  0  0  0  0  0  0
    0.7422    0.9844   -1.9688 C   0  0  0  0  0  0  0  0  0  0  0  0
   -0.6724    1.1966   -1.5015 C   0  0  0  0  0  0  0  0  0  0  0  0
   -1.2317   -0.0776   -1.0293 N   0  0  0  0  0  0  0  0  0  0  0  0
    1.5603   -0.0188   -1.6264 C   0  0  0  0  0  0  0  0  0  0  0  0
    2.7908    0.1545   -2.2025 N   0  0  0  0  0  0  0  0  0  0  0  0
    4.5026    3.5914   -5.1456 N   0  0  0  0  0  0  0  0  0  0  0  0
  1  6  1  0  0  0  0
  2  1  1  0  0  0  0
  2  3  2  0  0  0  0
  3  4  1  0  0  0  0
  4  5  2  0  0  0  0
  4 12  1  0  0  0  0
  5  8  1  0  0  0  0
  6  7  2  0  0  0  0
  6  5  1  0  0  0  0
  8 11  2  0  0  0  0
  8  9  1  0  0  0  0
 10  9  1  0  0  0  0
 12 11  1  0  0  0  0
 13  2  1  0  0  0  0
M  END
>  <CHROM.1>
159.90216698,85.83534093,1.75187159,1.86806814,-3.00449639,0.79614634,0.27542552
-0.57958398

>  <Name>
lig.pdb

>  <RI>
1.75485e+07

>  <Rbt.Current_Directory>
/home/itssahil/PROJECTS/Mol_Feturizer/New_Systems/rnas/2l1v

>  <Rbt.Executable>
rbdock ($Id: //depot/dev/client3/rdock/2013.1/src/exe/rbdock.cxx#4 $)

>  <Rbt.Library>
libRbt.so (2013.1, Build901 2013/11/27)

>  <Rbt.Parameter_File>
/export/apps/rDock/src/rDock_2013.1_src/data/scripts/dock_solv.prm

>  <Rbt.Receptor>
prm/pocket_docking_4.prm

>  <SCORE>
-59.5091

>  <SCORE.INTER>
-61.0354

>  <SCORE.INTER.CONST>
1

>  <SCORE.INTER.POLAR>
-5.99087

>  <SCORE.INTER.ROT>
2

>  <SCORE.INTER.SOLV>
17.0649

>  <SCORE.INTER.VDW>
-31.3423

>  <SCORE.INTER.norm>
-4.69503

>  <SCORE.INTRA>
1.46385

>  <SCORE.INTRA.DIHEDRAL>
0.534813

>  <SCORE.INTRA.DIHEDRAL.0>
1.43995

>  <SCORE.INTRA.POLAR>
0.272593

>  <SCORE.INTRA.POLAR.0>
-0.272593

>  <SCORE.INTRA.REPUL>
0

>  <SCORE.INTRA.REPUL.0>
0

>  <SCORE.INTRA.SOLV>
-0.507075

>  <SCORE.INTRA.SOLV.lig_0>
-22.6728

>  <SCORE.INTRA.VDW>
0.523162

>  <SCORE.INTRA.VDW.0>
-0.754459

>  <SCORE.INTRA.norm>
0.112604

>  <SCORE.RESTR>
0.0624859

>  <SCORE.RESTR.CAVITY>
0.0624859

>  <SCORE.RESTR.norm>
0.0048066

>  <SCORE.SYSTEM>
0

>  <SCORE.SYSTEM.CONST>
0

>  <SCORE.SYSTEM.DIHEDRAL>
0

>  <SCORE.SYSTEM.SOLV>
0

>  <SCORE.SYSTEM.norm>
0

>  <SCORE.heavy>
13

>  <SCORE.norm>
-4.57762

>  <RMSD>
0.664

$$$$
lig.pdb
 OpenBabel11021811453D
libRbt.so/2013.1/901 2013/11/27
 13 14  0  0  0  0  0  0  0  0999 V2000
    2.2928    3.5838   -4.3226 N   0  0  0  0  0  0  0  0  0  0  0  0
    3.5548    3.0458   -4.3856 C   0  0  0  0  0  0  0  0  0  0  0  0
    3.8382    1.9252   -3.7306 N   0  0  0  0  0  0  0  0  0  0  0  0
    2.8935    1.2753   -2.9825 C   0  0  0  0  0  0  0  0  0  0  0  0
    1.5803    1.8014   -2.8831 C   0  0  0  0  0  0  0  0  0  0  0  0
    1.2926    3.0011   -3.5942 C   0  0  0  0  0  0  0  0  0  0  0  0
    0.1838    3.5031   -3.5604 O   0  0  0  0  0  0  0  0  0  0  0  0
    0.8347    0.9055   -1.9992 C   0  0  0  0  0  0  0  0  0  0  0  0
   -0.5867    1.0696   -1.5330 C   0  0  0  0  0  0  0  0  0  0  0  0
   -1.0706   -0.1993   -0.9716 N   0  0  0  0  0  0  0  0  0  0  0  0
    1.6817   -0.0769   -1.6670 C   0  0  0  0  0  0  0  0  0  0  0  0
    2.9077    0.1402   -2.2378 N   0  0  0  0  0  0  0  0  0  0  0  0
    4.5224    3.6630   -5.1340 N   0  0  0  0  0  0  0  0  0  0  0  0
  1  6  1  0  0  0  0
  2  1  1  0  0  0  0
  2  3  2  0  0  0  0
  3  4  1  0  0  0  0
  4  5  2  0  0  0  0
  4 12  1  0  0  0  0
  5  8  1  0  0  0  0
  6  7  2  0  0  0  0
  6  5  1  0  0  0  0
  8 11  2  0  0  0  0
  8  9  1  0  0  0  0
 10  9  1  0  0  0  0
 12 11  1  0  0  0  0
 13  2  1  0  0  0  0
M  END
>  <CHROM.1>
164.71332803,-98.85036870,1.82299222,1.83445340,-3.01131119,0.82498923,0.26409507
-0.57878526

>  <Name>
lig.pdb

>  <RI>
1.75485e+07

>  <Rbt.Current_Directory>
/home/itssahil/PROJECTS/Mol_Feturizer/New_Systems/rnas/2l1v

>  <Rbt.Executable>
rbdock ($Id: //depot/dev/client3/rdock/2013.1/src/exe/rbdock.cxx#4 $)

>  <Rbt.Library>
libRbt.so (2013.1, Build901 2013/11/27)

>  <Rbt.Parameter_File>
/export/apps/rDock/src/rDock_2013.1_src/data/scripts/dock_solv.prm

>  <Rbt.Receptor>
prm/pocket_docking_4.prm

>  <SCORE>
-59.3595

>  <SCORE.INTER>
-60.8632

>  <SCORE.INTER.CONST>
1

>  <SCORE.INTER.POLAR>
-6.05652

>  <SCORE.INTER.ROT>
2

>  <SCORE.INTER.SOLV>
16.9642

>  <SCORE.INTER.VDW>
-30.9751

>  <SCORE.INTER.norm>
-4.68178

>  <SCORE.INTRA>
1.45766

>  <SCORE.INTRA.DIHEDRAL>
0.432782

>  <SCORE.INTRA.DIHEDRAL.0>
1.43995

>  <SCORE.INTRA.POLAR>
0.272593

>  <SCORE.INTRA.POLAR.0>
-0.272593

>  <SCORE.INTRA.REPUL>
0

>  <SCORE.INTRA.REPUL.0>
0

>  <SCORE.INTRA.SOLV>
-0.503652

>  <SCORE.INTRA.SOLV.lig_0>
-22.6728

>  <SCORE.INTRA.VDW>
0.566277

>  <SCORE.INTRA.VDW.0>
-0.754459

>  <SCORE.INTRA.norm>
0.112127

>  <SCORE.RESTR>
0.0460387

>  <SCORE.RESTR.CAVITY>
0.0460387

>  <SCORE.RESTR.norm>
0.00354144

>  <SCORE.SYSTEM>
0

>  <SCORE.SYSTEM.CONST>
0

>  <SCORE.SYSTEM.DIHEDRAL>
0

>  <SCORE.SYSTEM.SOLV>
0

>  <SCORE.SYSTEM.norm>
0

>  <SCORE.heavy>
13

>  <SCORE.norm>
-4.56611

>  <RMSD>
0.665

$$$$
lig.pdb
 OpenBabel11021811453D
libRbt.so/2013.1/901 2013/11/27
 13 14  0  0  0  0  0  0  0  0999 V2000
    2.2818    3.5861   -4.3119 N   0  0  0  0  0  0  0  0  0  0  0  0
    3.5259    3.0069   -4.3657 C   0  0  0  0  0  0  0  0  0  0  0  0
    3.7695    1.8818   -3.7025 N   0  0  0  0  0  0  0  0  0  0  0  0
    2.8008    1.2678   -2.9548 C   0  0  0  0  0  0  0  0  0  0  0  0
    1.5051    1.8371   -2.8648 C   0  0  0  0  0  0  0  0  0  0  0  0
    1.2599    3.0410   -3.5846 C   0  0  0  0  0  0  0  0  0  0  0  0
    0.1679    3.5791   -3.5591 O   0  0  0  0  0  0  0  0  0  0  0  0
    0.7265    0.9716   -1.9790 C   0  0  0  0  0  0  0  0  0  0  0  0
   -0.6907    1.1849   -1.5204 C   0  0  0  0  0  0  0  0  0  0  0  0
   -1.2589   -0.0918   -1.0657 N   0  0  0  0  0  0  0  0  0  0  0  0
    1.5395   -0.0359   -1.6368 C   0  0  0  0  0  0  0  0  0  0  0  0
    2.7745    0.1375   -2.2032 N   0  0  0  0  0  0  0  0  0  0  0  0
    4.5164    3.5874   -5.1133 N   0  0  0  0  0  0  0  0  0  0  0  0
  1  6  1  0  0  0  0
  2  1  1  0  0  0  0
  2  3  2  0  0  0  0
  3  4  1  0  0  0  0
  4  5  2  0  0  0  0
  4 12  1  0  0  0  0
  5  8  1  0  0  0  0
  6  7  2  0  0  0  0
  6  5  1  0  0  0  0
  8 11  2  0  0  0  0
  8  9  1  0  0  0  0
 10  9  1  0  0  0  0
 12 11  1  0  0  0  0
 13  2  1  0  0  0  0
M  END
>  <CHROM.1>
159.64417577,-92.29243078,1.74545193,1.85876955,-3.00258702,0.78910945,0.27065767
-0.57163251

>  <Name>
lig.pdb

>  <RI>
1.75485e+07

>  <Rbt.Current_Directory>
/home/itssahil/PROJECTS/Mol_Feturizer/New_Systems/rnas/2l1v

>  <Rbt.Executable>
rbdock ($Id: //depot/dev/client3/rdock/2013.1/src/exe/rbdock.cxx#4 $)

>  <Rbt.Library>
libRbt.so (2013.1, Build901 2013/11/27)

>  <Rbt.Parameter_File>
/export/apps/rDock/src/rDock_2013.1_src/data/scripts/dock_solv.prm

>  <Rbt.Receptor>
prm/pocket_docking_4.prm

>  <SCORE>
-59.4198

>  <SCORE.INTER>
-61.0069

>  <SCORE.INTER.CONST>
1

>  <SCORE.INTER.POLAR>
-6.04429

>  <SCORE.INTER.ROT>
2

>  <SCORE.INTER.SOLV>
17.0989

>  <SCORE.INTER.VDW>
-31.1566

>  <SCORE.INTER.norm>
-4.69284

>  <SCORE.INTRA>
1.53687

>  <SCORE.INTRA.DIHEDRAL>
0.67961

>  <SCORE.INTRA.DIHEDRAL.0>
1.43995

>  <SCORE.INTRA.POLAR>
0.272593

>  <SCORE.INTRA.POLAR.0>
-0.272593

>  <SCORE.INTRA.REPUL>
0

>  <SCORE.INTRA.REPUL.0>
0

>  <SCORE.INTRA.SOLV>
-0.508934

>  <SCORE.INTRA.SOLV.lig_0>
-22.6728

>  <SCORE.INTRA.VDW>
0.524722

>  <SCORE.INTRA.VDW.0>
-0.754459

>  <SCORE.INTRA.norm>
0.118221

>  <SCORE.RESTR>
0.0502811

>  <SCORE.RESTR.CAVITY>
0.0502811

>  <SCORE.RESTR.norm>
0.00386778

>  <SCORE.SYSTEM>
0

>  <SCORE.SYSTEM.CONST>
0

>  <SCORE.SYSTEM.DIHEDRAL>
0

>  <SCORE.SYSTEM.SOLV>
0

>  <SCORE.SYSTEM.norm>
0

>  <SCORE.heavy>
13

>  <SCORE.norm>
-4.57075

>  <RMSD>
0.666

$$$$
lig.pdb
 OpenBabel11021811453D
libRbt.so/2013.1/901 2013/11/27
 13 14  0  0  0  0  0  0  0  0999 V2000
    2.2797    3.5797   -4.3177 N   0  0  0  0  0  0  0  0  0  0  0  0
    3.5260    3.0046   -4.3640 C   0  0  0  0  0  0  0  0  0  0  0  0
    3.7710    1.8835   -3.6946 N   0  0  0  0  0  0  0  0  0  0  0  0
    2.8016    1.2696   -2.9477 C   0  0  0  0  0  0  0  0  0  0  0  0
    1.5035    1.8348   -2.8653 C   0  0  0  0  0  0  0  0  0  0  0  0
    1.2570    3.0345   -3.5917 C   0  0  0  0  0  0  0  0  0  0  0  0
    0.1630    3.5689   -3.5729 O   0  0  0  0  0  0  0  0  0  0  0  0
    0.7246    0.9708   -1.9784 C   0  0  0  0  0  0  0  0  0  0  0  0
   -0.6951    1.1813   -1.5263 C   0  0  0  0  0  0  0  0  0  0  0  0
   -1.2474   -0.0869   -1.0302 N   0  0  0  0  0  0  0  0  0  0  0  0
    1.5398   -0.0322   -1.6284 C   0  0  0  0  0  0  0  0  0  0  0  0
    2.7764    0.1428   -2.1908 N   0  0  0  0  0  0  0  0  0  0  0  0
    4.5174    3.5850   -5.1106 N   0  0  0  0  0  0  0  0  0  0  0  0
  1  6  1  0  0  0  0
  2  1  1  0  0  0  0
  2  3  2  0  0  0  0
  3  4  1  0  0  0  0
  4  5  2  0  0  0  0
  4 12  1  0  0  0  0
  5  8  1  0  0  0  0
  6  7  2  0  0  0  0
  6  5  1  0  0  0  0
  8 11  2  0  0  0  0
  8  9  1  0  0  0  0
 10  9  1  0  0  0  0
 12 11  1  0  0  0  0
 13  2  1  0  0  0  0
M  END
>  <CHROM.1>
161.32515366,-91.97429624,1.74561144,1.85745453,-2.99878246,0.79163858,0.26817785
-0.57809368

>  <Name>
lig.pdb

>  <RI>
4.15415e+07

>  <Rbt.Current_Directory>
/home/itssahil/PROJECTS/Mol_Feturizer/New_Systems/rnas/2l1v

>  <Rbt.Executable>
rbdock ($Id: //depot/dev/client3/rdock/2013.1/src/exe/rbdock.cxx#4 $)

>  <Rbt.Library>
libRbt.so (2013.1, Build901 2013/11/27)

>  <Rbt.Parameter_File>
/export/apps/rDock/src/rDock_2013.1_src/data/scripts/dock_solv.prm

>  <Rbt.Receptor>
prm/blind_docking_60.prm

>  <SCORE>
-59.4056

>  <SCORE.INTER>
-60.9633

>  <SCORE.INTER.CONST>
1

>  <SCORE.INTER.POLAR>
-6.02932

>  <SCORE.INTER.ROT>
2

>  <SCORE.INTER.SOLV>
17.0407

>  <SCORE.INTER.VDW>
-31.158

>  <SCORE.INTER.norm>
-4.68949

>  <SCORE.INTRA>
1.50496

>  <SCORE.INTRA.DIHEDRAL>
0.594911

>  <SCORE.INTRA.DIHEDRAL.0>
1.43995

>  <SCORE.INTRA.POLAR>
0.272593

>  <SCORE.INTRA.POLAR.0>
-0.272593

>  <SCORE.INTRA.REPUL>
0

>  <SCORE.INTRA.REPUL.0>
0

>  <SCORE.INTRA.SOLV>
-0.507135

>  <SCORE.INTRA.SOLV.lig_0>
-22.6728

>  <SCORE.INTRA.VDW>
0.534257

>  <SCORE.INTRA.VDW.0>
-0.754459

>  <SCORE.INTRA.norm>
0.115766

>  <SCORE.RESTR>
0.052767

>  <SCORE.RESTR.CAVITY>
0.052767

>  <SCORE.RESTR.norm>
0.004059

>  <SCORE.SYSTEM>
0

>  <SCORE.SYSTEM.CONST>
0

>  <SCORE.SYSTEM.DIHEDRAL>
0

>  <SCORE.SYSTEM.SOLV>
0

>  <SCORE.SYSTEM.norm>
0

>  <SCORE.heavy>
13

>  <SCORE.norm>
-4.56966

>  <RMSD>
0.672

$$$$
lig.pdb
 OpenBabel11021811453D
libRbt.so/2013.1/901 2013/11/27
 13 14  0  0  0  0  0  0  0  0999 V2000
    2.2737    3.5038   -4.2729 N   0  0  0  0  0  0  0  0  0  0  0  0
    3.5148    2.9199   -4.3443 C   0  0  0  0  0  0  0  0  0  0  0  0
    3.7589    1.7853   -3.6978 N   0  0  0  0  0  0  0  0  0  0  0  0
    2.7936    1.1658   -2.9502 C   0  0  0  0  0  0  0  0  0  0  0  0
    1.5012    1.7394   -2.8422 C   0  0  0  0  0  0  0  0  0  0  0  0
    1.2554    2.9536   -3.5443 C   0  0  0  0  0  0  0  0  0  0  0  0
    0.1660    3.4960   -3.5029 O   0  0  0  0  0  0  0  0  0  0  0  0
    0.7261    0.8659   -1.9612 C   0  0  0  0  0  0  0  0  0  0  0  0
   -0.6864    1.0793   -1.4884 C   0  0  0  0  0  0  0  0  0  0  0  0
   -1.2395   -0.1913   -0.9992 N   0  0  0  0  0  0  0  0  0  0  0  0
    1.5374   -0.1494   -1.6388 C   0  0  0  0  0  0  0  0  0  0  0  0
    2.7685    0.0260   -2.2130 N   0  0  0  0  0  0  0  0  0  0  0  0
    4.5017    3.5058   -5.0925 N   0  0  0  0  0  0  0  0  0  0  0  0
  1  6  1  0  0  0  0
  2  1  1  0  0  0  0
  2  3  2  0  0  0  0
  3  4  1  0  0  0  0
  4  5  2  0  0  0  0
  4 12  1  0  0  0  0
  5  8  1  0  0  0  0
  6  7  2  0  0  0  0
  6  5  1  0  0  0  0
  8 11  2  0  0  0  0
  8  9  1  0  0  0  0
 10  9  1  0  0  0  0
 12 11  1  0  0  0  0
 13  2  1  0  0  0  0
M  END
>  <CHROM.1>
161.71981891,-91.63537827,1.74209866,1.76276016,-2.97731949,0.79192355,0.28313052
-0.56078848

>  <Name>
lig.pdb

>  <RI>
4.17264e+07

>  <Rbt.Current_Directory>
/home/itssahil/PROJECTS/Mol_Feturizer/New_Systems/rnas/2l1v

>  <Rbt.Executable>
rbdock ($Id: //depot/dev/client3/rdock/2013.1/src/exe/rbdock.cxx#4 $)

>  <Rbt.Library>
libRbt.so (2013.1, Build901 2013/11/27)

>  <Rbt.Parameter_File>
/export/apps/rDock/src/rDock_2013.1_src/data/scripts/dock_solv.prm

>  <Rbt.Receptor>
prm/blind_docking_20.prm

>  <SCORE>
-58.864

>  <SCORE.INTER>
-60.3883

>  <SCORE.INTER.CONST>
1

>  <SCORE.INTER.POLAR>
-6.00749

>  <SCORE.INTER.ROT>
2

>  <SCORE.INTER.SOLV>
16.9029

>  <SCORE.INTER.VDW>
-30.8016

>  <SCORE.INTER.norm>
-4.64526

>  <SCORE.INTRA>
1.49765

>  <SCORE.INTRA.DIHEDRAL>
0.575674

>  <SCORE.INTRA.DIHEDRAL.0>
1.43995

>  <SCORE.INTRA.POLAR>
0.272593

>  <SCORE.INTRA.POLAR.0>
-0.272593

>  <SCORE.INTRA.REPUL>
0

>  <SCORE.INTRA.REPUL.0>
0

>  <SCORE.INTRA.SOLV>
-0.506735

>  <SCORE.INTRA.SOLV.lig_0>
-22.6728

>  <SCORE.INTRA.VDW>
0.536367

>  <SCORE.INTRA.VDW.0>
-0.754459

>  <SCORE.INTRA.norm>
0.115204

>  <SCORE.RESTR>
0.0267267

>  <SCORE.RESTR.CAVITY>
0.0267267

>  <SCORE.RESTR.norm>
0.0020559

>  <SCORE.SYSTEM>
0

>  <SCORE.SYSTEM.CONST>
0

>  <SCORE.SYSTEM.DIHEDRAL>
0

>  <SCORE.SYSTEM.SOLV>
0

>  <SCORE.SYSTEM.norm>
0

>  <SCORE.heavy>
13

>  <SCORE.norm>
-4.528

>  <RMSD>
0.673

$$$$
lig.pdb
 OpenBabel11021811453D
libRbt.so/2013.1/901 2013/11/27
 13 14  0  0  0  0  0  0  0  0999 V2000
    2.2747    3.5035   -4.2692 N   0  0  0  0  0  0  0  0  0  0  0  0
    3.5152    2.9188   -4.3422 C   0  0  0  0  0  0  0  0  0  0  0  0
    3.7589    1.7832   -3.6973 N   0  0  0  0  0  0  0  0  0  0  0  0
    2.7937    1.1635   -2.9498 C   0  0  0  0  0  0  0  0  0  0  0  0
    1.5017    1.7380   -2.8401 C   0  0  0  0  0  0  0  0  0  0  0  0
    1.2565    2.9533   -3.5405 C   0  0  0  0  0  0  0  0  0  0  0  0
    0.1675    3.4965   -3.4976 O   0  0  0  0  0  0  0  0  0  0  0  0
    0.7266    0.8639   -1.9598 C   0  0  0  0  0  0  0  0  0  0  0  0
   -0.6854    1.0778   -1.4856 C   0  0  0  0  0  0  0  0  0  0  0  0
   -1.2414   -0.1943   -1.0039 N   0  0  0  0  0  0  0  0  0  0  0  0
    1.5374   -0.1524   -1.6392 C   0  0  0  0  0  0  0  0  0  0  0  0
    2.7682    0.0227   -2.2141 N   0  0  0  0  0  0  0  0  0  0  0  0
    4.5021    3.5049   -5.0904 N   0  0  0  0  0  0  0  0  0  0  0  0
  1  6  1  0  0  0  0
  2  1  1  0  0  0  0
  2  3  2  0  0  0  0
  3  4  1  0  0  0  0
  4  5  2  0  0  0  0
  4 12  1  0  0  0  0
  5  8  1  0  0  0  0
  6  7  2  0  0  0  0
  6  5  1  0  0  0  0
  8 11  2  0  0  0  0
  8  9  1  0  0  0  0
 10  9  1  0  0  0  0
 12 11  1  0  0  0  0
 13  2  1  0  0  0  0
M  END
>  <CHROM.1>
161.43838195,-90.70100084,1.74237597,1.76114792,-2.97599900,0.79134149,0.28378539
-0.55910682

>  <Name>
lig.pdb

>  <RI>
2.7104e+07

>  <Rbt.Current_Directory>
/home/itssahil/PROJECTS/Mol_Feturizer/New_Systems/rnas/2l1v

>  <Rbt.Executable>
rbdock ($Id: //depot/dev/client3/rdock/2013.1/src/exe/rbdock.cxx#4 $)

>  <Rbt.Library>
libRbt.so (2013.1, Build901 2013/11/27)

>  <Rbt.Parameter_File>
/export/apps/rDock/src/rDock_2013.1_src/data/scripts/dock_solv.prm

>  <Rbt.Receptor>
prm/pocket_docking_8.prm

>  <SCORE>
-58.8519

>  <SCORE.INTER>
-60.3789

>  <SCORE.INTER.CONST>
1

>  <SCORE.INTER.POLAR>
-6.02208

>  <SCORE.INTER.ROT>
2

>  <SCORE.INTER.SOLV>
16.9059

>  <SCORE.INTER.VDW>
-30.7476

>  <SCORE.INTER.norm>
-4.64453

>  <SCORE.INTRA>
1.5026

>  <SCORE.INTRA.DIHEDRAL>
0.589419

>  <SCORE.INTRA.DIHEDRAL.0>
1.43995

>  <SCORE.INTRA.POLAR>
0.272593

>  <SCORE.INTRA.POLAR.0>
-0.272593

>  <SCORE.INTRA.REPUL>
0

>  <SCORE.INTRA.REPUL.0>
0

>  <SCORE.INTRA.SOLV>
-0.507043

>  <SCORE.INTRA.SOLV.lig_0>
-22.6728

>  <SCORE.INTRA.VDW>
0.534601

>  <SCORE.INTRA.VDW.0>
-0.754459

>  <SCORE.INTRA.norm>
0.115585

>  <SCORE.RESTR>
0.0243344

>  <SCORE.RESTR.CAVITY>
0.0243344

>  <SCORE.RESTR.norm>
0.00187187

>  <SCORE.SYSTEM>
0

>  <SCORE.SYSTEM.CONST>
0

>  <SCORE.SYSTEM.DIHEDRAL>
0

>  <SCORE.SYSTEM.SOLV>
0

>  <SCORE.SYSTEM.norm>
0

>  <SCORE.heavy>
13

>  <SCORE.norm>
-4.52707

>  <RMSD>
0.673

$$$$
lig.pdb
 OpenBabel11021811453D
libRbt.so/2013.1/901 2013/11/27
 13 14  0  0  0  0  0  0  0  0999 V2000
    2.2720    3.5043   -4.2778 N   0  0  0  0  0  0  0  0  0  0  0  0
    3.5125    2.9189   -4.3460 C   0  0  0  0  0  0  0  0  0  0  0  0
    3.7545    1.7859   -3.6958 N   0  0  0  0  0  0  0  0  0  0  0  0
    2.7877    1.1696   -2.9476 C   0  0  0  0  0  0  0  0  0  0  0  0
    1.4958    1.7450   -2.8428 C   0  0  0  0  0  0  0  0  0  0  0  0
    1.2522    2.9574   -3.5488 C   0  0  0  0  0  0  0  0  0  0  0  0
    0.1634    3.5011   -3.5102 O   0  0  0  0  0  0  0  0  0  0  0  0
    0.7187    0.8749   -1.9602 C   0  0  0  0  0  0  0  0  0  0  0  0
   -0.6941    1.0913   -1.4896 C   0  0  0  0  0  0  0  0  0  0  0  0
   -1.2487   -0.1769   -0.9959 N   0  0  0  0  0  0  0  0  0  0  0  0
    1.5285   -0.1403   -1.6338 C   0  0  0  0  0  0  0  0  0  0  0  0
    2.7605    0.0320   -2.2071 N   0  0  0  0  0  0  0  0  0  0  0  0
    4.5009    3.5015   -5.0947 N   0  0  0  0  0  0  0  0  0  0  0  0
  1  6  1  0  0  0  0
  2  1  1  0  0  0  0
  2  3  2  0  0  0  0
  3  4  1  0  0  0  0
  4  5  2  0  0  0  0
  4 12  1  0  0  0  0
  5  8  1  0  0  0  0
  6  7  2  0  0  0  0
  6  5  1  0  0  0  0
  8 11  2  0  0  0  0
  8  9  1  0  0  0  0
 10  9  1  0  0  0  0
 12 11  1  0  0  0  0
 13  2  1  0  0  0  0
M  END
>  <CHROM.1>
161.78811695,86.12219952,1.73724423,1.76753069,-2.97765112,0.79076669,0.28269779
-0.56332796

>  <Name>
lig.pdb

>  <RI>
2.50021e+07

>  <Rbt.Current_Directory>
/home/itssahil/PROJECTS/Mol_Feturizer/New_Systems/rnas/2l1v

>  <Rbt.Executable>
rbdock ($Id: //depot/dev/client3/rdock/2013.1/src/exe/rbdock.cxx#4 $)

>  <Rbt.Library>
libRbt.so (2013.1, Build901 2013/11/27)

>  <Rbt.Parameter_File>
/export/apps/rDock/src/rDock_2013.1_src/data/scripts/dock_solv.prm

>  <Rbt.Receptor>
prm/pocket_docking_5.prm

>  <SCORE>
-58.9404

>  <SCORE.INTER>
-60.3989

>  <SCORE.INTER.CONST>
1

>  <SCORE.INTER.POLAR>
-5.99061

>  <SCORE.INTER.ROT>
2

>  <SCORE.INTER.SOLV>
16.9022

>  <SCORE.INTER.VDW>
-30.8647

>  <SCORE.INTER.norm>
-4.64607

>  <SCORE.INTRA>
1.42825

>  <SCORE.INTRA.DIHEDRAL>
0.440574

>  <SCORE.INTRA.DIHEDRAL.0>
1.43995

>  <SCORE.INTRA.POLAR>
0.272593

>  <SCORE.INTRA.POLAR.0>
-0.272593

>  <SCORE.INTRA.REPUL>
0

>  <SCORE.INTRA.REPUL.0>
0

>  <SCORE.INTRA.SOLV>
-0.50508

>  <SCORE.INTRA.SOLV.lig_0>
-22.6728

>  <SCORE.INTRA.VDW>
0.533688

>  <SCORE.INTRA.VDW.0>
-0.754459

>  <SCORE.INTRA.norm>
0.109865

>  <SCORE.RESTR>
0.0303199

>  <SCORE.RESTR.CAVITY>
0.0303199

>  <SCORE.RESTR.norm>
0.0023323

>  <SCORE.SYSTEM>
0

>  <SCORE.SYSTEM.CONST>
0

>  <SCORE.SYSTEM.DIHEDRAL>
0

>  <SCORE.SYSTEM.SOLV>
0

>  <SCORE.SYSTEM.norm>
0

>  <SCORE.heavy>
13

>  <SCORE.norm>
-4.53387

>  <RMSD>
0.674

$$$$
lig.pdb
 OpenBabel11021811453D
libRbt.so/2013.1/901 2013/11/27
 13 14  0  0  0  0  0  0  0  0999 V2000
    2.2716    3.5126   -4.2819 N   0  0  0  0  0  0  0  0  0  0  0  0
    3.5093    2.9210   -4.3468 C   0  0  0  0  0  0  0  0  0  0  0  0
    3.7459    1.7902   -3.6908 N   0  0  0  0  0  0  0  0  0  0  0  0
    2.7760    1.1824   -2.9397 C   0  0  0  0  0  0  0  0  0  0  0  0
    1.4868    1.7644   -2.8381 C   0  0  0  0  0  0  0  0  0  0  0  0
    1.2491    2.9743   -3.5503 C   0  0  0  0  0  0  0  0  0  0  0  0
    0.1628    3.5234   -3.5148 O   0  0  0  0  0  0  0  0  0  0  0  0
    0.7054    0.9025   -1.9513 C   0  0  0  0  0  0  0  0  0  0  0  0
   -0.7065    1.1279   -1.4822 C   0  0  0  0  0  0  0  0  0  0  0  0
   -1.2791   -0.1422   -1.0147 N   0  0  0  0  0  0  0  0  0  0  0  0
    1.5104   -0.1149   -1.6195 C   0  0  0  0  0  0  0  0  0  0  0  0
    2.7433    0.0487   -2.1934 N   0  0  0  0  0  0  0  0  0  0  0  0
    4.5007    3.4951   -5.0983 N   0  0  0  0  0  0  0  0  0  0  0  0
  1  6  1  0  0  0  0
  2  1  1  0  0  0  0
  2  3  2  0  0  0  0
  3  4  1  0  0  0  0
  4  5  2  0  0  0  0
  4 12  1  0  0  0  0
  5  8  1  0  0  0  0
  6  7  2  0  0  0  0
  6  5  1  0  0  0  0
  8 11  2  0  0  0  0
  8  9  1  0  0  0  0
 10  9  1  0  0  0  0
 12 11  1  0  0  0  0
 13  2  1  0  0  0  0
M  END
>  <CHROM.1>
160.32119488,87.85328914,1.72726731,1.78442701,-2.97608426,0.78502038,0.28287665
-0.56581043

>  <Name>
lig.pdb

>  <RI>
2.50021e+07

>  <Rbt.Current_Directory>
/home/itssahil/PROJECTS/Mol_Feturizer/New_Systems/rnas/2l1v

>  <Rbt.Executable>
rbdock ($Id: //depot/dev/client3/rdock/2013.1/src/exe/rbdock.cxx#4 $)

>  <Rbt.Library>
libRbt.so (2013.1, Build901 2013/11/27)

>  <Rbt.Parameter_File>
/export/apps/rDock/src/rDock_2013.1_src/data/scripts/dock_solv.prm

>  <Rbt.Receptor>
prm/pocket_docking_5.prm

>  <SCORE>
-59.0363

>  <SCORE.INTER>
-60.5304

>  <SCORE.INTER.CONST>
1

>  <SCORE.INTER.POLAR>
-5.9986

>  <SCORE.INTER.ROT>
2

>  <SCORE.INTER.SOLV>
16.9263

>  <SCORE.INTER.VDW>
-30.9337

>  <SCORE.INTER.norm>
-4.65618

>  <SCORE.INTRA>
1.45456

>  <SCORE.INTRA.DIHEDRAL>
0.512686

>  <SCORE.INTRA.DIHEDRAL.0>
1.43995

>  <SCORE.INTRA.POLAR>
0.272593

>  <SCORE.INTRA.POLAR.0>
-0.272593

>  <SCORE.INTRA.REPUL>
0

>  <SCORE.INTRA.REPUL.0>
0

>  <SCORE.INTRA.SOLV>
-0.50666

>  <SCORE.INTRA.SOLV.lig_0>
-22.6728

>  <SCORE.INTRA.VDW>
0.524735

>  <SCORE.INTRA.VDW.0>
-0.754459

>  <SCORE.INTRA.norm>
0.111889

>  <SCORE.RESTR>
0.0394969

>  <SCORE.RESTR.CAVITY>
0.0394969

>  <SCORE.RESTR.norm>
0.00303822

>  <SCORE.SYSTEM>
0

>  <SCORE.SYSTEM.CONST>
0

>  <SCORE.SYSTEM.DIHEDRAL>
0

>  <SCORE.SYSTEM.SOLV>
0

>  <SCORE.SYSTEM.norm>
0

>  <SCORE.heavy>
13

>  <SCORE.norm>
-4.54125

>  <RMSD>
0.674

$$$$
lig.pdb
 OpenBabel11021811453D
libRbt.so/2013.1/901 2013/11/27
 13 14  0  0  0  0  0  0  0  0999 V2000
    2.2731    3.5120   -4.2766 N   0  0  0  0  0  0  0  0  0  0  0  0
    3.5101    2.9191   -4.3431 C   0  0  0  0  0  0  0  0  0  0  0  0
    3.7467    1.7885   -3.6868 N   0  0  0  0  0  0  0  0  0  0  0  0
    2.7774    1.1821   -2.9337 C   0  0  0  0  0  0  0  0  0  0  0  0
    1.4889    1.7654   -2.8304 C   0  0  0  0  0  0  0  0  0  0  0  0
    1.2513    2.9751   -3.5430 C   0  0  0  0  0  0  0  0  0  0  0  0
    0.1656    3.5252   -3.5061 O   0  0  0  0  0  0  0  0  0  0  0  0
    0.7082    0.9048   -1.9418 C   0  0  0  0  0  0  0  0  0  0  0  0
   -0.7028    1.1319   -1.4705 C   0  0  0  0  0  0  0  0  0  0  0  0
   -1.2828   -0.1411   -1.0205 N   0  0  0  0  0  0  0  0  0  0  0  0
    1.5127   -0.1131   -1.6107 C   0  0  0  0  0  0  0  0  0  0  0  0
    2.7448    0.0489   -2.1866 N   0  0  0  0  0  0  0  0  0  0  0  0
    4.5009    3.4918   -5.0966 N   0  0  0  0  0  0  0  0  0  0  0  0
  1  6  1  0  0  0  0
  2  1  1  0  0  0  0
  2  3  2  0  0  0  0
  3  4  1  0  0  0  0
  4  5  2  0  0  0  0
  4 12  1  0  0  0  0
  5  8  1  0  0  0  0
  6  7  2  0  0  0  0
  6  5  1  0  0  0  0
  8 11  2  0  0  0  0
  8  9  1  0  0  0  0
 10  9  1  0  0  0  0
 12 11  1  0  0  0  0
 13  2  1  0  0  0  0
M  END
>  <CHROM.1>
159.46291117,87.65596859,1.72856246,1.78476753,-2.97057557,0.78420360,0.28340804
-0.56570204

>  <Name>
lig.pdb

>  <RI>
2.50021e+07

>  <Rbt.Current_Directory>
/home/itssahil/PROJECTS/Mol_Feturizer/New_Systems/rnas/2l1v

>  <Rbt.Executable>
rbdock ($Id: //depot/dev/client3/rdock/2013.1/src/exe/rbdock.cxx#4 $)

>  <Rbt.Library>
libRbt.so (2013.1, Build901 2013/11/27)

>  <Rbt.Parameter_File>
/export/apps/rDock/src/rDock_2013.1_src/data/scripts/dock_solv.prm

>  <Rbt.Receptor>
prm/pocket_docking_5.prm

>  <SCORE>
-59.0185

>  <SCORE.INTER>
-60.5254

>  <SCORE.INTER.CONST>
1

>  <SCORE.INTER.POLAR>
-6.0072

>  <SCORE.INTER.ROT>
2

>  <SCORE.INTER.SOLV>
16.9131

>  <SCORE.INTER.VDW>
-30.8973

>  <SCORE.INTER.norm>
-4.6558

>  <SCORE.INTRA>
1.47121

>  <SCORE.INTRA.DIHEDRAL>
0.556734

>  <SCORE.INTRA.DIHEDRAL.0>
1.43995

>  <SCORE.INTRA.POLAR>
0.272593

>  <SCORE.INTRA.POLAR.0>
-0.272593

>  <SCORE.INTRA.REPUL>
0

>  <SCORE.INTRA.REPUL.0>
0

>  <SCORE.INTRA.SOLV>
-0.507601

>  <SCORE.INTRA.SOLV.lig_0>
-22.6728

>  <SCORE.INTRA.VDW>
0.519828

>  <SCORE.INTRA.VDW.0>
-0.754459

>  <SCORE.INTRA.norm>
0.11317

>  <SCORE.RESTR>
0.0357139

>  <SCORE.RESTR.CAVITY>
0.0357139

>  <SCORE.RESTR.norm>
0.00274722

>  <SCORE.SYSTEM>
0

>  <SCORE.SYSTEM.CONST>
0

>  <SCORE.SYSTEM.DIHEDRAL>
0

>  <SCORE.SYSTEM.SOLV>
0

>  <SCORE.SYSTEM.norm>
0

>  <SCORE.heavy>
13

>  <SCORE.norm>
-4.53989

>  <RMSD>
0.674

$$$$
lig.pdb
 OpenBabel11021811453D
libRbt.so/2013.1/901 2013/11/27
 13 14  0  0  0  0  0  0  0  0999 V2000
    2.2673    3.5219   -4.3012 N   0  0  0  0  0  0  0  0  0  0  0  0
    3.5127    2.9453   -4.3542 C   0  0  0  0  0  0  0  0  0  0  0  0
    3.7604    1.8246   -3.6852 N   0  0  0  0  0  0  0  0  0  0  0  0
    2.7946    1.2125   -2.9321 C   0  0  0  0  0  0  0  0  0  0  0  0
    1.4977    1.7792   -2.8426 C   0  0  0  0  0  0  0  0  0  0  0  0
    1.2482    2.9785   -3.5687 C   0  0  0  0  0  0  0  0  0  0  0  0
    0.1550    3.5141   -3.5440 O   0  0  0  0  0  0  0  0  0  0  0  0
    0.7231    0.9169   -1.9503 C   0  0  0  0  0  0  0  0  0  0  0  0
   -0.6938    1.1295   -1.4901 C   0  0  0  0  0  0  0  0  0  0  0  0
   -1.2436   -0.1370   -0.9870 N   0  0  0  0  0  0  0  0  0  0  0  0
    1.5392   -0.0866   -1.6041 C   0  0  0  0  0  0  0  0  0  0  0  0
    2.7726    0.0864   -2.1740 N   0  0  0  0  0  0  0  0  0  0  0  0
    4.5003    3.5239   -5.1072 N   0  0  0  0  0  0  0  0  0  0  0  0
  1  6  1  0  0  0  0
  2  1  1  0  0  0  0
  2  3  2  0  0  0  0
  3  4  1  0  0  0  0
  4  5  2  0  0  0  0
  4 12  1  0  0  0  0
  5  8  1  0  0  0  0
  6  7  2  0  0  0  0
  6  5  1  0  0  0  0
  8 11  2  0  0  0  0
  8  9  1  0  0  0  0
 10  9  1  0  0  0  0
 12 11  1  0  0  0  0
 13  2  1  0  0  0  0
M  END
>  <CHROM.1>
161.43904739,86.52168440,1.73944072,1.80137324,-2.97738411,0.79451054,0.27377676
-0.57977315

>  <Name>
lig.pdb

>  <RI>
2.7104e+07

>  <Rbt.Current_Directory>
/home/itssahil/PROJECTS/Mol_Feturizer/New_Systems/rnas/2l1v

>  <Rbt.Executable>
rbdock ($Id: //depot/dev/client3/rdock/2013.1/src/exe/rbdock.cxx#4 $)

>  <Rbt.Library>
libRbt.so (2013.1, Build901 2013/11/27)

>  <Rbt.Parameter_File>
/export/apps/rDock/src/rDock_2013.1_src/data/scripts/dock_solv.prm

>  <Rbt.Receptor>
prm/pocket_docking_8.prm

>  <SCORE>
-59.1367

>  <SCORE.INTER>
-60.6579

>  <SCORE.INTER.CONST>
1

>  <SCORE.INTER.POLAR>
-5.98272

>  <SCORE.INTER.ROT>
2

>  <SCORE.INTER.SOLV>
16.8847

>  <SCORE.INTER.VDW>
-31.0578

>  <SCORE.INTER.norm>
-4.66599

>  <SCORE.INTRA>
1.43436

>  <SCORE.INTRA.DIHEDRAL>
0.457388

>  <SCORE.INTRA.DIHEDRAL.0>
1.43995

>  <SCORE.INTRA.POLAR>
0.272593

>  <SCORE.INTRA.POLAR.0>
-0.272593

>  <SCORE.INTRA.REPUL>
0

>  <SCORE.INTRA.REPUL.0>
0

>  <SCORE.INTRA.SOLV>
-0.505448

>  <SCORE.INTRA.SOLV.lig_0>
-22.6728

>  <SCORE.INTRA.VDW>
0.531578

>  <SCORE.INTRA.VDW.0>
-0.754459

>  <SCORE.INTRA.norm>
0.110336

>  <SCORE.RESTR>
0.0868404

>  <SCORE.RESTR.CAVITY>
0.0868404

>  <SCORE.RESTR.norm>
0.00668003

>  <SCORE.SYSTEM>
0

>  <SCORE.SYSTEM.CONST>
0

>  <SCORE.SYSTEM.DIHEDRAL>
0

>  <SCORE.SYSTEM.SOLV>
0

>  <SCORE.SYSTEM.norm>
0

>  <SCORE.heavy>
13

>  <SCORE.norm>
-4.54898

>  <RMSD>
0.674

$$$$
lig.pdb
 OpenBabel11021811453D
libRbt.so/2013.1/901 2013/11/27
 13 14  0  0  0  0  0  0  0  0999 V2000
    2.2810    3.5060   -4.2485 N   0  0  0  0  0  0  0  0  0  0  0  0
    3.5192    2.9187   -4.3376 C   0  0  0  0  0  0  0  0  0  0  0  0
    3.7628    1.7723   -3.7119 N   0  0  0  0  0  0  0  0  0  0  0  0
    2.7997    1.1440   -2.9689 C   0  0  0  0  0  0  0  0  0  0  0  0
    1.5103    1.7207   -2.8431 C   0  0  0  0  0  0  0  0  0  0  0  0
    1.2650    2.9476   -3.5229 C   0  0  0  0  0  0  0  0  0  0  0  0
    0.1781    3.4934   -3.4655 O   0  0  0  0  0  0  0  0  0  0  0  0
    0.7372    0.8353   -1.9722 C   0  0  0  0  0  0  0  0  0  0  0  0
   -0.6715    1.0462   -1.4869 C   0  0  0  0  0  0  0  0  0  0  0  0
   -1.2209   -0.2271   -1.0008 N   0  0  0  0  0  0  0  0  0  0  0  0
    1.5465   -0.1884   -1.6721 C   0  0  0  0  0  0  0  0  0  0  0  0
    2.7747   -0.0081   -2.2510 N   0  0  0  0  0  0  0  0  0  0  0  0
    4.5038    3.5134   -5.0819 N   0  0  0  0  0  0  0  0  0  0  0  0
  1  6  1  0  0  0  0
  2  1  1  0  0  0  0
  2  3  2  0  0  0  0
  3  4  1  0  0  0  0
  4  5  2  0  0  0  0
  4 12  1  0  0  0  0
  5  8  1  0  0  0  0
  6  7  2  0  0  0  0
  6  5  1  0  0  0  0
  8 11  2  0  0  0  0
  8  9  1  0  0  0  0
 10  9  1  0  0  0  0
 12 11  1  0  0  0  0
 13  2  1  0  0  0  0
M  END
>  <CHROM.1>
162.40347069,-93.04234585,1.75097611,1.74567016,-2.97787972,0.79252507,0.29148168
-0.54450164

>  <Name>
lig.pdb

>  <RI>
4.17264e+07

>  <Rbt.Current_Directory>
/home/itssahil/PROJECTS/Mol_Feturizer/New_Systems/rnas/2l1v

>  <Rbt.Executable>
rbdock ($Id: //depot/dev/client3/rdock/2013.1/src/exe/rbdock.cxx#4 $)

>  <Rbt.Library>
libRbt.so (2013.1, Build901 2013/11/27)

>  <Rbt.Parameter_File>
/export/apps/rDock/src/rDock_2013.1_src/data/scripts/dock_solv.prm

>  <Rbt.Receptor>
prm/blind_docking_20.prm

>  <SCORE>
-58.7976

>  <SCORE.INTER>
-60.2973

>  <SCORE.INTER.CONST>
1

>  <SCORE.INTER.POLAR>
-6.02567

>  <SCORE.INTER.ROT>
2

>  <SCORE.INTER.SOLV>
16.9332

>  <SCORE.INTER.VDW>
-30.6904

>  <SCORE.INTER.norm>
-4.63826

>  <SCORE.INTRA>
1.48557

>  <SCORE.INTRA.DIHEDRAL>
0.542545

>  <SCORE.INTRA.DIHEDRAL.0>
1.43995

>  <SCORE.INTRA.POLAR>
0.272593

>  <SCORE.INTRA.POLAR.0>
-0.272593

>  <SCORE.INTRA.REPUL>
0

>  <SCORE.INTRA.REPUL.0>
0

>  <SCORE.INTRA.SOLV>
-0.506013

>  <SCORE.INTRA.SOLV.lig_0>
-22.6728

>  <SCORE.INTRA.VDW>
0.54049

>  <SCORE.INTRA.VDW.0>
-0.754459

>  <SCORE.INTRA.norm>
0.114275

>  <SCORE.RESTR>
0.0141372

>  <SCORE.RESTR.CAVITY>
0.0141372

>  <SCORE.RESTR.norm>
0.00108748

>  <SCORE.SYSTEM>
0

>  <SCORE.SYSTEM.CONST>
0

>  <SCORE.SYSTEM.DIHEDRAL>
0

>  <SCORE.SYSTEM.SOLV>
0

>  <SCORE.SYSTEM.norm>
0

>  <SCORE.heavy>
13

>  <SCORE.norm>
-4.52289

>  <RMSD>
0.675

$$$$
lig.pdb
 OpenBabel11021811453D
libRbt.so/2013.1/901 2013/11/27
 13 14  0  0  0  0  0  0  0  0999 V2000
    2.3006    3.5825   -4.3254 N   0  0  0  0  0  0  0  0  0  0  0  0
    3.5569    3.0281   -4.3478 C   0  0  0  0  0  0  0  0  0  0  0  0
    3.8079    1.9114   -3.6733 N   0  0  0  0  0  0  0  0  0  0  0  0
    2.8349    1.2816   -2.9446 C   0  0  0  0  0  0  0  0  0  0  0  0
    1.5263    1.8252   -2.8870 C   0  0  0  0  0  0  0  0  0  0  0  0
    1.2735    3.0204   -3.6186 C   0  0  0  0  0  0  0  0  0  0  0  0
    0.1707    3.5366   -3.6207 O   0  0  0  0  0  0  0  0  0  0  0  0
    0.7452    0.9485   -2.0145 C   0  0  0  0  0  0  0  0  0  0  0  0
   -0.6861    1.1355   -1.5894 C   0  0  0  0  0  0  0  0  0  0  0  0
   -1.2027   -0.1221   -1.0316 N   0  0  0  0  0  0  0  0  0  0  0  0
    1.5702   -0.0407   -1.6486 C   0  0  0  0  0  0  0  0  0  0  0  0
    2.8141    0.1547   -2.1877 N   0  0  0  0  0  0  0  0  0  0  0  0
    4.5525    3.6248   -5.0759 N   0  0  0  0  0  0  0  0  0  0  0  0
  1  6  1  0  0  0  0
  2  1  1  0  0  0  0
  2  3  2  0  0  0  0
  3  4  1  0  0  0  0
  4  5  2  0  0  0  0
  4 12  1  0  0  0  0
  5  8  1  0  0  0  0
  6  7  2  0  0  0  0
  6  5  1  0  0  0  0
  8 11  2  0  0  0  0
  8  9  1  0  0  0  0
 10  9  1  0  0  0  0
 12 11  1  0  0  0  0
 13  2  1  0  0  0  0
M  END
>  <CHROM.1>
164.54944242,-94.22521275,1.77261946,1.85365047,-3.00921608,0.79829408,0.24807603
-0.58261236

>  <Name>
lig.pdb

>  <RI>
1.75485e+07

>  <Rbt.Current_Directory>
/home/itssahil/PROJECTS/Mol_Feturizer/New_Systems/rnas/2l1v

>  <Rbt.Executable>
rbdock ($Id: //depot/dev/client3/rdock/2013.1/src/exe/rbdock.cxx#4 $)

>  <Rbt.Library>
libRbt.so (2013.1, Build901 2013/11/27)

>  <Rbt.Parameter_File>
/export/apps/rDock/src/rDock_2013.1_src/data/scripts/dock_solv.prm

>  <Rbt.Receptor>
prm/pocket_docking_4.prm

>  <SCORE>
-59.2904

>  <SCORE.INTER>
-60.7808

>  <SCORE.INTER.CONST>
1

>  <SCORE.INTER.POLAR>
-6.10609

>  <SCORE.INTER.ROT>
2

>  <SCORE.INTER.SOLV>
17.0331

>  <SCORE.INTER.VDW>
-30.7779

>  <SCORE.INTER.norm>
-4.67544

>  <SCORE.INTRA>
1.4491

>  <SCORE.INTRA.DIHEDRAL>
0.444409

>  <SCORE.INTRA.DIHEDRAL.0>
1.43995

>  <SCORE.INTRA.POLAR>
0.272593

>  <SCORE.INTRA.POLAR.0>
-0.272593

>  <SCORE.INTRA.REPUL>
0

>  <SCORE.INTRA.REPUL.0>
0

>  <SCORE.INTRA.SOLV>
-0.503942

>  <SCORE.INTRA.SOLV.lig_0>
-22.6728

>  <SCORE.INTRA.VDW>
0.552056

>  <SCORE.INTRA.VDW.0>
-0.754459

>  <SCORE.INTRA.norm>
0.11147

>  <SCORE.RESTR>
0.0412504

>  <SCORE.RESTR.CAVITY>
0.0412504

>  <SCORE.RESTR.norm>
0.00317311

>  <SCORE.SYSTEM>
0

>  <SCORE.SYSTEM.CONST>
0

>  <SCORE.SYSTEM.DIHEDRAL>
0

>  <SCORE.SYSTEM.SOLV>
0

>  <SCORE.SYSTEM.norm>
0

>  <SCORE.heavy>
13

>  <SCORE.norm>
-4.5608

>  <RMSD>
0.675

$$$$
lig.pdb
 OpenBabel11021811453D
libRbt.so/2013.1/901 2013/11/27
 13 14  0  0  0  0  0  0  0  0999 V2000
    2.2784    3.5757   -4.3224 N   0  0  0  0  0  0  0  0  0  0  0  0
    3.5267    3.0045   -4.3630 C   0  0  0  0  0  0  0  0  0  0  0  0
    3.7758    1.8911   -3.6823 N   0  0  0  0  0  0  0  0  0  0  0  0
    2.8086    1.2815   -2.9291 C   0  0  0  0  0  0  0  0  0  0  0  0
    1.5086    1.8429   -2.8522 C   0  0  0  0  0  0  0  0  0  0  0  0
    1.2577    3.0343   -3.5907 C   0  0  0  0  0  0  0  0  0  0  0  0
    0.1618    3.5650   -3.5771 O   0  0  0  0  0  0  0  0  0  0  0  0
    0.7329    0.9852   -1.9565 C   0  0  0  0  0  0  0  0  0  0  0  0
   -0.6875    1.1952   -1.5063 C   0  0  0  0  0  0  0  0  0  0  0  0
   -1.2434   -0.0754   -1.0205 N   0  0  0  0  0  0  0  0  0  0  0  0
    1.5516   -0.0114   -1.5964 C   0  0  0  0  0  0  0  0  0  0  0  0
    2.7875    0.1623   -2.1609 N   0  0  0  0  0  0  0  0  0  0  0  0
    4.5159    3.5809   -5.1157 N   0  0  0  0  0  0  0  0  0  0  0  0
  1  6  1  0  0  0  0
  2  1  1  0  0  0  0
  2  3  2  0  0  0  0
  3  4  1  0  0  0  0
  4  5  2  0  0  0  0
  4 12  1  0  0  0  0
  5  8  1  0  0  0  0
  6  7  2  0  0  0  0
  6  5  1  0  0  0  0
  8 11  2  0  0  0  0
  8  9  1  0  0  0  0
 10  9  1  0  0  0  0
 12 11  1  0  0  0  0
 13  2  1  0  0  0  0
M  END
>  <CHROM.1>
160.27598282,85.57226545,1.75010728,1.86434951,-2.98823956,0.79416884,0.26460852
-0.58810011

>  <Name>
lig.pdb

>  <RI>
1.75485e+07

>  <Rbt.Current_Directory>
/home/itssahil/PROJECTS/Mol_Feturizer/New_Systems/rnas/2l1v

>  <Rbt.Executable>
rbdock ($Id: //depot/dev/client3/rdock/2013.1/src/exe/rbdock.cxx#4 $)

>  <Rbt.Library>
libRbt.so (2013.1, Build901 2013/11/27)

>  <Rbt.Parameter_File>
/export/apps/rDock/src/rDock_2013.1_src/data/scripts/dock_solv.prm

>  <Rbt.Receptor>
prm/pocket_docking_4.prm

>  <SCORE>
-59.466

>  <SCORE.INTER>
-60.9777

>  <SCORE.INTER.CONST>
1

>  <SCORE.INTER.POLAR>
-6.02493

>  <SCORE.INTER.ROT>
2

>  <SCORE.INTER.SOLV>
16.9777

>  <SCORE.INTER.VDW>
-31.1613

>  <SCORE.INTER.norm>
-4.69059

>  <SCORE.INTRA>
1.45688

>  <SCORE.INTRA.DIHEDRAL>
0.515901

>  <SCORE.INTRA.DIHEDRAL.0>
1.43995

>  <SCORE.INTRA.POLAR>
0.272593

>  <SCORE.INTRA.POLAR.0>
-0.272593

>  <SCORE.INTRA.REPUL>
0

>  <SCORE.INTRA.REPUL.0>
0

>  <SCORE.INTRA.SOLV>
-0.506661

>  <SCORE.INTRA.SOLV.lig_0>
-22.6728

>  <SCORE.INTRA.VDW>
0.52545

>  <SCORE.INTRA.VDW.0>
-0.754459

>  <SCORE.INTRA.norm>
0.112068

>  <SCORE.RESTR>
0.0548064

>  <SCORE.RESTR.CAVITY>
0.0548064

>  <SCORE.RESTR.norm>
0.00421588

>  <SCORE.SYSTEM>
0

>  <SCORE.SYSTEM.CONST>
0

>  <SCORE.SYSTEM.DIHEDRAL>
0

>  <SCORE.SYSTEM.SOLV>
0

>  <SCORE.SYSTEM.norm>
0

>  <SCORE.heavy>
13

>  <SCORE.norm>
-4.57431

>  <RMSD>
0.675

$$$$
lig.pdb
 OpenBabel11021811453D
libRbt.so/2013.1/901 2013/11/27
 13 14  0  0  0  0  0  0  0  0999 V2000
    2.2718    3.5107   -4.2810 N   0  0  0  0  0  0  0  0  0  0  0  0
    3.5103    2.9204   -4.3442 C   0  0  0  0  0  0  0  0  0  0  0  0
    3.7481    1.7916   -3.6853 N   0  0  0  0  0  0  0  0  0  0  0  0
    2.7789    1.1845   -2.9327 C   0  0  0  0  0  0  0  0  0  0  0  0
    1.4889    1.7652   -2.8329 C   0  0  0  0  0  0  0  0  0  0  0  0
    1.2499    2.9730   -3.5483 C   0  0  0  0  0  0  0  0  0  0  0  0
    0.1629    3.5208   -3.5144 O   0  0  0  0  0  0  0  0  0  0  0  0
    0.7084    0.9046   -1.9441 C   0  0  0  0  0  0  0  0  0  0  0  0
   -0.7039    1.1295   -1.4758 C   0  0  0  0  0  0  0  0  0  0  0  0
   -1.2764   -0.1409   -1.0092 N   0  0  0  0  0  0  0  0  0  0  0  0
    1.5145   -0.1110   -1.6095 C   0  0  0  0  0  0  0  0  0  0  0  0
    2.7473    0.0527   -2.1836 N   0  0  0  0  0  0  0  0  0  0  0  0
    4.5011    3.4938   -5.0970 N   0  0  0  0  0  0  0  0  0  0  0  0
  1  6  1  0  0  0  0
  2  1  1  0  0  0  0
  2  3  2  0  0  0  0
  3  4  1  0  0  0  0
  4  5  2  0  0  0  0
  4 12  1  0  0  0  0
  5  8  1  0  0  0  0
  6  7  2  0  0  0  0
  6  5  1  0  0  0  0
  8 11  2  0  0  0  0
  8  9  1  0  0  0  0
 10  9  1  0  0  0  0
 12 11  1  0  0  0  0
 13  2  1  0  0  0  0
M  END
>  <CHROM.1>
160.14118434,87.68891987,1.72924837,1.78506951,-2.97126822,0.78580789,0.28177289
-0.56847317

>  <Name>
lig.pdb

>  <RI>
2.05237e+07

>  <Rbt.Current_Directory>
/home/itssahil/PROJECTS/Mol_Feturizer/New_Systems/rnas/2l1v

>  <Rbt.Executable>
rbdock ($Id: //depot/dev/client3/rdock/2013.1/src/exe/rbdock.cxx#4 $)

>  <Rbt.Library>
libRbt.so (2013.1, Build901 2013/11/27)

>  <Rbt.Parameter_File>
/export/apps/rDock/src/rDock_2013.1_src/data/scripts/dock_solv.prm

>  <Rbt.Receptor>
prm/blind_docking_100.prm

>  <SCORE>
-59.0389

>  <SCORE.INTER>
-60.5343

>  <SCORE.INTER.CONST>
1

>  <SCORE.INTER.POLAR>
-6.00138

>  <SCORE.INTER.ROT>
2

>  <SCORE.INTER.SOLV>
16.8997

>  <SCORE.INTER.VDW>
-30.9182

>  <SCORE.INTER.norm>
-4.65649

>  <SCORE.INTRA>
1.45808

>  <SCORE.INTRA.DIHEDRAL>
0.521867

>  <SCORE.INTRA.DIHEDRAL.0>
1.43995

>  <SCORE.INTRA.POLAR>
0.272593

>  <SCORE.INTRA.POLAR.0>
-0.272593

>  <SCORE.INTRA.REPUL>
0

>  <SCORE.INTRA.REPUL.0>
0

>  <SCORE.INTRA.SOLV>
-0.506853

>  <SCORE.INTRA.SOLV.lig_0>
-22.6728

>  <SCORE.INTRA.VDW>
0.523759

>  <SCORE.INTRA.VDW.0>
-0.754459

>  <SCORE.INTRA.norm>
0.11216

>  <SCORE.RESTR>
0.0372963

>  <SCORE.RESTR.CAVITY>
0.0372963

>  <SCORE.RESTR.norm>
0.00286895

>  <SCORE.SYSTEM>
0

>  <SCORE.SYSTEM.CONST>
0

>  <SCORE.SYSTEM.DIHEDRAL>
0

>  <SCORE.SYSTEM.SOLV>
0

>  <SCORE.SYSTEM.norm>
0

>  <SCORE.heavy>
13

>  <SCORE.norm>
-4.54146

>  <RMSD>
0.676

$$$$
lig.pdb
 OpenBabel11021811453D
libRbt.so/2013.1/901 2013/11/27
 13 14  0  0  0  0  0  0  0  0999 V2000
    2.2758    3.5184   -4.2725 N   0  0  0  0  0  0  0  0  0  0  0  0
    3.5128    2.9257   -4.3409 C   0  0  0  0  0  0  0  0  0  0  0  0
    3.7496    1.7938   -3.6870 N   0  0  0  0  0  0  0  0  0  0  0  0
    2.7807    1.1858   -2.9346 C   0  0  0  0  0  0  0  0  0  0  0  0
    1.4923    1.7689   -2.8295 C   0  0  0  0  0  0  0  0  0  0  0  0
    1.2543    2.9801   -3.5396 C   0  0  0  0  0  0  0  0  0  0  0  0
    0.1686    3.5302   -3.5010 O   0  0  0  0  0  0  0  0  0  0  0  0
    0.7120    0.9065   -1.9423 C   0  0  0  0  0  0  0  0  0  0  0  0
   -0.6987    1.1327   -1.4699 C   0  0  0  0  0  0  0  0  0  0  0  0
   -1.2750   -0.1393   -1.0123 N   0  0  0  0  0  0  0  0  0  0  0  0
    1.5166   -0.1121   -1.6137 C   0  0  0  0  0  0  0  0  0  0  0  0
    2.7484    0.0511   -2.1899 N   0  0  0  0  0  0  0  0  0  0  0  0
    4.5031    3.4999   -5.0937 N   0  0  0  0  0  0  0  0  0  0  0  0
  1  6  1  0  0  0  0
  2  1  1  0  0  0  0
  2  3  2  0  0  0  0
  3  4  1  0  0  0  0
  4  5  2  0  0  0  0
  4 12  1  0  0  0  0
  5  8  1  0  0  0  0
  6  7  2  0  0  0  0
  6  5  1  0  0  0  0
  8 11  2  0  0  0  0
  8  9  1  0  0  0  0
 10  9  1  0  0  0  0
 12 11  1  0  0  0  0
 13  2  1  0  0  0  0
M  END
>  <CHROM.1>
159.90536911,-90.25108783,1.73187019,1.78892215,-2.96877761,0.78450591,0.28463908
-0.56412818

>  <Name>
lig.pdb

>  <RI>
2.50021e+07

>  <Rbt.Current_Directory>
/home/itssahil/PROJECTS/Mol_Feturizer/New_Systems/rnas/2l1v

>  <Rbt.Executable>
rbdock ($Id: //depot/dev/client3/rdock/2013.1/src/exe/rbdock.cxx#4 $)

>  <Rbt.Library>
libRbt.so (2013.1, Build901 2013/11/27)

>  <Rbt.Parameter_File>
/export/apps/rDock/src/rDock_2013.1_src/data/scripts/dock_solv.prm

>  <Rbt.Receptor>
prm/pocket_docking_5.prm

>  <SCORE>
-58.9521

>  <SCORE.INTER>
-60.5215

>  <SCORE.INTER.CONST>
1

>  <SCORE.INTER.POLAR>
-6.01501

>  <SCORE.INTER.ROT>
2

>  <SCORE.INTER.SOLV>
16.9094

>  <SCORE.INTER.VDW>
-30.8674

>  <SCORE.INTER.norm>
-4.6555

>  <SCORE.INTRA>
1.53139

>  <SCORE.INTRA.DIHEDRAL>
0.666255

>  <SCORE.INTRA.DIHEDRAL.0>
1.43995

>  <SCORE.INTRA.POLAR>
0.272593

>  <SCORE.INTRA.POLAR.0>
-0.272593

>  <SCORE.INTRA.REPUL>
0

>  <SCORE.INTRA.REPUL.0>
0

>  <SCORE.INTRA.SOLV>
-0.508689

>  <SCORE.INTRA.SOLV.lig_0>
-22.6728

>  <SCORE.INTRA.VDW>
0.525787

>  <SCORE.INTRA.VDW.0>
-0.754459

>  <SCORE.INTRA.norm>
0.117799

>  <SCORE.RESTR>
0.0380106

>  <SCORE.RESTR.CAVITY>
0.0380106

>  <SCORE.RESTR.norm>
0.00292389

>  <SCORE.SYSTEM>
0

>  <SCORE.SYSTEM.CONST>
0

>  <SCORE.SYSTEM.DIHEDRAL>
0

>  <SCORE.SYSTEM.SOLV>
0

>  <SCORE.SYSTEM.norm>
0

>  <SCORE.heavy>
13

>  <SCORE.norm>
-4.53478

>  <RMSD>
0.676

$$$$
lig.pdb
 OpenBabel11021811453D
libRbt.so/2013.1/901 2013/11/27
 13 14  0  0  0  0  0  0  0  0999 V2000
    2.2732    3.5131   -4.2769 N   0  0  0  0  0  0  0  0  0  0  0  0
    3.5106    2.9209   -4.3431 C   0  0  0  0  0  0  0  0  0  0  0  0
    3.7474    1.7902   -3.6869 N   0  0  0  0  0  0  0  0  0  0  0  0
    2.7782    1.1831   -2.9344 C   0  0  0  0  0  0  0  0  0  0  0  0
    1.4893    1.7657   -2.8315 C   0  0  0  0  0  0  0  0  0  0  0  0
    1.2513    2.9755   -3.5439 C   0  0  0  0  0  0  0  0  0  0  0  0
    0.1653    3.5250   -3.5073 O   0  0  0  0  0  0  0  0  0  0  0  0
    0.7086    0.9045   -1.9435 C   0  0  0  0  0  0  0  0  0  0  0  0
   -0.7027    1.1307   -1.4728 C   0  0  0  0  0  0  0  0  0  0  0  0
   -1.2778   -0.1404   -1.0111 N   0  0  0  0  0  0  0  0  0  0  0  0
    1.5135   -0.1131   -1.6123 C   0  0  0  0  0  0  0  0  0  0  0  0
    2.7458    0.0497   -2.1876 N   0  0  0  0  0  0  0  0  0  0  0  0
    4.5013    3.4943   -5.0959 N   0  0  0  0  0  0  0  0  0  0  0  0
  1  6  1  0  0  0  0
  2  1  1  0  0  0  0
  2  3  2  0  0  0  0
  3  4  1  0  0  0  0
  4  5  2  0  0  0  0
  4 12  1  0  0  0  0
  5  8  1  0  0  0  0
  6  7  2  0  0  0  0
  6  5  1  0  0  0  0
  8 11  2  0  0  0  0
  8  9  1  0  0  0  0
 10  9  1  0  0  0  0
 12 11  1  0  0  0  0
 13  2  1  0  0  0  0
M  END
>  <CHROM.1>
160.01069439,87.80579508,1.72940739,1.78545471,-2.97044739,0.78497129,0.28362215
-0.56596859

>  <Name>
lig.pdb

>  <RI>
2.50021e+07

>  <Rbt.Current_Directory>
/home/itssahil/PROJECTS/Mol_Feturizer/New_Systems/rnas/2l1v

>  <Rbt.Executable>
rbdock ($Id: //depot/dev/client3/rdock/2013.1/src/exe/rbdock.cxx#4 $)

>  <Rbt.Library>
libRbt.so (2013.1, Build901 2013/11/27)

>  <Rbt.Parameter_File>
/export/apps/rDock/src/rDock_2013.1_src/data/scripts/dock_solv.prm

>  <Rbt.Receptor>
prm/pocket_docking_5.prm

>  <SCORE>
-59.0288

>  <SCORE.INTER>
-60.5261

>  <SCORE.INTER.CONST>
1

>  <SCORE.INTER.POLAR>
-6.00578

>  <SCORE.INTER.ROT>
2

>  <SCORE.INTER.SOLV>
16.9064

>  <SCORE.INTER.VDW>
-30.9003

>  <SCORE.INTER.norm>
-4.65585

>  <SCORE.INTRA>
1.46053

>  <SCORE.INTRA.DIHEDRAL>
0.528499

>  <SCORE.INTRA.DIHEDRAL.0>
1.43995

>  <SCORE.INTRA.POLAR>
0.272593

>  <SCORE.INTRA.POLAR.0>
-0.272593

>  <SCORE.INTRA.REPUL>
0

>  <SCORE.INTRA.REPUL.0>
0

>  <SCORE.INTRA.SOLV>
-0.506998

>  <SCORE.INTRA.SOLV.lig_0>
-22.6728

>  <SCORE.INTRA.VDW>
0.522963

>  <SCORE.INTRA.VDW.0>
-0.754459

>  <SCORE.INTRA.norm>
0.112348

>  <SCORE.RESTR>
0.0367351

>  <SCORE.RESTR.CAVITY>
0.0367351

>  <SCORE.RESTR.norm>
0.00282578

>  <SCORE.SYSTEM>
0

>  <SCORE.SYSTEM.CONST>
0

>  <SCORE.SYSTEM.DIHEDRAL>
0

>  <SCORE.SYSTEM.SOLV>
0

>  <SCORE.SYSTEM.norm>
0

>  <SCORE.heavy>
13

>  <SCORE.norm>
-4.54068

>  <RMSD>
0.676

$$$$
lig.pdb
 OpenBabel11021811453D
libRbt.so/2013.1/901 2013/11/27
 13 14  0  0  0  0  0  0  0  0999 V2000
    2.2807    3.5331   -4.2635 N   0  0  0  0  0  0  0  0  0  0  0  0
    3.5139    2.9332   -4.3378 C   0  0  0  0  0  0  0  0  0  0  0  0
    3.7436    1.7936   -3.6947 N   0  0  0  0  0  0  0  0  0  0  0  0
    2.7710    1.1846   -2.9480 C   0  0  0  0  0  0  0  0  0  0  0  0
    1.4863    1.7749   -2.8371 C   0  0  0  0  0  0  0  0  0  0  0  0
    1.2559    2.9943   -3.5355 C   0  0  0  0  0  0  0  0  0  0  0  0
    0.1738    3.5509   -3.4915 O   0  0  0  0  0  0  0  0  0  0  0  0
    0.7006    0.9091   -1.9580 C   0  0  0  0  0  0  0  0  0  0  0  0
   -0.7086    1.1397   -1.4832 C   0  0  0  0  0  0  0  0  0  0  0  0
   -1.2928   -0.1329   -1.0374 N   0  0  0  0  0  0  0  0  0  0  0  0
    1.4987   -0.1177   -1.6393 C   0  0  0  0  0  0  0  0  0  0  0  0
    2.7315    0.0431   -2.2141 N   0  0  0  0  0  0  0  0  0  0  0  0
    4.5078    3.5082   -5.0852 N   0  0  0  0  0  0  0  0  0  0  0  0
  1  6  1  0  0  0  0
  2  1  1  0  0  0  0
  2  3  2  0  0  0  0
  3  4  1  0  0  0  0
  4  5  2  0  0  0  0
  4 12  1  0  0  0  0
  5  8  1  0  0  0  0
  6  7  2  0  0  0  0
  6  5  1  0  0  0  0
  8 11  2  0  0  0  0
  8  9  1  0  0  0  0
 10  9  1  0  0  0  0
 12 11  1  0  0  0  0
 13  2  1  0  0  0  0
M  END
>  <CHROM.1>
159.91657843,88.11988113,1.72628859,1.79456169,-2.97627201,0.77937020,0.28808438
-0.55299137

>  <Name>
lig.pdb

>  <RI>
9.54411e+06

>  <Rbt.Current_Directory>
/home/itssahil/PROJECTS/Mol_Feturizer/New_Systems/rnas/2l1v

>  <Rbt.Executable>
rbdock ($Id: //depot/dev/client3/rdock/2013.1/src/exe/rbdock.cxx#4 $)

>  <Rbt.Library>
libRbt.so (2013.1, Build901 2013/11/27)

>  <Rbt.Parameter_File>
/export/apps/rDock/src/rDock_2013.1_src/data/scripts/dock_solv.prm

>  <Rbt.Receptor>
prm/pocket_docking_6.prm

>  <SCORE>
-59.0071

>  <SCORE.INTER>
-60.5135

>  <SCORE.INTER.CONST>
1

>  <SCORE.INTER.POLAR>
-6.03473

>  <SCORE.INTER.ROT>
2

>  <SCORE.INTER.SOLV>
16.9929

>  <SCORE.INTER.VDW>
-30.8242

>  <SCORE.INTER.norm>
-4.65489

>  <SCORE.INTRA>
1.4622

>  <SCORE.INTRA.DIHEDRAL>
0.53326

>  <SCORE.INTRA.DIHEDRAL.0>
1.43995

>  <SCORE.INTRA.POLAR>
0.272593

>  <SCORE.INTRA.POLAR.0>
-0.272593

>  <SCORE.INTRA.REPUL>
0

>  <SCORE.INTRA.REPUL.0>
0

>  <SCORE.INTRA.SOLV>
-0.507107

>  <SCORE.INTRA.SOLV.lig_0>
-22.6728

>  <SCORE.INTRA.VDW>
0.522309

>  <SCORE.INTRA.VDW.0>
-0.754459

>  <SCORE.INTRA.norm>
0.112477

>  <SCORE.RESTR>
0.0441742

>  <SCORE.RESTR.CAVITY>
0.0441742

>  <SCORE.RESTR.norm>
0.00339801

>  <SCORE.SYSTEM>
0

>  <SCORE.SYSTEM.CONST>
0

>  <SCORE.SYSTEM.DIHEDRAL>
0

>  <SCORE.SYSTEM.SOLV>
0

>  <SCORE.SYSTEM.norm>
0

>  <SCORE.heavy>
13

>  <SCORE.norm>
-4.53901

>  <RMSD>
0.676

$$$$
lig.pdb
 OpenBabel11021811453D
libRbt.so/2013.1/901 2013/11/27
 13 14  0  0  0  0  0  0  0  0999 V2000
    2.2746    3.5117   -4.2966 N   0  0  0  0  0  0  0  0  0  0  0  0
    3.5170    2.9278   -4.3364 C   0  0  0  0  0  0  0  0  0  0  0  0
    3.7522    1.8082   -3.6609 N   0  0  0  0  0  0  0  0  0  0  0  0
    2.7764    1.2046   -2.9141 C   0  0  0  0  0  0  0  0  0  0  0  0
    1.4820    1.7791   -2.8383 C   0  0  0  0  0  0  0  0  0  0  0  0
    1.2459    2.9770   -3.5711 C   0  0  0  0  0  0  0  0  0  0  0  0
    0.1556    3.5190   -3.5581 O   0  0  0  0  0  0  0  0  0  0  0  0
    0.6945    0.9248   -1.9496 C   0  0  0  0  0  0  0  0  0  0  0  0
   -0.7251    1.1472   -1.5028 C   0  0  0  0  0  0  0  0  0  0  0  0
   -1.3022   -0.1240   -1.0442 N   0  0  0  0  0  0  0  0  0  0  0  0
    1.5017   -0.0821   -1.5923 C   0  0  0  0  0  0  0  0  0  0  0  0
    2.7411    0.0816   -2.1519 N   0  0  0  0  0  0  0  0  0  0  0  0
    4.5146    3.4978   -5.0827 N   0  0  0  0  0  0  0  0  0  0  0  0
  1  6  1  0  0  0  0
  2  1  1  0  0  0  0
  2  3  2  0  0  0  0
  3  4  1  0  0  0  0
  4  5  2  0  0  0  0
  4 12  1  0  0  0  0
  5  8  1  0  0  0  0
  6  7  2  0  0  0  0
  6  5  1  0  0  0  0
  8 11  2  0  0  0  0
  8  9  1  0  0  0  0
 10  9  1  0  0  0  0
 12 11  1  0  0  0  0
 13  2  1  0  0  0  0
M  END
>  <CHROM.1>
159.44960885,87.21013113,1.72357258,1.79845524,-2.97510301,0.78248557,0.26649819
-0.57907542

>  <Name>
lig.pdb

>  <RI>
9.54411e+06

>  <Rbt.Current_Directory>
/home/itssahil/PROJECTS/Mol_Feturizer/New_Systems/rnas/2l1v

>  <Rbt.Executable>
rbdock ($Id: //depot/dev/client3/rdock/2013.1/src/exe/rbdock.cxx#4 $)

>  <Rbt.Library>
libRbt.so (2013.1, Build901 2013/11/27)

>  <Rbt.Parameter_File>
/export/apps/rDock/src/rDock_2013.1_src/data/scripts/dock_solv.prm

>  <Rbt.Receptor>
prm/pocket_docking_6.prm

>  <SCORE>
-59.0329

>  <SCORE.INTER>
-60.5482

>  <SCORE.INTER.CONST>
1

>  <SCORE.INTER.POLAR>
-6.02852

>  <SCORE.INTER.ROT>
2

>  <SCORE.INTER.SOLV>
16.915

>  <SCORE.INTER.VDW>
-30.8421

>  <SCORE.INTER.norm>
-4.65755

>  <SCORE.INTRA>
1.4717

>  <SCORE.INTRA.DIHEDRAL>
0.557547

>  <SCORE.INTRA.DIHEDRAL.0>
1.43995

>  <SCORE.INTRA.POLAR>
0.272593

>  <SCORE.INTRA.POLAR.0>
-0.272593

>  <SCORE.INTRA.REPUL>
0

>  <SCORE.INTRA.REPUL.0>
0

>  <SCORE.INTRA.SOLV>
-0.507607

>  <SCORE.INTRA.SOLV.lig_0>
-22.6728

>  <SCORE.INTRA.VDW>
0.51992

>  <SCORE.INTRA.VDW.0>
-0.754459

>  <SCORE.INTRA.norm>
0.113208

>  <SCORE.RESTR>
0.0436199

>  <SCORE.RESTR.CAVITY>
0.0436199

>  <SCORE.RESTR.norm>
0.00335537

>  <SCORE.SYSTEM>
0

>  <SCORE.SYSTEM.CONST>
0

>  <SCORE.SYSTEM.DIHEDRAL>
0

>  <SCORE.SYSTEM.SOLV>
0

>  <SCORE.SYSTEM.norm>
0

>  <SCORE.heavy>
13

>  <SCORE.norm>
-4.54099

>  <RMSD>
0.676

$$$$
lig.pdb
 OpenBabel11021811453D
libRbt.so/2013.1/901 2013/11/27
 13 14  0  0  0  0  0  0  0  0999 V2000
    2.2713    3.5101   -4.2795 N   0  0  0  0  0  0  0  0  0  0  0  0
    3.5090    2.9183   -4.3436 C   0  0  0  0  0  0  0  0  0  0  0  0
    3.7455    1.7884   -3.6859 N   0  0  0  0  0  0  0  0  0  0  0  0
    2.7756    1.1819   -2.9337 C   0  0  0  0  0  0  0  0  0  0  0  0
    1.4864    1.7642   -2.8329 C   0  0  0  0  0  0  0  0  0  0  0  0
    1.2488    2.9730   -3.5470 C   0  0  0  0  0  0  0  0  0  0  0  0
    0.1626    3.5223   -3.5122 O   0  0  0  0  0  0  0  0  0  0  0  0
    0.7051    0.9037   -1.9447 C   0  0  0  0  0  0  0  0  0  0  0  0
   -0.7068    1.1301   -1.4758 C   0  0  0  0  0  0  0  0  0  0  0  0
   -1.2813   -0.1403   -1.0115 N   0  0  0  0  0  0  0  0  0  0  0  0
    1.5099   -0.1132   -1.6115 C   0  0  0  0  0  0  0  0  0  0  0  0
    2.7428    0.0493   -2.1857 N   0  0  0  0  0  0  0  0  0  0  0  0
    4.5004    3.4911   -5.0961 N   0  0  0  0  0  0  0  0  0  0  0  0
  1  6  1  0  0  0  0
  2  1  1  0  0  0  0
  2  3  2  0  0  0  0
  3  4  1  0  0  0  0
  4  5  2  0  0  0  0
  4 12  1  0  0  0  0
  5  8  1  0  0  0  0
  6  7  2  0  0  0  0
  6  5  1  0  0  0  0
  8 11  2  0  0  0  0
  8  9  1  0  0  0  0
 10  9  1  0  0  0  0
 12 11  1  0  0  0  0
 13  2  1  0  0  0  0
M  END
>  <CHROM.1>
160.09290280,-90.17025523,1.72644169,1.78405329,-2.97136467,0.78432386,0.28276880
-0.56712784

>  <Name>
lig.pdb

>  <RI>
9.54411e+06

>  <Rbt.Current_Directory>
/home/itssahil/PROJECTS/Mol_Feturizer/New_Systems/rnas/2l1v

>  <Rbt.Executable>
rbdock ($Id: //depot/dev/client3/rdock/2013.1/src/exe/rbdock.cxx#4 $)

>  <Rbt.Library>
libRbt.so (2013.1, Build901 2013/11/27)

>  <Rbt.Parameter_File>
/export/apps/rDock/src/rDock_2013.1_src/data/scripts/dock_solv.prm

>  <Rbt.Receptor>
prm/pocket_docking_6.prm

>  <SCORE>
-58.9509

>  <SCORE.INTER>
-60.5151

>  <SCORE.INTER.CONST>
1

>  <SCORE.INTER.POLAR>
-5.99761

>  <SCORE.INTER.ROT>
2

>  <SCORE.INTER.SOLV>
16.9041

>  <SCORE.INTER.VDW>
-30.9194

>  <SCORE.INTER.norm>
-4.65501

>  <SCORE.INTRA>
1.52776

>  <SCORE.INTRA.DIHEDRAL>
0.656655

>  <SCORE.INTRA.DIHEDRAL.0>
1.43995

>  <SCORE.INTRA.POLAR>
0.272593

>  <SCORE.INTRA.POLAR.0>
-0.272593

>  <SCORE.INTRA.REPUL>
0

>  <SCORE.INTRA.REPUL.0>
0

>  <SCORE.INTRA.SOLV>
-0.508485

>  <SCORE.INTRA.SOLV.lig_0>
-22.6728

>  <SCORE.INTRA.VDW>
0.526859

>  <SCORE.INTRA.VDW.0>
-0.754459

>  <SCORE.INTRA.norm>
0.11752

>  <SCORE.RESTR>
0.0364099

>  <SCORE.RESTR.CAVITY>
0.0364099

>  <SCORE.RESTR.norm>
0.00280076

>  <SCORE.SYSTEM>
0

>  <SCORE.SYSTEM.CONST>
0

>  <SCORE.SYSTEM.DIHEDRAL>
0

>  <SCORE.SYSTEM.SOLV>
0

>  <SCORE.SYSTEM.norm>
0

>  <SCORE.heavy>
13

>  <SCORE.norm>
-4.53469

>  <RMSD>
0.676

$$$$
lig.pdb
 OpenBabel11021811453D
libRbt.so/2013.1/901 2013/11/27
 13 14  0  0  0  0  0  0  0  0999 V2000
    2.2750    3.5121   -4.2736 N   0  0  0  0  0  0  0  0  0  0  0  0
    3.5136    2.9228   -4.3432 C   0  0  0  0  0  0  0  0  0  0  0  0
    3.7540    1.7913   -3.6899 N   0  0  0  0  0  0  0  0  0  0  0  0
    2.7874    1.1803   -2.9371 C   0  0  0  0  0  0  0  0  0  0  0  0
    1.4974    1.7599   -2.8308 C   0  0  0  0  0  0  0  0  0  0  0  0
    1.2556    2.9707   -3.5401 C   0  0  0  0  0  0  0  0  0  0  0  0
    0.1684    3.5177   -3.5004 O   0  0  0  0  0  0  0  0  0  0  0  0
    0.7201    0.8949   -1.9433 C   0  0  0  0  0  0  0  0  0  0  0  0
   -0.6908    1.1170   -1.4697 C   0  0  0  0  0  0  0  0  0  0  0  0
   -1.2591   -0.1546   -1.0011 N   0  0  0  0  0  0  0  0  0  0  0  0
    1.5278   -0.1216   -1.6157 C   0  0  0  0  0  0  0  0  0  0  0  0
    2.7588    0.0452   -2.1928 N   0  0  0  0  0  0  0  0  0  0  0  0
    4.5018    3.5001   -5.0964 N   0  0  0  0  0  0  0  0  0  0  0  0
  1  6  1  0  0  0  0
  2  1  1  0  0  0  0
  2  3  2  0  0  0  0
  3  4  1  0  0  0  0
  4  5  2  0  0  0  0
  4 12  1  0  0  0  0
  5  8  1  0  0  0  0
  6  7  2  0  0  0  0
  6  5  1  0  0  0  0
  8 11  2  0  0  0  0
  8  9  1  0  0  0  0
 10  9  1  0  0  0  0
 12 11  1  0  0  0  0
 13  2  1  0  0  0  0
M  END
>  <CHROM.1>
160.40367896,87.28647741,1.73754917,1.78060959,-2.96921442,0.78826049,0.28444185
-0.56495486

>  <Name>
lig.pdb

>  <RI>
2.7104e+07

>  <Rbt.Current_Directory>
/home/itssahil/PROJECTS/Mol_Feturizer/New_Systems/rnas/2l1v

>  <Rbt.Executable>
rbdock ($Id: //depot/dev/client3/rdock/2013.1/src/exe/rbdock.cxx#4 $)

>  <Rbt.Library>
libRbt.so (2013.1, Build901 2013/11/27)

>  <Rbt.Parameter_File>
/export/apps/rDock/src/rDock_2013.1_src/data/scripts/dock_solv.prm

>  <Rbt.Receptor>
prm/pocket_docking_8.prm

>  <SCORE>
-58.9947

>  <SCORE.INTER>
-60.4815

>  <SCORE.INTER.CONST>
1

>  <SCORE.INTER.POLAR>
-6.00849

>  <SCORE.INTER.ROT>
2

>  <SCORE.INTER.SOLV>
16.8901

>  <SCORE.INTER.VDW>
-30.8561

>  <SCORE.INTER.norm>
-4.65242

>  <SCORE.INTRA>
1.45328

>  <SCORE.INTRA.DIHEDRAL>
0.508653

>  <SCORE.INTRA.DIHEDRAL.0>
1.43995

>  <SCORE.INTRA.POLAR>
0.272593

>  <SCORE.INTRA.POLAR.0>
-0.272593

>  <SCORE.INTRA.REPUL>
0

>  <SCORE.INTRA.REPUL.0>
0

>  <SCORE.INTRA.SOLV>
-0.50656

>  <SCORE.INTRA.SOLV.lig_0>
-22.6728

>  <SCORE.INTRA.VDW>
0.525418

>  <SCORE.INTRA.VDW.0>
-0.754459

>  <SCORE.INTRA.norm>
0.111791

>  <SCORE.RESTR>
0.0334735

>  <SCORE.RESTR.CAVITY>
0.0334735

>  <SCORE.RESTR.norm>
0.00257488

>  <SCORE.SYSTEM>
0

>  <SCORE.SYSTEM.CONST>
0

>  <SCORE.SYSTEM.DIHEDRAL>
0

>  <SCORE.SYSTEM.SOLV>
0

>  <SCORE.SYSTEM.norm>
0

>  <SCORE.heavy>
13

>  <SCORE.norm>
-4.53806

>  <RMSD>
0.676

$$$$
lig.pdb
 OpenBabel11021811453D
libRbt.so/2013.1/901 2013/11/27
 13 14  0  0  0  0  0  0  0  0999 V2000
    2.2732    3.5424   -4.2883 N   0  0  0  0  0  0  0  0  0  0  0  0
    3.4985    2.9258   -4.3557 C   0  0  0  0  0  0  0  0  0  0  0  0
    3.7083    1.7817   -3.7137 N   0  0  0  0  0  0  0  0  0  0  0  0
    2.7224    1.1845   -2.9749 C   0  0  0  0  0  0  0  0  0  0  0  0
    1.4452    1.7921   -2.8713 C   0  0  0  0  0  0  0  0  0  0  0  0
    1.2363    3.0161   -3.5684 C   0  0  0  0  0  0  0  0  0  0  0  0
    0.1616    3.5874   -3.5303 O   0  0  0  0  0  0  0  0  0  0  0  0
    0.6418    0.9352   -1.9994 C   0  0  0  0  0  0  0  0  0  0  0  0
   -0.7672    1.1841   -1.5335 C   0  0  0  0  0  0  0  0  0  0  0  0
   -1.3592   -0.0748   -1.0602 N   0  0  0  0  0  0  0  0  0  0  0  0
    1.4237   -0.1031   -1.6777 C   0  0  0  0  0  0  0  0  0  0  0  0
    2.6624    0.0420   -2.2439 N   0  0  0  0  0  0  0  0  0  0  0  0
    4.5052    3.4888   -5.0951 N   0  0  0  0  0  0  0  0  0  0  0  0
  1  6  1  0  0  0  0
  2  1  1  0  0  0  0
  2  3  2  0  0  0  0
  3  4  1  0  0  0  0
  4  5  2  0  0  0  0
  4 12  1  0  0  0  0
  5  8  1  0  0  0  0
  6  7  2  0  0  0  0
  6  5  1  0  0  0  0
  8 11  2  0  0  0  0
  8  9  1  0  0  0  0
 10  9  1  0  0  0  0
 12 11  1  0  0  0  0
 13  2  1  0  0  0  0
M  END
>  <CHROM.1>
161.45627739,89.80526098,1.68755126,1.80938730,-3.00555708,0.76503623,0.29204621
-0.54752664

>  <Name>
lig.pdb

>  <RI>
2.7104e+07

>  <Rbt.Current_Directory>
/home/itssahil/PROJECTS/Mol_Feturizer/New_Systems/rnas/2l1v

>  <Rbt.Executable>
rbdock ($Id: //depot/dev/client3/rdock/2013.1/src/exe/rbdock.cxx#4 $)

>  <Rbt.Library>
libRbt.so (2013.1, Build901 2013/11/27)

>  <Rbt.Parameter_File>
/export/apps/rDock/src/rDock_2013.1_src/data/scripts/dock_solv.prm

>  <Rbt.Receptor>
prm/pocket_docking_8.prm

>  <SCORE>
-59.074

>  <SCORE.INTER>
-60.5734

>  <SCORE.INTER.CONST>
1

>  <SCORE.INTER.POLAR>
-5.95747

>  <SCORE.INTER.ROT>
2

>  <SCORE.INTER.SOLV>
17.1379

>  <SCORE.INTER.VDW>
-31.17

>  <SCORE.INTER.norm>
-4.65949

>  <SCORE.INTRA>
1.43269

>  <SCORE.INTRA.DIHEDRAL>
0.456079

>  <SCORE.INTRA.DIHEDRAL.0>
1.43995

>  <SCORE.INTRA.POLAR>
0.272593

>  <SCORE.INTRA.POLAR.0>
-0.272593

>  <SCORE.INTRA.REPUL>
0

>  <SCORE.INTRA.REPUL.0>
0

>  <SCORE.INTRA.SOLV>
-0.505487

>  <SCORE.INTRA.SOLV.lig_0>
-22.6728

>  <SCORE.INTRA.VDW>
0.530581

>  <SCORE.INTRA.VDW.0>
-0.754459

>  <SCORE.INTRA.norm>
0.110207

>  <SCORE.RESTR>
0.0666392

>  <SCORE.RESTR.CAVITY>
0.0666392

>  <SCORE.RESTR.norm>
0.0051261

>  <SCORE.SYSTEM>
0

>  <SCORE.SYSTEM.CONST>
0

>  <SCORE.SYSTEM.DIHEDRAL>
0

>  <SCORE.SYSTEM.SOLV>
0

>  <SCORE.SYSTEM.norm>
0

>  <SCORE.heavy>
13

>  <SCORE.norm>
-4.54416

>  <RMSD>
0.676

$$$$
lig.pdb
 OpenBabel11021811453D
libRbt.so/2013.1/901 2013/11/27
 13 14  0  0  0  0  0  0  0  0999 V2000
    2.2714    3.5136   -4.2862 N   0  0  0  0  0  0  0  0  0  0  0  0
    3.5104    2.9243   -4.3481 C   0  0  0  0  0  0  0  0  0  0  0  0
    3.7478    1.7946   -3.6904 N   0  0  0  0  0  0  0  0  0  0  0  0
    2.7776    1.1857   -2.9406 C   0  0  0  0  0  0  0  0  0  0  0  0
    1.4870    1.7653   -2.8423 C   0  0  0  0  0  0  0  0  0  0  0  0
    1.2484    2.9740   -3.5563 C   0  0  0  0  0  0  0  0  0  0  0  0
    0.1610    3.5210   -3.5235 O   0  0  0  0  0  0  0  0  0  0  0  0
    0.7055    0.9027   -1.9563 C   0  0  0  0  0  0  0  0  0  0  0  0
   -0.7078    1.1259   -1.4903 C   0  0  0  0  0  0  0  0  0  0  0  0
   -1.2659   -0.1370   -0.9872 N   0  0  0  0  0  0  0  0  0  0  0  0
    1.5117   -0.1127   -1.6218 C   0  0  0  0  0  0  0  0  0  0  0  0
    2.7454    0.0527   -2.1933 N   0  0  0  0  0  0  0  0  0  0  0  0
    4.5022    3.4996   -5.0981 N   0  0  0  0  0  0  0  0  0  0  0  0
  1  6  1  0  0  0  0
  2  1  1  0  0  0  0
  2  3  2  0  0  0  0
  3  4  1  0  0  0  0
  4  5  2  0  0  0  0
  4 12  1  0  0  0  0
  5  8  1  0  0  0  0
  6  7  2  0  0  0  0
  6  5  1  0  0  0  0
  8 11  2  0  0  0  0
  8  9  1  0  0  0  0
 10  9  1  0  0  0  0
 12 11  1  0  0  0  0
 13  2  1  0  0  0  0
M  END
>  <CHROM.1>
161.92063710,87.58401783,1.72893509,1.78636544,-2.97651027,0.78714312,0.28256248
-0.56845011

>  <Name>
lig.pdb

>  <RI>
9.54411e+06

>  <Rbt.Current_Directory>
/home/itssahil/PROJECTS/Mol_Feturizer/New_Systems/rnas/2l1v

>  <Rbt.Executable>
rbdock ($Id: //depot/dev/client3/rdock/2013.1/src/exe/rbdock.cxx#4 $)

>  <Rbt.Library>
libRbt.so (2013.1, Build901 2013/11/27)

>  <Rbt.Parameter_File>
/export/apps/rDock/src/rDock_2013.1_src/data/scripts/dock_solv.prm

>  <Rbt.Receptor>
prm/pocket_docking_6.prm

>  <SCORE>
-59.0315

>  <SCORE.INTER>
-60.4988

>  <SCORE.INTER.CONST>
1

>  <SCORE.INTER.POLAR>
-5.97828

>  <SCORE.INTER.ROT>
2

>  <SCORE.INTER.SOLV>
16.9017

>  <SCORE.INTER.VDW>
-30.9722

>  <SCORE.INTER.norm>
-4.65376

>  <SCORE.INTRA>
1.42495

>  <SCORE.INTRA.DIHEDRAL>
0.433616

>  <SCORE.INTRA.DIHEDRAL.0>
1.43995

>  <SCORE.INTRA.POLAR>
0.272593

>  <SCORE.INTRA.POLAR.0>
-0.272593

>  <SCORE.INTRA.REPUL>
0

>  <SCORE.INTRA.REPUL.0>
0

>  <SCORE.INTRA.SOLV>
-0.504974

>  <SCORE.INTRA.SOLV.lig_0>
-22.6728

>  <SCORE.INTRA.VDW>
0.53381

>  <SCORE.INTRA.VDW.0>
-0.754459

>  <SCORE.INTRA.norm>
0.109611

>  <SCORE.RESTR>
0.0423685

>  <SCORE.RESTR.CAVITY>
0.0423685

>  <SCORE.RESTR.norm>
0.00325911

>  <SCORE.SYSTEM>
0

>  <SCORE.SYSTEM.CONST>
0

>  <SCORE.SYSTEM.DIHEDRAL>
0

>  <SCORE.SYSTEM.SOLV>
0

>  <SCORE.SYSTEM.norm>
0

>  <SCORE.heavy>
13

>  <SCORE.norm>
-4.54088

>  <RMSD>
0.677

$$$$
lig.pdb
 OpenBabel11021811453D
libRbt.so/2013.1/901 2013/11/27
 13 14  0  0  0  0  0  0  0  0999 V2000
    2.2745    3.5136   -4.2770 N   0  0  0  0  0  0  0  0  0  0  0  0
    3.5122    2.9222   -4.3436 C   0  0  0  0  0  0  0  0  0  0  0  0
    3.7497    1.7913   -3.6881 N   0  0  0  0  0  0  0  0  0  0  0  0
    2.7808    1.1832   -2.9358 C   0  0  0  0  0  0  0  0  0  0  0  0
    1.4916    1.7651   -2.8326 C   0  0  0  0  0  0  0  0  0  0  0  0
    1.2529    2.9751   -3.5443 C   0  0  0  0  0  0  0  0  0  0  0  0
    0.1666    3.5240   -3.5073 O   0  0  0  0  0  0  0  0  0  0  0  0
    0.7115    0.9029   -1.9450 C   0  0  0  0  0  0  0  0  0  0  0  0
   -0.6999    1.1281   -1.4740 C   0  0  0  0  0  0  0  0  0  0  0  0
   -1.2678   -0.1400   -0.9955 N   0  0  0  0  0  0  0  0  0  0  0  0
    1.5170   -0.1144   -1.6144 C   0  0  0  0  0  0  0  0  0  0  0  0
    2.7491    0.0494   -2.1897 N   0  0  0  0  0  0  0  0  0  0  0  0
    4.5026    3.4966   -5.0962 N   0  0  0  0  0  0  0  0  0  0  0  0
  1  6  1  0  0  0  0
  2  1  1  0  0  0  0
  2  3  2  0  0  0  0
  3  4  1  0  0  0  0
  4  5  2  0  0  0  0
  4 12  1  0  0  0  0
  5  8  1  0  0  0  0
  6  7  2  0  0  0  0
  6  5  1  0  0  0  0
  8 11  2  0  0  0  0
  8  9  1  0  0  0  0
 10  9  1  0  0  0  0
 12 11  1  0  0  0  0
 13  2  1  0  0  0  0
M  END
>  <CHROM.1>
160.79694347,-90.25475333,1.73201396,1.78552318,-2.96977136,0.78588263,0.28469051
-0.56629477

>  <Name>
lig.pdb

>  <RI>
9.54411e+06

>  <Rbt.Current_Directory>
/home/itssahil/PROJECTS/Mol_Feturizer/New_Systems/rnas/2l1v

>  <Rbt.Executable>
rbdock ($Id: //depot/dev/client3/rdock/2013.1/src/exe/rbdock.cxx#4 $)

>  <Rbt.Library>
libRbt.so (2013.1, Build901 2013/11/27)

>  <Rbt.Parameter_File>
/export/apps/rDock/src/rDock_2013.1_src/data/scripts/dock_solv.prm

>  <Rbt.Receptor>
prm/pocket_docking_6.prm

>  <SCORE>
-58.9495

>  <SCORE.INTER>
-60.5006

>  <SCORE.INTER.CONST>
1

>  <SCORE.INTER.POLAR>
-5.99632

>  <SCORE.INTER.ROT>
2

>  <SCORE.INTER.SOLV>
16.8901

>  <SCORE.INTER.VDW>
-30.9093

>  <SCORE.INTER.norm>
-4.65389

>  <SCORE.INTRA>
1.51442

>  <SCORE.INTRA.DIHEDRAL>
0.621117

>  <SCORE.INTRA.DIHEDRAL.0>
1.43995

>  <SCORE.INTRA.POLAR>
0.272593

>  <SCORE.INTRA.POLAR.0>
-0.272593

>  <SCORE.INTRA.REPUL>
0

>  <SCORE.INTRA.REPUL.0>
0

>  <SCORE.INTRA.SOLV>
-0.507725

>  <SCORE.INTRA.SOLV.lig_0>
-22.6728

>  <SCORE.INTRA.VDW>
0.530908

>  <SCORE.INTRA.VDW.0>
-0.754459

>  <SCORE.INTRA.norm>
0.116494

>  <SCORE.RESTR>
0.0366065

>  <SCORE.RESTR.CAVITY>
0.0366065

>  <SCORE.RESTR.norm>
0.00281589

>  <SCORE.SYSTEM>
0

>  <SCORE.SYSTEM.CONST>
0

>  <SCORE.SYSTEM.DIHEDRAL>
0

>  <SCORE.SYSTEM.SOLV>
0

>  <SCORE.SYSTEM.norm>
0

>  <SCORE.heavy>
13

>  <SCORE.norm>
-4.53458

>  <RMSD>
0.677

$$$$
lig.pdb
 OpenBabel11021811453D
libRbt.so/2013.1/901 2013/11/27
 13 14  0  0  0  0  0  0  0  0999 V2000
    2.2883    3.5167   -4.2797 N   0  0  0  0  0  0  0  0  0  0  0  0
    3.5388    2.9518   -4.3368 C   0  0  0  0  0  0  0  0  0  0  0  0
    3.7893    1.8146   -3.6972 N   0  0  0  0  0  0  0  0  0  0  0  0
    2.8216    1.1738   -2.9711 C   0  0  0  0  0  0  0  0  0  0  0  0
    1.5192    1.7274   -2.8784 C   0  0  0  0  0  0  0  0  0  0  0  0
    1.2668    2.9447   -3.5728 C   0  0  0  0  0  0  0  0  0  0  0  0
    0.1690    3.4707   -3.5437 O   0  0  0  0  0  0  0  0  0  0  0  0
    0.7433    0.8341   -2.0184 C   0  0  0  0  0  0  0  0  0  0  0  0
   -0.6796    1.0222   -1.5662 C   0  0  0  0  0  0  0  0  0  0  0  0
   -1.1764   -0.2260   -0.9707 N   0  0  0  0  0  0  0  0  0  0  0  0
    1.5642   -0.1724   -1.6927 C   0  0  0  0  0  0  0  0  0  0  0  0
    2.8016    0.0266   -2.2454 N   0  0  0  0  0  0  0  0  0  0  0  0
    4.5288    3.5593   -5.0634 N   0  0  0  0  0  0  0  0  0  0  0  0
  1  6  1  0  0  0  0
  2  1  1  0  0  0  0
  2  3  2  0  0  0  0
  3  4  1  0  0  0  0
  4  5  2  0  0  0  0
  4 12  1  0  0  0  0
  5  8  1  0  0  0  0
  6  7  2  0  0  0  0
  6  5  1  0  0  0  0
  8 11  2  0  0  0  0
  8  9  1  0  0  0  0
 10  9  1  0  0  0  0
 12 11  1  0  0  0  0
 13  2  1  0  0  0  0
M  END
>  <CHROM.1>
167.50567397,80.88309250,1.76643220,1.75867906,-2.99764801,0.80162833,0.27024063
-0.55823078

>  <Name>
lig.pdb

>  <RI>
2.05237e+07

>  <Rbt.Current_Directory>
/home/itssahil/PROJECTS/Mol_Feturizer/New_Systems/rnas/2l1v

>  <Rbt.Executable>
rbdock ($Id: //depot/dev/client3/rdock/2013.1/src/exe/rbdock.cxx#4 $)

>  <Rbt.Library>
libRbt.so (2013.1, Build901 2013/11/27)

>  <Rbt.Parameter_File>
/export/apps/rDock/src/rDock_2013.1_src/data/scripts/dock_solv.prm

>  <Rbt.Receptor>
prm/blind_docking_100.prm

>  <SCORE>
-58.978

>  <SCORE.INTER>
-60.4068

>  <SCORE.INTER.CONST>
1

>  <SCORE.INTER.POLAR>
-6.01847

>  <SCORE.INTER.ROT>
2

>  <SCORE.INTER.SOLV>
16.9361

>  <SCORE.INTER.VDW>
-30.7884

>  <SCORE.INTER.norm>
-4.64668

>  <SCORE.INTRA>
1.35277

>  <SCORE.INTRA.DIHEDRAL>
0.19929

>  <SCORE.INTRA.DIHEDRAL.0>
1.43995

>  <SCORE.INTRA.POLAR>
0.272593

>  <SCORE.INTRA.POLAR.0>
-0.272593

>  <SCORE.INTRA.REPUL>
0

>  <SCORE.INTRA.REPUL.0>
0

>  <SCORE.INTRA.SOLV>
-0.499785

>  <SCORE.INTRA.SOLV.lig_0>
-22.6728

>  <SCORE.INTRA.VDW>
0.576207

>  <SCORE.INTRA.VDW.0>
-0.754459

>  <SCORE.INTRA.norm>
0.10406

>  <SCORE.RESTR>
0.0760278

>  <SCORE.RESTR.CAVITY>
0.0760278

>  <SCORE.RESTR.norm>
0.00584829

>  <SCORE.SYSTEM>
0

>  <SCORE.SYSTEM.CONST>
0

>  <SCORE.SYSTEM.DIHEDRAL>
0

>  <SCORE.SYSTEM.SOLV>
0

>  <SCORE.SYSTEM.norm>
0

>  <SCORE.heavy>
13

>  <SCORE.norm>
-4.53677

>  <RMSD>
0.678

$$$$
lig.pdb
 OpenBabel11021811453D
libRbt.so/2013.1/901 2013/11/27
 13 14  0  0  0  0  0  0  0  0999 V2000
    2.2693    3.5079   -4.3031 N   0  0  0  0  0  0  0  0  0  0  0  0
    3.5151    2.9310   -4.3402 C   0  0  0  0  0  0  0  0  0  0  0  0
    3.7585    1.8193   -3.6548 N   0  0  0  0  0  0  0  0  0  0  0  0
    2.7879    1.2169   -2.9003 C   0  0  0  0  0  0  0  0  0  0  0  0
    1.4903    1.7843   -2.8269 C   0  0  0  0  0  0  0  0  0  0  0  0
    1.2454    2.9739   -3.5704 C   0  0  0  0  0  0  0  0  0  0  0  0
    0.1519    3.5095   -3.5600 O   0  0  0  0  0  0  0  0  0  0  0  0
    0.7098    0.9336   -1.9286 C   0  0  0  0  0  0  0  0  0  0  0  0
   -0.7101    1.1518   -1.4807 C   0  0  0  0  0  0  0  0  0  0  0  0
   -1.2799   -0.1194   -1.0127 N   0  0  0  0  0  0  0  0  0  0  0  0
    1.5238   -0.0651   -1.5638 C   0  0  0  0  0  0  0  0  0  0  0  0
    2.7610    0.1008   -2.1276 N   0  0  0  0  0  0  0  0  0  0  0  0
    4.5076    3.5000   -5.0941 N   0  0  0  0  0  0  0  0  0  0  0  0
  1  6  1  0  0  0  0
  2  1  1  0  0  0  0
  2  3  2  0  0  0  0
  3  4  1  0  0  0  0
  4  5  2  0  0  0  0
  4 12  1  0  0  0  0
  5  8  1  0  0  0  0
  6  7  2  0  0  0  0
  6  5  1  0  0  0  0
  8 11  2  0  0  0  0
  8  9  1  0  0  0  0
 10  9  1  0  0  0  0
 12 11  1  0  0  0  0
 13  2  1  0  0  0  0
M  END
>  <CHROM.1>
159.28262022,85.98927909,1.73128786,1.80373506,-2.96483658,0.78874327,0.26469967
-0.58998763

>  <Name>
lig.pdb

>  <RI>
2.05237e+07

>  <Rbt.Current_Directory>
/home/itssahil/PROJECTS/Mol_Feturizer/New_Systems/rnas/2l1v

>  <Rbt.Executable>
rbdock ($Id: //depot/dev/client3/rdock/2013.1/src/exe/rbdock.cxx#4 $)

>  <Rbt.Library>
libRbt.so (2013.1, Build901 2013/11/27)

>  <Rbt.Parameter_File>
/export/apps/rDock/src/rDock_2013.1_src/data/scripts/dock_solv.prm

>  <Rbt.Receptor>
prm/blind_docking_100.prm

>  <SCORE>
-58.9598

>  <SCORE.INTER>
-60.4829

>  <SCORE.INTER.CONST>
1

>  <SCORE.INTER.POLAR>
-6.0005

>  <SCORE.INTER.ROT>
2

>  <SCORE.INTER.SOLV>
16.8342

>  <SCORE.INTER.VDW>
-30.865

>  <SCORE.INTER.norm>
-4.65253

>  <SCORE.INTRA>
1.47577

>  <SCORE.INTRA.DIHEDRAL>
0.566745

>  <SCORE.INTRA.DIHEDRAL.0>
1.43995

>  <SCORE.INTRA.POLAR>
0.272593

>  <SCORE.INTRA.POLAR.0>
-0.272593

>  <SCORE.INTRA.REPUL>
0

>  <SCORE.INTRA.REPUL.0>
0

>  <SCORE.INTRA.SOLV>
-0.507767

>  <SCORE.INTRA.SOLV.lig_0>
-22.6728

>  <SCORE.INTRA.VDW>
0.51947

>  <SCORE.INTRA.VDW.0>
-0.754459

>  <SCORE.INTRA.norm>
0.113521

>  <SCORE.RESTR>
0.0473318

>  <SCORE.RESTR.CAVITY>
0.0473318

>  <SCORE.RESTR.norm>
0.00364091

>  <SCORE.SYSTEM>
0

>  <SCORE.SYSTEM.CONST>
0

>  <SCORE.SYSTEM.DIHEDRAL>
0

>  <SCORE.SYSTEM.SOLV>
0

>  <SCORE.SYSTEM.norm>
0

>  <SCORE.heavy>
13

>  <SCORE.norm>
-4.53537

>  <RMSD>
0.679

$$$$
lig.pdb
 OpenBabel11021811453D
libRbt.so/2013.1/901 2013/11/27
 13 14  0  0  0  0  0  0  0  0999 V2000
    2.2733    3.5118   -4.2774 N   0  0  0  0  0  0  0  0  0  0  0  0
    3.5111    2.9206   -4.3437 C   0  0  0  0  0  0  0  0  0  0  0  0
    3.7488    1.7897   -3.6882 N   0  0  0  0  0  0  0  0  0  0  0  0
    2.7798    1.1814   -2.9362 C   0  0  0  0  0  0  0  0  0  0  0  0
    1.4905    1.7629   -2.8332 C   0  0  0  0  0  0  0  0  0  0  0  0
    1.2517    2.9729   -3.5449 C   0  0  0  0  0  0  0  0  0  0  0  0
    0.1653    3.5216   -3.5082 O   0  0  0  0  0  0  0  0  0  0  0  0
    0.7104    0.9005   -1.9459 C   0  0  0  0  0  0  0  0  0  0  0  0
   -0.7012    1.1253   -1.4752 C   0  0  0  0  0  0  0  0  0  0  0  0
   -1.2632   -0.1395   -0.9815 N   0  0  0  0  0  0  0  0  0  0  0  0
    1.5160   -0.1167   -1.6152 C   0  0  0  0  0  0  0  0  0  0  0  0
    2.7482    0.0475   -2.1902 N   0  0  0  0  0  0  0  0  0  0  0  0
    4.5016    3.4952   -5.0960 N   0  0  0  0  0  0  0  0  0  0  0  0
  1  6  1  0  0  0  0
  2  1  1  0  0  0  0
  2  3  2  0  0  0  0
  3  4  1  0  0  0  0
  4  5  2  0  0  0  0
  4 12  1  0  0  0  0
  5  8  1  0  0  0  0
  6  7  2  0  0  0  0
  6  5  1  0  0  0  0
  8 11  2  0  0  0  0
  8  9  1  0  0  0  0
 10  9  1  0  0  0  0
 12 11  1  0  0  0  0
 13  2  1  0  0  0  0
M  END
>  <CHROM.1>
161.49246145,-90.06112367,1.73144527,1.78374197,-2.96893869,0.78662983,0.28546750
-0.56686923

>  <Name>
lig.pdb

>  <RI>
9.54411e+06

>  <Rbt.Current_Directory>
/home/itssahil/PROJECTS/Mol_Feturizer/New_Systems/rnas/2l1v

>  <Rbt.Executable>
rbdock ($Id: //depot/dev/client3/rdock/2013.1/src/exe/rbdock.cxx#4 $)

>  <Rbt.Library>
libRbt.so (2013.1, Build901 2013/11/27)

>  <Rbt.Parameter_File>
/export/apps/rDock/src/rDock_2013.1_src/data/scripts/dock_solv.prm

>  <Rbt.Receptor>
prm/pocket_docking_6.prm

>  <SCORE>
-58.9489

>  <SCORE.INTER>
-60.4861

>  <SCORE.INTER.CONST>
1

>  <SCORE.INTER.POLAR>
-5.98692

>  <SCORE.INTER.ROT>
2

>  <SCORE.INTER.SOLV>
16.8745

>  <SCORE.INTER.VDW>
-30.9258

>  <SCORE.INTER.norm>
-4.65278

>  <SCORE.INTRA>
1.50145

>  <SCORE.INTRA.DIHEDRAL>
0.586693

>  <SCORE.INTRA.DIHEDRAL.0>
1.43995

>  <SCORE.INTRA.POLAR>
0.272593

>  <SCORE.INTRA.POLAR.0>
-0.272593

>  <SCORE.INTRA.REPUL>
0

>  <SCORE.INTRA.REPUL.0>
0

>  <SCORE.INTRA.SOLV>
-0.506998

>  <SCORE.INTRA.SOLV.lig_0>
-22.6728

>  <SCORE.INTRA.VDW>
0.534786

>  <SCORE.INTRA.VDW.0>
-0.754459

>  <SCORE.INTRA.norm>
0.115496

>  <SCORE.RESTR>
0.0358045

>  <SCORE.RESTR.CAVITY>
0.0358045

>  <SCORE.RESTR.norm>
0.0027542

>  <SCORE.SYSTEM>
0

>  <SCORE.SYSTEM.CONST>
0

>  <SCORE.SYSTEM.DIHEDRAL>
0

>  <SCORE.SYSTEM.SOLV>
0

>  <SCORE.SYSTEM.norm>
0

>  <SCORE.heavy>
13

>  <SCORE.norm>
-4.53453

>  <RMSD>
0.679

$$$$
lig.pdb
 OpenBabel11021811453D
libRbt.so/2013.1/901 2013/11/27
 13 14  0  0  0  0  0  0  0  0999 V2000
    2.2811    3.5447   -4.2889 N   0  0  0  0  0  0  0  0  0  0  0  0
    3.5151    2.9436   -4.3344 C   0  0  0  0  0  0  0  0  0  0  0  0
    3.7330    1.8118   -3.6737 N   0  0  0  0  0  0  0  0  0  0  0  0
    2.7472    1.2122   -2.9368 C   0  0  0  0  0  0  0  0  0  0  0  0
    1.4611    1.8042   -2.8555 C   0  0  0  0  0  0  0  0  0  0  0  0
    1.2435    3.0151   -3.5724 C   0  0  0  0  0  0  0  0  0  0  0  0
    0.1611    3.5725   -3.5540 O   0  0  0  0  0  0  0  0  0  0  0  0
    0.6597    0.9492   -1.9798 C   0  0  0  0  0  0  0  0  0  0  0  0
   -0.7574    1.1860   -1.5325 C   0  0  0  0  0  0  0  0  0  0  0  0
   -1.3464   -0.0790   -1.0717 N   0  0  0  0  0  0  0  0  0  0  0  0
    1.4517   -0.0739   -1.6348 C   0  0  0  0  0  0  0  0  0  0  0  0
    2.6944    0.0796   -2.1900 N   0  0  0  0  0  0  0  0  0  0  0  0
    4.5222    3.5093   -5.0712 N   0  0  0  0  0  0  0  0  0  0  0  0
  1  6  1  0  0  0  0
  2  1  1  0  0  0  0
  2  3  2  0  0  0  0
  3  4  1  0  0  0  0
  4  5  2  0  0  0  0
  4 12  1  0  0  0  0
  5  8  1  0  0  0  0
  6  7  2  0  0  0  0
  6  5  1  0  0  0  0
  8 11  2  0  0  0  0
  8  9  1  0  0  0  0
 10  9  1  0  0  0  0
 12 11  1  0  0  0  0
 13  2  1  0  0  0  0
M  END
>  <CHROM.1>
160.36041622,88.45438017,1.70380719,1.82222206,-2.98970894,0.76985343,0.27420281
-0.56268695

>  <Name>
lig.pdb

>  <RI>
2.05237e+07

>  <Rbt.Current_Directory>
/home/itssahil/PROJECTS/Mol_Feturizer/New_Systems/rnas/2l1v

>  <Rbt.Executable>
rbdock ($Id: //depot/dev/client3/rdock/2013.1/src/exe/rbdock.cxx#4 $)

>  <Rbt.Library>
libRbt.so (2013.1, Build901 2013/11/27)

>  <Rbt.Parameter_File>
/export/apps/rDock/src/rDock_2013.1_src/data/scripts/dock_solv.prm

>  <Rbt.Receptor>
prm/blind_docking_100.prm

>  <SCORE>
-59.0875

>  <SCORE.INTER>
-60.6057

>  <SCORE.INTER.CONST>
1

>  <SCORE.INTER.POLAR>
-6.03103

>  <SCORE.INTER.ROT>
2

>  <SCORE.INTER.SOLV>
17.0587

>  <SCORE.INTER.VDW>
-30.9199

>  <SCORE.INTER.norm>
-4.66197

>  <SCORE.INTRA>
1.45357

>  <SCORE.INTRA.DIHEDRAL>
0.510614

>  <SCORE.INTRA.DIHEDRAL.0>
1.43995

>  <SCORE.INTRA.POLAR>
0.272593

>  <SCORE.INTRA.POLAR.0>
-0.272593

>  <SCORE.INTRA.REPUL>
0

>  <SCORE.INTRA.REPUL.0>
0

>  <SCORE.INTRA.SOLV>
-0.506628

>  <SCORE.INTRA.SOLV.lig_0>
-22.6728

>  <SCORE.INTRA.VDW>
0.524759

>  <SCORE.INTRA.VDW.0>
-0.754459

>  <SCORE.INTRA.norm>
0.111813

>  <SCORE.RESTR>
0.0645588

>  <SCORE.RESTR.CAVITY>
0.0645588

>  <SCORE.RESTR.norm>
0.00496606

>  <SCORE.SYSTEM>
0

>  <SCORE.SYSTEM.CONST>
0

>  <SCORE.SYSTEM.DIHEDRAL>
0

>  <SCORE.SYSTEM.SOLV>
0

>  <SCORE.SYSTEM.norm>
0

>  <SCORE.heavy>
13

>  <SCORE.norm>
-4.54519

>  <RMSD>
0.680

$$$$
lig.pdb
 OpenBabel11021811453D
libRbt.so/2013.1/901 2013/11/27
 13 14  0  0  0  0  0  0  0  0999 V2000
    2.2883    3.5312   -4.2608 N   0  0  0  0  0  0  0  0  0  0  0  0
    3.5224    2.9321   -4.3250 C   0  0  0  0  0  0  0  0  0  0  0  0
    3.7481    1.7934   -3.6789 N   0  0  0  0  0  0  0  0  0  0  0  0
    2.7703    1.1847   -2.9388 C   0  0  0  0  0  0  0  0  0  0  0  0
    1.4844    1.7742   -2.8383 C   0  0  0  0  0  0  0  0  0  0  0  0
    1.2584    2.9926   -3.5399 C   0  0  0  0  0  0  0  0  0  0  0  0
    0.1756    3.5484   -3.5047 O   0  0  0  0  0  0  0  0  0  0  0  0
    0.6927    0.9089   -1.9640 C   0  0  0  0  0  0  0  0  0  0  0  0
   -0.7202    1.1391   -1.5001 C   0  0  0  0  0  0  0  0  0  0  0  0
   -1.3033   -0.1315   -1.0474 N   0  0  0  0  0  0  0  0  0  0  0  0
    1.4892   -0.1169   -1.6380 C   0  0  0  0  0  0  0  0  0  0  0  0
    2.7261    0.0441   -2.2038 N   0  0  0  0  0  0  0  0  0  0  0  0
    4.5215    3.5069   -5.0657 N   0  0  0  0  0  0  0  0  0  0  0  0
  1  6  1  0  0  0  0
  2  1  1  0  0  0  0
  2  3  2  0  0  0  0
  3  4  1  0  0  0  0
  4  5  2  0  0  0  0
  4 12  1  0  0  0  0
  5  8  1  0  0  0  0
  6  7  2  0  0  0  0
  6  5  1  0  0  0  0
  8 11  2  0  0  0  0
  8  9  1  0  0  0  0
 10  9  1  0  0  0  0
 12 11  1  0  0  0  0
 13  2  1  0  0  0  0
M  END
>  <CHROM.1>
160.35143166,-90.29874038,1.72542718,1.79420960,-2.97463765,0.77592281,0.28206231
-0.55366017

>  <Name>
lig.pdb

>  <RI>
2.50021e+07

>  <Rbt.Current_Directory>
/home/itssahil/PROJECTS/Mol_Feturizer/New_Systems/rnas/2l1v

>  <Rbt.Executable>
rbdock ($Id: //depot/dev/client3/rdock/2013.1/src/exe/rbdock.cxx#4 $)

>  <Rbt.Library>
libRbt.so (2013.1, Build901 2013/11/27)

>  <Rbt.Parameter_File>
/export/apps/rDock/src/rDock_2013.1_src/data/scripts/dock_solv.prm

>  <Rbt.Receptor>
prm/pocket_docking_5.prm

>  <SCORE>
-58.9225

>  <SCORE.INTER>
-60.483

>  <SCORE.INTER.CONST>
1

>  <SCORE.INTER.POLAR>
-6.05913

>  <SCORE.INTER.ROT>
2

>  <SCORE.INTER.SOLV>
16.9869

>  <SCORE.INTER.VDW>
-30.7205

>  <SCORE.INTER.norm>
-4.65254

>  <SCORE.INTRA>
1.52285

>  <SCORE.INTRA.DIHEDRAL>
0.643537

>  <SCORE.INTRA.DIHEDRAL.0>
1.43995

>  <SCORE.INTRA.POLAR>
0.272593

>  <SCORE.INTRA.POLAR.0>
-0.272593

>  <SCORE.INTRA.REPUL>
0

>  <SCORE.INTRA.REPUL.0>
0

>  <SCORE.INTRA.SOLV>
-0.508202

>  <SCORE.INTRA.SOLV.lig_0>
-22.6728

>  <SCORE.INTRA.VDW>
0.528372

>  <SCORE.INTRA.VDW.0>
-0.754459

>  <SCORE.INTRA.norm>
0.117143

>  <SCORE.RESTR>
0.0376197

>  <SCORE.RESTR.CAVITY>
0.0376197

>  <SCORE.RESTR.norm>
0.00289383

>  <SCORE.SYSTEM>
0

>  <SCORE.SYSTEM.CONST>
0

>  <SCORE.SYSTEM.DIHEDRAL>
0

>  <SCORE.SYSTEM.SOLV>
0

>  <SCORE.SYSTEM.norm>
0

>  <SCORE.heavy>
13

>  <SCORE.norm>
-4.5325

>  <RMSD>
0.680

$$$$
lig.pdb
 OpenBabel11021811453D
libRbt.so/2013.1/901 2013/11/27
 13 14  0  0  0  0  0  0  0  0999 V2000
    2.2921    3.5119   -4.2800 N   0  0  0  0  0  0  0  0  0  0  0  0
    3.5494    2.9616   -4.3313 C   0  0  0  0  0  0  0  0  0  0  0  0
    3.8137    1.8344   -3.6797 N   0  0  0  0  0  0  0  0  0  0  0  0
    2.8538    1.1898   -2.9466 C   0  0  0  0  0  0  0  0  0  0  0  0
    1.5448    1.7286   -2.8595 C   0  0  0  0  0  0  0  0  0  0  0  0
    1.2777    2.9352   -3.5668 C   0  0  0  0  0  0  0  0  0  0  0  0
    0.1736    3.4482   -3.5431 O   0  0  0  0  0  0  0  0  0  0  0  0
    0.7798    0.8352   -1.9898 C   0  0  0  0  0  0  0  0  0  0  0  0
   -0.6452    1.0110   -1.5394 C   0  0  0  0  0  0  0  0  0  0  0  0
   -1.1335   -0.2430   -0.9489 N   0  0  0  0  0  0  0  0  0  0  0  0
    1.6129   -0.1577   -1.6534 C   0  0  0  0  0  0  0  0  0  0  0  0
    2.8477    0.0502   -2.2085 N   0  0  0  0  0  0  0  0  0  0  0  0
    4.5319    3.5732   -5.0646 N   0  0  0  0  0  0  0  0  0  0  0  0
  1  6  1  0  0  0  0
  2  1  1  0  0  0  0
  2  3  2  0  0  0  0
  3  4  1  0  0  0  0
  4  5  2  0  0  0  0
  4 12  1  0  0  0  0
  5  8  1  0  0  0  0
  6  7  2  0  0  0  0
  6  5  1  0  0  0  0
  8 11  2  0  0  0  0
  8  9  1  0  0  0  0
 10  9  1  0  0  0  0
 12 11  1  0  0  0  0
 13  2  1  0  0  0  0
M  END
>  <CHROM.1>
166.64848567,78.62859567,1.79101009,1.76093500,-2.98085052,0.81159714,0.26246140
-0.57094903

>  <Name>
lig.pdb

>  <RI>
4.17264e+07

>  <Rbt.Current_Directory>
/home/itssahil/PROJECTS/Mol_Feturizer/New_Systems/rnas/2l1v

>  <Rbt.Executable>
rbdock ($Id: //depot/dev/client3/rdock/2013.1/src/exe/rbdock.cxx#4 $)

>  <Rbt.Library>
libRbt.so (2013.1, Build901 2013/11/27)

>  <Rbt.Parameter_File>
/export/apps/rDock/src/rDock_2013.1_src/data/scripts/dock_solv.prm

>  <Rbt.Receptor>
prm/blind_docking_20.prm

>  <SCORE>
-58.9678

>  <SCORE.INTER>
-60.4115

>  <SCORE.INTER.CONST>
1

>  <SCORE.INTER.POLAR>
-6.04465

>  <SCORE.INTER.ROT>
2

>  <SCORE.INTER.SOLV>
16.8191

>  <SCORE.INTER.VDW>
-30.6652

>  <SCORE.INTER.norm>
-4.64704

>  <SCORE.INTRA>
1.35764

>  <SCORE.INTRA.DIHEDRAL>
0.235551

>  <SCORE.INTRA.DIHEDRAL.0>
1.43995

>  <SCORE.INTRA.POLAR>
0.272593

>  <SCORE.INTRA.POLAR.0>
-0.272593

>  <SCORE.INTRA.REPUL>
0

>  <SCORE.INTRA.REPUL.0>
0

>  <SCORE.INTRA.SOLV>
-0.500397

>  <SCORE.INTRA.SOLV.lig_0>
-22.6728

>  <SCORE.INTRA.VDW>
0.563252

>  <SCORE.INTRA.VDW.0>
-0.754459

>  <SCORE.INTRA.norm>
0.104434

>  <SCORE.RESTR>
0.0859914

>  <SCORE.RESTR.CAVITY>
0.0859914

>  <SCORE.RESTR.norm>
0.00661472

>  <SCORE.SYSTEM>
0

>  <SCORE.SYSTEM.CONST>
0

>  <SCORE.SYSTEM.DIHEDRAL>
0

>  <SCORE.SYSTEM.SOLV>
0

>  <SCORE.SYSTEM.norm>
0

>  <SCORE.heavy>
13

>  <SCORE.norm>
-4.53599

>  <RMSD>
0.682

$$$$
lig.pdb
 OpenBabel11021811453D
libRbt.so/2013.1/901 2013/11/27
 13 14  0  0  0  0  0  0  0  0999 V2000
    2.2818    3.5139   -4.2942 N   0  0  0  0  0  0  0  0  0  0  0  0
    3.5289    2.9395   -4.3218 C   0  0  0  0  0  0  0  0  0  0  0  0
    3.7691    1.8278   -3.6351 N   0  0  0  0  0  0  0  0  0  0  0  0
    2.7938    1.2233   -2.8883 C   0  0  0  0  0  0  0  0  0  0  0  0
    1.4946    1.7882   -2.8248 C   0  0  0  0  0  0  0  0  0  0  0  0
    1.2533    2.9776   -3.5696 C   0  0  0  0  0  0  0  0  0  0  0  0
    0.1587    3.5111   -3.5676 O   0  0  0  0  0  0  0  0  0  0  0  0
    0.7089    0.9356   -1.9329 C   0  0  0  0  0  0  0  0  0  0  0  0
   -0.7149    1.1508   -1.4960 C   0  0  0  0  0  0  0  0  0  0  0  0
   -1.2898   -0.1239   -1.0445 N   0  0  0  0  0  0  0  0  0  0  0  0
    1.5218   -0.0617   -1.5622 C   0  0  0  0  0  0  0  0  0  0  0  0
    2.7631    0.1068   -2.1163 N   0  0  0  0  0  0  0  0  0  0  0  0
    4.5262    3.5106   -5.0677 N   0  0  0  0  0  0  0  0  0  0  0  0
  1  6  1  0  0  0  0
  2  1  1  0  0  0  0
  2  3  2  0  0  0  0
  3  4  1  0  0  0  0
  4  5  2  0  0  0  0
  4 12  1  0  0  0  0
  5  8  1  0  0  0  0
  6  7  2  0  0  0  0
  6  5  1  0  0  0  0
  8 11  2  0  0  0  0
  8  9  1  0  0  0  0
 10  9  1  0  0  0  0
 12 11  1  0  0  0  0
 13  2  1  0  0  0  0
M  END
>  <CHROM.1>
158.77135071,-91.88156596,1.73599344,1.80808438,-2.96182203,0.78499770,0.25649263
-0.58838938

>  <Name>
lig.pdb

>  <RI>
4.17264e+07

>  <Rbt.Current_Directory>
/home/itssahil/PROJECTS/Mol_Feturizer/New_Systems/rnas/2l1v

>  <Rbt.Executable>
rbdock ($Id: //depot/dev/client3/rdock/2013.1/src/exe/rbdock.cxx#4 $)

>  <Rbt.Library>
libRbt.so (2013.1, Build901 2013/11/27)

>  <Rbt.Parameter_File>
/export/apps/rDock/src/rDock_2013.1_src/data/scripts/dock_solv.prm

>  <Rbt.Receptor>
prm/blind_docking_20.prm

>  <SCORE>
-58.9833

>  <SCORE.INTER>
-60.5787

>  <SCORE.INTER.CONST>
1

>  <SCORE.INTER.POLAR>
-6.0703

>  <SCORE.INTER.ROT>
2

>  <SCORE.INTER.SOLV>
16.8488

>  <SCORE.INTER.VDW>
-30.7011

>  <SCORE.INTER.norm>
-4.6599

>  <SCORE.INTRA>
1.55393

>  <SCORE.INTRA.DIHEDRAL>
0.725226

>  <SCORE.INTRA.DIHEDRAL.0>
1.43995

>  <SCORE.INTRA.POLAR>
0.272593

>  <SCORE.INTRA.POLAR.0>
-0.272593

>  <SCORE.INTRA.REPUL>
0

>  <SCORE.INTRA.REPUL.0>
0

>  <SCORE.INTRA.SOLV>
-0.509926

>  <SCORE.INTRA.SOLV.lig_0>
-22.6728

>  <SCORE.INTRA.VDW>
0.519462

>  <SCORE.INTRA.VDW.0>
-0.754459

>  <SCORE.INTRA.norm>
0.119533

>  <SCORE.RESTR>
0.0415491

>  <SCORE.RESTR.CAVITY>
0.0415491

>  <SCORE.RESTR.norm>
0.00319609

>  <SCORE.SYSTEM>
0

>  <SCORE.SYSTEM.CONST>
0

>  <SCORE.SYSTEM.DIHEDRAL>
0

>  <SCORE.SYSTEM.SOLV>
0

>  <SCORE.SYSTEM.norm>
0

>  <SCORE.heavy>
13

>  <SCORE.norm>
-4.53717

>  <RMSD>
0.682

$$$$
lig.pdb
 OpenBabel11021811453D
libRbt.so/2013.1/901 2013/11/27
 13 14  0  0  0  0  0  0  0  0999 V2000
    2.2830    3.5247   -4.2862 N   0  0  0  0  0  0  0  0  0  0  0  0
    3.5241    2.9379   -4.3258 C   0  0  0  0  0  0  0  0  0  0  0  0
    3.7547    1.8141   -3.6557 N   0  0  0  0  0  0  0  0  0  0  0  0
    2.7753    1.2090   -2.9147 C   0  0  0  0  0  0  0  0  0  0  0  0
    1.4822    1.7863   -2.8393 C   0  0  0  0  0  0  0  0  0  0  0  0
    1.2511    2.9887   -3.5664 C   0  0  0  0  0  0  0  0  0  0  0  0
    0.1621    3.5334   -3.5535 O   0  0  0  0  0  0  0  0  0  0  0  0
    0.6902    0.9292   -1.9574 C   0  0  0  0  0  0  0  0  0  0  0  0
   -0.7301    1.1528   -1.5132 C   0  0  0  0  0  0  0  0  0  0  0  0
   -1.3037   -0.1147   -1.0401 N   0  0  0  0  0  0  0  0  0  0  0  0
    1.4939   -0.0816   -1.6033 C   0  0  0  0  0  0  0  0  0  0  0  0
    2.7352    0.0820   -2.1586 N   0  0  0  0  0  0  0  0  0  0  0  0
    4.5251    3.5093   -5.0664 N   0  0  0  0  0  0  0  0  0  0  0  0
  1  6  1  0  0  0  0
  2  1  1  0  0  0  0
  2  3  2  0  0  0  0
  3  4  1  0  0  0  0
  4  5  2  0  0  0  0
  4 12  1  0  0  0  0
  5  8  1  0  0  0  0
  6  7  2  0  0  0  0
  6  5  1  0  0  0  0
  8 11  2  0  0  0  0
  8  9  1  0  0  0  0
 10  9  1  0  0  0  0
 12 11  1  0  0  0  0
 13  2  1  0  0  0  0
M  END
>  <CHROM.1>
160.46732743,-90.65043637,1.72460952,1.80639410,-2.97318908,0.77940320,0.26728306
-0.57367263

>  <Name>
lig.pdb

>  <RI>
2.50021e+07

>  <Rbt.Current_Directory>
/home/itssahil/PROJECTS/Mol_Feturizer/New_Systems/rnas/2l1v

>  <Rbt.Executable>
rbdock ($Id: //depot/dev/client3/rdock/2013.1/src/exe/rbdock.cxx#4 $)

>  <Rbt.Library>
libRbt.so (2013.1, Build901 2013/11/27)

>  <Rbt.Parameter_File>
/export/apps/rDock/src/rDock_2013.1_src/data/scripts/dock_solv.prm

>  <Rbt.Receptor>
prm/pocket_docking_5.prm

>  <SCORE>
-58.9723

>  <SCORE.INTER>
-60.5384

>  <SCORE.INTER.CONST>
1

>  <SCORE.INTER.POLAR>
-6.05443

>  <SCORE.INTER.ROT>
2

>  <SCORE.INTER.SOLV>
16.9277

>  <SCORE.INTER.VDW>
-30.7534

>  <SCORE.INTER.norm>
-4.6568

>  <SCORE.INTRA>
1.52074

>  <SCORE.INTRA.DIHEDRAL>
0.637715

>  <SCORE.INTRA.DIHEDRAL.0>
1.43995

>  <SCORE.INTRA.POLAR>
0.272593

>  <SCORE.INTRA.POLAR.0>
-0.272593

>  <SCORE.INTRA.REPUL>
0

>  <SCORE.INTRA.REPUL.0>
0

>  <SCORE.INTRA.SOLV>
-0.50807

>  <SCORE.INTRA.SOLV.lig_0>
-22.6728

>  <SCORE.INTRA.VDW>
0.529103

>  <SCORE.INTRA.VDW.0>
-0.754459

>  <SCORE.INTRA.norm>
0.11698

>  <SCORE.RESTR>
0.0453348

>  <SCORE.RESTR.CAVITY>
0.0453348

>  <SCORE.RESTR.norm>
0.00348729

>  <SCORE.SYSTEM>
0

>  <SCORE.SYSTEM.CONST>
0

>  <SCORE.SYSTEM.DIHEDRAL>
0

>  <SCORE.SYSTEM.SOLV>
0

>  <SCORE.SYSTEM.norm>
0

>  <SCORE.heavy>
13

>  <SCORE.norm>
-4.53633

>  <RMSD>
0.682

$$$$
lig.pdb
 OpenBabel11021811453D
libRbt.so/2013.1/901 2013/11/27
 13 14  0  0  0  0  0  0  0  0999 V2000
    2.2736    3.5381   -4.2999 N   0  0  0  0  0  0  0  0  0  0  0  0
    3.5072    2.9361   -4.3450 C   0  0  0  0  0  0  0  0  0  0  0  0
    3.7270    1.8096   -3.6759 N   0  0  0  0  0  0  0  0  0  0  0  0
    2.7437    1.2165   -2.9305 C   0  0  0  0  0  0  0  0  0  0  0  0
    1.4581    1.8096   -2.8492 C   0  0  0  0  0  0  0  0  0  0  0  0
    1.2384    3.0147   -3.5753 C   0  0  0  0  0  0  0  0  0  0  0  0
    0.1563    3.5727   -3.5574 O   0  0  0  0  0  0  0  0  0  0  0  0
    0.6597    0.9622   -1.9637 C   0  0  0  0  0  0  0  0  0  0  0  0
   -0.7557    1.2033   -1.5130 C   0  0  0  0  0  0  0  0  0  0  0  0
   -1.3445   -0.0582   -1.0424 N   0  0  0  0  0  0  0  0  0  0  0  0
    1.4525   -0.0584   -1.6132 C   0  0  0  0  0  0  0  0  0  0  0  0
    2.6932    0.0901   -2.1742 N   0  0  0  0  0  0  0  0  0  0  0  0
    4.5117    3.4952   -5.0902 N   0  0  0  0  0  0  0  0  0  0  0  0
  1  6  1  0  0  0  0
  2  1  1  0  0  0  0
  2  3  2  0  0  0  0
  3  4  1  0  0  0  0
  4  5  2  0  0  0  0
  4 12  1  0  0  0  0
  5  8  1  0  0  0  0
  6  7  2  0  0  0  0
  6  5  1  0  0  0  0
  8 11  2  0  0  0  0
  8  9  1  0  0  0  0
 10  9  1  0  0  0  0
 12 11  1  0  0  0  0
 13  2  1  0  0  0  0
M  END
>  <CHROM.1>
160.23796779,88.72662432,1.70027547,1.82642939,-2.98476722,0.77142731,0.27737865
-0.57122323

>  <Name>
lig.pdb

>  <RI>
2.7104e+07

>  <Rbt.Current_Directory>
/home/itssahil/PROJECTS/Mol_Feturizer/New_Systems/rnas/2l1v

>  <Rbt.Executable>
rbdock ($Id: //depot/dev/client3/rdock/2013.1/src/exe/rbdock.cxx#4 $)

>  <Rbt.Library>
libRbt.so (2013.1, Build901 2013/11/27)

>  <Rbt.Parameter_File>
/export/apps/rDock/src/rDock_2013.1_src/data/scripts/dock_solv.prm

>  <Rbt.Receptor>
prm/pocket_docking_8.prm

>  <SCORE>
-59.1127

>  <SCORE.INTER>
-60.6363

>  <SCORE.INTER.CONST>
1

>  <SCORE.INTER.POLAR>
-5.98042

>  <SCORE.INTER.ROT>
2

>  <SCORE.INTER.SOLV>
17.0052

>  <SCORE.INTER.VDW>
-31.0912

>  <SCORE.INTER.norm>
-4.66433

>  <SCORE.INTRA>
1.45581

>  <SCORE.INTRA.DIHEDRAL>
0.516805

>  <SCORE.INTRA.DIHEDRAL.0>
1.43995

>  <SCORE.INTRA.POLAR>
0.272593

>  <SCORE.INTRA.POLAR.0>
-0.272593

>  <SCORE.INTRA.REPUL>
0

>  <SCORE.INTRA.REPUL.0>
0

>  <SCORE.INTRA.SOLV>
-0.506766

>  <SCORE.INTRA.SOLV.lig_0>
-22.6728

>  <SCORE.INTRA.VDW>
0.523972

>  <SCORE.INTRA.VDW.0>
-0.754459

>  <SCORE.INTRA.norm>
0.111985

>  <SCORE.RESTR>
0.0677916

>  <SCORE.RESTR.CAVITY>
0.0677916

>  <SCORE.RESTR.norm>
0.00521474

>  <SCORE.SYSTEM>
0

>  <SCORE.SYSTEM.CONST>
0

>  <SCORE.SYSTEM.DIHEDRAL>
0

>  <SCORE.SYSTEM.SOLV>
0

>  <SCORE.SYSTEM.norm>
0

>  <SCORE.heavy>
13

>  <SCORE.norm>
-4.54713

>  <RMSD>
0.682

$$$$
lig.pdb
 OpenBabel11021811453D
libRbt.so/2013.1/901 2013/11/27
 13 14  0  0  0  0  0  0  0  0999 V2000
    2.2817    3.5125   -4.2586 N   0  0  0  0  0  0  0  0  0  0  0  0
    3.5233    2.9292   -4.3242 C   0  0  0  0  0  0  0  0  0  0  0  0
    3.7630    1.7913   -3.6817 N   0  0  0  0  0  0  0  0  0  0  0  0
    2.7925    1.1679   -2.9441 C   0  0  0  0  0  0  0  0  0  0  0  0
    1.4992    1.7408   -2.8424 C   0  0  0  0  0  0  0  0  0  0  0  0
    1.2583    2.9586   -3.5401 C   0  0  0  0  0  0  0  0  0  0  0  0
    0.1686    3.5007   -3.5037 O   0  0  0  0  0  0  0  0  0  0  0  0
    0.7181    0.8627   -1.9715 C   0  0  0  0  0  0  0  0  0  0  0  0
   -0.6978    1.0736   -1.5076 C   0  0  0  0  0  0  0  0  0  0  0  0
   -1.2393   -0.1898   -0.9879 N   0  0  0  0  0  0  0  0  0  0  0  0
    1.5272   -0.1541   -1.6484 C   0  0  0  0  0  0  0  0  0  0  0  0
    2.7623    0.0244   -2.2129 N   0  0  0  0  0  0  0  0  0  0  0  0
    4.5155    3.5190   -5.0623 N   0  0  0  0  0  0  0  0  0  0  0  0
  1  6  1  0  0  0  0
  2  1  1  0  0  0  0
  2  3  2  0  0  0  0
  3  4  1  0  0  0  0
  4  5  2  0  0  0  0
  4 12  1  0  0  0  0
  5  8  1  0  0  0  0
  6  7  2  0  0  0  0
  6  5  1  0  0  0  0
  8 11  2  0  0  0  0
  8  9  1  0  0  0  0
 10  9  1  0  0  0  0
 12 11  1  0  0  0  0
 13  2  1  0  0  0  0
M  END
>  <CHROM.1>
163.57066433,-91.41882248,1.74251855,1.76579723,-2.97189659,0.78984743,0.27989887
-0.55639226

>  <Name>
lig.pdb

>  <RI>
2.05237e+07

>  <Rbt.Current_Directory>
/home/itssahil/PROJECTS/Mol_Feturizer/New_Systems/rnas/2l1v

>  <Rbt.Executable>
rbdock ($Id: //depot/dev/client3/rdock/2013.1/src/exe/rbdock.cxx#4 $)

>  <Rbt.Library>
libRbt.so (2013.1, Build901 2013/11/27)

>  <Rbt.Parameter_File>
/export/apps/rDock/src/rDock_2013.1_src/data/scripts/dock_solv.prm

>  <Rbt.Receptor>
prm/blind_docking_100.prm

>  <SCORE>
-58.8079

>  <SCORE.INTER>
-60.2967

>  <SCORE.INTER.CONST>
1

>  <SCORE.INTER.POLAR>
-6.037

>  <SCORE.INTER.ROT>
2

>  <SCORE.INTER.SOLV>
16.8924

>  <SCORE.INTER.VDW>
-30.6386

>  <SCORE.INTER.norm>
-4.63821

>  <SCORE.INTRA>
1.46498

>  <SCORE.INTRA.DIHEDRAL>
0.488759

>  <SCORE.INTRA.DIHEDRAL.0>
1.43995

>  <SCORE.INTRA.POLAR>
0.272593

>  <SCORE.INTRA.POLAR.0>
-0.272593

>  <SCORE.INTRA.REPUL>
0

>  <SCORE.INTRA.REPUL.0>
0

>  <SCORE.INTRA.SOLV>
-0.504911

>  <SCORE.INTRA.SOLV.lig_0>
-22.6728

>  <SCORE.INTRA.VDW>
0.546245

>  <SCORE.INTRA.VDW.0>
-0.754459

>  <SCORE.INTRA.norm>
0.112691

>  <SCORE.RESTR>
0.0237708

>  <SCORE.RESTR.CAVITY>
0.0237708

>  <SCORE.RESTR.norm>
0.00182852

>  <SCORE.SYSTEM>
0

>  <SCORE.SYSTEM.CONST>
0

>  <SCORE.SYSTEM.DIHEDRAL>
0

>  <SCORE.SYSTEM.SOLV>
0

>  <SCORE.SYSTEM.norm>
0

>  <SCORE.heavy>
13

>  <SCORE.norm>
-4.52369

>  <RMSD>
0.683

$$$$
lig.pdb
 OpenBabel11021811453D
libRbt.so/2013.1/901 2013/11/27
 13 14  0  0  0  0  0  0  0  0999 V2000
    2.2829    3.5252   -4.2866 N   0  0  0  0  0  0  0  0  0  0  0  0
    3.5254    2.9415   -4.3265 C   0  0  0  0  0  0  0  0  0  0  0  0
    3.7583    1.8169   -3.6587 N   0  0  0  0  0  0  0  0  0  0  0  0
    2.7799    1.2077   -2.9198 C   0  0  0  0  0  0  0  0  0  0  0  0
    1.4853    1.7817   -2.8441 C   0  0  0  0  0  0  0  0  0  0  0  0
    1.2517    2.9850   -3.5687 C   0  0  0  0  0  0  0  0  0  0  0  0
    0.1614    3.5270   -3.5553 O   0  0  0  0  0  0  0  0  0  0  0  0
    0.6948    0.9206   -1.9646 C   0  0  0  0  0  0  0  0  0  0  0  0
   -0.7263    1.1398   -1.5209 C   0  0  0  0  0  0  0  0  0  0  0  0
   -1.2869   -0.1235   -1.0216 N   0  0  0  0  0  0  0  0  0  0  0  0
    1.5007   -0.0890   -1.6122 C   0  0  0  0  0  0  0  0  0  0  0  0
    2.7420    0.0790   -2.1662 N   0  0  0  0  0  0  0  0  0  0  0  0
    4.5255    3.5171   -5.0651 N   0  0  0  0  0  0  0  0  0  0  0  0
  1  6  1  0  0  0  0
  2  1  1  0  0  0  0
  2  3  2  0  0  0  0
  3  4  1  0  0  0  0
  4  5  2  0  0  0  0
  4 12  1  0  0  0  0
  5  8  1  0  0  0  0
  6  7  2  0  0  0  0
  6  5  1  0  0  0  0
  8 11  2  0  0  0  0
  8  9  1  0  0  0  0
 10  9  1  0  0  0  0
 12 11  1  0  0  0  0
 13  2  1  0  0  0  0
M  END
>  <CHROM.1>
161.78787506,-91.07777907,1.72872550,1.80322930,-2.97498011,0.78242951,0.26736506
-0.57315511

>  <Name>
lig.pdb

>  <RI>
4.17264e+07

>  <Rbt.Current_Directory>
/home/itssahil/PROJECTS/Mol_Feturizer/New_Systems/rnas/2l1v

>  <Rbt.Executable>
rbdock ($Id: //depot/dev/client3/rdock/2013.1/src/exe/rbdock.cxx#4 $)

>  <Rbt.Library>
libRbt.so (2013.1, Build901 2013/11/27)

>  <Rbt.Parameter_File>
/export/apps/rDock/src/rDock_2013.1_src/data/scripts/dock_solv.prm

>  <Rbt.Receptor>
prm/blind_docking_20.prm

>  <SCORE>
-58.9747

>  <SCORE.INTER>
-60.521

>  <SCORE.INTER.CONST>
1

>  <SCORE.INTER.POLAR>
-6.04573

>  <SCORE.INTER.ROT>
2

>  <SCORE.INTER.SOLV>
16.9176

>  <SCORE.INTER.VDW>
-30.7674

>  <SCORE.INTER.norm>
-4.65546

>  <SCORE.INTRA>
1.4963

>  <SCORE.INTRA.DIHEDRAL>
0.572405

>  <SCORE.INTRA.DIHEDRAL.0>
1.43995

>  <SCORE.INTRA.POLAR>
0.272593

>  <SCORE.INTRA.POLAR.0>
-0.272593

>  <SCORE.INTRA.REPUL>
0

>  <SCORE.INTRA.REPUL.0>
0

>  <SCORE.INTRA.SOLV>
-0.506676

>  <SCORE.INTRA.SOLV.lig_0>
-22.6728

>  <SCORE.INTRA.VDW>
0.536617

>  <SCORE.INTRA.VDW.0>
-0.754459

>  <SCORE.INTRA.norm>
0.1151

>  <SCORE.RESTR>
0.0500029

>  <SCORE.RESTR.CAVITY>
0.0500029

>  <SCORE.RESTR.norm>
0.00384637

>  <SCORE.SYSTEM>
0

>  <SCORE.SYSTEM.CONST>
0

>  <SCORE.SYSTEM.DIHEDRAL>
0

>  <SCORE.SYSTEM.SOLV>
0

>  <SCORE.SYSTEM.norm>
0

>  <SCORE.heavy>
13

>  <SCORE.norm>
-4.53651

>  <RMSD>
0.683

$$$$
lig.pdb
 OpenBabel11021811453D
libRbt.so/2013.1/901 2013/11/27
 13 14  0  0  0  0  0  0  0  0999 V2000
    2.2877    3.5290   -4.2522 N   0  0  0  0  0  0  0  0  0  0  0  0
    3.5223    2.9316   -4.3226 C   0  0  0  0  0  0  0  0  0  0  0  0
    3.7524    1.7925   -3.6787 N   0  0  0  0  0  0  0  0  0  0  0  0
    2.7787    1.1818   -2.9348 C   0  0  0  0  0  0  0  0  0  0  0  0
    1.4925    1.7695   -2.8280 C   0  0  0  0  0  0  0  0  0  0  0  0
    1.2618    2.9883   -3.5273 C   0  0  0  0  0  0  0  0  0  0  0  0
    0.1784    3.5427   -3.4867 O   0  0  0  0  0  0  0  0  0  0  0  0
    0.7059    0.9023   -1.9511 C   0  0  0  0  0  0  0  0  0  0  0  0
   -0.7052    1.1301   -1.4806 C   0  0  0  0  0  0  0  0  0  0  0  0
   -1.2831   -0.1409   -1.0224 N   0  0  0  0  0  0  0  0  0  0  0  0
    1.5051   -0.1229   -1.6297 C   0  0  0  0  0  0  0  0  0  0  0  0
    2.7393    0.0403   -2.2008 N   0  0  0  0  0  0  0  0  0  0  0  0
    4.5174    3.5085   -5.0671 N   0  0  0  0  0  0  0  0  0  0  0  0
  1  6  1  0  0  0  0
  2  1  1  0  0  0  0
  2  3  2  0  0  0  0
  3  4  1  0  0  0  0
  4  5  2  0  0  0  0
  4 12  1  0  0  0  0
  5  8  1  0  0  0  0
  6  7  2  0  0  0  0
  6  5  1  0  0  0  0
  8 11  2  0  0  0  0
  8  9  1  0  0  0  0
 10  9  1  0  0  0  0
 12 11  1  0  0  0  0
 13  2  1  0  0  0  0
M  END
>  <CHROM.1>
160.54353447,87.65606325,1.73335899,1.78984378,-2.96509128,0.78013354,0.28536681
-0.55380969

>  <Name>
lig.pdb

>  <RI>
2.50021e+07

>  <Rbt.Current_Directory>
/home/itssahil/PROJECTS/Mol_Feturizer/New_Systems/rnas/2l1v

>  <Rbt.Executable>
rbdock ($Id: //depot/dev/client3/rdock/2013.1/src/exe/rbdock.cxx#4 $)

>  <Rbt.Library>
libRbt.so (2013.1, Build901 2013/11/27)

>  <Rbt.Parameter_File>
/export/apps/rDock/src/rDock_2013.1_src/data/scripts/dock_solv.prm

>  <Rbt.Receptor>
prm/pocket_docking_5.prm

>  <SCORE>
-58.973

>  <SCORE.INTER>
-60.4559

>  <SCORE.INTER.CONST>
1

>  <SCORE.INTER.POLAR>
-6.06268

>  <SCORE.INTER.ROT>
2

>  <SCORE.INTER.SOLV>
16.9356

>  <SCORE.INTER.VDW>
-30.6736

>  <SCORE.INTER.norm>
-4.65046

>  <SCORE.INTRA>
1.45043

>  <SCORE.INTRA.DIHEDRAL>
0.501497

>  <SCORE.INTRA.DIHEDRAL.0>
1.43995

>  <SCORE.INTRA.POLAR>
0.272593

>  <SCORE.INTRA.POLAR.0>
-0.272593

>  <SCORE.INTRA.REPUL>
0

>  <SCORE.INTRA.REPUL.0>
0

>  <SCORE.INTRA.SOLV>
-0.506417

>  <SCORE.INTRA.SOLV.lig_0>
-22.6728

>  <SCORE.INTRA.VDW>
0.526078

>  <SCORE.INTRA.VDW.0>
-0.754459

>  <SCORE.INTRA.norm>
0.111572

>  <SCORE.RESTR>
0.0324689

>  <SCORE.RESTR.CAVITY>
0.0324689

>  <SCORE.RESTR.norm>
0.00249761

>  <SCORE.SYSTEM>
0

>  <SCORE.SYSTEM.CONST>
0

>  <SCORE.SYSTEM.DIHEDRAL>
0

>  <SCORE.SYSTEM.SOLV>
0

>  <SCORE.SYSTEM.norm>
0

>  <SCORE.heavy>
13

>  <SCORE.norm>
-4.53639

>  <RMSD>
0.683

$$$$
lig.pdb
 OpenBabel11021811453D
libRbt.so/2013.1/901 2013/11/27
 13 14  0  0  0  0  0  0  0  0999 V2000
    2.2818    3.5092   -4.2913 N   0  0  0  0  0  0  0  0  0  0  0  0
    3.5295    2.9361   -4.3231 C   0  0  0  0  0  0  0  0  0  0  0  0
    3.7716    1.8215   -3.6418 N   0  0  0  0  0  0  0  0  0  0  0  0
    2.7978    1.2125   -2.8967 C   0  0  0  0  0  0  0  0  0  0  0  0
    1.4981    1.7759   -2.8290 C   0  0  0  0  0  0  0  0  0  0  0  0
    1.2547    2.9685   -3.5680 C   0  0  0  0  0  0  0  0  0  0  0  0
    0.1596    3.5009   -3.5622 O   0  0  0  0  0  0  0  0  0  0  0  0
    0.7142    0.9184   -1.9402 C   0  0  0  0  0  0  0  0  0  0  0  0
   -0.7093    1.1302   -1.5005 C   0  0  0  0  0  0  0  0  0  0  0  0
   -1.2696   -0.1392   -1.0170 N   0  0  0  0  0  0  0  0  0  0  0  0
    1.5286   -0.0798   -1.5750 C   0  0  0  0  0  0  0  0  0  0  0  0
    2.7690    0.0925   -2.1298 N   0  0  0  0  0  0  0  0  0  0  0  0
    4.5253    3.5117   -5.0675 N   0  0  0  0  0  0  0  0  0  0  0  0
  1  6  1  0  0  0  0
  2  1  1  0  0  0  0
  2  3  2  0  0  0  0
  3  4  1  0  0  0  0
  4  5  2  0  0  0  0
  4 12  1  0  0  0  0
  5  8  1  0  0  0  0
  6  7  2  0  0  0  0
  6  5  1  0  0  0  0
  8 11  2  0  0  0  0
  8  9  1  0  0  0  0
 10  9  1  0  0  0  0
 12 11  1  0  0  0  0
 13  2  1  0  0  0  0
M  END
>  <CHROM.1>
160.43575399,86.08423072,1.74076987,1.79721664,-2.96282033,0.78859182,0.25942320
-0.58560591

>  <Name>
lig.pdb

>  <RI>
2.7104e+07

>  <Rbt.Current_Directory>
/home/itssahil/PROJECTS/Mol_Feturizer/New_Systems/rnas/2l1v

>  <Rbt.Executable>
rbdock ($Id: //depot/dev/client3/rdock/2013.1/src/exe/rbdock.cxx#4 $)

>  <Rbt.Library>
libRbt.so (2013.1, Build901 2013/11/27)

>  <Rbt.Parameter_File>
/export/apps/rDock/src/rDock_2013.1_src/data/scripts/dock_solv.prm

>  <Rbt.Receptor>
prm/pocket_docking_8.prm

>  <SCORE>
-59.0125

>  <SCORE.INTER>
-60.5021

>  <SCORE.INTER.CONST>
1

>  <SCORE.INTER.POLAR>
-6.0601

>  <SCORE.INTER.ROT>
2

>  <SCORE.INTER.SOLV>
16.8312

>  <SCORE.INTER.VDW>
-30.6781

>  <SCORE.INTER.norm>
-4.65401

>  <SCORE.INTRA>
1.45344

>  <SCORE.INTRA.DIHEDRAL>
0.507524

>  <SCORE.INTRA.DIHEDRAL.0>
1.43995

>  <SCORE.INTRA.POLAR>
0.272593

>  <SCORE.INTRA.POLAR.0>
-0.272593

>  <SCORE.INTRA.REPUL>
0

>  <SCORE.INTRA.REPUL.0>
0

>  <SCORE.INTRA.SOLV>
-0.5065

>  <SCORE.INTRA.SOLV.lig_0>
-22.6728

>  <SCORE.INTRA.VDW>
0.526116

>  <SCORE.INTRA.VDW.0>
-0.754459

>  <SCORE.INTRA.norm>
0.111803

>  <SCORE.RESTR>
0.0361756

>  <SCORE.RESTR.CAVITY>
0.0361756

>  <SCORE.RESTR.norm>
0.00278274

>  <SCORE.SYSTEM>
0

>  <SCORE.SYSTEM.CONST>
0

>  <SCORE.SYSTEM.DIHEDRAL>
0

>  <SCORE.SYSTEM.SOLV>
0

>  <SCORE.SYSTEM.norm>
0

>  <SCORE.heavy>
13

>  <SCORE.norm>
-4.53942

>  <RMSD>
0.683

$$$$
lig.pdb
 OpenBabel11021811453D
libRbt.so/2013.1/901 2013/11/27
 13 14  0  0  0  0  0  0  0  0999 V2000
    2.2866    3.5047   -4.2643 N   0  0  0  0  0  0  0  0  0  0  0  0
    3.5346    2.9342   -4.3211 C   0  0  0  0  0  0  0  0  0  0  0  0
    3.7847    1.8050   -3.6673 N   0  0  0  0  0  0  0  0  0  0  0  0
    2.8190    1.1781   -2.9265 C   0  0  0  0  0  0  0  0  0  0  0  0
    1.5194    1.7380   -2.8336 C   0  0  0  0  0  0  0  0  0  0  0  0
    1.2673    2.9465   -3.5433 C   0  0  0  0  0  0  0  0  0  0  0  0
    0.1717    3.4770   -3.5149 O   0  0  0  0  0  0  0  0  0  0  0  0
    0.7453    0.8597   -1.9566 C   0  0  0  0  0  0  0  0  0  0  0  0
   -0.6741    1.0595   -1.4984 C   0  0  0  0  0  0  0  0  0  0  0  0
   -1.2067   -0.2072   -0.9777 N   0  0  0  0  0  0  0  0  0  0  0  0
    1.5644   -0.1453   -1.6218 C   0  0  0  0  0  0  0  0  0  0  0  0
    2.7991    0.0412   -2.1847 N   0  0  0  0  0  0  0  0  0  0  0  0
    4.5224    3.5277   -5.0621 N   0  0  0  0  0  0  0  0  0  0  0  0
  1  6  1  0  0  0  0
  2  1  1  0  0  0  0
  2  3  2  0  0  0  0
  3  4  1  0  0  0  0
  4  5  2  0  0  0  0
  4 12  1  0  0  0  0
  5  8  1  0  0  0  0
  6  7  2  0  0  0  0
  6  5  1  0  0  0  0
  8 11  2  0  0  0  0
  8  9  1  0  0  0  0
 10  9  1  0  0  0  0
 12 11  1  0  0  0  0
 13  2  1  0  0  0  0
M  END
>  <CHROM.1>
163.14756270,83.52866020,1.76270643,1.76392346,-2.96364246,0.79787062,0.27091207
-0.56763263

>  <Name>
lig.pdb

>  <RI>
2.50021e+07

>  <Rbt.Current_Directory>
/home/itssahil/PROJECTS/Mol_Feturizer/New_Systems/rnas/2l1v

>  <Rbt.Executable>
rbdock ($Id: //depot/dev/client3/rdock/2013.1/src/exe/rbdock.cxx#4 $)

>  <Rbt.Library>
libRbt.so (2013.1, Build901 2013/11/27)

>  <Rbt.Parameter_File>
/export/apps/rDock/src/rDock_2013.1_src/data/scripts/dock_solv.prm

>  <Rbt.Receptor>
prm/pocket_docking_5.prm

>  <SCORE>
-58.9093

>  <SCORE.INTER>
-60.3406

>  <SCORE.INTER.CONST>
1

>  <SCORE.INTER.POLAR>
-6.05699

>  <SCORE.INTER.ROT>
2

>  <SCORE.INTER.SOLV>
16.8149

>  <SCORE.INTER.VDW>
-30.5754

>  <SCORE.INTER.norm>
-4.64158

>  <SCORE.INTRA>
1.40653

>  <SCORE.INTRA.DIHEDRAL>
0.378217

>  <SCORE.INTRA.DIHEDRAL.0>
1.43995

>  <SCORE.INTRA.POLAR>
0.272593

>  <SCORE.INTRA.POLAR.0>
-0.272593

>  <SCORE.INTRA.REPUL>
0

>  <SCORE.INTRA.REPUL.0>
0

>  <SCORE.INTRA.SOLV>
-0.503666

>  <SCORE.INTRA.SOLV.lig_0>
-22.6728

>  <SCORE.INTRA.VDW>
0.542435

>  <SCORE.INTRA.VDW.0>
-0.754459

>  <SCORE.INTRA.norm>
0.108194

>  <SCORE.RESTR>
0.024767

>  <SCORE.RESTR.CAVITY>
0.024767

>  <SCORE.RESTR.norm>
0.00190516

>  <SCORE.SYSTEM>
0

>  <SCORE.SYSTEM.CONST>
0

>  <SCORE.SYSTEM.DIHEDRAL>
0

>  <SCORE.SYSTEM.SOLV>
0

>  <SCORE.SYSTEM.norm>
0

>  <SCORE.heavy>
13

>  <SCORE.norm>
-4.53148

>  <RMSD>
0.684

$$$$
lig.pdb
 OpenBabel11021811453D
libRbt.so/2013.1/901 2013/11/27
 13 14  0  0  0  0  0  0  0  0999 V2000
    2.2788    3.5052   -4.2775 N   0  0  0  0  0  0  0  0  0  0  0  0
    3.5181    2.9156   -4.3284 C   0  0  0  0  0  0  0  0  0  0  0  0
    3.7494    1.7858   -3.6688 N   0  0  0  0  0  0  0  0  0  0  0  0
    2.7724    1.1771   -2.9277 C   0  0  0  0  0  0  0  0  0  0  0  0
    1.4812    1.7570   -2.8408 C   0  0  0  0  0  0  0  0  0  0  0  0
    1.2493    2.9659   -3.5567 C   0  0  0  0  0  0  0  0  0  0  0  0
    0.1618    3.5131   -3.5335 O   0  0  0  0  0  0  0  0  0  0  0  0
    0.6917    0.8946   -1.9617 C   0  0  0  0  0  0  0  0  0  0  0  0
   -0.7257    1.1181   -1.5082 C   0  0  0  0  0  0  0  0  0  0  0  0
   -1.2833   -0.1412   -0.9956 N   0  0  0  0  0  0  0  0  0  0  0  0
    1.4946   -0.1211   -1.6203 C   0  0  0  0  0  0  0  0  0  0  0  0
    2.7334    0.0440   -2.1808 N   0  0  0  0  0  0  0  0  0  0  0  0
    4.5167    3.4907   -5.0696 N   0  0  0  0  0  0  0  0  0  0  0  0
  1  6  1  0  0  0  0
  2  1  1  0  0  0  0
  2  3  2  0  0  0  0
  3  4  1  0  0  0  0
  4  5  2  0  0  0  0
  4 12  1  0  0  0  0
  5  8  1  0  0  0  0
  6  7  2  0  0  0  0
  6  5  1  0  0  0  0
  8 11  2  0  0  0  0
  8  9  1  0  0  0  0
 10  9  1  0  0  0  0
 12 11  1  0  0  0  0
 13  2  1  0  0  0  0
M  END
>  <CHROM.1>
162.57940176,-90.13285501,1.72450553,1.77853216,-2.97135769,0.78217026,0.27639301
-0.56752651

>  <Name>
lig.pdb

>  <RI>
2.50021e+07

>  <Rbt.Current_Directory>
/home/itssahil/PROJECTS/Mol_Feturizer/New_Systems/rnas/2l1v

>  <Rbt.Executable>
rbdock ($Id: //depot/dev/client3/rdock/2013.1/src/exe/rbdock.cxx#4 $)

>  <Rbt.Library>
libRbt.so (2013.1, Build901 2013/11/27)

>  <Rbt.Parameter_File>
/export/apps/rDock/src/rDock_2013.1_src/data/scripts/dock_solv.prm

>  <Rbt.Receptor>
prm/pocket_docking_5.prm

>  <SCORE>
-58.895

>  <SCORE.INTER>
-60.4042

>  <SCORE.INTER.CONST>
1

>  <SCORE.INTER.POLAR>
-6.01111

>  <SCORE.INTER.ROT>
2

>  <SCORE.INTER.SOLV>
16.881

>  <SCORE.INTER.VDW>
-30.7927

>  <SCORE.INTER.norm>
-4.64647

>  <SCORE.INTRA>
1.48187

>  <SCORE.INTRA.DIHEDRAL>
0.534513

>  <SCORE.INTRA.DIHEDRAL.0>
1.43995

>  <SCORE.INTRA.POLAR>
0.272593

>  <SCORE.INTRA.POLAR.0>
-0.272593

>  <SCORE.INTRA.REPUL>
0

>  <SCORE.INTRA.REPUL.0>
0

>  <SCORE.INTRA.SOLV>
-0.505895

>  <SCORE.INTRA.SOLV.lig_0>
-22.6728

>  <SCORE.INTRA.VDW>
0.540749

>  <SCORE.INTRA.VDW.0>
-0.754459

>  <SCORE.INTRA.norm>
0.11399

>  <SCORE.RESTR>
0.0272445

>  <SCORE.RESTR.CAVITY>
0.0272445

>  <SCORE.RESTR.norm>
0.00209573

>  <SCORE.SYSTEM>
0

>  <SCORE.SYSTEM.CONST>
0

>  <SCORE.SYSTEM.DIHEDRAL>
0

>  <SCORE.SYSTEM.SOLV>
0

>  <SCORE.SYSTEM.norm>
0

>  <SCORE.heavy>
13

>  <SCORE.norm>
-4.53039

>  <RMSD>
0.684

$$$$
lig.pdb
 OpenBabel11021811453D
libRbt.so/2013.1/901 2013/11/27
 13 14  0  0  0  0  0  0  0  0999 V2000
    2.2874    3.5303   -4.2533 N   0  0  0  0  0  0  0  0  0  0  0  0
    3.5225    2.9338   -4.3229 C   0  0  0  0  0  0  0  0  0  0  0  0
    3.7532    1.7951   -3.6787 N   0  0  0  0  0  0  0  0  0  0  0  0
    2.7796    1.1837   -2.9352 C   0  0  0  0  0  0  0  0  0  0  0  0
    1.4929    1.7703   -2.8291 C   0  0  0  0  0  0  0  0  0  0  0  0
    1.2616    2.9888   -3.5288 C   0  0  0  0  0  0  0  0  0  0  0  0
    0.1777    3.5424   -3.4888 O   0  0  0  0  0  0  0  0  0  0  0  0
    0.7065    0.9026   -1.9525 C   0  0  0  0  0  0  0  0  0  0  0  0
   -0.7050    1.1294   -1.4828 C   0  0  0  0  0  0  0  0  0  0  0  0
   -1.2786   -0.1402   -1.0151 N   0  0  0  0  0  0  0  0  0  0  0  0
    1.5064   -0.1218   -1.6306 C   0  0  0  0  0  0  0  0  0  0  0  0
    2.7408    0.0423   -2.2011 N   0  0  0  0  0  0  0  0  0  0  0  0
    4.5175    3.5114   -5.0670 N   0  0  0  0  0  0  0  0  0  0  0  0
  1  6  1  0  0  0  0
  2  1  1  0  0  0  0
  2  3  2  0  0  0  0
  3  4  1  0  0  0  0
  4  5  2  0  0  0  0
  4 12  1  0  0  0  0
  5  8  1  0  0  0  0
  6  7  2  0  0  0  0
  6  5  1  0  0  0  0
  8 11  2  0  0  0  0
  8  9  1  0  0  0  0
 10  9  1  0  0  0  0
 12 11  1  0  0  0  0
 13  2  1  0  0  0  0
M  END
>  <CHROM.1>
160.97193165,87.69737078,1.73412652,1.79103442,-2.96522518,0.78099459,0.28517259
-0.55447217

>  <Name>
lig.pdb

>  <RI>
2.50021e+07

>  <Rbt.Current_Directory>
/home/itssahil/PROJECTS/Mol_Feturizer/New_Systems/rnas/2l1v

>  <Rbt.Executable>
rbdock ($Id: //depot/dev/client3/rdock/2013.1/src/exe/rbdock.cxx#4 $)

>  <Rbt.Library>
libRbt.so (2013.1, Build901 2013/11/27)

>  <Rbt.Parameter_File>
/export/apps/rDock/src/rDock_2013.1_src/data/scripts/dock_solv.prm

>  <Rbt.Receptor>
prm/pocket_docking_5.prm

>  <SCORE>
-58.9849

>  <SCORE.INTER>
-60.4613

>  <SCORE.INTER.CONST>
1

>  <SCORE.INTER.POLAR>
-6.06077

>  <SCORE.INTER.ROT>
2

>  <SCORE.INTER.SOLV>
16.9307

>  <SCORE.INTER.VDW>
-30.6819

>  <SCORE.INTER.norm>
-4.65087

>  <SCORE.INTRA>
1.44235

>  <SCORE.INTRA.DIHEDRAL>
0.480052

>  <SCORE.INTRA.DIHEDRAL.0>
1.43995

>  <SCORE.INTRA.POLAR>
0.272593

>  <SCORE.INTRA.POLAR.0>
-0.272593

>  <SCORE.INTRA.REPUL>
0

>  <SCORE.INTRA.REPUL.0>
0

>  <SCORE.INTRA.SOLV>
-0.505961

>  <SCORE.INTRA.SOLV.lig_0>
-22.6728

>  <SCORE.INTRA.VDW>
0.528493

>  <SCORE.INTRA.VDW.0>
-0.754459

>  <SCORE.INTRA.norm>
0.11095

>  <SCORE.RESTR>
0.0341363

>  <SCORE.RESTR.CAVITY>
0.0341363

>  <SCORE.RESTR.norm>
0.00262587

>  <SCORE.SYSTEM>
0

>  <SCORE.SYSTEM.CONST>
0

>  <SCORE.SYSTEM.DIHEDRAL>
0

>  <SCORE.SYSTEM.SOLV>
0

>  <SCORE.SYSTEM.norm>
0

>  <SCORE.heavy>
13

>  <SCORE.norm>
-4.5373

>  <RMSD>
0.684

$$$$
lig.pdb
 OpenBabel11021811453D
libRbt.so/2013.1/901 2013/11/27
 13 14  0  0  0  0  0  0  0  0999 V2000
    2.2836    3.5040   -4.2551 N   0  0  0  0  0  0  0  0  0  0  0  0
    3.5286    2.9281   -4.3233 C   0  0  0  0  0  0  0  0  0  0  0  0
    3.7762    1.7913   -3.6819 N   0  0  0  0  0  0  0  0  0  0  0  0
    2.8109    1.1617   -2.9430 C   0  0  0  0  0  0  0  0  0  0  0  0
    1.5144    1.7268   -2.8385 C   0  0  0  0  0  0  0  0  0  0  0  0
    1.2649    2.9435   -3.5350 C   0  0  0  0  0  0  0  0  0  0  0  0
    0.1720    3.4790   -3.4963 O   0  0  0  0  0  0  0  0  0  0  0  0
    0.7401    0.8436   -1.9666 C   0  0  0  0  0  0  0  0  0  0  0  0
   -0.6762    1.0457   -1.5000 C   0  0  0  0  0  0  0  0  0  0  0  0
   -1.2052   -0.2184   -0.9693 N   0  0  0  0  0  0  0  0  0  0  0  0
    1.5559   -0.1686   -1.6457 C   0  0  0  0  0  0  0  0  0  0  0  0
    2.7889    0.0176   -2.2124 N   0  0  0  0  0  0  0  0  0  0  0  0
    4.5159    3.5242   -5.0630 N   0  0  0  0  0  0  0  0  0  0  0  0
  1  6  1  0  0  0  0
  2  1  1  0  0  0  0
  2  3  2  0  0  0  0
  3  4  1  0  0  0  0
  4  5  2  0  0  0  0
  4 12  1  0  0  0  0
  5  8  1  0  0  0  0
  6  7  2  0  0  0  0
  6  5  1  0  0  0  0
  8 11  2  0  0  0  0
  8  9  1  0  0  0  0
 10  9  1  0  0  0  0
 12 11  1  0  0  0  0
 13  2  1  0  0  0  0
M  END
>  <CHROM.1>
164.05490893,-94.20978076,1.75763236,1.75357572,-2.96741518,0.79661825,0.27889241
-0.55814119

>  <Name>
lig.pdb

>  <RI>
9.54411e+06

>  <Rbt.Current_Directory>
/home/itssahil/PROJECTS/Mol_Feturizer/New_Systems/rnas/2l1v

>  <Rbt.Executable>
rbdock ($Id: //depot/dev/client3/rdock/2013.1/src/exe/rbdock.cxx#4 $)

>  <Rbt.Library>
libRbt.so (2013.1, Build901 2013/11/27)

>  <Rbt.Parameter_File>
/export/apps/rDock/src/rDock_2013.1_src/data/scripts/dock_solv.prm

>  <Rbt.Receptor>
prm/pocket_docking_6.prm

>  <SCORE>
-58.8474

>  <SCORE.INTER>
-60.3185

>  <SCORE.INTER.CONST>
1

>  <SCORE.INTER.POLAR>
-6.03259

>  <SCORE.INTER.ROT>
2

>  <SCORE.INTER.SOLV>
16.838

>  <SCORE.INTER.VDW>
-30.6497

>  <SCORE.INTER.norm>
-4.63988

>  <SCORE.INTRA>
1.45725

>  <SCORE.INTRA.DIHEDRAL>
0.466142

>  <SCORE.INTRA.DIHEDRAL.0>
1.43995

>  <SCORE.INTRA.POLAR>
0.272593

>  <SCORE.INTRA.POLAR.0>
-0.272593

>  <SCORE.INTRA.REPUL>
0

>  <SCORE.INTRA.REPUL.0>
0

>  <SCORE.INTRA.SOLV>
-0.504396

>  <SCORE.INTRA.SOLV.lig_0>
-22.6728

>  <SCORE.INTRA.VDW>
0.549558

>  <SCORE.INTRA.VDW.0>
-0.754459

>  <SCORE.INTRA.norm>
0.112096

>  <SCORE.RESTR>
0.0138535

>  <SCORE.RESTR.CAVITY>
0.0138535

>  <SCORE.RESTR.norm>
0.00106566

>  <SCORE.SYSTEM>
0

>  <SCORE.SYSTEM.CONST>
0

>  <SCORE.SYSTEM.DIHEDRAL>
0

>  <SCORE.SYSTEM.SOLV>
0

>  <SCORE.SYSTEM.norm>
0

>  <SCORE.heavy>
13

>  <SCORE.norm>
-4.52672

>  <RMSD>
0.684

$$$$
lig.pdb
 OpenBabel11021811453D
libRbt.so/2013.1/901 2013/11/27
 13 14  0  0  0  0  0  0  0  0999 V2000
    2.2854    3.5031   -4.2530 N   0  0  0  0  0  0  0  0  0  0  0  0
    3.5298    2.9261   -4.3217 C   0  0  0  0  0  0  0  0  0  0  0  0
    3.7774    1.7904   -3.6783 N   0  0  0  0  0  0  0  0  0  0  0  0
    2.8126    1.1632   -2.9366 C   0  0  0  0  0  0  0  0  0  0  0  0
    1.5167    1.7296   -2.8315 C   0  0  0  0  0  0  0  0  0  0  0  0
    1.2672    2.9451   -3.5302 C   0  0  0  0  0  0  0  0  0  0  0  0
    0.1749    3.4816   -3.4910 O   0  0  0  0  0  0  0  0  0  0  0  0
    0.7429    0.8489   -1.9567 C   0  0  0  0  0  0  0  0  0  0  0  0
   -0.6725    1.0532   -1.4885 C   0  0  0  0  0  0  0  0  0  0  0  0
   -1.2083   -0.2139   -0.9719 N   0  0  0  0  0  0  0  0  0  0  0  0
    1.5583   -0.1633   -1.6348 C   0  0  0  0  0  0  0  0  0  0  0  0
    2.7907    0.0206   -2.2036 N   0  0  0  0  0  0  0  0  0  0  0  0
    4.5165    3.5199   -5.0640 N   0  0  0  0  0  0  0  0  0  0  0  0
  1  6  1  0  0  0  0
  2  1  1  0  0  0  0
  2  3  2  0  0  0  0
  3  4  1  0  0  0  0
  4  5  2  0  0  0  0
  4 12  1  0  0  0  0
  5  8  1  0  0  0  0
  6  7  2  0  0  0  0
  6  5  1  0  0  0  0
  8 11  2  0  0  0  0
  8  9  1  0  0  0  0
 10  9  1  0  0  0  0
 12 11  1  0  0  0  0
 13  2  1  0  0  0  0
M  END
>  <CHROM.1>
163.26073397,-93.18484537,1.75917786,1.75547604,-2.96246279,0.79593257,0.27938601
-0.55943823

>  <Name>
lig.pdb

>  <RI>
2.7104e+07

>  <Rbt.Current_Directory>
/home/itssahil/PROJECTS/Mol_Feturizer/New_Systems/rnas/2l1v

>  <Rbt.Executable>
rbdock ($Id: //depot/dev/client3/rdock/2013.1/src/exe/rbdock.cxx#4 $)

>  <Rbt.Library>
libRbt.so (2013.1, Build901 2013/11/27)

>  <Rbt.Parameter_File>
/export/apps/rDock/src/rDock_2013.1_src/data/scripts/dock_solv.prm

>  <Rbt.Receptor>
prm/pocket_docking_8.prm

>  <SCORE>
-58.8373

>  <SCORE.INTER>
-60.3192

>  <SCORE.INTER.CONST>
1

>  <SCORE.INTER.POLAR>
-6.0496

>  <SCORE.INTER.ROT>
2

>  <SCORE.INTER.SOLV>
16.8222

>  <SCORE.INTER.VDW>
-30.5882

>  <SCORE.INTER.norm>
-4.63994

>  <SCORE.INTRA>
1.47058

>  <SCORE.INTRA.DIHEDRAL>
0.502495

>  <SCORE.INTRA.DIHEDRAL.0>
1.43995

>  <SCORE.INTRA.POLAR>
0.272593

>  <SCORE.INTRA.POLAR.0>
-0.272593

>  <SCORE.INTRA.REPUL>
0

>  <SCORE.INTRA.REPUL.0>
0

>  <SCORE.INTRA.SOLV>
-0.505171

>  <SCORE.INTRA.SOLV.lig_0>
-22.6728

>  <SCORE.INTRA.VDW>
0.545103

>  <SCORE.INTRA.VDW.0>
-0.754459

>  <SCORE.INTRA.norm>
0.113122

>  <SCORE.RESTR>
0.0113182

>  <SCORE.RESTR.CAVITY>
0.0113182

>  <SCORE.RESTR.norm>
0.000870632

>  <SCORE.SYSTEM>
0

>  <SCORE.SYSTEM.CONST>
0

>  <SCORE.SYSTEM.DIHEDRAL>
0

>  <SCORE.SYSTEM.SOLV>
0

>  <SCORE.SYSTEM.norm>
0

>  <SCORE.heavy>
13

>  <SCORE.norm>
-4.52595

>  <RMSD>
0.684

$$$$
lig.pdb
 OpenBabel11021811453D
libRbt.so/2013.1/901 2013/11/27
 13 14  0  0  0  0  0  0  0  0999 V2000
    2.2819    3.5268   -4.2896 N   0  0  0  0  0  0  0  0  0  0  0  0
    3.5236    2.9413   -4.3275 C   0  0  0  0  0  0  0  0  0  0  0  0
    3.7558    1.8203   -3.6534 N   0  0  0  0  0  0  0  0  0  0  0  0
    2.7774    1.2166   -2.9099 C   0  0  0  0  0  0  0  0  0  0  0  0
    1.4836    1.7927   -2.8362 C   0  0  0  0  0  0  0  0  0  0  0  0
    1.2508    2.9921   -3.5675 C   0  0  0  0  0  0  0  0  0  0  0  0
    0.1612    3.5356   -3.5561 O   0  0  0  0  0  0  0  0  0  0  0  0
    0.6930    0.9378   -1.9508 C   0  0  0  0  0  0  0  0  0  0  0  0
   -0.7274    1.1613   -1.5069 C   0  0  0  0  0  0  0  0  0  0  0  0
   -1.2958   -0.1029   -1.0189 N   0  0  0  0  0  0  0  0  0  0  0  0
    1.4980   -0.0708   -1.5934 C   0  0  0  0  0  0  0  0  0  0  0  0
    2.7389    0.0924   -2.1498 N   0  0  0  0  0  0  0  0  0  0  0  0
    4.5237    3.5113   -5.0705 N   0  0  0  0  0  0  0  0  0  0  0  0
  1  6  1  0  0  0  0
  2  1  1  0  0  0  0
  2  3  2  0  0  0  0
  3  4  1  0  0  0  0
  4  5  2  0  0  0  0
  4 12  1  0  0  0  0
  5  8  1  0  0  0  0
  6  7  2  0  0  0  0
  6  5  1  0  0  0  0
  8 11  2  0  0  0  0
  8  9  1  0  0  0  0
 10  9  1  0  0  0  0
 12 11  1  0  0  0  0
 13  2  1  0  0  0  0
M  END
>  <CHROM.1>
160.92687023,87.16106887,1.72661857,1.81259904,-2.96931285,0.78150458,0.26752869
-0.57801326

>  <Name>
lig.pdb

>  <RI>
2.50021e+07

>  <Rbt.Current_Directory>
/home/itssahil/PROJECTS/Mol_Feturizer/New_Systems/rnas/2l1v

>  <Rbt.Executable>
rbdock ($Id: //depot/dev/client3/rdock/2013.1/src/exe/rbdock.cxx#4 $)

>  <Rbt.Library>
libRbt.so (2013.1, Build901 2013/11/27)

>  <Rbt.Parameter_File>
/export/apps/rDock/src/rDock_2013.1_src/data/scripts/dock_solv.prm

>  <Rbt.Receptor>
prm/pocket_docking_5.prm

>  <SCORE>
-59.0526

>  <SCORE.INTER>
-60.5475

>  <SCORE.INTER.CONST>
1

>  <SCORE.INTER.POLAR>
-6.03866

>  <SCORE.INTER.ROT>
2

>  <SCORE.INTER.SOLV>
16.896

>  <SCORE.INTER.VDW>
-30.8015

>  <SCORE.INTER.norm>
-4.6575

>  <SCORE.INTRA>
1.44348

>  <SCORE.INTRA.DIHEDRAL>
0.482441

>  <SCORE.INTRA.DIHEDRAL.0>
1.43995

>  <SCORE.INTRA.POLAR>
0.272593

>  <SCORE.INTRA.POLAR.0>
-0.272593

>  <SCORE.INTRA.REPUL>
0

>  <SCORE.INTRA.REPUL.0>
0

>  <SCORE.INTRA.SOLV>
-0.505998

>  <SCORE.INTRA.SOLV.lig_0>
-22.6728

>  <SCORE.INTRA.VDW>
0.528442

>  <SCORE.INTRA.VDW.0>
-0.754459

>  <SCORE.INTRA.norm>
0.111037

>  <SCORE.RESTR>
0.0515054

>  <SCORE.RESTR.CAVITY>
0.0515054

>  <SCORE.RESTR.norm>
0.00396196

>  <SCORE.SYSTEM>
0

>  <SCORE.SYSTEM.CONST>
0

>  <SCORE.SYSTEM.DIHEDRAL>
0

>  <SCORE.SYSTEM.SOLV>
0

>  <SCORE.SYSTEM.norm>
0

>  <SCORE.heavy>
13

>  <SCORE.norm>
-4.5425

>  <RMSD>
0.685

$$$$
lig.pdb
 OpenBabel11021811453D
libRbt.so/2013.1/901 2013/11/27
 13 14  0  0  0  0  0  0  0  0999 V2000
    2.2840    3.5213   -4.2868 N   0  0  0  0  0  0  0  0  0  0  0  0
    3.5255    2.9355   -4.3270 C   0  0  0  0  0  0  0  0  0  0  0  0
    3.7573    1.8118   -3.6571 N   0  0  0  0  0  0  0  0  0  0  0  0
    2.7787    1.2058   -2.9159 C   0  0  0  0  0  0  0  0  0  0  0  0
    1.4852    1.7821   -2.8398 C   0  0  0  0  0  0  0  0  0  0  0  0
    1.2528    2.9844   -3.5666 C   0  0  0  0  0  0  0  0  0  0  0  0
    0.1634    3.5282   -3.5531 O   0  0  0  0  0  0  0  0  0  0  0  0
    0.6943    0.9241   -1.9577 C   0  0  0  0  0  0  0  0  0  0  0  0
   -0.7260    1.1465   -1.5128 C   0  0  0  0  0  0  0  0  0  0  0  0
   -1.2865   -0.1137   -1.0057 N   0  0  0  0  0  0  0  0  0  0  0  0
    1.4989   -0.0861   -1.6042 C   0  0  0  0  0  0  0  0  0  0  0  0
    2.7399    0.0786   -2.1600 N   0  0  0  0  0  0  0  0  0  0  0  0
    4.5257    3.5079   -5.0679 N   0  0  0  0  0  0  0  0  0  0  0  0
  1  6  1  0  0  0  0
  2  1  1  0  0  0  0
  2  3  2  0  0  0  0
  3  4  1  0  0  0  0
  4  5  2  0  0  0  0
  4 12  1  0  0  0  0
  5  8  1  0  0  0  0
  6  7  2  0  0  0  0
  6  5  1  0  0  0  0
  8 11  2  0  0  0  0
  8  9  1  0  0  0  0
 10  9  1  0  0  0  0
 12 11  1  0  0  0  0
 13  2  1  0  0  0  0
M  END
>  <CHROM.1>
161.99340643,-90.80246802,1.72863720,1.80306387,-2.97062701,0.78181573,0.26957744
-0.57513358

>  <Name>
lig.pdb

>  <RI>
2.50021e+07

>  <Rbt.Current_Directory>
/home/itssahil/PROJECTS/Mol_Feturizer/New_Systems/rnas/2l1v

>  <Rbt.Executable>
rbdock ($Id: //depot/dev/client3/rdock/2013.1/src/exe/rbdock.cxx#4 $)

>  <Rbt.Library>
libRbt.so (2013.1, Build901 2013/11/27)

>  <Rbt.Parameter_File>
/export/apps/rDock/src/rDock_2013.1_src/data/scripts/dock_solv.prm

>  <Rbt.Receptor>
prm/pocket_docking_5.prm

>  <SCORE>
-58.9235

>  <SCORE.INTER>
-60.4581

>  <SCORE.INTER.CONST>
1

>  <SCORE.INTER.POLAR>
-6.02922

>  <SCORE.INTER.ROT>
2

>  <SCORE.INTER.SOLV>
16.8862

>  <SCORE.INTER.VDW>
-30.7701

>  <SCORE.INTER.norm>
-4.65062

>  <SCORE.INTRA>
1.49251

>  <SCORE.INTRA.DIHEDRAL>
0.562479

>  <SCORE.INTRA.DIHEDRAL.0>
1.43995

>  <SCORE.INTRA.POLAR>
0.272593

>  <SCORE.INTRA.POLAR.0>
-0.272593

>  <SCORE.INTRA.REPUL>
0

>  <SCORE.INTRA.REPUL.0>
0

>  <SCORE.INTRA.SOLV>
-0.506472

>  <SCORE.INTRA.SOLV.lig_0>
-22.6728

>  <SCORE.INTRA.VDW>
0.53769

>  <SCORE.INTRA.VDW.0>
-0.754459

>  <SCORE.INTRA.norm>
0.114808

>  <SCORE.RESTR>
0.0421276

>  <SCORE.RESTR.CAVITY>
0.0421276

>  <SCORE.RESTR.norm>
0.00324058

>  <SCORE.SYSTEM>
0

>  <SCORE.SYSTEM.CONST>
0

>  <SCORE.SYSTEM.DIHEDRAL>
0

>  <SCORE.SYSTEM.SOLV>
0

>  <SCORE.SYSTEM.norm>
0

>  <SCORE.heavy>
13

>  <SCORE.norm>
-4.53258

>  <RMSD>
0.685

$$$$
lig.pdb
 OpenBabel11021811453D
libRbt.so/2013.1/901 2013/11/27
 13 14  0  0  0  0  0  0  0  0999 V2000
    2.2806    3.5084   -4.2912 N   0  0  0  0  0  0  0  0  0  0  0  0
    3.5286    2.9360   -4.3239 C   0  0  0  0  0  0  0  0  0  0  0  0
    3.7715    1.8210   -3.6435 N   0  0  0  0  0  0  0  0  0  0  0  0
    2.7983    1.2110   -2.8985 C   0  0  0  0  0  0  0  0  0  0  0  0
    1.4983    1.7736   -2.8300 C   0  0  0  0  0  0  0  0  0  0  0  0
    1.2540    2.9667   -3.5680 C   0  0  0  0  0  0  0  0  0  0  0  0
    0.1587    3.4985   -3.5614 O   0  0  0  0  0  0  0  0  0  0  0  0
    0.7152    0.9150   -1.9415 C   0  0  0  0  0  0  0  0  0  0  0  0
   -0.7082    1.1258   -1.5012 C   0  0  0  0  0  0  0  0  0  0  0  0
   -1.2581   -0.1376   -0.9904 N   0  0  0  0  0  0  0  0  0  0  0  0
    1.5303   -0.0830   -1.5774 C   0  0  0  0  0  0  0  0  0  0  0  0
    2.7704    0.0904   -2.1325 N   0  0  0  0  0  0  0  0  0  0  0  0
    4.5239    3.5126   -5.0682 N   0  0  0  0  0  0  0  0  0  0  0  0
  1  6  1  0  0  0  0
  2  1  1  0  0  0  0
  2  3  2  0  0  0  0
  3  4  1  0  0  0  0
  4  5  2  0  0  0  0
  4 12  1  0  0  0  0
  5  8  1  0  0  0  0
  6  7  2  0  0  0  0
  6  5  1  0  0  0  0
  8 11  2  0  0  0  0
  8  9  1  0  0  0  0
 10  9  1  0  0  0  0
 12 11  1  0  0  0  0
 13  2  1  0  0  0  0
M  END
>  <CHROM.1>
161.69117504,86.19815606,1.74184583,1.79579201,-2.96122052,0.79045058,0.26136644
-0.58618618

>  <Name>
lig.pdb

>  <RI>
2.50021e+07

>  <Rbt.Current_Directory>
/home/itssahil/PROJECTS/Mol_Feturizer/New_Systems/rnas/2l1v

>  <Rbt.Executable>
rbdock ($Id: //depot/dev/client3/rdock/2013.1/src/exe/rbdock.cxx#4 $)

>  <Rbt.Library>
libRbt.so (2013.1, Build901 2013/11/27)

>  <Rbt.Parameter_File>
/export/apps/rDock/src/rDock_2013.1_src/data/scripts/dock_solv.prm

>  <Rbt.Receptor>
prm/pocket_docking_5.prm

>  <SCORE>
-59.0081

>  <SCORE.INTER>
-60.4744

>  <SCORE.INTER.CONST>
1

>  <SCORE.INTER.POLAR>
-6.04077

>  <SCORE.INTER.ROT>
2

>  <SCORE.INTER.SOLV>
16.8048

>  <SCORE.INTER.VDW>
-30.7153

>  <SCORE.INTER.norm>
-4.65188

>  <SCORE.INTRA>
1.42996

>  <SCORE.INTRA.DIHEDRAL>
0.445238

>  <SCORE.INTRA.DIHEDRAL.0>
1.43995

>  <SCORE.INTRA.POLAR>
0.272593

>  <SCORE.INTRA.POLAR.0>
-0.272593

>  <SCORE.INTRA.REPUL>
0

>  <SCORE.INTRA.REPUL.0>
0

>  <SCORE.INTRA.SOLV>
-0.505181

>  <SCORE.INTRA.SOLV.lig_0>
-22.6728

>  <SCORE.INTRA.VDW>
0.533119

>  <SCORE.INTRA.VDW.0>
-0.754459

>  <SCORE.INTRA.norm>
0.109997

>  <SCORE.RESTR>
0.0363612

>  <SCORE.RESTR.CAVITY>
0.0363612

>  <SCORE.RESTR.norm>
0.00279702

>  <SCORE.SYSTEM>
0

>  <SCORE.SYSTEM.CONST>
0

>  <SCORE.SYSTEM.DIHEDRAL>
0

>  <SCORE.SYSTEM.SOLV>
0

>  <SCORE.SYSTEM.norm>
0

>  <SCORE.heavy>
13

>  <SCORE.norm>
-4.53908

>  <RMSD>
0.686

$$$$
lig.pdb
 OpenBabel11021811453D
libRbt.so/2013.1/901 2013/11/27
 13 14  0  0  0  0  0  0  0  0999 V2000
    2.2866    3.5042   -4.2515 N   0  0  0  0  0  0  0  0  0  0  0  0
    3.5304    2.9262   -4.3215 C   0  0  0  0  0  0  0  0  0  0  0  0
    3.7777    1.7901   -3.6786 N   0  0  0  0  0  0  0  0  0  0  0  0
    2.8130    1.1634   -2.9363 C   0  0  0  0  0  0  0  0  0  0  0  0
    1.5177    1.7309   -2.8299 C   0  0  0  0  0  0  0  0  0  0  0  0
    1.2686    2.9467   -3.5280 C   0  0  0  0  0  0  0  0  0  0  0  0
    0.1767    3.4840   -3.4877 O   0  0  0  0  0  0  0  0  0  0  0  0
    0.7440    0.8504   -1.9547 C   0  0  0  0  0  0  0  0  0  0  0  0
   -0.6709    1.0557   -1.4851 C   0  0  0  0  0  0  0  0  0  0  0  0
   -1.2059   -0.2102   -0.9649 N   0  0  0  0  0  0  0  0  0  0  0  0
    1.5589   -0.1624   -1.6337 C   0  0  0  0  0  0  0  0  0  0  0  0
    2.7909    0.0207   -2.2036 N   0  0  0  0  0  0  0  0  0  0  0  0
    4.5169    3.5194   -5.0645 N   0  0  0  0  0  0  0  0  0  0  0  0
  1  6  1  0  0  0  0
  2  1  1  0  0  0  0
  2  3  2  0  0  0  0
  3  4  1  0  0  0  0
  4  5  2  0  0  0  0
  4 12  1  0  0  0  0
  5  8  1  0  0  0  0
  6  7  2  0  0  0  0
  6  5  1  0  0  0  0
  8 11  2  0  0  0  0
  8  9  1  0  0  0  0
 10  9  1  0  0  0  0
 12 11  1  0  0  0  0
 13  2  1  0  0  0  0
M  END
>  <CHROM.1>
163.42070572,85.45912841,1.76051221,1.75645969,-2.96081633,0.79626323,0.28071030
-0.55921240

>  <Name>
lig.pdb

>  <RI>
2.50021e+07

>  <Rbt.Current_Directory>
/home/itssahil/PROJECTS/Mol_Feturizer/New_Systems/rnas/2l1v

>  <Rbt.Executable>
rbdock ($Id: //depot/dev/client3/rdock/2013.1/src/exe/rbdock.cxx#4 $)

>  <Rbt.Library>
libRbt.so (2013.1, Build901 2013/11/27)

>  <Rbt.Parameter_File>
/export/apps/rDock/src/rDock_2013.1_src/data/scripts/dock_solv.prm

>  <Rbt.Receptor>
prm/pocket_docking_5.prm

>  <SCORE>
-58.909

>  <SCORE.INTER>
-60.3199

>  <SCORE.INTER.CONST>
1

>  <SCORE.INTER.POLAR>
-6.05257

>  <SCORE.INTER.ROT>
2

>  <SCORE.INTER.SOLV>
16.8147

>  <SCORE.INTER.VDW>
-30.5763

>  <SCORE.INTER.norm>
-4.63999

>  <SCORE.INTRA>
1.39991

>  <SCORE.INTRA.DIHEDRAL>
0.364147

>  <SCORE.INTRA.DIHEDRAL.0>
1.43995

>  <SCORE.INTRA.POLAR>
0.272593

>  <SCORE.INTRA.POLAR.0>
-0.272593

>  <SCORE.INTRA.REPUL>
0

>  <SCORE.INTRA.REPUL.0>
0

>  <SCORE.INTRA.SOLV>
-0.50345

>  <SCORE.INTRA.SOLV.lig_0>
-22.6728

>  <SCORE.INTRA.VDW>
0.542749

>  <SCORE.INTRA.VDW.0>
-0.754459

>  <SCORE.INTRA.norm>
0.107686

>  <SCORE.RESTR>
0.0110117

>  <SCORE.RESTR.CAVITY>
0.0110117

>  <SCORE.RESTR.norm>
0.000847055

>  <SCORE.SYSTEM>
0

>  <SCORE.SYSTEM.CONST>
0

>  <SCORE.SYSTEM.DIHEDRAL>
0

>  <SCORE.SYSTEM.SOLV>
0

>  <SCORE.SYSTEM.norm>
0

>  <SCORE.heavy>
13

>  <SCORE.norm>
-4.53146

>  <RMSD>
0.686

$$$$
lig.pdb
 OpenBabel11021811453D
libRbt.so/2013.1/901 2013/11/27
 13 14  0  0  0  0  0  0  0  0999 V2000
    2.2786    3.4999   -4.2987 N   0  0  0  0  0  0  0  0  0  0  0  0
    3.5295    2.9333   -4.3231 C   0  0  0  0  0  0  0  0  0  0  0  0
    3.7769    1.8275   -3.6295 N   0  0  0  0  0  0  0  0  0  0  0  0
    2.8057    1.2212   -2.8789 C   0  0  0  0  0  0  0  0  0  0  0  0
    1.5028    1.7782   -2.8187 C   0  0  0  0  0  0  0  0  0  0  0  0
    1.2537    2.9614   -3.5707 C   0  0  0  0  0  0  0  0  0  0  0  0
    0.1557    3.4879   -3.5717 O   0  0  0  0  0  0  0  0  0  0  0  0
    0.7228    0.9260   -1.9214 C   0  0  0  0  0  0  0  0  0  0  0  0
   -0.7023    1.1347   -1.4855 C   0  0  0  0  0  0  0  0  0  0  0  0
   -1.2602   -0.1353   -1.0005 N   0  0  0  0  0  0  0  0  0  0  0  0
    1.5422   -0.0637   -1.5447 C   0  0  0  0  0  0  0  0  0  0  0  0
    2.7822    0.1094   -2.1001 N   0  0  0  0  0  0  0  0  0  0  0  0
    4.5229    3.5063   -5.0726 N   0  0  0  0  0  0  0  0  0  0  0  0
  1  6  1  0  0  0  0
  2  1  1  0  0  0  0
  2  3  2  0  0  0  0
  3  4  1  0  0  0  0
  4  5  2  0  0  0  0
  4 12  1  0  0  0  0
  5  8  1  0  0  0  0
  6  7  2  0  0  0  0
  6  5  1  0  0  0  0
  8 11  2  0  0  0  0
  8  9  1  0  0  0  0
 10  9  1  0  0  0  0
 12 11  1  0  0  0  0
 13  2  1  0  0  0  0
M  END
>  <CHROM.1>
159.91273921,85.81728213,1.74519434,1.79913054,-2.95351598,0.79218756,0.25467174
-0.59695886

>  <Name>
lig.pdb

>  <RI>
9.54411e+06

>  <Rbt.Current_Directory>
/home/itssahil/PROJECTS/Mol_Feturizer/New_Systems/rnas/2l1v

>  <Rbt.Executable>
rbdock ($Id: //depot/dev/client3/rdock/2013.1/src/exe/rbdock.cxx#4 $)

>  <Rbt.Library>
libRbt.so (2013.1, Build901 2013/11/27)

>  <Rbt.Parameter_File>
/export/apps/rDock/src/rDock_2013.1_src/data/scripts/dock_solv.prm

>  <Rbt.Receptor>
prm/pocket_docking_6.prm

>  <SCORE>
-58.9716

>  <SCORE.INTER>
-60.4675

>  <SCORE.INTER.CONST>
1

>  <SCORE.INTER.POLAR>
-6.05052

>  <SCORE.INTER.ROT>
2

>  <SCORE.INTER.SOLV>
16.759

>  <SCORE.INTER.VDW>
-30.6629

>  <SCORE.INTER.norm>
-4.65134

>  <SCORE.INTRA>
1.46366

>  <SCORE.INTRA.DIHEDRAL>
0.534281

>  <SCORE.INTRA.DIHEDRAL.0>
1.43995

>  <SCORE.INTRA.POLAR>
0.272593

>  <SCORE.INTRA.POLAR.0>
-0.272593

>  <SCORE.INTRA.REPUL>
0

>  <SCORE.INTRA.REPUL.0>
0

>  <SCORE.INTRA.SOLV>
-0.507063

>  <SCORE.INTRA.SOLV.lig_0>
-22.6728

>  <SCORE.INTRA.VDW>
0.523233

>  <SCORE.INTRA.VDW.0>
-0.754459

>  <SCORE.INTRA.norm>
0.112589

>  <SCORE.RESTR>
0.032234

>  <SCORE.RESTR.CAVITY>
0.032234

>  <SCORE.RESTR.norm>
0.00247953

>  <SCORE.SYSTEM>
0

>  <SCORE.SYSTEM.CONST>
0

>  <SCORE.SYSTEM.DIHEDRAL>
0

>  <SCORE.SYSTEM.SOLV>
0

>  <SCORE.SYSTEM.norm>
0

>  <SCORE.heavy>
13

>  <SCORE.norm>
-4.53628

>  <RMSD>
0.686

$$$$
lig.pdb
 OpenBabel11021811453D
libRbt.so/2013.1/901 2013/11/27
 13 14  0  0  0  0  0  0  0  0999 V2000
    2.2821    3.5111   -4.2921 N   0  0  0  0  0  0  0  0  0  0  0  0
    3.5308    2.9400   -4.3215 C   0  0  0  0  0  0  0  0  0  0  0  0
    3.7747    1.8284   -3.6361 N   0  0  0  0  0  0  0  0  0  0  0  0
    2.8017    1.2204   -2.8890 C   0  0  0  0  0  0  0  0  0  0  0  0
    1.5010    1.7819   -2.8237 C   0  0  0  0  0  0  0  0  0  0  0  0
    1.2558    2.9713   -3.5671 C   0  0  0  0  0  0  0  0  0  0  0  0
    0.1598    3.5019   -3.5635 O   0  0  0  0  0  0  0  0  0  0  0  0
    0.7184    0.9263   -1.9319 C   0  0  0  0  0  0  0  0  0  0  0  0
   -0.7055    1.1373   -1.4934 C   0  0  0  0  0  0  0  0  0  0  0  0
   -1.2647   -0.1320   -1.0080 N   0  0  0  0  0  0  0  0  0  0  0  0
    1.5345   -0.0692   -1.5629 C   0  0  0  0  0  0  0  0  0  0  0  0
    2.7747    0.1032   -2.1181 N   0  0  0  0  0  0  0  0  0  0  0  0
    4.5258    3.5146   -5.0678 N   0  0  0  0  0  0  0  0  0  0  0  0
  1  6  1  0  0  0  0
  2  1  1  0  0  0  0
  2  3  2  0  0  0  0
  3  4  1  0  0  0  0
  4  5  2  0  0  0  0
  4 12  1  0  0  0  0
  5  8  1  0  0  0  0
  6  7  2  0  0  0  0
  6  5  1  0  0  0  0
  8 11  2  0  0  0  0
  8  9  1  0  0  0  0
 10  9  1  0  0  0  0
 12 11  1  0  0  0  0
 13  2  1  0  0  0  0
M  END
>  <CHROM.1>
160.31468829,-91.75371094,1.74333392,1.80320794,-2.95768775,0.78940735,0.25821267
-0.58950340

>  <Name>
lig.pdb

>  <RI>
9.54411e+06

>  <Rbt.Current_Directory>
/home/itssahil/PROJECTS/Mol_Feturizer/New_Systems/rnas/2l1v

>  <Rbt.Executable>
rbdock ($Id: //depot/dev/client3/rdock/2013.1/src/exe/rbdock.cxx#4 $)

>  <Rbt.Library>
libRbt.so (2013.1, Build901 2013/11/27)

>  <Rbt.Parameter_File>
/export/apps/rDock/src/rDock_2013.1_src/data/scripts/dock_solv.prm

>  <Rbt.Receptor>
prm/pocket_docking_6.prm

>  <SCORE>
-58.9824

>  <SCORE.INTER>
-60.5476

>  <SCORE.INTER.CONST>
1

>  <SCORE.INTER.POLAR>
-6.06169

>  <SCORE.INTER.ROT>
2

>  <SCORE.INTER.SOLV>
16.8018

>  <SCORE.INTER.VDW>
-30.6934

>  <SCORE.INTER.norm>
-4.65751

>  <SCORE.INTRA>
1.52388

>  <SCORE.INTRA.DIHEDRAL>
0.645406

>  <SCORE.INTRA.DIHEDRAL.0>
1.43995

>  <SCORE.INTRA.POLAR>
0.272593

>  <SCORE.INTRA.POLAR.0>
-0.272593

>  <SCORE.INTRA.REPUL>
0

>  <SCORE.INTRA.REPUL.0>
0

>  <SCORE.INTRA.SOLV>
-0.508213

>  <SCORE.INTRA.SOLV.lig_0>
-22.6728

>  <SCORE.INTRA.VDW>
0.52847

>  <SCORE.INTRA.VDW.0>
-0.754459

>  <SCORE.INTRA.norm>
0.117222

>  <SCORE.RESTR>
0.0413766

>  <SCORE.RESTR.CAVITY>
0.0413766

>  <SCORE.RESTR.norm>
0.00318282

>  <SCORE.SYSTEM>
0

>  <SCORE.SYSTEM.CONST>
0

>  <SCORE.SYSTEM.DIHEDRAL>
0

>  <SCORE.SYSTEM.SOLV>
0

>  <SCORE.SYSTEM.norm>
0

>  <SCORE.heavy>
13

>  <SCORE.norm>
-4.53711

>  <RMSD>
0.686

$$$$
lig.pdb
 OpenBabel11021811453D
libRbt.so/2013.1/901 2013/11/27
 13 14  0  0  0  0  0  0  0  0999 V2000
    2.2824    3.4896   -4.2731 N   0  0  0  0  0  0  0  0  0  0  0  0
    3.5350    2.9283   -4.3181 C   0  0  0  0  0  0  0  0  0  0  0  0
    3.7918    1.8100   -3.6484 N   0  0  0  0  0  0  0  0  0  0  0  0
    2.8285    1.1855   -2.9024 C   0  0  0  0  0  0  0  0  0  0  0  0
    1.5242    1.7362   -2.8212 C   0  0  0  0  0  0  0  0  0  0  0  0
    1.2650    2.9330   -3.5480 C   0  0  0  0  0  0  0  0  0  0  0  0
    0.1652    3.4553   -3.5303 O   0  0  0  0  0  0  0  0  0  0  0  0
    0.7541    0.8637   -1.9350 C   0  0  0  0  0  0  0  0  0  0  0  0
   -0.6683    1.0585   -1.4842 C   0  0  0  0  0  0  0  0  0  0  0  0
   -1.1980   -0.2093   -0.9632 N   0  0  0  0  0  0  0  0  0  0  0  0
    1.5800   -0.1302   -1.5841 C   0  0  0  0  0  0  0  0  0  0  0  0
    2.8151    0.0585   -2.1454 N   0  0  0  0  0  0  0  0  0  0  0  0
    4.5206    3.5196   -5.0638 N   0  0  0  0  0  0  0  0  0  0  0  0
  1  6  1  0  0  0  0
  2  1  1  0  0  0  0
  2  3  2  0  0  0  0
  3  4  1  0  0  0  0
  4  5  2  0  0  0  0
  4 12  1  0  0  0  0
  5  8  1  0  0  0  0
  6  7  2  0  0  0  0
  6  5  1  0  0  0  0
  8 11  2  0  0  0  0
  8  9  1  0  0  0  0
 10  9  1  0  0  0  0
 12 11  1  0  0  0  0
 13  2  1  0  0  0  0
M  END
>  <CHROM.1>
162.46437233,83.16549807,1.76729301,1.76199455,-2.95222173,0.80223533,0.26276870
-0.58175433

>  <Name>
lig.pdb

>  <RI>
9.54411e+06

>  <Rbt.Current_Directory>
/home/itssahil/PROJECTS/Mol_Feturizer/New_Systems/rnas/2l1v

>  <Rbt.Executable>
rbdock ($Id: //depot/dev/client3/rdock/2013.1/src/exe/rbdock.cxx#4 $)

>  <Rbt.Library>
libRbt.so (2013.1, Build901 2013/11/27)

>  <Rbt.Parameter_File>
/export/apps/rDock/src/rDock_2013.1_src/data/scripts/dock_solv.prm

>  <Rbt.Receptor>
prm/pocket_docking_6.prm

>  <SCORE>
-58.8042

>  <SCORE.INTER>
-60.2401

>  <SCORE.INTER.CONST>
1

>  <SCORE.INTER.POLAR>
-6.04979

>  <SCORE.INTER.ROT>
2

>  <SCORE.INTER.SOLV>
16.7258

>  <SCORE.INTER.VDW>
-30.5027

>  <SCORE.INTER.norm>
-4.63385

>  <SCORE.INTRA>
1.41895

>  <SCORE.INTRA.DIHEDRAL>
0.410489

>  <SCORE.INTRA.DIHEDRAL.0>
1.43995

>  <SCORE.INTRA.POLAR>
0.272593

>  <SCORE.INTRA.POLAR.0>
-0.272593

>  <SCORE.INTRA.REPUL>
0

>  <SCORE.INTRA.REPUL.0>
0

>  <SCORE.INTRA.SOLV>
-0.504325

>  <SCORE.INTRA.SOLV.lig_0>
-22.6728

>  <SCORE.INTRA.VDW>
0.53905

>  <SCORE.INTRA.VDW.0>
-0.754459

>  <SCORE.INTRA.norm>
0.10915

>  <SCORE.RESTR>
0.016951

>  <SCORE.RESTR.CAVITY>
0.016951

>  <SCORE.RESTR.norm>
0.00130392

>  <SCORE.SYSTEM>
0

>  <SCORE.SYSTEM.CONST>
0

>  <SCORE.SYSTEM.DIHEDRAL>
0

>  <SCORE.SYSTEM.SOLV>
0

>  <SCORE.SYSTEM.norm>
0

>  <SCORE.heavy>
13

>  <SCORE.norm>
-4.5234

>  <RMSD>
0.687

$$$$
lig.pdb
 OpenBabel11021811453D
libRbt.so/2013.1/901 2013/11/27
 13 14  0  0  0  0  0  0  0  0999 V2000
    2.2896    3.5057   -4.2602 N   0  0  0  0  0  0  0  0  0  0  0  0
    3.5408    2.9431   -4.3234 C   0  0  0  0  0  0  0  0  0  0  0  0
    3.7993    1.8117   -3.6767 N   0  0  0  0  0  0  0  0  0  0  0  0
    2.8393    1.1748   -2.9371 C   0  0  0  0  0  0  0  0  0  0  0  0
    1.5366    1.7263   -2.8377 C   0  0  0  0  0  0  0  0  0  0  0  0
    1.2755    2.9373   -3.5398 C   0  0  0  0  0  0  0  0  0  0  0  0
    0.1768    3.4612   -3.5055 O   0  0  0  0  0  0  0  0  0  0  0  0
    0.7700    0.8384   -1.9637 C   0  0  0  0  0  0  0  0  0  0  0  0
   -0.6493    1.0272   -1.5008 C   0  0  0  0  0  0  0  0  0  0  0  0
   -1.1566   -0.2330   -0.9405 N   0  0  0  0  0  0  0  0  0  0  0  0
    1.5960   -0.1635   -1.6368 C   0  0  0  0  0  0  0  0  0  0  0  0
    2.8281    0.0335   -2.2018 N   0  0  0  0  0  0  0  0  0  0  0  0
    4.5232    3.5467   -5.0635 N   0  0  0  0  0  0  0  0  0  0  0  0
  1  6  1  0  0  0  0
  2  1  1  0  0  0  0
  2  3  2  0  0  0  0
  3  4  1  0  0  0  0
  4  5  2  0  0  0  0
  4 12  1  0  0  0  0
  5  8  1  0  0  0  0
  6  7  2  0  0  0  0
  6  5  1  0  0  0  0
  8 11  2  0  0  0  0
  8  9  1  0  0  0  0
 10  9  1  0  0  0  0
 12 11  1  0  0  0  0
 13  2  1  0  0  0  0
M  END
>  <CHROM.1>
165.21831263,-95.06104473,1.78064527,1.75584019,-2.96382650,0.80599178,0.27312190
-0.56580073

>  <Name>
lig.pdb

>  <RI>
9.54411e+06

>  <Rbt.Current_Directory>
/home/itssahil/PROJECTS/Mol_Feturizer/New_Systems/rnas/2l1v

>  <Rbt.Executable>
rbdock ($Id: //depot/dev/client3/rdock/2013.1/src/exe/rbdock.cxx#4 $)

>  <Rbt.Library>
libRbt.so (2013.1, Build901 2013/11/27)

>  <Rbt.Parameter_File>
/export/apps/rDock/src/rDock_2013.1_src/data/scripts/dock_solv.prm

>  <Rbt.Receptor>
prm/pocket_docking_6.prm

>  <SCORE>
-58.7688

>  <SCORE.INTER>
-60.2487

>  <SCORE.INTER.CONST>
1

>  <SCORE.INTER.POLAR>
-6.05402

>  <SCORE.INTER.ROT>
2

>  <SCORE.INTER.SOLV>
16.7754

>  <SCORE.INTER.VDW>
-30.5108

>  <SCORE.INTER.norm>
-4.63452

>  <SCORE.INTRA>
1.43845

>  <SCORE.INTRA.DIHEDRAL>
0.415256

>  <SCORE.INTRA.DIHEDRAL.0>
1.43995

>  <SCORE.INTRA.POLAR>
0.272593

>  <SCORE.INTRA.POLAR.0>
-0.272593

>  <SCORE.INTRA.REPUL>
0

>  <SCORE.INTRA.REPUL.0>
0

>  <SCORE.INTRA.SOLV>
-0.503324

>  <SCORE.INTRA.SOLV.lig_0>
-22.6728

>  <SCORE.INTRA.VDW>
0.555668

>  <SCORE.INTRA.VDW.0>
-0.754459

>  <SCORE.INTRA.norm>
0.11065

>  <SCORE.RESTR>
0.0415009

>  <SCORE.RESTR.CAVITY>
0.0415009

>  <SCORE.RESTR.norm>
0.00319237

>  <SCORE.SYSTEM>
0

>  <SCORE.SYSTEM.CONST>
0

>  <SCORE.SYSTEM.DIHEDRAL>
0

>  <SCORE.SYSTEM.SOLV>
0

>  <SCORE.SYSTEM.norm>
0

>  <SCORE.heavy>
13

>  <SCORE.norm>
-4.52067

>  <RMSD>
0.687

$$$$
lig.pdb
 OpenBabel11021811453D
libRbt.so/2013.1/901 2013/11/27
 13 14  0  0  0  0  0  0  0  0999 V2000
    2.2830    3.5098   -4.2940 N   0  0  0  0  0  0  0  0  0  0  0  0
    3.5313    2.9378   -4.3194 C   0  0  0  0  0  0  0  0  0  0  0  0
    3.7730    1.8276   -3.6309 N   0  0  0  0  0  0  0  0  0  0  0  0
    2.7980    1.2220   -2.8846 C   0  0  0  0  0  0  0  0  0  0  0  0
    1.4975    1.7844   -2.8234 C   0  0  0  0  0  0  0  0  0  0  0  0
    1.2547    2.9723   -3.5701 C   0  0  0  0  0  0  0  0  0  0  0  0
    0.1591    3.5036   -3.5700 O   0  0  0  0  0  0  0  0  0  0  0  0
    0.7124    0.9313   -1.9314 C   0  0  0  0  0  0  0  0  0  0  0  0
   -0.7123    1.1442   -1.4965 C   0  0  0  0  0  0  0  0  0  0  0  0
   -1.2712   -0.1220   -1.0027 N   0  0  0  0  0  0  0  0  0  0  0  0
    1.5270   -0.0639   -1.5584 C   0  0  0  0  0  0  0  0  0  0  0  0
    2.7685    0.1065   -2.1112 N   0  0  0  0  0  0  0  0  0  0  0  0
    4.5284    3.5100   -5.0648 N   0  0  0  0  0  0  0  0  0  0  0  0
  1  6  1  0  0  0  0
  2  1  1  0  0  0  0
  2  3  2  0  0  0  0
  3  4  1  0  0  0  0
  4  5  2  0  0  0  0
  4 12  1  0  0  0  0
  5  8  1  0  0  0  0
  6  7  2  0  0  0  0
  6  5  1  0  0  0  0
  8 11  2  0  0  0  0
  8  9  1  0  0  0  0
 10  9  1  0  0  0  0
 12 11  1  0  0  0  0
 13  2  1  0  0  0  0
M  END
>  <CHROM.1>
160.61835787,-91.59110684,1.74035145,1.80540280,-2.95628088,0.78787204,0.25722270
-0.59157005

>  <Name>
lig.pdb

>  <RI>
2.05237e+07

>  <Rbt.Current_Directory>
/home/itssahil/PROJECTS/Mol_Feturizer/New_Systems/rnas/2l1v

>  <Rbt.Executable>
rbdock ($Id: //depot/dev/client3/rdock/2013.1/src/exe/rbdock.cxx#4 $)

>  <Rbt.Library>
libRbt.so (2013.1, Build901 2013/11/27)

>  <Rbt.Parameter_File>
/export/apps/rDock/src/rDock_2013.1_src/data/scripts/dock_solv.prm

>  <Rbt.Receptor>
prm/blind_docking_100.prm

>  <SCORE>
-58.9522

>  <SCORE.INTER>
-60.5062

>  <SCORE.INTER.CONST>
1

>  <SCORE.INTER.POLAR>
-6.05611

>  <SCORE.INTER.ROT>
2

>  <SCORE.INTER.SOLV>
16.7893

>  <SCORE.INTER.VDW>
-30.6802

>  <SCORE.INTER.norm>
-4.65432

>  <SCORE.INTRA>
1.51809

>  <SCORE.INTRA.DIHEDRAL>
0.630099

>  <SCORE.INTRA.DIHEDRAL.0>
1.43995

>  <SCORE.INTRA.POLAR>
0.272593

>  <SCORE.INTRA.POLAR.0>
-0.272593

>  <SCORE.INTRA.REPUL>
0

>  <SCORE.INTRA.REPUL.0>
0

>  <SCORE.INTRA.SOLV>
-0.507889

>  <SCORE.INTRA.SOLV.lig_0>
-22.6728

>  <SCORE.INTRA.VDW>
0.53017

>  <SCORE.INTRA.VDW.0>
-0.754459

>  <SCORE.INTRA.norm>
0.116776

>  <SCORE.RESTR>
0.0359316

>  <SCORE.RESTR.CAVITY>
0.0359316

>  <SCORE.RESTR.norm>
0.00276397

>  <SCORE.SYSTEM>
0

>  <SCORE.SYSTEM.CONST>
0

>  <SCORE.SYSTEM.DIHEDRAL>
0

>  <SCORE.SYSTEM.SOLV>
0

>  <SCORE.SYSTEM.norm>
0

>  <SCORE.heavy>
13

>  <SCORE.norm>
-4.53478

>  <RMSD>
0.688

$$$$
lig.pdb
 OpenBabel11021811453D
libRbt.so/2013.1/901 2013/11/27
 13 14  0  0  0  0  0  0  0  0999 V2000
    2.2941    3.5132   -4.2537 N   0  0  0  0  0  0  0  0  0  0  0  0
    3.5464    2.9529   -4.3161 C   0  0  0  0  0  0  0  0  0  0  0  0
    3.8081    1.8249   -3.6648 N   0  0  0  0  0  0  0  0  0  0  0  0
    2.8503    1.1893   -2.9211 C   0  0  0  0  0  0  0  0  0  0  0  0
    1.5466    1.7385   -2.8224 C   0  0  0  0  0  0  0  0  0  0  0  0
    1.2821    2.9459   -3.5295 C   0  0  0  0  0  0  0  0  0  0  0  0
    0.1823    3.4677   -3.4961 O   0  0  0  0  0  0  0  0  0  0  0  0
    0.7830    0.8529   -1.9436 C   0  0  0  0  0  0  0  0  0  0  0  0
   -0.6361    1.0408   -1.4797 C   0  0  0  0  0  0  0  0  0  0  0  0
   -1.1525   -0.2278   -0.9473 N   0  0  0  0  0  0  0  0  0  0  0  0
    1.6115   -0.1459   -1.6134 C   0  0  0  0  0  0  0  0  0  0  0  0
    2.8424    0.0512   -2.1808 N   0  0  0  0  0  0  0  0  0  0  0  0
    4.5265    3.5553   -5.0601 N   0  0  0  0  0  0  0  0  0  0  0  0
  1  6  1  0  0  0  0
  2  1  1  0  0  0  0
  2  3  2  0  0  0  0
  3  4  1  0  0  0  0
  4  5  2  0  0  0  0
  4 12  1  0  0  0  0
  5  8  1  0  0  0  0
  6  7  2  0  0  0  0
  6  5  1  0  0  0  0
  8 11  2  0  0  0  0
  8  9  1  0  0  0  0
 10  9  1  0  0  0  0
 12 11  1  0  0  0  0
 13  2  1  0  0  0  0
M  END
>  <CHROM.1>
163.65936853,81.75279975,1.78957555,1.76691400,-2.95232224,0.80753790,0.27054077
-0.56931830

>  <Name>
lig.pdb

>  <RI>
2.05237e+07

>  <Rbt.Current_Directory>
/home/itssahil/PROJECTS/Mol_Feturizer/New_Systems/rnas/2l1v

>  <Rbt.Executable>
rbdock ($Id: //depot/dev/client3/rdock/2013.1/src/exe/rbdock.cxx#4 $)

>  <Rbt.Library>
libRbt.so (2013.1, Build901 2013/11/27)

>  <Rbt.Parameter_File>
/export/apps/rDock/src/rDock_2013.1_src/data/scripts/dock_solv.prm

>  <Rbt.Receptor>
prm/blind_docking_100.prm

>  <SCORE>
-58.8789

>  <SCORE.INTER>
-60.3297

>  <SCORE.INTER.CONST>
1

>  <SCORE.INTER.POLAR>
-6.08736

>  <SCORE.INTER.ROT>
2

>  <SCORE.INTER.SOLV>
16.7437

>  <SCORE.INTER.VDW>
-30.4431

>  <SCORE.INTER.norm>
-4.64074

>  <SCORE.INTRA>
1.40006

>  <SCORE.INTRA.DIHEDRAL>
0.35686

>  <SCORE.INTRA.DIHEDRAL.0>
1.43995

>  <SCORE.INTRA.POLAR>
0.272593

>  <SCORE.INTRA.POLAR.0>
-0.272593

>  <SCORE.INTRA.REPUL>
0

>  <SCORE.INTRA.REPUL.0>
0

>  <SCORE.INTRA.SOLV>
-0.503127

>  <SCORE.INTRA.SOLV.lig_0>
-22.6728

>  <SCORE.INTRA.VDW>
0.546377

>  <SCORE.INTRA.VDW.0>
-0.754459

>  <SCORE.INTRA.norm>
0.107697

>  <SCORE.RESTR>
0.0507104

>  <SCORE.RESTR.CAVITY>
0.0507104

>  <SCORE.RESTR.norm>
0.0039008

>  <SCORE.SYSTEM>
0

>  <SCORE.SYSTEM.CONST>
0

>  <SCORE.SYSTEM.DIHEDRAL>
0

>  <SCORE.SYSTEM.SOLV>
0

>  <SCORE.SYSTEM.norm>
0

>  <SCORE.heavy>
13

>  <SCORE.norm>
-4.52915

>  <RMSD>
0.689

$$$$
lig.pdb
 OpenBabel11021811453D
libRbt.so/2013.1/901 2013/11/27
 13 14  0  0  0  0  0  0  0  0999 V2000
    2.2773    3.5155   -4.2928 N   0  0  0  0  0  0  0  0  0  0  0  0
    3.5194    2.9309   -4.3340 C   0  0  0  0  0  0  0  0  0  0  0  0
    3.7544    1.8102   -3.6605 N   0  0  0  0  0  0  0  0  0  0  0  0
    2.7785    1.2059   -2.9142 C   0  0  0  0  0  0  0  0  0  0  0  0
    1.4845    1.7809   -2.8369 C   0  0  0  0  0  0  0  0  0  0  0  0
    1.2487    2.9801   -3.5677 C   0  0  0  0  0  0  0  0  0  0  0  0
    0.1587    3.5227   -3.5534 O   0  0  0  0  0  0  0  0  0  0  0  0
    0.6969    0.9255   -1.9493 C   0  0  0  0  0  0  0  0  0  0  0  0
   -0.7224    1.1480   -1.5015 C   0  0  0  0  0  0  0  0  0  0  0  0
   -1.2688   -0.1026   -0.9566 N   0  0  0  0  0  0  0  0  0  0  0  0
    1.5037   -0.0824   -1.5940 C   0  0  0  0  0  0  0  0  0  0  0  0
    2.7430    0.0816   -2.1538 N   0  0  0  0  0  0  0  0  0  0  0  0
    4.5170    3.5016   -5.0799 N   0  0  0  0  0  0  0  0  0  0  0  0
  1  6  1  0  0  0  0
  2  1  1  0  0  0  0
  2  3  2  0  0  0  0
  3  4  1  0  0  0  0
  4  5  2  0  0  0  0
  4 12  1  0  0  0  0
  5  8  1  0  0  0  0
  6  7  2  0  0  0  0
  6  5  1  0  0  0  0
  8 11  2  0  0  0  0
  8  9  1  0  0  0  0
 10  9  1  0  0  0  0
 12 11  1  0  0  0  0
 13  2  1  0  0  0  0
M  END
>  <CHROM.1>
163.41545769,-90.45703803,1.72858726,1.80247105,-2.96552578,0.78568964,0.27341543
-0.58103924

>  <Name>
lig.pdb

>  <RI>
2.50021e+07

>  <Rbt.Current_Directory>
/home/itssahil/PROJECTS/Mol_Feturizer/New_Systems/rnas/2l1v

>  <Rbt.Executable>
rbdock ($Id: //depot/dev/client3/rdock/2013.1/src/exe/rbdock.cxx#4 $)

>  <Rbt.Library>
libRbt.so (2013.1, Build901 2013/11/27)

>  <Rbt.Parameter_File>
/export/apps/rDock/src/rDock_2013.1_src/data/scripts/dock_solv.prm

>  <Rbt.Receptor>
prm/pocket_docking_5.prm

>  <SCORE>
-58.8991

>  <SCORE.INTER>
-60.4101

>  <SCORE.INTER.CONST>
1

>  <SCORE.INTER.POLAR>
-5.97725

>  <SCORE.INTER.ROT>
2

>  <SCORE.INTER.SOLV>
16.8196

>  <SCORE.INTER.VDW>
-30.8891

>  <SCORE.INTER.norm>
-4.64693

>  <SCORE.INTRA>
1.46742

>  <SCORE.INTRA.DIHEDRAL>
0.495796

>  <SCORE.INTRA.DIHEDRAL.0>
1.43995

>  <SCORE.INTRA.POLAR>
0.272593

>  <SCORE.INTRA.POLAR.0>
-0.272593

>  <SCORE.INTRA.REPUL>
0

>  <SCORE.INTRA.REPUL.0>
0

>  <SCORE.INTRA.SOLV>
-0.505075

>  <SCORE.INTRA.SOLV.lig_0>
-22.6728

>  <SCORE.INTRA.VDW>
0.54524

>  <SCORE.INTRA.VDW.0>
-0.754459

>  <SCORE.INTRA.norm>
0.112878

>  <SCORE.RESTR>
0.0435092

>  <SCORE.RESTR.CAVITY>
0.0435092

>  <SCORE.RESTR.norm>
0.00334686

>  <SCORE.SYSTEM>
0

>  <SCORE.SYSTEM.CONST>
0

>  <SCORE.SYSTEM.DIHEDRAL>
0

>  <SCORE.SYSTEM.SOLV>
0

>  <SCORE.SYSTEM.norm>
0

>  <SCORE.heavy>
13

>  <SCORE.norm>
-4.5307

>  <RMSD>
0.689

$$$$
lig.pdb
 OpenBabel11021811453D
libRbt.so/2013.1/901 2013/11/27
 13 14  0  0  0  0  0  0  0  0999 V2000
    2.2829    3.5102   -4.2897 N   0  0  0  0  0  0  0  0  0  0  0  0
    3.5307    2.9374   -4.3213 C   0  0  0  0  0  0  0  0  0  0  0  0
    3.7730    1.8228   -3.6402 N   0  0  0  0  0  0  0  0  0  0  0  0
    2.7991    1.2133   -2.8955 C   0  0  0  0  0  0  0  0  0  0  0  0
    1.4992    1.7763   -2.8281 C   0  0  0  0  0  0  0  0  0  0  0  0
    1.2557    2.9690   -3.5669 C   0  0  0  0  0  0  0  0  0  0  0  0
    0.1605    3.5011   -3.5612 O   0  0  0  0  0  0  0  0  0  0  0  0
    0.7154    0.9184   -1.9397 C   0  0  0  0  0  0  0  0  0  0  0  0
   -0.7083    1.1297   -1.5004 C   0  0  0  0  0  0  0  0  0  0  0  0
   -1.2545   -0.1301   -0.9769 N   0  0  0  0  0  0  0  0  0  0  0  0
    1.5300   -0.0797   -1.5746 C   0  0  0  0  0  0  0  0  0  0  0  0
    2.7705    0.0931   -2.1290 N   0  0  0  0  0  0  0  0  0  0  0  0
    4.5266    3.5135   -5.0653 N   0  0  0  0  0  0  0  0  0  0  0  0
  1  6  1  0  0  0  0
  2  1  1  0  0  0  0
  2  3  2  0  0  0  0
  3  4  1  0  0  0  0
  4  5  2  0  0  0  0
  4 12  1  0  0  0  0
  5  8  1  0  0  0  0
  6  7  2  0  0  0  0
  6  5  1  0  0  0  0
  8 11  2  0  0  0  0
  8  9  1  0  0  0  0
 10  9  1  0  0  0  0
 12 11  1  0  0  0  0
 13  2  1  0  0  0  0
M  END
>  <CHROM.1>
162.24818778,-91.85027941,1.74295471,1.79882558,-2.95797831,0.79001968,0.26194039
-0.58707433

>  <Name>
lig.pdb

>  <RI>
9.54411e+06

>  <Rbt.Current_Directory>
/home/itssahil/PROJECTS/Mol_Feturizer/New_Systems/rnas/2l1v

>  <Rbt.Executable>
rbdock ($Id: //depot/dev/client3/rdock/2013.1/src/exe/rbdock.cxx#4 $)

>  <Rbt.Library>
libRbt.so (2013.1, Build901 2013/11/27)

>  <Rbt.Parameter_File>
/export/apps/rDock/src/rDock_2013.1_src/data/scripts/dock_solv.prm

>  <Rbt.Receptor>
prm/pocket_docking_6.prm

>  <SCORE>
-58.9184

>  <SCORE.INTER>
-60.443

>  <SCORE.INTER.CONST>
1

>  <SCORE.INTER.POLAR>
-6.03737

>  <SCORE.INTER.ROT>
2

>  <SCORE.INTER.SOLV>
16.7828

>  <SCORE.INTER.VDW>
-30.6984

>  <SCORE.INTER.norm>
-4.64946

>  <SCORE.INTRA>
1.48815

>  <SCORE.INTRA.DIHEDRAL>
0.550228

>  <SCORE.INTRA.DIHEDRAL.0>
1.43995

>  <SCORE.INTRA.POLAR>
0.272593

>  <SCORE.INTRA.POLAR.0>
-0.272593

>  <SCORE.INTRA.REPUL>
0

>  <SCORE.INTRA.REPUL.0>
0

>  <SCORE.INTRA.SOLV>
-0.506194

>  <SCORE.INTRA.SOLV.lig_0>
-22.6728

>  <SCORE.INTRA.VDW>
0.539317

>  <SCORE.INTRA.VDW.0>
-0.754459

>  <SCORE.INTRA.norm>
0.114473

>  <SCORE.RESTR>
0.0364575

>  <SCORE.RESTR.CAVITY>
0.0364575

>  <SCORE.RESTR.norm>
0.00280442

>  <SCORE.SYSTEM>
0

>  <SCORE.SYSTEM.CONST>
0

>  <SCORE.SYSTEM.DIHEDRAL>
0

>  <SCORE.SYSTEM.SOLV>
0

>  <SCORE.SYSTEM.norm>
0

>  <SCORE.heavy>
13

>  <SCORE.norm>
-4.53218

>  <RMSD>
0.689

$$$$
lig.pdb
 OpenBabel11021811453D
libRbt.so/2013.1/901 2013/11/27
 13 14  0  0  0  0  0  0  0  0999 V2000
    2.2876    3.5039   -4.2405 N   0  0  0  0  0  0  0  0  0  0  0  0
    3.5297    2.9234   -4.3195 C   0  0  0  0  0  0  0  0  0  0  0  0
    3.7763    1.7815   -3.6868 N   0  0  0  0  0  0  0  0  0  0  0  0
    2.8126    1.1512   -2.9463 C   0  0  0  0  0  0  0  0  0  0  0  0
    1.5191    1.7210   -2.8307 C   0  0  0  0  0  0  0  0  0  0  0  0
    1.2707    2.9431   -3.5180 C   0  0  0  0  0  0  0  0  0  0  0  0
    0.1803    3.4828   -3.4695 O   0  0  0  0  0  0  0  0  0  0  0  0
    0.7462    0.8354   -1.9600 C   0  0  0  0  0  0  0  0  0  0  0  0
   -0.6665    1.0403   -1.4839 C   0  0  0  0  0  0  0  0  0  0  0  0
   -1.1928   -0.2216   -0.9454 N   0  0  0  0  0  0  0  0  0  0  0  0
    1.5597   -0.1822   -1.6502 C   0  0  0  0  0  0  0  0  0  0  0  0
    2.7901    0.0025   -2.2229 N   0  0  0  0  0  0  0  0  0  0  0  0
    4.5151    3.5202   -5.0611 N   0  0  0  0  0  0  0  0  0  0  0  0
  1  6  1  0  0  0  0
  2  1  1  0  0  0  0
  2  3  2  0  0  0  0
  3  4  1  0  0  0  0
  4  5  2  0  0  0  0
  4 12  1  0  0  0  0
  5  8  1  0  0  0  0
  6  7  2  0  0  0  0
  6  5  1  0  0  0  0
  8 11  2  0  0  0  0
  8  9  1  0  0  0  0
 10  9  1  0  0  0  0
 12 11  1  0  0  0  0
 13  2  1  0  0  0  0
M  END
>  <CHROM.1>
164.64069177,84.32040974,1.76250206,1.74768021,-2.95976985,0.79706876,0.28679156
-0.55220388

>  <Name>
lig.pdb

>  <RI>
2.7104e+07

>  <Rbt.Current_Directory>
/home/itssahil/PROJECTS/Mol_Feturizer/New_Systems/rnas/2l1v

>  <Rbt.Executable>
rbdock ($Id: //depot/dev/client3/rdock/2013.1/src/exe/rbdock.cxx#4 $)

>  <Rbt.Library>
libRbt.so (2013.1, Build901 2013/11/27)

>  <Rbt.Parameter_File>
/export/apps/rDock/src/rDock_2013.1_src/data/scripts/dock_solv.prm

>  <Rbt.Receptor>
prm/pocket_docking_8.prm

>  <SCORE>
-58.8407

>  <SCORE.INTER>
-60.2269

>  <SCORE.INTER.CONST>
1

>  <SCORE.INTER.POLAR>
-6.03346

>  <SCORE.INTER.ROT>
2

>  <SCORE.INTER.SOLV>
16.8067

>  <SCORE.INTER.VDW>
-30.5753

>  <SCORE.INTER.norm>
-4.63284

>  <SCORE.INTRA>
1.38061

>  <SCORE.INTRA.DIHEDRAL>
0.310755

>  <SCORE.INTRA.DIHEDRAL.0>
1.43995

>  <SCORE.INTRA.POLAR>
0.272593

>  <SCORE.INTRA.POLAR.0>
-0.272593

>  <SCORE.INTRA.REPUL>
0

>  <SCORE.INTRA.REPUL.0>
0

>  <SCORE.INTRA.SOLV>
-0.502289

>  <SCORE.INTRA.SOLV.lig_0>
-22.6728

>  <SCORE.INTRA.VDW>
0.549557

>  <SCORE.INTRA.VDW.0>
-0.754459

>  <SCORE.INTRA.norm>
0.1062

>  <SCORE.RESTR>
0.00562512

>  <SCORE.RESTR.CAVITY>
0.00562512

>  <SCORE.RESTR.norm>
0.000432702

>  <SCORE.SYSTEM>
0

>  <SCORE.SYSTEM.CONST>
0

>  <SCORE.SYSTEM.DIHEDRAL>
0

>  <SCORE.SYSTEM.SOLV>
0

>  <SCORE.SYSTEM.norm>
0

>  <SCORE.heavy>
13

>  <SCORE.norm>
-4.52621

>  <RMSD>
0.689

$$$$
lig.pdb
 OpenBabel11021811453D
libRbt.so/2013.1/901 2013/11/27
 13 14  0  0  0  0  0  0  0  0999 V2000
    2.2944    3.5236   -4.2216 N   0  0  0  0  0  0  0  0  0  0  0  0
    3.5278    2.9275   -4.3205 C   0  0  0  0  0  0  0  0  0  0  0  0
    3.7637    1.7722   -3.7085 N   0  0  0  0  0  0  0  0  0  0  0  0
    2.7975    1.1430   -2.9704 C   0  0  0  0  0  0  0  0  0  0  0  0
    1.5129    1.7283   -2.8348 C   0  0  0  0  0  0  0  0  0  0  0  0
    1.2758    2.9649   -3.5000 C   0  0  0  0  0  0  0  0  0  0  0  0
    0.1933    3.5186   -3.4337 O   0  0  0  0  0  0  0  0  0  0  0  0
    0.7349    0.8392   -1.9723 C   0  0  0  0  0  0  0  0  0  0  0  0
   -0.6709    1.0555   -1.4812 C   0  0  0  0  0  0  0  0  0  0  0  0
   -1.2101   -0.2076   -0.9585 N   0  0  0  0  0  0  0  0  0  0  0  0
    1.5368   -0.1943   -1.6859 C   0  0  0  0  0  0  0  0  0  0  0  0
    2.7650   -0.0170   -2.2657 N   0  0  0  0  0  0  0  0  0  0  0  0
    4.5153    3.5229   -5.0603 N   0  0  0  0  0  0  0  0  0  0  0  0
  1  6  1  0  0  0  0
  2  1  1  0  0  0  0
  2  3  2  0  0  0  0
  3  4  1  0  0  0  0
  4  5  2  0  0  0  0
  4 12  1  0  0  0  0
  5  8  1  0  0  0  0
  6  7  2  0  0  0  0
  6  5  1  0  0  0  0
  8 11  2  0  0  0  0
  8  9  1  0  0  0  0
 10  9  1  0  0  0  0
 12 11  1  0  0  0  0
 13  2  1  0  0  0  0
M  END
>  <CHROM.1>
164.66364861,86.60410504,1.75559159,1.75386055,-2.96540034,0.78922225,0.30105901
-0.53348362

>  <Name>
lig.pdb

>  <RI>
2.7104e+07

>  <Rbt.Current_Directory>
/home/itssahil/PROJECTS/Mol_Feturizer/New_Systems/rnas/2l1v

>  <Rbt.Executable>
rbdock ($Id: //depot/dev/client3/rdock/2013.1/src/exe/rbdock.cxx#4 $)

>  <Rbt.Library>
libRbt.so (2013.1, Build901 2013/11/27)

>  <Rbt.Parameter_File>
/export/apps/rDock/src/rDock_2013.1_src/data/scripts/dock_solv.prm

>  <Rbt.Receptor>
prm/pocket_docking_8.prm

>  <SCORE>
-58.8884

>  <SCORE.INTER>
-60.279

>  <SCORE.INTER.CONST>
1

>  <SCORE.INTER.POLAR>
-6.05057

>  <SCORE.INTER.ROT>
2

>  <SCORE.INTER.SOLV>
16.9078

>  <SCORE.INTER.VDW>
-30.5867

>  <SCORE.INTER.norm>
-4.63684

>  <SCORE.INTRA>
1.37835

>  <SCORE.INTRA.DIHEDRAL>
0.308326

>  <SCORE.INTRA.DIHEDRAL.0>
1.43995

>  <SCORE.INTRA.POLAR>
0.272593

>  <SCORE.INTRA.POLAR.0>
-0.272593

>  <SCORE.INTRA.REPUL>
0

>  <SCORE.INTRA.REPUL.0>
0

>  <SCORE.INTRA.SOLV>
-0.502316

>  <SCORE.INTRA.SOLV.lig_0>
-22.6728

>  <SCORE.INTRA.VDW>
0.548531

>  <SCORE.INTRA.VDW.0>
-0.754459

>  <SCORE.INTRA.norm>
0.106027

>  <SCORE.RESTR>
0.0121833

>  <SCORE.RESTR.CAVITY>
0.0121833

>  <SCORE.RESTR.norm>
0.000937174

>  <SCORE.SYSTEM>
0

>  <SCORE.SYSTEM.CONST>
0

>  <SCORE.SYSTEM.DIHEDRAL>
0

>  <SCORE.SYSTEM.SOLV>
0

>  <SCORE.SYSTEM.norm>
0

>  <SCORE.heavy>
13

>  <SCORE.norm>
-4.52988

>  <RMSD>
0.690

$$$$
lig.pdb
 OpenBabel11021811453D
libRbt.so/2013.1/901 2013/11/27
 13 14  0  0  0  0  0  0  0  0999 V2000
    2.2830    3.5070   -4.2833 N   0  0  0  0  0  0  0  0  0  0  0  0
    3.5323    2.9374   -4.3161 C   0  0  0  0  0  0  0  0  0  0  0  0
    3.7797    1.8266   -3.6305 N   0  0  0  0  0  0  0  0  0  0  0  0
    2.8098    1.2182   -2.8797 C   0  0  0  0  0  0  0  0  0  0  0  0
    1.5087    1.7782   -2.8108 C   0  0  0  0  0  0  0  0  0  0  0  0
    1.2597    2.9666   -3.5545 C   0  0  0  0  0  0  0  0  0  0  0  0
    0.1631    3.4959   -3.5478 O   0  0  0  0  0  0  0  0  0  0  0  0
    0.7300    0.9225   -1.9157 C   0  0  0  0  0  0  0  0  0  0  0  0
   -0.6928    1.1322   -1.4728 C   0  0  0  0  0  0  0  0  0  0  0  0
   -1.2466   -0.1357   -0.9775 N   0  0  0  0  0  0  0  0  0  0  0  0
    1.5484   -0.0717   -1.5484 C   0  0  0  0  0  0  0  0  0  0  0  0
    2.7866    0.1017   -2.1076 N   0  0  0  0  0  0  0  0  0  0  0  0
    4.5242    3.5124   -5.0661 N   0  0  0  0  0  0  0  0  0  0  0  0
  1  6  1  0  0  0  0
  2  1  1  0  0  0  0
  2  3  2  0  0  0  0
  3  4  1  0  0  0  0
  4  5  2  0  0  0  0
  4 12  1  0  0  0  0
  5  8  1  0  0  0  0
  6  7  2  0  0  0  0
  6  5  1  0  0  0  0
  8 11  2  0  0  0  0
  8  9  1  0  0  0  0
 10  9  1  0  0  0  0
 12 11  1  0  0  0  0
 13  2  1  0  0  0  0
M  END
>  <CHROM.1>
160.62308756,-92.03160954,1.75077473,1.79982438,-2.94489174,0.79258500,0.26065900
-0.59146617

>  <Name>
lig.pdb

>  <RI>
2.05237e+07

>  <Rbt.Current_Directory>
/home/itssahil/PROJECTS/Mol_Feturizer/New_Systems/rnas/2l1v

>  <Rbt.Executable>
rbdock ($Id: //depot/dev/client3/rdock/2013.1/src/exe/rbdock.cxx#4 $)

>  <Rbt.Library>
libRbt.so (2013.1, Build901 2013/11/27)

>  <Rbt.Parameter_File>
/export/apps/rDock/src/rDock_2013.1_src/data/scripts/dock_solv.prm

>  <Rbt.Receptor>
prm/blind_docking_100.prm

>  <SCORE>
-58.8941

>  <SCORE.INTER>
-60.4411

>  <SCORE.INTER.CONST>
1

>  <SCORE.INTER.POLAR>
-6.058

>  <SCORE.INTER.ROT>
2

>  <SCORE.INTER.SOLV>
16.7294

>  <SCORE.INTER.VDW>
-30.6105

>  <SCORE.INTER.norm>
-4.64931

>  <SCORE.INTRA>
1.51808

>  <SCORE.INTRA.DIHEDRAL>
0.629801

>  <SCORE.INTRA.DIHEDRAL.0>
1.43995

>  <SCORE.INTRA.POLAR>
0.272593

>  <SCORE.INTRA.POLAR.0>
-0.272593

>  <SCORE.INTRA.REPUL>
0

>  <SCORE.INTRA.REPUL.0>
0

>  <SCORE.INTRA.SOLV>
-0.507875

>  <SCORE.INTRA.SOLV.lig_0>
-22.6728

>  <SCORE.INTRA.VDW>
0.530306

>  <SCORE.INTRA.VDW.0>
-0.754459

>  <SCORE.INTRA.norm>
0.116776

>  <SCORE.RESTR>
0.0288972

>  <SCORE.RESTR.CAVITY>
0.0288972

>  <SCORE.RESTR.norm>
0.00222286

>  <SCORE.SYSTEM>
0

>  <SCORE.SYSTEM.CONST>
0

>  <SCORE.SYSTEM.DIHEDRAL>
0

>  <SCORE.SYSTEM.SOLV>
0

>  <SCORE.SYSTEM.norm>
0

>  <SCORE.heavy>
13

>  <SCORE.norm>
-4.53031

>  <RMSD>
0.691

$$$$
lig.pdb
 OpenBabel11021811453D
libRbt.so/2013.1/901 2013/11/27
 13 14  0  0  0  0  0  0  0  0999 V2000
    2.2999    3.5996   -4.3931 N   0  0  0  0  0  0  0  0  0  0  0  0
    3.5721    3.0861   -4.4564 C   0  0  0  0  0  0  0  0  0  0  0  0
    3.8741    1.9646   -3.8113 N   0  0  0  0  0  0  0  0  0  0  0  0
    2.9391    1.2897   -3.0733 C   0  0  0  0  0  0  0  0  0  0  0  0
    1.6158    1.7900   -2.9739 C   0  0  0  0  0  0  0  0  0  0  0  0
    1.3082    2.9910   -3.6743 C   0  0  0  0  0  0  0  0  0  0  0  0
    0.1899    3.4717   -3.6400 O   0  0  0  0  0  0  0  0  0  0  0  0
    0.8838    0.8715   -2.1018 C   0  0  0  0  0  0  0  0  0  0  0  0
   -0.5420    1.0042   -1.6396 C   0  0  0  0  0  0  0  0  0  0  0  0
   -0.8410   -0.0462   -0.6564 N   0  0  0  0  0  0  0  0  0  0  0  0
    1.7480   -0.0981   -1.7760 C   0  0  0  0  0  0  0  0  0  0  0  0
    2.9718    0.1477   -2.3398 N   0  0  0  0  0  0  0  0  0  0  0  0
    4.5306    3.7287   -5.1949 N   0  0  0  0  0  0  0  0  0  0  0  0
  1  6  1  0  0  0  0
  2  1  1  0  0  0  0
  2  3  2  0  0  0  0
  3  4  1  0  0  0  0
  4  5  2  0  0  0  0
  4 12  1  0  0  0  0
  5  8  1  0  0  0  0
  6  7  2  0  0  0  0
  6  5  1  0  0  0  0
  8 11  2  0  0  0  0
  8  9  1  0  0  0  0
 10  9  1  0  0  0  0
 12 11  1  0  0  0  0
 13  2  1  0  0  0  0
M  END
>  <CHROM.1>
-173.60775475,-56.22901842,1.87346151,1.85046285,-3.06029131,0.85073375,0.28510123
-0.59613561

>  <Name>
lig.pdb

>  <RI>
1.459e+07

>  <Rbt.Current_Directory>
/home/itssahil/PROJECTS/Mol_Feturizer/New_Systems/rnas/2l1v

>  <Rbt.Executable>
rbdock ($Id: //depot/dev/client3/rdock/2013.1/src/exe/rbdock.cxx#4 $)

>  <Rbt.Library>
libRbt.so (2013.1, Build901 2013/11/27)

>  <Rbt.Parameter_File>
/export/apps/rDock/src/rDock_2013.1_src/data/scripts/dock_solv.prm

>  <Rbt.Receptor>
prm/pocket_docking_2.prm

>  <SCORE>
-57.1174

>  <SCORE.INTER>
-58.4536

>  <SCORE.INTER.CONST>
1

>  <SCORE.INTER.POLAR>
-5.40338

>  <SCORE.INTER.ROT>
2

>  <SCORE.INTER.SOLV>
16.8114

>  <SCORE.INTER.VDW>
-31.495

>  <SCORE.INTER.norm>
-4.49643

>  <SCORE.INTRA>
1.33625

>  <SCORE.INTRA.DIHEDRAL>
0.0295962

>  <SCORE.INTRA.DIHEDRAL.0>
1.43995

>  <SCORE.INTRA.POLAR>
0.272593

>  <SCORE.INTRA.POLAR.0>
-0.272593

>  <SCORE.INTRA.REPUL>
0

>  <SCORE.INTRA.REPUL.0>
0

>  <SCORE.INTRA.SOLV>
-0.49303

>  <SCORE.INTRA.SOLV.lig_0>
-22.6728

>  <SCORE.INTRA.VDW>
0.641152

>  <SCORE.INTRA.VDW.0>
-0.754459

>  <SCORE.INTRA.norm>
0.102788

>  <SCORE.RESTR>
0

>  <SCORE.RESTR.CAVITY>
0

>  <SCORE.RESTR.norm>
0

>  <SCORE.SYSTEM>
0

>  <SCORE.SYSTEM.CONST>
0

>  <SCORE.SYSTEM.DIHEDRAL>
0

>  <SCORE.SYSTEM.SOLV>
0

>  <SCORE.SYSTEM.norm>
0

>  <SCORE.heavy>
13

>  <SCORE.norm>
-4.39365

>  <RMSD>
0.692

$$$$
lig.pdb
 OpenBabel11021811453D
libRbt.so/2013.1/901 2013/11/27
 13 14  0  0  0  0  0  0  0  0999 V2000
    2.2833    3.5030   -4.2511 N   0  0  0  0  0  0  0  0  0  0  0  0
    3.5288    2.9287   -4.3206 C   0  0  0  0  0  0  0  0  0  0  0  0
    3.7783    1.7919   -3.6800 N   0  0  0  0  0  0  0  0  0  0  0  0
    2.8143    1.1607   -2.9406 C   0  0  0  0  0  0  0  0  0  0  0  0
    1.5172    1.7242   -2.8348 C   0  0  0  0  0  0  0  0  0  0  0  0
    1.2658    2.9410   -3.5305 C   0  0  0  0  0  0  0  0  0  0  0  0
    0.1723    3.4752   -3.4906 O   0  0  0  0  0  0  0  0  0  0  0  0
    0.7447    0.8396   -1.9628 C   0  0  0  0  0  0  0  0  0  0  0  0
   -0.6715    1.0398   -1.4950 C   0  0  0  0  0  0  0  0  0  0  0  0
   -1.1804   -0.2111   -0.9155 N   0  0  0  0  0  0  0  0  0  0  0  0
    1.5619   -0.1717   -1.6430 C   0  0  0  0  0  0  0  0  0  0  0  0
    2.7942    0.0162   -2.2106 N   0  0  0  0  0  0  0  0  0  0  0  0
    4.5148    3.5264   -5.0607 N   0  0  0  0  0  0  0  0  0  0  0  0
  1  6  1  0  0  0  0
  2  1  1  0  0  0  0
  2  3  2  0  0  0  0
  3  4  1  0  0  0  0
  4  5  2  0  0  0  0
  4 12  1  0  0  0  0
  5  8  1  0  0  0  0
  6  7  2  0  0  0  0
  6  5  1  0  0  0  0
  8 11  2  0  0  0  0
  8  9  1  0  0  0  0
 10  9  1  0  0  0  0
 12 11  1  0  0  0  0
 13  2  1  0  0  0  0
M  END
>  <CHROM.1>
166.29835248,-93.72331943,1.76203623,1.75265404,-2.95935018,0.80006036,0.28239569
-0.56026448

>  <Name>
lig.pdb

>  <RI>
2.7104e+07

>  <Rbt.Current_Directory>
/home/itssahil/PROJECTS/Mol_Feturizer/New_Systems/rnas/2l1v

>  <Rbt.Executable>
rbdock ($Id: //depot/dev/client3/rdock/2013.1/src/exe/rbdock.cxx#4 $)

>  <Rbt.Library>
libRbt.so (2013.1, Build901 2013/11/27)

>  <Rbt.Parameter_File>
/export/apps/rDock/src/rDock_2013.1_src/data/scripts/dock_solv.prm

>  <Rbt.Receptor>
prm/pocket_docking_8.prm

>  <SCORE>
-58.7944

>  <SCORE.INTER>
-60.2276

>  <SCORE.INTER.CONST>
1

>  <SCORE.INTER.POLAR>
-5.99971

>  <SCORE.INTER.ROT>
2

>  <SCORE.INTER.SOLV>
16.7648

>  <SCORE.INTER.VDW>
-30.6743

>  <SCORE.INTER.norm>
-4.6329

>  <SCORE.INTRA>
1.42178

>  <SCORE.INTRA.DIHEDRAL>
0.371818

>  <SCORE.INTRA.DIHEDRAL.0>
1.43995

>  <SCORE.INTRA.POLAR>
0.272593

>  <SCORE.INTRA.POLAR.0>
-0.272593

>  <SCORE.INTRA.REPUL>
0

>  <SCORE.INTRA.REPUL.0>
0

>  <SCORE.INTRA.SOLV>
-0.502433

>  <SCORE.INTRA.SOLV.lig_0>
-22.6728

>  <SCORE.INTRA.VDW>
0.560272

>  <SCORE.INTRA.VDW.0>
-0.754459

>  <SCORE.INTRA.norm>
0.109368

>  <SCORE.RESTR>
0.0115007

>  <SCORE.RESTR.CAVITY>
0.0115007

>  <SCORE.RESTR.norm>
0.000884673

>  <SCORE.SYSTEM>
0

>  <SCORE.SYSTEM.CONST>
0

>  <SCORE.SYSTEM.DIHEDRAL>
0

>  <SCORE.SYSTEM.SOLV>
0

>  <SCORE.SYSTEM.norm>
0

>  <SCORE.heavy>
13

>  <SCORE.norm>
-4.52264

>  <RMSD>
0.693

$$$$
lig.pdb
 OpenBabel11021811453D
libRbt.so/2013.1/901 2013/11/27
 13 14  0  0  0  0  0  0  0  0999 V2000
    2.2939    3.5210   -4.2263 N   0  0  0  0  0  0  0  0  0  0  0  0
    3.5309    2.9315   -4.3194 C   0  0  0  0  0  0  0  0  0  0  0  0
    3.7710    1.7788   -3.7041 N   0  0  0  0  0  0  0  0  0  0  0  0
    2.8056    1.1459   -2.9681 C   0  0  0  0  0  0  0  0  0  0  0  0
    1.5173    1.7245   -2.8384 C   0  0  0  0  0  0  0  0  0  0  0  0
    1.2758    2.9582   -3.5071 C   0  0  0  0  0  0  0  0  0  0  0  0
    0.1901    3.5061   -3.4459 O   0  0  0  0  0  0  0  0  0  0  0  0
    0.7412    0.8329   -1.9767 C   0  0  0  0  0  0  0  0  0  0  0  0
   -0.6676    1.0426   -1.4911 C   0  0  0  0  0  0  0  0  0  0  0  0
   -1.1784   -0.2055   -0.9073 N   0  0  0  0  0  0  0  0  0  0  0  0
    1.5476   -0.1955   -1.6852 C   0  0  0  0  0  0  0  0  0  0  0  0
    2.7769   -0.0127   -2.2609 N   0  0  0  0  0  0  0  0  0  0  0  0
    4.5178    3.5307   -5.0571 N   0  0  0  0  0  0  0  0  0  0  0  0
  1  6  1  0  0  0  0
  2  1  1  0  0  0  0
  2  3  2  0  0  0  0
  3  4  1  0  0  0  0
  4  5  2  0  0  0  0
  4 12  1  0  0  0  0
  5  8  1  0  0  0  0
  6  7  2  0  0  0  0
  6  5  1  0  0  0  0
  8 11  2  0  0  0  0
  8  9  1  0  0  0  0
 10  9  1  0  0  0  0
 12 11  1  0  0  0  0
 13  2  1  0  0  0  0
M  END
>  <CHROM.1>
167.42507986,84.74495687,1.76251185,1.75262945,-2.96250412,0.79468119,0.29931498
-0.53945471

>  <Name>
lig.pdb

>  <RI>
9.54411e+06

>  <Rbt.Current_Directory>
/home/itssahil/PROJECTS/Mol_Feturizer/New_Systems/rnas/2l1v

>  <Rbt.Executable>
rbdock ($Id: //depot/dev/client3/rdock/2013.1/src/exe/rbdock.cxx#4 $)

>  <Rbt.Library>
libRbt.so (2013.1, Build901 2013/11/27)

>  <Rbt.Parameter_File>
/export/apps/rDock/src/rDock_2013.1_src/data/scripts/dock_solv.prm

>  <Rbt.Receptor>
prm/pocket_docking_6.prm

>  <SCORE>
-58.8537

>  <SCORE.INTER>
-60.2055

>  <SCORE.INTER.CONST>
1

>  <SCORE.INTER.POLAR>
-6.00958

>  <SCORE.INTER.ROT>
2

>  <SCORE.INTER.SOLV>
16.8364

>  <SCORE.INTER.VDW>
-30.6505

>  <SCORE.INTER.norm>
-4.63119

>  <SCORE.INTRA>
1.3381

>  <SCORE.INTRA.DIHEDRAL>
0.198068

>  <SCORE.INTRA.DIHEDRAL.0>
1.43995

>  <SCORE.INTRA.POLAR>
0.272593

>  <SCORE.INTRA.POLAR.0>
-0.272593

>  <SCORE.INTRA.REPUL>
0

>  <SCORE.INTRA.REPUL.0>
0

>  <SCORE.INTRA.SOLV>
-0.499945

>  <SCORE.INTRA.SOLV.lig_0>
-22.6728

>  <SCORE.INTRA.VDW>
0.562219

>  <SCORE.INTRA.VDW.0>
-0.754459

>  <SCORE.INTRA.norm>
0.10293

>  <SCORE.RESTR>
0.0136889

>  <SCORE.RESTR.CAVITY>
0.0136889

>  <SCORE.RESTR.norm>
0.00105299

>  <SCORE.SYSTEM>
0

>  <SCORE.SYSTEM.CONST>
0

>  <SCORE.SYSTEM.DIHEDRAL>
0

>  <SCORE.SYSTEM.SOLV>
0

>  <SCORE.SYSTEM.norm>
0

>  <SCORE.heavy>
13

>  <SCORE.norm>
-4.52721

>  <RMSD>
0.696

$$$$
lig.pdb
 OpenBabel11021811453D
libRbt.so/2013.1/901 2013/11/27
 13 14  0  0  0  0  0  0  0  0999 V2000
    2.3078    3.6030   -4.4096 N   0  0  0  0  0  0  0  0  0  0  0  0
    3.5870    3.1061   -4.4609 C   0  0  0  0  0  0  0  0  0  0  0  0
    3.9010    1.9966   -3.8009 N   0  0  0  0  0  0  0  0  0  0  0  0
    2.9718    1.3181   -3.0590 C   0  0  0  0  0  0  0  0  0  0  0  0
    1.6414    1.8016   -2.9717 C   0  0  0  0  0  0  0  0  0  0  0  0
    1.3210    2.9899   -3.6879 C   0  0  0  0  0  0  0  0  0  0  0  0
    0.1963    3.4558   -3.6644 O   0  0  0  0  0  0  0  0  0  0  0  0
    0.9178    0.8839   -2.0918 C   0  0  0  0  0  0  0  0  0  0  0  0
   -0.5119    1.0029   -1.6377 C   0  0  0  0  0  0  0  0  0  0  0  0
   -0.7844   -0.0014   -0.6001 N   0  0  0  0  0  0  0  0  0  0  0  0
    1.7934   -0.0699   -1.7504 C   0  0  0  0  0  0  0  0  0  0  0  0
    3.0164    0.1855   -2.3116 N   0  0  0  0  0  0  0  0  0  0  0  0
    4.5403    3.7526   -5.2028 N   0  0  0  0  0  0  0  0  0  0  0  0
  1  6  1  0  0  0  0
  2  1  1  0  0  0  0
  2  3  2  0  0  0  0
  3  4  1  0  0  0  0
  4  5  2  0  0  0  0
  4 12  1  0  0  0  0
  5  8  1  0  0  0  0
  6  7  2  0  0  0  0
  6  5  1  0  0  0  0
  8 11  2  0  0  0  0
  8  9  1  0  0  0  0
 10  9  1  0  0  0  0
 12 11  1  0  0  0  0
 13  2  1  0  0  0  0
M  END
>  <CHROM.1>
-171.13063008,108.09431635,1.90059402,1.86807572,-3.05350404,0.86070100,0.27671971
-0.61413895

>  <Name>
lig.pdb

>  <RI>
1.459e+07

>  <Rbt.Current_Directory>
/home/itssahil/PROJECTS/Mol_Feturizer/New_Systems/rnas/2l1v

>  <Rbt.Executable>
rbdock ($Id: //depot/dev/client3/rdock/2013.1/src/exe/rbdock.cxx#4 $)

>  <Rbt.Library>
libRbt.so (2013.1, Build901 2013/11/27)

>  <Rbt.Parameter_File>
/export/apps/rDock/src/rDock_2013.1_src/data/scripts/dock_solv.prm

>  <Rbt.Receptor>
prm/pocket_docking_2.prm

>  <SCORE>
-57.176

>  <SCORE.INTER>
-58.4852

>  <SCORE.INTER.CONST>
1

>  <SCORE.INTER.POLAR>
-5.4519

>  <SCORE.INTER.ROT>
2

>  <SCORE.INTER.SOLV>
16.7142

>  <SCORE.INTER.VDW>
-31.3219

>  <SCORE.INTER.norm>
-4.49886

>  <SCORE.INTRA>
1.30914

>  <SCORE.INTRA.DIHEDRAL>
0.0597801

>  <SCORE.INTRA.DIHEDRAL.0>
1.43995

>  <SCORE.INTRA.POLAR>
0.272593

>  <SCORE.INTRA.POLAR.0>
-0.272593

>  <SCORE.INTRA.REPUL>
0

>  <SCORE.INTRA.REPUL.0>
0

>  <SCORE.INTRA.SOLV>
-0.492929

>  <SCORE.INTRA.SOLV.lig_0>
-22.6728

>  <SCORE.INTRA.VDW>
0.5989

>  <SCORE.INTRA.VDW.0>
-0.754459

>  <SCORE.INTRA.norm>
0.100703

>  <SCORE.RESTR>
0

>  <SCORE.RESTR.CAVITY>
0

>  <SCORE.RESTR.norm>
0

>  <SCORE.SYSTEM>
0

>  <SCORE.SYSTEM.CONST>
0

>  <SCORE.SYSTEM.DIHEDRAL>
0

>  <SCORE.SYSTEM.SOLV>
0

>  <SCORE.SYSTEM.norm>
0

>  <SCORE.heavy>
13

>  <SCORE.norm>
-4.39816

>  <RMSD>
0.704

$$$$
lig.pdb
 OpenBabel11021811453D
libRbt.so/2013.1/901 2013/11/27
 13 14  0  0  0  0  0  0  0  0999 V2000
    2.3131    3.5890   -4.3301 N   0  0  0  0  0  0  0  0  0  0  0  0
    3.5827    3.0694   -4.3952 C   0  0  0  0  0  0  0  0  0  0  0  0
    3.8755    1.9367   -3.7657 N   0  0  0  0  0  0  0  0  0  0  0  0
    2.9334    1.2561   -3.0421 C   0  0  0  0  0  0  0  0  0  0  0  0
    1.6125    1.7622   -2.9412 C   0  0  0  0  0  0  0  0  0  0  0  0
    1.3148    2.9753   -3.6250 C   0  0  0  0  0  0  0  0  0  0  0  0
    0.1990    3.4616   -3.5885 O   0  0  0  0  0  0  0  0  0  0  0  0
    0.8714    0.8350   -2.0863 C   0  0  0  0  0  0  0  0  0  0  0  0
   -0.5558    0.9687   -1.6286 C   0  0  0  0  0  0  0  0  0  0  0  0
   -0.8520   -0.0675   -0.6296 N   0  0  0  0  0  0  0  0  0  0  0  0
    1.7287   -0.1442   -1.7711 C   0  0  0  0  0  0  0  0  0  0  0  0
    2.9565    0.1031   -2.3256 N   0  0  0  0  0  0  0  0  0  0  0  0
    4.5482    3.7176   -5.1197 N   0  0  0  0  0  0  0  0  0  0  0  0
  1  6  1  0  0  0  0
  2  1  1  0  0  0  0
  2  3  2  0  0  0  0
  3  4  1  0  0  0  0
  4  5  2  0  0  0  0
  4 12  1  0  0  0  0
  5  8  1  0  0  0  0
  6  7  2  0  0  0  0
  6  5  1  0  0  0  0
  8 11  2  0  0  0  0
  8  9  1  0  0  0  0
 10  9  1  0  0  0  0
 12 11  1  0  0  0  0
 13  2  1  0  0  0  0
M  END
>  <CHROM.1>
-171.76028153,112.36739182,1.87244799,1.82507823,-3.02235092,0.84424852,0.28675959
-0.58166658

>  <Name>
lig.pdb

>  <RI>
2.86608e+07

>  <Rbt.Current_Directory>
/home/itssahil/PROJECTS/Mol_Feturizer/New_Systems/rnas/2l1v

>  <Rbt.Executable>
rbdock ($Id: //depot/dev/client3/rdock/2013.1/src/exe/rbdock.cxx#4 $)

>  <Rbt.Library>
libRbt.so (2013.1, Build901 2013/11/27)

>  <Rbt.Parameter_File>
/export/apps/rDock/src/rDock_2013.1_src/data/scripts/dock_solv.prm

>  <Rbt.Receptor>
prm/pocket_docking_7.prm

>  <SCORE>
-57.1282

>  <SCORE.INTER>
-58.4483

>  <SCORE.INTER.CONST>
1

>  <SCORE.INTER.POLAR>
-5.5335

>  <SCORE.INTER.ROT>
2

>  <SCORE.INTER.SOLV>
16.7014

>  <SCORE.INTER.VDW>
-31.021

>  <SCORE.INTER.norm>
-4.49602

>  <SCORE.INTRA>
1.3201

>  <SCORE.INTRA.DIHEDRAL>
0.0589011

>  <SCORE.INTRA.DIHEDRAL.0>
1.43995

>  <SCORE.INTRA.POLAR>
0.272593

>  <SCORE.INTRA.POLAR.0>
-0.272593

>  <SCORE.INTRA.REPUL>
0

>  <SCORE.INTRA.REPUL.0>
0

>  <SCORE.INTRA.SOLV>
-0.492612

>  <SCORE.INTRA.SOLV.lig_0>
-22.6728

>  <SCORE.INTRA.VDW>
0.610137

>  <SCORE.INTRA.VDW.0>
-0.754459

>  <SCORE.INTRA.norm>
0.101546

>  <SCORE.RESTR>
0

>  <SCORE.RESTR.CAVITY>
0

>  <SCORE.RESTR.norm>
0

>  <SCORE.SYSTEM>
0

>  <SCORE.SYSTEM.CONST>
0

>  <SCORE.SYSTEM.DIHEDRAL>
0

>  <SCORE.SYSTEM.SOLV>
0

>  <SCORE.SYSTEM.norm>
0

>  <SCORE.heavy>
13

>  <SCORE.norm>
-4.39448

>  <RMSD>
0.711

$$$$
lig.pdb
 OpenBabel11021811453D
libRbt.so/2013.1/901 2013/11/27
 13 14  0  0  0  0  0  0  0  0999 V2000
    2.3255    3.5493   -4.3094 N   0  0  0  0  0  0  0  0  0  0  0  0
    3.5996    3.0379   -4.3485 C   0  0  0  0  0  0  0  0  0  0  0  0
    3.8878    1.9095   -3.7093 N   0  0  0  0  0  0  0  0  0  0  0  0
    2.9365    1.2251   -3.0013 C   0  0  0  0  0  0  0  0  0  0  0  0
    1.6106    1.7228   -2.9275 C   0  0  0  0  0  0  0  0  0  0  0  0
    1.3180    2.9315   -3.6212 C   0  0  0  0  0  0  0  0  0  0  0  0
    0.1986    3.4105   -3.6078 O   0  0  0  0  0  0  0  0  0  0  0  0
    0.8596    0.7937   -2.0834 C   0  0  0  0  0  0  0  0  0  0  0  0
   -0.5770    0.9195   -1.6535 C   0  0  0  0  0  0  0  0  0  0  0  0
   -0.8931   -0.1325   -0.6775 N   0  0  0  0  0  0  0  0  0  0  0  0
    1.7171   -0.1786   -1.7483 C   0  0  0  0  0  0  0  0  0  0  0  0
    2.9536    0.0749   -2.2803 N   0  0  0  0  0  0  0  0  0  0  0  0
    4.5744    3.6900   -5.0568 N   0  0  0  0  0  0  0  0  0  0  0  0
  1  6  1  0  0  0  0
  2  1  1  0  0  0  0
  2  3  2  0  0  0  0
  3  4  1  0  0  0  0
  4  5  2  0  0  0  0
  4 12  1  0  0  0  0
  5  8  1  0  0  0  0
  6  7  2  0  0  0  0
  6  5  1  0  0  0  0
  8 11  2  0  0  0  0
  8  9  1  0  0  0  0
 10  9  1  0  0  0  0
 12 11  1  0  0  0  0
 13  2  1  0  0  0  0
M  END
>  <CHROM.1>
-172.93621293,-53.89540978,1.87060818,1.78549604,-3.00593534,0.83826470,0.26584023
-0.58209268

>  <Name>
lig.pdb

>  <RI>
1.75485e+07

>  <Rbt.Current_Directory>
/home/itssahil/PROJECTS/Mol_Feturizer/New_Systems/rnas/2l1v

>  <Rbt.Executable>
rbdock ($Id: //depot/dev/client3/rdock/2013.1/src/exe/rbdock.cxx#4 $)

>  <Rbt.Library>
libRbt.so (2013.1, Build901 2013/11/27)

>  <Rbt.Parameter_File>
/export/apps/rDock/src/rDock_2013.1_src/data/scripts/dock_solv.prm

>  <Rbt.Receptor>
prm/pocket_docking_4.prm

>  <SCORE>
-57.0839

>  <SCORE.INTER>
-58.4491

>  <SCORE.INTER.CONST>
1

>  <SCORE.INTER.POLAR>
-5.64951

>  <SCORE.INTER.ROT>
2

>  <SCORE.INTER.SOLV>
16.6336

>  <SCORE.INTER.VDW>
-30.6122

>  <SCORE.INTER.norm>
-4.49608

>  <SCORE.INTRA>
1.35063

>  <SCORE.INTRA.DIHEDRAL>
0.0335366

>  <SCORE.INTRA.DIHEDRAL.0>
1.43995

>  <SCORE.INTRA.POLAR>
0.272593

>  <SCORE.INTRA.POLAR.0>
-0.272593

>  <SCORE.INTRA.REPUL>
0

>  <SCORE.INTRA.REPUL.0>
0

>  <SCORE.INTRA.SOLV>
-0.49288

>  <SCORE.INTRA.SOLV.lig_0>
-22.6728

>  <SCORE.INTRA.VDW>
0.653487

>  <SCORE.INTRA.VDW.0>
-0.754459

>  <SCORE.INTRA.norm>
0.103895

>  <SCORE.RESTR>
0.0145195

>  <SCORE.RESTR.CAVITY>
0.0145195

>  <SCORE.RESTR.norm>
0.00111688

>  <SCORE.SYSTEM>
0

>  <SCORE.SYSTEM.CONST>
0

>  <SCORE.SYSTEM.DIHEDRAL>
0

>  <SCORE.SYSTEM.SOLV>
0

>  <SCORE.SYSTEM.norm>
0

>  <SCORE.heavy>
13

>  <SCORE.norm>
-4.39107

>  <RMSD>
0.715

$$$$
lig.pdb
 OpenBabel11021811453D
libRbt.so/2013.1/901 2013/11/27
 13 14  0  0  0  0  0  0  0  0999 V2000
    2.2982    3.5567   -4.3539 N   0  0  0  0  0  0  0  0  0  0  0  0
    3.5708    3.0424   -4.3999 C   0  0  0  0  0  0  0  0  0  0  0  0
    3.8636    1.9214   -3.7497 N   0  0  0  0  0  0  0  0  0  0  0  0
    2.9185    1.2480   -3.0232 C   0  0  0  0  0  0  0  0  0  0  0  0
    1.5944    1.7492   -2.9417 C   0  0  0  0  0  0  0  0  0  0  0  0
    1.2968    2.9496   -3.6475 C   0  0  0  0  0  0  0  0  0  0  0  0
    0.1785    3.4311   -3.6283 O   0  0  0  0  0  0  0  0  0  0  0  0
    0.8505    0.8323   -2.0782 C   0  0  0  0  0  0  0  0  0  0  0  0
   -0.5812    0.9664   -1.6348 C   0  0  0  0  0  0  0  0  0  0  0  0
   -0.8497    0.0200   -0.5432 N   0  0  0  0  0  0  0  0  0  0  0  0
    1.7097   -0.1375   -1.7399 C   0  0  0  0  0  0  0  0  0  0  0  0
    2.9410    0.1068   -2.2880 N   0  0  0  0  0  0  0  0  0  0  0  0
    4.5394    3.6835   -5.1266 N   0  0  0  0  0  0  0  0  0  0  0  0
  1  6  1  0  0  0  0
  2  1  1  0  0  0  0
  2  3  2  0  0  0  0
  3  4  1  0  0  0  0
  4  5  2  0  0  0  0
  4 12  1  0  0  0  0
  5  8  1  0  0  0  0
  6  7  2  0  0  0  0
  6  5  1  0  0  0  0
  8 11  2  0  0  0  0
  8  9  1  0  0  0  0
 10  9  1  0  0  0  0
 12 11  1  0  0  0  0
 13  2  1  0  0  0  0
M  END
>  <CHROM.1>
-167.08205690,105.69876632,1.85769620,1.81900972,-3.01430565,0.84396526,0.28356782
-0.60322982

>  <Name>
lig.pdb

>  <RI>
4.02536e+07

>  <Rbt.Current_Directory>
/home/itssahil/PROJECTS/Mol_Feturizer/New_Systems/rnas/2l1v

>  <Rbt.Executable>
rbdock ($Id: //depot/dev/client3/rdock/2013.1/src/exe/rbdock.cxx#4 $)

>  <Rbt.Library>
libRbt.so (2013.1, Build901 2013/11/27)

>  <Rbt.Parameter_File>
/export/apps/rDock/src/rDock_2013.1_src/data/scripts/dock_solv.prm

>  <Rbt.Receptor>
prm/blind_docking_40.prm

>  <SCORE>
-57.0799

>  <SCORE.INTER>
-58.4277

>  <SCORE.INTER.CONST>
1

>  <SCORE.INTER.POLAR>
-5.46781

>  <SCORE.INTER.ROT>
2

>  <SCORE.INTER.SOLV>
16.5857

>  <SCORE.INTER.VDW>
-31.1877

>  <SCORE.INTER.norm>
-4.49444

>  <SCORE.INTRA>
1.34782

>  <SCORE.INTRA.DIHEDRAL>
0.169439

>  <SCORE.INTRA.DIHEDRAL.0>
1.43995

>  <SCORE.INTRA.POLAR>
0.272593

>  <SCORE.INTRA.POLAR.0>
-0.272593

>  <SCORE.INTRA.REPUL>
0

>  <SCORE.INTRA.REPUL.0>
0

>  <SCORE.INTRA.SOLV>
-0.494127

>  <SCORE.INTRA.SOLV.lig_0>
-22.6728

>  <SCORE.INTRA.VDW>
0.583352

>  <SCORE.INTRA.VDW.0>
-0.754459

>  <SCORE.INTRA.norm>
0.103679

>  <SCORE.RESTR>
0

>  <SCORE.RESTR.CAVITY>
0

>  <SCORE.RESTR.norm>
0

>  <SCORE.SYSTEM>
0

>  <SCORE.SYSTEM.CONST>
0

>  <SCORE.SYSTEM.DIHEDRAL>
0

>  <SCORE.SYSTEM.SOLV>
0

>  <SCORE.SYSTEM.norm>
0

>  <SCORE.heavy>
13

>  <SCORE.norm>
-4.39076

>  <RMSD>
0.716

$$$$
lig.pdb
 OpenBabel11021811453D
libRbt.so/2013.1/901 2013/11/27
 13 14  0  0  0  0  0  0  0  0999 V2000
    2.3300    3.5587   -4.2927 N   0  0  0  0  0  0  0  0  0  0  0  0
    3.6004    3.0394   -4.3422 C   0  0  0  0  0  0  0  0  0  0  0  0
    3.8839    1.9031   -3.7148 N   0  0  0  0  0  0  0  0  0  0  0  0
    2.9313    1.2186   -3.0089 C   0  0  0  0  0  0  0  0  0  0  0  0
    1.6091    1.7243   -2.9245 C   0  0  0  0  0  0  0  0  0  0  0  0
    1.3214    2.9412   -3.6057 C   0  0  0  0  0  0  0  0  0  0  0  0
    0.2053    3.4275   -3.5828 O   0  0  0  0  0  0  0  0  0  0  0  0
    0.8556    0.7924   -2.0857 C   0  0  0  0  0  0  0  0  0  0  0  0
   -0.5782    0.9237   -1.6482 C   0  0  0  0  0  0  0  0  0  0  0  0
   -0.8955   -0.1320   -0.6765 N   0  0  0  0  0  0  0  0  0  0  0  0
    1.7081   -0.1886   -1.7635 C   0  0  0  0  0  0  0  0  0  0  0  0
    2.9439    0.0616   -2.2986 N   0  0  0  0  0  0  0  0  0  0  0  0
    4.5764    3.6915   -5.0489 N   0  0  0  0  0  0  0  0  0  0  0  0
  1  6  1  0  0  0  0
  2  1  1  0  0  0  0
  2  3  2  0  0  0  0
  3  4  1  0  0  0  0
  4  5  2  0  0  0  0
  4 12  1  0  0  0  0
  5  8  1  0  0  0  0
  6  7  2  0  0  0  0
  6  5  1  0  0  0  0
  8 11  2  0  0  0  0
  8  9  1  0  0  0  0
 10  9  1  0  0  0  0
 12 11  1  0  0  0  0
 13  2  1  0  0  0  0
M  END
>  <CHROM.1>
-172.71422155,121.76612782,1.86957772,1.78630943,-3.00301633,0.83552199,0.27353674
-0.57243342

>  <Name>
lig.pdb

>  <RI>
4.15415e+07

>  <Rbt.Current_Directory>
/home/itssahil/PROJECTS/Mol_Feturizer/New_Systems/rnas/2l1v

>  <Rbt.Executable>
rbdock ($Id: //depot/dev/client3/rdock/2013.1/src/exe/rbdock.cxx#4 $)

>  <Rbt.Library>
libRbt.so (2013.1, Build901 2013/11/27)

>  <Rbt.Parameter_File>
/export/apps/rDock/src/rDock_2013.1_src/data/scripts/dock_solv.prm

>  <Rbt.Receptor>
prm/blind_docking_60.prm

>  <SCORE>
-57.0211

>  <SCORE.INTER>
-58.3834

>  <SCORE.INTER.CONST>
1

>  <SCORE.INTER.POLAR>
-5.65909

>  <SCORE.INTER.ROT>
2

>  <SCORE.INTER.SOLV>
16.6591

>  <SCORE.INTER.VDW>
-30.545

>  <SCORE.INTER.norm>
-4.49103

>  <SCORE.INTRA>
1.35449

>  <SCORE.INTRA.DIHEDRAL>
0.0716887

>  <SCORE.INTRA.DIHEDRAL.0>
1.43995

>  <SCORE.INTRA.POLAR>
0.272593

>  <SCORE.INTRA.POLAR.0>
-0.272593

>  <SCORE.INTRA.REPUL>
0

>  <SCORE.INTRA.REPUL.0>
0

>  <SCORE.INTRA.SOLV>
-0.491936

>  <SCORE.INTRA.SOLV.lig_0>
-22.6728

>  <SCORE.INTRA.VDW>
0.637801

>  <SCORE.INTRA.VDW.0>
-0.754459

>  <SCORE.INTRA.norm>
0.104192

>  <SCORE.RESTR>
0.00780721

>  <SCORE.RESTR.CAVITY>
0.00780721

>  <SCORE.RESTR.norm>
0.000600554

>  <SCORE.SYSTEM>
0

>  <SCORE.SYSTEM.CONST>
0

>  <SCORE.SYSTEM.DIHEDRAL>
0

>  <SCORE.SYSTEM.SOLV>
0

>  <SCORE.SYSTEM.norm>
0

>  <SCORE.heavy>
13

>  <SCORE.norm>
-4.38624

>  <RMSD>
0.718

$$$$
lig.pdb
 OpenBabel11021811453D
libRbt.so/2013.1/901 2013/11/27
 13 14  0  0  0  0  0  0  0  0999 V2000
    2.3187    3.5156   -4.2977 N   0  0  0  0  0  0  0  0  0  0  0  0
    3.5937    3.0065   -4.3326 C   0  0  0  0  0  0  0  0  0  0  0  0
    3.8853    1.8866   -3.6800 N   0  0  0  0  0  0  0  0  0  0  0  0
    2.9367    1.2090   -2.9622 C   0  0  0  0  0  0  0  0  0  0  0  0
    1.6098    1.7048   -2.8923 C   0  0  0  0  0  0  0  0  0  0  0  0
    1.3136    2.9042   -3.6004 C   0  0  0  0  0  0  0  0  0  0  0  0
    0.1932    3.3810   -3.5910 O   0  0  0  0  0  0  0  0  0  0  0  0
    0.8621    0.7845   -2.0357 C   0  0  0  0  0  0  0  0  0  0  0  0
   -0.5741    0.9126   -1.6050 C   0  0  0  0  0  0  0  0  0  0  0  0
   -0.9037   -0.1652   -0.6622 N   0  0  0  0  0  0  0  0  0  0  0  0
    1.7222   -0.1818   -1.6900 C   0  0  0  0  0  0  0  0  0  0  0  0
    2.9573    0.0678   -2.2271 N   0  0  0  0  0  0  0  0  0  0  0  0
    4.5661    3.6518   -5.0504 N   0  0  0  0  0  0  0  0  0  0  0  0
  1  6  1  0  0  0  0
  2  1  1  0  0  0  0
  2  3  2  0  0  0  0
  3  4  1  0  0  0  0
  4  5  2  0  0  0  0
  4 12  1  0  0  0  0
  5  8  1  0  0  0  0
  6  7  2  0  0  0  0
  6  5  1  0  0  0  0
  8 11  2  0  0  0  0
  8  9  1  0  0  0  0
 10  9  1  0  0  0  0
 12 11  1  0  0  0  0
 13  2  1  0  0  0  0
M  END
>  <CHROM.1>
-175.50518451,-52.38859776,1.86794774,1.76356542,-2.97627865,0.84038260,0.26227241
-0.59199669

>  <Name>
lig.pdb

>  <RI>
4.15415e+07

>  <Rbt.Current_Directory>
/home/itssahil/PROJECTS/Mol_Feturizer/New_Systems/rnas/2l1v

>  <Rbt.Executable>
rbdock ($Id: //depot/dev/client3/rdock/2013.1/src/exe/rbdock.cxx#4 $)

>  <Rbt.Library>
libRbt.so (2013.1, Build901 2013/11/27)

>  <Rbt.Parameter_File>
/export/apps/rDock/src/rDock_2013.1_src/data/scripts/dock_solv.prm

>  <Rbt.Receptor>
prm/blind_docking_60.prm

>  <SCORE>
-57.0728

>  <SCORE.INTER>
-58.4215

>  <SCORE.INTER.CONST>
1

>  <SCORE.INTER.POLAR>
-5.6256

>  <SCORE.INTER.ROT>
2

>  <SCORE.INTER.SOLV>
16.4881

>  <SCORE.INTER.VDW>
-30.6251

>  <SCORE.INTER.norm>
-4.49396

>  <SCORE.INTRA>
1.33847

>  <SCORE.INTRA.DIHEDRAL>
-0.00868608

>  <SCORE.INTRA.DIHEDRAL.0>
1.43995

>  <SCORE.INTRA.POLAR>
0.272593

>  <SCORE.INTRA.POLAR.0>
-0.272593

>  <SCORE.INTRA.REPUL>
0

>  <SCORE.INTRA.REPUL.0>
0

>  <SCORE.INTRA.SOLV>
-0.492707

>  <SCORE.INTRA.SOLV.lig_0>
-22.6728

>  <SCORE.INTRA.VDW>
0.662351

>  <SCORE.INTRA.VDW.0>
-0.754459

>  <SCORE.INTRA.norm>
0.102959

>  <SCORE.RESTR>
0.0102557

>  <SCORE.RESTR.CAVITY>
0.0102557

>  <SCORE.RESTR.norm>
0.000788902

>  <SCORE.SYSTEM>
0

>  <SCORE.SYSTEM.CONST>
0

>  <SCORE.SYSTEM.DIHEDRAL>
0

>  <SCORE.SYSTEM.SOLV>
0

>  <SCORE.SYSTEM.norm>
0

>  <SCORE.heavy>
13

>  <SCORE.norm>
-4.39021

>  <RMSD>
0.722

$$$$
lig.pdb
 OpenBabel11021811453D
libRbt.so/2013.1/901 2013/11/27
 13 14  0  0  0  0  0  0  0  0999 V2000
    2.2861    3.5761   -4.4083 N   0  0  0  0  0  0  0  0  0  0  0  0
    3.5604    3.0665   -4.4591 C   0  0  0  0  0  0  0  0  0  0  0  0
    3.8645    1.9571   -3.7944 N   0  0  0  0  0  0  0  0  0  0  0  0
    2.9298    1.2911   -3.0480 C   0  0  0  0  0  0  0  0  0  0  0  0
    1.6043    1.7880   -2.9611 C   0  0  0  0  0  0  0  0  0  0  0  0
    1.2945    2.9759   -3.6825 C   0  0  0  0  0  0  0  0  0  0  0  0
    0.1743    3.4529   -3.6596 O   0  0  0  0  0  0  0  0  0  0  0  0
    0.8731    0.8816   -2.0759 C   0  0  0  0  0  0  0  0  0  0  0  0
   -0.5547    1.0166   -1.6204 C   0  0  0  0  0  0  0  0  0  0  0  0
   -0.7482    0.2605   -0.3752 N   0  0  0  0  0  0  0  0  0  0  0  0
    1.7398   -0.0791   -1.7312 C   0  0  0  0  0  0  0  0  0  0  0  0
    2.9645    0.1617   -2.2953 N   0  0  0  0  0  0  0  0  0  0  0  0
    4.5188    3.7002   -5.2054 N   0  0  0  0  0  0  0  0  0  0  0  0
  1  6  1  0  0  0  0
  2  1  1  0  0  0  0
  2  3  2  0  0  0  0
  3  4  1  0  0  0  0
  4  5  2  0  0  0  0
  4 12  1  0  0  0  0
  5  8  1  0  0  0  0
  6  7  2  0  0  0  0
  6  5  1  0  0  0  0
  8 11  2  0  0  0  0
  8  9  1  0  0  0  0
 10  9  1  0  0  0  0
 12 11  1  0  0  0  0
 13  2  1  0  0  0  0
M  END
>  <CHROM.1>
-157.58744163,-74.62146628,1.87179621,1.87404565,-3.02473564,0.85169159,0.30323337
-0.63182826

>  <Name>
lig.pdb

>  <RI>
1.77584e+07

>  <Rbt.Current_Directory>
/home/itssahil/PROJECTS/Mol_Feturizer/New_Systems/rnas/2l1v

>  <Rbt.Executable>
rbdock ($Id: //depot/dev/client3/rdock/2013.1/src/exe/rbdock.cxx#4 $)

>  <Rbt.Library>
libRbt.so (2013.1, Build901 2013/11/27)

>  <Rbt.Parameter_File>
/export/apps/rDock/src/rDock_2013.1_src/data/scripts/dock_solv.prm

>  <Rbt.Receptor>
prm/blind_docking_80.prm

>  <SCORE>
-56.8245

>  <SCORE.INTER>
-58.3758

>  <SCORE.INTER.CONST>
1

>  <SCORE.INTER.POLAR>
-5.33545

>  <SCORE.INTER.ROT>
2

>  <SCORE.INTER.SOLV>
16.5933

>  <SCORE.INTER.VDW>
-31.5968

>  <SCORE.INTER.norm>
-4.49045

>  <SCORE.INTRA>
1.55127

>  <SCORE.INTRA.DIHEDRAL>
0.671376

>  <SCORE.INTRA.DIHEDRAL.0>
1.43995

>  <SCORE.INTRA.POLAR>
0.272593

>  <SCORE.INTRA.POLAR.0>
-0.272593

>  <SCORE.INTRA.REPUL>
0

>  <SCORE.INTRA.REPUL.0>
0

>  <SCORE.INTRA.SOLV>
-0.50102

>  <SCORE.INTRA.SOLV.lig_0>
-22.6728

>  <SCORE.INTRA.VDW>
0.539281

>  <SCORE.INTRA.VDW.0>
-0.754459

>  <SCORE.INTRA.norm>
0.119329

>  <SCORE.RESTR>
0

>  <SCORE.RESTR.CAVITY>
0

>  <SCORE.RESTR.norm>
0

>  <SCORE.SYSTEM>
0

>  <SCORE.SYSTEM.CONST>
0

>  <SCORE.SYSTEM.DIHEDRAL>
0

>  <SCORE.SYSTEM.SOLV>
0

>  <SCORE.SYSTEM.norm>
0

>  <SCORE.heavy>
13

>  <SCORE.norm>
-4.37112

>  <RMSD>
0.729

$$$$
lig.pdb
 OpenBabel11021811453D
libRbt.so/2013.1/901 2013/11/27
 13 14  0  0  0  0  0  0  0  0999 V2000
    2.3127    3.4788   -4.2746 N   0  0  0  0  0  0  0  0  0  0  0  0
    3.5812    2.9533   -4.3052 C   0  0  0  0  0  0  0  0  0  0  0  0
    3.8553    1.8280   -3.6544 N   0  0  0  0  0  0  0  0  0  0  0  0
    2.8948    1.1609   -2.9426 C   0  0  0  0  0  0  0  0  0  0  0  0
    1.5742    1.6736   -2.8773 C   0  0  0  0  0  0  0  0  0  0  0  0
    1.2966    2.8786   -3.5834 C   0  0  0  0  0  0  0  0  0  0  0  0
    0.1824    3.3698   -3.5777 O   0  0  0  0  0  0  0  0  0  0  0  0
    0.8107    0.7608   -2.0265 C   0  0  0  0  0  0  0  0  0  0  0  0
   -0.6256    0.9064   -1.6018 C   0  0  0  0  0  0  0  0  0  0  0  0
   -0.9645   -0.1514   -0.6398 N   0  0  0  0  0  0  0  0  0  0  0  0
    1.6567   -0.2174   -1.6796 C   0  0  0  0  0  0  0  0  0  0  0  0
    2.8973    0.0175   -2.2105 N   0  0  0  0  0  0  0  0  0  0  0  0
    4.5649    3.5879   -5.0170 N   0  0  0  0  0  0  0  0  0  0  0  0
  1  6  1  0  0  0  0
  2  1  1  0  0  0  0
  2  3  2  0  0  0  0
  3  4  1  0  0  0  0
  4  5  2  0  0  0  0
  4 12  1  0  0  0  0
  5  8  1  0  0  0  0
  6  7  2  0  0  0  0
  6  5  1  0  0  0  0
  8 11  2  0  0  0  0
  8  9  1  0  0  0  0
 10  9  1  0  0  0  0
 12 11  1  0  0  0  0
 13  2  1  0  0  0  0
M  END
>  <CHROM.1>
-174.21733288,-54.07753757,1.83419267,1.73095436,-2.95772528,0.82701849,0.26762153
-0.58728464

>  <Name>
lig.pdb

>  <RI>
2.50021e+07

>  <Rbt.Current_Directory>
/home/itssahil/PROJECTS/Mol_Feturizer/New_Systems/rnas/2l1v

>  <Rbt.Executable>
rbdock ($Id: //depot/dev/client3/rdock/2013.1/src/exe/rbdock.cxx#4 $)

>  <Rbt.Library>
libRbt.so (2013.1, Build901 2013/11/27)

>  <Rbt.Parameter_File>
/export/apps/rDock/src/rDock_2013.1_src/data/scripts/dock_solv.prm

>  <Rbt.Receptor>
prm/pocket_docking_5.prm

>  <SCORE>
-56.6678

>  <SCORE.INTER>
-58.0677

>  <SCORE.INTER.CONST>
1

>  <SCORE.INTER.POLAR>
-5.57019

>  <SCORE.INTER.ROT>
2

>  <SCORE.INTER.SOLV>
16.4138

>  <SCORE.INTER.VDW>
-30.5491

>  <SCORE.INTER.norm>
-4.46675

>  <SCORE.INTRA>
1.33969

>  <SCORE.INTRA.DIHEDRAL>
0.0130519

>  <SCORE.INTRA.DIHEDRAL.0>
1.43995

>  <SCORE.INTRA.POLAR>
0.272593

>  <SCORE.INTRA.POLAR.0>
-0.272593

>  <SCORE.INTRA.REPUL>
0

>  <SCORE.INTRA.REPUL.0>
0

>  <SCORE.INTRA.SOLV>
-0.492833

>  <SCORE.INTRA.SOLV.lig_0>
-22.6728

>  <SCORE.INTRA.VDW>
0.652768

>  <SCORE.INTRA.VDW.0>
-0.754459

>  <SCORE.INTRA.norm>
0.103053

>  <SCORE.RESTR>
0.0602723

>  <SCORE.RESTR.CAVITY>
0.0602723

>  <SCORE.RESTR.norm>
0.00463633

>  <SCORE.SYSTEM>
0

>  <SCORE.SYSTEM.CONST>
0

>  <SCORE.SYSTEM.DIHEDRAL>
0

>  <SCORE.SYSTEM.SOLV>
0

>  <SCORE.SYSTEM.norm>
0

>  <SCORE.heavy>
13

>  <SCORE.norm>
-4.35906

>  <RMSD>
0.731

$$$$
lig.pdb
 OpenBabel11021811453D
libRbt.so/2013.1/901 2013/11/27
 13 14  0  0  0  0  0  0  0  0999 V2000
    2.3038    3.4549   -4.2761 N   0  0  0  0  0  0  0  0  0  0  0  0
    3.5721    2.9285   -4.3008 C   0  0  0  0  0  0  0  0  0  0  0  0
    3.8449    1.8084   -3.6405 N   0  0  0  0  0  0  0  0  0  0  0  0
    2.8831    1.1476   -2.9245 C   0  0  0  0  0  0  0  0  0  0  0  0
    1.5627    1.6614   -2.8650 C   0  0  0  0  0  0  0  0  0  0  0  0
    1.2866    2.8608   -3.5812 C   0  0  0  0  0  0  0  0  0  0  0  0
    0.1727    3.3526   -3.5810 O   0  0  0  0  0  0  0  0  0  0  0  0
    0.7977    0.7560   -2.0078 C   0  0  0  0  0  0  0  0  0  0  0  0
   -0.6390    0.9057   -1.5861 C   0  0  0  0  0  0  0  0  0  0  0  0
   -0.9878   -0.1610   -0.6375 N   0  0  0  0  0  0  0  0  0  0  0  0
    1.6428   -0.2198   -1.6519 C   0  0  0  0  0  0  0  0  0  0  0  0
    2.8841    0.0102   -2.1831 N   0  0  0  0  0  0  0  0  0  0  0  0
    4.5571    3.5568   -5.0165 N   0  0  0  0  0  0  0  0  0  0  0  0
  1  6  1  0  0  0  0
  2  1  1  0  0  0  0
  2  3  2  0  0  0  0
  3  4  1  0  0  0  0
  4  5  2  0  0  0  0
  4 12  1  0  0  0  0
  5  8  1  0  0  0  0
  6  7  2  0  0  0  0
  6  5  1  0  0  0  0
  8 11  2  0  0  0  0
  8  9  1  0  0  0  0
 10  9  1  0  0  0  0
 12 11  1  0  0  0  0
 13  2  1  0  0  0  0
M  END
>  <CHROM.1>
-175.40426684,-52.17725480,1.82206638,1.71642777,-2.94762608,0.82553866,0.26514600
-0.59368409

>  <Name>
lig.pdb

>  <RI>
2.05237e+07

>  <Rbt.Current_Directory>
/home/itssahil/PROJECTS/Mol_Feturizer/New_Systems/rnas/2l1v

>  <Rbt.Executable>
rbdock ($Id: //depot/dev/client3/rdock/2013.1/src/exe/rbdock.cxx#4 $)

>  <Rbt.Library>
libRbt.so (2013.1, Build901 2013/11/27)

>  <Rbt.Parameter_File>
/export/apps/rDock/src/rDock_2013.1_src/data/scripts/dock_solv.prm

>  <Rbt.Receptor>
prm/blind_docking_100.prm

>  <SCORE>
-56.6097

>  <SCORE.INTER>
-57.9743

>  <SCORE.INTER.CONST>
1

>  <SCORE.INTER.POLAR>
-5.5241

>  <SCORE.INTER.ROT>
2

>  <SCORE.INTER.SOLV>
16.3506

>  <SCORE.INTER.VDW>
-30.6193

>  <SCORE.INTER.norm>
-4.45956

>  <SCORE.INTRA>
1.34009

>  <SCORE.INTRA.DIHEDRAL>
-0.0082375

>  <SCORE.INTRA.DIHEDRAL.0>
1.43995

>  <SCORE.INTRA.POLAR>
0.272593

>  <SCORE.INTRA.POLAR.0>
-0.272593

>  <SCORE.INTRA.REPUL>
0

>  <SCORE.INTRA.REPUL.0>
0

>  <SCORE.INTRA.SOLV>
-0.492685

>  <SCORE.INTRA.SOLV.lig_0>
-22.6728

>  <SCORE.INTRA.VDW>
0.663732

>  <SCORE.INTRA.VDW.0>
-0.754459

>  <SCORE.INTRA.norm>
0.103084

>  <SCORE.RESTR>
0.0244415

>  <SCORE.RESTR.CAVITY>
0.0244415

>  <SCORE.RESTR.norm>
0.00188012

>  <SCORE.SYSTEM>
0

>  <SCORE.SYSTEM.CONST>
0

>  <SCORE.SYSTEM.DIHEDRAL>
0

>  <SCORE.SYSTEM.SOLV>
0

>  <SCORE.SYSTEM.norm>
0

>  <SCORE.heavy>
13

>  <SCORE.norm>
-4.35459

>  <RMSD>
0.733

$$$$
lig.pdb
 OpenBabel11021811453D
libRbt.so/2013.1/901 2013/11/27
 13 14  0  0  0  0  0  0  0  0999 V2000
    2.3043    3.4544   -4.2773 N   0  0  0  0  0  0  0  0  0  0  0  0
    3.5727    2.9284   -4.3023 C   0  0  0  0  0  0  0  0  0  0  0  0
    3.8459    1.8085   -3.6419 N   0  0  0  0  0  0  0  0  0  0  0  0
    2.8845    1.1474   -2.9256 C   0  0  0  0  0  0  0  0  0  0  0  0
    1.5640    1.6610   -2.8659 C   0  0  0  0  0  0  0  0  0  0  0  0
    1.2874    2.8601   -3.5822 C   0  0  0  0  0  0  0  0  0  0  0  0
    0.1733    3.3516   -3.5817 O   0  0  0  0  0  0  0  0  0  0  0  0
    0.7995    0.7554   -2.0084 C   0  0  0  0  0  0  0  0  0  0  0  0
   -0.6372    0.9047   -1.5864 C   0  0  0  0  0  0  0  0  0  0  0  0
   -0.9806   -0.1519   -0.6246 N   0  0  0  0  0  0  0  0  0  0  0  0
    1.6449   -0.2201   -1.6526 C   0  0  0  0  0  0  0  0  0  0  0  0
    2.8861    0.0101   -2.1841 N   0  0  0  0  0  0  0  0  0  0  0  0
    4.5573    3.5569   -5.0182 N   0  0  0  0  0  0  0  0  0  0  0  0
  1  6  1  0  0  0  0
  2  1  1  0  0  0  0
  2  3  2  0  0  0  0
  3  4  1  0  0  0  0
  4  5  2  0  0  0  0
  4 12  1  0  0  0  0
  5  8  1  0  0  0  0
  6  7  2  0  0  0  0
  6  5  1  0  0  0  0
  8 11  2  0  0  0  0
  8  9  1  0  0  0  0
 10  9  1  0  0  0  0
 12 11  1  0  0  0  0
 13  2  1  0  0  0  0
M  END
>  <CHROM.1>
-174.69354291,-53.83076723,1.82379075,1.71693936,-2.94733855,0.82613181,0.26619498
-0.59477140

>  <Name>
lig.pdb

>  <RI>
9.54411e+06

>  <Rbt.Current_Directory>
/home/itssahil/PROJECTS/Mol_Feturizer/New_Systems/rnas/2l1v

>  <Rbt.Executable>
rbdock ($Id: //depot/dev/client3/rdock/2013.1/src/exe/rbdock.cxx#4 $)

>  <Rbt.Library>
libRbt.so (2013.1, Build901 2013/11/27)

>  <Rbt.Parameter_File>
/export/apps/rDock/src/rDock_2013.1_src/data/scripts/dock_solv.prm

>  <Rbt.Receptor>
prm/pocket_docking_6.prm

>  <SCORE>
-56.6293

>  <SCORE.INTER>
-57.993

>  <SCORE.INTER.CONST>
1

>  <SCORE.INTER.POLAR>
-5.52625

>  <SCORE.INTER.ROT>
2

>  <SCORE.INTER.SOLV>
16.3376

>  <SCORE.INTER.VDW>
-30.6204

>  <SCORE.INTER.norm>
-4.461

>  <SCORE.INTRA>
1.33736

>  <SCORE.INTRA.DIHEDRAL>
0.00563564

>  <SCORE.INTRA.DIHEDRAL.0>
1.43995

>  <SCORE.INTRA.POLAR>
0.272593

>  <SCORE.INTRA.POLAR.0>
-0.272593

>  <SCORE.INTRA.REPUL>
0

>  <SCORE.INTRA.REPUL.0>
0

>  <SCORE.INTRA.SOLV>
-0.492809

>  <SCORE.INTRA.SOLV.lig_0>
-22.6728

>  <SCORE.INTRA.VDW>
0.654131

>  <SCORE.INTRA.VDW.0>
-0.754459

>  <SCORE.INTRA.norm>
0.102874

>  <SCORE.RESTR>
0.0263342

>  <SCORE.RESTR.CAVITY>
0.0263342

>  <SCORE.RESTR.norm>
0.00202571

>  <SCORE.SYSTEM>
0

>  <SCORE.SYSTEM.CONST>
0

>  <SCORE.SYSTEM.DIHEDRAL>
0

>  <SCORE.SYSTEM.SOLV>
0

>  <SCORE.SYSTEM.norm>
0

>  <SCORE.heavy>
13

>  <SCORE.norm>
-4.3561

>  <RMSD>
0.734

$$$$
lig.pdb
 OpenBabel11021811453D
libRbt.so/2013.1/901 2013/11/27
 13 14  0  0  0  0  0  0  0  0999 V2000
    2.3032    3.4687   -4.2752 N   0  0  0  0  0  0  0  0  0  0  0  0
    3.5715    2.9432   -4.3116 C   0  0  0  0  0  0  0  0  0  0  0  0
    3.8500    1.8208   -3.6575 N   0  0  0  0  0  0  0  0  0  0  0  0
    2.8941    1.1568   -2.9365 C   0  0  0  0  0  0  0  0  0  0  0  0
    1.5739    1.6698   -2.8650 C   0  0  0  0  0  0  0  0  0  0  0  0
    1.2917    2.8716   -3.5747 C   0  0  0  0  0  0  0  0  0  0  0  0
    0.1776    3.3628   -3.5640 O   0  0  0  0  0  0  0  0  0  0  0  0
    0.8160    0.7608   -2.0052 C   0  0  0  0  0  0  0  0  0  0  0  0
   -0.6175    0.9082   -1.5719 C   0  0  0  0  0  0  0  0  0  0  0  0
   -0.9516   -0.1483   -0.6068 N   0  0  0  0  0  0  0  0  0  0  0  0
    1.6643   -0.2159   -1.6595 C   0  0  0  0  0  0  0  0  0  0  0  0
    2.9014    0.0167   -2.1994 N   0  0  0  0  0  0  0  0  0  0  0  0
    4.5507    3.5746   -5.0325 N   0  0  0  0  0  0  0  0  0  0  0  0
  1  6  1  0  0  0  0
  2  1  1  0  0  0  0
  2  3  2  0  0  0  0
  3  4  1  0  0  0  0
  4  5  2  0  0  0  0
  4 12  1  0  0  0  0
  5  8  1  0  0  0  0
  6  7  2  0  0  0  0
  6  5  1  0  0  0  0
  8 11  2  0  0  0  0
  8  9  1  0  0  0  0
 10  9  1  0  0  0  0
 12 11  1  0  0  0  0
 13  2  1  0  0  0  0
M  END
>  <CHROM.1>
-174.42944366,-53.00305642,1.83326363,1.72650372,-2.94772780,0.83072506,0.27268148
-0.59250460

>  <Name>
lig.pdb

>  <RI>
9.54411e+06

>  <Rbt.Current_Directory>
/home/itssahil/PROJECTS/Mol_Feturizer/New_Systems/rnas/2l1v

>  <Rbt.Executable>
rbdock ($Id: //depot/dev/client3/rdock/2013.1/src/exe/rbdock.cxx#4 $)

>  <Rbt.Library>
libRbt.so (2013.1, Build901 2013/11/27)

>  <Rbt.Parameter_File>
/export/apps/rDock/src/rDock_2013.1_src/data/scripts/dock_solv.prm

>  <Rbt.Receptor>
prm/pocket_docking_6.prm

>  <SCORE>
-56.6953

>  <SCORE.INTER>
-58.0884

>  <SCORE.INTER.CONST>
1

>  <SCORE.INTER.POLAR>
-5.53209

>  <SCORE.INTER.ROT>
2

>  <SCORE.INTER.SOLV>
16.337

>  <SCORE.INTER.VDW>
-30.6643

>  <SCORE.INTER.norm>
-4.46834

>  <SCORE.INTRA>
1.34279

>  <SCORE.INTRA.DIHEDRAL>
0.00657902

>  <SCORE.INTRA.DIHEDRAL.0>
1.43995

>  <SCORE.INTRA.POLAR>
0.272593

>  <SCORE.INTRA.POLAR.0>
-0.272593

>  <SCORE.INTRA.REPUL>
0

>  <SCORE.INTRA.REPUL.0>
0

>  <SCORE.INTRA.SOLV>
-0.49274

>  <SCORE.INTRA.SOLV.lig_0>
-22.6728

>  <SCORE.INTRA.VDW>
0.659055

>  <SCORE.INTRA.VDW.0>
-0.754459

>  <SCORE.INTRA.norm>
0.103292

>  <SCORE.RESTR>
0.0503275

>  <SCORE.RESTR.CAVITY>
0.0503275

>  <SCORE.RESTR.norm>
0.00387135

>  <SCORE.SYSTEM>
0

>  <SCORE.SYSTEM.CONST>
0

>  <SCORE.SYSTEM.DIHEDRAL>
0

>  <SCORE.SYSTEM.SOLV>
0

>  <SCORE.SYSTEM.norm>
0

>  <SCORE.heavy>
13

>  <SCORE.norm>
-4.36117

>  <RMSD>
0.734

$$$$
lig.pdb
 OpenBabel11021811453D
libRbt.so/2013.1/901 2013/11/27
 13 14  0  0  0  0  0  0  0  0999 V2000
    2.3033    3.4517   -4.2819 N   0  0  0  0  0  0  0  0  0  0  0  0
    3.5731    2.9290   -4.3018 C   0  0  0  0  0  0  0  0  0  0  0  0
    3.8479    1.8127   -3.6360 N   0  0  0  0  0  0  0  0  0  0  0  0
    2.8866    1.1523   -2.9188 C   0  0  0  0  0  0  0  0  0  0  0  0
    1.5646    1.6626   -2.8642 C   0  0  0  0  0  0  0  0  0  0  0  0
    1.2864    2.8579   -3.5864 C   0  0  0  0  0  0  0  0  0  0  0  0
    0.1711    3.3465   -3.5905 O   0  0  0  0  0  0  0  0  0  0  0  0
    0.8006    0.7588   -2.0044 C   0  0  0  0  0  0  0  0  0  0  0  0
   -0.6374    0.9062   -1.5862 C   0  0  0  0  0  0  0  0  0  0  0  0
   -0.9791   -0.1449   -0.6177 N   0  0  0  0  0  0  0  0  0  0  0  0
    1.6478   -0.2130   -1.6425 C   0  0  0  0  0  0  0  0  0  0  0  0
    2.8896    0.0182   -2.1723 N   0  0  0  0  0  0  0  0  0  0  0  0
    4.5577    3.5569   -5.0185 N   0  0  0  0  0  0  0  0  0  0  0  0
  1  6  1  0  0  0  0
  2  1  1  0  0  0  0
  2  3  2  0  0  0  0
  3  4  1  0  0  0  0
  4  5  2  0  0  0  0
  4 12  1  0  0  0  0
  5  8  1  0  0  0  0
  6  7  2  0  0  0  0
  6  5  1  0  0  0  0
  8 11  2  0  0  0  0
  8  9  1  0  0  0  0
 10  9  1  0  0  0  0
 12 11  1  0  0  0  0
 13  2  1  0  0  0  0
M  END
>  <CHROM.1>
-174.54336327,-54.37029765,1.82456414,1.71908707,-2.94510430,0.82716017,0.26315958
-0.59960169

>  <Name>
lig.pdb

>  <RI>
4.17264e+07

>  <Rbt.Current_Directory>
/home/itssahil/PROJECTS/Mol_Feturizer/New_Systems/rnas/2l1v

>  <Rbt.Executable>
rbdock ($Id: //depot/dev/client3/rdock/2013.1/src/exe/rbdock.cxx#4 $)

>  <Rbt.Library>
libRbt.so (2013.1, Build901 2013/11/27)

>  <Rbt.Parameter_File>
/export/apps/rDock/src/rDock_2013.1_src/data/scripts/dock_solv.prm

>  <Rbt.Receptor>
prm/blind_docking_20.prm

>  <SCORE>
-56.6316

>  <SCORE.INTER>
-57.9948

>  <SCORE.INTER.CONST>
1

>  <SCORE.INTER.POLAR>
-5.52401

>  <SCORE.INTER.ROT>
2

>  <SCORE.INTER.SOLV>
16.3132

>  <SCORE.INTER.VDW>
-30.6209

>  <SCORE.INTER.norm>
-4.46114

>  <SCORE.INTRA>
1.3362

>  <SCORE.INTRA.DIHEDRAL>
0.00940057

>  <SCORE.INTRA.DIHEDRAL.0>
1.43995

>  <SCORE.INTRA.POLAR>
0.272593

>  <SCORE.INTRA.POLAR.0>
-0.272593

>  <SCORE.INTRA.REPUL>
0

>  <SCORE.INTRA.REPUL.0>
0

>  <SCORE.INTRA.SOLV>
-0.492854

>  <SCORE.INTRA.SOLV.lig_0>
-22.6728

>  <SCORE.INTRA.VDW>
0.651112

>  <SCORE.INTRA.VDW.0>
-0.754459

>  <SCORE.INTRA.norm>
0.102785

>  <SCORE.RESTR>
0.0270282

>  <SCORE.RESTR.CAVITY>
0.0270282

>  <SCORE.RESTR.norm>
0.00207909

>  <SCORE.SYSTEM>
0

>  <SCORE.SYSTEM.CONST>
0

>  <SCORE.SYSTEM.DIHEDRAL>
0

>  <SCORE.SYSTEM.SOLV>
0

>  <SCORE.SYSTEM.norm>
0

>  <SCORE.heavy>
13

>  <SCORE.norm>
-4.35628

>  <RMSD>
0.735

$$$$
lig.pdb
 OpenBabel11021811453D
libRbt.so/2013.1/901 2013/11/27
 13 14  0  0  0  0  0  0  0  0999 V2000
    2.2980    3.4445   -4.2887 N   0  0  0  0  0  0  0  0  0  0  0  0
    3.5704    2.9277   -4.2964 C   0  0  0  0  0  0  0  0  0  0  0  0
    3.8466    1.8189   -3.6187 N   0  0  0  0  0  0  0  0  0  0  0  0
    2.8844    1.1605   -2.9010 C   0  0  0  0  0  0  0  0  0  0  0  0
    1.5596    1.6649   -2.8587 C   0  0  0  0  0  0  0  0  0  0  0  0
    1.2800    2.8521   -3.5935 C   0  0  0  0  0  0  0  0  0  0  0  0
    0.1623    3.3353   -3.6085 O   0  0  0  0  0  0  0  0  0  0  0  0
    0.7950    0.7654   -1.9949 C   0  0  0  0  0  0  0  0  0  0  0  0
   -0.6460    0.9098   -1.5864 C   0  0  0  0  0  0  0  0  0  0  0  0
   -0.9912   -0.1405   -0.6183 N   0  0  0  0  0  0  0  0  0  0  0  0
    1.6448   -0.1989   -1.6192 C   0  0  0  0  0  0  0  0  0  0  0  0
    2.8884    0.0334   -2.1440 N   0  0  0  0  0  0  0  0  0  0  0  0
    4.5560    3.5537   -5.0132 N   0  0  0  0  0  0  0  0  0  0  0  0
  1  6  1  0  0  0  0
  2  1  1  0  0  0  0
  2  3  2  0  0  0  0
  3  4  1  0  0  0  0
  4  5  2  0  0  0  0
  4 12  1  0  0  0  0
  5  8  1  0  0  0  0
  6  7  2  0  0  0  0
  6  5  1  0  0  0  0
  8 11  2  0  0  0  0
  8  9  1  0  0  0  0
 10  9  1  0  0  0  0
 12 11  1  0  0  0  0
 13  2  1  0  0  0  0
M  END
>  <CHROM.1>
-174.98773669,-54.74862089,1.81951437,1.72133305,-2.93936645,0.82776623,0.25502783
-0.60849853

>  <Name>
lig.pdb

>  <RI>
2.50021e+07

>  <Rbt.Current_Directory>
/home/itssahil/PROJECTS/Mol_Feturizer/New_Systems/rnas/2l1v

>  <Rbt.Executable>
rbdock ($Id: //depot/dev/client3/rdock/2013.1/src/exe/rbdock.cxx#4 $)

>  <Rbt.Library>
libRbt.so (2013.1, Build901 2013/11/27)

>  <Rbt.Parameter_File>
/export/apps/rDock/src/rDock_2013.1_src/data/scripts/dock_solv.prm

>  <Rbt.Receptor>
prm/pocket_docking_5.prm

>  <SCORE>
-56.5287

>  <SCORE.INTER>
-57.8819

>  <SCORE.INTER.CONST>
1

>  <SCORE.INTER.POLAR>
-5.50561

>  <SCORE.INTER.ROT>
2

>  <SCORE.INTER.SOLV>
16.2767

>  <SCORE.INTER.VDW>
-30.5948

>  <SCORE.INTER.norm>
-4.45245

>  <SCORE.INTRA>
1.33178

>  <SCORE.INTRA.DIHEDRAL>
0.00486586

>  <SCORE.INTRA.DIHEDRAL.0>
1.43995

>  <SCORE.INTRA.POLAR>
0.272593

>  <SCORE.INTRA.POLAR.0>
-0.272593

>  <SCORE.INTRA.REPUL>
0

>  <SCORE.INTRA.REPUL.0>
0

>  <SCORE.INTRA.SOLV>
-0.492888

>  <SCORE.INTRA.SOLV.lig_0>
-22.6728

>  <SCORE.INTRA.VDW>
0.648978

>  <SCORE.INTRA.VDW.0>
-0.754459

>  <SCORE.INTRA.norm>
0.102445

>  <SCORE.RESTR>
0.0214599

>  <SCORE.RESTR.CAVITY>
0.0214599

>  <SCORE.RESTR.norm>
0.00165076

>  <SCORE.SYSTEM>
0

>  <SCORE.SYSTEM.CONST>
0

>  <SCORE.SYSTEM.DIHEDRAL>
0

>  <SCORE.SYSTEM.SOLV>
0

>  <SCORE.SYSTEM.norm>
0

>  <SCORE.heavy>
13

>  <SCORE.norm>
-4.34836

>  <RMSD>
0.737

$$$$
lig.pdb
 OpenBabel11021811453D
libRbt.so/2013.1/901 2013/11/27
 13 14  0  0  0  0  0  0  0  0999 V2000
    2.2924    3.5538   -4.3903 N   0  0  0  0  0  0  0  0  0  0  0  0
    3.5698    3.0508   -4.4289 C   0  0  0  0  0  0  0  0  0  0  0  0
    3.8733    1.9427   -3.7618 N   0  0  0  0  0  0  0  0  0  0  0  0
    2.9349    1.2714   -3.0249 C   0  0  0  0  0  0  0  0  0  0  0  0
    1.6061    1.7613   -2.9505 C   0  0  0  0  0  0  0  0  0  0  0  0
    1.2970    2.9480   -3.6743 C   0  0  0  0  0  0  0  0  0  0  0  0
    0.1742    3.4190   -3.6621 O   0  0  0  0  0  0  0  0  0  0  0  0
    0.8711    0.8506   -2.0730 C   0  0  0  0  0  0  0  0  0  0  0  0
   -0.5618    0.9778   -1.6312 C   0  0  0  0  0  0  0  0  0  0  0  0
   -0.7396    0.3062   -0.3363 N   0  0  0  0  0  0  0  0  0  0  0  0
    1.7395   -0.1057   -1.7203 C   0  0  0  0  0  0  0  0  0  0  0  0
    2.9683    0.1419   -2.2724 N   0  0  0  0  0  0  0  0  0  0  0  0
    4.5321    3.6900   -5.1656 N   0  0  0  0  0  0  0  0  0  0  0  0
  1  6  1  0  0  0  0
  2  1  1  0  0  0  0
  2  3  2  0  0  0  0
  3  4  1  0  0  0  0
  4  5  2  0  0  0  0
  4 12  1  0  0  0  0
  5  8  1  0  0  0  0
  6  7  2  0  0  0  0
  6  5  1  0  0  0  0
  8 11  2  0  0  0  0
  8  9  1  0  0  0  0
 10  9  1  0  0  0  0
 12 11  1  0  0  0  0
 13  2  1  0  0  0  0
M  END
>  <CHROM.1>
-153.31015592,105.40275302,1.87626257,1.85681486,-3.00665963,0.84875024,0.29866516
-0.63510980

>  <Name>
lig.pdb

>  <RI>
0

>  <Rbt.Current_Directory>
/home/itssahil/PROJECTS/Mol_Feturizer/New_Systems/rnas/2l1v

>  <Rbt.Executable>
rbdock ($Id: //depot/dev/client3/rdock/2013.1/src/exe/rbdock.cxx#4 $)

>  <Rbt.Library>
libRbt.so (2013.1, Build901 2013/11/27)

>  <Rbt.Parameter_File>
/export/apps/rDock/src/rDock_2013.1_src/data/scripts/dock_solv.prm

>  <Rbt.Receptor>
prm/pocket_docking_3.prm

>  <SCORE>
-56.8324

>  <SCORE.INTER>
-58.4175

>  <SCORE.INTER.CONST>
1

>  <SCORE.INTER.POLAR>
-5.41316

>  <SCORE.INTER.ROT>
2

>  <SCORE.INTER.SOLV>
16.5212

>  <SCORE.INTER.VDW>
-31.3415

>  <SCORE.INTER.norm>
-4.49366

>  <SCORE.INTRA>
1.58515

>  <SCORE.INTRA.DIHEDRAL>
0.817289

>  <SCORE.INTRA.DIHEDRAL.0>
1.43995

>  <SCORE.INTRA.POLAR>
0.272593

>  <SCORE.INTRA.POLAR.0>
-0.272593

>  <SCORE.INTRA.REPUL>
0

>  <SCORE.INTRA.REPUL.0>
0

>  <SCORE.INTRA.SOLV>
-0.503294

>  <SCORE.INTRA.SOLV.lig_0>
-22.6728

>  <SCORE.INTRA.VDW>
0.501337

>  <SCORE.INTRA.VDW.0>
-0.754459

>  <SCORE.INTRA.norm>
0.121935

>  <SCORE.RESTR>
0

>  <SCORE.RESTR.CAVITY>
0

>  <SCORE.RESTR.norm>
0

>  <SCORE.SYSTEM>
0

>  <SCORE.SYSTEM.CONST>
0

>  <SCORE.SYSTEM.DIHEDRAL>
0

>  <SCORE.SYSTEM.SOLV>
0

>  <SCORE.SYSTEM.norm>
0

>  <SCORE.heavy>
13

>  <SCORE.norm>
-4.37172

>  <RMSD>
0.738

$$$$
lig.pdb
 OpenBabel11021811453D
libRbt.so/2013.1/901 2013/11/27
 13 14  0  0  0  0  0  0  0  0999 V2000
    2.3036    3.4537   -4.2779 N   0  0  0  0  0  0  0  0  0  0  0  0
    3.5727    2.9292   -4.3003 C   0  0  0  0  0  0  0  0  0  0  0  0
    3.8467    1.8115   -3.6365 N   0  0  0  0  0  0  0  0  0  0  0  0
    2.8855    1.1513   -2.9191 C   0  0  0  0  0  0  0  0  0  0  0  0
    1.5643    1.6634   -2.8619 C   0  0  0  0  0  0  0  0  0  0  0  0
    1.2869    2.8602   -3.5819 C   0  0  0  0  0  0  0  0  0  0  0  0
    0.1722    3.3504   -3.5838 O   0  0  0  0  0  0  0  0  0  0  0  0
    0.8002    0.7594   -2.0025 C   0  0  0  0  0  0  0  0  0  0  0  0
   -0.6370    0.9082   -1.5821 C   0  0  0  0  0  0  0  0  0  0  0  0
   -0.9743   -0.1338   -0.6024 N   0  0  0  0  0  0  0  0  0  0  0  0
    1.6465   -0.2141   -1.6432 C   0  0  0  0  0  0  0  0  0  0  0  0
    2.8878    0.0162   -2.1743 N   0  0  0  0  0  0  0  0  0  0  0  0
    4.5572    3.5568   -5.0172 N   0  0  0  0  0  0  0  0  0  0  0  0
  1  6  1  0  0  0  0
  2  1  1  0  0  0  0
  2  3  2  0  0  0  0
  3  4  1  0  0  0  0
  4  5  2  0  0  0  0
  4 12  1  0  0  0  0
  5  8  1  0  0  0  0
  6  7  2  0  0  0  0
  6  5  1  0  0  0  0
  8 11  2  0  0  0  0
  8  9  1  0  0  0  0
 10  9  1  0  0  0  0
 12 11  1  0  0  0  0
 13  2  1  0  0  0  0
M  END
>  <CHROM.1>
-173.85355895,113.64675425,1.82499766,1.72064636,-2.94181261,0.82750327,0.26575949
-0.59914117

>  <Name>
lig.pdb

>  <RI>
2.50021e+07

>  <Rbt.Current_Directory>
/home/itssahil/PROJECTS/Mol_Feturizer/New_Systems/rnas/2l1v

>  <Rbt.Executable>
rbdock ($Id: //depot/dev/client3/rdock/2013.1/src/exe/rbdock.cxx#4 $)

>  <Rbt.Library>
libRbt.so (2013.1, Build901 2013/11/27)

>  <Rbt.Parameter_File>
/export/apps/rDock/src/rDock_2013.1_src/data/scripts/dock_solv.prm

>  <Rbt.Receptor>
prm/pocket_docking_5.prm

>  <SCORE>
-56.6117

>  <SCORE.INTER>
-57.9462

>  <SCORE.INTER.CONST>
1

>  <SCORE.INTER.POLAR>
-5.52388

>  <SCORE.INTER.ROT>
2

>  <SCORE.INTER.SOLV>
16.3095

>  <SCORE.INTER.VDW>
-30.5877

>  <SCORE.INTER.norm>
-4.4574

>  <SCORE.INTRA>
1.30917

>  <SCORE.INTRA.DIHEDRAL>
0.0240818

>  <SCORE.INTRA.DIHEDRAL.0>
1.43995

>  <SCORE.INTRA.POLAR>
0.272593

>  <SCORE.INTRA.POLAR.0>
-0.272593

>  <SCORE.INTRA.REPUL>
0

>  <SCORE.INTRA.REPUL.0>
0

>  <SCORE.INTRA.SOLV>
-0.492345

>  <SCORE.INTRA.SOLV.lig_0>
-22.6728

>  <SCORE.INTRA.VDW>
0.61649

>  <SCORE.INTRA.VDW.0>
-0.754459

>  <SCORE.INTRA.norm>
0.100706

>  <SCORE.RESTR>
0.0252501

>  <SCORE.RESTR.CAVITY>
0.0252501

>  <SCORE.RESTR.norm>
0.00194232

>  <SCORE.SYSTEM>
0

>  <SCORE.SYSTEM.CONST>
0

>  <SCORE.SYSTEM.DIHEDRAL>
0

>  <SCORE.SYSTEM.SOLV>
0

>  <SCORE.SYSTEM.norm>
0

>  <SCORE.heavy>
13

>  <SCORE.norm>
-4.35475

>  <RMSD>
0.738

$$$$
lig.pdb
 OpenBabel11021811453D
libRbt.so/2013.1/901 2013/11/27
 13 14  0  0  0  0  0  0  0  0999 V2000
    2.3038    3.4544   -4.2753 N   0  0  0  0  0  0  0  0  0  0  0  0
    3.5719    2.9278   -4.3004 C   0  0  0  0  0  0  0  0  0  0  0  0
    3.8446    1.8072   -3.6408 N   0  0  0  0  0  0  0  0  0  0  0  0
    2.8827    1.1462   -2.9250 C   0  0  0  0  0  0  0  0  0  0  0  0
    1.5624    1.6604   -2.8650 C   0  0  0  0  0  0  0  0  0  0  0  0
    1.2865    2.8602   -3.5806 C   0  0  0  0  0  0  0  0  0  0  0  0
    0.1727    3.3523   -3.5799 O   0  0  0  0  0  0  0  0  0  0  0  0
    0.7974    0.7547   -2.0082 C   0  0  0  0  0  0  0  0  0  0  0  0
   -0.6392    0.9045   -1.5862 C   0  0  0  0  0  0  0  0  0  0  0  0
   -0.9704   -0.1249   -0.5911 N   0  0  0  0  0  0  0  0  0  0  0  0
    1.6423   -0.2216   -1.6530 C   0  0  0  0  0  0  0  0  0  0  0  0
    2.8836    0.0084   -2.1842 N   0  0  0  0  0  0  0  0  0  0  0  0
    4.5570    3.5562   -5.0159 N   0  0  0  0  0  0  0  0  0  0  0  0
  1  6  1  0  0  0  0
  2  1  1  0  0  0  0
  2  3  2  0  0  0  0
  3  4  1  0  0  0  0
  4  5  2  0  0  0  0
  4 12  1  0  0  0  0
  5  8  1  0  0  0  0
  6  7  2  0  0  0  0
  6  5  1  0  0  0  0
  8 11  2  0  0  0  0
  8  9  1  0  0  0  0
 10  9  1  0  0  0  0
 12 11  1  0  0  0  0
 13  2  1  0  0  0  0
M  END
>  <CHROM.1>
-172.80039389,-56.69328956,1.82350568,1.71888274,-2.94326248,0.82608706,0.26917260
-0.59624786

>  <Name>
lig.pdb

>  <RI>
2.50021e+07

>  <Rbt.Current_Directory>
/home/itssahil/PROJECTS/Mol_Feturizer/New_Systems/rnas/2l1v

>  <Rbt.Executable>
rbdock ($Id: //depot/dev/client3/rdock/2013.1/src/exe/rbdock.cxx#4 $)

>  <Rbt.Library>
libRbt.so (2013.1, Build901 2013/11/27)

>  <Rbt.Parameter_File>
/export/apps/rDock/src/rDock_2013.1_src/data/scripts/dock_solv.prm

>  <Rbt.Receptor>
prm/pocket_docking_5.prm

>  <SCORE>
-56.6067

>  <SCORE.INTER>
-57.9713

>  <SCORE.INTER.CONST>
1

>  <SCORE.INTER.POLAR>
-5.52436

>  <SCORE.INTER.ROT>
2

>  <SCORE.INTER.SOLV>
16.304

>  <SCORE.INTER.VDW>
-30.601

>  <SCORE.INTER.norm>
-4.45933

>  <SCORE.INTRA>
1.34126

>  <SCORE.INTRA.DIHEDRAL>
0.0453093

>  <SCORE.INTRA.DIHEDRAL.0>
1.43995

>  <SCORE.INTRA.POLAR>
0.272593

>  <SCORE.INTRA.POLAR.0>
-0.272593

>  <SCORE.INTRA.REPUL>
0

>  <SCORE.INTRA.REPUL.0>
0

>  <SCORE.INTRA.SOLV>
-0.493121

>  <SCORE.INTRA.SOLV.lig_0>
-22.6728

>  <SCORE.INTRA.VDW>
0.638353

>  <SCORE.INTRA.VDW.0>
-0.754459

>  <SCORE.INTRA.norm>
0.103174

>  <SCORE.RESTR>
0.0233253

>  <SCORE.RESTR.CAVITY>
0.0233253

>  <SCORE.RESTR.norm>
0.00179426

>  <SCORE.SYSTEM>
0

>  <SCORE.SYSTEM.CONST>
0

>  <SCORE.SYSTEM.DIHEDRAL>
0

>  <SCORE.SYSTEM.SOLV>
0

>  <SCORE.SYSTEM.norm>
0

>  <SCORE.heavy>
13

>  <SCORE.norm>
-4.35436

>  <RMSD>
0.739

$$$$
lig.pdb
 OpenBabel11021811453D
libRbt.so/2013.1/901 2013/11/27
 13 14  0  0  0  0  0  0  0  0999 V2000
    2.3071    3.4700   -4.2725 N   0  0  0  0  0  0  0  0  0  0  0  0
    3.5742    2.9414   -4.3068 C   0  0  0  0  0  0  0  0  0  0  0  0
    3.8473    1.8152   -3.6571 N   0  0  0  0  0  0  0  0  0  0  0  0
    2.8871    1.1503   -2.9427 C   0  0  0  0  0  0  0  0  0  0  0  0
    1.5680    1.6663   -2.8736 C   0  0  0  0  0  0  0  0  0  0  0  0
    1.2915    2.8722   -3.5786 C   0  0  0  0  0  0  0  0  0  0  0  0
    0.1786    3.3663   -3.5697 O   0  0  0  0  0  0  0  0  0  0  0  0
    0.8046    0.7552   -2.0209 C   0  0  0  0  0  0  0  0  0  0  0  0
   -0.6301    0.9043   -1.5922 C   0  0  0  0  0  0  0  0  0  0  0  0
   -0.9394   -0.0876   -0.5530 N   0  0  0  0  0  0  0  0  0  0  0  0
    1.6491   -0.2252   -1.6767 C   0  0  0  0  0  0  0  0  0  0  0  0
    2.8888    0.0067   -2.2110 N   0  0  0  0  0  0  0  0  0  0  0  0
    4.5576    3.5737   -5.0211 N   0  0  0  0  0  0  0  0  0  0  0  0
  1  6  1  0  0  0  0
  2  1  1  0  0  0  0
  2  3  2  0  0  0  0
  3  4  1  0  0  0  0
  4  5  2  0  0  0  0
  4 12  1  0  0  0  0
  5  8  1  0  0  0  0
  6  7  2  0  0  0  0
  6  5  1  0  0  0  0
  8 11  2  0  0  0  0
  8  9  1  0  0  0  0
 10  9  1  0  0  0  0
 12 11  1  0  0  0  0
 13  2  1  0  0  0  0
M  END
>  <CHROM.1>
-169.87932993,-62.48650074,1.83068063,1.72914773,-2.94761272,0.82729417,0.27757059
-0.59205525

>  <Name>
lig.pdb

>  <RI>
2.50021e+07

>  <Rbt.Current_Directory>
/home/itssahil/PROJECTS/Mol_Feturizer/New_Systems/rnas/2l1v

>  <Rbt.Executable>
rbdock ($Id: //depot/dev/client3/rdock/2013.1/src/exe/rbdock.cxx#4 $)

>  <Rbt.Library>
libRbt.so (2013.1, Build901 2013/11/27)

>  <Rbt.Parameter_File>
/export/apps/rDock/src/rDock_2013.1_src/data/scripts/dock_solv.prm

>  <Rbt.Receptor>
prm/pocket_docking_5.prm

>  <SCORE>
-56.6493

>  <SCORE.INTER>
-58.0591

>  <SCORE.INTER.CONST>
1

>  <SCORE.INTER.POLAR>
-5.54209

>  <SCORE.INTER.ROT>
2

>  <SCORE.INTER.SOLV>
16.3255

>  <SCORE.INTER.VDW>
-30.6076

>  <SCORE.INTER.norm>
-4.46609

>  <SCORE.INTRA>
1.3655

>  <SCORE.INTRA.DIHEDRAL>
0.131767

>  <SCORE.INTRA.DIHEDRAL.0>
1.43995

>  <SCORE.INTRA.POLAR>
0.272593

>  <SCORE.INTRA.POLAR.0>
-0.272593

>  <SCORE.INTRA.REPUL>
0

>  <SCORE.INTRA.REPUL.0>
0

>  <SCORE.INTRA.SOLV>
-0.494023

>  <SCORE.INTRA.SOLV.lig_0>
-22.6728

>  <SCORE.INTRA.VDW>
0.619813

>  <SCORE.INTRA.VDW.0>
-0.754459

>  <SCORE.INTRA.norm>
0.105038

>  <SCORE.RESTR>
0.0443453

>  <SCORE.RESTR.CAVITY>
0.0443453

>  <SCORE.RESTR.norm>
0.00341118

>  <SCORE.SYSTEM>
0

>  <SCORE.SYSTEM.CONST>
0

>  <SCORE.SYSTEM.DIHEDRAL>
0

>  <SCORE.SYSTEM.SOLV>
0

>  <SCORE.SYSTEM.norm>
0

>  <SCORE.heavy>
13

>  <SCORE.norm>
-4.35764

>  <RMSD>
0.741

$$$$
lig.pdb
 OpenBabel11021811453D
libRbt.so/2013.1/901 2013/11/27
 13 14  0  0  0  0  0  0  0  0999 V2000
    2.2859    3.5934   -4.3917 N   0  0  0  0  0  0  0  0  0  0  0  0
    3.5558    3.0740   -4.4543 C   0  0  0  0  0  0  0  0  0  0  0  0
    3.8521    1.9511   -3.8091 N   0  0  0  0  0  0  0  0  0  0  0  0
    2.9135    1.2805   -3.0717 C   0  0  0  0  0  0  0  0  0  0  0  0
    1.5926    1.7870   -2.9730 C   0  0  0  0  0  0  0  0  0  0  0  0
    1.2910    2.9895   -3.6735 C   0  0  0  0  0  0  0  0  0  0  0  0
    0.1750    3.4754   -3.6397 O   0  0  0  0  0  0  0  0  0  0  0  0
    0.8558    0.8720   -2.1014 C   0  0  0  0  0  0  0  0  0  0  0  0
   -0.5697    1.0113   -1.6399 C   0  0  0  0  0  0  0  0  0  0  0  0
   -0.7098    0.4399   -0.2933 N   0  0  0  0  0  0  0  0  0  0  0  0
    1.7152   -0.1017   -1.7751 C   0  0  0  0  0  0  0  0  0  0  0  0
    2.9405    0.1383   -2.3382 N   0  0  0  0  0  0  0  0  0  0  0  0
    4.5177    3.7121   -5.1922 N   0  0  0  0  0  0  0  0  0  0  0  0
  1  6  1  0  0  0  0
  2  1  1  0  0  0  0
  2  3  2  0  0  0  0
  3  4  1  0  0  0  0
  4  5  2  0  0  0  0
  4 12  1  0  0  0  0
  5  8  1  0  0  0  0
  6  7  2  0  0  0  0
  6  5  1  0  0  0  0
  8 11  2  0  0  0  0
  8  9  1  0  0  0  0
 10  9  1  0  0  0  0
 12 11  1  0  0  0  0
 13  2  1  0  0  0  0
M  END
>  <CHROM.1>
-147.63191439,-134.29482369,1.86596834,1.89099781,-3.02518882,0.84093358
0.32186069,-0.62453531

>  <Name>
lig.pdb

>  <RI>
4.02536e+07

>  <Rbt.Current_Directory>
/home/itssahil/PROJECTS/Mol_Feturizer/New_Systems/rnas/2l1v

>  <Rbt.Executable>
rbdock ($Id: //depot/dev/client3/rdock/2013.1/src/exe/rbdock.cxx#4 $)

>  <Rbt.Library>
libRbt.so (2013.1, Build901 2013/11/27)

>  <Rbt.Parameter_File>
/export/apps/rDock/src/rDock_2013.1_src/data/scripts/dock_solv.prm

>  <Rbt.Receptor>
prm/blind_docking_40.prm

>  <SCORE>
-56.6697

>  <SCORE.INTER>
-58.3849

>  <SCORE.INTER.CONST>
1

>  <SCORE.INTER.POLAR>
-5.35096

>  <SCORE.INTER.ROT>
2

>  <SCORE.INTER.SOLV>
16.716

>  <SCORE.INTER.VDW>
-31.5921

>  <SCORE.INTER.norm>
-4.49115

>  <SCORE.INTRA>
1.71516

>  <SCORE.INTRA.DIHEDRAL>
1.14289

>  <SCORE.INTRA.DIHEDRAL.0>
1.43995

>  <SCORE.INTRA.POLAR>
0.272593

>  <SCORE.INTRA.POLAR.0>
-0.272593

>  <SCORE.INTRA.REPUL>
0

>  <SCORE.INTRA.REPUL.0>
0

>  <SCORE.INTRA.SOLV>
-0.509467

>  <SCORE.INTRA.SOLV.lig_0>
-22.6728

>  <SCORE.INTRA.VDW>
0.471636

>  <SCORE.INTRA.VDW.0>
-0.754459

>  <SCORE.INTRA.norm>
0.131935

>  <SCORE.RESTR>
0

>  <SCORE.RESTR.CAVITY>
0

>  <SCORE.RESTR.norm>
0

>  <SCORE.SYSTEM>
0

>  <SCORE.SYSTEM.CONST>
0

>  <SCORE.SYSTEM.DIHEDRAL>
0

>  <SCORE.SYSTEM.SOLV>
0

>  <SCORE.SYSTEM.norm>
0

>  <SCORE.heavy>
13

>  <SCORE.norm>
-4.35921

>  <RMSD>
0.743

$$$$
lig.pdb
 OpenBabel11021811453D
libRbt.so/2013.1/901 2013/11/27
 13 14  0  0  0  0  0  0  0  0999 V2000
    2.3042    3.4522   -4.2821 N   0  0  0  0  0  0  0  0  0  0  0  0
    3.5744    2.9303   -4.3004 C   0  0  0  0  0  0  0  0  0  0  0  0
    3.8493    1.8150   -3.6329 N   0  0  0  0  0  0  0  0  0  0  0  0
    2.8880    1.1548   -2.9157 C   0  0  0  0  0  0  0  0  0  0  0  0
    1.5656    1.6644   -2.8628 C   0  0  0  0  0  0  0  0  0  0  0  0
    1.2872    2.8586   -3.5866 C   0  0  0  0  0  0  0  0  0  0  0  0
    0.1715    3.3464   -3.5922 O   0  0  0  0  0  0  0  0  0  0  0  0
    0.8015    0.7611   -2.0024 C   0  0  0  0  0  0  0  0  0  0  0  0
   -0.6369    0.9082   -1.5855 C   0  0  0  0  0  0  0  0  0  0  0  0
   -0.9550   -0.0881   -0.5532 N   0  0  0  0  0  0  0  0  0  0  0  0
    1.6491   -0.2096   -1.6387 C   0  0  0  0  0  0  0  0  0  0  0  0
    2.8910    0.0217   -2.1678 N   0  0  0  0  0  0  0  0  0  0  0  0
    4.5591    3.5580   -5.0170 N   0  0  0  0  0  0  0  0  0  0  0  0
  1  6  1  0  0  0  0
  2  1  1  0  0  0  0
  2  3  2  0  0  0  0
  3  4  1  0  0  0  0
  4  5  2  0  0  0  0
  4 12  1  0  0  0  0
  5  8  1  0  0  0  0
  6  7  2  0  0  0  0
  6  5  1  0  0  0  0
  8 11  2  0  0  0  0
  8  9  1  0  0  0  0
 10  9  1  0  0  0  0
 12 11  1  0  0  0  0
 13  2  1  0  0  0  0
M  END
>  <CHROM.1>
-170.97939407,112.10070437,1.82809913,1.72596719,-2.93755673,0.82852016,0.26705502
-0.60543157

>  <Name>
lig.pdb

>  <RI>
2.7104e+07

>  <Rbt.Current_Directory>
/home/itssahil/PROJECTS/Mol_Feturizer/New_Systems/rnas/2l1v

>  <Rbt.Executable>
rbdock ($Id: //depot/dev/client3/rdock/2013.1/src/exe/rbdock.cxx#4 $)

>  <Rbt.Library>
libRbt.so (2013.1, Build901 2013/11/27)

>  <Rbt.Parameter_File>
/export/apps/rDock/src/rDock_2013.1_src/data/scripts/dock_solv.prm

>  <Rbt.Receptor>
prm/pocket_docking_8.prm

>  <SCORE>
-56.62

>  <SCORE.INTER>
-57.9742

>  <SCORE.INTER.CONST>
1

>  <SCORE.INTER.POLAR>
-5.52726

>  <SCORE.INTER.ROT>
2

>  <SCORE.INTER.SOLV>
16.2566

>  <SCORE.INTER.VDW>
-30.5774

>  <SCORE.INTER.norm>
-4.45955

>  <SCORE.INTRA>
1.32629

>  <SCORE.INTRA.DIHEDRAL>
0.0757588

>  <SCORE.INTRA.DIHEDRAL.0>
1.43995

>  <SCORE.INTRA.POLAR>
0.272593

>  <SCORE.INTRA.POLAR.0>
-0.272593

>  <SCORE.INTRA.REPUL>
0

>  <SCORE.INTRA.REPUL.0>
0

>  <SCORE.INTRA.SOLV>
-0.492753

>  <SCORE.INTRA.SOLV.lig_0>
-22.6728

>  <SCORE.INTRA.VDW>
0.607976

>  <SCORE.INTRA.VDW.0>
-0.754459

>  <SCORE.INTRA.norm>
0.102023

>  <SCORE.RESTR>
0.0278277

>  <SCORE.RESTR.CAVITY>
0.0278277

>  <SCORE.RESTR.norm>
0.0021406

>  <SCORE.SYSTEM>
0

>  <SCORE.SYSTEM.CONST>
0

>  <SCORE.SYSTEM.DIHEDRAL>
0

>  <SCORE.SYSTEM.SOLV>
0

>  <SCORE.SYSTEM.norm>
0

>  <SCORE.heavy>
13

>  <SCORE.norm>
-4.35539

>  <RMSD>
0.743

$$$$
lig.pdb
 OpenBabel11021811453D
libRbt.so/2013.1/901 2013/11/27
 13 14  0  0  0  0  0  0  0  0999 V2000
    2.2818    3.5878   -4.4014 N   0  0  0  0  0  0  0  0  0  0  0  0
    3.5547    3.0746   -4.4533 C   0  0  0  0  0  0  0  0  0  0  0  0
    3.8558    1.9635   -3.7901 N   0  0  0  0  0  0  0  0  0  0  0  0
    2.9194    1.2992   -3.0443 C   0  0  0  0  0  0  0  0  0  0  0  0
    1.5955    1.7997   -2.9563 C   0  0  0  0  0  0  0  0  0  0  0  0
    1.2887    2.9895   -3.6760 C   0  0  0  0  0  0  0  0  0  0  0  0
    0.1700    3.4696   -3.6521 O   0  0  0  0  0  0  0  0  0  0  0  0
    0.8619    0.8942   -2.0721 C   0  0  0  0  0  0  0  0  0  0  0  0
   -0.5653    1.0327   -1.6158 C   0  0  0  0  0  0  0  0  0  0  0  0
   -0.7249    0.4016   -0.2984 N   0  0  0  0  0  0  0  0  0  0  0  0
    1.7260   -0.0694   -1.7289 C   0  0  0  0  0  0  0  0  0  0  0  0
    2.9512    0.1687   -2.2931 N   0  0  0  0  0  0  0  0  0  0  0  0
    4.5146    3.7065   -5.1991 N   0  0  0  0  0  0  0  0  0  0  0  0
  1  6  1  0  0  0  0
  2  1  1  0  0  0  0
  2  3  2  0  0  0  0
  3  4  1  0  0  0  0
  4  5  2  0  0  0  0
  4 12  1  0  0  0  0
  5  8  1  0  0  0  0
  6  7  2  0  0  0  0
  6  5  1  0  0  0  0
  8 11  2  0  0  0  0
  8  9  1  0  0  0  0
 10  9  1  0  0  0  0
 12 11  1  0  0  0  0
 13  2  1  0  0  0  0
M  END
>  <CHROM.1>
-151.37825308,-73.39382441,1.86647352,1.89682540,-3.01309264,0.84670762,0.31448416
-0.63565588

>  <Name>
lig.pdb

>  <RI>
2.86608e+07

>  <Rbt.Current_Directory>
/home/itssahil/PROJECTS/Mol_Feturizer/New_Systems/rnas/2l1v

>  <Rbt.Executable>
rbdock ($Id: //depot/dev/client3/rdock/2013.1/src/exe/rbdock.cxx#4 $)

>  <Rbt.Library>
libRbt.so (2013.1, Build901 2013/11/27)

>  <Rbt.Parameter_File>
/export/apps/rDock/src/rDock_2013.1_src/data/scripts/dock_solv.prm

>  <Rbt.Receptor>
prm/pocket_docking_7.prm

>  <SCORE>
-56.8504

>  <SCORE.INTER>
-58.5203

>  <SCORE.INTER.CONST>
1

>  <SCORE.INTER.POLAR>
-5.33309

>  <SCORE.INTER.ROT>
2

>  <SCORE.INTER.SOLV>
16.6328

>  <SCORE.INTER.VDW>
-31.7142

>  <SCORE.INTER.norm>
-4.50156

>  <SCORE.INTRA>
1.66988

>  <SCORE.INTRA.DIHEDRAL>
1.0099

>  <SCORE.INTRA.DIHEDRAL.0>
1.43995

>  <SCORE.INTRA.POLAR>
0.272593

>  <SCORE.INTRA.POLAR.0>
-0.272593

>  <SCORE.INTRA.REPUL>
0

>  <SCORE.INTRA.REPUL.0>
0

>  <SCORE.INTRA.SOLV>
-0.506544

>  <SCORE.INTRA.SOLV.lig_0>
-22.6728

>  <SCORE.INTRA.VDW>
0.491384

>  <SCORE.INTRA.VDW.0>
-0.754459

>  <SCORE.INTRA.norm>
0.128452

>  <SCORE.RESTR>
0

>  <SCORE.RESTR.CAVITY>
0

>  <SCORE.RESTR.norm>
0

>  <SCORE.SYSTEM>
0

>  <SCORE.SYSTEM.CONST>
0

>  <SCORE.SYSTEM.DIHEDRAL>
0

>  <SCORE.SYSTEM.SOLV>
0

>  <SCORE.SYSTEM.norm>
0

>  <SCORE.heavy>
13

>  <SCORE.norm>
-4.37311

>  <RMSD>
0.744

$$$$
lig.pdb
 OpenBabel11021811453D
libRbt.so/2013.1/901 2013/11/27
 13 14  0  0  0  0  0  0  0  0999 V2000
    2.3013    3.5625   -4.3637 N   0  0  0  0  0  0  0  0  0  0  0  0
    3.5766    3.0548   -4.4091 C   0  0  0  0  0  0  0  0  0  0  0  0
    3.8761    1.9380   -3.7548 N   0  0  0  0  0  0  0  0  0  0  0  0
    2.9354    1.2622   -3.0248 C   0  0  0  0  0  0  0  0  0  0  0  0
    1.6087    1.7566   -2.9439 C   0  0  0  0  0  0  0  0  0  0  0  0
    1.3039    2.9527   -3.6539 C   0  0  0  0  0  0  0  0  0  0  0  0
    0.1831    3.4282   -3.6355 O   0  0  0  0  0  0  0  0  0  0  0  0
    0.8706    0.8390   -2.0761 C   0  0  0  0  0  0  0  0  0  0  0  0
   -0.5614    0.9671   -1.6318 C   0  0  0  0  0  0  0  0  0  0  0  0
   -0.7338    0.3091   -0.3292 N   0  0  0  0  0  0  0  0  0  0  0  0
    1.7353   -0.1248   -1.7350 C   0  0  0  0  0  0  0  0  0  0  0  0
    2.9647    0.1241   -2.2852 N   0  0  0  0  0  0  0  0  0  0  0  0
    4.5410    3.6983   -5.1392 N   0  0  0  0  0  0  0  0  0  0  0  0
  1  6  1  0  0  0  0
  2  1  1  0  0  0  0
  2  3  2  0  0  0  0
  3  4  1  0  0  0  0
  4  5  2  0  0  0  0
  4 12  1  0  0  0  0
  5  8  1  0  0  0  0
  6  7  2  0  0  0  0
  6  5  1  0  0  0  0
  8 11  2  0  0  0  0
  8  9  1  0  0  0  0
 10  9  1  0  0  0  0
 12 11  1  0  0  0  0
 13  2  1  0  0  0  0
M  END
>  <CHROM.1>
-151.97436431,-66.40975700,1.87953603,1.85421442,-2.99775642,0.84454619,0.30388544
-0.62386637

>  <Name>
lig.pdb

>  <RI>
1.77584e+07

>  <Rbt.Current_Directory>
/home/itssahil/PROJECTS/Mol_Feturizer/New_Systems/rnas/2l1v

>  <Rbt.Executable>
rbdock ($Id: //depot/dev/client3/rdock/2013.1/src/exe/rbdock.cxx#4 $)

>  <Rbt.Library>
libRbt.so (2013.1, Build901 2013/11/27)

>  <Rbt.Parameter_File>
/export/apps/rDock/src/rDock_2013.1_src/data/scripts/dock_solv.prm

>  <Rbt.Receptor>
prm/blind_docking_80.prm

>  <SCORE>
-56.7925

>  <SCORE.INTER>
-58.4648

>  <SCORE.INTER.CONST>
1

>  <SCORE.INTER.POLAR>
-5.4769

>  <SCORE.INTER.ROT>
2

>  <SCORE.INTER.SOLV>
16.4992

>  <SCORE.INTER.VDW>
-31.1533

>  <SCORE.INTER.norm>
-4.4973

>  <SCORE.INTRA>
1.67231

>  <SCORE.INTRA.DIHEDRAL>
0.954336

>  <SCORE.INTRA.DIHEDRAL.0>
1.43995

>  <SCORE.INTRA.POLAR>
0.272593

>  <SCORE.INTRA.POLAR.0>
-0.272593

>  <SCORE.INTRA.REPUL>
0

>  <SCORE.INTRA.REPUL.0>
0

>  <SCORE.INTRA.SOLV>
-0.505455

>  <SCORE.INTRA.SOLV.lig_0>
-22.6728

>  <SCORE.INTRA.VDW>
0.521051

>  <SCORE.INTRA.VDW.0>
-0.754459

>  <SCORE.INTRA.norm>
0.128639

>  <SCORE.RESTR>
0

>  <SCORE.RESTR.CAVITY>
0

>  <SCORE.RESTR.norm>
0

>  <SCORE.SYSTEM>
0

>  <SCORE.SYSTEM.CONST>
0

>  <SCORE.SYSTEM.DIHEDRAL>
0

>  <SCORE.SYSTEM.SOLV>
0

>  <SCORE.SYSTEM.norm>
0

>  <SCORE.heavy>
13

>  <SCORE.norm>
-4.36866

>  <RMSD>
0.745

$$$$
lig.pdb
 OpenBabel11021811453D
libRbt.so/2013.1/901 2013/11/27
 13 14  0  0  0  0  0  0  0  0999 V2000
    2.2932    3.5931   -4.3790 N   0  0  0  0  0  0  0  0  0  0  0  0
    3.5646    3.0766   -4.4340 C   0  0  0  0  0  0  0  0  0  0  0  0
    3.8599    1.9549   -3.7862 N   0  0  0  0  0  0  0  0  0  0  0  0
    2.9188    1.2828   -3.0535 C   0  0  0  0  0  0  0  0  0  0  0  0
    1.5961    1.7863   -2.9627 C   0  0  0  0  0  0  0  0  0  0  0  0
    1.2957    2.9875   -3.6659 C   0  0  0  0  0  0  0  0  0  0  0  0
    0.1784    3.4708   -3.6388 O   0  0  0  0  0  0  0  0  0  0  0  0
    0.8566    0.8702   -2.0944 C   0  0  0  0  0  0  0  0  0  0  0  0
   -0.5718    1.0066   -1.6411 C   0  0  0  0  0  0  0  0  0  0  0  0
   -0.7179    0.4370   -0.2944 N   0  0  0  0  0  0  0  0  0  0  0  0
    1.7164   -0.1011   -1.7625 C   0  0  0  0  0  0  0  0  0  0  0  0
    2.9443    0.1413   -2.3189 N   0  0  0  0  0  0  0  0  0  0  0  0
    4.5292    3.7163   -5.1671 N   0  0  0  0  0  0  0  0  0  0  0  0
  1  6  1  0  0  0  0
  2  1  1  0  0  0  0
  2  3  2  0  0  0  0
  3  4  1  0  0  0  0
  4  5  2  0  0  0  0
  4 12  1  0  0  0  0
  5  8  1  0  0  0  0
  6  7  2  0  0  0  0
  6  5  1  0  0  0  0
  8 11  2  0  0  0  0
  8  9  1  0  0  0  0
 10  9  1  0  0  0  0
 12 11  1  0  0  0  0
 13  2  1  0  0  0  0
M  END
>  <CHROM.1>
-147.58504101,101.48790919,1.86985489,1.89078248,-3.01341362,0.83986861,0.31902539
-0.62271804

>  <Name>
lig.pdb

>  <RI>
0

>  <Rbt.Current_Directory>
/home/itssahil/PROJECTS/Mol_Feturizer/New_Systems/rnas/2l1v

>  <Rbt.Executable>
rbdock ($Id: //depot/dev/client3/rdock/2013.1/src/exe/rbdock.cxx#4 $)

>  <Rbt.Library>
libRbt.so (2013.1, Build901 2013/11/27)

>  <Rbt.Parameter_File>
/export/apps/rDock/src/rDock_2013.1_src/data/scripts/dock_solv.prm

>  <Rbt.Receptor>
prm/pocket_docking_3.prm

>  <SCORE>
-56.8192

>  <SCORE.INTER>
-58.4989

>  <SCORE.INTER.CONST>
1

>  <SCORE.INTER.POLAR>
-5.41473

>  <SCORE.INTER.ROT>
2

>  <SCORE.INTER.SOLV>
16.6896

>  <SCORE.INTER.VDW>
-31.4467

>  <SCORE.INTER.norm>
-4.49991

>  <SCORE.INTRA>
1.67968

>  <SCORE.INTRA.DIHEDRAL>
1.13544

>  <SCORE.INTRA.DIHEDRAL.0>
1.43995

>  <SCORE.INTRA.POLAR>
0.272593

>  <SCORE.INTRA.POLAR.0>
-0.272593

>  <SCORE.INTRA.REPUL>
0

>  <SCORE.INTRA.REPUL.0>
0

>  <SCORE.INTRA.SOLV>
-0.509591

>  <SCORE.INTRA.SOLV.lig_0>
-22.6728

>  <SCORE.INTRA.VDW>
0.439944

>  <SCORE.INTRA.VDW.0>
-0.754459

>  <SCORE.INTRA.norm>
0.129206

>  <SCORE.RESTR>
0

>  <SCORE.RESTR.CAVITY>
0

>  <SCORE.RESTR.norm>
0

>  <SCORE.SYSTEM>
0

>  <SCORE.SYSTEM.CONST>
0

>  <SCORE.SYSTEM.DIHEDRAL>
0

>  <SCORE.SYSTEM.SOLV>
0

>  <SCORE.SYSTEM.norm>
0

>  <SCORE.heavy>
13

>  <SCORE.norm>
-4.37071

>  <RMSD>
0.747

$$$$
lig.pdb
 OpenBabel11021811453D
libRbt.so/2013.1/901 2013/11/27
 13 14  0  0  0  0  0  0  0  0999 V2000
    2.2952    3.5520   -4.3789 N   0  0  0  0  0  0  0  0  0  0  0  0
    3.5730    3.0497   -4.4102 C   0  0  0  0  0  0  0  0  0  0  0  0
    3.8724    1.9397   -3.7443 N   0  0  0  0  0  0  0  0  0  0  0  0
    2.9291    1.2659   -3.0159 C   0  0  0  0  0  0  0  0  0  0  0  0
    1.5996    1.7551   -2.9492 C   0  0  0  0  0  0  0  0  0  0  0  0
    1.2951    2.9438   -3.6716 C   0  0  0  0  0  0  0  0  0  0  0  0
    0.1720    3.4144   -3.6657 O   0  0  0  0  0  0  0  0  0  0  0  0
    0.8590    0.8414   -2.0795 C   0  0  0  0  0  0  0  0  0  0  0  0
   -0.5770    0.9669   -1.6472 C   0  0  0  0  0  0  0  0  0  0  0  0
   -0.7352    0.4107   -0.2963 N   0  0  0  0  0  0  0  0  0  0  0  0
    1.7253   -0.1156   -1.7237 C   0  0  0  0  0  0  0  0  0  0  0  0
    2.9577    0.1341   -2.2666 N   0  0  0  0  0  0  0  0  0  0  0  0
    4.5401    3.6914   -5.1383 N   0  0  0  0  0  0  0  0  0  0  0  0
  1  6  1  0  0  0  0
  2  1  1  0  0  0  0
  2  3  2  0  0  0  0
  3  4  1  0  0  0  0
  4  5  2  0  0  0  0
  4 12  1  0  0  0  0
  5  8  1  0  0  0  0
  6  7  2  0  0  0  0
  6  5  1  0  0  0  0
  8 11  2  0  0  0  0
  8  9  1  0  0  0  0
 10  9  1  0  0  0  0
 12 11  1  0  0  0  0
 13  2  1  0  0  0  0
M  END
>  <CHROM.1>
-147.67109744,101.43607035,1.87280494,1.86196177,-2.99770059,0.84138327,0.30114647
-0.63571128

>  <Name>
lig.pdb

>  <RI>
2.86608e+07

>  <Rbt.Current_Directory>
/home/itssahil/PROJECTS/Mol_Feturizer/New_Systems/rnas/2l1v

>  <Rbt.Executable>
rbdock ($Id: //depot/dev/client3/rdock/2013.1/src/exe/rbdock.cxx#4 $)

>  <Rbt.Library>
libRbt.so (2013.1, Build901 2013/11/27)

>  <Rbt.Parameter_File>
/export/apps/rDock/src/rDock_2013.1_src/data/scripts/dock_solv.prm

>  <Rbt.Receptor>
prm/pocket_docking_7.prm

>  <SCORE>
-56.8575

>  <SCORE.INTER>
-58.5352

>  <SCORE.INTER.CONST>
1

>  <SCORE.INTER.POLAR>
-5.46616

>  <SCORE.INTER.ROT>
2

>  <SCORE.INTER.SOLV>
16.5545

>  <SCORE.INTER.VDW>
-31.2544

>  <SCORE.INTER.norm>
-4.50271

>  <SCORE.INTRA>
1.67774

>  <SCORE.INTRA.DIHEDRAL>
1.13039

>  <SCORE.INTRA.DIHEDRAL.0>
1.43995

>  <SCORE.INTRA.POLAR>
0.272593

>  <SCORE.INTRA.POLAR.0>
-0.272593

>  <SCORE.INTRA.REPUL>
0

>  <SCORE.INTRA.REPUL.0>
0

>  <SCORE.INTRA.SOLV>
-0.509492

>  <SCORE.INTRA.SOLV.lig_0>
-22.6728

>  <SCORE.INTRA.VDW>
0.440479

>  <SCORE.INTRA.VDW.0>
-0.754459

>  <SCORE.INTRA.norm>
0.129057

>  <SCORE.RESTR>
0

>  <SCORE.RESTR.CAVITY>
0

>  <SCORE.RESTR.norm>
0

>  <SCORE.SYSTEM>
0

>  <SCORE.SYSTEM.CONST>
0

>  <SCORE.SYSTEM.DIHEDRAL>
0

>  <SCORE.SYSTEM.SOLV>
0

>  <SCORE.SYSTEM.norm>
0

>  <SCORE.heavy>
13

>  <SCORE.norm>
-4.37365

>  <RMSD>
0.747

$$$$
lig.pdb
 OpenBabel11021811453D
libRbt.so/2013.1/901 2013/11/27
 13 14  0  0  0  0  0  0  0  0999 V2000
    2.2955    3.5548   -4.3744 N   0  0  0  0  0  0  0  0  0  0  0  0
    3.5725    3.0505   -4.4071 C   0  0  0  0  0  0  0  0  0  0  0  0
    3.8702    1.9387   -3.7436 N   0  0  0  0  0  0  0  0  0  0  0  0
    2.9261    1.2649   -3.0162 C   0  0  0  0  0  0  0  0  0  0  0  0
    1.5974    1.7561   -2.9482 C   0  0  0  0  0  0  0  0  0  0  0  0
    1.2946    2.9468   -3.6680 C   0  0  0  0  0  0  0  0  0  0  0  0
    0.1723    3.4192   -3.6608 O   0  0  0  0  0  0  0  0  0  0  0  0
    0.8555    0.8419   -2.0800 C   0  0  0  0  0  0  0  0  0  0  0  0
   -0.5801    0.9688   -1.6470 C   0  0  0  0  0  0  0  0  0  0  0  0
   -0.7299    0.4515   -0.2798 N   0  0  0  0  0  0  0  0  0  0  0  0
    1.7204   -0.1172   -1.7264 C   0  0  0  0  0  0  0  0  0  0  0  0
    2.9531    0.1315   -2.2692 N   0  0  0  0  0  0  0  0  0  0  0  0
    4.5404    3.6921   -5.1342 N   0  0  0  0  0  0  0  0  0  0  0  0
  1  6  1  0  0  0  0
  2  1  1  0  0  0  0
  2  3  2  0  0  0  0
  3  4  1  0  0  0  0
  4  5  2  0  0  0  0
  4 12  1  0  0  0  0
  5  8  1  0  0  0  0
  6  7  2  0  0  0  0
  6  5  1  0  0  0  0
  8 11  2  0  0  0  0
  8  9  1  0  0  0  0
 10  9  1  0  0  0  0
 12 11  1  0  0  0  0
 13  2  1  0  0  0  0
M  END
>  <CHROM.1>
-145.77605524,-77.23176830,1.87121345,1.86651123,-2.99490197,0.83836396,0.30528615
-0.63454080

>  <Name>
lig.pdb

>  <RI>
0

>  <Rbt.Current_Directory>
/home/itssahil/PROJECTS/Mol_Feturizer/New_Systems/rnas/2l1v

>  <Rbt.Executable>
rbdock ($Id: //depot/dev/client3/rdock/2013.1/src/exe/rbdock.cxx#4 $)

>  <Rbt.Library>
libRbt.so (2013.1, Build901 2013/11/27)

>  <Rbt.Parameter_File>
/export/apps/rDock/src/rDock_2013.1_src/data/scripts/dock_solv.prm

>  <Rbt.Receptor>
prm/pocket_docking_3.prm

>  <SCORE>
-56.8124

>  <SCORE.INTER>
-58.5837

>  <SCORE.INTER.CONST>
1

>  <SCORE.INTER.POLAR>
-5.47078

>  <SCORE.INTER.ROT>
2

>  <SCORE.INTER.SOLV>
16.577

>  <SCORE.INTER.VDW>
-31.2789

>  <SCORE.INTER.norm>
-4.50644

>  <SCORE.INTRA>
1.77135

>  <SCORE.INTRA.DIHEDRAL>
1.34082

>  <SCORE.INTRA.DIHEDRAL.0>
1.43995

>  <SCORE.INTRA.POLAR>
0.272593

>  <SCORE.INTRA.POLAR.0>
-0.272593

>  <SCORE.INTRA.REPUL>
0

>  <SCORE.INTRA.REPUL.0>
0

>  <SCORE.INTRA.SOLV>
-0.513121

>  <SCORE.INTRA.SOLV.lig_0>
-22.6728

>  <SCORE.INTRA.VDW>
0.430687

>  <SCORE.INTRA.VDW.0>
-0.754459

>  <SCORE.INTRA.norm>
0.136258

>  <SCORE.RESTR>
0

>  <SCORE.RESTR.CAVITY>
0

>  <SCORE.RESTR.norm>
0

>  <SCORE.SYSTEM>
0

>  <SCORE.SYSTEM.CONST>
0

>  <SCORE.SYSTEM.DIHEDRAL>
0

>  <SCORE.SYSTEM.SOLV>
0

>  <SCORE.SYSTEM.norm>
0

>  <SCORE.heavy>
13

>  <SCORE.norm>
-4.37018

>  <RMSD>
0.750

$$$$
lig.pdb
 OpenBabel11021811453D
libRbt.so/2013.1/901 2013/11/27
 13 14  0  0  0  0  0  0  0  0999 V2000
    2.3025    3.4534   -4.2764 N   0  0  0  0  0  0  0  0  0  0  0  0
    3.5709    2.9274   -4.2991 C   0  0  0  0  0  0  0  0  0  0  0  0
    3.8433    1.8082   -3.6371 N   0  0  0  0  0  0  0  0  0  0  0  0
    2.8810    1.1481   -2.9212 C   0  0  0  0  0  0  0  0  0  0  0  0
    1.5603    1.6617   -2.8637 C   0  0  0  0  0  0  0  0  0  0  0  0
    1.2847    2.8600   -3.5818 C   0  0  0  0  0  0  0  0  0  0  0  0
    0.1706    3.3515   -3.5834 O   0  0  0  0  0  0  0  0  0  0  0  0
    0.7947    0.7572   -2.0061 C   0  0  0  0  0  0  0  0  0  0  0  0
   -0.6425    0.9070   -1.5861 C   0  0  0  0  0  0  0  0  0  0  0  0
   -0.9397   -0.0380   -0.5008 N   0  0  0  0  0  0  0  0  0  0  0  0
    1.6397   -0.2180   -1.6481 C   0  0  0  0  0  0  0  0  0  0  0  0
    2.8816    0.0117   -2.1783 N   0  0  0  0  0  0  0  0  0  0  0  0
    4.5565    3.5550   -5.0146 N   0  0  0  0  0  0  0  0  0  0  0  0
  1  6  1  0  0  0  0
  2  1  1  0  0  0  0
  2  3  2  0  0  0  0
  3  4  1  0  0  0  0
  4  5  2  0  0  0  0
  4 12  1  0  0  0  0
  5  8  1  0  0  0  0
  6  7  2  0  0  0  0
  6  5  1  0  0  0  0
  8 11  2  0  0  0  0
  8  9  1  0  0  0  0
 10  9  1  0  0  0  0
 12 11  1  0  0  0  0
 13  2  1  0  0  0  0
M  END
>  <CHROM.1>
-167.58470053,-67.35033488,1.82467982,1.72787890,-2.93346650,0.82647951,0.27532353
-0.60424006

>  <Name>
lig.pdb

>  <RI>
2.7104e+07

>  <Rbt.Current_Directory>
/home/itssahil/PROJECTS/Mol_Feturizer/New_Systems/rnas/2l1v

>  <Rbt.Executable>
rbdock ($Id: //depot/dev/client3/rdock/2013.1/src/exe/rbdock.cxx#4 $)

>  <Rbt.Library>
libRbt.so (2013.1, Build901 2013/11/27)

>  <Rbt.Parameter_File>
/export/apps/rDock/src/rDock_2013.1_src/data/scripts/dock_solv.prm

>  <Rbt.Receptor>
prm/pocket_docking_8.prm

>  <SCORE>
-56.5008

>  <SCORE.INTER>
-57.908

>  <SCORE.INTER.CONST>
1

>  <SCORE.INTER.POLAR>
-5.51795

>  <SCORE.INTER.ROT>
2

>  <SCORE.INTER.SOLV>
16.2297

>  <SCORE.INTER.VDW>
-30.5554

>  <SCORE.INTER.norm>
-4.45446

>  <SCORE.INTRA>
1.38661

>  <SCORE.INTRA.DIHEDRAL>
0.216521

>  <SCORE.INTRA.DIHEDRAL.0>
1.43995

>  <SCORE.INTRA.POLAR>
0.272593

>  <SCORE.INTRA.POLAR.0>
-0.272593

>  <SCORE.INTRA.REPUL>
0

>  <SCORE.INTRA.REPUL.0>
0

>  <SCORE.INTRA.SOLV>
-0.495005

>  <SCORE.INTRA.SOLV.lig_0>
-22.6728

>  <SCORE.INTRA.VDW>
0.599036

>  <SCORE.INTRA.VDW.0>
-0.754459

>  <SCORE.INTRA.norm>
0.106662

>  <SCORE.RESTR>
0.0206001

>  <SCORE.RESTR.CAVITY>
0.0206001

>  <SCORE.RESTR.norm>
0.00158462

>  <SCORE.SYSTEM>
0

>  <SCORE.SYSTEM.CONST>
0

>  <SCORE.SYSTEM.DIHEDRAL>
0

>  <SCORE.SYSTEM.SOLV>
0

>  <SCORE.SYSTEM.norm>
0

>  <SCORE.heavy>
13

>  <SCORE.norm>
-4.34622

>  <RMSD>
0.750

$$$$
lig.pdb
 OpenBabel11021811453D
libRbt.so/2013.1/901 2013/11/27
 13 14  0  0  0  0  0  0  0  0999 V2000
    2.3009    3.5628   -4.3660 N   0  0  0  0  0  0  0  0  0  0  0  0
    3.5767    3.0560   -4.4072 C   0  0  0  0  0  0  0  0  0  0  0  0
    3.8748    1.9393   -3.7521 N   0  0  0  0  0  0  0  0  0  0  0  0
    2.9323    1.2629   -3.0252 C   0  0  0  0  0  0  0  0  0  0  0  0
    1.6049    1.7564   -2.9485 C   0  0  0  0  0  0  0  0  0  0  0  0
    1.3016    2.9523   -3.6595 C   0  0  0  0  0  0  0  0  0  0  0  0
    0.1804    3.4270   -3.6446 O   0  0  0  0  0  0  0  0  0  0  0  0
    0.8647    0.8382   -2.0832 C   0  0  0  0  0  0  0  0  0  0  0  0
   -0.5688    0.9653   -1.6436 C   0  0  0  0  0  0  0  0  0  0  0  0
   -0.7143    0.4385   -0.2795 N   0  0  0  0  0  0  0  0  0  0  0  0
    1.7289   -0.1251   -1.7394 C   0  0  0  0  0  0  0  0  0  0  0  0
    2.9599    0.1246   -2.2856 N   0  0  0  0  0  0  0  0  0  0  0  0
    4.5430    3.7002   -5.1341 N   0  0  0  0  0  0  0  0  0  0  0  0
  1  6  1  0  0  0  0
  2  1  1  0  0  0  0
  2  3  2  0  0  0  0
  3  4  1  0  0  0  0
  4  5  2  0  0  0  0
  4 12  1  0  0  0  0
  5  8  1  0  0  0  0
  6  7  2  0  0  0  0
  6  5  1  0  0  0  0
  8 11  2  0  0  0  0
  8  9  1  0  0  0  0
 10  9  1  0  0  0  0
 12 11  1  0  0  0  0
 13  2  1  0  0  0  0
M  END
>  <CHROM.1>
-145.81913756,-77.09096973,1.87875336,1.86642350,-2.99571751,0.83915540,0.30977839
-0.62829671

>  <Name>
lig.pdb

>  <RI>
4.02536e+07

>  <Rbt.Current_Directory>
/home/itssahil/PROJECTS/Mol_Feturizer/New_Systems/rnas/2l1v

>  <Rbt.Executable>
rbdock ($Id: //depot/dev/client3/rdock/2013.1/src/exe/rbdock.cxx#4 $)

>  <Rbt.Library>
libRbt.so (2013.1, Build901 2013/11/27)

>  <Rbt.Parameter_File>
/export/apps/rDock/src/rDock_2013.1_src/data/scripts/dock_solv.prm

>  <Rbt.Receptor>
prm/blind_docking_40.prm

>  <SCORE>
-56.8298

>  <SCORE.INTER>
-58.6002

>  <SCORE.INTER.CONST>
1

>  <SCORE.INTER.POLAR>
-5.48801

>  <SCORE.INTER.ROT>
2

>  <SCORE.INTER.SOLV>
16.5794

>  <SCORE.INTER.VDW>
-31.2333

>  <SCORE.INTER.norm>
-4.50771

>  <SCORE.INTRA>
1.77044

>  <SCORE.INTRA.DIHEDRAL>
1.33805

>  <SCORE.INTRA.DIHEDRAL.0>
1.43995

>  <SCORE.INTRA.POLAR>
0.272593

>  <SCORE.INTRA.POLAR.0>
-0.272593

>  <SCORE.INTRA.REPUL>
0

>  <SCORE.INTRA.REPUL.0>
0

>  <SCORE.INTRA.SOLV>
-0.51306

>  <SCORE.INTRA.SOLV.lig_0>
-22.6728

>  <SCORE.INTRA.VDW>
0.431131

>  <SCORE.INTRA.VDW.0>
-0.754459

>  <SCORE.INTRA.norm>
0.136188

>  <SCORE.RESTR>
0

>  <SCORE.RESTR.CAVITY>
0

>  <SCORE.RESTR.norm>
0

>  <SCORE.SYSTEM>
0

>  <SCORE.SYSTEM.CONST>
0

>  <SCORE.SYSTEM.DIHEDRAL>
0

>  <SCORE.SYSTEM.SOLV>
0

>  <SCORE.SYSTEM.norm>
0

>  <SCORE.heavy>
13

>  <SCORE.norm>
-4.37152

>  <RMSD>
0.751

$$$$
lig.pdb
 OpenBabel11021811453D
libRbt.so/2013.1/901 2013/11/27
 13 14  0  0  0  0  0  0  0  0999 V2000
    2.2968    3.5562   -4.3690 N   0  0  0  0  0  0  0  0  0  0  0  0
    3.5733    3.0508   -4.4036 C   0  0  0  0  0  0  0  0  0  0  0  0
    3.8712    1.9389   -3.7402 N   0  0  0  0  0  0  0  0  0  0  0  0
    2.9276    1.2661   -3.0112 C   0  0  0  0  0  0  0  0  0  0  0  0
    1.5995    1.7584   -2.9413 C   0  0  0  0  0  0  0  0  0  0  0  0
    1.2965    2.9491   -3.6610 C   0  0  0  0  0  0  0  0  0  0  0  0
    0.1746    3.4224   -3.6522 O   0  0  0  0  0  0  0  0  0  0  0  0
    0.8582    0.8450   -2.0718 C   0  0  0  0  0  0  0  0  0  0  0  0
   -0.5766    0.9732   -1.6367 C   0  0  0  0  0  0  0  0  0  0  0  0
   -0.7257    0.4516   -0.2709 N   0  0  0  0  0  0  0  0  0  0  0  0
    1.7228   -0.1148   -1.7193 C   0  0  0  0  0  0  0  0  0  0  0  0
    2.9549    0.1329   -2.2640 N   0  0  0  0  0  0  0  0  0  0  0  0
    4.5406    3.6915   -5.1323 N   0  0  0  0  0  0  0  0  0  0  0  0
  1  6  1  0  0  0  0
  2  1  1  0  0  0  0
  2  3  2  0  0  0  0
  3  4  1  0  0  0  0
  4  5  2  0  0  0  0
  4 12  1  0  0  0  0
  5  8  1  0  0  0  0
  6  7  2  0  0  0  0
  6  5  1  0  0  0  0
  8 11  2  0  0  0  0
  8  9  1  0  0  0  0
 10  9  1  0  0  0  0
 12 11  1  0  0  0  0
 13  2  1  0  0  0  0
M  END
>  <CHROM.1>
-145.98918138,100.48673474,1.87355062,1.86811396,-2.98861482,0.83923319,0.30656018
-0.63489211

>  <Name>
lig.pdb

>  <RI>
1.77584e+07

>  <Rbt.Current_Directory>
/home/itssahil/PROJECTS/Mol_Feturizer/New_Systems/rnas/2l1v

>  <Rbt.Executable>
rbdock ($Id: //depot/dev/client3/rdock/2013.1/src/exe/rbdock.cxx#4 $)

>  <Rbt.Library>
libRbt.so (2013.1, Build901 2013/11/27)

>  <Rbt.Parameter_File>
/export/apps/rDock/src/rDock_2013.1_src/data/scripts/dock_solv.prm

>  <Rbt.Receptor>
prm/blind_docking_80.prm

>  <SCORE>
-56.8703

>  <SCORE.INTER>
-58.5814

>  <SCORE.INTER.CONST>
1

>  <SCORE.INTER.POLAR>
-5.47424

>  <SCORE.INTER.ROT>
2

>  <SCORE.INTER.SOLV>
16.561

>  <SCORE.INTER.VDW>
-31.2605

>  <SCORE.INTER.norm>
-4.50626

>  <SCORE.INTRA>
1.71107

>  <SCORE.INTRA.DIHEDRAL>
1.22454

>  <SCORE.INTRA.DIHEDRAL.0>
1.43995

>  <SCORE.INTRA.POLAR>
0.272593

>  <SCORE.INTRA.POLAR.0>
-0.272593

>  <SCORE.INTRA.REPUL>
0

>  <SCORE.INTRA.REPUL.0>
0

>  <SCORE.INTRA.SOLV>
-0.511558

>  <SCORE.INTRA.SOLV.lig_0>
-22.6728

>  <SCORE.INTRA.VDW>
0.427766

>  <SCORE.INTRA.VDW.0>
-0.754459

>  <SCORE.INTRA.norm>
0.131621

>  <SCORE.RESTR>
0

>  <SCORE.RESTR.CAVITY>
0

>  <SCORE.RESTR.norm>
0

>  <SCORE.SYSTEM>
0

>  <SCORE.SYSTEM.CONST>
0

>  <SCORE.SYSTEM.DIHEDRAL>
0

>  <SCORE.SYSTEM.SOLV>
0

>  <SCORE.SYSTEM.norm>
0

>  <SCORE.heavy>
13

>  <SCORE.norm>
-4.37464

>  <RMSD>
0.753

$$$$
lig.pdb
 OpenBabel11021811453D
libRbt.so/2013.1/901 2013/11/27
 13 14  0  0  0  0  0  0  0  0999 V2000
    2.2999    3.5643   -4.3634 N   0  0  0  0  0  0  0  0  0  0  0  0
    3.5754    3.0568   -4.4033 C   0  0  0  0  0  0  0  0  0  0  0  0
    3.8727    1.9410   -3.7464 N   0  0  0  0  0  0  0  0  0  0  0  0
    2.9295    1.2661   -3.0189 C   0  0  0  0  0  0  0  0  0  0  0  0
    1.6024    1.7604   -2.9435 C   0  0  0  0  0  0  0  0  0  0  0  0
    1.3000    2.9554   -3.6564 C   0  0  0  0  0  0  0  0  0  0  0  0
    0.1790    3.4307   -3.6428 O   0  0  0  0  0  0  0  0  0  0  0  0
    0.8612    0.8438   -2.0772 C   0  0  0  0  0  0  0  0  0  0  0  0
   -0.5724    0.9723   -1.6383 C   0  0  0  0  0  0  0  0  0  0  0  0
   -0.7201    0.4414   -0.2761 N   0  0  0  0  0  0  0  0  0  0  0  0
    1.7249   -0.1193   -1.7315 C   0  0  0  0  0  0  0  0  0  0  0  0
    2.9562    0.1290   -2.2776 N   0  0  0  0  0  0  0  0  0  0  0  0
    4.5424    3.6995   -5.1308 N   0  0  0  0  0  0  0  0  0  0  0  0
  1  6  1  0  0  0  0
  2  1  1  0  0  0  0
  2  3  2  0  0  0  0
  3  4  1  0  0  0  0
  4  5  2  0  0  0  0
  4 12  1  0  0  0  0
  5  8  1  0  0  0  0
  6  7  2  0  0  0  0
  6  5  1  0  0  0  0
  8 11  2  0  0  0  0
  8  9  1  0  0  0  0
 10  9  1  0  0  0  0
 12 11  1  0  0  0  0
 13  2  1  0  0  0  0
M  END
>  <CHROM.1>
-146.10556873,101.40661379,1.87648150,1.86962123,-2.99096903,0.83909633,0.30921058
-0.62955481

>  <Name>
lig.pdb

>  <RI>
1.77584e+07

>  <Rbt.Current_Directory>
/home/itssahil/PROJECTS/Mol_Feturizer/New_Systems/rnas/2l1v

>  <Rbt.Executable>
rbdock ($Id: //depot/dev/client3/rdock/2013.1/src/exe/rbdock.cxx#4 $)

>  <Rbt.Library>
libRbt.so (2013.1, Build901 2013/11/27)

>  <Rbt.Parameter_File>
/export/apps/rDock/src/rDock_2013.1_src/data/scripts/dock_solv.prm

>  <Rbt.Receptor>
prm/blind_docking_80.prm

>  <SCORE>
-56.8868

>  <SCORE.INTER>
-58.5974

>  <SCORE.INTER.CONST>
1

>  <SCORE.INTER.POLAR>
-5.48812

>  <SCORE.INTER.ROT>
2

>  <SCORE.INTER.SOLV>
16.5725

>  <SCORE.INTER.VDW>
-31.2287

>  <SCORE.INTER.norm>
-4.50749

>  <SCORE.INTRA>
1.7106

>  <SCORE.INTRA.DIHEDRAL>
1.2198

>  <SCORE.INTRA.DIHEDRAL.0>
1.43995

>  <SCORE.INTRA.POLAR>
0.272593

>  <SCORE.INTRA.POLAR.0>
-0.272593

>  <SCORE.INTRA.REPUL>
0

>  <SCORE.INTRA.REPUL.0>
0

>  <SCORE.INTRA.SOLV>
-0.511373

>  <SCORE.INTRA.SOLV.lig_0>
-22.6728

>  <SCORE.INTRA.VDW>
0.429573

>  <SCORE.INTRA.VDW.0>
-0.754459

>  <SCORE.INTRA.norm>
0.131585

>  <SCORE.RESTR>
0

>  <SCORE.RESTR.CAVITY>
0

>  <SCORE.RESTR.norm>
0

>  <SCORE.SYSTEM>
0

>  <SCORE.SYSTEM.CONST>
0

>  <SCORE.SYSTEM.DIHEDRAL>
0

>  <SCORE.SYSTEM.SOLV>
0

>  <SCORE.SYSTEM.norm>
0

>  <SCORE.heavy>
13

>  <SCORE.norm>
-4.37591

>  <RMSD>
0.753

$$$$
lig.pdb
 OpenBabel11021811453D
libRbt.so/2013.1/901 2013/11/27
 13 14  0  0  0  0  0  0  0  0999 V2000
    2.3016    3.5682   -4.3532 N   0  0  0  0  0  0  0  0  0  0  0  0
    3.5744    3.0547   -4.4013 C   0  0  0  0  0  0  0  0  0  0  0  0
    3.8676    1.9312   -3.7557 N   0  0  0  0  0  0  0  0  0  0  0  0
    2.9229    1.2542   -3.0321 C   0  0  0  0  0  0  0  0  0  0  0  0
    1.5985    1.7545   -2.9486 C   0  0  0  0  0  0  0  0  0  0  0  0
    1.3004    2.9577   -3.6493 C   0  0  0  0  0  0  0  0  0  0  0  0
    0.1819    3.4386   -3.6282 O   0  0  0  0  0  0  0  0  0  0  0  0
    0.8550    0.8336   -2.0890 C   0  0  0  0  0  0  0  0  0  0  0  0
   -0.5768    0.9653   -1.6451 C   0  0  0  0  0  0  0  0  0  0  0  0
   -0.7157    0.4592   -0.2725 N   0  0  0  0  0  0  0  0  0  0  0  0
    1.7146   -0.1371   -1.7547 C   0  0  0  0  0  0  0  0  0  0  0  0
    2.9458    0.1100   -2.3016 N   0  0  0  0  0  0  0  0  0  0  0  0
    4.5427    3.6992   -5.1252 N   0  0  0  0  0  0  0  0  0  0  0  0
  1  6  1  0  0  0  0
  2  1  1  0  0  0  0
  2  3  2  0  0  0  0
  3  4  1  0  0  0  0
  4  5  2  0  0  0  0
  4 12  1  0  0  0  0
  5  8  1  0  0  0  0
  6  7  2  0  0  0  0
  6  5  1  0  0  0  0
  8 11  2  0  0  0  0
  8  9  1  0  0  0  0
 10  9  1  0  0  0  0
 12 11  1  0  0  0  0
 13  2  1  0  0  0  0
M  END
>  <CHROM.1>
-144.42210353,101.15551257,1.87383289,1.86628167,-2.99429535,0.83501190,0.31685082
-0.62041076

>  <Name>
lig.pdb

>  <RI>
0

>  <Rbt.Current_Directory>
/home/itssahil/PROJECTS/Mol_Feturizer/New_Systems/rnas/2l1v

>  <Rbt.Executable>
rbdock ($Id: //depot/dev/client3/rdock/2013.1/src/exe/rbdock.cxx#4 $)

>  <Rbt.Library>
libRbt.so (2013.1, Build901 2013/11/27)

>  <Rbt.Parameter_File>
/export/apps/rDock/src/rDock_2013.1_src/data/scripts/dock_solv.prm

>  <Rbt.Receptor>
prm/pocket_docking_3.prm

>  <SCORE>
-56.8548

>  <SCORE.INTER>
-58.5995

>  <SCORE.INTER.CONST>
1

>  <SCORE.INTER.POLAR>
-5.4933

>  <SCORE.INTER.ROT>
2

>  <SCORE.INTER.SOLV>
16.6154

>  <SCORE.INTER.VDW>
-31.2271

>  <SCORE.INTER.norm>
-4.50766

>  <SCORE.INTRA>
1.74473

>  <SCORE.INTRA.DIHEDRAL>
1.31418

>  <SCORE.INTRA.DIHEDRAL.0>
1.43995

>  <SCORE.INTRA.POLAR>
0.272593

>  <SCORE.INTRA.POLAR.0>
-0.272593

>  <SCORE.INTRA.REPUL>
0

>  <SCORE.INTRA.REPUL.0>
0

>  <SCORE.INTRA.SOLV>
-0.513504

>  <SCORE.INTRA.SOLV.lig_0>
-22.6728

>  <SCORE.INTRA.VDW>
0.417574

>  <SCORE.INTRA.VDW.0>
-0.754459

>  <SCORE.INTRA.norm>
0.13421

>  <SCORE.RESTR>
0

>  <SCORE.RESTR.CAVITY>
0

>  <SCORE.RESTR.norm>
0

>  <SCORE.SYSTEM>
0

>  <SCORE.SYSTEM.CONST>
0

>  <SCORE.SYSTEM.DIHEDRAL>
0

>  <SCORE.SYSTEM.SOLV>
0

>  <SCORE.SYSTEM.norm>
0

>  <SCORE.heavy>
13

>  <SCORE.norm>
-4.37345

>  <RMSD>
0.754

$$$$
lig.pdb
 OpenBabel11021811453D
libRbt.so/2013.1/901 2013/11/27
 13 14  0  0  0  0  0  0  0  0999 V2000
    2.2996    3.5648   -4.3681 N   0  0  0  0  0  0  0  0  0  0  0  0
    3.5747    3.0564   -4.4110 C   0  0  0  0  0  0  0  0  0  0  0  0
    3.8733    1.9418   -3.7526 N   0  0  0  0  0  0  0  0  0  0  0  0
    2.9320    1.2690   -3.0208 C   0  0  0  0  0  0  0  0  0  0  0  0
    1.6055    1.7642   -2.9423 C   0  0  0  0  0  0  0  0  0  0  0  0
    1.3015    2.9579   -3.6567 C   0  0  0  0  0  0  0  0  0  0  0  0
    0.1809    3.4339   -3.6405 O   0  0  0  0  0  0  0  0  0  0  0  0
    0.8665    0.8499   -2.0717 C   0  0  0  0  0  0  0  0  0  0  0  0
   -0.5656    0.9802   -1.6286 C   0  0  0  0  0  0  0  0  0  0  0  0
   -0.7102    0.4483   -0.2664 N   0  0  0  0  0  0  0  0  0  0  0  0
    1.7307   -0.1130   -1.7267 C   0  0  0  0  0  0  0  0  0  0  0  0
    2.9605    0.1334   -2.2772 N   0  0  0  0  0  0  0  0  0  0  0  0
    4.5397    3.6970   -5.1428 N   0  0  0  0  0  0  0  0  0  0  0  0
  1  6  1  0  0  0  0
  2  1  1  0  0  0  0
  2  3  2  0  0  0  0
  3  4  1  0  0  0  0
  4  5  2  0  0  0  0
  4 12  1  0  0  0  0
  5  8  1  0  0  0  0
  6  7  2  0  0  0  0
  6  5  1  0  0  0  0
  8 11  2  0  0  0  0
  8  9  1  0  0  0  0
 10  9  1  0  0  0  0
 12 11  1  0  0  0  0
 13  2  1  0  0  0  0
M  END
>  <CHROM.1>
-146.28563277,-133.78547785,1.87913594,1.87298941,-2.99091676,0.84020927
0.30888427,-0.63411435

>  <Name>
lig.pdb

>  <RI>
2.86608e+07

>  <Rbt.Current_Directory>
/home/itssahil/PROJECTS/Mol_Feturizer/New_Systems/rnas/2l1v

>  <Rbt.Executable>
rbdock ($Id: //depot/dev/client3/rdock/2013.1/src/exe/rbdock.cxx#4 $)

>  <Rbt.Library>
libRbt.so (2013.1, Build901 2013/11/27)

>  <Rbt.Parameter_File>
/export/apps/rDock/src/rDock_2013.1_src/data/scripts/dock_solv.prm

>  <Rbt.Receptor>
prm/pocket_docking_7.prm

>  <SCORE>
-56.6571

>  <SCORE.INTER>
-58.3989

>  <SCORE.INTER.CONST>
1

>  <SCORE.INTER.POLAR>
-5.46389

>  <SCORE.INTER.ROT>
2

>  <SCORE.INTER.SOLV>
16.5561

>  <SCORE.INTER.VDW>
-31.1717

>  <SCORE.INTER.norm>
-4.49222

>  <SCORE.INTRA>
1.74186

>  <SCORE.INTRA.DIHEDRAL>
1.22124

>  <SCORE.INTRA.DIHEDRAL.0>
1.43995

>  <SCORE.INTRA.POLAR>
0.272593

>  <SCORE.INTRA.POLAR.0>
-0.272593

>  <SCORE.INTRA.REPUL>
0

>  <SCORE.INTRA.REPUL.0>
0

>  <SCORE.INTRA.SOLV>
-0.511067

>  <SCORE.INTRA.SOLV.lig_0>
-22.6728

>  <SCORE.INTRA.VDW>
0.459962

>  <SCORE.INTRA.VDW.0>
-0.754459

>  <SCORE.INTRA.norm>
0.133989

>  <SCORE.RESTR>
0

>  <SCORE.RESTR.CAVITY>
0

>  <SCORE.RESTR.norm>
0

>  <SCORE.SYSTEM>
0

>  <SCORE.SYSTEM.CONST>
0

>  <SCORE.SYSTEM.DIHEDRAL>
0

>  <SCORE.SYSTEM.SOLV>
0

>  <SCORE.SYSTEM.norm>
0

>  <SCORE.heavy>
13

>  <SCORE.norm>
-4.35824

>  <RMSD>
0.754

$$$$
lig.pdb
 OpenBabel11021811453D
libRbt.so/2013.1/901 2013/11/27
 13 14  0  0  0  0  0  0  0  0999 V2000
    2.2942    3.5443   -4.3697 N   0  0  0  0  0  0  0  0  0  0  0  0
    3.5718    3.0414   -4.3973 C   0  0  0  0  0  0  0  0  0  0  0  0
    3.8702    1.9349   -3.7252 N   0  0  0  0  0  0  0  0  0  0  0  0
    2.9261    1.2654   -2.9938 C   0  0  0  0  0  0  0  0  0  0  0  0
    1.5968    1.7554   -2.9309 C   0  0  0  0  0  0  0  0  0  0  0  0
    1.2932    2.9403   -3.6600 C   0  0  0  0  0  0  0  0  0  0  0  0
    0.1704    3.4113   -3.6575 O   0  0  0  0  0  0  0  0  0  0  0  0
    0.8551    0.8467   -2.0568 C   0  0  0  0  0  0  0  0  0  0  0  0
   -0.5811    0.9750   -1.6264 C   0  0  0  0  0  0  0  0  0  0  0  0
   -0.7437    0.4124   -0.2786 N   0  0  0  0  0  0  0  0  0  0  0  0
    1.7208   -0.1087   -1.6952 C   0  0  0  0  0  0  0  0  0  0  0  0
    2.9538    0.1376   -2.2384 N   0  0  0  0  0  0  0  0  0  0  0  0
    4.5398    3.6788   -5.1280 N   0  0  0  0  0  0  0  0  0  0  0  0
  1  6  1  0  0  0  0
  2  1  1  0  0  0  0
  2  3  2  0  0  0  0
  3  4  1  0  0  0  0
  4  5  2  0  0  0  0
  4 12  1  0  0  0  0
  5  8  1  0  0  0  0
  6  7  2  0  0  0  0
  6  5  1  0  0  0  0
  8 11  2  0  0  0  0
  8  9  1  0  0  0  0
 10  9  1  0  0  0  0
 12 11  1  0  0  0  0
 13  2  1  0  0  0  0
M  END
>  <CHROM.1>
-148.30707645,101.35426545,1.86976232,1.86062077,-2.98029150,0.84102672,0.29976568
-0.64039735

>  <Name>
lig.pdb

>  <RI>
2.86608e+07

>  <Rbt.Current_Directory>
/home/itssahil/PROJECTS/Mol_Feturizer/New_Systems/rnas/2l1v

>  <Rbt.Executable>
rbdock ($Id: //depot/dev/client3/rdock/2013.1/src/exe/rbdock.cxx#4 $)

>  <Rbt.Library>
libRbt.so (2013.1, Build901 2013/11/27)

>  <Rbt.Parameter_File>
/export/apps/rDock/src/rDock_2013.1_src/data/scripts/dock_solv.prm

>  <Rbt.Receptor>
prm/pocket_docking_7.prm

>  <SCORE>
-56.8304

>  <SCORE.INTER>
-58.512

>  <SCORE.INTER.CONST>
1

>  <SCORE.INTER.POLAR>
-5.46613

>  <SCORE.INTER.ROT>
2

>  <SCORE.INTER.SOLV>
16.4896

>  <SCORE.INTER.VDW>
-31.2174

>  <SCORE.INTER.norm>
-4.50092

>  <SCORE.INTRA>
1.68158

>  <SCORE.INTRA.DIHEDRAL>
1.09368

>  <SCORE.INTRA.DIHEDRAL.0>
1.43995

>  <SCORE.INTRA.POLAR>
0.272593

>  <SCORE.INTRA.POLAR.0>
-0.272593

>  <SCORE.INTRA.REPUL>
0

>  <SCORE.INTRA.REPUL.0>
0

>  <SCORE.INTRA.SOLV>
-0.508757

>  <SCORE.INTRA.SOLV.lig_0>
-22.6728

>  <SCORE.INTRA.VDW>
0.462308

>  <SCORE.INTRA.VDW.0>
-0.754459

>  <SCORE.INTRA.norm>
0.129353

>  <SCORE.RESTR>
0

>  <SCORE.RESTR.CAVITY>
0

>  <SCORE.RESTR.norm>
0

>  <SCORE.SYSTEM>
0

>  <SCORE.SYSTEM.CONST>
0

>  <SCORE.SYSTEM.DIHEDRAL>
0

>  <SCORE.SYSTEM.SOLV>
0

>  <SCORE.SYSTEM.norm>
0

>  <SCORE.heavy>
13

>  <SCORE.norm>
-4.37157

>  <RMSD>
0.754

$$$$
lig.pdb
 OpenBabel11021811453D
libRbt.so/2013.1/901 2013/11/27
 13 14  0  0  0  0  0  0  0  0999 V2000
    2.2943    3.5383   -4.3862 N   0  0  0  0  0  0  0  0  0  0  0  0
    3.5764    3.0463   -4.4030 C   0  0  0  0  0  0  0  0  0  0  0  0
    3.8814    1.9494   -3.7183 N   0  0  0  0  0  0  0  0  0  0  0  0
    2.9400    1.2791   -2.9844 C   0  0  0  0  0  0  0  0  0  0  0  0
    1.6061    1.7580   -2.9323 C   0  0  0  0  0  0  0  0  0  0  0  0
    1.2955    2.9327   -3.6748 C   0  0  0  0  0  0  0  0  0  0  0  0
    0.1686    3.3939   -3.6821 O   0  0  0  0  0  0  0  0  0  0  0  0
    0.8684    0.8519   -2.0523 C   0  0  0  0  0  0  0  0  0  0  0  0
   -0.5708    0.9719   -1.6296 C   0  0  0  0  0  0  0  0  0  0  0  0
   -0.7288    0.4490   -0.2654 N   0  0  0  0  0  0  0  0  0  0  0  0
    1.7408   -0.0922   -1.6771 C   0  0  0  0  0  0  0  0  0  0  0  0
    2.9740    0.1594   -2.2173 N   0  0  0  0  0  0  0  0  0  0  0  0
    4.5420    3.6847   -5.1360 N   0  0  0  0  0  0  0  0  0  0  0  0
  1  6  1  0  0  0  0
  2  1  1  0  0  0  0
  2  3  2  0  0  0  0
  3  4  1  0  0  0  0
  4  5  2  0  0  0  0
  4 12  1  0  0  0  0
  5  8  1  0  0  0  0
  6  7  2  0  0  0  0
  6  5  1  0  0  0  0
  8 11  2  0  0  0  0
  8  9  1  0  0  0  0
 10  9  1  0  0  0  0
 12 11  1  0  0  0  0
 13  2  1  0  0  0  0
M  END
>  <CHROM.1>
-147.05541472,100.56289145,1.87888868,1.86770691,-2.98052856,0.84463446,0.29276358
-0.65287171

>  <Name>
lig.pdb

>  <RI>
0

>  <Rbt.Current_Directory>
/home/itssahil/PROJECTS/Mol_Feturizer/New_Systems/rnas/2l1v

>  <Rbt.Executable>
rbdock ($Id: //depot/dev/client3/rdock/2013.1/src/exe/rbdock.cxx#4 $)

>  <Rbt.Library>
libRbt.so (2013.1, Build901 2013/11/27)

>  <Rbt.Parameter_File>
/export/apps/rDock/src/rDock_2013.1_src/data/scripts/dock_solv.prm

>  <Rbt.Receptor>
prm/pocket_docking_3.prm

>  <SCORE>
-56.8241

>  <SCORE.INTER>
-58.513

>  <SCORE.INTER.CONST>
1

>  <SCORE.INTER.POLAR>
-5.47201

>  <SCORE.INTER.ROT>
2

>  <SCORE.INTER.SOLV>
16.4867

>  <SCORE.INTER.VDW>
-31.1975

>  <SCORE.INTER.norm>
-4.501

>  <SCORE.INTRA>
1.68887

>  <SCORE.INTRA.DIHEDRAL>
1.16389

>  <SCORE.INTRA.DIHEDRAL.0>
1.43995

>  <SCORE.INTRA.POLAR>
0.272593

>  <SCORE.INTRA.POLAR.0>
-0.272593

>  <SCORE.INTRA.REPUL>
0

>  <SCORE.INTRA.REPUL.0>
0

>  <SCORE.INTRA.SOLV>
-0.51026

>  <SCORE.INTRA.SOLV.lig_0>
-22.6728

>  <SCORE.INTRA.VDW>
0.43524

>  <SCORE.INTRA.VDW.0>
-0.754459

>  <SCORE.INTRA.norm>
0.129913

>  <SCORE.RESTR>
0

>  <SCORE.RESTR.CAVITY>
0

>  <SCORE.RESTR.norm>
0

>  <SCORE.SYSTEM>
0

>  <SCORE.SYSTEM.CONST>
0

>  <SCORE.SYSTEM.DIHEDRAL>
0

>  <SCORE.SYSTEM.SOLV>
0

>  <SCORE.SYSTEM.norm>
0

>  <SCORE.heavy>
13

>  <SCORE.norm>
-4.37108

>  <RMSD>
0.755

$$$$
lig.pdb
 OpenBabel11021811453D
libRbt.so/2013.1/901 2013/11/27
 13 14  0  0  0  0  0  0  0  0999 V2000
    2.3031    3.4505   -4.2850 N   0  0  0  0  0  0  0  0  0  0  0  0
    3.5737    2.9294   -4.3022 C   0  0  0  0  0  0  0  0  0  0  0  0
    3.8490    1.8146   -3.6340 N   0  0  0  0  0  0  0  0  0  0  0  0
    2.8876    1.1542   -2.9171 C   0  0  0  0  0  0  0  0  0  0  0  0
    1.5648    1.6628   -2.8652 C   0  0  0  0  0  0  0  0  0  0  0  0
    1.2861    2.8565   -3.5899 C   0  0  0  0  0  0  0  0  0  0  0  0
    0.1701    3.3436   -3.5964 O   0  0  0  0  0  0  0  0  0  0  0  0
    0.8008    0.7595   -2.0049 C   0  0  0  0  0  0  0  0  0  0  0  0
   -0.6380    0.9058   -1.5890 C   0  0  0  0  0  0  0  0  0  0  0  0
   -0.9120    0.0252   -0.4449 N   0  0  0  0  0  0  0  0  0  0  0  0
    1.6488   -0.2105   -1.6402 C   0  0  0  0  0  0  0  0  0  0  0  0
    2.8910    0.0215   -2.1686 N   0  0  0  0  0  0  0  0  0  0  0  0
    4.5584    3.5574   -5.0185 N   0  0  0  0  0  0  0  0  0  0  0  0
  1  6  1  0  0  0  0
  2  1  1  0  0  0  0
  2  3  2  0  0  0  0
  3  4  1  0  0  0  0
  4  5  2  0  0  0  0
  4 12  1  0  0  0  0
  5  8  1  0  0  0  0
  6  7  2  0  0  0  0
  6  5  1  0  0  0  0
  8 11  2  0  0  0  0
  8  9  1  0  0  0  0
 10  9  1  0  0  0  0
 12 11  1  0  0  0  0
 13  2  1  0  0  0  0
M  END
>  <CHROM.1>
-164.08985955,-69.96562302,1.83110500,1.73537235,-2.92957995,0.82829412,0.27627418
-0.61361377

>  <Name>
lig.pdb

>  <RI>
2.50021e+07

>  <Rbt.Current_Directory>
/home/itssahil/PROJECTS/Mol_Feturizer/New_Systems/rnas/2l1v

>  <Rbt.Executable>
rbdock ($Id: //depot/dev/client3/rdock/2013.1/src/exe/rbdock.cxx#4 $)

>  <Rbt.Library>
libRbt.so (2013.1, Build901 2013/11/27)

>  <Rbt.Parameter_File>
/export/apps/rDock/src/rDock_2013.1_src/data/scripts/dock_solv.prm

>  <Rbt.Receptor>
prm/pocket_docking_5.prm

>  <SCORE>
-56.5181

>  <SCORE.INTER>
-57.9825

>  <SCORE.INTER.CONST>
1

>  <SCORE.INTER.POLAR>
-5.5243

>  <SCORE.INTER.ROT>
2

>  <SCORE.INTER.SOLV>
16.1681

>  <SCORE.INTER.VDW>
-30.5634

>  <SCORE.INTER.norm>
-4.4602

>  <SCORE.INTRA>
1.43534

>  <SCORE.INTRA.DIHEDRAL>
0.353534

>  <SCORE.INTRA.DIHEDRAL.0>
1.43995

>  <SCORE.INTRA.POLAR>
0.272593

>  <SCORE.INTRA.POLAR.0>
-0.272593

>  <SCORE.INTRA.REPUL>
0

>  <SCORE.INTRA.REPUL.0>
0

>  <SCORE.INTRA.SOLV>
-0.496612

>  <SCORE.INTRA.SOLV.lig_0>
-22.6728

>  <SCORE.INTRA.VDW>
0.580066

>  <SCORE.INTRA.VDW.0>
-0.754459

>  <SCORE.INTRA.norm>
0.110411

>  <SCORE.RESTR>
0.0291491

>  <SCORE.RESTR.CAVITY>
0.0291491

>  <SCORE.RESTR.norm>
0.00224224

>  <SCORE.SYSTEM>
0

>  <SCORE.SYSTEM.CONST>
0

>  <SCORE.SYSTEM.DIHEDRAL>
0

>  <SCORE.SYSTEM.SOLV>
0

>  <SCORE.SYSTEM.norm>
0

>  <SCORE.heavy>
13

>  <SCORE.norm>
-4.34754

>  <RMSD>
0.756

$$$$
lig.pdb
 OpenBabel11021811453D
libRbt.so/2013.1/901 2013/11/27
 13 14  0  0  0  0  0  0  0  0999 V2000
    2.3036    3.4528   -4.2812 N   0  0  0  0  0  0  0  0  0  0  0  0
    3.5734    2.9298   -4.3013 C   0  0  0  0  0  0  0  0  0  0  0  0
    3.8481    1.8136   -3.6354 N   0  0  0  0  0  0  0  0  0  0  0  0
    2.8869    1.1534   -2.9179 C   0  0  0  0  0  0  0  0  0  0  0  0
    1.5650    1.6639   -2.8630 C   0  0  0  0  0  0  0  0  0  0  0  0
    1.2868    2.8592   -3.5853 C   0  0  0  0  0  0  0  0  0  0  0  0
    0.1716    3.3479   -3.5892 O   0  0  0  0  0  0  0  0  0  0  0  0
    0.8011    0.7604   -2.0028 C   0  0  0  0  0  0  0  0  0  0  0  0
   -0.6368    0.9081   -1.5843 C   0  0  0  0  0  0  0  0  0  0  0  0
   -0.9113    0.0233   -0.4436 N   0  0  0  0  0  0  0  0  0  0  0  0
    1.6482   -0.2114   -1.6410 C   0  0  0  0  0  0  0  0  0  0  0  0
    2.8899    0.0195   -2.1712 N   0  0  0  0  0  0  0  0  0  0  0  0
    4.5578    3.5575   -5.0183 N   0  0  0  0  0  0  0  0  0  0  0  0
  1  6  1  0  0  0  0
  2  1  1  0  0  0  0
  2  3  2  0  0  0  0
  3  4  1  0  0  0  0
  4  5  2  0  0  0  0
  4 12  1  0  0  0  0
  5  8  1  0  0  0  0
  6  7  2  0  0  0  0
  6  5  1  0  0  0  0
  8 11  2  0  0  0  0
  8  9  1  0  0  0  0
 10  9  1  0  0  0  0
 12 11  1  0  0  0  0
 13  2  1  0  0  0  0
M  END
>  <CHROM.1>
-164.25229745,-71.99407805,1.83118827,1.73591225,-2.92788734,0.82808164,0.27815602
-0.61183387

>  <Name>
lig.pdb

>  <RI>
4.17264e+07

>  <Rbt.Current_Directory>
/home/itssahil/PROJECTS/Mol_Feturizer/New_Systems/rnas/2l1v

>  <Rbt.Executable>
rbdock ($Id: //depot/dev/client3/rdock/2013.1/src/exe/rbdock.cxx#4 $)

>  <Rbt.Library>
libRbt.so (2013.1, Build901 2013/11/27)

>  <Rbt.Parameter_File>
/export/apps/rDock/src/rDock_2013.1_src/data/scripts/dock_solv.prm

>  <Rbt.Receptor>
prm/blind_docking_20.prm

>  <SCORE>
-56.5181

>  <SCORE.INTER>
-57.9774

>  <SCORE.INTER.CONST>
1

>  <SCORE.INTER.POLAR>
-5.52439

>  <SCORE.INTER.ROT>
2

>  <SCORE.INTER.SOLV>
16.1696

>  <SCORE.INTER.VDW>
-30.5602

>  <SCORE.INTER.norm>
-4.4598

>  <SCORE.INTRA>
1.43192

>  <SCORE.INTRA.DIHEDRAL>
0.35305

>  <SCORE.INTRA.DIHEDRAL.0>
1.43995

>  <SCORE.INTRA.POLAR>
0.272593

>  <SCORE.INTRA.POLAR.0>
-0.272593

>  <SCORE.INTRA.REPUL>
0

>  <SCORE.INTRA.REPUL.0>
0

>  <SCORE.INTRA.SOLV>
-0.49666

>  <SCORE.INTRA.SOLV.lig_0>
-22.6728

>  <SCORE.INTRA.VDW>
0.576911

>  <SCORE.INTRA.VDW.0>
-0.754459

>  <SCORE.INTRA.norm>
0.110148

>  <SCORE.RESTR>
0.0273331

>  <SCORE.RESTR.CAVITY>
0.0273331

>  <SCORE.RESTR.norm>
0.00210255

>  <SCORE.SYSTEM>
0

>  <SCORE.SYSTEM.CONST>
0

>  <SCORE.SYSTEM.DIHEDRAL>
0

>  <SCORE.SYSTEM.SOLV>
0

>  <SCORE.SYSTEM.norm>
0

>  <SCORE.heavy>
13

>  <SCORE.norm>
-4.34755

>  <RMSD>
0.757

$$$$
lig.pdb
 OpenBabel11021811453D
libRbt.so/2013.1/901 2013/11/27
 13 14  0  0  0  0  0  0  0  0999 V2000
    2.3094    3.5782   -4.3286 N   0  0  0  0  0  0  0  0  0  0  0  0
    3.5780    3.0556   -4.3910 C   0  0  0  0  0  0  0  0  0  0  0  0
    3.8661    1.9211   -3.7627 N   0  0  0  0  0  0  0  0  0  0  0  0
    2.9202    1.2414   -3.0432 C   0  0  0  0  0  0  0  0  0  0  0  0
    1.6002    1.7507   -2.9452 C   0  0  0  0  0  0  0  0  0  0  0  0
    1.3075    2.9658   -3.6275 C   0  0  0  0  0  0  0  0  0  0  0  0
    0.1929    3.4548   -3.5934 O   0  0  0  0  0  0  0  0  0  0  0  0
    0.8544    0.8237   -2.0942 C   0  0  0  0  0  0  0  0  0  0  0  0
   -0.5738    0.9601   -1.6404 C   0  0  0  0  0  0  0  0  0  0  0  0
   -0.7088    0.4365   -0.2739 N   0  0  0  0  0  0  0  0  0  0  0  0
    1.7083   -0.1582   -1.7783 C   0  0  0  0  0  0  0  0  0  0  0  0
    2.9383    0.0871   -2.3287 N   0  0  0  0  0  0  0  0  0  0  0  0
    4.5472    3.7027   -5.1115 N   0  0  0  0  0  0  0  0  0  0  0  0
  1  6  1  0  0  0  0
  2  1  1  0  0  0  0
  2  3  2  0  0  0  0
  3  4  1  0  0  0  0
  4  5  2  0  0  0  0
  4 12  1  0  0  0  0
  5  8  1  0  0  0  0
  6  7  2  0  0  0  0
  6  5  1  0  0  0  0
  8 11  2  0  0  0  0
  8  9  1  0  0  0  0
 10  9  1  0  0  0  0
 12 11  1  0  0  0  0
 13  2  1  0  0  0  0
M  END
>  <CHROM.1>
-144.40536089,-74.99189683,1.87578825,1.86096884,-2.99095355,0.83133492,0.32610022
-0.60536116

>  <Name>
lig.pdb

>  <RI>
2.86608e+07

>  <Rbt.Current_Directory>
/home/itssahil/PROJECTS/Mol_Feturizer/New_Systems/rnas/2l1v

>  <Rbt.Executable>
rbdock ($Id: //depot/dev/client3/rdock/2013.1/src/exe/rbdock.cxx#4 $)

>  <Rbt.Library>
libRbt.so (2013.1, Build901 2013/11/27)

>  <Rbt.Parameter_File>
/export/apps/rDock/src/rDock_2013.1_src/data/scripts/dock_solv.prm

>  <Rbt.Receptor>
prm/pocket_docking_7.prm

>  <SCORE>
-56.7978

>  <SCORE.INTER>
-58.5971

>  <SCORE.INTER.CONST>
1

>  <SCORE.INTER.POLAR>
-5.52212

>  <SCORE.INTER.ROT>
2

>  <SCORE.INTER.SOLV>
16.6161

>  <SCORE.INTER.VDW>
-31.1297

>  <SCORE.INTER.norm>
-4.50747

>  <SCORE.INTRA>
1.79929

>  <SCORE.INTRA.DIHEDRAL>
1.41247

>  <SCORE.INTRA.DIHEDRAL.0>
1.43995

>  <SCORE.INTRA.POLAR>
0.272593

>  <SCORE.INTRA.POLAR.0>
-0.272593

>  <SCORE.INTRA.REPUL>
0

>  <SCORE.INTRA.REPUL.0>
0

>  <SCORE.INTRA.SOLV>
-0.514711

>  <SCORE.INTRA.SOLV.lig_0>
-22.6728

>  <SCORE.INTRA.VDW>
0.423598

>  <SCORE.INTRA.VDW.0>
-0.754459

>  <SCORE.INTRA.norm>
0.138407

>  <SCORE.RESTR>
0

>  <SCORE.RESTR.CAVITY>
0

>  <SCORE.RESTR.norm>
0

>  <SCORE.SYSTEM>
0

>  <SCORE.SYSTEM.CONST>
0

>  <SCORE.SYSTEM.DIHEDRAL>
0

>  <SCORE.SYSTEM.SOLV>
0

>  <SCORE.SYSTEM.norm>
0

>  <SCORE.heavy>
13

>  <SCORE.norm>
-4.36906

>  <RMSD>
0.757

$$$$
lig.pdb
 OpenBabel11021811453D
libRbt.so/2013.1/901 2013/11/27
 13 14  0  0  0  0  0  0  0  0999 V2000
    2.3044    3.4575   -4.2752 N   0  0  0  0  0  0  0  0  0  0  0  0
    3.5732    2.9322   -4.2991 C   0  0  0  0  0  0  0  0  0  0  0  0
    3.8470    1.8137   -3.6367 N   0  0  0  0  0  0  0  0  0  0  0  0
    2.8859    1.1534   -2.9192 C   0  0  0  0  0  0  0  0  0  0  0  0
    1.5651    1.6663   -2.8605 C   0  0  0  0  0  0  0  0  0  0  0  0
    1.2878    2.8640   -3.5791 C   0  0  0  0  0  0  0  0  0  0  0  0
    0.1735    3.3548   -3.5795 O   0  0  0  0  0  0  0  0  0  0  0  0
    0.8011    0.7618   -2.0014 C   0  0  0  0  0  0  0  0  0  0  0  0
   -0.6357    0.9112   -1.5797 C   0  0  0  0  0  0  0  0  0  0  0  0
   -0.9101    0.0228   -0.4418 N   0  0  0  0  0  0  0  0  0  0  0  0
    1.6470   -0.2125   -1.6437 C   0  0  0  0  0  0  0  0  0  0  0  0
    2.8881    0.0175   -2.1756 N   0  0  0  0  0  0  0  0  0  0  0  0
    4.5575    3.5599   -5.0162 N   0  0  0  0  0  0  0  0  0  0  0  0
  1  6  1  0  0  0  0
  2  1  1  0  0  0  0
  2  3  2  0  0  0  0
  3  4  1  0  0  0  0
  4  5  2  0  0  0  0
  4 12  1  0  0  0  0
  5  8  1  0  0  0  0
  6  7  2  0  0  0  0
  6  5  1  0  0  0  0
  8 11  2  0  0  0  0
  8  9  1  0  0  0  0
 10  9  1  0  0  0  0
 12 11  1  0  0  0  0
 13  2  1  0  0  0  0
M  END
>  <CHROM.1>
-164.30682962,109.30971248,1.83160999,1.73780504,-2.92570598,0.82797127,0.28076784
-0.60904264

>  <Name>
lig.pdb

>  <RI>
2.05237e+07

>  <Rbt.Current_Directory>
/home/itssahil/PROJECTS/Mol_Feturizer/New_Systems/rnas/2l1v

>  <Rbt.Executable>
rbdock ($Id: //depot/dev/client3/rdock/2013.1/src/exe/rbdock.cxx#4 $)

>  <Rbt.Library>
libRbt.so (2013.1, Build901 2013/11/27)

>  <Rbt.Parameter_File>
/export/apps/rDock/src/rDock_2013.1_src/data/scripts/dock_solv.prm

>  <Rbt.Receptor>
prm/blind_docking_100.prm

>  <SCORE>
-56.5384

>  <SCORE.INTER>
-57.9667

>  <SCORE.INTER.CONST>
1

>  <SCORE.INTER.POLAR>
-5.52671

>  <SCORE.INTER.ROT>
2

>  <SCORE.INTER.SOLV>
16.171

>  <SCORE.INTER.VDW>
-30.5458

>  <SCORE.INTER.norm>
-4.45898

>  <SCORE.INTRA>
1.40085

>  <SCORE.INTRA.DIHEDRAL>
0.282902

>  <SCORE.INTRA.DIHEDRAL.0>
1.43995

>  <SCORE.INTRA.POLAR>
0.272593

>  <SCORE.INTRA.POLAR.0>
-0.272593

>  <SCORE.INTRA.REPUL>
0

>  <SCORE.INTRA.REPUL.0>
0

>  <SCORE.INTRA.SOLV>
-0.495125

>  <SCORE.INTRA.SOLV.lig_0>
-22.6728

>  <SCORE.INTRA.VDW>
0.580151

>  <SCORE.INTRA.VDW.0>
-0.754459

>  <SCORE.INTRA.norm>
0.107758

>  <SCORE.RESTR>
0.0275048

>  <SCORE.RESTR.CAVITY>
0.0275048

>  <SCORE.RESTR.norm>
0.00211576

>  <SCORE.SYSTEM>
0

>  <SCORE.SYSTEM.CONST>
0

>  <SCORE.SYSTEM.DIHEDRAL>
0

>  <SCORE.SYSTEM.SOLV>
0

>  <SCORE.SYSTEM.norm>
0

>  <SCORE.heavy>
13

>  <SCORE.norm>
-4.3491

>  <RMSD>
0.758

$$$$
lig.pdb
 OpenBabel11021811453D
libRbt.so/2013.1/901 2013/11/27
 13 14  0  0  0  0  0  0  0  0999 V2000
    2.3280    3.5487   -4.3123 N   0  0  0  0  0  0  0  0  0  0  0  0
    3.6019    3.0370   -4.3488 C   0  0  0  0  0  0  0  0  0  0  0  0
    3.8871    1.9053   -3.7139 N   0  0  0  0  0  0  0  0  0  0  0  0
    2.9328    1.2179   -3.0131 C   0  0  0  0  0  0  0  0  0  0  0  0
    1.6068    1.7159   -2.9421 C   0  0  0  0  0  0  0  0  0  0  0  0
    1.3174    2.9280   -3.6311 C   0  0  0  0  0  0  0  0  0  0  0  0
    0.1982    3.4074   -3.6198 O   0  0  0  0  0  0  0  0  0  0  0  0
    0.8519    0.7830   -2.1056 C   0  0  0  0  0  0  0  0  0  0  0  0
   -0.5863    0.9074   -1.6808 C   0  0  0  0  0  0  0  0  0  0  0  0
   -0.7391    0.4089   -0.3068 N   0  0  0  0  0  0  0  0  0  0  0  0
    1.7077   -0.1913   -1.7718 C   0  0  0  0  0  0  0  0  0  0  0  0
    2.9464    0.0642   -2.2976 N   0  0  0  0  0  0  0  0  0  0  0  0
    4.5799    3.6920   -5.0500 N   0  0  0  0  0  0  0  0  0  0  0  0
  1  6  1  0  0  0  0
  2  1  1  0  0  0  0
  2  3  2  0  0  0  0
  3  4  1  0  0  0  0
  4  5  2  0  0  0  0
  4 12  1  0  0  0  0
  5  8  1  0  0  0  0
  6  7  2  0  0  0  0
  6  5  1  0  0  0  0
  8 11  2  0  0  0  0
  8  9  1  0  0  0  0
 10  9  1  0  0  0  0
 12 11  1  0  0  0  0
 13  2  1  0  0  0  0
M  END
>  <CHROM.1>
-143.24796726,99.01241516,1.88307764,1.83087065,-2.98139831,0.82618622,0.30612997
-0.60552374

>  <Name>
lig.pdb

>  <RI>
1.75485e+07

>  <Rbt.Current_Directory>
/home/itssahil/PROJECTS/Mol_Feturizer/New_Systems/rnas/2l1v

>  <Rbt.Executable>
rbdock ($Id: //depot/dev/client3/rdock/2013.1/src/exe/rbdock.cxx#4 $)

>  <Rbt.Library>
libRbt.so (2013.1, Build901 2013/11/27)

>  <Rbt.Parameter_File>
/export/apps/rDock/src/rDock_2013.1_src/data/scripts/dock_solv.prm

>  <Rbt.Receptor>
prm/pocket_docking_4.prm

>  <SCORE>
-56.8229

>  <SCORE.INTER>
-58.6009

>  <SCORE.INTER.CONST>
1

>  <SCORE.INTER.POLAR>
-5.66661

>  <SCORE.INTER.ROT>
2

>  <SCORE.INTER.SOLV>
16.5362

>  <SCORE.INTER.VDW>
-30.6239

>  <SCORE.INTER.norm>
-4.50776

>  <SCORE.INTRA>
1.7642

>  <SCORE.INTRA.DIHEDRAL>
1.37509

>  <SCORE.INTRA.DIHEDRAL.0>
1.43995

>  <SCORE.INTRA.POLAR>
0.272593

>  <SCORE.INTRA.POLAR.0>
-0.272593

>  <SCORE.INTRA.REPUL>
0

>  <SCORE.INTRA.REPUL.0>
0

>  <SCORE.INTRA.SOLV>
-0.515135

>  <SCORE.INTRA.SOLV.lig_0>
-22.6728

>  <SCORE.INTRA.VDW>
0.407405

>  <SCORE.INTRA.VDW.0>
-0.754459

>  <SCORE.INTRA.norm>
0.135707

>  <SCORE.RESTR>
0.0137302

>  <SCORE.RESTR.CAVITY>
0.0137302

>  <SCORE.RESTR.norm>
0.00105617

>  <SCORE.SYSTEM>
0

>  <SCORE.SYSTEM.CONST>
0

>  <SCORE.SYSTEM.DIHEDRAL>
0

>  <SCORE.SYSTEM.SOLV>
0

>  <SCORE.SYSTEM.norm>
0

>  <SCORE.heavy>
13

>  <SCORE.norm>
-4.37099

>  <RMSD>
0.758

$$$$
lig.pdb
 OpenBabel11021811453D
libRbt.so/2013.1/901 2013/11/27
 13 14  0  0  0  0  0  0  0  0999 V2000
    2.3234    3.5409   -4.3023 N   0  0  0  0  0  0  0  0  0  0  0  0
    3.5958    3.0255   -4.3423 C   0  0  0  0  0  0  0  0  0  0  0  0
    3.8806    1.8956   -3.7042 N   0  0  0  0  0  0  0  0  0  0  0  0
    2.9274    1.2137   -2.9964 C   0  0  0  0  0  0  0  0  0  0  0  0
    1.6031    1.7156   -2.9217 C   0  0  0  0  0  0  0  0  0  0  0  0
    1.3142    2.9257   -3.6143 C   0  0  0  0  0  0  0  0  0  0  0  0
    0.1963    3.4083   -3.6000 O   0  0  0  0  0  0  0  0  0  0  0  0
    0.8494    0.7881   -2.0782 C   0  0  0  0  0  0  0  0  0  0  0  0
   -0.5866    0.9182   -1.6476 C   0  0  0  0  0  0  0  0  0  0  0  0
   -0.7525    0.3436   -0.3053 N   0  0  0  0  0  0  0  0  0  0  0  0
    1.7039   -0.1872   -1.7442 C   0  0  0  0  0  0  0  0  0  0  0  0
    2.9410    0.0627   -2.2764 N   0  0  0  0  0  0  0  0  0  0  0  0
    4.5725    3.6750   -5.0504 N   0  0  0  0  0  0  0  0  0  0  0  0
  1  6  1  0  0  0  0
  2  1  1  0  0  0  0
  2  3  2  0  0  0  0
  3  4  1  0  0  0  0
  4  5  2  0  0  0  0
  4 12  1  0  0  0  0
  5  8  1  0  0  0  0
  6  7  2  0  0  0  0
  6  5  1  0  0  0  0
  8 11  2  0  0  0  0
  8  9  1  0  0  0  0
 10  9  1  0  0  0  0
 12 11  1  0  0  0  0
 13  2  1  0  0  0  0
M  END
>  <CHROM.1>
-146.99827853,-72.41930195,1.87757505,1.82199335,-2.96588604,0.82897143,0.30593217
-0.60686081

>  <Name>
lig.pdb

>  <RI>
4.15415e+07

>  <Rbt.Current_Directory>
/home/itssahil/PROJECTS/Mol_Feturizer/New_Systems/rnas/2l1v

>  <Rbt.Executable>
rbdock ($Id: //depot/dev/client3/rdock/2013.1/src/exe/rbdock.cxx#4 $)

>  <Rbt.Library>
libRbt.so (2013.1, Build901 2013/11/27)

>  <Rbt.Parameter_File>
/export/apps/rDock/src/rDock_2013.1_src/data/scripts/dock_solv.prm

>  <Rbt.Receptor>
prm/blind_docking_60.prm

>  <SCORE>
-56.773

>  <SCORE.INTER>
-58.5315

>  <SCORE.INTER.CONST>
1

>  <SCORE.INTER.POLAR>
-5.63456

>  <SCORE.INTER.ROT>
2

>  <SCORE.INTER.SOLV>
16.4274

>  <SCORE.INTER.VDW>
-30.6483

>  <SCORE.INTER.norm>
-4.50242

>  <SCORE.INTRA>
1.74602

>  <SCORE.INTRA.DIHEDRAL>
1.25869

>  <SCORE.INTRA.DIHEDRAL.0>
1.43995

>  <SCORE.INTRA.POLAR>
0.272593

>  <SCORE.INTRA.POLAR.0>
-0.272593

>  <SCORE.INTRA.REPUL>
0

>  <SCORE.INTRA.REPUL.0>
0

>  <SCORE.INTRA.SOLV>
-0.511337

>  <SCORE.INTRA.SOLV.lig_0>
-22.6728

>  <SCORE.INTRA.VDW>
0.445528

>  <SCORE.INTRA.VDW.0>
-0.754459

>  <SCORE.INTRA.norm>
0.134309

>  <SCORE.RESTR>
0.0124679

>  <SCORE.RESTR.CAVITY>
0.0124679

>  <SCORE.RESTR.norm>
0.000959069

>  <SCORE.SYSTEM>
0

>  <SCORE.SYSTEM.CONST>
0

>  <SCORE.SYSTEM.DIHEDRAL>
0

>  <SCORE.SYSTEM.SOLV>
0

>  <SCORE.SYSTEM.norm>
0

>  <SCORE.heavy>
13

>  <SCORE.norm>
-4.36716

>  <RMSD>
0.762

$$$$
lig.pdb
 OpenBabel11021811453D
libRbt.so/2013.1/901 2013/11/27
 13 14  0  0  0  0  0  0  0  0999 V2000
    2.3272    3.5486   -4.3034 N   0  0  0  0  0  0  0  0  0  0  0  0
    3.5997    3.0338   -4.3456 C   0  0  0  0  0  0  0  0  0  0  0  0
    3.8847    1.9007   -3.7131 N   0  0  0  0  0  0  0  0  0  0  0  0
    2.9315    1.2150   -3.0091 C   0  0  0  0  0  0  0  0  0  0  0  0
    1.6071    1.7162   -2.9322 C   0  0  0  0  0  0  0  0  0  0  0  0
    1.3179    2.9297   -3.6187 C   0  0  0  0  0  0  0  0  0  0  0  0
    0.2000    3.4120   -3.6023 O   0  0  0  0  0  0  0  0  0  0  0  0
    0.8533    0.7843   -2.0936 C   0  0  0  0  0  0  0  0  0  0  0  0
   -0.5828    0.9118   -1.6627 C   0  0  0  0  0  0  0  0  0  0  0  0
   -0.7328    0.4046   -0.2917 N   0  0  0  0  0  0  0  0  0  0  0  0
    1.7080   -0.1925   -1.7643 C   0  0  0  0  0  0  0  0  0  0  0  0
    2.9452    0.0605   -2.2949 N   0  0  0  0  0  0  0  0  0  0  0  0
    4.5764    3.6871   -5.0502 N   0  0  0  0  0  0  0  0  0  0  0  0
  1  6  1  0  0  0  0
  2  1  1  0  0  0  0
  2  3  2  0  0  0  0
  3  4  1  0  0  0  0
  4  5  2  0  0  0  0
  4 12  1  0  0  0  0
  5  8  1  0  0  0  0
  6  7  2  0  0  0  0
  6  5  1  0  0  0  0
  8 11  2  0  0  0  0
  8  9  1  0  0  0  0
 10  9  1  0  0  0  0
 12 11  1  0  0  0  0
 13  2  1  0  0  0  0
M  END
>  <CHROM.1>
-143.59695558,-77.28252992,1.88298547,1.82980634,-2.97280675,0.82634119,0.31056872
-0.60414267

>  <Name>
lig.pdb

>  <RI>
1.75485e+07

>  <Rbt.Current_Directory>
/home/itssahil/PROJECTS/Mol_Feturizer/New_Systems/rnas/2l1v

>  <Rbt.Executable>
rbdock ($Id: //depot/dev/client3/rdock/2013.1/src/exe/rbdock.cxx#4 $)

>  <Rbt.Library>
libRbt.so (2013.1, Build901 2013/11/27)

>  <Rbt.Parameter_File>
/export/apps/rDock/src/rDock_2013.1_src/data/scripts/dock_solv.prm

>  <Rbt.Receptor>
prm/pocket_docking_4.prm

>  <SCORE>
-56.7399

>  <SCORE.INTER>
-58.5671

>  <SCORE.INTER.CONST>
1

>  <SCORE.INTER.POLAR>
-5.65733

>  <SCORE.INTER.ROT>
2

>  <SCORE.INTER.SOLV>
16.5013

>  <SCORE.INTER.VDW>
-30.6208

>  <SCORE.INTER.norm>
-4.50517

>  <SCORE.INTRA>
1.81578

>  <SCORE.INTRA.DIHEDRAL>
1.46293

>  <SCORE.INTRA.DIHEDRAL.0>
1.43995

>  <SCORE.INTRA.POLAR>
0.272593

>  <SCORE.INTRA.POLAR.0>
-0.272593

>  <SCORE.INTRA.REPUL>
0

>  <SCORE.INTRA.REPUL.0>
0

>  <SCORE.INTRA.SOLV>
-0.515899

>  <SCORE.INTRA.SOLV.lig_0>
-22.6728

>  <SCORE.INTRA.VDW>
0.415451

>  <SCORE.INTRA.VDW.0>
-0.754459

>  <SCORE.INTRA.norm>
0.139676

>  <SCORE.RESTR>
0.0114394

>  <SCORE.RESTR.CAVITY>
0.0114394

>  <SCORE.RESTR.norm>
0.000879951

>  <SCORE.SYSTEM>
0

>  <SCORE.SYSTEM.CONST>
0

>  <SCORE.SYSTEM.DIHEDRAL>
0

>  <SCORE.SYSTEM.SOLV>
0

>  <SCORE.SYSTEM.norm>
0

>  <SCORE.heavy>
13

>  <SCORE.norm>
-4.36461

>  <RMSD>
0.762

$$$$
lig.pdb
 OpenBabel11021811453D
libRbt.so/2013.1/901 2013/11/27
 13 14  0  0  0  0  0  0  0  0999 V2000
    2.3291    3.5435   -4.3045 N   0  0  0  0  0  0  0  0  0  0  0  0
    3.6028    3.0309   -4.3389 C   0  0  0  0  0  0  0  0  0  0  0  0
    3.8874    1.9020   -3.6988 N   0  0  0  0  0  0  0  0  0  0  0  0
    2.9328    1.2185   -2.9946 C   0  0  0  0  0  0  0  0  0  0  0  0
    1.6071    1.7176   -2.9257 C   0  0  0  0  0  0  0  0  0  0  0  0
    1.3184    2.9266   -3.6203 C   0  0  0  0  0  0  0  0  0  0  0  0
    0.1994    3.4068   -3.6110 O   0  0  0  0  0  0  0  0  0  0  0  0
    0.8519    0.7890   -2.0847 C   0  0  0  0  0  0  0  0  0  0  0  0
   -0.5862    0.9163   -1.6602 C   0  0  0  0  0  0  0  0  0  0  0  0
   -0.7334    0.4526   -0.2735 N   0  0  0  0  0  0  0  0  0  0  0  0
    1.7071   -0.1842   -1.7465 C   0  0  0  0  0  0  0  0  0  0  0  0
    2.9459    0.0681   -2.2737 N   0  0  0  0  0  0  0  0  0  0  0  0
    4.5810    3.6821   -5.0434 N   0  0  0  0  0  0  0  0  0  0  0  0
  1  6  1  0  0  0  0
  2  1  1  0  0  0  0
  2  3  2  0  0  0  0
  3  4  1  0  0  0  0
  4  5  2  0  0  0  0
  4 12  1  0  0  0  0
  5  8  1  0  0  0  0
  6  7  2  0  0  0  0
  6  5  1  0  0  0  0
  8 11  2  0  0  0  0
  8  9  1  0  0  0  0
 10  9  1  0  0  0  0
 12 11  1  0  0  0  0
 13  2  1  0  0  0  0
M  END
>  <CHROM.1>
-141.98068381,100.08352435,1.88398495,1.83487121,-2.96460132,0.82461004,0.30860418
-0.61077129

>  <Name>
lig.pdb

>  <RI>
1.75485e+07

>  <Rbt.Current_Directory>
/home/itssahil/PROJECTS/Mol_Feturizer/New_Systems/rnas/2l1v

>  <Rbt.Executable>
rbdock ($Id: //depot/dev/client3/rdock/2013.1/src/exe/rbdock.cxx#4 $)

>  <Rbt.Library>
libRbt.so (2013.1, Build901 2013/11/27)

>  <Rbt.Parameter_File>
/export/apps/rDock/src/rDock_2013.1_src/data/scripts/dock_solv.prm

>  <Rbt.Receptor>
prm/pocket_docking_4.prm

>  <SCORE>
-56.7916

>  <SCORE.INTER>
-58.5924

>  <SCORE.INTER.CONST>
1

>  <SCORE.INTER.POLAR>
-5.66678

>  <SCORE.INTER.ROT>
2

>  <SCORE.INTER.SOLV>
16.4989

>  <SCORE.INTER.VDW>
-30.6053

>  <SCORE.INTER.norm>
-4.50711

>  <SCORE.INTRA>
1.79092

>  <SCORE.INTRA.DIHEDRAL>
1.44579

>  <SCORE.INTRA.DIHEDRAL.0>
1.43995

>  <SCORE.INTRA.POLAR>
0.272593

>  <SCORE.INTRA.POLAR.0>
-0.272593

>  <SCORE.INTRA.REPUL>
0

>  <SCORE.INTRA.REPUL.0>
0

>  <SCORE.INTRA.SOLV>
-0.516798

>  <SCORE.INTRA.SOLV.lig_0>
-22.6728

>  <SCORE.INTRA.VDW>
0.399606

>  <SCORE.INTRA.VDW.0>
-0.754459

>  <SCORE.INTRA.norm>
0.137763

>  <SCORE.RESTR>
0.00988246

>  <SCORE.RESTR.CAVITY>
0.00988246

>  <SCORE.RESTR.norm>
0.000760189

>  <SCORE.SYSTEM>
0

>  <SCORE.SYSTEM.CONST>
0

>  <SCORE.SYSTEM.DIHEDRAL>
0

>  <SCORE.SYSTEM.SOLV>
0

>  <SCORE.SYSTEM.norm>
0

>  <SCORE.heavy>
13

>  <SCORE.norm>
-4.36858

>  <RMSD>
0.766

$$$$
lig.pdb
 OpenBabel11021811453D
libRbt.so/2013.1/901 2013/11/27
 13 14  0  0  0  0  0  0  0  0999 V2000
    2.3304    3.5547   -4.3016 N   0  0  0  0  0  0  0  0  0  0  0  0
    3.6028    3.0396   -4.3437 C   0  0  0  0  0  0  0  0  0  0  0  0
    3.8874    1.9065   -3.7112 N   0  0  0  0  0  0  0  0  0  0  0  0
    2.9340    1.2210   -3.0073 C   0  0  0  0  0  0  0  0  0  0  0  0
    1.6096    1.7224   -2.9305 C   0  0  0  0  0  0  0  0  0  0  0  0
    1.3209    2.9361   -3.6170 C   0  0  0  0  0  0  0  0  0  0  0  0
    0.2030    3.4186   -3.6007 O   0  0  0  0  0  0  0  0  0  0  0  0
    0.8556    0.7907   -2.0919 C   0  0  0  0  0  0  0  0  0  0  0  0
   -0.5806    0.9186   -1.6612 C   0  0  0  0  0  0  0  0  0  0  0  0
   -0.7196    0.4678   -0.2695 N   0  0  0  0  0  0  0  0  0  0  0  0
    1.7100   -0.1863   -1.7626 C   0  0  0  0  0  0  0  0  0  0  0  0
    2.9473    0.0664   -2.2931 N   0  0  0  0  0  0  0  0  0  0  0  0
    4.5797    3.6927   -5.0482 N   0  0  0  0  0  0  0  0  0  0  0  0
  1  6  1  0  0  0  0
  2  1  1  0  0  0  0
  2  3  2  0  0  0  0
  3  4  1  0  0  0  0
  4  5  2  0  0  0  0
  4 12  1  0  0  0  0
  5  8  1  0  0  0  0
  6  7  2  0  0  0  0
  6  5  1  0  0  0  0
  8 11  2  0  0  0  0
  8  9  1  0  0  0  0
 10  9  1  0  0  0  0
 12 11  1  0  0  0  0
 13  2  1  0  0  0  0
M  END
>  <CHROM.1>
-141.06858812,-141.03734245,1.88673130,1.84144521,-2.96907626,0.82351582
0.31133603,-0.60802812

>  <Name>
lig.pdb

>  <RI>
4.15415e+07

>  <Rbt.Current_Directory>
/home/itssahil/PROJECTS/Mol_Feturizer/New_Systems/rnas/2l1v

>  <Rbt.Executable>
rbdock ($Id: //depot/dev/client3/rdock/2013.1/src/exe/rbdock.cxx#4 $)

>  <Rbt.Library>
libRbt.so (2013.1, Build901 2013/11/27)

>  <Rbt.Parameter_File>
/export/apps/rDock/src/rDock_2013.1_src/data/scripts/dock_solv.prm

>  <Rbt.Receptor>
prm/blind_docking_60.prm

>  <SCORE>
-56.6182

>  <SCORE.INTER>
-58.4811

>  <SCORE.INTER.CONST>
1

>  <SCORE.INTER.POLAR>
-5.66842

>  <SCORE.INTER.ROT>
2

>  <SCORE.INTER.SOLV>
16.5109

>  <SCORE.INTER.VDW>
-30.5296

>  <SCORE.INTER.norm>
-4.49854

>  <SCORE.INTRA>
1.85323

>  <SCORE.INTRA.DIHEDRAL>
1.49215

>  <SCORE.INTRA.DIHEDRAL.0>
1.43995

>  <SCORE.INTRA.POLAR>
0.272593

>  <SCORE.INTRA.POLAR.0>
-0.272593

>  <SCORE.INTRA.REPUL>
0

>  <SCORE.INTRA.REPUL.0>
0

>  <SCORE.INTRA.SOLV>
-0.516864

>  <SCORE.INTRA.SOLV.lig_0>
-22.6728

>  <SCORE.INTRA.VDW>
0.438773

>  <SCORE.INTRA.VDW.0>
-0.754459

>  <SCORE.INTRA.norm>
0.142556

>  <SCORE.RESTR>
0.00967388

>  <SCORE.RESTR.CAVITY>
0.00967388

>  <SCORE.RESTR.norm>
0.000744145

>  <SCORE.SYSTEM>
0

>  <SCORE.SYSTEM.CONST>
0

>  <SCORE.SYSTEM.DIHEDRAL>
0

>  <SCORE.SYSTEM.SOLV>
0

>  <SCORE.SYSTEM.norm>
0

>  <SCORE.heavy>
13

>  <SCORE.norm>
-4.35524

>  <RMSD>
0.767

$$$$
lig.pdb
 OpenBabel11021811453D
libRbt.so/2013.1/901 2013/11/27
 13 14  0  0  0  0  0  0  0  0999 V2000
    2.3235    3.5405   -4.2992 N   0  0  0  0  0  0  0  0  0  0  0  0
    3.5964    3.0271   -4.3459 C   0  0  0  0  0  0  0  0  0  0  0  0
    3.8854    1.8955   -3.7127 N   0  0  0  0  0  0  0  0  0  0  0  0
    2.9360    1.2098   -3.0035 C   0  0  0  0  0  0  0  0  0  0  0  0
    1.6113    1.7095   -2.9218 C   0  0  0  0  0  0  0  0  0  0  0  0
    1.3178    2.9215   -3.6092 C   0  0  0  0  0  0  0  0  0  0  0  0
    0.1994    3.4025   -3.5889 O   0  0  0  0  0  0  0  0  0  0  0  0
    0.8623    0.7781   -2.0785 C   0  0  0  0  0  0  0  0  0  0  0  0
   -0.5722    0.9046   -1.6418 C   0  0  0  0  0  0  0  0  0  0  0  0
   -0.7072    0.4426   -0.2534 N   0  0  0  0  0  0  0  0  0  0  0  0
    1.7195   -0.1971   -1.7512 C   0  0  0  0  0  0  0  0  0  0  0  0
    2.9541    0.0565   -2.2874 N   0  0  0  0  0  0  0  0  0  0  0  0
    4.5693    3.6804   -5.0557 N   0  0  0  0  0  0  0  0  0  0  0  0
  1  6  1  0  0  0  0
  2  1  1  0  0  0  0
  2  3  2  0  0  0  0
  3  4  1  0  0  0  0
  4  5  2  0  0  0  0
  4 12  1  0  0  0  0
  5  8  1  0  0  0  0
  6  7  2  0  0  0  0
  6  5  1  0  0  0  0
  8 11  2  0  0  0  0
  8  9  1  0  0  0  0
 10  9  1  0  0  0  0
 12 11  1  0  0  0  0
 13  2  1  0  0  0  0
M  END
>  <CHROM.1>
-141.66519421,-76.63872087,1.88773064,1.82741582,-2.96234704,0.82814314,0.31627527
-0.60805519

>  <Name>
lig.pdb

>  <RI>
1.75485e+07

>  <Rbt.Current_Directory>
/home/itssahil/PROJECTS/Mol_Feturizer/New_Systems/rnas/2l1v

>  <Rbt.Executable>
rbdock ($Id: //depot/dev/client3/rdock/2013.1/src/exe/rbdock.cxx#4 $)

>  <Rbt.Library>
libRbt.so (2013.1, Build901 2013/11/27)

>  <Rbt.Parameter_File>
/export/apps/rDock/src/rDock_2013.1_src/data/scripts/dock_solv.prm

>  <Rbt.Receptor>
prm/pocket_docking_4.prm

>  <SCORE>
-56.7927

>  <SCORE.INTER>
-58.6574

>  <SCORE.INTER.CONST>
1

>  <SCORE.INTER.POLAR>
-5.64802

>  <SCORE.INTER.ROT>
2

>  <SCORE.INTER.SOLV>
16.4709

>  <SCORE.INTER.VDW>
-30.7018

>  <SCORE.INTER.norm>
-4.51211

>  <SCORE.INTRA>
1.85337

>  <SCORE.INTRA.DIHEDRAL>
1.56623

>  <SCORE.INTRA.DIHEDRAL.0>
1.43995

>  <SCORE.INTRA.POLAR>
0.272593

>  <SCORE.INTRA.POLAR.0>
-0.272593

>  <SCORE.INTRA.REPUL>
0

>  <SCORE.INTRA.REPUL.0>
0

>  <SCORE.INTRA.SOLV>
-0.518455

>  <SCORE.INTRA.SOLV.lig_0>
-22.6728

>  <SCORE.INTRA.VDW>
0.402666

>  <SCORE.INTRA.VDW.0>
-0.754459

>  <SCORE.INTRA.norm>
0.142567

>  <SCORE.RESTR>
0.0113572

>  <SCORE.RESTR.CAVITY>
0.0113572

>  <SCORE.RESTR.norm>
0.000873634

>  <SCORE.SYSTEM>
0

>  <SCORE.SYSTEM.CONST>
0

>  <SCORE.SYSTEM.DIHEDRAL>
0

>  <SCORE.SYSTEM.SOLV>
0

>  <SCORE.SYSTEM.norm>
0

>  <SCORE.heavy>
13

>  <SCORE.norm>
-4.36867

>  <RMSD>
0.768

$$$$
lig.pdb
 OpenBabel11021811453D
libRbt.so/2013.1/901 2013/11/27
 13 14  0  0  0  0  0  0  0  0999 V2000
    2.3188    3.5220   -4.3036 N   0  0  0  0  0  0  0  0  0  0  0  0
    3.5935    3.0123   -4.3424 C   0  0  0  0  0  0  0  0  0  0  0  0
    3.8840    1.8865   -3.6996 N   0  0  0  0  0  0  0  0  0  0  0  0
    2.9345    1.2033   -2.9882 C   0  0  0  0  0  0  0  0  0  0  0  0
    1.6080    1.6994   -2.9145 C   0  0  0  0  0  0  0  0  0  0  0  0
    1.3129    2.9052   -3.6122 C   0  0  0  0  0  0  0  0  0  0  0  0
    0.1929    3.3827   -3.5991 O   0  0  0  0  0  0  0  0  0  0  0  0
    0.8591    0.7721   -2.0665 C   0  0  0  0  0  0  0  0  0  0  0  0
   -0.5771    0.8975   -1.6354 C   0  0  0  0  0  0  0  0  0  0  0  0
   -0.7141    0.4510   -0.2420 N   0  0  0  0  0  0  0  0  0  0  0  0
    1.7184   -0.1978   -1.7289 C   0  0  0  0  0  0  0  0  0  0  0  0
    2.9539    0.0555   -2.2631 N   0  0  0  0  0  0  0  0  0  0  0  0
    4.5666    3.6632   -5.0540 N   0  0  0  0  0  0  0  0  0  0  0  0
  1  6  1  0  0  0  0
  2  1  1  0  0  0  0
  2  3  2  0  0  0  0
  3  4  1  0  0  0  0
  4  5  2  0  0  0  0
  4 12  1  0  0  0  0
  5  8  1  0  0  0  0
  6  7  2  0  0  0  0
  6  5  1  0  0  0  0
  8 11  2  0  0  0  0
  8  9  1  0  0  0  0
 10  9  1  0  0  0  0
 12 11  1  0  0  0  0
 13  2  1  0  0  0  0
M  END
>  <CHROM.1>
-141.42949987,-76.70479685,1.88423267,1.81834645,-2.95491316,0.82869804,0.31219888
-0.61611520

>  <Name>
lig.pdb

>  <RI>
4.15415e+07

>  <Rbt.Current_Directory>
/home/itssahil/PROJECTS/Mol_Feturizer/New_Systems/rnas/2l1v

>  <Rbt.Executable>
rbdock ($Id: //depot/dev/client3/rdock/2013.1/src/exe/rbdock.cxx#4 $)

>  <Rbt.Library>
libRbt.so (2013.1, Build901 2013/11/27)

>  <Rbt.Parameter_File>
/export/apps/rDock/src/rDock_2013.1_src/data/scripts/dock_solv.prm

>  <Rbt.Receptor>
prm/blind_docking_60.prm

>  <SCORE>
-56.7858

>  <SCORE.INTER>
-58.6568

>  <SCORE.INTER.CONST>
1

>  <SCORE.INTER.POLAR>
-5.63405

>  <SCORE.INTER.ROT>
2

>  <SCORE.INTER.SOLV>
16.4209

>  <SCORE.INTER.VDW>
-30.7313

>  <SCORE.INTER.norm>
-4.51206

>  <SCORE.INTRA>
1.85784

>  <SCORE.INTRA.DIHEDRAL>
1.5789

>  <SCORE.INTRA.DIHEDRAL.0>
1.43995

>  <SCORE.INTRA.POLAR>
0.272593

>  <SCORE.INTRA.POLAR.0>
-0.272593

>  <SCORE.INTRA.REPUL>
0

>  <SCORE.INTRA.REPUL.0>
0

>  <SCORE.INTRA.SOLV>
-0.518784

>  <SCORE.INTRA.SOLV.lig_0>
-22.6728

>  <SCORE.INTRA.VDW>
0.400972

>  <SCORE.INTRA.VDW.0>
-0.754459

>  <SCORE.INTRA.norm>
0.142911

>  <SCORE.RESTR>
0.0131648

>  <SCORE.RESTR.CAVITY>
0.0131648

>  <SCORE.RESTR.norm>
0.00101268

>  <SCORE.SYSTEM>
0

>  <SCORE.SYSTEM.CONST>
0

>  <SCORE.SYSTEM.DIHEDRAL>
0

>  <SCORE.SYSTEM.SOLV>
0

>  <SCORE.SYSTEM.norm>
0

>  <SCORE.heavy>
13

>  <SCORE.norm>
-4.36814

>  <RMSD>
0.769

$$$$
lig.pdb
 OpenBabel11021811453D
libRbt.so/2013.1/901 2013/11/27
 13 14  0  0  0  0  0  0  0  0999 V2000
    2.3290    3.5406   -4.2971 N   0  0  0  0  0  0  0  0  0  0  0  0
    3.6016    3.0252   -4.3316 C   0  0  0  0  0  0  0  0  0  0  0  0
    3.8837    1.8954   -3.6921 N   0  0  0  0  0  0  0  0  0  0  0  0
    2.9276    1.2137   -2.9883 C   0  0  0  0  0  0  0  0  0  0  0  0
    1.6030    1.7155   -2.9192 C   0  0  0  0  0  0  0  0  0  0  0  0
    1.3169    2.9255   -3.6132 C   0  0  0  0  0  0  0  0  0  0  0  0
    0.1990    3.4081   -3.6038 O   0  0  0  0  0  0  0  0  0  0  0  0
    0.8457    0.7882   -2.0787 C   0  0  0  0  0  0  0  0  0  0  0  0
   -0.5921    0.9183   -1.6542 C   0  0  0  0  0  0  0  0  0  0  0  0
   -0.7395    0.4590   -0.2661 N   0  0  0  0  0  0  0  0  0  0  0  0
    1.6988   -0.1870   -1.7410 C   0  0  0  0  0  0  0  0  0  0  0  0
    2.9381    0.0629   -2.2680 N   0  0  0  0  0  0  0  0  0  0  0  0
    4.5812    3.6746   -5.0357 N   0  0  0  0  0  0  0  0  0  0  0  0
  1  6  1  0  0  0  0
  2  1  1  0  0  0  0
  2  3  2  0  0  0  0
  3  4  1  0  0  0  0
  4  5  2  0  0  0  0
  4 12  1  0  0  0  0
  5  8  1  0  0  0  0
  6  7  2  0  0  0  0
  6  5  1  0  0  0  0
  8 11  2  0  0  0  0
  8  9  1  0  0  0  0
 10  9  1  0  0  0  0
 12 11  1  0  0  0  0
 13  2  1  0  0  0  0
M  END
>  <CHROM.1>
-141.76996070,-77.22404051,1.87982933,1.83267548,-2.95793021,0.82210253,0.31021886
-0.60965297

>  <Name>
lig.pdb

>  <RI>
1.75485e+07

>  <Rbt.Current_Directory>
/home/itssahil/PROJECTS/Mol_Feturizer/New_Systems/rnas/2l1v

>  <Rbt.Executable>
rbdock ($Id: //depot/dev/client3/rdock/2013.1/src/exe/rbdock.cxx#4 $)

>  <Rbt.Library>
libRbt.so (2013.1, Build901 2013/11/27)

>  <Rbt.Parameter_File>
/export/apps/rDock/src/rDock_2013.1_src/data/scripts/dock_solv.prm

>  <Rbt.Receptor>
prm/pocket_docking_4.prm

>  <SCORE>
-56.7338

>  <SCORE.INTER>
-58.5925

>  <SCORE.INTER.CONST>
1

>  <SCORE.INTER.POLAR>
-5.66475

>  <SCORE.INTER.ROT>
2

>  <SCORE.INTER.SOLV>
16.4798

>  <SCORE.INTER.VDW>
-30.6058

>  <SCORE.INTER.norm>
-4.50712

>  <SCORE.INTRA>
1.85148

>  <SCORE.INTRA.DIHEDRAL>
1.56201

>  <SCORE.INTRA.DIHEDRAL.0>
1.43995

>  <SCORE.INTRA.POLAR>
0.272593

>  <SCORE.INTRA.POLAR.0>
-0.272593

>  <SCORE.INTRA.REPUL>
0

>  <SCORE.INTRA.REPUL.0>
0

>  <SCORE.INTRA.SOLV>
-0.518346

>  <SCORE.INTRA.SOLV.lig_0>
-22.6728

>  <SCORE.INTRA.VDW>
0.402834

>  <SCORE.INTRA.VDW.0>
-0.754459

>  <SCORE.INTRA.norm>
0.142422

>  <SCORE.RESTR>
0.00724761

>  <SCORE.RESTR.CAVITY>
0.00724761

>  <SCORE.RESTR.norm>
0.000557508

>  <SCORE.SYSTEM>
0

>  <SCORE.SYSTEM.CONST>
0

>  <SCORE.SYSTEM.DIHEDRAL>
0

>  <SCORE.SYSTEM.SOLV>
0

>  <SCORE.SYSTEM.norm>
0

>  <SCORE.heavy>
13

>  <SCORE.norm>
-4.36414

>  <RMSD>
0.769

$$$$
lig.pdb
 OpenBabel11021811453D
libRbt.so/2013.1/901 2013/11/27
 13 14  0  0  0  0  0  0  0  0999 V2000
    2.3273    3.5545   -4.2909 N   0  0  0  0  0  0  0  0  0  0  0  0
    3.5973    3.0339   -4.3410 C   0  0  0  0  0  0  0  0  0  0  0  0
    3.8804    1.8983   -3.7123 N   0  0  0  0  0  0  0  0  0  0  0  0
    2.9278    1.2155   -3.0046 C   0  0  0  0  0  0  0  0  0  0  0  0
    1.6062    1.7225   -2.9195 C   0  0  0  0  0  0  0  0  0  0  0  0
    1.3189    2.9388   -3.6021 C   0  0  0  0  0  0  0  0  0  0  0  0
    0.2033    3.4261   -3.5787 O   0  0  0  0  0  0  0  0  0  0  0  0
    0.8527    0.7923   -2.0788 C   0  0  0  0  0  0  0  0  0  0  0  0
   -0.5806    0.9256   -1.6400 C   0  0  0  0  0  0  0  0  0  0  0  0
   -0.7197    0.4439   -0.2586 N   0  0  0  0  0  0  0  0  0  0  0  0
    1.7046   -0.1890   -1.7561 C   0  0  0  0  0  0  0  0  0  0  0  0
    2.9401    0.0594   -2.2928 N   0  0  0  0  0  0  0  0  0  0  0  0
    4.5731    3.6842   -5.0494 N   0  0  0  0  0  0  0  0  0  0  0  0
  1  6  1  0  0  0  0
  2  1  1  0  0  0  0
  2  3  2  0  0  0  0
  3  4  1  0  0  0  0
  4  5  2  0  0  0  0
  4 12  1  0  0  0  0
  5  8  1  0  0  0  0
  6  7  2  0  0  0  0
  6  5  1  0  0  0  0
  8 11  2  0  0  0  0
  8  9  1  0  0  0  0
 10  9  1  0  0  0  0
 12 11  1  0  0  0  0
 13  2  1  0  0  0  0
M  END
>  <CHROM.1>
-142.34496305,-139.92038148,1.88300357,1.83773620,-2.96036912,0.82428646
0.31635510,-0.60513532

>  <Name>
lig.pdb

>  <RI>
4.15415e+07

>  <Rbt.Current_Directory>
/home/itssahil/PROJECTS/Mol_Feturizer/New_Systems/rnas/2l1v

>  <Rbt.Executable>
rbdock ($Id: //depot/dev/client3/rdock/2013.1/src/exe/rbdock.cxx#4 $)

>  <Rbt.Library>
libRbt.so (2013.1, Build901 2013/11/27)

>  <Rbt.Parameter_File>
/export/apps/rDock/src/rDock_2013.1_src/data/scripts/dock_solv.prm

>  <Rbt.Receptor>
prm/blind_docking_60.prm

>  <SCORE>
-56.6001

>  <SCORE.INTER>
-58.4362

>  <SCORE.INTER.CONST>
1

>  <SCORE.INTER.POLAR>
-5.64419

>  <SCORE.INTER.ROT>
2

>  <SCORE.INTER.SOLV>
16.4764

>  <SCORE.INTER.VDW>
-30.569

>  <SCORE.INTER.norm>
-4.4951

>  <SCORE.INTRA>
1.8278

>  <SCORE.INTRA.DIHEDRAL>
1.42619

>  <SCORE.INTRA.DIHEDRAL.0>
1.43995

>  <SCORE.INTRA.POLAR>
0.272593

>  <SCORE.INTRA.POLAR.0>
-0.272593

>  <SCORE.INTRA.REPUL>
0

>  <SCORE.INTRA.REPUL.0>
0

>  <SCORE.INTRA.SOLV>
-0.515291

>  <SCORE.INTRA.SOLV.lig_0>
-22.6728

>  <SCORE.INTRA.VDW>
0.445533

>  <SCORE.INTRA.VDW.0>
-0.754459

>  <SCORE.INTRA.norm>
0.1406

>  <SCORE.RESTR>
0.00830539

>  <SCORE.RESTR.CAVITY>
0.00830539

>  <SCORE.RESTR.norm>
0.000638876

>  <SCORE.SYSTEM>
0

>  <SCORE.SYSTEM.CONST>
0

>  <SCORE.SYSTEM.DIHEDRAL>
0

>  <SCORE.SYSTEM.SOLV>
0

>  <SCORE.SYSTEM.norm>
0

>  <SCORE.heavy>
13

>  <SCORE.norm>
-4.35386

>  <RMSD>
0.770

$$$$
lig.pdb
 OpenBabel11021811453D
libRbt.so/2013.1/901 2013/11/27
 13 14  0  0  0  0  0  0  0  0999 V2000
    2.3245    3.5507   -4.3127 N   0  0  0  0  0  0  0  0  0  0  0  0
    3.5999    3.0425   -4.3489 C   0  0  0  0  0  0  0  0  0  0  0  0
    3.8923    1.9210   -3.6995 N   0  0  0  0  0  0  0  0  0  0  0  0
    2.9440    1.2408   -2.9835 C   0  0  0  0  0  0  0  0  0  0  0  0
    1.6169    1.7355   -2.9123 C   0  0  0  0  0  0  0  0  0  0  0  0
    1.3198    2.9366   -3.6171 C   0  0  0  0  0  0  0  0  0  0  0  0
    0.1991    3.4126   -3.6064 O   0  0  0  0  0  0  0  0  0  0  0  0
    0.8697    0.8123   -2.0583 C   0  0  0  0  0  0  0  0  0  0  0  0
   -0.5666    0.9382   -1.6273 C   0  0  0  0  0  0  0  0  0  0  0  0
   -0.7137    0.4415   -0.2522 N   0  0  0  0  0  0  0  0  0  0  0  0
    1.7305   -0.1543   -1.7153 C   0  0  0  0  0  0  0  0  0  0  0  0
    2.9654    0.0975   -2.2516 N   0  0  0  0  0  0  0  0  0  0  0  0
    4.5718    3.6905   -5.0649 N   0  0  0  0  0  0  0  0  0  0  0  0
  1  6  1  0  0  0  0
  2  1  1  0  0  0  0
  2  3  2  0  0  0  0
  3  4  1  0  0  0  0
  4  5  2  0  0  0  0
  4 12  1  0  0  0  0
  5  8  1  0  0  0  0
  6  7  2  0  0  0  0
  6  5  1  0  0  0  0
  8 11  2  0  0  0  0
  8  9  1  0  0  0  0
 10  9  1  0  0  0  0
 12 11  1  0  0  0  0
 13  2  1  0  0  0  0
M  END
>  <CHROM.1>
-144.04087676,-139.85886136,1.89196573,1.84929691,-2.95540053,0.83236552
0.30461985,-0.62360872

>  <Name>
lig.pdb

>  <RI>
1.75485e+07

>  <Rbt.Current_Directory>
/home/itssahil/PROJECTS/Mol_Feturizer/New_Systems/rnas/2l1v

>  <Rbt.Executable>
rbdock ($Id: //depot/dev/client3/rdock/2013.1/src/exe/rbdock.cxx#4 $)

>  <Rbt.Library>
libRbt.so (2013.1, Build901 2013/11/27)

>  <Rbt.Parameter_File>
/export/apps/rDock/src/rDock_2013.1_src/data/scripts/dock_solv.prm

>  <Rbt.Receptor>
prm/pocket_docking_4.prm

>  <SCORE>
-56.6188

>  <SCORE.INTER>
-58.4311

>  <SCORE.INTER.CONST>
1

>  <SCORE.INTER.POLAR>
-5.6323

>  <SCORE.INTER.ROT>
2

>  <SCORE.INTER.SOLV>
16.417

>  <SCORE.INTER.VDW>
-30.5854

>  <SCORE.INTER.norm>
-4.4947

>  <SCORE.INTRA>
1.79581

>  <SCORE.INTRA.DIHEDRAL>
1.33338

>  <SCORE.INTRA.DIHEDRAL.0>
1.43995

>  <SCORE.INTRA.POLAR>
0.272593

>  <SCORE.INTRA.POLAR.0>
-0.272593

>  <SCORE.INTRA.REPUL>
0

>  <SCORE.INTRA.REPUL.0>
0

>  <SCORE.INTRA.SOLV>
-0.513134

>  <SCORE.INTRA.SOLV.lig_0>
-22.6728

>  <SCORE.INTRA.VDW>
0.458874

>  <SCORE.INTRA.VDW.0>
-0.754459

>  <SCORE.INTRA.norm>
0.138139

>  <SCORE.RESTR>
0.0164082

>  <SCORE.RESTR.CAVITY>
0.0164082

>  <SCORE.RESTR.norm>
0.00126217

>  <SCORE.SYSTEM>
0

>  <SCORE.SYSTEM.CONST>
0

>  <SCORE.SYSTEM.DIHEDRAL>
0

>  <SCORE.SYSTEM.SOLV>
0

>  <SCORE.SYSTEM.norm>
0

>  <SCORE.heavy>
13

>  <SCORE.norm>
-4.3553

>  <RMSD>
0.771

$$$$
lig.pdb
 OpenBabel11021811453D
libRbt.so/2013.1/901 2013/11/27
 13 14  0  0  0  0  0  0  0  0999 V2000
    2.3042    3.4545   -4.2778 N   0  0  0  0  0  0  0  0  0  0  0  0
    3.5730    2.9294   -4.3017 C   0  0  0  0  0  0  0  0  0  0  0  0
    3.8463    1.8094   -3.6415 N   0  0  0  0  0  0  0  0  0  0  0  0
    2.8846    1.1474   -2.9265 C   0  0  0  0  0  0  0  0  0  0  0  0
    1.5637    1.6600   -2.8679 C   0  0  0  0  0  0  0  0  0  0  0  0
    1.2870    2.8593   -3.5840 C   0  0  0  0  0  0  0  0  0  0  0  0
    0.1726    3.3501   -3.5844 O   0  0  0  0  0  0  0  0  0  0  0  0
    0.7989    0.7536   -2.0115 C   0  0  0  0  0  0  0  0  0  0  0  0
   -0.6383    0.9018   -1.5910 C   0  0  0  0  0  0  0  0  0  0  0  0
   -0.8492    0.2177   -0.3076 N   0  0  0  0  0  0  0  0  0  0  0  0
    1.6446   -0.2216   -1.6553 C   0  0  0  0  0  0  0  0  0  0  0  0
    2.8862    0.0098   -2.1855 N   0  0  0  0  0  0  0  0  0  0  0  0
    4.5580    3.5588   -5.0164 N   0  0  0  0  0  0  0  0  0  0  0  0
  1  6  1  0  0  0  0
  2  1  1  0  0  0  0
  2  3  2  0  0  0  0
  3  4  1  0  0  0  0
  4  5  2  0  0  0  0
  4 12  1  0  0  0  0
  5  8  1  0  0  0  0
  6  7  2  0  0  0  0
  6  5  1  0  0  0  0
  8 11  2  0  0  0  0
  8  9  1  0  0  0  0
 10  9  1  0  0  0  0
 12 11  1  0  0  0  0
 13  2  1  0  0  0  0
M  END
>  <CHROM.1>
-153.43598103,-75.41894293,1.83591917,1.75102609,-2.91894177,0.82374775,0.29601996
-0.61730586

>  <Name>
lig.pdb

>  <RI>
2.7104e+07

>  <Rbt.Current_Directory>
/home/itssahil/PROJECTS/Mol_Feturizer/New_Systems/rnas/2l1v

>  <Rbt.Executable>
rbdock ($Id: //depot/dev/client3/rdock/2013.1/src/exe/rbdock.cxx#4 $)

>  <Rbt.Library>
libRbt.so (2013.1, Build901 2013/11/27)

>  <Rbt.Parameter_File>
/export/apps/rDock/src/rDock_2013.1_src/data/scripts/dock_solv.prm

>  <Rbt.Receptor>
prm/pocket_docking_8.prm

>  <SCORE>
-56.3281

>  <SCORE.INTER>
-57.9808

>  <SCORE.INTER.CONST>
1

>  <SCORE.INTER.POLAR>
-5.52943

>  <SCORE.INTER.ROT>
2

>  <SCORE.INTER.SOLV>
16.1477

>  <SCORE.INTER.VDW>
-30.5383

>  <SCORE.INTER.norm>
-4.46006

>  <SCORE.INTRA>
1.62564

>  <SCORE.INTRA.DIHEDRAL>
0.898651

>  <SCORE.INTRA.DIHEDRAL.0>
1.43995

>  <SCORE.INTRA.POLAR>
0.272593

>  <SCORE.INTRA.POLAR.0>
-0.272593

>  <SCORE.INTRA.REPUL>
0

>  <SCORE.INTRA.REPUL.0>
0

>  <SCORE.INTRA.SOLV>
-0.50464

>  <SCORE.INTRA.SOLV.lig_0>
-22.6728

>  <SCORE.INTRA.VDW>
0.501824

>  <SCORE.INTRA.VDW.0>
-0.754459

>  <SCORE.INTRA.norm>
0.12505

>  <SCORE.RESTR>
0.0270918

>  <SCORE.RESTR.CAVITY>
0.0270918

>  <SCORE.RESTR.norm>
0.00208398

>  <SCORE.SYSTEM>
0

>  <SCORE.SYSTEM.CONST>
0

>  <SCORE.SYSTEM.DIHEDRAL>
0

>  <SCORE.SYSTEM.SOLV>
0

>  <SCORE.SYSTEM.norm>
0

>  <SCORE.heavy>
13

>  <SCORE.norm>
-4.33293

>  <RMSD>
0.772

$$$$
lig.pdb
 OpenBabel11021811453D
libRbt.so/2013.1/901 2013/11/27
 13 14  0  0  0  0  0  0  0  0999 V2000
    2.3023    3.4690   -4.2762 N   0  0  0  0  0  0  0  0  0  0  0  0
    3.5701    2.9420   -4.3110 C   0  0  0  0  0  0  0  0  0  0  0  0
    3.8449    1.8160   -3.6617 N   0  0  0  0  0  0  0  0  0  0  0  0
    2.8857    1.1495   -2.9475 C   0  0  0  0  0  0  0  0  0  0  0  0
    1.5659    1.6637   -2.8778 C   0  0  0  0  0  0  0  0  0  0  0  0
    1.2876    2.8695   -3.5823 C   0  0  0  0  0  0  0  0  0  0  0  0
    0.1741    3.3620   -3.5730 O   0  0  0  0  0  0  0  0  0  0  0  0
    0.8040    0.7513   -2.0253 C   0  0  0  0  0  0  0  0  0  0  0  0
   -0.6308    0.8982   -1.5963 C   0  0  0  0  0  0  0  0  0  0  0  0
   -0.7990    0.3503   -0.2432 N   0  0  0  0  0  0  0  0  0  0  0  0
    1.6499   -0.2282   -1.6817 C   0  0  0  0  0  0  0  0  0  0  0  0
    2.8891    0.0056   -2.2161 N   0  0  0  0  0  0  0  0  0  0  0  0
    4.5525    3.5759   -5.0253 N   0  0  0  0  0  0  0  0  0  0  0  0
  1  6  1  0  0  0  0
  2  1  1  0  0  0  0
  2  3  2  0  0  0  0
  3  4  1  0  0  0  0
  4  5  2  0  0  0  0
  4 12  1  0  0  0  0
  5  8  1  0  0  0  0
  6  7  2  0  0  0  0
  6  5  1  0  0  0  0
  8 11  2  0  0  0  0
  8  9  1  0  0  0  0
 10  9  1  0  0  0  0
 12 11  1  0  0  0  0
 13  2  1  0  0  0  0
M  END
>  <CHROM.1>
-146.44786034,-73.39933378,1.84152954,1.76840120,-2.92254682,0.82094628,0.31169974
-0.61478949

>  <Name>
lig.pdb

>  <RI>
4.17264e+07

>  <Rbt.Current_Directory>
/home/itssahil/PROJECTS/Mol_Feturizer/New_Systems/rnas/2l1v

>  <Rbt.Executable>
rbdock ($Id: //depot/dev/client3/rdock/2013.1/src/exe/rbdock.cxx#4 $)

>  <Rbt.Library>
libRbt.so (2013.1, Build901 2013/11/27)

>  <Rbt.Parameter_File>
/export/apps/rDock/src/rDock_2013.1_src/data/scripts/dock_solv.prm

>  <Rbt.Receptor>
prm/blind_docking_20.prm

>  <SCORE>
-56.3103

>  <SCORE.INTER>
-58.1155

>  <SCORE.INTER.CONST>
1

>  <SCORE.INTER.POLAR>
-5.53108

>  <SCORE.INTER.ROT>
2

>  <SCORE.INTER.SOLV>
16.2195

>  <SCORE.INTER.VDW>
-30.6466

>  <SCORE.INTER.norm>
-4.47042

>  <SCORE.INTRA>
1.75735

>  <SCORE.INTRA.DIHEDRAL>
1.29288

>  <SCORE.INTRA.DIHEDRAL.0>
1.43995

>  <SCORE.INTRA.POLAR>
0.272593

>  <SCORE.INTRA.POLAR.0>
-0.272593

>  <SCORE.INTRA.REPUL>
0

>  <SCORE.INTRA.REPUL.0>
0

>  <SCORE.INTRA.SOLV>
-0.512063

>  <SCORE.INTRA.SOLV.lig_0>
-22.6728

>  <SCORE.INTRA.VDW>
0.440127

>  <SCORE.INTRA.VDW.0>
-0.754459

>  <SCORE.INTRA.norm>
0.135181

>  <SCORE.RESTR>
0.0478626

>  <SCORE.RESTR.CAVITY>
0.0478626

>  <SCORE.RESTR.norm>
0.00368174

>  <SCORE.SYSTEM>
0

>  <SCORE.SYSTEM.CONST>
0

>  <SCORE.SYSTEM.DIHEDRAL>
0

>  <SCORE.SYSTEM.SOLV>
0

>  <SCORE.SYSTEM.norm>
0

>  <SCORE.heavy>
13

>  <SCORE.norm>
-4.33156

>  <RMSD>
0.777

$$$$
lig.pdb
 OpenBabel11021811453D
libRbt.so/2013.1/901 2013/11/27
 13 14  0  0  0  0  0  0  0  0999 V2000
    2.3092    3.4712   -4.2781 N   0  0  0  0  0  0  0  0  0  0  0  0
    3.5793    2.9492   -4.3021 C   0  0  0  0  0  0  0  0  0  0  0  0
    3.8546    1.8278   -3.6451 N   0  0  0  0  0  0  0  0  0  0  0  0
    2.8938    1.1613   -2.9332 C   0  0  0  0  0  0  0  0  0  0  0  0
    1.5715    1.6705   -2.8745 C   0  0  0  0  0  0  0  0  0  0  0  0
    1.2927    2.8713   -3.5872 C   0  0  0  0  0  0  0  0  0  0  0  0
    0.1771    3.3594   -3.5874 O   0  0  0  0  0  0  0  0  0  0  0  0
    0.8080    0.7596   -2.0218 C   0  0  0  0  0  0  0  0  0  0  0  0
   -0.6301    0.9030   -1.6024 C   0  0  0  0  0  0  0  0  0  0  0  0
   -0.8013    0.3754   -0.2416 N   0  0  0  0  0  0  0  0  0  0  0  0
    1.6557   -0.2146   -1.6676 C   0  0  0  0  0  0  0  0  0  0  0  0
    2.8973    0.0214   -2.1957 N   0  0  0  0  0  0  0  0  0  0  0  0
    4.5635    3.5833   -5.0138 N   0  0  0  0  0  0  0  0  0  0  0  0
  1  6  1  0  0  0  0
  2  1  1  0  0  0  0
  2  3  2  0  0  0  0
  3  4  1  0  0  0  0
  4  5  2  0  0  0  0
  4 12  1  0  0  0  0
  5  8  1  0  0  0  0
  6  7  2  0  0  0  0
  6  5  1  0  0  0  0
  8 11  2  0  0  0  0
  8  9  1  0  0  0  0
 10  9  1  0  0  0  0
 12 11  1  0  0  0  0
 13  2  1  0  0  0  0
M  END
>  <CHROM.1>
-145.82054988,-77.04498830,1.84721752,1.77736726,-2.91750751,0.82021225,0.30516477
-0.62056186

>  <Name>
lig.pdb

>  <RI>
2.50021e+07

>  <Rbt.Current_Directory>
/home/itssahil/PROJECTS/Mol_Feturizer/New_Systems/rnas/2l1v

>  <Rbt.Executable>
rbdock ($Id: //depot/dev/client3/rdock/2013.1/src/exe/rbdock.cxx#4 $)

>  <Rbt.Library>
libRbt.so (2013.1, Build901 2013/11/27)

>  <Rbt.Parameter_File>
/export/apps/rDock/src/rDock_2013.1_src/data/scripts/dock_solv.prm

>  <Rbt.Receptor>
prm/pocket_docking_5.prm

>  <SCORE>
-56.3049

>  <SCORE.INTER>
-58.1275

>  <SCORE.INTER.CONST>
1

>  <SCORE.INTER.POLAR>
-5.56322

>  <SCORE.INTER.ROT>
2

>  <SCORE.INTER.SOLV>
16.2158

>  <SCORE.INTER.VDW>
-30.5462

>  <SCORE.INTER.norm>
-4.47134

>  <SCORE.INTRA>
1.77041

>  <SCORE.INTRA.DIHEDRAL>
1.33786

>  <SCORE.INTRA.DIHEDRAL.0>
1.43995

>  <SCORE.INTRA.POLAR>
0.272593

>  <SCORE.INTRA.POLAR.0>
-0.272593

>  <SCORE.INTRA.REPUL>
0

>  <SCORE.INTRA.REPUL.0>
0

>  <SCORE.INTRA.SOLV>
-0.513056

>  <SCORE.INTRA.SOLV.lig_0>
-22.6728

>  <SCORE.INTRA.VDW>
0.431188

>  <SCORE.INTRA.VDW.0>
-0.754459

>  <SCORE.INTRA.norm>
0.136185

>  <SCORE.RESTR>
0.052159

>  <SCORE.RESTR.CAVITY>
0.052159

>  <SCORE.RESTR.norm>
0.00401223

>  <SCORE.SYSTEM>
0

>  <SCORE.SYSTEM.CONST>
0

>  <SCORE.SYSTEM.DIHEDRAL>
0

>  <SCORE.SYSTEM.SOLV>
0

>  <SCORE.SYSTEM.norm>
0

>  <SCORE.heavy>
13

>  <SCORE.norm>
-4.33115

>  <RMSD>
0.780

$$$$
lig.pdb
 OpenBabel11021811453D
libRbt.so/2013.1/901 2013/11/27
 13 14  0  0  0  0  0  0  0  0999 V2000
    2.3043    3.4517   -4.2854 N   0  0  0  0  0  0  0  0  0  0  0  0
    3.5762    2.9336   -4.2989 C   0  0  0  0  0  0  0  0  0  0  0  0
    3.8520    1.8191   -3.6304 N   0  0  0  0  0  0  0  0  0  0  0  0
    2.8899    1.1560   -2.9169 C   0  0  0  0  0  0  0  0  0  0  0  0
    1.5658    1.6615   -2.8689 C   0  0  0  0  0  0  0  0  0  0  0  0
    1.2865    2.8549   -3.5938 C   0  0  0  0  0  0  0  0  0  0  0  0
    0.1694    3.3394   -3.6036 O   0  0  0  0  0  0  0  0  0  0  0  0
    0.8012    0.7559   -2.0115 C   0  0  0  0  0  0  0  0  0  0  0  0
   -0.6393    0.8986   -1.6001 C   0  0  0  0  0  0  0  0  0  0  0  0
   -0.8178    0.3709   -0.2403 N   0  0  0  0  0  0  0  0  0  0  0  0
    1.6503   -0.2122   -1.6446 C   0  0  0  0  0  0  0  0  0  0  0  0
    2.8935    0.0229   -2.1690 N   0  0  0  0  0  0  0  0  0  0  0  0
    4.5617    3.5643   -5.0117 N   0  0  0  0  0  0  0  0  0  0  0  0
  1  6  1  0  0  0  0
  2  1  1  0  0  0  0
  2  3  2  0  0  0  0
  3  4  1  0  0  0  0
  4  5  2  0  0  0  0
  4 12  1  0  0  0  0
  5  8  1  0  0  0  0
  6  7  2  0  0  0  0
  6  5  1  0  0  0  0
  8 11  2  0  0  0  0
  8  9  1  0  0  0  0
 10  9  1  0  0  0  0
 12 11  1  0  0  0  0
 13  2  1  0  0  0  0
M  END
>  <CHROM.1>
-146.36485428,101.14142336,1.84148283,1.76773318,-2.91206842,0.82089953,0.29863036
-0.62941993

>  <Name>
lig.pdb

>  <RI>
4.17264e+07

>  <Rbt.Current_Directory>
/home/itssahil/PROJECTS/Mol_Feturizer/New_Systems/rnas/2l1v

>  <Rbt.Executable>
rbdock ($Id: //depot/dev/client3/rdock/2013.1/src/exe/rbdock.cxx#4 $)

>  <Rbt.Library>
libRbt.so (2013.1, Build901 2013/11/27)

>  <Rbt.Parameter_File>
/export/apps/rDock/src/rDock_2013.1_src/data/scripts/dock_solv.prm

>  <Rbt.Receptor>
prm/blind_docking_20.prm

>  <SCORE>
-56.365

>  <SCORE.INTER>
-58.1019

>  <SCORE.INTER.CONST>
1

>  <SCORE.INTER.POLAR>
-5.54139

>  <SCORE.INTER.ROT>
2

>  <SCORE.INTER.SOLV>
16.1625

>  <SCORE.INTER.VDW>
-30.5842

>  <SCORE.INTER.norm>
-4.46938

>  <SCORE.INTRA>
1.7046

>  <SCORE.INTRA.DIHEDRAL>
1.20449

>  <SCORE.INTRA.DIHEDRAL.0>
1.43995

>  <SCORE.INTRA.POLAR>
0.272593

>  <SCORE.INTRA.POLAR.0>
-0.272593

>  <SCORE.INTRA.REPUL>
0

>  <SCORE.INTRA.REPUL.0>
0

>  <SCORE.INTRA.SOLV>
-0.511068

>  <SCORE.INTRA.SOLV.lig_0>
-22.6728

>  <SCORE.INTRA.VDW>
0.431078

>  <SCORE.INTRA.VDW.0>
-0.754459

>  <SCORE.INTRA.norm>
0.131123

>  <SCORE.RESTR>
0.0322871

>  <SCORE.RESTR.CAVITY>
0.0322871

>  <SCORE.RESTR.norm>
0.00248362

>  <SCORE.SYSTEM>
0

>  <SCORE.SYSTEM.CONST>
0

>  <SCORE.SYSTEM.DIHEDRAL>
0

>  <SCORE.SYSTEM.SOLV>
0

>  <SCORE.SYSTEM.norm>
0

>  <SCORE.heavy>
13

>  <SCORE.norm>
-4.33577

>  <RMSD>
0.781

$$$$
lig.pdb
 OpenBabel11021811453D
libRbt.so/2013.1/901 2013/11/27
 13 14  0  0  0  0  0  0  0  0999 V2000
    2.2987    3.4707   -4.2788 N   0  0  0  0  0  0  0  0  0  0  0  0
    3.5657    2.9420   -4.3157 C   0  0  0  0  0  0  0  0  0  0  0  0
    3.8422    1.8203   -3.6595 N   0  0  0  0  0  0  0  0  0  0  0  0
    2.8856    1.1603   -2.9358 C   0  0  0  0  0  0  0  0  0  0  0  0
    1.5668    1.6767   -2.8637 C   0  0  0  0  0  0  0  0  0  0  0  0
    1.2866    2.8777   -3.5757 C   0  0  0  0  0  0  0  0  0  0  0  0
    0.1737    3.3717   -3.5647 O   0  0  0  0  0  0  0  0  0  0  0  0
    0.8078    0.7715   -2.0010 C   0  0  0  0  0  0  0  0  0  0  0  0
   -0.6248    0.9234   -1.5662 C   0  0  0  0  0  0  0  0  0  0  0  0
   -0.7915    0.3676   -0.2161 N   0  0  0  0  0  0  0  0  0  0  0  0
    1.6541   -0.2065   -1.6542 C   0  0  0  0  0  0  0  0  0  0  0  0
    2.8911    0.0218   -2.1962 N   0  0  0  0  0  0  0  0  0  0  0  0
    4.5454    3.5694   -5.0393 N   0  0  0  0  0  0  0  0  0  0  0  0
  1  6  1  0  0  0  0
  2  1  1  0  0  0  0
  2  3  2  0  0  0  0
  3  4  1  0  0  0  0
  4  5  2  0  0  0  0
  4 12  1  0  0  0  0
  5  8  1  0  0  0  0
  6  7  2  0  0  0  0
  6  5  1  0  0  0  0
  8 11  2  0  0  0  0
  8  9  1  0  0  0  0
 10  9  1  0  0  0  0
 12 11  1  0  0  0  0
 13  2  1  0  0  0  0
M  END
>  <CHROM.1>
-147.28181396,-76.03188586,1.84189762,1.77904975,-2.91123096,0.82341508,0.31496125
-0.62210137

>  <Name>
lig.pdb

>  <RI>
2.50021e+07

>  <Rbt.Current_Directory>
/home/itssahil/PROJECTS/Mol_Feturizer/New_Systems/rnas/2l1v

>  <Rbt.Executable>
rbdock ($Id: //depot/dev/client3/rdock/2013.1/src/exe/rbdock.cxx#4 $)

>  <Rbt.Library>
libRbt.so (2013.1, Build901 2013/11/27)

>  <Rbt.Parameter_File>
/export/apps/rDock/src/rDock_2013.1_src/data/scripts/dock_solv.prm

>  <Rbt.Receptor>
prm/pocket_docking_5.prm

>  <SCORE>
-56.3602

>  <SCORE.INTER>
-58.1509

>  <SCORE.INTER.CONST>
1

>  <SCORE.INTER.POLAR>
-5.49843

>  <SCORE.INTER.ROT>
2

>  <SCORE.INTER.SOLV>
16.1911

>  <SCORE.INTER.VDW>
-30.7695

>  <SCORE.INTER.norm>
-4.47315

>  <SCORE.INTRA>
1.73975

>  <SCORE.INTRA.DIHEDRAL>
1.25211

>  <SCORE.INTRA.DIHEDRAL.0>
1.43995

>  <SCORE.INTRA.POLAR>
0.272593

>  <SCORE.INTRA.POLAR.0>
-0.272593

>  <SCORE.INTRA.REPUL>
0

>  <SCORE.INTRA.REPUL.0>
0

>  <SCORE.INTRA.SOLV>
-0.511231

>  <SCORE.INTRA.SOLV.lig_0>
-22.6728

>  <SCORE.INTRA.VDW>
0.442494

>  <SCORE.INTRA.VDW.0>
-0.754459

>  <SCORE.INTRA.norm>
0.133827

>  <SCORE.RESTR>
0.0510053

>  <SCORE.RESTR.CAVITY>
0.0510053

>  <SCORE.RESTR.norm>
0.00392348

>  <SCORE.SYSTEM>
0

>  <SCORE.SYSTEM.CONST>
0

>  <SCORE.SYSTEM.DIHEDRAL>
0

>  <SCORE.SYSTEM.SOLV>
0

>  <SCORE.SYSTEM.norm>
0

>  <SCORE.heavy>
13

>  <SCORE.norm>
-4.3354

>  <RMSD>
0.782

$$$$
lig.pdb
 OpenBabel11021811453D
libRbt.so/2013.1/901 2013/11/27
 13 14  0  0  0  0  0  0  0  0999 V2000
    2.3055    3.4631   -4.2693 N   0  0  0  0  0  0  0  0  0  0  0  0
    3.5711    2.9307   -4.3014 C   0  0  0  0  0  0  0  0  0  0  0  0
    3.8400    1.8043   -3.6503 N   0  0  0  0  0  0  0  0  0  0  0  0
    2.8768    1.1428   -2.9367 C   0  0  0  0  0  0  0  0  0  0  0  0
    1.5591    1.6628   -2.8699 C   0  0  0  0  0  0  0  0  0  0  0  0
    1.2872    2.8689   -3.5763 C   0  0  0  0  0  0  0  0  0  0  0  0
    0.1757    3.3662   -3.5694 O   0  0  0  0  0  0  0  0  0  0  0  0
    0.7919    0.7547   -2.0175 C   0  0  0  0  0  0  0  0  0  0  0  0
   -0.6430    0.9083   -1.5910 C   0  0  0  0  0  0  0  0  0  0  0  0
   -0.8092    0.3911   -0.2256 N   0  0  0  0  0  0  0  0  0  0  0  0
    1.6330   -0.2280   -1.6713 C   0  0  0  0  0  0  0  0  0  0  0  0
    2.8741   -0.0001   -2.2040 N   0  0  0  0  0  0  0  0  0  0  0  0
    4.5574    3.5595   -5.0149 N   0  0  0  0  0  0  0  0  0  0  0  0
  1  6  1  0  0  0  0
  2  1  1  0  0  0  0
  2  3  2  0  0  0  0
  3  4  1  0  0  0  0
  4  5  2  0  0  0  0
  4 12  1  0  0  0  0
  5  8  1  0  0  0  0
  6  7  2  0  0  0  0
  6  5  1  0  0  0  0
  8 11  2  0  0  0  0
  8  9  1  0  0  0  0
 10  9  1  0  0  0  0
 12 11  1  0  0  0  0
 13  2  1  0  0  0  0
M  END
>  <CHROM.1>
-145.15307280,99.81398142,1.83624015,1.76886931,-2.91314348,0.81572065,0.31457688
-0.61567686

>  <Name>
lig.pdb

>  <RI>
2.50021e+07

>  <Rbt.Current_Directory>
/home/itssahil/PROJECTS/Mol_Feturizer/New_Systems/rnas/2l1v

>  <Rbt.Executable>
rbdock ($Id: //depot/dev/client3/rdock/2013.1/src/exe/rbdock.cxx#4 $)

>  <Rbt.Library>
libRbt.so (2013.1, Build901 2013/11/27)

>  <Rbt.Parameter_File>
/export/apps/rDock/src/rDock_2013.1_src/data/scripts/dock_solv.prm

>  <Rbt.Receptor>
prm/pocket_docking_5.prm

>  <SCORE>
-56.2869

>  <SCORE.INTER>
-58.0397

>  <SCORE.INTER.CONST>
1

>  <SCORE.INTER.POLAR>
-5.52368

>  <SCORE.INTER.ROT>
2

>  <SCORE.INTER.SOLV>
16.2285

>  <SCORE.INTER.VDW>
-30.6237

>  <SCORE.INTER.norm>
-4.4646

>  <SCORE.INTRA>
1.72707

>  <SCORE.INTRA.DIHEDRAL>
1.27054

>  <SCORE.INTRA.DIHEDRAL.0>
1.43995

>  <SCORE.INTRA.POLAR>
0.272593

>  <SCORE.INTRA.POLAR.0>
-0.272593

>  <SCORE.INTRA.REPUL>
0

>  <SCORE.INTRA.REPUL.0>
0

>  <SCORE.INTRA.SOLV>
-0.512632

>  <SCORE.INTRA.SOLV.lig_0>
-22.6728

>  <SCORE.INTRA.VDW>
0.421297

>  <SCORE.INTRA.VDW.0>
-0.754459

>  <SCORE.INTRA.norm>
0.132851

>  <SCORE.RESTR>
0.0257647

>  <SCORE.RESTR.CAVITY>
0.0257647

>  <SCORE.RESTR.norm>
0.0019819

>  <SCORE.SYSTEM>
0

>  <SCORE.SYSTEM.CONST>
0

>  <SCORE.SYSTEM.DIHEDRAL>
0

>  <SCORE.SYSTEM.SOLV>
0

>  <SCORE.SYSTEM.norm>
0

>  <SCORE.heavy>
13

>  <SCORE.norm>
-4.32976

>  <RMSD>
0.783

$$$$
lig.pdb
 OpenBabel11021811453D
libRbt.so/2013.1/901 2013/11/27
 13 14  0  0  0  0  0  0  0  0999 V2000
    2.3136    3.4736   -4.2829 N   0  0  0  0  0  0  0  0  0  0  0  0
    3.5847    2.9539   -4.3033 C   0  0  0  0  0  0  0  0  0  0  0  0
    3.8602    1.8334   -3.6448 N   0  0  0  0  0  0  0  0  0  0  0  0
    2.8987    1.1657   -2.9349 C   0  0  0  0  0  0  0  0  0  0  0  0
    1.5754    1.6727   -2.8799 C   0  0  0  0  0  0  0  0  0  0  0  0
    1.2964    2.8725   -3.5942 C   0  0  0  0  0  0  0  0  0  0  0  0
    0.1799    3.3586   -3.5976 O   0  0  0  0  0  0  0  0  0  0  0  0
    0.8113    0.7610   -2.0285 C   0  0  0  0  0  0  0  0  0  0  0  0
   -0.6281    0.9023   -1.6130 C   0  0  0  0  0  0  0  0  0  0  0  0
   -0.7744    0.5132   -0.2034 N   0  0  0  0  0  0  0  0  0  0  0  0
    1.6597   -0.2114   -1.6715 C   0  0  0  0  0  0  0  0  0  0  0  0
    2.9023    0.0264   -2.1965 N   0  0  0  0  0  0  0  0  0  0  0  0
    4.5696    3.5891   -5.0129 N   0  0  0  0  0  0  0  0  0  0  0  0
  1  6  1  0  0  0  0
  2  1  1  0  0  0  0
  2  3  2  0  0  0  0
  3  4  1  0  0  0  0
  4  5  2  0  0  0  0
  4 12  1  0  0  0  0
  5  8  1  0  0  0  0
  6  7  2  0  0  0  0
  6  5  1  0  0  0  0
  8 11  2  0  0  0  0
  8  9  1  0  0  0  0
 10  9  1  0  0  0  0
 12 11  1  0  0  0  0
 13  2  1  0  0  0  0
M  END
>  <CHROM.1>
-139.65733846,94.33144869,1.85399365,1.79283017,-2.91775385,0.81497401,0.31105511
-0.62500480

>  <Name>
lig.pdb

>  <RI>
2.50021e+07

>  <Rbt.Current_Directory>
/home/itssahil/PROJECTS/Mol_Feturizer/New_Systems/rnas/2l1v

>  <Rbt.Executable>
rbdock ($Id: //depot/dev/client3/rdock/2013.1/src/exe/rbdock.cxx#4 $)

>  <Rbt.Library>
libRbt.so (2013.1, Build901 2013/11/27)

>  <Rbt.Parameter_File>
/export/apps/rDock/src/rDock_2013.1_src/data/scripts/dock_solv.prm

>  <Rbt.Receptor>
prm/pocket_docking_5.prm

>  <SCORE>
-56.3035

>  <SCORE.INTER>
-58.2027

>  <SCORE.INTER.CONST>
1

>  <SCORE.INTER.POLAR>
-5.58461

>  <SCORE.INTER.ROT>
2

>  <SCORE.INTER.SOLV>
16.322

>  <SCORE.INTER.VDW>
-30.5605

>  <SCORE.INTER.norm>
-4.47713

>  <SCORE.INTRA>
1.83714

>  <SCORE.INTRA.DIHEDRAL>
1.55869

>  <SCORE.INTRA.DIHEDRAL.0>
1.43995

>  <SCORE.INTRA.POLAR>
0.272593

>  <SCORE.INTRA.POLAR.0>
-0.272593

>  <SCORE.INTRA.REPUL>
0

>  <SCORE.INTRA.REPUL.0>
0

>  <SCORE.INTRA.SOLV>
-0.520302

>  <SCORE.INTRA.SOLV.lig_0>
-22.6728

>  <SCORE.INTRA.VDW>
0.391128

>  <SCORE.INTRA.VDW.0>
-0.754459

>  <SCORE.INTRA.norm>
0.141318

>  <SCORE.RESTR>
0.0621164

>  <SCORE.RESTR.CAVITY>
0.0621164

>  <SCORE.RESTR.norm>
0.00477819

>  <SCORE.SYSTEM>
0

>  <SCORE.SYSTEM.CONST>
0

>  <SCORE.SYSTEM.DIHEDRAL>
0

>  <SCORE.SYSTEM.SOLV>
0

>  <SCORE.SYSTEM.norm>
0

>  <SCORE.heavy>
13

>  <SCORE.norm>
-4.33104

>  <RMSD>
0.784

$$$$
lig.pdb
 OpenBabel11021811453D
libRbt.so/2013.1/901 2013/11/27
 13 14  0  0  0  0  0  0  0  0999 V2000
    2.3029    3.4491   -4.2773 N   0  0  0  0  0  0  0  0  0  0  0  0
    3.5707    2.9215   -4.2995 C   0  0  0  0  0  0  0  0  0  0  0  0
    3.8416    1.8022   -3.6370 N   0  0  0  0  0  0  0  0  0  0  0  0
    2.8783    1.1436   -2.9209 C   0  0  0  0  0  0  0  0  0  0  0  0
    1.5583    1.6589   -2.8639 C   0  0  0  0  0  0  0  0  0  0  0  0
    1.2843    2.8573   -3.5826 C   0  0  0  0  0  0  0  0  0  0  0  0
    0.1709    3.3502   -3.5844 O   0  0  0  0  0  0  0  0  0  0  0  0
    0.7915    0.7557   -2.0060 C   0  0  0  0  0  0  0  0  0  0  0  0
   -0.6456    0.9076   -1.5863 C   0  0  0  0  0  0  0  0  0  0  0  0
   -0.8165    0.3952   -0.2196 N   0  0  0  0  0  0  0  0  0  0  0  0
    1.6352   -0.2203   -1.6474 C   0  0  0  0  0  0  0  0  0  0  0  0
    2.8774    0.0075   -2.1776 N   0  0  0  0  0  0  0  0  0  0  0  0
    4.5572    3.5475   -5.0152 N   0  0  0  0  0  0  0  0  0  0  0  0
  1  6  1  0  0  0  0
  2  1  1  0  0  0  0
  2  3  2  0  0  0  0
  3  4  1  0  0  0  0
  4  5  2  0  0  0  0
  4 12  1  0  0  0  0
  5  8  1  0  0  0  0
  6  7  2  0  0  0  0
  6  5  1  0  0  0  0
  8 11  2  0  0  0  0
  8  9  1  0  0  0  0
 10  9  1  0  0  0  0
 12 11  1  0  0  0  0
 13  2  1  0  0  0  0
M  END
>  <CHROM.1>
-145.48043493,-78.36908194,1.83467054,1.76504036,-2.90739838,0.81664863,0.30879416
-0.62493677

>  <Name>
lig.pdb

>  <RI>
4.17264e+07

>  <Rbt.Current_Directory>
/home/itssahil/PROJECTS/Mol_Feturizer/New_Systems/rnas/2l1v

>  <Rbt.Executable>
rbdock ($Id: //depot/dev/client3/rdock/2013.1/src/exe/rbdock.cxx#4 $)

>  <Rbt.Library>
libRbt.so (2013.1, Build901 2013/11/27)

>  <Rbt.Parameter_File>
/export/apps/rDock/src/rDock_2013.1_src/data/scripts/dock_solv.prm

>  <Rbt.Receptor>
prm/blind_docking_20.prm

>  <SCORE>
-56.1857

>  <SCORE.INTER>
-57.9782

>  <SCORE.INTER.CONST>
1

>  <SCORE.INTER.POLAR>
-5.51264

>  <SCORE.INTER.ROT>
2

>  <SCORE.INTER.SOLV>
16.1753

>  <SCORE.INTER.VDW>
-30.6018

>  <SCORE.INTER.norm>
-4.45986

>  <SCORE.INTRA>
1.77762

>  <SCORE.INTRA.DIHEDRAL>
1.36007

>  <SCORE.INTRA.DIHEDRAL.0>
1.43995

>  <SCORE.INTRA.POLAR>
0.272593

>  <SCORE.INTRA.POLAR.0>
-0.272593

>  <SCORE.INTRA.REPUL>
0

>  <SCORE.INTRA.REPUL.0>
0

>  <SCORE.INTRA.SOLV>
-0.513554

>  <SCORE.INTRA.SOLV.lig_0>
-22.6728

>  <SCORE.INTRA.VDW>
0.427545

>  <SCORE.INTRA.VDW.0>
-0.754459

>  <SCORE.INTRA.norm>
0.13674

>  <SCORE.RESTR>
0.014868

>  <SCORE.RESTR.CAVITY>
0.014868

>  <SCORE.RESTR.norm>
0.0011437

>  <SCORE.SYSTEM>
0

>  <SCORE.SYSTEM.CONST>
0

>  <SCORE.SYSTEM.DIHEDRAL>
0

>  <SCORE.SYSTEM.SOLV>
0

>  <SCORE.SYSTEM.norm>
0

>  <SCORE.heavy>
13

>  <SCORE.norm>
-4.32198

>  <RMSD>
0.785

$$$$
lig.pdb
 OpenBabel11021811453D
libRbt.so/2013.1/901 2013/11/27
 13 14  0  0  0  0  0  0  0  0999 V2000
    2.3037    3.4540   -4.2833 N   0  0  0  0  0  0  0  0  0  0  0  0
    3.5739    2.9319   -4.2998 C   0  0  0  0  0  0  0  0  0  0  0  0
    3.8486    1.8183   -3.6294 N   0  0  0  0  0  0  0  0  0  0  0  0
    2.8870    1.1600   -2.9109 C   0  0  0  0  0  0  0  0  0  0  0  0
    1.5646    1.6697   -2.8596 C   0  0  0  0  0  0  0  0  0  0  0  0
    1.2865    2.8621   -3.5866 C   0  0  0  0  0  0  0  0  0  0  0  0
    0.1708    3.3500   -3.5938 O   0  0  0  0  0  0  0  0  0  0  0  0
    0.8002    0.7688   -1.9972 C   0  0  0  0  0  0  0  0  0  0  0  0
   -0.6383    0.9169   -1.5811 C   0  0  0  0  0  0  0  0  0  0  0  0
   -0.8140    0.3922   -0.2198 N   0  0  0  0  0  0  0  0  0  0  0  0
    1.6476   -0.2011   -1.6307 C   0  0  0  0  0  0  0  0  0  0  0  0
    2.8898    0.0289   -2.1601 N   0  0  0  0  0  0  0  0  0  0  0  0
    4.5588    3.5577   -5.0178 N   0  0  0  0  0  0  0  0  0  0  0  0
  1  6  1  0  0  0  0
  2  1  1  0  0  0  0
  2  3  2  0  0  0  0
  3  4  1  0  0  0  0
  4  5  2  0  0  0  0
  4 12  1  0  0  0  0
  5  8  1  0  0  0  0
  6  7  2  0  0  0  0
  6  5  1  0  0  0  0
  8 11  2  0  0  0  0
  8  9  1  0  0  0  0
 10  9  1  0  0  0  0
 12 11  1  0  0  0  0
 13  2  1  0  0  0  0
M  END
>  <CHROM.1>
-146.41532884,100.61632543,1.84044457,1.77489954,-2.90403324,0.82049755,0.30316882
-0.63184814

>  <Name>
lig.pdb

>  <RI>
2.50021e+07

>  <Rbt.Current_Directory>
/home/itssahil/PROJECTS/Mol_Feturizer/New_Systems/rnas/2l1v

>  <Rbt.Executable>
rbdock ($Id: //depot/dev/client3/rdock/2013.1/src/exe/rbdock.cxx#4 $)

>  <Rbt.Library>
libRbt.so (2013.1, Build901 2013/11/27)

>  <Rbt.Parameter_File>
/export/apps/rDock/src/rDock_2013.1_src/data/scripts/dock_solv.prm

>  <Rbt.Receptor>
prm/pocket_docking_5.prm

>  <SCORE>
-56.3258

>  <SCORE.INTER>
-58.0572

>  <SCORE.INTER.CONST>
1

>  <SCORE.INTER.POLAR>
-5.5193

>  <SCORE.INTER.ROT>
2

>  <SCORE.INTER.SOLV>
16.1543

>  <SCORE.INTER.VDW>
-30.6252

>  <SCORE.INTER.norm>
-4.46594

>  <SCORE.INTRA>
1.70243

>  <SCORE.INTRA.DIHEDRAL>
1.20055

>  <SCORE.INTRA.DIHEDRAL.0>
1.43995

>  <SCORE.INTRA.POLAR>
0.272593

>  <SCORE.INTRA.POLAR.0>
-0.272593

>  <SCORE.INTRA.REPUL>
0

>  <SCORE.INTRA.REPUL.0>
0

>  <SCORE.INTRA.SOLV>
-0.51103

>  <SCORE.INTRA.SOLV.lig_0>
-22.6728

>  <SCORE.INTRA.VDW>
0.430859

>  <SCORE.INTRA.VDW.0>
-0.754459

>  <SCORE.INTRA.norm>
0.130956

>  <SCORE.RESTR>
0.0290094

>  <SCORE.RESTR.CAVITY>
0.0290094

>  <SCORE.RESTR.norm>
0.00223149

>  <SCORE.SYSTEM>
0

>  <SCORE.SYSTEM.CONST>
0

>  <SCORE.SYSTEM.DIHEDRAL>
0

>  <SCORE.SYSTEM.SOLV>
0

>  <SCORE.SYSTEM.norm>
0

>  <SCORE.heavy>
13

>  <SCORE.norm>
-4.33275

>  <RMSD>
0.785

$$$$
lig.pdb
 OpenBabel11021811453D
libRbt.so/2013.1/901 2013/11/27
 13 14  0  0  0  0  0  0  0  0999 V2000
    2.3181    3.4716   -4.2891 N   0  0  0  0  0  0  0  0  0  0  0  0
    3.5950    2.9660   -4.3009 C   0  0  0  0  0  0  0  0  0  0  0  0
    3.8820    1.8572   -3.6277 N   0  0  0  0  0  0  0  0  0  0  0  0
    2.9269    1.1878   -2.9107 C   0  0  0  0  0  0  0  0  0  0  0  0
    1.5978    1.6805   -2.8643 C   0  0  0  0  0  0  0  0  0  0  0  0
    1.3065    2.8679   -3.5943 C   0  0  0  0  0  0  0  0  0  0  0  0
    0.1847    3.3413   -3.6057 O   0  0  0  0  0  0  0  0  0  0  0  0
    0.8426    0.7712   -2.0026 C   0  0  0  0  0  0  0  0  0  0  0  0
   -0.5990    0.9015   -1.5911 C   0  0  0  0  0  0  0  0  0  0  0  0
   -0.7692    0.3901   -0.2240 N   0  0  0  0  0  0  0  0  0  0  0  0
    1.7014   -0.1869   -1.6318 C   0  0  0  0  0  0  0  0  0  0  0  0
    2.9420    0.0581   -2.1579 N   0  0  0  0  0  0  0  0  0  0  0  0
    4.5739    3.6032   -5.0170 N   0  0  0  0  0  0  0  0  0  0  0  0
  1  6  1  0  0  0  0
  2  1  1  0  0  0  0
  2  3  2  0  0  0  0
  3  4  1  0  0  0  0
  4  5  2  0  0  0  0
  4 12  1  0  0  0  0
  5  8  1  0  0  0  0
  6  7  2  0  0  0  0
  6  5  1  0  0  0  0
  8 11  2  0  0  0  0
  8  9  1  0  0  0  0
 10  9  1  0  0  0  0
 12 11  1  0  0  0  0
 13  2  1  0  0  0  0
M  END
>  <CHROM.1>
-145.81801633,-77.68974622,1.87236594,1.79036004,-2.90769423,0.82865017,0.29409872
-0.63653058

>  <Name>
lig.pdb

>  <RI>
9.54411e+06

>  <Rbt.Current_Directory>
/home/itssahil/PROJECTS/Mol_Feturizer/New_Systems/rnas/2l1v

>  <Rbt.Executable>
rbdock ($Id: //depot/dev/client3/rdock/2013.1/src/exe/rbdock.cxx#4 $)

>  <Rbt.Library>
libRbt.so (2013.1, Build901 2013/11/27)

>  <Rbt.Parameter_File>
/export/apps/rDock/src/rDock_2013.1_src/data/scripts/dock_solv.prm

>  <Rbt.Receptor>
prm/pocket_docking_6.prm

>  <SCORE>
-56.4438

>  <SCORE.INTER>
-58.2962

>  <SCORE.INTER.CONST>
1

>  <SCORE.INTER.POLAR>
-5.63121

>  <SCORE.INTER.ROT>
2

>  <SCORE.INTER.SOLV>
16.1538

>  <SCORE.INTER.VDW>
-30.4114

>  <SCORE.INTER.norm>
-4.48432

>  <SCORE.INTRA>
1.77053

>  <SCORE.INTRA.DIHEDRAL>
1.33948

>  <SCORE.INTRA.DIHEDRAL.0>
1.43995

>  <SCORE.INTRA.POLAR>
0.272593

>  <SCORE.INTRA.POLAR.0>
-0.272593

>  <SCORE.INTRA.REPUL>
0

>  <SCORE.INTRA.REPUL.0>
0

>  <SCORE.INTRA.SOLV>
-0.513096

>  <SCORE.INTRA.SOLV.lig_0>
-22.6728

>  <SCORE.INTRA.VDW>
0.430525

>  <SCORE.INTRA.VDW.0>
-0.754459

>  <SCORE.INTRA.norm>
0.136195

>  <SCORE.RESTR>
0.0819015

>  <SCORE.RESTR.CAVITY>
0.0819015

>  <SCORE.RESTR.norm>
0.00630012

>  <SCORE.SYSTEM>
0

>  <SCORE.SYSTEM.CONST>
0

>  <SCORE.SYSTEM.DIHEDRAL>
0

>  <SCORE.SYSTEM.SOLV>
0

>  <SCORE.SYSTEM.norm>
0

>  <SCORE.heavy>
13

>  <SCORE.norm>
-4.34183

>  <RMSD>
0.785

$$$$
lig.pdb
 OpenBabel11021811453D
libRbt.so/2013.1/901 2013/11/27
 13 14  0  0  0  0  0  0  0  0999 V2000
    2.3008    3.4734   -4.2683 N   0  0  0  0  0  0  0  0  0  0  0  0
    3.5669    2.9427   -4.3052 C   0  0  0  0  0  0  0  0  0  0  0  0
    3.8413    1.8196   -3.6507 N   0  0  0  0  0  0  0  0  0  0  0  0
    2.8832    1.1599   -2.9288 C   0  0  0  0  0  0  0  0  0  0  0  0
    1.5651    1.6782   -2.8567 C   0  0  0  0  0  0  0  0  0  0  0  0
    1.2873    2.8807   -3.5669 C   0  0  0  0  0  0  0  0  0  0  0  0
    0.1751    3.3764   -3.5558 O   0  0  0  0  0  0  0  0  0  0  0  0
    0.8041    0.7728   -1.9959 C   0  0  0  0  0  0  0  0  0  0  0  0
   -0.6285    0.9262   -1.5618 C   0  0  0  0  0  0  0  0  0  0  0  0
   -0.7913    0.3924   -0.2024 N   0  0  0  0  0  0  0  0  0  0  0  0
    1.6487   -0.2071   -1.6501 C   0  0  0  0  0  0  0  0  0  0  0  0
    2.8864    0.0202   -2.1909 N   0  0  0  0  0  0  0  0  0  0  0  0
    4.5481    3.5698   -5.0272 N   0  0  0  0  0  0  0  0  0  0  0  0
  1  6  1  0  0  0  0
  2  1  1  0  0  0  0
  2  3  2  0  0  0  0
  3  4  1  0  0  0  0
  4  5  2  0  0  0  0
  4 12  1  0  0  0  0
  5  8  1  0  0  0  0
  6  7  2  0  0  0  0
  6  5  1  0  0  0  0
  8 11  2  0  0  0  0
  8  9  1  0  0  0  0
 10  9  1  0  0  0  0
 12 11  1  0  0  0  0
 13  2  1  0  0  0  0
M  END
>  <CHROM.1>
-146.17287856,100.70796616,1.84130247,1.78241564,-2.90283571,0.82129341,0.31685588
-0.62091236

>  <Name>
lig.pdb

>  <RI>
9.54411e+06

>  <Rbt.Current_Directory>
/home/itssahil/PROJECTS/Mol_Feturizer/New_Systems/rnas/2l1v

>  <Rbt.Executable>
rbdock ($Id: //depot/dev/client3/rdock/2013.1/src/exe/rbdock.cxx#4 $)

>  <Rbt.Library>
libRbt.so (2013.1, Build901 2013/11/27)

>  <Rbt.Parameter_File>
/export/apps/rDock/src/rDock_2013.1_src/data/scripts/dock_solv.prm

>  <Rbt.Receptor>
prm/pocket_docking_6.prm

>  <SCORE>
-56.3285

>  <SCORE.INTER>
-58.075

>  <SCORE.INTER.CONST>
1

>  <SCORE.INTER.POLAR>
-5.50678

>  <SCORE.INTER.ROT>
2

>  <SCORE.INTER.SOLV>
16.1946

>  <SCORE.INTER.VDW>
-30.6923

>  <SCORE.INTER.norm>
-4.46731

>  <SCORE.INTRA>
1.70769

>  <SCORE.INTRA.DIHEDRAL>
1.21453

>  <SCORE.INTRA.DIHEDRAL.0>
1.43995

>  <SCORE.INTRA.POLAR>
0.272593

>  <SCORE.INTRA.POLAR.0>
-0.272593

>  <SCORE.INTRA.REPUL>
0

>  <SCORE.INTRA.REPUL.0>
0

>  <SCORE.INTRA.SOLV>
-0.511322

>  <SCORE.INTRA.SOLV.lig_0>
-22.6728

>  <SCORE.INTRA.VDW>
0.429273

>  <SCORE.INTRA.VDW.0>
-0.754459

>  <SCORE.INTRA.norm>
0.131361

>  <SCORE.RESTR>
0.0388117

>  <SCORE.RESTR.CAVITY>
0.0388117

>  <SCORE.RESTR.norm>
0.00298552

>  <SCORE.SYSTEM>
0

>  <SCORE.SYSTEM.CONST>
0

>  <SCORE.SYSTEM.DIHEDRAL>
0

>  <SCORE.SYSTEM.SOLV>
0

>  <SCORE.SYSTEM.norm>
0

>  <SCORE.heavy>
13

>  <SCORE.norm>
-4.33296

>  <RMSD>
0.788

$$$$
lig.pdb
 OpenBabel11021811453D
libRbt.so/2013.1/901 2013/11/27
 13 14  0  0  0  0  0  0  0  0999 V2000
    2.3069    3.4838   -4.2512 N   0  0  0  0  0  0  0  0  0  0  0  0
    3.5675    2.9418   -4.3099 C   0  0  0  0  0  0  0  0  0  0  0  0
    3.8352    1.8005   -3.6847 N   0  0  0  0  0  0  0  0  0  0  0  0
    2.8755    1.1328   -2.9722 C   0  0  0  0  0  0  0  0  0  0  0  0
    1.5632    1.6621   -2.8782 C   0  0  0  0  0  0  0  0  0  0  0  0
    1.2925    2.8842   -3.5571 C   0  0  0  0  0  0  0  0  0  0  0  0
    0.1854    3.3903   -3.5261 O   0  0  0  0  0  0  0  0  0  0  0  0
    0.7992    0.7435   -2.0343 C   0  0  0  0  0  0  0  0  0  0  0  0
   -0.6289    0.9003   -1.5865 C   0  0  0  0  0  0  0  0  0  0  0  0
   -0.7524    0.4893   -0.1810 N   0  0  0  0  0  0  0  0  0  0  0  0
    1.6363   -0.2527   -1.7183 C   0  0  0  0  0  0  0  0  0  0  0  0
    2.8725   -0.0244   -2.2622 N   0  0  0  0  0  0  0  0  0  0  0  0
    4.5499    3.5766   -5.0234 N   0  0  0  0  0  0  0  0  0  0  0  0
  1  6  1  0  0  0  0
  2  1  1  0  0  0  0
  2  3  2  0  0  0  0
  3  4  1  0  0  0  0
  4  5  2  0  0  0  0
  4 12  1  0  0  0  0
  5  8  1  0  0  0  0
  6  7  2  0  0  0  0
  6  5  1  0  0  0  0
  8 11  2  0  0  0  0
  8  9  1  0  0  0  0
 10  9  1  0  0  0  0
 12 11  1  0  0  0  0
 13  2  1  0  0  0  0
M  END
>  <CHROM.1>
-139.20188134,-80.19207317,1.84301468,1.77907243,-2.91839396,0.81029373,0.33880127
-0.59906510

>  <Name>
lig.pdb

>  <RI>
2.7104e+07

>  <Rbt.Current_Directory>
/home/itssahil/PROJECTS/Mol_Feturizer/New_Systems/rnas/2l1v

>  <Rbt.Executable>
rbdock ($Id: //depot/dev/client3/rdock/2013.1/src/exe/rbdock.cxx#4 $)

>  <Rbt.Library>
libRbt.so (2013.1, Build901 2013/11/27)

>  <Rbt.Parameter_File>
/export/apps/rDock/src/rDock_2013.1_src/data/scripts/dock_solv.prm

>  <Rbt.Receptor>
prm/pocket_docking_8.prm

>  <SCORE>
-56.0565

>  <SCORE.INTER>
-57.998

>  <SCORE.INTER.CONST>
1

>  <SCORE.INTER.POLAR>
-5.5344

>  <SCORE.INTER.ROT>
2

>  <SCORE.INTER.SOLV>
16.3676

>  <SCORE.INTER.VDW>
-30.6065

>  <SCORE.INTER.norm>
-4.46138

>  <SCORE.INTRA>
1.89937

>  <SCORE.INTRA.DIHEDRAL>
1.70109

>  <SCORE.INTRA.DIHEDRAL.0>
1.43995

>  <SCORE.INTRA.POLAR>
0.272593

>  <SCORE.INTRA.POLAR.0>
-0.272593

>  <SCORE.INTRA.REPUL>
0

>  <SCORE.INTRA.REPUL.0>
0

>  <SCORE.INTRA.SOLV>
-0.522144

>  <SCORE.INTRA.SOLV.lig_0>
-22.6728

>  <SCORE.INTRA.VDW>
0.383076

>  <SCORE.INTRA.VDW.0>
-0.754459

>  <SCORE.INTRA.norm>
0.146105

>  <SCORE.RESTR>
0.0421276

>  <SCORE.RESTR.CAVITY>
0.0421276

>  <SCORE.RESTR.norm>
0.00324058

>  <SCORE.SYSTEM>
0

>  <SCORE.SYSTEM.CONST>
0

>  <SCORE.SYSTEM.DIHEDRAL>
0

>  <SCORE.SYSTEM.SOLV>
0

>  <SCORE.SYSTEM.norm>
0

>  <SCORE.heavy>
13

>  <SCORE.norm>
-4.31204

>  <RMSD>
0.788

$$$$
lig.pdb
 OpenBabel11021811453D
libRbt.so/2013.1/901 2013/11/27
 13 14  0  0  0  0  0  0  0  0999 V2000
    2.3027    3.4555   -4.2765 N   0  0  0  0  0  0  0  0  0  0  0  0
    3.5717    2.9306   -4.2994 C   0  0  0  0  0  0  0  0  0  0  0  0
    3.8454    1.8121   -3.6369 N   0  0  0  0  0  0  0  0  0  0  0  0
    2.8840    1.1515   -2.9202 C   0  0  0  0  0  0  0  0  0  0  0  0
    1.5629    1.6639   -2.8624 C   0  0  0  0  0  0  0  0  0  0  0  0
    1.2858    2.8615   -3.5811 C   0  0  0  0  0  0  0  0  0  0  0  0
    0.1713    3.3520   -3.5824 O   0  0  0  0  0  0  0  0  0  0  0  0
    0.7986    0.7591   -2.0039 C   0  0  0  0  0  0  0  0  0  0  0  0
   -0.6386    0.9079   -1.5834 C   0  0  0  0  0  0  0  0  0  0  0  0
   -0.7851    0.5037   -0.1782 N   0  0  0  0  0  0  0  0  0  0  0  0
    1.6446   -0.2150   -1.6457 C   0  0  0  0  0  0  0  0  0  0  0  0
    2.8860    0.0155   -2.1766 N   0  0  0  0  0  0  0  0  0  0  0  0
    4.5563    3.5587   -5.0158 N   0  0  0  0  0  0  0  0  0  0  0  0
  1  6  1  0  0  0  0
  2  1  1  0  0  0  0
  2  3  2  0  0  0  0
  3  4  1  0  0  0  0
  4  5  2  0  0  0  0
  4 12  1  0  0  0  0
  5  8  1  0  0  0  0
  6  7  2  0  0  0  0
  6  5  1  0  0  0  0
  8 11  2  0  0  0  0
  8  9  1  0  0  0  0
 10  9  1  0  0  0  0
 12 11  1  0  0  0  0
 13  2  1  0  0  0  0
M  END
>  <CHROM.1>
-140.63188401,87.70913732,1.84147690,1.78064445,-2.90247250,0.81507011,0.31469862
-0.62896885

>  <Name>
lig.pdb

>  <RI>
2.50021e+07

>  <Rbt.Current_Directory>
/home/itssahil/PROJECTS/Mol_Feturizer/New_Systems/rnas/2l1v

>  <Rbt.Executable>
rbdock ($Id: //depot/dev/client3/rdock/2013.1/src/exe/rbdock.cxx#4 $)

>  <Rbt.Library>
libRbt.so (2013.1, Build901 2013/11/27)

>  <Rbt.Parameter_File>
/export/apps/rDock/src/rDock_2013.1_src/data/scripts/dock_solv.prm

>  <Rbt.Receptor>
prm/pocket_docking_5.prm

>  <SCORE>
-56.252

>  <SCORE.INTER>
-58.0927

>  <SCORE.INTER.CONST>
1

>  <SCORE.INTER.POLAR>
-5.52214

>  <SCORE.INTER.ROT>
2

>  <SCORE.INTER.SOLV>
16.2531

>  <SCORE.INTER.VDW>
-30.6724

>  <SCORE.INTER.norm>
-4.46867

>  <SCORE.INTRA>
1.8158

>  <SCORE.INTRA.DIHEDRAL>
1.50619

>  <SCORE.INTRA.DIHEDRAL.0>
1.43995

>  <SCORE.INTRA.POLAR>
0.272593

>  <SCORE.INTRA.POLAR.0>
-0.272593

>  <SCORE.INTRA.REPUL>
0

>  <SCORE.INTRA.REPUL.0>
0

>  <SCORE.INTRA.SOLV>
-0.519103

>  <SCORE.INTRA.SOLV.lig_0>
-22.6728

>  <SCORE.INTRA.VDW>
0.395441

>  <SCORE.INTRA.VDW.0>
-0.754459

>  <SCORE.INTRA.norm>
0.139677

>  <SCORE.RESTR>
0.0248952

>  <SCORE.RESTR.CAVITY>
0.0248952

>  <SCORE.RESTR.norm>
0.00191501

>  <SCORE.SYSTEM>
0

>  <SCORE.SYSTEM.CONST>
0

>  <SCORE.SYSTEM.DIHEDRAL>
0

>  <SCORE.SYSTEM.SOLV>
0

>  <SCORE.SYSTEM.norm>
0

>  <SCORE.heavy>
13

>  <SCORE.norm>
-4.32708

>  <RMSD>
0.790

$$$$
lig.pdb
 OpenBabel11021811453D
libRbt.so/2013.1/901 2013/11/27
 13 14  0  0  0  0  0  0  0  0999 V2000
    2.3046    3.4567   -4.2802 N   0  0  0  0  0  0  0  0  0  0  0  0
    3.5743    2.9334   -4.2981 C   0  0  0  0  0  0  0  0  0  0  0  0
    3.8486    1.8195   -3.6280 N   0  0  0  0  0  0  0  0  0  0  0  0
    2.8872    1.1622   -2.9084 C   0  0  0  0  0  0  0  0  0  0  0  0
    1.5653    1.6731   -2.8557 C   0  0  0  0  0  0  0  0  0  0  0  0
    1.2875    2.8657   -3.5824 C   0  0  0  0  0  0  0  0  0  0  0  0
    0.1724    3.3547   -3.5884 O   0  0  0  0  0  0  0  0  0  0  0  0
    0.8010    0.7728   -1.9925 C   0  0  0  0  0  0  0  0  0  0  0  0
   -0.6369    0.9223   -1.5749 C   0  0  0  0  0  0  0  0  0  0  0  0
   -0.7897    0.5021   -0.1750 N   0  0  0  0  0  0  0  0  0  0  0  0
    1.6479   -0.1978   -1.6269 C   0  0  0  0  0  0  0  0  0  0  0  0
    2.8897    0.0310   -2.1576 N   0  0  0  0  0  0  0  0  0  0  0  0
    4.5590    3.5583   -5.0170 N   0  0  0  0  0  0  0  0  0  0  0  0
  1  6  1  0  0  0  0
  2  1  1  0  0  0  0
  2  3  2  0  0  0  0
  3  4  1  0  0  0  0
  4  5  2  0  0  0  0
  4 12  1  0  0  0  0
  5  8  1  0  0  0  0
  6  7  2  0  0  0  0
  6  5  1  0  0  0  0
  8 11  2  0  0  0  0
  8  9  1  0  0  0  0
 10  9  1  0  0  0  0
 12 11  1  0  0  0  0
 13  2  1  0  0  0  0
M  END
>  <CHROM.1>
-141.72303402,-95.84247009,1.84293586,1.78778552,-2.89687420,0.81600561,0.31099744
-0.63489535

>  <Name>
lig.pdb

>  <RI>
2.05237e+07

>  <Rbt.Current_Directory>
/home/itssahil/PROJECTS/Mol_Feturizer/New_Systems/rnas/2l1v

>  <Rbt.Executable>
rbdock ($Id: //depot/dev/client3/rdock/2013.1/src/exe/rbdock.cxx#4 $)

>  <Rbt.Library>
libRbt.so (2013.1, Build901 2013/11/27)

>  <Rbt.Parameter_File>
/export/apps/rDock/src/rDock_2013.1_src/data/scripts/dock_solv.prm

>  <Rbt.Receptor>
prm/blind_docking_100.prm

>  <SCORE>
-56.1813

>  <SCORE.INTER>
-58.0727

>  <SCORE.INTER.CONST>
1

>  <SCORE.INTER.POLAR>
-5.51969

>  <SCORE.INTER.ROT>
2

>  <SCORE.INTER.SOLV>
16.2273

>  <SCORE.INTER.VDW>
-30.6586

>  <SCORE.INTER.norm>
-4.46713

>  <SCORE.INTRA>
1.86328

>  <SCORE.INTRA.DIHEDRAL>
1.57908

>  <SCORE.INTRA.DIHEDRAL.0>
1.43995

>  <SCORE.INTRA.POLAR>
0.272593

>  <SCORE.INTRA.POLAR.0>
-0.272593

>  <SCORE.INTRA.REPUL>
0

>  <SCORE.INTRA.REPUL.0>
0

>  <SCORE.INTRA.SOLV>
-0.51916

>  <SCORE.INTRA.SOLV.lig_0>
-22.6728

>  <SCORE.INTRA.VDW>
0.406504

>  <SCORE.INTRA.VDW.0>
-0.754459

>  <SCORE.INTRA.norm>
0.143329

>  <SCORE.RESTR>
0.0281059

>  <SCORE.RESTR.CAVITY>
0.0281059

>  <SCORE.RESTR.norm>
0.00216199

>  <SCORE.SYSTEM>
0

>  <SCORE.SYSTEM.CONST>
0

>  <SCORE.SYSTEM.DIHEDRAL>
0

>  <SCORE.SYSTEM.SOLV>
0

>  <SCORE.SYSTEM.norm>
0

>  <SCORE.heavy>
13

>  <SCORE.norm>
-4.32164

>  <RMSD>
0.793

$$$$
lig.pdb
 OpenBabel11021811453D
libRbt.so/2013.1/901 2013/11/27
 13 14  0  0  0  0  0  0  0  0999 V2000
    2.3029    3.4550   -4.2755 N   0  0  0  0  0  0  0  0  0  0  0  0
    3.5699    2.9257   -4.3020 C   0  0  0  0  0  0  0  0  0  0  0  0
    3.8399    1.8024   -3.6459 N   0  0  0  0  0  0  0  0  0  0  0  0
    2.8764    1.1411   -2.9327 C   0  0  0  0  0  0  0  0  0  0  0  0
    1.5572    1.6579   -2.8714 C   0  0  0  0  0  0  0  0  0  0  0  0
    1.2841    2.8607   -3.5831 C   0  0  0  0  0  0  0  0  0  0  0  0
    0.1714    3.3552   -3.5812 O   0  0  0  0  0  0  0  0  0  0  0  0
    0.7899    0.7510   -2.0179 C   0  0  0  0  0  0  0  0  0  0  0  0
   -0.6466    0.9026   -1.5959 C   0  0  0  0  0  0  0  0  0  0  0  0
   -0.7595    0.6886   -0.1465 N   0  0  0  0  0  0  0  0  0  0  0  0
    1.6326   -0.2282   -1.6656 C   0  0  0  0  0  0  0  0  0  0  0  0
    2.8746    0.0009   -2.1957 N   0  0  0  0  0  0  0  0  0  0  0  0
    4.5566    3.5544   -5.0150 N   0  0  0  0  0  0  0  0  0  0  0  0
  1  6  1  0  0  0  0
  2  1  1  0  0  0  0
  2  3  2  0  0  0  0
  3  4  1  0  0  0  0
  4  5  2  0  0  0  0
  4 12  1  0  0  0  0
  5  8  1  0  0  0  0
  6  7  2  0  0  0  0
  6  5  1  0  0  0  0
  8 11  2  0  0  0  0
  8  9  1  0  0  0  0
 10  9  1  0  0  0  0
 12 11  1  0  0  0  0
 13  2  1  0  0  0  0
M  END
>  <CHROM.1>
-132.09423064,21.50428946,1.83920736,1.79227284,-2.90665556,0.80166492,0.32736034
-0.62775261

>  <Name>
lig.pdb

>  <RI>
2.7104e+07

>  <Rbt.Current_Directory>
/home/itssahil/PROJECTS/Mol_Feturizer/New_Systems/rnas/2l1v

>  <Rbt.Executable>
rbdock ($Id: //depot/dev/client3/rdock/2013.1/src/exe/rbdock.cxx#4 $)

>  <Rbt.Library>
libRbt.so (2013.1, Build901 2013/11/27)

>  <Rbt.Parameter_File>
/export/apps/rDock/src/rDock_2013.1_src/data/scripts/dock_solv.prm

>  <Rbt.Receptor>
prm/pocket_docking_8.prm

>  <SCORE>
-55.9139

>  <SCORE.INTER>
-58.0391

>  <SCORE.INTER.CONST>
1

>  <SCORE.INTER.POLAR>
-5.51699

>  <SCORE.INTER.ROT>
2

>  <SCORE.INTER.SOLV>
16.4094

>  <SCORE.INTER.VDW>
-30.7059

>  <SCORE.INTER.norm>
-4.46454

>  <SCORE.INTRA>
2.10462

>  <SCORE.INTRA.DIHEDRAL>
2.01632

>  <SCORE.INTRA.DIHEDRAL.0>
1.43995

>  <SCORE.INTRA.POLAR>
0.272593

>  <SCORE.INTRA.POLAR.0>
-0.272593

>  <SCORE.INTRA.REPUL>
0

>  <SCORE.INTRA.REPUL.0>
0

>  <SCORE.INTRA.SOLV>
-0.527577

>  <SCORE.INTRA.SOLV.lig_0>
-22.6728

>  <SCORE.INTRA.VDW>
0.433427

>  <SCORE.INTRA.VDW.0>
-0.754459

>  <SCORE.INTRA.norm>
0.161893

>  <SCORE.RESTR>
0.0205183

>  <SCORE.RESTR.CAVITY>
0.0205183

>  <SCORE.RESTR.norm>
0.00157833

>  <SCORE.SYSTEM>
0

>  <SCORE.SYSTEM.CONST>
0

>  <SCORE.SYSTEM.DIHEDRAL>
0

>  <SCORE.SYSTEM.SOLV>
0

>  <SCORE.SYSTEM.norm>
0

>  <SCORE.heavy>
13

>  <SCORE.norm>
-4.30107

>  <RMSD>
0.793

$$$$
lig.pdb
 OpenBabel11021811453D
libRbt.so/2013.1/901 2013/11/27
 13 14  0  0  0  0  0  0  0  0999 V2000
    2.3017    3.4497   -4.2798 N   0  0  0  0  0  0  0  0  0  0  0  0
    3.5718    2.9275   -4.2961 C   0  0  0  0  0  0  0  0  0  0  0  0
    3.8454    1.8117   -3.6289 N   0  0  0  0  0  0  0  0  0  0  0  0
    2.8826    1.1513   -2.9138 C   0  0  0  0  0  0  0  0  0  0  0  0
    1.5602    1.6611   -2.8629 C   0  0  0  0  0  0  0  0  0  0  0  0
    1.2834    2.8558   -3.5865 C   0  0  0  0  0  0  0  0  0  0  0  0
    0.1678    3.3439   -3.5937 O   0  0  0  0  0  0  0  0  0  0  0  0
    0.7945    0.7574   -2.0044 C   0  0  0  0  0  0  0  0  0  0  0  0
   -0.6446    0.9045   -1.5900 C   0  0  0  0  0  0  0  0  0  0  0  0
   -0.7516    0.7832   -0.1294 N   0  0  0  0  0  0  0  0  0  0  0  0
    1.6412   -0.2137   -1.6398 C   0  0  0  0  0  0  0  0  0  0  0  0
    2.8842    0.0177   -2.1666 N   0  0  0  0  0  0  0  0  0  0  0  0
    4.5579    3.5554   -5.0106 N   0  0  0  0  0  0  0  0  0  0  0  0
  1  6  1  0  0  0  0
  2  1  1  0  0  0  0
  2  3  2  0  0  0  0
  3  4  1  0  0  0  0
  4  5  2  0  0  0  0
  4 12  1  0  0  0  0
  5  8  1  0  0  0  0
  6  7  2  0  0  0  0
  6  5  1  0  0  0  0
  8 11  2  0  0  0  0
  8  9  1  0  0  0  0
 10  9  1  0  0  0  0
 12 11  1  0  0  0  0
 13  2  1  0  0  0  0
M  END
>  <CHROM.1>
-128.71240222,10.38029642,1.84262683,1.80417355,-2.89716323,0.79902875,0.32572822
-0.63793307

>  <Name>
lig.pdb

>  <RI>
2.05237e+07

>  <Rbt.Current_Directory>
/home/itssahil/PROJECTS/Mol_Feturizer/New_Systems/rnas/2l1v

>  <Rbt.Executable>
rbdock ($Id: //depot/dev/client3/rdock/2013.1/src/exe/rbdock.cxx#4 $)

>  <Rbt.Library>
libRbt.so (2013.1, Build901 2013/11/27)

>  <Rbt.Parameter_File>
/export/apps/rDock/src/rDock_2013.1_src/data/scripts/dock_solv.prm

>  <Rbt.Receptor>
prm/blind_docking_100.prm

>  <SCORE>
-55.874

>  <SCORE.INTER>
-58.0483

>  <SCORE.INTER.CONST>
1

>  <SCORE.INTER.POLAR>
-5.51952

>  <SCORE.INTER.ROT>
2

>  <SCORE.INTER.SOLV>
16.4626

>  <SCORE.INTER.VDW>
-30.7213

>  <SCORE.INTER.norm>
-4.46525

>  <SCORE.INTRA>
2.15538

>  <SCORE.INTRA.DIHEDRAL>
2.10071

>  <SCORE.INTRA.DIHEDRAL.0>
1.43995

>  <SCORE.INTRA.POLAR>
0.272593

>  <SCORE.INTRA.POLAR.0>
-0.272593

>  <SCORE.INTRA.REPUL>
0

>  <SCORE.INTRA.REPUL.0>
0

>  <SCORE.INTRA.SOLV>
-0.532053

>  <SCORE.INTRA.SOLV.lig_0>
-22.6728

>  <SCORE.INTRA.VDW>
0.444237

>  <SCORE.INTRA.VDW.0>
-0.754459

>  <SCORE.INTRA.norm>
0.165798

>  <SCORE.RESTR>
0.0188877

>  <SCORE.RESTR.CAVITY>
0.0188877

>  <SCORE.RESTR.norm>
0.0014529

>  <SCORE.SYSTEM>
0

>  <SCORE.SYSTEM.CONST>
0

>  <SCORE.SYSTEM.DIHEDRAL>
0

>  <SCORE.SYSTEM.SOLV>
0

>  <SCORE.SYSTEM.norm>
0

>  <SCORE.heavy>
13

>  <SCORE.norm>
-4.298

>  <RMSD>
0.798

$$$$
lig.pdb
 OpenBabel11021811453D
libRbt.so/2013.1/901 2013/11/27
 13 14  0  0  0  0  0  0  0  0999 V2000
    1.1997    2.9240   -3.1886 N   0  0  0  0  0  0  0  0  0  0  0  0
    2.2677    2.6617   -4.0112 C   0  0  0  0  0  0  0  0  0  0  0  0
    2.8993    1.4953   -3.9366 N   0  0  0  0  0  0  0  0  0  0  0  0
    2.5106    0.5265   -3.0508 C   0  0  0  0  0  0  0  0  0  0  0  0
    1.4184    0.7595   -2.1767 C   0  0  0  0  0  0  0  0  0  0  0  0
    0.7505    2.0135   -2.2723 C   0  0  0  0  0  0  0  0  0  0  0  0
   -0.2004    2.2769   -1.5587 O   0  0  0  0  0  0  0  0  0  0  0  0
    1.2809   -0.4378   -1.3477 C   0  0  0  0  0  0  0  0  0  0  0  0
    0.3031   -0.6544   -0.2246 C   0  0  0  0  0  0  0  0  0  0  0  0
    0.6461    0.2228    0.9034 N   0  0  0  0  0  0  0  0  0  0  0  0
    2.2197   -1.2927   -1.7728 C   0  0  0  0  0  0  0  0  0  0  0  0
    2.9598   -0.7249   -2.7757 N   0  0  0  0  0  0  0  0  0  0  0  0
    2.6772    3.6036   -4.9180 N   0  0  0  0  0  0  0  0  0  0  0  0
  1  6  1  0  0  0  0
  2  1  1  0  0  0  0
  2  3  2  0  0  0  0
  3  4  1  0  0  0  0
  4  5  2  0  0  0  0
  4 12  1  0  0  0  0
  5  8  1  0  0  0  0
  6  7  2  0  0  0  0
  6  5  1  0  0  0  0
  8 11  2  0  0  0  0
  8  9  1  0  0  0  0
 10  9  1  0  0  0  0
 12 11  1  0  0  0  0
 13  2  1  0  0  0  0
M  END
>  <CHROM.1>
-68.37597897,175.72407572,1.59550485,1.08134903,-2.31626656,1.16989156,0.79489023
-0.58869067

>  <Name>
lig.pdb

>  <RI>
4.17264e+07

>  <Rbt.Current_Directory>
/home/itssahil/PROJECTS/Mol_Feturizer/New_Systems/rnas/2l1v

>  <Rbt.Executable>
rbdock ($Id: //depot/dev/client3/rdock/2013.1/src/exe/rbdock.cxx#4 $)

>  <Rbt.Library>
libRbt.so (2013.1, Build901 2013/11/27)

>  <Rbt.Parameter_File>
/export/apps/rDock/src/rDock_2013.1_src/data/scripts/dock_solv.prm

>  <Rbt.Receptor>
prm/blind_docking_20.prm

>  <SCORE>
-33.8781

>  <SCORE.INTER>
-34.9264

>  <SCORE.INTER.CONST>
1

>  <SCORE.INTER.POLAR>
-2.04306

>  <SCORE.INTER.ROT>
2

>  <SCORE.INTER.SOLV>
15.4092

>  <SCORE.INTER.VDW>
-26.5438

>  <SCORE.INTER.norm>
-2.68664

>  <SCORE.INTRA>
1.04471

>  <SCORE.INTRA.DIHEDRAL>
0.138693

>  <SCORE.INTRA.DIHEDRAL.0>
1.43995

>  <SCORE.INTRA.POLAR>
0.272593

>  <SCORE.INTRA.POLAR.0>
-0.272593

>  <SCORE.INTRA.REPUL>
0

>  <SCORE.INTRA.REPUL.0>
0

>  <SCORE.INTRA.SOLV>
-0.173768

>  <SCORE.INTRA.SOLV.lig_0>
-22.6728

>  <SCORE.INTRA.VDW>
0.135429

>  <SCORE.INTRA.VDW.0>
-0.754459

>  <SCORE.INTRA.norm>
0.0803621

>  <SCORE.RESTR>
0.00360202

>  <SCORE.RESTR.CAVITY>
0.00360202

>  <SCORE.RESTR.norm>
0.000277079

>  <SCORE.SYSTEM>
0

>  <SCORE.SYSTEM.CONST>
0

>  <SCORE.SYSTEM.DIHEDRAL>
0

>  <SCORE.SYSTEM.SOLV>
0

>  <SCORE.SYSTEM.norm>
0

>  <SCORE.heavy>
13

>  <SCORE.norm>
-2.60601

>  <RMSD>
1.840

$$$$
lig.pdb
 OpenBabel11021811453D
libRbt.so/2013.1/901 2013/11/27
 13 14  0  0  0  0  0  0  0  0999 V2000
    1.6870    2.0028   -3.4886 N   0  0  0  0  0  0  0  0  0  0  0  0
    2.7664    1.1826   -3.7085 C   0  0  0  0  0  0  0  0  0  0  0  0
    2.9056    0.0588   -3.0136 N   0  0  0  0  0  0  0  0  0  0  0  0
    1.9886   -0.3165   -2.0689 C   0  0  0  0  0  0  0  0  0  0  0  0
    0.8641    0.5059   -1.8038 C   0  0  0  0  0  0  0  0  0  0  0  0
    0.7283    1.7048   -2.5600 C   0  0  0  0  0  0  0  0  0  0  0  0
   -0.2173    2.4530   -2.3904 O   0  0  0  0  0  0  0  0  0  0  0  0
    0.1073   -0.1484   -0.7365 C   0  0  0  0  0  0  0  0  0  0  0  0
   -1.1360    0.3649   -0.0620 C   0  0  0  0  0  0  0  0  0  0  0  0
   -2.2511    0.3660   -1.0191 N   0  0  0  0  0  0  0  0  0  0  0  0
    0.7603   -1.2848   -0.4623 C   0  0  0  0  0  0  0  0  0  0  0  0
    1.8825   -1.3872   -1.2409 N   0  0  0  0  0  0  0  0  0  0  0  0
    3.6980    1.5207   -4.6545 N   0  0  0  0  0  0  0  0  0  0  0  0
  1  6  1  0  0  0  0
  2  1  1  0  0  0  0
  2  3  2  0  0  0  0
  3  4  1  0  0  0  0
  4  5  2  0  0  0  0
  4 12  1  0  0  0  0
  5  8  1  0  0  0  0
  6  7  2  0  0  0  0
  6  5  1  0  0  0  0
  8 11  2  0  0  0  0
  8  9  1  0  0  0  0
 10  9  1  0  0  0  0
 12 11  1  0  0  0  0
 13  2  1  0  0  0  0
M  END
>  <CHROM.1>
67.75923423,20.66927462,1.03770824,0.57735451,-2.13052539,0.58268040,0.44886237
-0.63666062

>  <Name>
lig.pdb

>  <RI>
4.02536e+07

>  <Rbt.Current_Directory>
/home/itssahil/PROJECTS/Mol_Feturizer/New_Systems/rnas/2l1v

>  <Rbt.Executable>
rbdock ($Id: //depot/dev/client3/rdock/2013.1/src/exe/rbdock.cxx#4 $)

>  <Rbt.Library>
libRbt.so (2013.1, Build901 2013/11/27)

>  <Rbt.Parameter_File>
/export/apps/rDock/src/rDock_2013.1_src/data/scripts/dock_solv.prm

>  <Rbt.Receptor>
prm/blind_docking_40.prm

>  <SCORE>
-33.3272

>  <SCORE.INTER>
-34.3555

>  <SCORE.INTER.CONST>
1

>  <SCORE.INTER.POLAR>
-1.98766

>  <SCORE.INTER.ROT>
2

>  <SCORE.INTER.SOLV>
14.8317

>  <SCORE.INTER.VDW>
-26.1553

>  <SCORE.INTER.norm>
-2.64273

>  <SCORE.INTRA>
1.02827

>  <SCORE.INTRA.DIHEDRAL>
0.131359

>  <SCORE.INTRA.DIHEDRAL.0>
1.43995

>  <SCORE.INTRA.POLAR>
0.272593

>  <SCORE.INTRA.POLAR.0>
-0.272593

>  <SCORE.INTRA.REPUL>
0

>  <SCORE.INTRA.REPUL.0>
0

>  <SCORE.INTRA.SOLV>
-0.140561

>  <SCORE.INTRA.SOLV.lig_0>
-22.6728

>  <SCORE.INTRA.VDW>
0.106058

>  <SCORE.INTRA.VDW.0>
-0.754459

>  <SCORE.INTRA.norm>
0.0790978

>  <SCORE.RESTR>
0

>  <SCORE.RESTR.CAVITY>
0

>  <SCORE.RESTR.norm>
0

>  <SCORE.SYSTEM>
0

>  <SCORE.SYSTEM.CONST>
0

>  <SCORE.SYSTEM.DIHEDRAL>
0

>  <SCORE.SYSTEM.SOLV>
0

>  <SCORE.SYSTEM.norm>
0

>  <SCORE.heavy>
13

>  <SCORE.norm>
-2.56363

>  <RMSD>
1.955

$$$$
lig.pdb
 OpenBabel11021811453D
libRbt.so/2013.1/901 2013/11/27
 13 14  0  0  0  0  0  0  0  0999 V2000
    1.8580    2.0422   -3.4573 N   0  0  0  0  0  0  0  0  0  0  0  0
    2.8765    1.1564   -3.7104 C   0  0  0  0  0  0  0  0  0  0  0  0
    2.9611    0.0205   -3.0266 N   0  0  0  0  0  0  0  0  0  0  0  0
    2.0463   -0.3030   -2.0608 C   0  0  0  0  0  0  0  0  0  0  0  0
    0.9840    0.5874   -1.7613 C   0  0  0  0  0  0  0  0  0  0  0  0
    0.9061    1.7987   -2.5060 C   0  0  0  0  0  0  0  0  0  0  0  0
    0.0150    2.6044   -2.3071 O   0  0  0  0  0  0  0  0  0  0  0  0
    0.2143   -0.0258   -0.6790 C   0  0  0  0  0  0  0  0  0  0  0  0
   -0.9760    0.5606    0.0309 C   0  0  0  0  0  0  0  0  0  0  0  0
   -0.7952    0.4330    1.4837 N   0  0  0  0  0  0  0  0  0  0  0  0
    0.7998   -1.2038   -0.4291 C   0  0  0  0  0  0  0  0  0  0  0  0
    1.8929   -1.3715   -1.2372 N   0  0  0  0  0  0  0  0  0  0  0  0
    3.8035    1.4419   -4.6781 N   0  0  0  0  0  0  0  0  0  0  0  0
  1  6  1  0  0  0  0
  2  1  1  0  0  0  0
  2  3  2  0  0  0  0
  3  4  1  0  0  0  0
  4  5  2  0  0  0  0
  4 12  1  0  0  0  0
  5  8  1  0  0  0  0
  6  7  2  0  0  0  0
  6  5  1  0  0  0  0
  8 11  2  0  0  0  0
  8  9  1  0  0  0  0
 10  9  1  0  0  0  0
 12 11  1  0  0  0  0
 13  2  1  0  0  0  0
M  END
>  <CHROM.1>
-131.78517350,99.19864487,1.27642658,0.63070937,-1.86982650,0.67972921,0.69690827
-0.62564586

>  <Name>
lig.pdb

>  <RI>
2.7104e+07

>  <Rbt.Current_Directory>
/home/itssahil/PROJECTS/Mol_Feturizer/New_Systems/rnas/2l1v

>  <Rbt.Executable>
rbdock ($Id: //depot/dev/client3/rdock/2013.1/src/exe/rbdock.cxx#4 $)

>  <Rbt.Library>
libRbt.so (2013.1, Build901 2013/11/27)

>  <Rbt.Parameter_File>
/export/apps/rDock/src/rDock_2013.1_src/data/scripts/dock_solv.prm

>  <Rbt.Receptor>
prm/pocket_docking_8.prm

>  <SCORE>
-27.1998

>  <SCORE.INTER>
-29.1473

>  <SCORE.INTER.CONST>
1

>  <SCORE.INTER.POLAR>
-1.01935

>  <SCORE.INTER.ROT>
2

>  <SCORE.INTER.SOLV>
13.8168

>  <SCORE.INTER.VDW>
-25.5726

>  <SCORE.INTER.norm>
-2.2421

>  <SCORE.INTRA>
1.94747

>  <SCORE.INTRA.DIHEDRAL>
1.90914

>  <SCORE.INTRA.DIHEDRAL.0>
1.43995

>  <SCORE.INTRA.POLAR>
0.272593

>  <SCORE.INTRA.POLAR.0>
-0.272593

>  <SCORE.INTRA.REPUL>
0

>  <SCORE.INTRA.REPUL.0>
0

>  <SCORE.INTRA.SOLV>
-0.532379

>  <SCORE.INTRA.SOLV.lig_0>
-22.6728

>  <SCORE.INTRA.VDW>
0.332278

>  <SCORE.INTRA.VDW.0>
-0.754459

>  <SCORE.INTRA.norm>
0.149806

>  <SCORE.RESTR>
0

>  <SCORE.RESTR.CAVITY>
0

>  <SCORE.RESTR.norm>
0

>  <SCORE.SYSTEM>
0

>  <SCORE.SYSTEM.CONST>
0

>  <SCORE.SYSTEM.DIHEDRAL>
0

>  <SCORE.SYSTEM.SOLV>
0

>  <SCORE.SYSTEM.norm>
0

>  <SCORE.heavy>
13

>  <SCORE.norm>
-2.09229

>  <RMSD>
2.172

$$$$
lig.pdb
 OpenBabel11021811453D
libRbt.so/2013.1/901 2013/11/27
 13 14  0  0  0  0  0  0  0  0999 V2000
    3.4521    1.1917   -3.4138 N   0  0  0  0  0  0  0  0  0  0  0  0
    3.0498    2.2756   -4.1551 C   0  0  0  0  0  0  0  0  0  0  0  0
    1.8166    2.7532   -4.0275 N   0  0  0  0  0  0  0  0  0  0  0  0
    0.9173    2.1905   -3.1620 C   0  0  0  0  0  0  0  0  0  0  0  0
    1.2887    1.0643   -2.3842 C   0  0  0  0  0  0  0  0  0  0  0  0
    2.6151    0.5674   -2.5306 C   0  0  0  0  0  0  0  0  0  0  0  0
    3.0036   -0.3907   -1.8873 O   0  0  0  0  0  0  0  0  0  0  0  0
    0.1124    0.6894   -1.5996 C   0  0  0  0  0  0  0  0  0  0  0  0
   -0.0169   -0.4828   -0.6649 C   0  0  0  0  0  0  0  0  0  0  0  0
   -1.4376   -0.8048   -0.4719 N   0  0  0  0  0  0  0  0  0  0  0  0
   -0.8357    1.5853   -1.9019 C   0  0  0  0  0  0  0  0  0  0  0  0
   -0.3698    2.4730   -2.8352 N   0  0  0  0  0  0  0  0  0  0  0  0
    3.9267    2.8714   -5.0229 N   0  0  0  0  0  0  0  0  0  0  0  0
  1  6  1  0  0  0  0
  2  1  1  0  0  0  0
  2  3  2  0  0  0  0
  3  4  1  0  0  0  0
  4  5  2  0  0  0  0
  4 12  1  0  0  0  0
  5  8  1  0  0  0  0
  6  7  2  0  0  0  0
  6  5  1  0  0  0  0
  8 11  2  0  0  0  0
  8  9  1  0  0  0  0
 10  9  1  0  0  0  0
 12 11  1  0  0  0  0
 13  2  1  0  0  0  0
M  END
>  <CHROM.1>
-158.97027734,58.94343960,1.36426536,1.20808829,-2.62114168,-0.73671479,-0.28823388
2.48839364

>  <Name>
lig.pdb

>  <RI>
1.77584e+07

>  <Rbt.Current_Directory>
/home/itssahil/PROJECTS/Mol_Feturizer/New_Systems/rnas/2l1v

>  <Rbt.Executable>
rbdock ($Id: //depot/dev/client3/rdock/2013.1/src/exe/rbdock.cxx#4 $)

>  <Rbt.Library>
libRbt.so (2013.1, Build901 2013/11/27)

>  <Rbt.Parameter_File>
/export/apps/rDock/src/rDock_2013.1_src/data/scripts/dock_solv.prm

>  <Rbt.Receptor>
prm/blind_docking_80.prm

>  <SCORE>
-39.1911

>  <SCORE.INTER>
-40.6984

>  <SCORE.INTER.CONST>
1

>  <SCORE.INTER.POLAR>
-3.09983

>  <SCORE.INTER.ROT>
2

>  <SCORE.INTER.SOLV>
15.6618

>  <SCORE.INTER.VDW>
-26.9534

>  <SCORE.INTER.norm>
-3.13065

>  <SCORE.INTRA>
1.50734

>  <SCORE.INTRA.DIHEDRAL>
0.557582

>  <SCORE.INTRA.DIHEDRAL.0>
1.43995

>  <SCORE.INTRA.POLAR>
0.272593

>  <SCORE.INTRA.POLAR.0>
-0.272593

>  <SCORE.INTRA.REPUL>
0

>  <SCORE.INTRA.REPUL.0>
0

>  <SCORE.INTRA.SOLV>
-0.498532

>  <SCORE.INTRA.SOLV.lig_0>
-22.6728

>  <SCORE.INTRA.VDW>
0.550999

>  <SCORE.INTRA.VDW.0>
-0.754459

>  <SCORE.INTRA.norm>
0.115949

>  <SCORE.RESTR>
0

>  <SCORE.RESTR.CAVITY>
0

>  <SCORE.RESTR.norm>
0

>  <SCORE.SYSTEM>
0

>  <SCORE.SYSTEM.CONST>
0

>  <SCORE.SYSTEM.DIHEDRAL>
0

>  <SCORE.SYSTEM.SOLV>
0

>  <SCORE.SYSTEM.norm>
0

>  <SCORE.heavy>
13

>  <SCORE.norm>
-3.0147

>  <RMSD>
2.681

$$$$
lig.pdb
 OpenBabel11021811453D
libRbt.so/2013.1/901 2013/11/27
 13 14  0  0  0  0  0  0  0  0999 V2000
    3.4568    1.1867   -3.4105 N   0  0  0  0  0  0  0  0  0  0  0  0
    3.0499    2.2663   -4.1554 C   0  0  0  0  0  0  0  0  0  0  0  0
    1.8154    2.7404   -4.0280 N   0  0  0  0  0  0  0  0  0  0  0  0
    0.9191    2.1782   -3.1591 C   0  0  0  0  0  0  0  0  0  0  0  0
    1.2952    1.0562   -2.3775 C   0  0  0  0  0  0  0  0  0  0  0  0
    2.6230    0.5631   -2.5237 C   0  0  0  0  0  0  0  0  0  0  0  0
    3.0155   -0.3913   -1.8773 O   0  0  0  0  0  0  0  0  0  0  0  0
    0.1212    0.6805   -1.5898 C   0  0  0  0  0  0  0  0  0  0  0  0
   -0.0030   -0.4885   -0.6504 C   0  0  0  0  0  0  0  0  0  0  0  0
   -1.4223   -0.8163   -0.4566 N   0  0  0  0  0  0  0  0  0  0  0  0
   -0.8302    1.5721   -1.8942 C   0  0  0  0  0  0  0  0  0  0  0  0
   -0.3685    2.4577   -2.8316 N   0  0  0  0  0  0  0  0  0  0  0  0
    3.9238    2.8616   -5.0267 N   0  0  0  0  0  0  0  0  0  0  0  0
  1  6  1  0  0  0  0
  2  1  1  0  0  0  0
  2  3  2  0  0  0  0
  3  4  1  0  0  0  0
  4  5  2  0  0  0  0
  4 12  1  0  0  0  0
  5  8  1  0  0  0  0
  6  7  2  0  0  0  0
  6  5  1  0  0  0  0
  8 11  2  0  0  0  0
  8  9  1  0  0  0  0
 10  9  1  0  0  0  0
 12 11  1  0  0  0  0
 13  2  1  0  0  0  0
M  END
>  <CHROM.1>
-158.84318342,57.88766696,1.37000004,1.19911708,-2.61526666,-0.74032581,-0.28716654
2.48366113

>  <Name>
lig.pdb

>  <RI>
4.15415e+07

>  <Rbt.Current_Directory>
/home/itssahil/PROJECTS/Mol_Feturizer/New_Systems/rnas/2l1v

>  <Rbt.Executable>
rbdock ($Id: //depot/dev/client3/rdock/2013.1/src/exe/rbdock.cxx#4 $)

>  <Rbt.Library>
libRbt.so (2013.1, Build901 2013/11/27)

>  <Rbt.Parameter_File>
/export/apps/rDock/src/rDock_2013.1_src/data/scripts/dock_solv.prm

>  <Rbt.Receptor>
prm/blind_docking_60.prm

>  <SCORE>
-39.1766

>  <SCORE.INTER>
-40.6904

>  <SCORE.INTER.CONST>
1

>  <SCORE.INTER.POLAR>
-3.10414

>  <SCORE.INTER.ROT>
2

>  <SCORE.INTER.SOLV>
15.6104

>  <SCORE.INTER.VDW>
-26.9166

>  <SCORE.INTER.norm>
-3.13003

>  <SCORE.INTRA>
1.5138

>  <SCORE.INTRA.DIHEDRAL>
0.567617

>  <SCORE.INTRA.DIHEDRAL.0>
1.43995

>  <SCORE.INTRA.POLAR>
0.272593

>  <SCORE.INTRA.POLAR.0>
-0.272593

>  <SCORE.INTRA.REPUL>
0

>  <SCORE.INTRA.REPUL.0>
0

>  <SCORE.INTRA.SOLV>
-0.498576

>  <SCORE.INTRA.SOLV.lig_0>
-22.6728

>  <SCORE.INTRA.VDW>
0.552467

>  <SCORE.INTRA.VDW.0>
-0.754459

>  <SCORE.INTRA.norm>
0.116446

>  <SCORE.RESTR>
0

>  <SCORE.RESTR.CAVITY>
0

>  <SCORE.RESTR.norm>
0

>  <SCORE.SYSTEM>
0

>  <SCORE.SYSTEM.CONST>
0

>  <SCORE.SYSTEM.DIHEDRAL>
0

>  <SCORE.SYSTEM.SOLV>
0

>  <SCORE.SYSTEM.norm>
0

>  <SCORE.heavy>
13

>  <SCORE.norm>
-3.01358

>  <RMSD>
2.684

$$$$
lig.pdb
 OpenBabel11021811453D
libRbt.so/2013.1/901 2013/11/27
 13 14  0  0  0  0  0  0  0  0999 V2000
    3.2168    1.7071   -3.4841 N   0  0  0  0  0  0  0  0  0  0  0  0
    2.6420    2.7495   -4.1691 C   0  0  0  0  0  0  0  0  0  0  0  0
    1.3584    3.0413   -3.9899 N   0  0  0  0  0  0  0  0  0  0  0  0
    0.5754    2.3241   -3.1256 C   0  0  0  0  0  0  0  0  0  0  0  0
    1.1266    1.2341   -2.4051 C   0  0  0  0  0  0  0  0  0  0  0  0
    2.5046    0.9372   -2.6062 C   0  0  0  0  0  0  0  0  0  0  0  0
    3.0448    0.0208   -2.0136 O   0  0  0  0  0  0  0  0  0  0  0  0
    0.0404    0.6661   -1.6066 C   0  0  0  0  0  0  0  0  0  0  0  0
    0.1078   -0.5468   -0.7184 C   0  0  0  0  0  0  0  0  0  0  0  0
   -1.2530   -1.0107   -0.4141 N   0  0  0  0  0  0  0  0  0  0  0  0
   -1.0339    1.4284   -1.8468 C   0  0  0  0  0  0  0  0  0  0  0  0
   -0.7278    2.4078   -2.7541 N   0  0  0  0  0  0  0  0  0  0  0  0
    3.3982    3.4964   -5.0337 N   0  0  0  0  0  0  0  0  0  0  0  0
  1  6  1  0  0  0  0
  2  1  1  0  0  0  0
  2  3  2  0  0  0  0
  3  4  1  0  0  0  0
  4  5  2  0  0  0  0
  4 12  1  0  0  0  0
  5  8  1  0  0  0  0
  6  7  2  0  0  0  0
  6  5  1  0  0  0  0
  8 11  2  0  0  0  0
  8  9  1  0  0  0  0
 10  9  1  0  0  0  0
 12 11  1  0  0  0  0
 13  2  1  0  0  0  0
M  END
>  <CHROM.1>
-163.49962558,52.38545365,1.17298815,1.40189746,-2.62947222,-0.87151484,-0.22802338
2.48597213

>  <Name>
lig.pdb

>  <RI>
4.17264e+07

>  <Rbt.Current_Directory>
/home/itssahil/PROJECTS/Mol_Feturizer/New_Systems/rnas/2l1v

>  <Rbt.Executable>
rbdock ($Id: //depot/dev/client3/rdock/2013.1/src/exe/rbdock.cxx#4 $)

>  <Rbt.Library>
libRbt.so (2013.1, Build901 2013/11/27)

>  <Rbt.Parameter_File>
/export/apps/rDock/src/rDock_2013.1_src/data/scripts/dock_solv.prm

>  <Rbt.Receptor>
prm/blind_docking_20.prm

>  <SCORE>
-35.4445

>  <SCORE.INTER>
-36.8968

>  <SCORE.INTER.CONST>
1

>  <SCORE.INTER.POLAR>
-2.36445

>  <SCORE.INTER.ROT>
2

>  <SCORE.INTER.SOLV>
16.2465

>  <SCORE.INTER.VDW>
-27.0652

>  <SCORE.INTER.norm>
-2.83822

>  <SCORE.INTRA>
1.45235

>  <SCORE.INTRA.DIHEDRAL>
0.370459

>  <SCORE.INTRA.DIHEDRAL.0>
1.43995

>  <SCORE.INTRA.POLAR>
0.272593

>  <SCORE.INTRA.POLAR.0>
-0.272593

>  <SCORE.INTRA.REPUL>
0

>  <SCORE.INTRA.REPUL.0>
0

>  <SCORE.INTRA.SOLV>
-0.495199

>  <SCORE.INTRA.SOLV.lig_0>
-22.6728

>  <SCORE.INTRA.VDW>
0.587901

>  <SCORE.INTRA.VDW.0>
-0.754459

>  <SCORE.INTRA.norm>
0.111719

>  <SCORE.RESTR>
0

>  <SCORE.RESTR.CAVITY>
0

>  <SCORE.RESTR.norm>
0

>  <SCORE.SYSTEM>
0

>  <SCORE.SYSTEM.CONST>
0

>  <SCORE.SYSTEM.DIHEDRAL>
0

>  <SCORE.SYSTEM.SOLV>
0

>  <SCORE.SYSTEM.norm>
0

>  <SCORE.heavy>
13

>  <SCORE.norm>
-2.7265

>  <RMSD>
2.704

$$$$
lig.pdb
 OpenBabel11021811453D
libRbt.so/2013.1/901 2013/11/27
 13 14  0  0  0  0  0  0  0  0999 V2000
    3.4633    1.0855   -3.4415 N   0  0  0  0  0  0  0  0  0  0  0  0
    3.0681    2.1970   -4.1448 C   0  0  0  0  0  0  0  0  0  0  0  0
    1.8426    2.6861   -3.9901 N   0  0  0  0  0  0  0  0  0  0  0  0
    0.9443    2.1082   -3.1337 C   0  0  0  0  0  0  0  0  0  0  0  0
    1.3082    0.9537   -2.3950 C   0  0  0  0  0  0  0  0  0  0  0  0
    2.6266    0.4447   -2.5699 C   0  0  0  0  0  0  0  0  0  0  0  0
    3.0086   -0.5380   -1.9606 O   0  0  0  0  0  0  0  0  0  0  0  0
    0.1347    0.5695   -1.6108 C   0  0  0  0  0  0  0  0  0  0  0  0
   -0.0010   -0.6296   -0.7118 C   0  0  0  0  0  0  0  0  0  0  0  0
   -1.2881   -0.5724   -0.0051 N   0  0  0  0  0  0  0  0  0  0  0  0
   -0.8045    1.4864   -1.8757 C   0  0  0  0  0  0  0  0  0  0  0  0
   -0.3358    2.3968   -2.7855 N   0  0  0  0  0  0  0  0  0  0  0  0
    3.9445    2.8084   -5.0023 N   0  0  0  0  0  0  0  0  0  0  0  0
  1  6  1  0  0  0  0
  2  1  1  0  0  0  0
  2  3  2  0  0  0  0
  3  4  1  0  0  0  0
  4  5  2  0  0  0  0
  4 12  1  0  0  0  0
  5  8  1  0  0  0  0
  6  7  2  0  0  0  0
  6  5  1  0  0  0  0
  8 11  2  0  0  0  0
  8  9  1  0  0  0  0
 10  9  1  0  0  0  0
 12 11  1  0  0  0  0
 13  2  1  0  0  0  0
M  END
>  <CHROM.1>
174.19403070,108.65228352,1.39610480,1.13792273,-2.58064299,-0.73987260,-0.33521421
2.48235365

>  <Name>
lig.pdb

>  <RI>
2.05237e+07

>  <Rbt.Current_Directory>
/home/itssahil/PROJECTS/Mol_Feturizer/New_Systems/rnas/2l1v

>  <Rbt.Executable>
rbdock ($Id: //depot/dev/client3/rdock/2013.1/src/exe/rbdock.cxx#4 $)

>  <Rbt.Library>
libRbt.so (2013.1, Build901 2013/11/27)

>  <Rbt.Parameter_File>
/export/apps/rDock/src/rDock_2013.1_src/data/scripts/dock_solv.prm

>  <Rbt.Receptor>
prm/blind_docking_100.prm

>  <SCORE>
-36.2555

>  <SCORE.INTER>
-37.5449

>  <SCORE.INTER.CONST>
1

>  <SCORE.INTER.POLAR>
-2.30913

>  <SCORE.INTER.ROT>
2

>  <SCORE.INTER.SOLV>
15.1055

>  <SCORE.INTER.VDW>
-27.3013

>  <SCORE.INTER.norm>
-2.88807

>  <SCORE.INTRA>
1.28937

>  <SCORE.INTRA.DIHEDRAL>
0.0335995

>  <SCORE.INTRA.DIHEDRAL.0>
1.43995

>  <SCORE.INTRA.POLAR>
0.272593

>  <SCORE.INTRA.POLAR.0>
-0.272593

>  <SCORE.INTRA.REPUL>
0

>  <SCORE.INTRA.REPUL.0>
0

>  <SCORE.INTRA.SOLV>
-0.49534

>  <SCORE.INTRA.SOLV.lig_0>
-22.6728

>  <SCORE.INTRA.VDW>
0.593428

>  <SCORE.INTRA.VDW.0>
-0.754459

>  <SCORE.INTRA.norm>
0.0991825

>  <SCORE.RESTR>
0

>  <SCORE.RESTR.CAVITY>
0

>  <SCORE.RESTR.norm>
0

>  <SCORE.SYSTEM>
0

>  <SCORE.SYSTEM.CONST>
0

>  <SCORE.SYSTEM.DIHEDRAL>
0

>  <SCORE.SYSTEM.SOLV>
0

>  <SCORE.SYSTEM.norm>
0

>  <SCORE.heavy>
13

>  <SCORE.norm>
-2.78889

>  <RMSD>
2.711

$$$$
lig.pdb
 OpenBabel11021811453D
libRbt.so/2013.1/901 2013/11/27
 13 14  0  0  0  0  0  0  0  0999 V2000
    3.1803    1.6805   -3.3389 N   0  0  0  0  0  0  0  0  0  0  0  0
    2.5793    2.7024   -4.0322 C   0  0  0  0  0  0  0  0  0  0  0  0
    1.2864    2.9567   -3.8624 N   0  0  0  0  0  0  0  0  0  0  0  0
    0.5195    2.2202   -2.9999 C   0  0  0  0  0  0  0  0  0  0  0  0
    1.0982    1.1501   -2.2711 C   0  0  0  0  0  0  0  0  0  0  0  0
    2.4858    0.8935   -2.4622 C   0  0  0  0  0  0  0  0  0  0  0  0
    3.0491   -0.0038   -1.8620 O   0  0  0  0  0  0  0  0  0  0  0  0
    0.0243    0.5535   -1.4770 C   0  0  0  0  0  0  0  0  0  0  0  0
    0.1219   -0.6530   -0.5830 C   0  0  0  0  0  0  0  0  0  0  0  0
   -1.2188   -1.2129   -0.3630 N   0  0  0  0  0  0  0  0  0  0  0  0
   -1.0706    1.2825   -1.7273 C   0  0  0  0  0  0  0  0  0  0  0  0
   -0.7879    2.2666   -2.6371 N   0  0  0  0  0  0  0  0  0  0  0  0
    3.3185    3.4678   -4.8954 N   0  0  0  0  0  0  0  0  0  0  0  0
  1  6  1  0  0  0  0
  2  1  1  0  0  0  0
  2  3  2  0  0  0  0
  3  4  1  0  0  0  0
  4  5  2  0  0  0  0
  4 12  1  0  0  0  0
  5  8  1  0  0  0  0
  6  7  2  0  0  0  0
  6  5  1  0  0  0  0
  8 11  2  0  0  0  0
  8  9  1  0  0  0  0
 10  9  1  0  0  0  0
 12 11  1  0  0  0  0
 13  2  1  0  0  0  0
M  END
>  <CHROM.1>
-159.49229350,42.16351077,1.14176204,1.31299100,-2.50314167,-0.89252806,-0.20137346
2.48373402

>  <Name>
lig.pdb

>  <RI>
1.77584e+07

>  <Rbt.Current_Directory>
/home/itssahil/PROJECTS/Mol_Feturizer/New_Systems/rnas/2l1v

>  <Rbt.Executable>
rbdock ($Id: //depot/dev/client3/rdock/2013.1/src/exe/rbdock.cxx#4 $)

>  <Rbt.Library>
libRbt.so (2013.1, Build901 2013/11/27)

>  <Rbt.Parameter_File>
/export/apps/rDock/src/rDock_2013.1_src/data/scripts/dock_solv.prm

>  <Rbt.Receptor>
prm/blind_docking_80.prm

>  <SCORE>
-35.3052

>  <SCORE.INTER>
-36.8815

>  <SCORE.INTER.CONST>
1

>  <SCORE.INTER.POLAR>
-2.371

>  <SCORE.INTER.ROT>
2

>  <SCORE.INTER.SOLV>
15.8034

>  <SCORE.INTER.VDW>
-26.8855

>  <SCORE.INTER.norm>
-2.83704

>  <SCORE.INTRA>
1.57624

>  <SCORE.INTRA.DIHEDRAL>
0.582672

>  <SCORE.INTRA.DIHEDRAL.0>
1.43995

>  <SCORE.INTRA.POLAR>
0.272593

>  <SCORE.INTRA.POLAR.0>
-0.272593

>  <SCORE.INTRA.REPUL>
0

>  <SCORE.INTRA.REPUL.0>
0

>  <SCORE.INTRA.SOLV>
-0.496984

>  <SCORE.INTRA.SOLV.lig_0>
-22.6728

>  <SCORE.INTRA.VDW>
0.606578

>  <SCORE.INTRA.VDW.0>
-0.754459

>  <SCORE.INTRA.norm>
0.121249

>  <SCORE.RESTR>
0

>  <SCORE.RESTR.CAVITY>
0

>  <SCORE.RESTR.norm>
0

>  <SCORE.SYSTEM>
0

>  <SCORE.SYSTEM.CONST>
0

>  <SCORE.SYSTEM.DIHEDRAL>
0

>  <SCORE.SYSTEM.SOLV>
0

>  <SCORE.SYSTEM.norm>
0

>  <SCORE.heavy>
13

>  <SCORE.norm>
-2.71579

>  <RMSD>
2.762

$$$$
lig.pdb
 OpenBabel11021811453D
libRbt.so/2013.1/901 2013/11/27
 13 14  0  0  0  0  0  0  0  0999 V2000
    3.4744    1.2260   -3.3291 N   0  0  0  0  0  0  0  0  0  0  0  0
    3.0607    2.2558   -4.1382 C   0  0  0  0  0  0  0  0  0  0  0  0
    1.8199    2.7218   -4.0466 N   0  0  0  0  0  0  0  0  0  0  0  0
    0.9238    2.2002   -3.1526 C   0  0  0  0  0  0  0  0  0  0  0  0
    1.3069    1.1299   -2.3047 C   0  0  0  0  0  0  0  0  0  0  0  0
    2.6414    0.6449   -2.4133 C   0  0  0  0  0  0  0  0  0  0  0  0
    3.0400   -0.2656   -1.7100 O   0  0  0  0  0  0  0  0  0  0  0  0
    0.1316    0.7865   -1.5044 C   0  0  0  0  0  0  0  0  0  0  0  0
    0.0140   -0.3275   -0.4997 C   0  0  0  0  0  0  0  0  0  0  0  0
    0.8509   -1.4601   -0.9195 N   0  0  0  0  0  0  0  0  0  0  0  0
   -0.8278    1.6477   -1.8664 C   0  0  0  0  0  0  0  0  0  0  0  0
   -0.3693    2.4829   -2.8504 N   0  0  0  0  0  0  0  0  0  0  0  0
    3.9340    2.8100   -5.0367 N   0  0  0  0  0  0  0  0  0  0  0  0
  1  6  1  0  0  0  0
  2  1  1  0  0  0  0
  2  3  2  0  0  0  0
  3  4  1  0  0  0  0
  4  5  2  0  0  0  0
  4 12  1  0  0  0  0
  5  8  1  0  0  0  0
  6  7  2  0  0  0  0
  6  5  1  0  0  0  0
  8 11  2  0  0  0  0
  8  9  1  0  0  0  0
 10  9  1  0  0  0  0
 12 11  1  0  0  0  0
 13  2  1  0  0  0  0
M  END
>  <CHROM.1>
-32.46153717,-121.38183066,1.59216944,1.18486871,-2.60779433,-0.91277719
-0.31670276,2.47622479

>  <Name>
lig.pdb

>  <RI>
4.17264e+07

>  <Rbt.Current_Directory>
/home/itssahil/PROJECTS/Mol_Feturizer/New_Systems/rnas/2l1v

>  <Rbt.Executable>
rbdock ($Id: //depot/dev/client3/rdock/2013.1/src/exe/rbdock.cxx#4 $)

>  <Rbt.Library>
libRbt.so (2013.1, Build901 2013/11/27)

>  <Rbt.Parameter_File>
/export/apps/rDock/src/rDock_2013.1_src/data/scripts/dock_solv.prm

>  <Rbt.Receptor>
prm/blind_docking_20.prm

>  <SCORE>
-38.9761

>  <SCORE.INTER>
-38.0519

>  <SCORE.INTER.CONST>
1

>  <SCORE.INTER.POLAR>
-2.47039

>  <SCORE.INTER.ROT>
2

>  <SCORE.INTER.SOLV>
16.3687

>  <SCORE.INTER.VDW>
-27.5229

>  <SCORE.INTER.norm>
-2.92707

>  <SCORE.INTRA>
-0.924222

>  <SCORE.INTRA.DIHEDRAL>
0.907196

>  <SCORE.INTRA.DIHEDRAL.0>
1.43995

>  <SCORE.INTRA.POLAR>
-0.541346

>  <SCORE.INTRA.POLAR.0>
-0.272593

>  <SCORE.INTRA.REPUL>
0

>  <SCORE.INTRA.REPUL.0>
0

>  <SCORE.INTRA.SOLV>
0.214365

>  <SCORE.INTRA.SOLV.lig_0>
-22.6728

>  <SCORE.INTRA.VDW>
0.355573

>  <SCORE.INTRA.VDW.0>
-0.754459

>  <SCORE.INTRA.norm>
-0.071094

>  <SCORE.RESTR>
0

>  <SCORE.RESTR.CAVITY>
0

>  <SCORE.RESTR.norm>
0

>  <SCORE.SYSTEM>
0

>  <SCORE.SYSTEM.CONST>
0

>  <SCORE.SYSTEM.DIHEDRAL>
0

>  <SCORE.SYSTEM.SOLV>
0

>  <SCORE.SYSTEM.norm>
0

>  <SCORE.heavy>
13

>  <SCORE.norm>
-2.99816

>  <RMSD>
2.769

$$$$
lig.pdb
 OpenBabel11021811453D
libRbt.so/2013.1/901 2013/11/27
 13 14  0  0  0  0  0  0  0  0999 V2000
    3.4860    1.2348   -3.3106 N   0  0  0  0  0  0  0  0  0  0  0  0
    3.0630    2.2551   -4.1270 C   0  0  0  0  0  0  0  0  0  0  0  0
    1.8174    2.7089   -4.0404 N   0  0  0  0  0  0  0  0  0  0  0  0
    0.9252    2.1839   -3.1444 C   0  0  0  0  0  0  0  0  0  0  0  0
    1.3179    1.1231   -2.2890 C   0  0  0  0  0  0  0  0  0  0  0  0
    2.6574    0.6512   -2.3923 C   0  0  0  0  0  0  0  0  0  0  0  0
    3.0643   -0.2507   -1.6825 O   0  0  0  0  0  0  0  0  0  0  0  0
    0.1449    0.7729   -1.4883 C   0  0  0  0  0  0  0  0  0  0  0  0
    0.0370   -0.3358   -0.4765 C   0  0  0  0  0  0  0  0  0  0  0  0
    0.8694   -1.4708   -0.8988 N   0  0  0  0  0  0  0  0  0  0  0  0
   -0.8227    1.6218   -1.8574 C   0  0  0  0  0  0  0  0  0  0  0  0
   -0.3712    2.4553   -2.8461 N   0  0  0  0  0  0  0  0  0  0  0  0
    3.9321    2.8124   -5.0277 N   0  0  0  0  0  0  0  0  0  0  0  0
  1  6  1  0  0  0  0
  2  1  1  0  0  0  0
  2  3  2  0  0  0  0
  3  4  1  0  0  0  0
  4  5  2  0  0  0  0
  4 12  1  0  0  0  0
  5  8  1  0  0  0  0
  6  7  2  0  0  0  0
  6  5  1  0  0  0  0
  8 11  2  0  0  0  0
  8  9  1  0  0  0  0
 10  9  1  0  0  0  0
 12 11  1  0  0  0  0
 13  2  1  0  0  0  0
M  END
>  <CHROM.1>
-33.36822377,62.59682763,1.60147329,1.17835753,-2.59335514,-0.91840950,-0.30913343
2.46935745

>  <Name>
lig.pdb

>  <RI>
4.02536e+07

>  <Rbt.Current_Directory>
/home/itssahil/PROJECTS/Mol_Feturizer/New_Systems/rnas/2l1v

>  <Rbt.Executable>
rbdock ($Id: //depot/dev/client3/rdock/2013.1/src/exe/rbdock.cxx#4 $)

>  <Rbt.Library>
libRbt.so (2013.1, Build901 2013/11/27)

>  <Rbt.Parameter_File>
/export/apps/rDock/src/rDock_2013.1_src/data/scripts/dock_solv.prm

>  <Rbt.Receptor>
prm/blind_docking_40.prm

>  <SCORE>
-38.9462

>  <SCORE.INTER>
-37.9839

>  <SCORE.INTER.CONST>
1

>  <SCORE.INTER.POLAR>
-2.5258

>  <SCORE.INTER.ROT>
2

>  <SCORE.INTER.SOLV>
16.2938

>  <SCORE.INTER.VDW>
-27.2678

>  <SCORE.INTER.norm>
-2.92184

>  <SCORE.INTRA>
-0.962263

>  <SCORE.INTRA.DIHEDRAL>
0.844583

>  <SCORE.INTRA.DIHEDRAL.0>
1.43995

>  <SCORE.INTRA.POLAR>
-0.524851

>  <SCORE.INTRA.POLAR.0>
-0.272593

>  <SCORE.INTRA.REPUL>
0

>  <SCORE.INTRA.REPUL.0>
0

>  <SCORE.INTRA.SOLV>
0.203525

>  <SCORE.INTRA.SOLV.lig_0>
-22.6728

>  <SCORE.INTRA.VDW>
0.298175

>  <SCORE.INTRA.VDW.0>
-0.754459

>  <SCORE.INTRA.norm>
-0.0740203

>  <SCORE.RESTR>
0

>  <SCORE.RESTR.CAVITY>
0

>  <SCORE.RESTR.norm>
0

>  <SCORE.SYSTEM>
0

>  <SCORE.SYSTEM.CONST>
0

>  <SCORE.SYSTEM.DIHEDRAL>
0

>  <SCORE.SYSTEM.SOLV>
0

>  <SCORE.SYSTEM.norm>
0

>  <SCORE.heavy>
13

>  <SCORE.norm>
-2.99586

>  <RMSD>
2.773

$$$$
lig.pdb
 OpenBabel11021811453D
libRbt.so/2013.1/901 2013/11/27
 13 14  0  0  0  0  0  0  0  0999 V2000
    3.4969    1.2450   -3.2731 N   0  0  0  0  0  0  0  0  0  0  0  0
    3.0714    2.2542   -4.1017 C   0  0  0  0  0  0  0  0  0  0  0  0
    1.8236    2.7036   -4.0230 N   0  0  0  0  0  0  0  0  0  0  0  0
    0.9317    2.1848   -3.1231 C   0  0  0  0  0  0  0  0  0  0  0  0
    1.3270    1.1353   -2.2550 C   0  0  0  0  0  0  0  0  0  0  0  0
    2.6688    0.6681   -2.3502 C   0  0  0  0  0  0  0  0  0  0  0  0
    3.0779   -0.2240   -1.6294 O   0  0  0  0  0  0  0  0  0  0  0  0
    0.1537    0.7890   -1.4531 C   0  0  0  0  0  0  0  0  0  0  0  0
    0.0483   -0.3088   -0.4292 C   0  0  0  0  0  0  0  0  0  0  0  0
    0.8895   -1.4433   -0.8350 N   0  0  0  0  0  0  0  0  0  0  0  0
   -0.8167    1.6295   -1.8337 C   0  0  0  0  0  0  0  0  0  0  0  0
   -0.3666    2.4538   -2.8307 N   0  0  0  0  0  0  0  0  0  0  0  0
    3.9400    2.8051   -5.0067 N   0  0  0  0  0  0  0  0  0  0  0  0
  1  6  1  0  0  0  0
  2  1  1  0  0  0  0
  2  3  2  0  0  0  0
  3  4  1  0  0  0  0
  4  5  2  0  0  0  0
  4 12  1  0  0  0  0
  5  8  1  0  0  0  0
  6  7  2  0  0  0  0
  6  5  1  0  0  0  0
  8 11  2  0  0  0  0
  8  9  1  0  0  0  0
 10  9  1  0  0  0  0
 12 11  1  0  0  0  0
 13  2  1  0  0  0  0
M  END
>  <CHROM.1>
-33.20513788,62.34438745,1.61127717,1.18852664,-2.55920942,-0.92069989,-0.30468924
2.45724306

>  <Name>
lig.pdb

>  <RI>
4.02536e+07

>  <Rbt.Current_Directory>
/home/itssahil/PROJECTS/Mol_Feturizer/New_Systems/rnas/2l1v

>  <Rbt.Executable>
rbdock ($Id: //depot/dev/client3/rdock/2013.1/src/exe/rbdock.cxx#4 $)

>  <Rbt.Library>
libRbt.so (2013.1, Build901 2013/11/27)

>  <Rbt.Parameter_File>
/export/apps/rDock/src/rDock_2013.1_src/data/scripts/dock_solv.prm

>  <Rbt.Receptor>
prm/blind_docking_40.prm

>  <SCORE>
-38.9868

>  <SCORE.INTER>
-38.0294

>  <SCORE.INTER.CONST>
1

>  <SCORE.INTER.POLAR>
-2.55153

>  <SCORE.INTER.ROT>
2

>  <SCORE.INTER.SOLV>
16.1269

>  <SCORE.INTER.VDW>
-27.1568

>  <SCORE.INTER.norm>
-2.92534

>  <SCORE.INTRA>
-0.957374

>  <SCORE.INTRA.DIHEDRAL>
0.854608

>  <SCORE.INTRA.DIHEDRAL.0>
1.43995

>  <SCORE.INTRA.POLAR>
-0.527672

>  <SCORE.INTRA.POLAR.0>
-0.272593

>  <SCORE.INTRA.REPUL>
0

>  <SCORE.INTRA.REPUL.0>
0

>  <SCORE.INTRA.SOLV>
0.205616

>  <SCORE.INTRA.SOLV.lig_0>
-22.6728

>  <SCORE.INTRA.VDW>
0.306598

>  <SCORE.INTRA.VDW.0>
-0.754459

>  <SCORE.INTRA.norm>
-0.0736441

>  <SCORE.RESTR>
0

>  <SCORE.RESTR.CAVITY>
0

>  <SCORE.RESTR.norm>
0

>  <SCORE.SYSTEM>
0

>  <SCORE.SYSTEM.CONST>
0

>  <SCORE.SYSTEM.DIHEDRAL>
0

>  <SCORE.SYSTEM.SOLV>
0

>  <SCORE.SYSTEM.norm>
0

>  <SCORE.heavy>
13

>  <SCORE.norm>
-2.99898

>  <RMSD>
2.780

$$$$
lig.pdb
 OpenBabel11021811453D
libRbt.so/2013.1/901 2013/11/27
 13 14  0  0  0  0  0  0  0  0999 V2000
    3.2793    1.8527   -3.3263 N   0  0  0  0  0  0  0  0  0  0  0  0
    2.6867    2.8335   -4.0832 C   0  0  0  0  0  0  0  0  0  0  0  0
    1.3893    3.0878   -3.9523 N   0  0  0  0  0  0  0  0  0  0  0  0
    0.6094    2.3919   -3.0681 C   0  0  0  0  0  0  0  0  0  0  0  0
    1.1792    1.3646   -2.2737 C   0  0  0  0  0  0  0  0  0  0  0  0
    2.5717    1.1075   -2.4239 C   0  0  0  0  0  0  0  0  0  0  0  0
    3.1277    0.2460   -1.7671 O   0  0  0  0  0  0  0  0  0  0  0  0
    0.0929    0.8028   -1.4711 C   0  0  0  0  0  0  0  0  0  0  0  0
    0.1792   -0.3553   -0.5141 C   0  0  0  0  0  0  0  0  0  0  0  0
    1.1770   -1.3201   -0.9969 N   0  0  0  0  0  0  0  0  0  0  0  0
   -1.0008    1.5107   -1.7804 C   0  0  0  0  0  0  0  0  0  0  0  0
   -0.7053    2.4484   -2.7340 N   0  0  0  0  0  0  0  0  0  0  0  0
    3.4388    3.5581   -4.9700 N   0  0  0  0  0  0  0  0  0  0  0  0
  1  6  1  0  0  0  0
  2  1  1  0  0  0  0
  2  3  2  0  0  0  0
  3  4  1  0  0  0  0
  4  5  2  0  0  0  0
  4 12  1  0  0  0  0
  5  8  1  0  0  0  0
  6  7  2  0  0  0  0
  6  5  1  0  0  0  0
  8 11  2  0  0  0  0
  8  9  1  0  0  0  0
 10  9  1  0  0  0  0
 12 11  1  0  0  0  0
 13  2  1  0  0  0  0
M  END
>  <CHROM.1>
-32.54991601,-120.44494882,1.44481107,1.47722769,-2.57855612,-1.05785702
-0.23121326,2.47933517

>  <Name>
lig.pdb

>  <RI>
1.459e+07

>  <Rbt.Current_Directory>
/home/itssahil/PROJECTS/Mol_Feturizer/New_Systems/rnas/2l1v

>  <Rbt.Executable>
rbdock ($Id: //depot/dev/client3/rdock/2013.1/src/exe/rbdock.cxx#4 $)

>  <Rbt.Library>
libRbt.so (2013.1, Build901 2013/11/27)

>  <Rbt.Parameter_File>
/export/apps/rDock/src/rDock_2013.1_src/data/scripts/dock_solv.prm

>  <Rbt.Receptor>
prm/pocket_docking_2.prm

>  <SCORE>
-35.2529

>  <SCORE.INTER>
-34.5484

>  <SCORE.INTER.CONST>
1

>  <SCORE.INTER.POLAR>
-1.80354

>  <SCORE.INTER.ROT>
2

>  <SCORE.INTER.SOLV>
16.9137

>  <SCORE.INTER.VDW>
-27.5917

>  <SCORE.INTER.norm>
-2.65757

>  <SCORE.INTRA>
-0.926523

>  <SCORE.INTRA.DIHEDRAL>
0.90544

>  <SCORE.INTRA.DIHEDRAL.0>
1.43995

>  <SCORE.INTRA.POLAR>
-0.537677

>  <SCORE.INTRA.POLAR.0>
-0.272593

>  <SCORE.INTRA.REPUL>
0

>  <SCORE.INTRA.REPUL.0>
0

>  <SCORE.INTRA.SOLV>
0.211661

>  <SCORE.INTRA.SOLV.lig_0>
-22.6728

>  <SCORE.INTRA.VDW>
0.343029

>  <SCORE.INTRA.VDW.0>
-0.754459

>  <SCORE.INTRA.norm>
-0.071271

>  <SCORE.RESTR>
0.221998

>  <SCORE.RESTR.CAVITY>
0.221998

>  <SCORE.RESTR.norm>
0.0170768

>  <SCORE.SYSTEM>
0

>  <SCORE.SYSTEM.CONST>
0

>  <SCORE.SYSTEM.DIHEDRAL>
0

>  <SCORE.SYSTEM.SOLV>
0

>  <SCORE.SYSTEM.norm>
0

>  <SCORE.heavy>
13

>  <SCORE.norm>
-2.71176

>  <RMSD>
2.786

$$$$
lig.pdb
 OpenBabel11021811453D
libRbt.so/2013.1/901 2013/11/27
 13 14  0  0  0  0  0  0  0  0999 V2000
    3.2477    1.8098   -3.3631 N   0  0  0  0  0  0  0  0  0  0  0  0
    2.6499    2.7997   -4.1042 C   0  0  0  0  0  0  0  0  0  0  0  0
    1.3576    3.0652   -3.9474 N   0  0  0  0  0  0  0  0  0  0  0  0
    0.5882    2.3724   -3.0517 C   0  0  0  0  0  0  0  0  0  0  0  0
    1.1635    1.3362   -2.2729 C   0  0  0  0  0  0  0  0  0  0  0  0
    2.5504    1.0670   -2.4508 C   0  0  0  0  0  0  0  0  0  0  0  0
    3.1108    0.1973   -1.8087 O   0  0  0  0  0  0  0  0  0  0  0  0
    0.0875    0.7806   -1.4523 C   0  0  0  0  0  0  0  0  0  0  0  0
    0.1812   -0.3827   -0.5024 C   0  0  0  0  0  0  0  0  0  0  0  0
    1.1351   -1.3705   -1.0258 N   0  0  0  0  0  0  0  0  0  0  0  0
   -1.0053    1.5000   -1.7375 C   0  0  0  0  0  0  0  0  0  0  0  0
   -0.7193    2.4394   -2.6923 N   0  0  0  0  0  0  0  0  0  0  0  0
    3.3917    3.5214   -5.0019 N   0  0  0  0  0  0  0  0  0  0  0  0
  1  6  1  0  0  0  0
  2  1  1  0  0  0  0
  2  3  2  0  0  0  0
  3  4  1  0  0  0  0
  4  5  2  0  0  0  0
  4 12  1  0  0  0  0
  5  8  1  0  0  0  0
  6  7  2  0  0  0  0
  6  5  1  0  0  0  0
  8 11  2  0  0  0  0
  8  9  1  0  0  0  0
 10  9  1  0  0  0  0
 12 11  1  0  0  0  0
 13  2  1  0  0  0  0
M  END
>  <CHROM.1>
-33.99390808,-118.23960891,1.42191349,1.44628066,-2.58390358,-1.06046415
-0.25238185,2.48558102

>  <Name>
lig.pdb

>  <RI>
1.77584e+07

>  <Rbt.Current_Directory>
/home/itssahil/PROJECTS/Mol_Feturizer/New_Systems/rnas/2l1v

>  <Rbt.Executable>
rbdock ($Id: //depot/dev/client3/rdock/2013.1/src/exe/rbdock.cxx#4 $)

>  <Rbt.Library>
libRbt.so (2013.1, Build901 2013/11/27)

>  <Rbt.Parameter_File>
/export/apps/rDock/src/rDock_2013.1_src/data/scripts/dock_solv.prm

>  <Rbt.Receptor>
prm/blind_docking_80.prm

>  <SCORE>
-35.5986

>  <SCORE.INTER>
-34.6693

>  <SCORE.INTER.CONST>
1

>  <SCORE.INTER.POLAR>
-1.80869

>  <SCORE.INTER.ROT>
2

>  <SCORE.INTER.SOLV>
16.9621

>  <SCORE.INTER.VDW>
-27.6713

>  <SCORE.INTER.norm>
-2.66687

>  <SCORE.INTRA>
-0.939858

>  <SCORE.INTRA.DIHEDRAL>
0.831928

>  <SCORE.INTRA.DIHEDRAL.0>
1.43995

>  <SCORE.INTRA.POLAR>
-0.506622

>  <SCORE.INTRA.POLAR.0>
-0.272593

>  <SCORE.INTRA.REPUL>
0

>  <SCORE.INTRA.REPUL.0>
0

>  <SCORE.INTRA.SOLV>
0.194871

>  <SCORE.INTRA.SOLV.lig_0>
-22.6728

>  <SCORE.INTRA.VDW>
0.269257

>  <SCORE.INTRA.VDW.0>
-0.754459

>  <SCORE.INTRA.norm>
-0.0722968

>  <SCORE.RESTR>
0.010591

>  <SCORE.RESTR.CAVITY>
0.010591

>  <SCORE.RESTR.norm>
0.000814694

>  <SCORE.SYSTEM>
0

>  <SCORE.SYSTEM.CONST>
0

>  <SCORE.SYSTEM.DIHEDRAL>
0

>  <SCORE.SYSTEM.SOLV>
0

>  <SCORE.SYSTEM.norm>
0

>  <SCORE.heavy>
13

>  <SCORE.norm>
-2.73835

>  <RMSD>
2.790

$$$$
lig.pdb
 OpenBabel11021811453D
libRbt.so/2013.1/901 2013/11/27
 13 14  0  0  0  0  0  0  0  0999 V2000
    3.1683    1.6945   -3.4193 N   0  0  0  0  0  0  0  0  0  0  0  0
    2.4753    2.7019   -4.0446 C   0  0  0  0  0  0  0  0  0  0  0  0
    1.1809    2.8755   -3.8004 N   0  0  0  0  0  0  0  0  0  0  0  0
    0.5031    2.0686   -2.9264 C   0  0  0  0  0  0  0  0  0  0  0  0
    1.1785    1.0107   -2.2661 C   0  0  0  0  0  0  0  0  0  0  0  0
    2.5662    0.8409   -2.5365 C   0  0  0  0  0  0  0  0  0  0  0  0
    3.2097   -0.0414   -1.9978 O   0  0  0  0  0  0  0  0  0  0  0  0
    0.1831    0.3278   -1.4398 C   0  0  0  0  0  0  0  0  0  0  0  0
    0.3952   -0.8993   -0.5950 C   0  0  0  0  0  0  0  0  0  0  0  0
   -0.8774   -1.2986    0.0219 N   0  0  0  0  0  0  0  0  0  0  0  0
   -0.9626    1.0001   -1.6083 C   0  0  0  0  0  0  0  0  0  0  0  0
   -0.7839    2.0277   -2.4960 N   0  0  0  0  0  0  0  0  0  0  0  0
    3.1238    3.5360   -4.9168 N   0  0  0  0  0  0  0  0  0  0  0  0
  1  6  1  0  0  0  0
  2  1  1  0  0  0  0
  2  3  2  0  0  0  0
  3  4  1  0  0  0  0
  4  5  2  0  0  0  0
  4 12  1  0  0  0  0
  5  8  1  0  0  0  0
  6  7  2  0  0  0  0
  6  5  1  0  0  0  0
  8 11  2  0  0  0  0
  8  9  1  0  0  0  0
 10  9  1  0  0  0  0
 12 11  1  0  0  0  0
 13  2  1  0  0  0  0
M  END
>  <CHROM.1>
-177.19608904,122.06159683,1.20247646,1.20583339,-2.46185075,-0.97129768
-0.22465627,2.47450597

>  <Name>
lig.pdb

>  <RI>
4.17264e+07

>  <Rbt.Current_Directory>
/home/itssahil/PROJECTS/Mol_Feturizer/New_Systems/rnas/2l1v

>  <Rbt.Executable>
rbdock ($Id: //depot/dev/client3/rdock/2013.1/src/exe/rbdock.cxx#4 $)

>  <Rbt.Library>
libRbt.so (2013.1, Build901 2013/11/27)

>  <Rbt.Parameter_File>
/export/apps/rDock/src/rDock_2013.1_src/data/scripts/dock_solv.prm

>  <Rbt.Receptor>
prm/blind_docking_20.prm

>  <SCORE>
-34.2065

>  <SCORE.INTER>
-35.5346

>  <SCORE.INTER.CONST>
1

>  <SCORE.INTER.POLAR>
-1.83235

>  <SCORE.INTER.ROT>
2

>  <SCORE.INTER.SOLV>
15.2628

>  <SCORE.INTER.VDW>
-27.6029

>  <SCORE.INTER.norm>
-2.73343

>  <SCORE.INTRA>
1.32816

>  <SCORE.INTRA.DIHEDRAL>
0.0171079

>  <SCORE.INTRA.DIHEDRAL.0>
1.43995

>  <SCORE.INTRA.POLAR>
0.272593

>  <SCORE.INTRA.POLAR.0>
-0.272593

>  <SCORE.INTRA.REPUL>
0

>  <SCORE.INTRA.REPUL.0>
0

>  <SCORE.INTRA.SOLV>
-0.491957

>  <SCORE.INTRA.SOLV.lig_0>
-22.6728

>  <SCORE.INTRA.VDW>
0.638769

>  <SCORE.INTRA.VDW.0>
-0.754459

>  <SCORE.INTRA.norm>
0.102166

>  <SCORE.RESTR>
0

>  <SCORE.RESTR.CAVITY>
0

>  <SCORE.RESTR.norm>
0

>  <SCORE.SYSTEM>
0

>  <SCORE.SYSTEM.CONST>
0

>  <SCORE.SYSTEM.DIHEDRAL>
0

>  <SCORE.SYSTEM.SOLV>
0

>  <SCORE.SYSTEM.norm>
0

>  <SCORE.heavy>
13

>  <SCORE.norm>
-2.63127

>  <RMSD>
2.794

$$$$
lig.pdb
 OpenBabel11021811453D
libRbt.so/2013.1/901 2013/11/27
 13 14  0  0  0  0  0  0  0  0999 V2000
    3.4534    1.1025   -3.4399 N   0  0  0  0  0  0  0  0  0  0  0  0
    3.0667    2.2285   -4.1247 C   0  0  0  0  0  0  0  0  0  0  0  0
    1.8416    2.7186   -3.9694 N   0  0  0  0  0  0  0  0  0  0  0  0
    0.9355    2.1276   -3.1303 C   0  0  0  0  0  0  0  0  0  0  0  0
    1.2906    0.9580   -2.4111 C   0  0  0  0  0  0  0  0  0  0  0  0
    2.6085    0.4481   -2.5864 C   0  0  0  0  0  0  0  0  0  0  0  0
    2.9832   -0.5471   -1.9932 O   0  0  0  0  0  0  0  0  0  0  0  0
    0.1104    0.5629   -1.6425 C   0  0  0  0  0  0  0  0  0  0  0  0
   -0.0354   -0.6525   -0.7673 C   0  0  0  0  0  0  0  0  0  0  0  0
    0.8032   -0.5010    0.4299 N   0  0  0  0  0  0  0  0  0  0  0  0
   -0.8240    1.4878   -1.8965 C   0  0  0  0  0  0  0  0  0  0  0  0
   -0.3461    2.4137   -2.7856 N   0  0  0  0  0  0  0  0  0  0  0  0
    3.9510    2.8530   -4.9643 N   0  0  0  0  0  0  0  0  0  0  0  0
  1  6  1  0  0  0  0
  2  1  1  0  0  0  0
  2  3  2  0  0  0  0
  3  4  1  0  0  0  0
  4  5  2  0  0  0  0
  4 12  1  0  0  0  0
  5  8  1  0  0  0  0
  6  7  2  0  0  0  0
  6  5  1  0  0  0  0
  8 11  2  0  0  0  0
  8  9  1  0  0  0  0
 10  9  1  0  0  0  0
 12 11  1  0  0  0  0
 13  2  1  0  0  0  0
M  END
>  <CHROM.1>
69.61695333,-120.09822436,1.57905631,1.15491694,-2.54585919,-0.92328957,-0.32346631
2.39038612

>  <Name>
lig.pdb

>  <RI>
2.7104e+07

>  <Rbt.Current_Directory>
/home/itssahil/PROJECTS/Mol_Feturizer/New_Systems/rnas/2l1v

>  <Rbt.Executable>
rbdock ($Id: //depot/dev/client3/rdock/2013.1/src/exe/rbdock.cxx#4 $)

>  <Rbt.Library>
libRbt.so (2013.1, Build901 2013/11/27)

>  <Rbt.Parameter_File>
/export/apps/rDock/src/rDock_2013.1_src/data/scripts/dock_solv.prm

>  <Rbt.Receptor>
prm/pocket_docking_8.prm

>  <SCORE>
-36.4731

>  <SCORE.INTER>
-37.4495

>  <SCORE.INTER.CONST>
1

>  <SCORE.INTER.POLAR>
-2.31358

>  <SCORE.INTER.ROT>
2

>  <SCORE.INTER.SOLV>
15.0187

>  <SCORE.INTER.VDW>
-27.194

>  <SCORE.INTER.norm>
-2.88073

>  <SCORE.INTRA>
0.976386

>  <SCORE.INTRA.DIHEDRAL>
0.116988

>  <SCORE.INTRA.DIHEDRAL.0>
1.43995

>  <SCORE.INTRA.POLAR>
0.272593

>  <SCORE.INTRA.POLAR.0>
-0.272593

>  <SCORE.INTRA.REPUL>
0

>  <SCORE.INTRA.REPUL.0>
0

>  <SCORE.INTRA.SOLV>
-0.153198

>  <SCORE.INTRA.SOLV.lig_0>
-22.6728

>  <SCORE.INTRA.VDW>
0.0676766

>  <SCORE.INTRA.VDW.0>
-0.754459

>  <SCORE.INTRA.norm>
0.0751067

>  <SCORE.RESTR>
0

>  <SCORE.RESTR.CAVITY>
0

>  <SCORE.RESTR.norm>
0

>  <SCORE.SYSTEM>
0

>  <SCORE.SYSTEM.CONST>
0

>  <SCORE.SYSTEM.DIHEDRAL>
0

>  <SCORE.SYSTEM.SOLV>
0

>  <SCORE.SYSTEM.norm>
0

>  <SCORE.heavy>
13

>  <SCORE.norm>
-2.80562

>  <RMSD>
2.804

$$$$
lig.pdb
 OpenBabel11021811453D
libRbt.so/2013.1/901 2013/11/27
 13 14  0  0  0  0  0  0  0  0999 V2000
    3.1676    1.6616   -3.4949 N   0  0  0  0  0  0  0  0  0  0  0  0
    2.4358    2.6752   -4.0634 C   0  0  0  0  0  0  0  0  0  0  0  0
    1.1496    2.8211   -3.7645 N   0  0  0  0  0  0  0  0  0  0  0  0
    0.5184    1.9788   -2.8889 C   0  0  0  0  0  0  0  0  0  0  0  0
    1.2346    0.9134   -2.2863 C   0  0  0  0  0  0  0  0  0  0  0  0
    2.6131    0.7736   -2.6149 C   0  0  0  0  0  0  0  0  0  0  0  0
    3.2902   -0.1133   -2.1273 O   0  0  0  0  0  0  0  0  0  0  0  0
    0.2825    0.1914   -1.4425 C   0  0  0  0  0  0  0  0  0  0  0  0
    0.5455   -1.0557   -0.6426 C   0  0  0  0  0  0  0  0  0  0  0  0
   -0.7234   -1.5855   -0.1245 N   0  0  0  0  0  0  0  0  0  0  0  0
   -0.8788    0.8499   -1.5470 C   0  0  0  0  0  0  0  0  0  0  0  0
   -0.7501    1.9052   -2.4106 N   0  0  0  0  0  0  0  0  0  0  0  0
    3.0374    3.5442   -4.9353 N   0  0  0  0  0  0  0  0  0  0  0  0
  1  6  1  0  0  0  0
  2  1  1  0  0  0  0
  2  3  2  0  0  0  0
  3  4  1  0  0  0  0
  4  5  2  0  0  0  0
  4 12  1  0  0  0  0
  5  8  1  0  0  0  0
  6  7  2  0  0  0  0
  6  5  1  0  0  0  0
  8 11  2  0  0  0  0
  8  9  1  0  0  0  0
 10  9  1  0  0  0  0
 12 11  1  0  0  0  0
 13  2  1  0  0  0  0
M  END
>  <CHROM.1>
-170.30262845,-41.75671723,1.24568999,1.10572459,-2.48935984,-1.00656956
-0.24117380,2.50691986

>  <Name>
lig.pdb

>  <RI>
4.17264e+07

>  <Rbt.Current_Directory>
/home/itssahil/PROJECTS/Mol_Feturizer/New_Systems/rnas/2l1v

>  <Rbt.Executable>
rbdock ($Id: //depot/dev/client3/rdock/2013.1/src/exe/rbdock.cxx#4 $)

>  <Rbt.Library>
libRbt.so (2013.1, Build901 2013/11/27)

>  <Rbt.Parameter_File>
/export/apps/rDock/src/rDock_2013.1_src/data/scripts/dock_solv.prm

>  <Rbt.Receptor>
prm/blind_docking_20.prm

>  <SCORE>
-34.3245

>  <SCORE.INTER>
-35.7894

>  <SCORE.INTER.CONST>
1

>  <SCORE.INTER.POLAR>
-1.77259

>  <SCORE.INTER.ROT>
2

>  <SCORE.INTER.SOLV>
15.5505

>  <SCORE.INTER.VDW>
-28.0678

>  <SCORE.INTER.norm>
-2.75303

>  <SCORE.INTRA>
1.46489

>  <SCORE.INTRA.DIHEDRAL>
0.0595828

>  <SCORE.INTRA.DIHEDRAL.0>
1.43995

>  <SCORE.INTRA.POLAR>
0.272593

>  <SCORE.INTRA.POLAR.0>
-0.272593

>  <SCORE.INTRA.REPUL>
0

>  <SCORE.INTRA.REPUL.0>
0

>  <SCORE.INTRA.SOLV>
-0.492197

>  <SCORE.INTRA.SOLV.lig_0>
-22.6728

>  <SCORE.INTRA.VDW>
0.754378

>  <SCORE.INTRA.VDW.0>
-0.754459

>  <SCORE.INTRA.norm>
0.112684

>  <SCORE.RESTR>
0

>  <SCORE.RESTR.CAVITY>
0

>  <SCORE.RESTR.norm>
0

>  <SCORE.SYSTEM>
0

>  <SCORE.SYSTEM.CONST>
0

>  <SCORE.SYSTEM.DIHEDRAL>
0

>  <SCORE.SYSTEM.SOLV>
0

>  <SCORE.SYSTEM.norm>
0

>  <SCORE.heavy>
13

>  <SCORE.norm>
-2.64035

>  <RMSD>
2.805

$$$$
lig.pdb
 OpenBabel11021811453D
libRbt.so/2013.1/901 2013/11/27
 13 14  0  0  0  0  0  0  0  0999 V2000
    3.4618    1.1366   -3.4252 N   0  0  0  0  0  0  0  0  0  0  0  0
    3.0608    2.2406   -4.1368 C   0  0  0  0  0  0  0  0  0  0  0  0
    1.8284    2.7164   -3.9958 N   0  0  0  0  0  0  0  0  0  0  0  0
    0.9286    2.1319   -3.1454 C   0  0  0  0  0  0  0  0  0  0  0  0
    1.2986    0.9847   -2.3984 C   0  0  0  0  0  0  0  0  0  0  0  0
    2.6242    0.4900   -2.5587 C   0  0  0  0  0  0  0  0  0  0  0  0
    3.0116   -0.4857   -1.9417 O   0  0  0  0  0  0  0  0  0  0  0  0
    0.1221    0.5904   -1.6237 C   0  0  0  0  0  0  0  0  0  0  0  0
   -0.0084   -0.6064   -0.7208 C   0  0  0  0  0  0  0  0  0  0  0  0
    0.9346   -0.4836    0.3995 N   0  0  0  0  0  0  0  0  0  0  0  0
   -0.8248    1.4955   -1.9012 C   0  0  0  0  0  0  0  0  0  0  0  0
   -0.3579    2.4073   -2.8105 N   0  0  0  0  0  0  0  0  0  0  0  0
    3.9382    2.8583   -4.9886 N   0  0  0  0  0  0  0  0  0  0  0  0
  1  6  1  0  0  0  0
  2  1  1  0  0  0  0
  2  3  2  0  0  0  0
  3  4  1  0  0  0  0
  4  5  2  0  0  0  0
  4 12  1  0  0  0  0
  5  8  1  0  0  0  0
  6  7  2  0  0  0  0
  6  5  1  0  0  0  0
  8 11  2  0  0  0  0
  8  9  1  0  0  0  0
 10  9  1  0  0  0  0
 12 11  1  0  0  0  0
 13  2  1  0  0  0  0
M  END
>  <CHROM.1>
63.41766190,-116.90088956,1.59480377,1.17611507,-2.54402955,-0.94010765,-0.30776597
2.36909378

>  <Name>
lig.pdb

>  <RI>
1.75485e+07

>  <Rbt.Current_Directory>
/home/itssahil/PROJECTS/Mol_Feturizer/New_Systems/rnas/2l1v

>  <Rbt.Executable>
rbdock ($Id: //depot/dev/client3/rdock/2013.1/src/exe/rbdock.cxx#4 $)

>  <Rbt.Library>
libRbt.so (2013.1, Build901 2013/11/27)

>  <Rbt.Parameter_File>
/export/apps/rDock/src/rDock_2013.1_src/data/scripts/dock_solv.prm

>  <Rbt.Receptor>
prm/pocket_docking_4.prm

>  <SCORE>
-36.5365

>  <SCORE.INTER>
-37.4739

>  <SCORE.INTER.CONST>
1

>  <SCORE.INTER.POLAR>
-2.39284

>  <SCORE.INTER.ROT>
2

>  <SCORE.INTER.SOLV>
15.0223

>  <SCORE.INTER.VDW>
-26.9472

>  <SCORE.INTER.norm>
-2.8826

>  <SCORE.INTRA>
0.937378

>  <SCORE.INTRA.DIHEDRAL>
0.024747

>  <SCORE.INTRA.DIHEDRAL.0>
1.43995

>  <SCORE.INTRA.POLAR>
0.272593

>  <SCORE.INTRA.POLAR.0>
-0.272593

>  <SCORE.INTRA.REPUL>
0

>  <SCORE.INTRA.REPUL.0>
0

>  <SCORE.INTRA.SOLV>
-0.0918837

>  <SCORE.INTRA.SOLV.lig_0>
-22.6728

>  <SCORE.INTRA.VDW>
0.044131

>  <SCORE.INTRA.VDW.0>
-0.754459

>  <SCORE.INTRA.norm>
0.072106

>  <SCORE.RESTR>
0

>  <SCORE.RESTR.CAVITY>
0

>  <SCORE.RESTR.norm>
0

>  <SCORE.SYSTEM>
0

>  <SCORE.SYSTEM.CONST>
0

>  <SCORE.SYSTEM.DIHEDRAL>
0

>  <SCORE.SYSTEM.SOLV>
0

>  <SCORE.SYSTEM.norm>
0

>  <SCORE.heavy>
13

>  <SCORE.norm>
-2.8105

>  <RMSD>
2.805

$$$$
lig.pdb
 OpenBabel11021811453D
libRbt.so/2013.1/901 2013/11/27
 13 14  0  0  0  0  0  0  0  0999 V2000
    3.2334    1.9462   -3.5050 N   0  0  0  0  0  0  0  0  0  0  0  0
    2.5483    2.9214   -4.1875 C   0  0  0  0  0  0  0  0  0  0  0  0
    1.2495    3.1014   -3.9733 N   0  0  0  0  0  0  0  0  0  0  0  0
    0.5592    2.3328   -3.0749 C   0  0  0  0  0  0  0  0  0  0  0  0
    1.2262    1.3087   -2.3555 C   0  0  0  0  0  0  0  0  0  0  0  0
    2.6188    1.1317   -2.5944 C   0  0  0  0  0  0  0  0  0  0  0  0
    3.2555    0.2773   -2.0051 O   0  0  0  0  0  0  0  0  0  0  0  0
    0.2188    0.6607   -1.5158 C   0  0  0  0  0  0  0  0  0  0  0  0
    0.4200   -0.5256   -0.6122 C   0  0  0  0  0  0  0  0  0  0  0  0
    1.5574   -0.2753    0.2839 N   0  0  0  0  0  0  0  0  0  0  0  0
   -0.9257    1.3205   -1.7342 C   0  0  0  0  0  0  0  0  0  0  0  0
   -0.7348    2.3071   -2.6649 N   0  0  0  0  0  0  0  0  0  0  0  0
    3.2092    3.7172   -5.0859 N   0  0  0  0  0  0  0  0  0  0  0  0
  1  6  1  0  0  0  0
  2  1  1  0  0  0  0
  2  3  2  0  0  0  0
  3  4  1  0  0  0  0
  4  5  2  0  0  0  0
  4 12  1  0  0  0  0
  5  8  1  0  0  0  0
  6  7  2  0  0  0  0
  6  5  1  0  0  0  0
  8 11  2  0  0  0  0
  8  9  1  0  0  0  0
 10  9  1  0  0  0  0
 12 11  1  0  0  0  0
 13  2  1  0  0  0  0
M  END
>  <CHROM.1>
52.28193298,21.00638384,1.47885369,1.55307594,-2.53316677,-1.16340419,-0.17773126
2.32953415

>  <Name>
lig.pdb

>  <RI>
1.459e+07

>  <Rbt.Current_Directory>
/home/itssahil/PROJECTS/Mol_Feturizer/New_Systems/rnas/2l1v

>  <Rbt.Executable>
rbdock ($Id: //depot/dev/client3/rdock/2013.1/src/exe/rbdock.cxx#4 $)

>  <Rbt.Library>
libRbt.so (2013.1, Build901 2013/11/27)

>  <Rbt.Parameter_File>
/export/apps/rDock/src/rDock_2013.1_src/data/scripts/dock_solv.prm

>  <Rbt.Receptor>
prm/pocket_docking_2.prm

>  <SCORE>
-37.1188

>  <SCORE.INTER>
-39.0313

>  <SCORE.INTER.CONST>
1

>  <SCORE.INTER.POLAR>
-2.79908

>  <SCORE.INTER.ROT>
2

>  <SCORE.INTER.SOLV>
15.8941

>  <SCORE.INTER.VDW>
-26.922

>  <SCORE.INTER.norm>
-3.00241

>  <SCORE.INTRA>
1.1263

>  <SCORE.INTRA.DIHEDRAL>
0.171126

>  <SCORE.INTRA.DIHEDRAL.0>
1.43995

>  <SCORE.INTRA.POLAR>
0.272593

>  <SCORE.INTRA.POLAR.0>
-0.272593

>  <SCORE.INTRA.REPUL>
0

>  <SCORE.INTRA.REPUL.0>
0

>  <SCORE.INTRA.SOLV>
0.0409743

>  <SCORE.INTRA.SOLV.lig_0>
-22.6728

>  <SCORE.INTRA.VDW>
0.0934328

>  <SCORE.INTRA.VDW.0>
-0.754459

>  <SCORE.INTRA.norm>
0.0866383

>  <SCORE.RESTR>
0.78629

>  <SCORE.RESTR.CAVITY>
0.78629

>  <SCORE.RESTR.norm>
0.0604838

>  <SCORE.SYSTEM>
0

>  <SCORE.SYSTEM.CONST>
0

>  <SCORE.SYSTEM.DIHEDRAL>
0

>  <SCORE.SYSTEM.SOLV>
0

>  <SCORE.SYSTEM.norm>
0

>  <SCORE.heavy>
13

>  <SCORE.norm>
-2.85529

>  <RMSD>
2.818

$$$$
lig.pdb
 OpenBabel11021811453D
libRbt.so/2013.1/901 2013/11/27
 13 14  0  0  0  0  0  0  0  0999 V2000
    3.4726    1.1064   -3.4226 N   0  0  0  0  0  0  0  0  0  0  0  0
    3.0702    2.2172   -4.1229 C   0  0  0  0  0  0  0  0  0  0  0  0
    1.8393    2.6938   -3.9722 N   0  0  0  0  0  0  0  0  0  0  0  0
    0.9424    2.1036   -3.1227 C   0  0  0  0  0  0  0  0  0  0  0  0
    1.3139    0.9494   -2.3872 C   0  0  0  0  0  0  0  0  0  0  0  0
    2.6379    0.4538   -2.5578 C   0  0  0  0  0  0  0  0  0  0  0  0
    3.0263   -0.5278   -1.9509 O   0  0  0  0  0  0  0  0  0  0  0  0
    0.1402    0.5505   -1.6104 C   0  0  0  0  0  0  0  0  0  0  0  0
    0.0117   -0.6538   -0.7173 C   0  0  0  0  0  0  0  0  0  0  0  0
    1.2634   -0.8511    0.0268 N   0  0  0  0  0  0  0  0  0  0  0  0
   -0.8064    1.4596   -1.8759 C   0  0  0  0  0  0  0  0  0  0  0  0
   -0.3421    2.3783   -2.7794 N   0  0  0  0  0  0  0  0  0  0  0  0
    3.9448    2.8407   -4.9734 N   0  0  0  0  0  0  0  0  0  0  0  0
  1  6  1  0  0  0  0
  2  1  1  0  0  0  0
  2  3  2  0  0  0  0
  3  4  1  0  0  0  0
  4  5  2  0  0  0  0
  4 12  1  0  0  0  0
  5  8  1  0  0  0  0
  6  7  2  0  0  0  0
  6  5  1  0  0  0  0
  8 11  2  0  0  0  0
  8  9  1  0  0  0  0
 10  9  1  0  0  0  0
 12 11  1  0  0  0  0
 13  2  1  0  0  0  0
M  END
>  <CHROM.1>
39.60005268,-62.04209361,1.63808163,1.11267357,-2.56739735,-0.95821306,-0.30605845
2.40958223

>  <Name>
lig.pdb

>  <RI>
4.15415e+07

>  <Rbt.Current_Directory>
/home/itssahil/PROJECTS/Mol_Feturizer/New_Systems/rnas/2l1v

>  <Rbt.Executable>
rbdock ($Id: //depot/dev/client3/rdock/2013.1/src/exe/rbdock.cxx#4 $)

>  <Rbt.Library>
libRbt.so (2013.1, Build901 2013/11/27)

>  <Rbt.Parameter_File>
/export/apps/rDock/src/rDock_2013.1_src/data/scripts/dock_solv.prm

>  <Rbt.Receptor>
prm/blind_docking_60.prm

>  <SCORE>
-38.9421

>  <SCORE.INTER>
-37.724

>  <SCORE.INTER.CONST>
1

>  <SCORE.INTER.POLAR>
-2.38394

>  <SCORE.INTER.ROT>
2

>  <SCORE.INTER.SOLV>
14.9868

>  <SCORE.INTER.VDW>
-27.1318

>  <SCORE.INTER.norm>
-2.90185

>  <SCORE.INTRA>
-1.21812

>  <SCORE.INTRA.DIHEDRAL>
0.619179

>  <SCORE.INTRA.DIHEDRAL.0>
1.43995

>  <SCORE.INTRA.POLAR>
-0.535044

>  <SCORE.INTRA.POLAR.0>
-0.272593

>  <SCORE.INTRA.REPUL>
0

>  <SCORE.INTRA.REPUL.0>
0

>  <SCORE.INTRA.SOLV>
0.168662

>  <SCORE.INTRA.SOLV.lig_0>
-22.6728

>  <SCORE.INTRA.VDW>
0.207111

>  <SCORE.INTRA.VDW.0>
-0.754459

>  <SCORE.INTRA.norm>
-0.0937015

>  <SCORE.RESTR>
0

>  <SCORE.RESTR.CAVITY>
0

>  <SCORE.RESTR.norm>
0

>  <SCORE.SYSTEM>
0

>  <SCORE.SYSTEM.CONST>
0

>  <SCORE.SYSTEM.DIHEDRAL>
0

>  <SCORE.SYSTEM.SOLV>
0

>  <SCORE.SYSTEM.norm>
0

>  <SCORE.heavy>
13

>  <SCORE.norm>
-2.99555

>  <RMSD>
2.820

$$$$
lig.pdb
 OpenBabel11021811453D
libRbt.so/2013.1/901 2013/11/27
 13 14  0  0  0  0  0  0  0  0999 V2000
    3.4912    1.2318   -3.3053 N   0  0  0  0  0  0  0  0  0  0  0  0
    3.0442    2.2348   -4.1302 C   0  0  0  0  0  0  0  0  0  0  0  0
    1.7936    2.6726   -4.0345 N   0  0  0  0  0  0  0  0  0  0  0  0
    0.9197    2.1479   -3.1206 C   0  0  0  0  0  0  0  0  0  0  0  0
    1.3374    1.1045   -2.2557 C   0  0  0  0  0  0  0  0  0  0  0  0
    2.6819    0.6496   -2.3691 C   0  0  0  0  0  0  0  0  0  0  0  0
    3.1098   -0.2368   -1.6521 O   0  0  0  0  0  0  0  0  0  0  0  0
    0.1791    0.7493   -1.4360 C   0  0  0  0  0  0  0  0  0  0  0  0
    0.0989   -0.3467   -0.4079 C   0  0  0  0  0  0  0  0  0  0  0  0
    0.9426   -0.0033    0.7451 N   0  0  0  0  0  0  0  0  0  0  0  0
   -0.8045    1.5797   -1.8046 C   0  0  0  0  0  0  0  0  0  0  0  0
   -0.3767    2.4056   -2.8100 N   0  0  0  0  0  0  0  0  0  0  0  0
    3.8945    2.7914   -5.0490 N   0  0  0  0  0  0  0  0  0  0  0  0
  1  6  1  0  0  0  0
  2  1  1  0  0  0  0
  2  3  2  0  0  0  0
  3  4  1  0  0  0  0
  4  5  2  0  0  0  0
  4 12  1  0  0  0  0
  5  8  1  0  0  0  0
  6  7  2  0  0  0  0
  6  5  1  0  0  0  0
  8 11  2  0  0  0  0
  8  9  1  0  0  0  0
 10  9  1  0  0  0  0
 12 11  1  0  0  0  0
 13  2  1  0  0  0  0
M  END
>  <CHROM.1>
68.68254164,-14.58867147,1.61664430,1.29660758,-2.41765678,-0.96623787,-0.28087289
2.24647883

>  <Name>
lig.pdb

>  <RI>
1.77584e+07

>  <Rbt.Current_Directory>
/home/itssahil/PROJECTS/Mol_Feturizer/New_Systems/rnas/2l1v

>  <Rbt.Executable>
rbdock ($Id: //depot/dev/client3/rdock/2013.1/src/exe/rbdock.cxx#4 $)

>  <Rbt.Library>
libRbt.so (2013.1, Build901 2013/11/27)

>  <Rbt.Parameter_File>
/export/apps/rDock/src/rDock_2013.1_src/data/scripts/dock_solv.prm

>  <Rbt.Receptor>
prm/blind_docking_80.prm

>  <SCORE>
-39.9374

>  <SCORE.INTER>
-40.9314

>  <SCORE.INTER.CONST>
1

>  <SCORE.INTER.POLAR>
-3.51032

>  <SCORE.INTER.ROT>
2

>  <SCORE.INTER.SOLV>
14.8665

>  <SCORE.INTER.VDW>
-25.4754

>  <SCORE.INTER.norm>
-3.14857

>  <SCORE.INTRA>
0.994024

>  <SCORE.INTRA.DIHEDRAL>
0.0479931

>  <SCORE.INTRA.DIHEDRAL.0>
1.43995

>  <SCORE.INTRA.POLAR>
0.272593

>  <SCORE.INTRA.POLAR.0>
-0.272593

>  <SCORE.INTRA.REPUL>
0

>  <SCORE.INTRA.REPUL.0>
0

>  <SCORE.INTRA.SOLV>
-0.135825

>  <SCORE.INTRA.SOLV.lig_0>
-22.6728

>  <SCORE.INTRA.VDW>
0.111125

>  <SCORE.INTRA.VDW.0>
-0.754459

>  <SCORE.INTRA.norm>
0.0764633

>  <SCORE.RESTR>
0

>  <SCORE.RESTR.CAVITY>
0

>  <SCORE.RESTR.norm>
0

>  <SCORE.SYSTEM>
0

>  <SCORE.SYSTEM.CONST>
0

>  <SCORE.SYSTEM.DIHEDRAL>
0

>  <SCORE.SYSTEM.SOLV>
0

>  <SCORE.SYSTEM.norm>
0

>  <SCORE.heavy>
13

>  <SCORE.norm>
-3.0721

>  <RMSD>
2.824

$$$$
lig.pdb
 OpenBabel11021811453D
libRbt.so/2013.1/901 2013/11/27
 13 14  0  0  0  0  0  0  0  0999 V2000
    3.4723    1.0816   -3.4304 N   0  0  0  0  0  0  0  0  0  0  0  0
    3.0740    2.2044   -4.1137 C   0  0  0  0  0  0  0  0  0  0  0  0
    1.8455    2.6843   -3.9543 N   0  0  0  0  0  0  0  0  0  0  0  0
    0.9470    2.0856   -3.1125 C   0  0  0  0  0  0  0  0  0  0  0  0
    1.3141    0.9189   -2.3947 C   0  0  0  0  0  0  0  0  0  0  0  0
    2.6356    0.4200   -2.5744 C   0  0  0  0  0  0  0  0  0  0  0  0
    3.0204   -0.5722   -1.9826 O   0  0  0  0  0  0  0  0  0  0  0  0
    0.1396    0.5138   -1.6225 C   0  0  0  0  0  0  0  0  0  0  0  0
    0.0068   -0.7030   -0.7471 C   0  0  0  0  0  0  0  0  0  0  0  0
    1.2762   -0.9484   -0.0487 N   0  0  0  0  0  0  0  0  0  0  0  0
   -0.8032    1.4310   -1.8732 C   0  0  0  0  0  0  0  0  0  0  0  0
   -0.3359    2.3609   -2.7637 N   0  0  0  0  0  0  0  0  0  0  0  0
    3.9505    2.8365   -4.9560 N   0  0  0  0  0  0  0  0  0  0  0  0
  1  6  1  0  0  0  0
  2  1  1  0  0  0  0
  2  3  2  0  0  0  0
  3  4  1  0  0  0  0
  4  5  2  0  0  0  0
  4 12  1  0  0  0  0
  5  8  1  0  0  0  0
  6  7  2  0  0  0  0
  6  5  1  0  0  0  0
  8 11  2  0  0  0  0
  8  9  1  0  0  0  0
 10  9  1  0  0  0  0
 12 11  1  0  0  0  0
 13  2  1  0  0  0  0
M  END
>  <CHROM.1>
37.33813957,-59.26376966,1.64048407,1.08047307,-2.57674139,-0.95606993,-0.31019575
2.42948696

>  <Name>
lig.pdb

>  <RI>
2.50021e+07

>  <Rbt.Current_Directory>
/home/itssahil/PROJECTS/Mol_Feturizer/New_Systems/rnas/2l1v

>  <Rbt.Executable>
rbdock ($Id: //depot/dev/client3/rdock/2013.1/src/exe/rbdock.cxx#4 $)

>  <Rbt.Library>
libRbt.so (2013.1, Build901 2013/11/27)

>  <Rbt.Parameter_File>
/export/apps/rDock/src/rDock_2013.1_src/data/scripts/dock_solv.prm

>  <Rbt.Receptor>
prm/pocket_docking_5.prm

>  <SCORE>
-39.0917

>  <SCORE.INTER>
-37.915

>  <SCORE.INTER.CONST>
1

>  <SCORE.INTER.POLAR>
-2.35296

>  <SCORE.INTER.ROT>
2

>  <SCORE.INTER.SOLV>
15.0845

>  <SCORE.INTER.VDW>
-27.395

>  <SCORE.INTER.norm>
-2.91654

>  <SCORE.INTRA>
-1.17671

>  <SCORE.INTRA.DIHEDRAL>
0.72954

>  <SCORE.INTRA.DIHEDRAL.0>
1.43995

>  <SCORE.INTRA.POLAR>
-0.571887

>  <SCORE.INTRA.POLAR.0>
-0.272593

>  <SCORE.INTRA.REPUL>
0

>  <SCORE.INTRA.REPUL.0>
0

>  <SCORE.INTRA.SOLV>
0.191481

>  <SCORE.INTRA.SOLV.lig_0>
-22.6728

>  <SCORE.INTRA.VDW>
0.307194

>  <SCORE.INTRA.VDW.0>
-0.754459

>  <SCORE.INTRA.norm>
-0.0905162

>  <SCORE.RESTR>
0

>  <SCORE.RESTR.CAVITY>
0

>  <SCORE.RESTR.norm>
0

>  <SCORE.SYSTEM>
0

>  <SCORE.SYSTEM.CONST>
0

>  <SCORE.SYSTEM.DIHEDRAL>
0

>  <SCORE.SYSTEM.SOLV>
0

>  <SCORE.SYSTEM.norm>
0

>  <SCORE.heavy>
13

>  <SCORE.norm>
-3.00706

>  <RMSD>
2.824

$$$$
lig.pdb
 OpenBabel11021811453D
libRbt.so/2013.1/901 2013/11/27
 13 14  0  0  0  0  0  0  0  0999 V2000
    3.4765    1.0737   -3.4350 N   0  0  0  0  0  0  0  0  0  0  0  0
    3.0737    2.1893   -4.1273 C   0  0  0  0  0  0  0  0  0  0  0  0
    1.8446    2.6680   -3.9687 N   0  0  0  0  0  0  0  0  0  0  0  0
    0.9499    2.0749   -3.1189 C   0  0  0  0  0  0  0  0  0  0  0  0
    1.3217    0.9156   -2.3916 C   0  0  0  0  0  0  0  0  0  0  0  0
    2.6438    0.4180   -2.5706 C   0  0  0  0  0  0  0  0  0  0  0  0
    3.0325   -0.5679   -1.9709 O   0  0  0  0  0  0  0  0  0  0  0  0
    0.1504    0.5150   -1.6123 C   0  0  0  0  0  0  0  0  0  0  0  0
    0.0228   -0.6940   -0.7255 C   0  0  0  0  0  0  0  0  0  0  0  0
    1.2970   -0.9348   -0.0343 N   0  0  0  0  0  0  0  0  0  0  0  0
   -0.7952    1.4277   -1.8686 C   0  0  0  0  0  0  0  0  0  0  0  0
   -0.3326    2.3506   -2.7688 N   0  0  0  0  0  0  0  0  0  0  0  0
    3.9463    2.8157   -4.9779 N   0  0  0  0  0  0  0  0  0  0  0  0
  1  6  1  0  0  0  0
  2  1  1  0  0  0  0
  2  3  2  0  0  0  0
  3  4  1  0  0  0  0
  4  5  2  0  0  0  0
  4 12  1  0  0  0  0
  5  8  1  0  0  0  0
  6  7  2  0  0  0  0
  6  5  1  0  0  0  0
  8 11  2  0  0  0  0
  8  9  1  0  0  0  0
 10  9  1  0  0  0  0
 12 11  1  0  0  0  0
 13  2  1  0  0  0  0
M  END
>  <CHROM.1>
37.02228923,-57.88573436,1.64738481,1.07585056,-2.57656290,-0.95992374,-0.31093685
2.41982607

>  <Name>
lig.pdb

>  <RI>
1.75485e+07

>  <Rbt.Current_Directory>
/home/itssahil/PROJECTS/Mol_Feturizer/New_Systems/rnas/2l1v

>  <Rbt.Executable>
rbdock ($Id: //depot/dev/client3/rdock/2013.1/src/exe/rbdock.cxx#4 $)

>  <Rbt.Library>
libRbt.so (2013.1, Build901 2013/11/27)

>  <Rbt.Parameter_File>
/export/apps/rDock/src/rDock_2013.1_src/data/scripts/dock_solv.prm

>  <Rbt.Receptor>
prm/pocket_docking_4.prm

>  <SCORE>
-39.0355

>  <SCORE.INTER>
-37.8764

>  <SCORE.INTER.CONST>
1

>  <SCORE.INTER.POLAR>
-2.35252

>  <SCORE.INTER.ROT>
2

>  <SCORE.INTER.SOLV>
15.0487

>  <SCORE.INTER.VDW>
-27.3588

>  <SCORE.INTER.norm>
-2.91357

>  <SCORE.INTRA>
-1.15911

>  <SCORE.INTRA.DIHEDRAL>
0.742

>  <SCORE.INTRA.DIHEDRAL.0>
1.43995

>  <SCORE.INTRA.POLAR>
-0.576674

>  <SCORE.INTRA.POLAR.0>
-0.272593

>  <SCORE.INTRA.REPUL>
0

>  <SCORE.INTRA.REPUL.0>
0

>  <SCORE.INTRA.SOLV>
0.197396

>  <SCORE.INTRA.SOLV.lig_0>
-22.6728

>  <SCORE.INTRA.VDW>
0.331888

>  <SCORE.INTRA.VDW.0>
-0.754459

>  <SCORE.INTRA.norm>
-0.089162

>  <SCORE.RESTR>
0

>  <SCORE.RESTR.CAVITY>
0

>  <SCORE.RESTR.norm>
0

>  <SCORE.SYSTEM>
0

>  <SCORE.SYSTEM.CONST>
0

>  <SCORE.SYSTEM.DIHEDRAL>
0

>  <SCORE.SYSTEM.SOLV>
0

>  <SCORE.SYSTEM.norm>
0

>  <SCORE.heavy>
13

>  <SCORE.norm>
-3.00273

>  <RMSD>
2.825

$$$$
lig.pdb
 OpenBabel11021811453D
libRbt.so/2013.1/901 2013/11/27
 13 14  0  0  0  0  0  0  0  0999 V2000
    3.5032    1.2434   -3.2855 N   0  0  0  0  0  0  0  0  0  0  0  0
    3.0565    2.2438   -4.1136 C   0  0  0  0  0  0  0  0  0  0  0  0
    1.8037    2.6769   -4.0246 N   0  0  0  0  0  0  0  0  0  0  0  0
    0.9273    2.1497   -3.1144 C   0  0  0  0  0  0  0  0  0  0  0  0
    1.3448    1.1089   -2.2463 C   0  0  0  0  0  0  0  0  0  0  0  0
    2.6916    0.6591   -2.3526 C   0  0  0  0  0  0  0  0  0  0  0  0
    3.1193   -0.2248   -1.6325 O   0  0  0  0  0  0  0  0  0  0  0  0
    0.1838    0.7501   -1.4319 C   0  0  0  0  0  0  0  0  0  0  0  0
    0.1028   -0.3451   -0.4031 C   0  0  0  0  0  0  0  0  0  0  0  0
    1.1441   -0.1437    0.6139 N   0  0  0  0  0  0  0  0  0  0  0  0
   -0.8012    1.5763   -1.8063 C   0  0  0  0  0  0  0  0  0  0  0  0
   -0.3716    2.4027   -2.8106 N   0  0  0  0  0  0  0  0  0  0  0  0
    3.9091    2.8028   -5.0288 N   0  0  0  0  0  0  0  0  0  0  0  0
  1  6  1  0  0  0  0
  2  1  1  0  0  0  0
  2  3  2  0  0  0  0
  3  4  1  0  0  0  0
  4  5  2  0  0  0  0
  4 12  1  0  0  0  0
  5  8  1  0  0  0  0
  6  7  2  0  0  0  0
  6  5  1  0  0  0  0
  8 11  2  0  0  0  0
  8  9  1  0  0  0  0
 10  9  1  0  0  0  0
 12 11  1  0  0  0  0
 13  2  1  0  0  0  0
M  END
>  <CHROM.1>
56.74706431,11.68870237,1.64316241,1.28830611,-2.42021916,-0.97850647,-0.26929829
2.25786945

>  <Name>
lig.pdb

>  <RI>
4.02536e+07

>  <Rbt.Current_Directory>
/home/itssahil/PROJECTS/Mol_Feturizer/New_Systems/rnas/2l1v

>  <Rbt.Executable>
rbdock ($Id: //depot/dev/client3/rdock/2013.1/src/exe/rbdock.cxx#4 $)

>  <Rbt.Library>
libRbt.so (2013.1, Build901 2013/11/27)

>  <Rbt.Parameter_File>
/export/apps/rDock/src/rDock_2013.1_src/data/scripts/dock_solv.prm

>  <Rbt.Receptor>
prm/blind_docking_40.prm

>  <SCORE>
-40.0411

>  <SCORE.INTER>
-41.0835

>  <SCORE.INTER.CONST>
1

>  <SCORE.INTER.POLAR>
-3.56654

>  <SCORE.INTER.ROT>
2

>  <SCORE.INTER.SOLV>
14.7828

>  <SCORE.INTER.VDW>
-25.3615

>  <SCORE.INTER.norm>
-3.16027

>  <SCORE.INTRA>
1.04239

>  <SCORE.INTRA.DIHEDRAL>
0.0675374

>  <SCORE.INTRA.DIHEDRAL.0>
1.43995

>  <SCORE.INTRA.POLAR>
0.272593

>  <SCORE.INTRA.POLAR.0>
-0.272593

>  <SCORE.INTRA.REPUL>
0

>  <SCORE.INTRA.REPUL.0>
0

>  <SCORE.INTRA.SOLV>
-0.00945576

>  <SCORE.INTRA.SOLV.lig_0>
-22.6728

>  <SCORE.INTRA.VDW>
0.0865295

>  <SCORE.INTRA.VDW.0>
-0.754459

>  <SCORE.INTRA.norm>
0.0801835

>  <SCORE.RESTR>
0

>  <SCORE.RESTR.CAVITY>
0

>  <SCORE.RESTR.norm>
0

>  <SCORE.SYSTEM>
0

>  <SCORE.SYSTEM.CONST>
0

>  <SCORE.SYSTEM.DIHEDRAL>
0

>  <SCORE.SYSTEM.SOLV>
0

>  <SCORE.SYSTEM.norm>
0

>  <SCORE.heavy>
13

>  <SCORE.norm>
-3.08008

>  <RMSD>
2.830

$$$$
lig.pdb
 OpenBabel11021811453D
libRbt.so/2013.1/901 2013/11/27
 13 14  0  0  0  0  0  0  0  0999 V2000
    3.2500    1.8460   -3.2558 N   0  0  0  0  0  0  0  0  0  0  0  0
    2.5943    2.7866   -4.0118 C   0  0  0  0  0  0  0  0  0  0  0  0
    1.2880    2.9752   -3.8601 N   0  0  0  0  0  0  0  0  0  0  0  0
    0.5607    2.2499   -2.9548 C   0  0  0  0  0  0  0  0  0  0  0  0
    1.1967    1.2622   -2.1604 C   0  0  0  0  0  0  0  0  0  0  0  0
    2.5977    1.0755   -2.3332 C   0  0  0  0  0  0  0  0  0  0  0  0
    3.2090    0.2511   -1.6778 O   0  0  0  0  0  0  0  0  0  0  0  0
    0.1551    0.6543   -1.3325 C   0  0  0  0  0  0  0  0  0  0  0  0
    0.3180   -0.4871   -0.3655 C   0  0  0  0  0  0  0  0  0  0  0  0
    1.3121   -1.4359   -0.8860 N   0  0  0  0  0  0  0  0  0  0  0  0
   -0.9789    1.3015   -1.6291 C   0  0  0  0  0  0  0  0  0  0  0  0
   -0.7491    2.2425   -2.5975 N   0  0  0  0  0  0  0  0  0  0  0  0
    3.2923    3.5389   -4.9196 N   0  0  0  0  0  0  0  0  0  0  0  0
  1  6  1  0  0  0  0
  2  1  1  0  0  0  0
  2  3  2  0  0  0  0
  3  4  1  0  0  0  0
  4  5  2  0  0  0  0
  4 12  1  0  0  0  0
  5  8  1  0  0  0  0
  6  7  2  0  0  0  0
  6  5  1  0  0  0  0
  8 11  2  0  0  0  0
  8  9  1  0  0  0  0
 10  9  1  0  0  0  0
 12 11  1  0  0  0  0
 13  2  1  0  0  0  0
M  END
>  <CHROM.1>
-35.08937368,87.67402060,1.44667275,1.38222910,-2.47424635,-1.10735587,-0.21344719
2.46104934

>  <Name>
lig.pdb

>  <RI>
2.05237e+07

>  <Rbt.Current_Directory>
/home/itssahil/PROJECTS/Mol_Feturizer/New_Systems/rnas/2l1v

>  <Rbt.Executable>
rbdock ($Id: //depot/dev/client3/rdock/2013.1/src/exe/rbdock.cxx#4 $)

>  <Rbt.Library>
libRbt.so (2013.1, Build901 2013/11/27)

>  <Rbt.Parameter_File>
/export/apps/rDock/src/rDock_2013.1_src/data/scripts/dock_solv.prm

>  <Rbt.Receptor>
prm/blind_docking_100.prm

>  <SCORE>
-34.4405

>  <SCORE.INTER>
-34.9422

>  <SCORE.INTER.CONST>
1

>  <SCORE.INTER.POLAR>
-1.81006

>  <SCORE.INTER.ROT>
2

>  <SCORE.INTER.SOLV>
16.5592

>  <SCORE.INTER.VDW>
-27.7143

>  <SCORE.INTER.norm>
-2.68786

>  <SCORE.INTRA>
0.480874

>  <SCORE.INTRA.DIHEDRAL>
0.695556

>  <SCORE.INTRA.DIHEDRAL.0>
1.43995

>  <SCORE.INTRA.POLAR>
-0.04206

>  <SCORE.INTRA.POLAR.0>
-0.272593

>  <SCORE.INTRA.REPUL>
0

>  <SCORE.INTRA.REPUL.0>
0

>  <SCORE.INTRA.SOLV>
0.185052

>  <SCORE.INTRA.SOLV.lig_0>
-22.6728

>  <SCORE.INTRA.VDW>
0.183574

>  <SCORE.INTRA.VDW.0>
-0.754459

>  <SCORE.INTRA.norm>
0.0369903

>  <SCORE.RESTR>
0.020791

>  <SCORE.RESTR.CAVITY>
0.020791

>  <SCORE.RESTR.norm>
0.00159931

>  <SCORE.SYSTEM>
0

>  <SCORE.SYSTEM.CONST>
0

>  <SCORE.SYSTEM.DIHEDRAL>
0

>  <SCORE.SYSTEM.SOLV>
0

>  <SCORE.SYSTEM.norm>
0

>  <SCORE.heavy>
13

>  <SCORE.norm>
-2.64927

>  <RMSD>
2.832

$$$$
lig.pdb
 OpenBabel11021811453D
libRbt.so/2013.1/901 2013/11/27
 13 14  0  0  0  0  0  0  0  0999 V2000
    3.5015    1.2415   -3.2610 N   0  0  0  0  0  0  0  0  0  0  0  0
    3.0557    2.2353   -4.0976 C   0  0  0  0  0  0  0  0  0  0  0  0
    1.8017    2.6665   -4.0159 N   0  0  0  0  0  0  0  0  0  0  0  0
    0.9232    2.1439   -3.1051 C   0  0  0  0  0  0  0  0  0  0  0  0
    1.3397    1.1099   -2.2285 C   0  0  0  0  0  0  0  0  0  0  0  0
    2.6878    0.6620   -2.3269 C   0  0  0  0  0  0  0  0  0  0  0  0
    3.1147   -0.2161   -1.5993 O   0  0  0  0  0  0  0  0  0  0  0  0
    0.1766    0.7543   -1.4157 C   0  0  0  0  0  0  0  0  0  0  0  0
    0.0940   -0.3339   -0.3797 C   0  0  0  0  0  0  0  0  0  0  0  0
    0.9828   -0.0116    0.7453 N   0  0  0  0  0  0  0  0  0  0  0  0
   -0.8087    1.5760   -1.7992 C   0  0  0  0  0  0  0  0  0  0  0  0
   -0.3772    2.3964   -2.8076 N   0  0  0  0  0  0  0  0  0  0  0  0
    3.9105    2.7897   -5.0136 N   0  0  0  0  0  0  0  0  0  0  0  0
  1  6  1  0  0  0  0
  2  1  1  0  0  0  0
  2  3  2  0  0  0  0
  3  4  1  0  0  0  0
  4  5  2  0  0  0  0
  4 12  1  0  0  0  0
  5  8  1  0  0  0  0
  6  7  2  0  0  0  0
  6  5  1  0  0  0  0
  8 11  2  0  0  0  0
  8  9  1  0  0  0  0
 10  9  1  0  0  0  0
 12 11  1  0  0  0  0
 13  2  1  0  0  0  0
M  END
>  <CHROM.1>
65.61365767,164.64366480,1.62421326,1.29928390,-2.39254220,-0.96683025,-0.26918369
2.24146453

>  <Name>
lig.pdb

>  <RI>
1.75485e+07

>  <Rbt.Current_Directory>
/home/itssahil/PROJECTS/Mol_Feturizer/New_Systems/rnas/2l1v

>  <Rbt.Executable>
rbdock ($Id: //depot/dev/client3/rdock/2013.1/src/exe/rbdock.cxx#4 $)

>  <Rbt.Library>
libRbt.so (2013.1, Build901 2013/11/27)

>  <Rbt.Parameter_File>
/export/apps/rDock/src/rDock_2013.1_src/data/scripts/dock_solv.prm

>  <Rbt.Receptor>
prm/pocket_docking_4.prm

>  <SCORE>
-40.0126

>  <SCORE.INTER>
-41.0281

>  <SCORE.INTER.CONST>
1

>  <SCORE.INTER.POLAR>
-3.54894

>  <SCORE.INTER.ROT>
2

>  <SCORE.INTER.SOLV>
14.7812

>  <SCORE.INTER.VDW>
-25.3827

>  <SCORE.INTER.norm>
-3.15601

>  <SCORE.INTRA>
1.01557

>  <SCORE.INTRA.DIHEDRAL>
0.079419

>  <SCORE.INTRA.DIHEDRAL.0>
1.43995

>  <SCORE.INTRA.POLAR>
0.272593

>  <SCORE.INTRA.POLAR.0>
-0.272593

>  <SCORE.INTRA.REPUL>
0

>  <SCORE.INTRA.REPUL.0>
0

>  <SCORE.INTRA.SOLV>
-0.105129

>  <SCORE.INTRA.SOLV.lig_0>
-22.6728

>  <SCORE.INTRA.VDW>
0.101609

>  <SCORE.INTRA.VDW.0>
-0.754459

>  <SCORE.INTRA.norm>
0.0781207

>  <SCORE.RESTR>
0

>  <SCORE.RESTR.CAVITY>
0

>  <SCORE.RESTR.norm>
0

>  <SCORE.SYSTEM>
0

>  <SCORE.SYSTEM.CONST>
0

>  <SCORE.SYSTEM.DIHEDRAL>
0

>  <SCORE.SYSTEM.SOLV>
0

>  <SCORE.SYSTEM.norm>
0

>  <SCORE.heavy>
13

>  <SCORE.norm>
-3.07789

>  <RMSD>
2.832

$$$$
lig.pdb
 OpenBabel11021811453D
libRbt.so/2013.1/901 2013/11/27
 13 14  0  0  0  0  0  0  0  0999 V2000
    3.5032    1.2450   -3.2912 N   0  0  0  0  0  0  0  0  0  0  0  0
    3.0565    2.2547   -4.1080 C   0  0  0  0  0  0  0  0  0  0  0  0
    1.8077    2.6963   -4.0045 N   0  0  0  0  0  0  0  0  0  0  0  0
    0.9357    2.1689   -3.0903 C   0  0  0  0  0  0  0  0  0  0  0  0
    1.3532    1.1187   -2.2336 C   0  0  0  0  0  0  0  0  0  0  0  0
    2.6957    0.6598   -2.3553 C   0  0  0  0  0  0  0  0  0  0  0  0
    3.1233   -0.2325   -1.6456 O   0  0  0  0  0  0  0  0  0  0  0  0
    0.1970    0.7624   -1.4114 C   0  0  0  0  0  0  0  0  0  0  0  0
    0.1171   -0.3397   -0.3899 C   0  0  0  0  0  0  0  0  0  0  0  0
    1.1717   -0.1558    0.6167 N   0  0  0  0  0  0  0  0  0  0  0  0
   -0.7852    1.5985   -1.7709 C   0  0  0  0  0  0  0  0  0  0  0  0
   -0.3585    2.4292   -2.7729 N   0  0  0  0  0  0  0  0  0  0  0  0
    3.9050    2.8141   -5.0268 N   0  0  0  0  0  0  0  0  0  0  0  0
  1  6  1  0  0  0  0
  2  1  1  0  0  0  0
  2  3  2  0  0  0  0
  3  4  1  0  0  0  0
  4  5  2  0  0  0  0
  4 12  1  0  0  0  0
  5  8  1  0  0  0  0
  6  7  2  0  0  0  0
  6  5  1  0  0  0  0
  8 11  2  0  0  0  0
  8  9  1  0  0  0  0
 10  9  1  0  0  0  0
 12 11  1  0  0  0  0
 13  2  1  0  0  0  0
M  END
>  <CHROM.1>
56.56594630,-168.13220748,1.65139524,1.29709261,-2.40888283,-0.98095655,-0.28071124
2.26458448

>  <Name>
lig.pdb

>  <RI>
2.7104e+07

>  <Rbt.Current_Directory>
/home/itssahil/PROJECTS/Mol_Feturizer/New_Systems/rnas/2l1v

>  <Rbt.Executable>
rbdock ($Id: //depot/dev/client3/rdock/2013.1/src/exe/rbdock.cxx#4 $)

>  <Rbt.Library>
libRbt.so (2013.1, Build901 2013/11/27)

>  <Rbt.Parameter_File>
/export/apps/rDock/src/rDock_2013.1_src/data/scripts/dock_solv.prm

>  <Rbt.Receptor>
prm/pocket_docking_8.prm

>  <SCORE>
-40.0916

>  <SCORE.INTER>
-41.092

>  <SCORE.INTER.CONST>
1

>  <SCORE.INTER.POLAR>
-3.53888

>  <SCORE.INTER.ROT>
2

>  <SCORE.INTER.SOLV>
14.788

>  <SCORE.INTER.VDW>
-25.4611

>  <SCORE.INTER.norm>
-3.16093

>  <SCORE.INTRA>
1.00043

>  <SCORE.INTRA.DIHEDRAL>
-0.0126819

>  <SCORE.INTRA.DIHEDRAL.0>
1.43995

>  <SCORE.INTRA.POLAR>
0.272593

>  <SCORE.INTRA.POLAR.0>
-0.272593

>  <SCORE.INTRA.REPUL>
0

>  <SCORE.INTRA.REPUL.0>
0

>  <SCORE.INTRA.SOLV>
-0.0121963

>  <SCORE.INTRA.SOLV.lig_0>
-22.6728

>  <SCORE.INTRA.VDW>
0.0860546

>  <SCORE.INTRA.VDW.0>
-0.754459

>  <SCORE.INTRA.norm>
0.0769562

>  <SCORE.RESTR>
0

>  <SCORE.RESTR.CAVITY>
0

>  <SCORE.RESTR.norm>
0

>  <SCORE.SYSTEM>
0

>  <SCORE.SYSTEM.CONST>
0

>  <SCORE.SYSTEM.DIHEDRAL>
0

>  <SCORE.SYSTEM.SOLV>
0

>  <SCORE.SYSTEM.norm>
0

>  <SCORE.heavy>
13

>  <SCORE.norm>
-3.08397

>  <RMSD>
2.833

$$$$
lig.pdb
 OpenBabel11021811453D
libRbt.so/2013.1/901 2013/11/27
 13 14  0  0  0  0  0  0  0  0999 V2000
    3.5134    1.2310   -3.2722 N   0  0  0  0  0  0  0  0  0  0  0  0
    3.0627    2.2238   -4.1073 C   0  0  0  0  0  0  0  0  0  0  0  0
    1.8081    2.6525   -4.0213 N   0  0  0  0  0  0  0  0  0  0  0  0
    0.9339    2.1281   -3.1074 C   0  0  0  0  0  0  0  0  0  0  0  0
    1.3555    1.0950   -2.2322 C   0  0  0  0  0  0  0  0  0  0  0  0
    2.7042    0.6499   -2.3353 C   0  0  0  0  0  0  0  0  0  0  0  0
    3.1355   -0.2273   -1.6092 O   0  0  0  0  0  0  0  0  0  0  0  0
    0.1960    0.7371   -1.4154 C   0  0  0  0  0  0  0  0  0  0  0  0
    0.1193   -0.3513   -0.3790 C   0  0  0  0  0  0  0  0  0  0  0  0
    1.1787   -0.1555    0.6204 N   0  0  0  0  0  0  0  0  0  0  0  0
   -0.7923    1.5567   -1.7955 C   0  0  0  0  0  0  0  0  0  0  0  0
   -0.3660    2.3779   -2.8054 N   0  0  0  0  0  0  0  0  0  0  0  0
    3.9131    2.7799   -5.0263 N   0  0  0  0  0  0  0  0  0  0  0  0
  1  6  1  0  0  0  0
  2  1  1  0  0  0  0
  2  3  2  0  0  0  0
  3  4  1  0  0  0  0
  4  5  2  0  0  0  0
  4 12  1  0  0  0  0
  5  8  1  0  0  0  0
  6  7  2  0  0  0  0
  6  5  1  0  0  0  0
  8 11  2  0  0  0  0
  8  9  1  0  0  0  0
 10  9  1  0  0  0  0
 12 11  1  0  0  0  0
 13  2  1  0  0  0  0
M  END
>  <CHROM.1>
55.50225233,12.70933747,1.65495737,1.27279951,-2.40885329,-0.98224252,-0.26576522
2.25183650

>  <Name>
lig.pdb

>  <RI>
2.50021e+07

>  <Rbt.Current_Directory>
/home/itssahil/PROJECTS/Mol_Feturizer/New_Systems/rnas/2l1v

>  <Rbt.Executable>
rbdock ($Id: //depot/dev/client3/rdock/2013.1/src/exe/rbdock.cxx#4 $)

>  <Rbt.Library>
libRbt.so (2013.1, Build901 2013/11/27)

>  <Rbt.Parameter_File>
/export/apps/rDock/src/rDock_2013.1_src/data/scripts/dock_solv.prm

>  <Rbt.Receptor>
prm/pocket_docking_5.prm

>  <SCORE>
-40.0258

>  <SCORE.INTER>
-41.0851

>  <SCORE.INTER.CONST>
1

>  <SCORE.INTER.POLAR>
-3.58181

>  <SCORE.INTER.ROT>
2

>  <SCORE.INTER.SOLV>
14.7041

>  <SCORE.INTER.VDW>
-25.2854

>  <SCORE.INTER.norm>
-3.16039

>  <SCORE.INTRA>
1.05932

>  <SCORE.INTRA.DIHEDRAL>
0.087936

>  <SCORE.INTRA.DIHEDRAL.0>
1.43995

>  <SCORE.INTRA.POLAR>
0.272593

>  <SCORE.INTRA.POLAR.0>
-0.272593

>  <SCORE.INTRA.REPUL>
0

>  <SCORE.INTRA.REPUL.0>
0

>  <SCORE.INTRA.SOLV>
0.00477709

>  <SCORE.INTRA.SOLV.lig_0>
-22.6728

>  <SCORE.INTRA.VDW>
0.0861519

>  <SCORE.INTRA.VDW.0>
-0.754459

>  <SCORE.INTRA.norm>
0.0814864

>  <SCORE.RESTR>
0

>  <SCORE.RESTR.CAVITY>
0

>  <SCORE.RESTR.norm>
0

>  <SCORE.SYSTEM>
0

>  <SCORE.SYSTEM.CONST>
0

>  <SCORE.SYSTEM.DIHEDRAL>
0

>  <SCORE.SYSTEM.SOLV>
0

>  <SCORE.SYSTEM.norm>
0

>  <SCORE.heavy>
13

>  <SCORE.norm>
-3.07891

>  <RMSD>
2.836

$$$$
lig.pdb
 OpenBabel11021811453D
libRbt.so/2013.1/901 2013/11/27
 13 14  0  0  0  0  0  0  0  0999 V2000
    3.5035    1.2269   -3.2796 N   0  0  0  0  0  0  0  0  0  0  0  0
    3.0464    2.2242   -4.1058 C   0  0  0  0  0  0  0  0  0  0  0  0
    1.7927    2.6527   -4.0076 N   0  0  0  0  0  0  0  0  0  0  0  0
    0.9256    2.1238   -3.0895 C   0  0  0  0  0  0  0  0  0  0  0  0
    1.3539    1.0860   -2.2230 C   0  0  0  0  0  0  0  0  0  0  0  0
    2.7016    0.6411   -2.3392 C   0  0  0  0  0  0  0  0  0  0  0  0
    3.1384   -0.2399   -1.6211 O   0  0  0  0  0  0  0  0  0  0  0  0
    0.2008    0.7242   -1.3989 C   0  0  0  0  0  0  0  0  0  0  0  0
    0.1321   -0.3695   -0.3676 C   0  0  0  0  0  0  0  0  0  0  0  0
    1.1784   -0.1604    0.6428 N   0  0  0  0  0  0  0  0  0  0  0  0
   -0.7903    1.5460   -1.7668 C   0  0  0  0  0  0  0  0  0  0  0  0
   -0.3718    2.3723   -2.7758 N   0  0  0  0  0  0  0  0  0  0  0  0
    3.8896    2.7848   -5.0287 N   0  0  0  0  0  0  0  0  0  0  0  0
  1  6  1  0  0  0  0
  2  1  1  0  0  0  0
  2  3  2  0  0  0  0
  3  4  1  0  0  0  0
  4  5  2  0  0  0  0
  4 12  1  0  0  0  0
  5  8  1  0  0  0  0
  6  7  2  0  0  0  0
  6  5  1  0  0  0  0
  8 11  2  0  0  0  0
  8  9  1  0  0  0  0
 10  9  1  0  0  0  0
 12 11  1  0  0  0  0
 13  2  1  0  0  0  0
M  END
>  <CHROM.1>
56.89979345,-166.56232181,1.64975040,1.26658059,-2.39920817,-0.98720434,-0.27157749
2.25346239

>  <Name>
lig.pdb

>  <RI>
2.7104e+07

>  <Rbt.Current_Directory>
/home/itssahil/PROJECTS/Mol_Feturizer/New_Systems/rnas/2l1v

>  <Rbt.Executable>
rbdock ($Id: //depot/dev/client3/rdock/2013.1/src/exe/rbdock.cxx#4 $)

>  <Rbt.Library>
libRbt.so (2013.1, Build901 2013/11/27)

>  <Rbt.Parameter_File>
/export/apps/rDock/src/rDock_2013.1_src/data/scripts/dock_solv.prm

>  <Rbt.Receptor>
prm/pocket_docking_8.prm

>  <SCORE>
-40.0374

>  <SCORE.INTER>
-41.0302

>  <SCORE.INTER.CONST>
1

>  <SCORE.INTER.POLAR>
-3.53522

>  <SCORE.INTER.ROT>
2

>  <SCORE.INTER.SOLV>
14.6882

>  <SCORE.INTER.VDW>
-25.3988

>  <SCORE.INTER.norm>
-3.15617

>  <SCORE.INTRA>
0.992743

>  <SCORE.INTRA.DIHEDRAL>
-0.0209303

>  <SCORE.INTRA.DIHEDRAL.0>
1.43995

>  <SCORE.INTRA.POLAR>
0.272593

>  <SCORE.INTRA.POLAR.0>
-0.272593

>  <SCORE.INTRA.REPUL>
0

>  <SCORE.INTRA.REPUL.0>
0

>  <SCORE.INTRA.SOLV>
-0.0162721

>  <SCORE.INTRA.SOLV.lig_0>
-22.6728

>  <SCORE.INTRA.VDW>
0.0845291

>  <SCORE.INTRA.VDW.0>
-0.754459

>  <SCORE.INTRA.norm>
0.0763648

>  <SCORE.RESTR>
0

>  <SCORE.RESTR.CAVITY>
0

>  <SCORE.RESTR.norm>
0

>  <SCORE.SYSTEM>
0

>  <SCORE.SYSTEM.CONST>
0

>  <SCORE.SYSTEM.DIHEDRAL>
0

>  <SCORE.SYSTEM.SOLV>
0

>  <SCORE.SYSTEM.norm>
0

>  <SCORE.heavy>
13

>  <SCORE.norm>
-3.0798

>  <RMSD>
2.841

$$$$
lig.pdb
 OpenBabel11021811453D
libRbt.so/2013.1/901 2013/11/27
 13 14  0  0  0  0  0  0  0  0999 V2000
    3.5350    1.0717   -3.3657 N   0  0  0  0  0  0  0  0  0  0  0  0
    3.0617    2.1424   -4.0837 C   0  0  0  0  0  0  0  0  0  0  0  0
    1.8125    2.5620   -3.9148 N   0  0  0  0  0  0  0  0  0  0  0  0
    0.9662    1.9513   -3.0288 C   0  0  0  0  0  0  0  0  0  0  0  0
    1.4115    0.8365   -2.2737 C   0  0  0  0  0  0  0  0  0  0  0  0
    2.7541    0.4020   -2.4644 C   0  0  0  0  0  0  0  0  0  0  0  0
    3.2049   -0.5429   -1.8427 O   0  0  0  0  0  0  0  0  0  0  0  0
    0.2776    0.4013   -1.4585 C   0  0  0  0  0  0  0  0  0  0  0  0
    0.2299   -0.7838   -0.5323 C   0  0  0  0  0  0  0  0  0  0  0  0
    1.2530   -1.7610   -0.9295 N   0  0  0  0  0  0  0  0  0  0  0  0
   -0.7189    1.2555   -1.7234 C   0  0  0  0  0  0  0  0  0  0  0  0
   -0.3220    2.1717   -2.6610 N   0  0  0  0  0  0  0  0  0  0  0  0
    3.8842    2.7853   -4.9710 N   0  0  0  0  0  0  0  0  0  0  0  0
  1  6  1  0  0  0  0
  2  1  1  0  0  0  0
  2  3  2  0  0  0  0
  3  4  1  0  0  0  0
  4  5  2  0  0  0  0
  4 12  1  0  0  0  0
  5  8  1  0  0  0  0
  6  7  2  0  0  0  0
  6  5  1  0  0  0  0
  8 11  2  0  0  0  0
  8  9  1  0  0  0  0
 10  9  1  0  0  0  0
 12 11  1  0  0  0  0
 13  2  1  0  0  0  0
M  END
>  <CHROM.1>
-22.66461569,-32.70759102,1.69912493,0.93035348,-2.57001109,-0.97678299,-0.32626784
2.50930279

>  <Name>
lig.pdb

>  <RI>
9.54411e+06

>  <Rbt.Current_Directory>
/home/itssahil/PROJECTS/Mol_Feturizer/New_Systems/rnas/2l1v

>  <Rbt.Executable>
rbdock ($Id: //depot/dev/client3/rdock/2013.1/src/exe/rbdock.cxx#4 $)

>  <Rbt.Library>
libRbt.so (2013.1, Build901 2013/11/27)

>  <Rbt.Parameter_File>
/export/apps/rDock/src/rDock_2013.1_src/data/scripts/dock_solv.prm

>  <Rbt.Receptor>
prm/pocket_docking_6.prm

>  <SCORE>
-38.2845

>  <SCORE.INTER>
-40.9096

>  <SCORE.INTER.CONST>
1

>  <SCORE.INTER.POLAR>
-3.09225

>  <SCORE.INTER.ROT>
2

>  <SCORE.INTER.SOLV>
16.5257

>  <SCORE.INTER.VDW>
-27.4075

>  <SCORE.INTER.norm>
-3.14689

>  <SCORE.INTRA>
2.62515

>  <SCORE.INTRA.DIHEDRAL>
1.39818

>  <SCORE.INTRA.DIHEDRAL.0>
1.43995

>  <SCORE.INTRA.POLAR>
0.272593

>  <SCORE.INTRA.POLAR.0>
-0.272593

>  <SCORE.INTRA.REPUL>
0

>  <SCORE.INTRA.REPUL.0>
0

>  <SCORE.INTRA.SOLV>
0.281979

>  <SCORE.INTRA.SOLV.lig_0>
-22.6728

>  <SCORE.INTRA.VDW>
0.858252

>  <SCORE.INTRA.VDW.0>
-0.754459

>  <SCORE.INTRA.norm>
0.201934

>  <SCORE.RESTR>
0

>  <SCORE.RESTR.CAVITY>
0

>  <SCORE.RESTR.norm>
0

>  <SCORE.SYSTEM>
0

>  <SCORE.SYSTEM.CONST>
0

>  <SCORE.SYSTEM.DIHEDRAL>
0

>  <SCORE.SYSTEM.SOLV>
0

>  <SCORE.SYSTEM.norm>
0

>  <SCORE.heavy>
13

>  <SCORE.norm>
-2.94496

>  <RMSD>
2.843

$$$$
lig.pdb
 OpenBabel11021811453D
libRbt.so/2013.1/901 2013/11/27
 13 14  0  0  0  0  0  0  0  0999 V2000
    3.5201    1.0441   -3.3857 N   0  0  0  0  0  0  0  0  0  0  0  0
    3.0451    2.1131   -4.1054 C   0  0  0  0  0  0  0  0  0  0  0  0
    1.7993    2.5391   -3.9276 N   0  0  0  0  0  0  0  0  0  0  0  0
    0.9582    1.9368   -3.0309 C   0  0  0  0  0  0  0  0  0  0  0  0
    1.4054    0.8241   -2.2738 C   0  0  0  0  0  0  0  0  0  0  0  0
    2.7444    0.3828   -2.4740 C   0  0  0  0  0  0  0  0  0  0  0  0
    3.1966   -0.5608   -1.8512 O   0  0  0  0  0  0  0  0  0  0  0  0
    0.2769    0.3982   -1.4462 C   0  0  0  0  0  0  0  0  0  0  0  0
    0.2323   -0.7816   -0.5132 C   0  0  0  0  0  0  0  0  0  0  0  0
    1.2238   -1.7809   -0.9349 N   0  0  0  0  0  0  0  0  0  0  0  0
   -0.7182    1.2554   -1.7069 C   0  0  0  0  0  0  0  0  0  0  0  0
   -0.3257    2.1648   -2.6530 N   0  0  0  0  0  0  0  0  0  0  0  0
    3.8625    2.7476   -5.0034 N   0  0  0  0  0  0  0  0  0  0  0  0
  1  6  1  0  0  0  0
  2  1  1  0  0  0  0
  2  3  2  0  0  0  0
  3  4  1  0  0  0  0
  4  5  2  0  0  0  0
  4 12  1  0  0  0  0
  5  8  1  0  0  0  0
  6  7  2  0  0  0  0
  6  5  1  0  0  0  0
  8 11  2  0  0  0  0
  8  9  1  0  0  0  0
 10  9  1  0  0  0  0
 12 11  1  0  0  0  0
 13  2  1  0  0  0  0
M  END
>  <CHROM.1>
-24.11904992,145.84928399,1.68883443,0.91393257,-2.57501756,-0.97665565,-0.33647613
2.50619876

>  <Name>
lig.pdb

>  <RI>
4.02536e+07

>  <Rbt.Current_Directory>
/home/itssahil/PROJECTS/Mol_Feturizer/New_Systems/rnas/2l1v

>  <Rbt.Executable>
rbdock ($Id: //depot/dev/client3/rdock/2013.1/src/exe/rbdock.cxx#4 $)

>  <Rbt.Library>
libRbt.so (2013.1, Build901 2013/11/27)

>  <Rbt.Parameter_File>
/export/apps/rDock/src/rDock_2013.1_src/data/scripts/dock_solv.prm

>  <Rbt.Receptor>
prm/blind_docking_40.prm

>  <SCORE>
-38.4605

>  <SCORE.INTER>
-41.0057

>  <SCORE.INTER.CONST>
1

>  <SCORE.INTER.POLAR>
-3.03673

>  <SCORE.INTER.ROT>
2

>  <SCORE.INTER.SOLV>
16.5757

>  <SCORE.INTER.VDW>
-27.6733

>  <SCORE.INTER.norm>
-3.15429

>  <SCORE.INTRA>
2.5452

>  <SCORE.INTRA.DIHEDRAL>
1.44964

>  <SCORE.INTRA.DIHEDRAL.0>
1.43995

>  <SCORE.INTRA.POLAR>
0.272593

>  <SCORE.INTRA.POLAR.0>
-0.272593

>  <SCORE.INTRA.REPUL>
0

>  <SCORE.INTRA.REPUL.0>
0

>  <SCORE.INTRA.SOLV>
0.276371

>  <SCORE.INTRA.SOLV.lig_0>
-22.6728

>  <SCORE.INTRA.VDW>
0.75538

>  <SCORE.INTRA.VDW.0>
-0.754459

>  <SCORE.INTRA.norm>
0.195785

>  <SCORE.RESTR>
0

>  <SCORE.RESTR.CAVITY>
0

>  <SCORE.RESTR.norm>
0

>  <SCORE.SYSTEM>
0

>  <SCORE.SYSTEM.CONST>
0

>  <SCORE.SYSTEM.DIHEDRAL>
0

>  <SCORE.SYSTEM.SOLV>
0

>  <SCORE.SYSTEM.norm>
0

>  <SCORE.heavy>
13

>  <SCORE.norm>
-2.9585

>  <RMSD>
2.845

$$$$
lig.pdb
 OpenBabel11021811453D
libRbt.so/2013.1/901 2013/11/27
 13 14  0  0  0  0  0  0  0  0999 V2000
    3.5228    1.0513   -3.3791 N   0  0  0  0  0  0  0  0  0  0  0  0
    3.0450    2.1146   -4.1052 C   0  0  0  0  0  0  0  0  0  0  0  0
    1.7984    2.5390   -3.9293 N   0  0  0  0  0  0  0  0  0  0  0  0
    0.9592    1.9406   -3.0281 C   0  0  0  0  0  0  0  0  0  0  0  0
    1.4094    0.8338   -2.2643 C   0  0  0  0  0  0  0  0  0  0  0  0
    2.7492    0.3941   -2.4626 C   0  0  0  0  0  0  0  0  0  0  0  0
    3.2039   -0.5445   -1.8341 O   0  0  0  0  0  0  0  0  0  0  0  0
    0.2824    0.4108   -1.4331 C   0  0  0  0  0  0  0  0  0  0  0  0
    0.2411   -0.7631   -0.4926 C   0  0  0  0  0  0  0  0  0  0  0  0
    1.2272   -1.7675   -0.9146 N   0  0  0  0  0  0  0  0  0  0  0  0
   -0.7147    1.2641   -1.6986 C   0  0  0  0  0  0  0  0  0  0  0  0
   -0.3249    2.1683   -2.6508 N   0  0  0  0  0  0  0  0  0  0  0  0
    3.8603    2.7451   -5.0079 N   0  0  0  0  0  0  0  0  0  0  0  0
  1  6  1  0  0  0  0
  2  1  1  0  0  0  0
  2  3  2  0  0  0  0
  3  4  1  0  0  0  0
  4  5  2  0  0  0  0
  4 12  1  0  0  0  0
  5  8  1  0  0  0  0
  6  7  2  0  0  0  0
  6  5  1  0  0  0  0
  8 11  2  0  0  0  0
  8  9  1  0  0  0  0
 10  9  1  0  0  0  0
 12 11  1  0  0  0  0
 13  2  1  0  0  0  0
M  END
>  <CHROM.1>
-24.54954238,146.16784519,1.69173869,0.92190311,-2.56682719,-0.97839913,-0.33593185
2.49998124

>  <Name>
lig.pdb

>  <RI>
0

>  <Rbt.Current_Directory>
/home/itssahil/PROJECTS/Mol_Feturizer/New_Systems/rnas/2l1v

>  <Rbt.Executable>
rbdock ($Id: //depot/dev/client3/rdock/2013.1/src/exe/rbdock.cxx#4 $)

>  <Rbt.Library>
libRbt.so (2013.1, Build901 2013/11/27)

>  <Rbt.Parameter_File>
/export/apps/rDock/src/rDock_2013.1_src/data/scripts/dock_solv.prm

>  <Rbt.Receptor>
prm/pocket_docking_3.prm

>  <SCORE>
-38.4517

>  <SCORE.INTER>
-40.9565

>  <SCORE.INTER.CONST>
1

>  <SCORE.INTER.POLAR>
-3.02983

>  <SCORE.INTER.ROT>
2

>  <SCORE.INTER.SOLV>
16.5229

>  <SCORE.INTER.VDW>
-27.6459

>  <SCORE.INTER.norm>
-3.1505

>  <SCORE.INTRA>
2.50484

>  <SCORE.INTRA.DIHEDRAL>
1.42581

>  <SCORE.INTRA.DIHEDRAL.0>
1.43995

>  <SCORE.INTRA.POLAR>
0.272593

>  <SCORE.INTRA.POLAR.0>
-0.272593

>  <SCORE.INTRA.REPUL>
0

>  <SCORE.INTRA.REPUL.0>
0

>  <SCORE.INTRA.SOLV>
0.27341

>  <SCORE.INTRA.SOLV.lig_0>
-22.6728

>  <SCORE.INTRA.VDW>
0.72842

>  <SCORE.INTRA.VDW.0>
-0.754459

>  <SCORE.INTRA.norm>
0.19268

>  <SCORE.RESTR>
0

>  <SCORE.RESTR.CAVITY>
0

>  <SCORE.RESTR.norm>
0

>  <SCORE.SYSTEM>
0

>  <SCORE.SYSTEM.CONST>
0

>  <SCORE.SYSTEM.DIHEDRAL>
0

>  <SCORE.SYSTEM.SOLV>
0

>  <SCORE.SYSTEM.norm>
0

>  <SCORE.heavy>
13

>  <SCORE.norm>
-2.95782

>  <RMSD>
2.845

$$$$
lig.pdb
 OpenBabel11021811453D
libRbt.so/2013.1/901 2013/11/27
 13 14  0  0  0  0  0  0  0  0999 V2000
    3.5268    1.0551   -3.3742 N   0  0  0  0  0  0  0  0  0  0  0  0
    3.0444    2.1125   -4.1058 C   0  0  0  0  0  0  0  0  0  0  0  0
    1.7965    2.5333   -3.9311 N   0  0  0  0  0  0  0  0  0  0  0  0
    0.9604    1.9369   -3.0257 C   0  0  0  0  0  0  0  0  0  0  0  0
    1.4153    0.8361   -2.2561 C   0  0  0  0  0  0  0  0  0  0  0  0
    2.7565    0.4002   -2.4532 C   0  0  0  0  0  0  0  0  0  0  0  0
    3.2152   -0.5331   -1.8198 O   0  0  0  0  0  0  0  0  0  0  0  0
    0.2907    0.4137   -1.4215 C   0  0  0  0  0  0  0  0  0  0  0  0
    0.2545   -0.7551   -0.4743 C   0  0  0  0  0  0  0  0  0  0  0  0
    1.2239   -1.7708   -0.9079 N   0  0  0  0  0  0  0  0  0  0  0  0
   -0.7099    1.2618   -1.6908 C   0  0  0  0  0  0  0  0  0  0  0  0
   -0.3243    2.1620   -2.6484 N   0  0  0  0  0  0  0  0  0  0  0  0
    3.8566    2.7409   -5.0128 N   0  0  0  0  0  0  0  0  0  0  0  0
  1  6  1  0  0  0  0
  2  1  1  0  0  0  0
  2  3  2  0  0  0  0
  3  4  1  0  0  0  0
  4  5  2  0  0  0  0
  4 12  1  0  0  0  0
  5  8  1  0  0  0  0
  6  7  2  0  0  0  0
  6  5  1  0  0  0  0
  8 11  2  0  0  0  0
  8  9  1  0  0  0  0
 10  9  1  0  0  0  0
 12 11  1  0  0  0  0
 13  2  1  0  0  0  0
M  END
>  <CHROM.1>
-25.73988116,145.90051816,1.69514655,0.92235622,-2.56092192,-0.98051185,-0.33492771
2.49572895

>  <Name>
lig.pdb

>  <RI>
2.86608e+07

>  <Rbt.Current_Directory>
/home/itssahil/PROJECTS/Mol_Feturizer/New_Systems/rnas/2l1v

>  <Rbt.Executable>
rbdock ($Id: //depot/dev/client3/rdock/2013.1/src/exe/rbdock.cxx#4 $)

>  <Rbt.Library>
libRbt.so (2013.1, Build901 2013/11/27)

>  <Rbt.Parameter_File>
/export/apps/rDock/src/rDock_2013.1_src/data/scripts/dock_solv.prm

>  <Rbt.Receptor>
prm/pocket_docking_7.prm

>  <SCORE>
-38.4627

>  <SCORE.INTER>
-40.8497

>  <SCORE.INTER.CONST>
1

>  <SCORE.INTER.POLAR>
-3.05913

>  <SCORE.INTER.ROT>
2

>  <SCORE.INTER.SOLV>
16.5018

>  <SCORE.INTER.VDW>
-27.4699

>  <SCORE.INTER.norm>
-3.14228

>  <SCORE.INTRA>
2.38696

>  <SCORE.INTRA.DIHEDRAL>
1.35864

>  <SCORE.INTRA.DIHEDRAL.0>
1.43995

>  <SCORE.INTRA.POLAR>
0.272593

>  <SCORE.INTRA.POLAR.0>
-0.272593

>  <SCORE.INTRA.REPUL>
0

>  <SCORE.INTRA.REPUL.0>
0

>  <SCORE.INTRA.SOLV>
0.264847

>  <SCORE.INTRA.SOLV.lig_0>
-22.6728

>  <SCORE.INTRA.VDW>
0.648404

>  <SCORE.INTRA.VDW.0>
-0.754459

>  <SCORE.INTRA.norm>
0.183613

>  <SCORE.RESTR>
0

>  <SCORE.RESTR.CAVITY>
0

>  <SCORE.RESTR.norm>
0

>  <SCORE.SYSTEM>
0

>  <SCORE.SYSTEM.CONST>
0

>  <SCORE.SYSTEM.DIHEDRAL>
0

>  <SCORE.SYSTEM.SOLV>
0

>  <SCORE.SYSTEM.norm>
0

>  <SCORE.heavy>
13

>  <SCORE.norm>
-2.95867

>  <RMSD>
2.845

$$$$
lig.pdb
 OpenBabel11021811453D
libRbt.so/2013.1/901 2013/11/27
 13 14  0  0  0  0  0  0  0  0999 V2000
    3.5160    1.0435   -3.3890 N   0  0  0  0  0  0  0  0  0  0  0  0
    3.0421    2.1145   -4.1063 C   0  0  0  0  0  0  0  0  0  0  0  0
    1.7971    2.5421   -3.9268 N   0  0  0  0  0  0  0  0  0  0  0  0
    0.9558    1.9394   -3.0305 C   0  0  0  0  0  0  0  0  0  0  0  0
    1.4019    0.8247   -2.2758 C   0  0  0  0  0  0  0  0  0  0  0  0
    2.7400    0.3817   -2.4779 C   0  0  0  0  0  0  0  0  0  0  0  0
    3.1912   -0.5637   -1.8571 O   0  0  0  0  0  0  0  0  0  0  0  0
    0.2734    0.3990   -1.4481 C   0  0  0  0  0  0  0  0  0  0  0  0
    0.2277   -0.7824   -0.5173 C   0  0  0  0  0  0  0  0  0  0  0  0
    1.2436   -1.7655   -0.9186 N   0  0  0  0  0  0  0  0  0  0  0  0
   -0.7207    1.2582   -1.7065 C   0  0  0  0  0  0  0  0  0  0  0  0
   -0.3275    2.1687   -2.6512 N   0  0  0  0  0  0  0  0  0  0  0  0
    3.8598    2.7494   -5.0038 N   0  0  0  0  0  0  0  0  0  0  0  0
  1  6  1  0  0  0  0
  2  1  1  0  0  0  0
  2  3  2  0  0  0  0
  3  4  1  0  0  0  0
  4  5  2  0  0  0  0
  4 12  1  0  0  0  0
  5  8  1  0  0  0  0
  6  7  2  0  0  0  0
  6  5  1  0  0  0  0
  8 11  2  0  0  0  0
  8  9  1  0  0  0  0
 10  9  1  0  0  0  0
 12 11  1  0  0  0  0
 13  2  1  0  0  0  0
M  END
>  <CHROM.1>
-22.51396397,-33.72636681,1.68736907,0.91598435,-2.57498297,-0.97802134,-0.33741816
2.50505332

>  <Name>
lig.pdb

>  <RI>
4.15415e+07

>  <Rbt.Current_Directory>
/home/itssahil/PROJECTS/Mol_Feturizer/New_Systems/rnas/2l1v

>  <Rbt.Executable>
rbdock ($Id: //depot/dev/client3/rdock/2013.1/src/exe/rbdock.cxx#4 $)

>  <Rbt.Library>
libRbt.so (2013.1, Build901 2013/11/27)

>  <Rbt.Parameter_File>
/export/apps/rDock/src/rDock_2013.1_src/data/scripts/dock_solv.prm

>  <Rbt.Receptor>
prm/blind_docking_60.prm

>  <SCORE>
-38.3477

>  <SCORE.INTER>
-40.9795

>  <SCORE.INTER.CONST>
1

>  <SCORE.INTER.POLAR>
-2.97691

>  <SCORE.INTER.ROT>
2

>  <SCORE.INTER.SOLV>
16.56

>  <SCORE.INTER.VDW>
-27.85

>  <SCORE.INTER.norm>
-3.15227

>  <SCORE.INTRA>
2.63178

>  <SCORE.INTRA.DIHEDRAL>
1.40675

>  <SCORE.INTRA.DIHEDRAL.0>
1.43995

>  <SCORE.INTRA.POLAR>
0.272593

>  <SCORE.INTRA.POLAR.0>
-0.272593

>  <SCORE.INTRA.REPUL>
0

>  <SCORE.INTRA.REPUL.0>
0

>  <SCORE.INTRA.SOLV>
0.282761

>  <SCORE.INTRA.SOLV.lig_0>
-22.6728

>  <SCORE.INTRA.VDW>
0.860212

>  <SCORE.INTRA.VDW.0>
-0.754459

>  <SCORE.INTRA.norm>
0.202445

>  <SCORE.RESTR>
0

>  <SCORE.RESTR.CAVITY>
0

>  <SCORE.RESTR.norm>
0

>  <SCORE.SYSTEM>
0

>  <SCORE.SYSTEM.CONST>
0

>  <SCORE.SYSTEM.DIHEDRAL>
0

>  <SCORE.SYSTEM.SOLV>
0

>  <SCORE.SYSTEM.norm>
0

>  <SCORE.heavy>
13

>  <SCORE.norm>
-2.94983

>  <RMSD>
2.846

$$$$
lig.pdb
 OpenBabel11021811453D
libRbt.so/2013.1/901 2013/11/27
 13 14  0  0  0  0  0  0  0  0999 V2000
    3.5212    1.0511   -3.3781 N   0  0  0  0  0  0  0  0  0  0  0  0
    3.0453    2.1196   -4.0978 C   0  0  0  0  0  0  0  0  0  0  0  0
    1.7985    2.5430   -3.9218 N   0  0  0  0  0  0  0  0  0  0  0  0
    0.9571    1.9386   -3.0267 C   0  0  0  0  0  0  0  0  0  0  0  0
    1.4052    0.8263   -2.2696 C   0  0  0  0  0  0  0  0  0  0  0  0
    2.7454    0.3876   -2.4680 C   0  0  0  0  0  0  0  0  0  0  0  0
    3.1984   -0.5554   -1.8450 O   0  0  0  0  0  0  0  0  0  0  0  0
    0.2763    0.3978   -1.4440 C   0  0  0  0  0  0  0  0  0  0  0  0
    0.2325   -0.7827   -0.5118 C   0  0  0  0  0  0  0  0  0  0  0  0
    1.2309   -1.7770   -0.9288 N   0  0  0  0  0  0  0  0  0  0  0  0
   -0.7201    1.2532   -1.7058 C   0  0  0  0  0  0  0  0  0  0  0  0
   -0.3278    2.1639   -2.6507 N   0  0  0  0  0  0  0  0  0  0  0  0
    3.8629    2.7562   -4.9941 N   0  0  0  0  0  0  0  0  0  0  0  0
  1  6  1  0  0  0  0
  2  1  1  0  0  0  0
  2  3  2  0  0  0  0
  3  4  1  0  0  0  0
  4  5  2  0  0  0  0
  4 12  1  0  0  0  0
  5  8  1  0  0  0  0
  6  7  2  0  0  0  0
  6  5  1  0  0  0  0
  8 11  2  0  0  0  0
  8  9  1  0  0  0  0
 10  9  1  0  0  0  0
 12 11  1  0  0  0  0
 13  2  1  0  0  0  0
M  END
>  <CHROM.1>
-23.85019328,145.71871961,1.68936617,0.91712410,-2.56996416,-0.97765637,-0.33396094
2.50599934

>  <Name>
lig.pdb

>  <RI>
2.86608e+07

>  <Rbt.Current_Directory>
/home/itssahil/PROJECTS/Mol_Feturizer/New_Systems/rnas/2l1v

>  <Rbt.Executable>
rbdock ($Id: //depot/dev/client3/rdock/2013.1/src/exe/rbdock.cxx#4 $)

>  <Rbt.Library>
libRbt.so (2013.1, Build901 2013/11/27)

>  <Rbt.Parameter_File>
/export/apps/rDock/src/rDock_2013.1_src/data/scripts/dock_solv.prm

>  <Rbt.Receptor>
prm/pocket_docking_7.prm

>  <SCORE>
-38.4573

>  <SCORE.INTER>
-41.0286

>  <SCORE.INTER.CONST>
1

>  <SCORE.INTER.POLAR>
-3.04856

>  <SCORE.INTER.ROT>
2

>  <SCORE.INTER.SOLV>
16.5468

>  <SCORE.INTER.VDW>
-27.6395

>  <SCORE.INTER.norm>
-3.15605

>  <SCORE.INTRA>
2.57128

>  <SCORE.INTRA.DIHEDRAL>
1.46449

>  <SCORE.INTRA.DIHEDRAL.0>
1.43995

>  <SCORE.INTRA.POLAR>
0.272593

>  <SCORE.INTRA.POLAR.0>
-0.272593

>  <SCORE.INTRA.REPUL>
0

>  <SCORE.INTRA.REPUL.0>
0

>  <SCORE.INTRA.SOLV>
0.278208

>  <SCORE.INTRA.SOLV.lig_0>
-22.6728

>  <SCORE.INTRA.VDW>
0.773113

>  <SCORE.INTRA.VDW.0>
-0.754459

>  <SCORE.INTRA.norm>
0.197791

>  <SCORE.RESTR>
0

>  <SCORE.RESTR.CAVITY>
0

>  <SCORE.RESTR.norm>
0

>  <SCORE.SYSTEM>
0

>  <SCORE.SYSTEM.CONST>
0

>  <SCORE.SYSTEM.DIHEDRAL>
0

>  <SCORE.SYSTEM.SOLV>
0

>  <SCORE.SYSTEM.norm>
0

>  <SCORE.heavy>
13

>  <SCORE.norm>
-2.95826

>  <RMSD>
2.846

$$$$
lig.pdb
 OpenBabel11021811453D
libRbt.so/2013.1/901 2013/11/27
 13 14  0  0  0  0  0  0  0  0999 V2000
    3.1923    1.7842   -3.2325 N   0  0  0  0  0  0  0  0  0  0  0  0
    2.5521    2.7365   -3.9871 C   0  0  0  0  0  0  0  0  0  0  0  0
    1.2521    2.9569   -3.8242 N   0  0  0  0  0  0  0  0  0  0  0  0
    0.5163    2.2534   -2.9088 C   0  0  0  0  0  0  0  0  0  0  0  0
    1.1360    1.2546   -2.1154 C   0  0  0  0  0  0  0  0  0  0  0  0
    2.5306    1.0338   -2.3001 C   0  0  0  0  0  0  0  0  0  0  0  0
    3.1282    0.1982   -1.6464 O   0  0  0  0  0  0  0  0  0  0  0  0
    0.0881    0.6754   -1.2750 C   0  0  0  0  0  0  0  0  0  0  0  0
    0.2328   -0.4650   -0.3039 C   0  0  0  0  0  0  0  0  0  0  0  0
    1.1215   -1.4873   -0.8735 N   0  0  0  0  0  0  0  0  0  0  0  0
   -1.0330    1.3480   -1.5643 C   0  0  0  0  0  0  0  0  0  0  0  0
   -0.7900    2.2787   -2.5394 N   0  0  0  0  0  0  0  0  0  0  0  0
    3.2592    3.4678   -4.9049 N   0  0  0  0  0  0  0  0  0  0  0  0
  1  6  1  0  0  0  0
  2  1  1  0  0  0  0
  2  3  2  0  0  0  0
  3  4  1  0  0  0  0
  4  5  2  0  0  0  0
  4 12  1  0  0  0  0
  5  8  1  0  0  0  0
  6  7  2  0  0  0  0
  6  5  1  0  0  0  0
  8 11  2  0  0  0  0
  8  9  1  0  0  0  0
 10  9  1  0  0  0  0
 12 11  1  0  0  0  0
 13  2  1  0  0  0  0
M  END
>  <CHROM.1>
-39.29347398,-98.36546336,1.37856245,1.36247300,-2.43596060,-1.08900284,-0.23687740
2.46684688

>  <Name>
lig.pdb

>  <RI>
4.15415e+07

>  <Rbt.Current_Directory>
/home/itssahil/PROJECTS/Mol_Feturizer/New_Systems/rnas/2l1v

>  <Rbt.Executable>
rbdock ($Id: //depot/dev/client3/rdock/2013.1/src/exe/rbdock.cxx#4 $)

>  <Rbt.Library>
libRbt.so (2013.1, Build901 2013/11/27)

>  <Rbt.Parameter_File>
/export/apps/rDock/src/rDock_2013.1_src/data/scripts/dock_solv.prm

>  <Rbt.Receptor>
prm/blind_docking_60.prm

>  <SCORE>
-34.7611

>  <SCORE.INTER>
-34.7045

>  <SCORE.INTER.CONST>
1

>  <SCORE.INTER.POLAR>
-1.81213

>  <SCORE.INTER.ROT>
2

>  <SCORE.INTER.SOLV>
16.5637

>  <SCORE.INTER.VDW>
-27.5504

>  <SCORE.INTER.norm>
-2.66957

>  <SCORE.INTRA>
-0.0566409

>  <SCORE.INTRA.DIHEDRAL>
0.602952

>  <SCORE.INTRA.DIHEDRAL.0>
1.43995

>  <SCORE.INTRA.POLAR>
-0.153815

>  <SCORE.INTRA.POLAR.0>
-0.272593

>  <SCORE.INTRA.REPUL>
0

>  <SCORE.INTRA.REPUL.0>
0

>  <SCORE.INTRA.SOLV>
0.142679

>  <SCORE.INTRA.SOLV.lig_0>
-22.6728

>  <SCORE.INTRA.VDW>
0.0935149

>  <SCORE.INTRA.VDW.0>
-0.754459

>  <SCORE.INTRA.norm>
-0.004357

>  <SCORE.RESTR>
0

>  <SCORE.RESTR.CAVITY>
0

>  <SCORE.RESTR.norm>
0

>  <SCORE.SYSTEM>
0

>  <SCORE.SYSTEM.CONST>
0

>  <SCORE.SYSTEM.DIHEDRAL>
0

>  <SCORE.SYSTEM.SOLV>
0

>  <SCORE.SYSTEM.norm>
0

>  <SCORE.heavy>
13

>  <SCORE.norm>
-2.67393

>  <RMSD>
2.850

$$$$
lig.pdb
 OpenBabel11021811453D
libRbt.so/2013.1/901 2013/11/27
 13 14  0  0  0  0  0  0  0  0999 V2000
    3.2053    1.8899   -3.4070 N   0  0  0  0  0  0  0  0  0  0  0  0
    2.5098    2.8501   -4.1002 C   0  0  0  0  0  0  0  0  0  0  0  0
    1.2077    3.0137   -3.8933 N   0  0  0  0  0  0  0  0  0  0  0  0
    0.5241    2.2427   -2.9918 C   0  0  0  0  0  0  0  0  0  0  0  0
    1.2019    1.2336   -2.2615 C   0  0  0  0  0  0  0  0  0  0  0  0
    2.5979    1.0741   -2.4928 C   0  0  0  0  0  0  0  0  0  0  0  0
    3.2438    0.2333   -1.8939 O   0  0  0  0  0  0  0  0  0  0  0  0
    0.1998    0.5783   -1.4211 C   0  0  0  0  0  0  0  0  0  0  0  0
    0.4133   -0.5980   -0.5072 C   0  0  0  0  0  0  0  0  0  0  0  0
    1.3832   -0.2408    0.5373 N   0  0  0  0  0  0  0  0  0  0  0  0
   -0.9528    1.2203   -1.6498 C   0  0  0  0  0  0  0  0  0  0  0  0
   -0.7713    2.2021   -2.5874 N   0  0  0  0  0  0  0  0  0  0  0  0
    3.1638    3.6479   -5.0019 N   0  0  0  0  0  0  0  0  0  0  0  0
  1  6  1  0  0  0  0
  2  1  1  0  0  0  0
  2  3  2  0  0  0  0
  3  4  1  0  0  0  0
  4  5  2  0  0  0  0
  4 12  1  0  0  0  0
  5  8  1  0  0  0  0
  6  7  2  0  0  0  0
  6  5  1  0  0  0  0
  8 11  2  0  0  0  0
  8  9  1  0  0  0  0
 10  9  1  0  0  0  0
 12 11  1  0  0  0  0
 13  2  1  0  0  0  0
M  END
>  <CHROM.1>
61.89012319,179.42343924,1.43680238,1.48795846,-2.42607721,-1.15949591,-0.16513901
2.30827817

>  <Name>
lig.pdb

>  <RI>
4.15415e+07

>  <Rbt.Current_Directory>
/home/itssahil/PROJECTS/Mol_Feturizer/New_Systems/rnas/2l1v

>  <Rbt.Executable>
rbdock ($Id: //depot/dev/client3/rdock/2013.1/src/exe/rbdock.cxx#4 $)

>  <Rbt.Library>
libRbt.so (2013.1, Build901 2013/11/27)

>  <Rbt.Parameter_File>
/export/apps/rDock/src/rDock_2013.1_src/data/scripts/dock_solv.prm

>  <Rbt.Receptor>
prm/blind_docking_60.prm

>  <SCORE>
-38.5293

>  <SCORE.INTER>
-39.5175

>  <SCORE.INTER.CONST>
1

>  <SCORE.INTER.POLAR>
-2.81115

>  <SCORE.INTER.ROT>
2

>  <SCORE.INTER.SOLV>
15.4354

>  <SCORE.INTER.VDW>
-27.053

>  <SCORE.INTER.norm>
-3.03981

>  <SCORE.INTRA>
0.988233

>  <SCORE.INTRA.DIHEDRAL>
0.000662197

>  <SCORE.INTRA.DIHEDRAL.0>
1.43995

>  <SCORE.INTRA.POLAR>
0.272593

>  <SCORE.INTRA.POLAR.0>
-0.272593

>  <SCORE.INTRA.REPUL>
0

>  <SCORE.INTRA.REPUL.0>
0

>  <SCORE.INTRA.SOLV>
-0.0732725

>  <SCORE.INTRA.SOLV.lig_0>
-22.6728

>  <SCORE.INTRA.VDW>
0.0977229

>  <SCORE.INTRA.VDW.0>
-0.754459

>  <SCORE.INTRA.norm>
0.0760179

>  <SCORE.RESTR>
0

>  <SCORE.RESTR.CAVITY>
0

>  <SCORE.RESTR.norm>
0

>  <SCORE.SYSTEM>
0

>  <SCORE.SYSTEM.CONST>
0

>  <SCORE.SYSTEM.DIHEDRAL>
0

>  <SCORE.SYSTEM.SOLV>
0

>  <SCORE.SYSTEM.norm>
0

>  <SCORE.heavy>
13

>  <SCORE.norm>
-2.96379

>  <RMSD>
2.852

$$$$
lig.pdb
 OpenBabel11021811453D
libRbt.so/2013.1/901 2013/11/27
 13 14  0  0  0  0  0  0  0  0999 V2000
    3.2066    1.8898   -3.3988 N   0  0  0  0  0  0  0  0  0  0  0  0
    2.5126    2.8490   -4.0948 C   0  0  0  0  0  0  0  0  0  0  0  0
    1.2099    3.0124   -3.8914 N   0  0  0  0  0  0  0  0  0  0  0  0
    0.5242    2.2422   -2.9908 C   0  0  0  0  0  0  0  0  0  0  0  0
    1.2005    1.2342   -2.2575 C   0  0  0  0  0  0  0  0  0  0  0  0
    2.5971    1.0748   -2.4851 C   0  0  0  0  0  0  0  0  0  0  0  0
    3.2417    0.2350   -1.8836 O   0  0  0  0  0  0  0  0  0  0  0  0
    0.1965    0.5796   -1.4189 C   0  0  0  0  0  0  0  0  0  0  0  0
    0.4079   -0.5956   -0.5032 C   0  0  0  0  0  0  0  0  0  0  0  0
    1.3884   -0.2426    0.5330 N   0  0  0  0  0  0  0  0  0  0  0  0
   -0.9558    1.2210   -1.6513 C   0  0  0  0  0  0  0  0  0  0  0  0
   -0.7722    2.2018   -2.5896 N   0  0  0  0  0  0  0  0  0  0  0  0
    3.1686    3.6458   -4.9958 N   0  0  0  0  0  0  0  0  0  0  0  0
  1  6  1  0  0  0  0
  2  1  1  0  0  0  0
  2  3  2  0  0  0  0
  3  4  1  0  0  0  0
  4  5  2  0  0  0  0
  4 12  1  0  0  0  0
  5  8  1  0  0  0  0
  6  7  2  0  0  0  0
  6  5  1  0  0  0  0
  8 11  2  0  0  0  0
  8  9  1  0  0  0  0
 10  9  1  0  0  0  0
 12 11  1  0  0  0  0
 13  2  1  0  0  0  0
M  END
>  <CHROM.1>
61.15002091,-179.68078176,1.43694965,1.48790918,-2.42280519,-1.15868912,-0.16303037
2.30818309

>  <Name>
lig.pdb

>  <RI>
1.77584e+07

>  <Rbt.Current_Directory>
/home/itssahil/PROJECTS/Mol_Feturizer/New_Systems/rnas/2l1v

>  <Rbt.Executable>
rbdock ($Id: //depot/dev/client3/rdock/2013.1/src/exe/rbdock.cxx#4 $)

>  <Rbt.Library>
libRbt.so (2013.1, Build901 2013/11/27)

>  <Rbt.Parameter_File>
/export/apps/rDock/src/rDock_2013.1_src/data/scripts/dock_solv.prm

>  <Rbt.Receptor>
prm/blind_docking_80.prm

>  <SCORE>
-38.5389

>  <SCORE.INTER>
-39.5277

>  <SCORE.INTER.CONST>
1

>  <SCORE.INTER.POLAR>
-2.81186

>  <SCORE.INTER.ROT>
2

>  <SCORE.INTER.SOLV>
15.4253

>  <SCORE.INTER.VDW>
-27.054

>  <SCORE.INTER.norm>
-3.04059

>  <SCORE.INTRA>
0.988824

>  <SCORE.INTRA.DIHEDRAL>
-0.00385467

>  <SCORE.INTRA.DIHEDRAL.0>
1.43995

>  <SCORE.INTRA.POLAR>
0.272593

>  <SCORE.INTRA.POLAR.0>
-0.272593

>  <SCORE.INTRA.REPUL>
0

>  <SCORE.INTRA.REPUL.0>
0

>  <SCORE.INTRA.SOLV>
-0.0645399

>  <SCORE.INTRA.SOLV.lig_0>
-22.6728

>  <SCORE.INTRA.VDW>
0.0962062

>  <SCORE.INTRA.VDW.0>
-0.754459

>  <SCORE.INTRA.norm>
0.0760634

>  <SCORE.RESTR>
0

>  <SCORE.RESTR.CAVITY>
0

>  <SCORE.RESTR.norm>
0

>  <SCORE.SYSTEM>
0

>  <SCORE.SYSTEM.CONST>
0

>  <SCORE.SYSTEM.DIHEDRAL>
0

>  <SCORE.SYSTEM.SOLV>
0

>  <SCORE.SYSTEM.norm>
0

>  <SCORE.heavy>
13

>  <SCORE.norm>
-2.96453

>  <RMSD>
2.853

$$$$
lig.pdb
 OpenBabel11021811453D
libRbt.so/2013.1/901 2013/11/27
 13 14  0  0  0  0  0  0  0  0999 V2000
    3.1787    1.9002   -3.3958 N   0  0  0  0  0  0  0  0  0  0  0  0
    2.4209    2.8415   -4.0485 C   0  0  0  0  0  0  0  0  0  0  0  0
    1.1165    2.9313   -3.8129 N   0  0  0  0  0  0  0  0  0  0  0  0
    0.4916    2.1013   -2.9213 C   0  0  0  0  0  0  0  0  0  0  0  0
    1.2350    1.1092   -2.2326 C   0  0  0  0  0  0  0  0  0  0  0  0
    2.6325    1.0291   -2.4941 C   0  0  0  0  0  0  0  0  0  0  0  0
    3.3326    0.2070   -1.9314 O   0  0  0  0  0  0  0  0  0  0  0  0
    0.2850    0.3798   -1.3928 C   0  0  0  0  0  0  0  0  0  0  0  0
    0.5770   -0.8084   -0.5169 C   0  0  0  0  0  0  0  0  0  0  0  0
    1.6360   -1.6231   -1.1286 N   0  0  0  0  0  0  0  0  0  0  0  0
   -0.9035    0.9670   -1.5818 C   0  0  0  0  0  0  0  0  0  0  0  0
   -0.7917    1.9822   -2.4943 N   0  0  0  0  0  0  0  0  0  0  0  0
    3.0148    3.6967   -4.9391 N   0  0  0  0  0  0  0  0  0  0  0  0
  1  6  1  0  0  0  0
  2  1  1  0  0  0  0
  2  3  2  0  0  0  0
  3  4  1  0  0  0  0
  4  5  2  0  0  0  0
  4 12  1  0  0  0  0
  5  8  1  0  0  0  0
  6  7  2  0  0  0  0
  6  5  1  0  0  0  0
  8 11  2  0  0  0  0
  8  9  1  0  0  0  0
 10  9  1  0  0  0  0
 12 11  1  0  0  0  0
 13  2  1  0  0  0  0
M  END
>  <CHROM.1>
-32.80336345,157.64035390,1.46161665,1.26870278,-2.54800870,-1.20131495,-0.21828302
2.50363270

>  <Name>
lig.pdb

>  <RI>
1.77584e+07

>  <Rbt.Current_Directory>
/home/itssahil/PROJECTS/Mol_Feturizer/New_Systems/rnas/2l1v

>  <Rbt.Executable>
rbdock ($Id: //depot/dev/client3/rdock/2013.1/src/exe/rbdock.cxx#4 $)

>  <Rbt.Library>
libRbt.so (2013.1, Build901 2013/11/27)

>  <Rbt.Parameter_File>
/export/apps/rDock/src/rDock_2013.1_src/data/scripts/dock_solv.prm

>  <Rbt.Receptor>
prm/blind_docking_80.prm

>  <SCORE>
-40.397

>  <SCORE.INTER>
-42.2653

>  <SCORE.INTER.CONST>
1

>  <SCORE.INTER.POLAR>
-2.85083

>  <SCORE.INTER.ROT>
2

>  <SCORE.INTER.SOLV>
17.0725

>  <SCORE.INTER.VDW>
-29.2982

>  <SCORE.INTER.norm>
-3.25117

>  <SCORE.INTRA>
1.86826

>  <SCORE.INTRA.DIHEDRAL>
0.948508

>  <SCORE.INTRA.DIHEDRAL.0>
1.43995

>  <SCORE.INTRA.POLAR>
0.272593

>  <SCORE.INTRA.POLAR.0>
-0.272593

>  <SCORE.INTRA.REPUL>
0

>  <SCORE.INTRA.REPUL.0>
0

>  <SCORE.INTRA.SOLV>
0.209601

>  <SCORE.INTRA.SOLV.lig_0>
-22.6728

>  <SCORE.INTRA.VDW>
0.362395

>  <SCORE.INTRA.VDW.0>
-0.754459

>  <SCORE.INTRA.norm>
0.143713

>  <SCORE.RESTR>
0

>  <SCORE.RESTR.CAVITY>
0

>  <SCORE.RESTR.norm>
0

>  <SCORE.SYSTEM>
0

>  <SCORE.SYSTEM.CONST>
0

>  <SCORE.SYSTEM.DIHEDRAL>
0

>  <SCORE.SYSTEM.SOLV>
0

>  <SCORE.SYSTEM.norm>
0

>  <SCORE.heavy>
13

>  <SCORE.norm>
-3.10746

>  <RMSD>
2.856

$$$$
lig.pdb
 OpenBabel11021811453D
libRbt.so/2013.1/901 2013/11/27
 13 14  0  0  0  0  0  0  0  0999 V2000
    3.1765    1.9013   -3.3911 N   0  0  0  0  0  0  0  0  0  0  0  0
    2.4187    2.8414   -4.0454 C   0  0  0  0  0  0  0  0  0  0  0  0
    1.1137    2.9292   -3.8126 N   0  0  0  0  0  0  0  0  0  0  0  0
    0.4882    2.0984   -2.9222 C   0  0  0  0  0  0  0  0  0  0  0  0
    1.2316    1.1075   -2.2318 C   0  0  0  0  0  0  0  0  0  0  0  0
    2.6297    1.0294   -2.4904 C   0  0  0  0  0  0  0  0  0  0  0  0
    3.3300    0.2085   -1.9262 O   0  0  0  0  0  0  0  0  0  0  0  0
    0.2810    0.3767   -1.3940 C   0  0  0  0  0  0  0  0  0  0  0  0
    0.5729   -0.8110   -0.5173 C   0  0  0  0  0  0  0  0  0  0  0  0
    1.6451   -1.6158   -1.1190 N   0  0  0  0  0  0  0  0  0  0  0  0
   -0.9081    0.9621   -1.5855 C   0  0  0  0  0  0  0  0  0  0  0  0
   -0.7958    1.9774   -2.4979 N   0  0  0  0  0  0  0  0  0  0  0  0
    3.0131    3.6974   -4.9349 N   0  0  0  0  0  0  0  0  0  0  0  0
  1  6  1  0  0  0  0
  2  1  1  0  0  0  0
  2  3  2  0  0  0  0
  3  4  1  0  0  0  0
  4  5  2  0  0  0  0
  4 12  1  0  0  0  0
  5  8  1  0  0  0  0
  6  7  2  0  0  0  0
  6  5  1  0  0  0  0
  8 11  2  0  0  0  0
  8  9  1  0  0  0  0
 10  9  1  0  0  0  0
 12 11  1  0  0  0  0
 13  2  1  0  0  0  0
M  END
>  <CHROM.1>
-32.15492829,-23.40966335,1.45942157,1.26779620,-2.54615104,-1.20204415,-0.21539134
2.50261804

>  <Name>
lig.pdb

>  <RI>
4.15415e+07

>  <Rbt.Current_Directory>
/home/itssahil/PROJECTS/Mol_Feturizer/New_Systems/rnas/2l1v

>  <Rbt.Executable>
rbdock ($Id: //depot/dev/client3/rdock/2013.1/src/exe/rbdock.cxx#4 $)

>  <Rbt.Library>
libRbt.so (2013.1, Build901 2013/11/27)

>  <Rbt.Parameter_File>
/export/apps/rDock/src/rDock_2013.1_src/data/scripts/dock_solv.prm

>  <Rbt.Receptor>
prm/blind_docking_60.prm

>  <SCORE>
-40.4235

>  <SCORE.INTER>
-42.2599

>  <SCORE.INTER.CONST>
1

>  <SCORE.INTER.POLAR>
-2.85255

>  <SCORE.INTER.ROT>
2

>  <SCORE.INTER.SOLV>
17.0626

>  <SCORE.INTER.VDW>
-29.2856

>  <SCORE.INTER.norm>
-3.25077

>  <SCORE.INTRA>
1.83644

>  <SCORE.INTRA.DIHEDRAL>
0.864699

>  <SCORE.INTRA.DIHEDRAL.0>
1.43995

>  <SCORE.INTRA.POLAR>
0.272593

>  <SCORE.INTRA.POLAR.0>
-0.272593

>  <SCORE.INTRA.REPUL>
0

>  <SCORE.INTRA.REPUL.0>
0

>  <SCORE.INTRA.SOLV>
0.210537

>  <SCORE.INTRA.SOLV.lig_0>
-22.6728

>  <SCORE.INTRA.VDW>
0.372008

>  <SCORE.INTRA.VDW.0>
-0.754459

>  <SCORE.INTRA.norm>
0.141265

>  <SCORE.RESTR>
0

>  <SCORE.RESTR.CAVITY>
0

>  <SCORE.RESTR.norm>
0

>  <SCORE.SYSTEM>
0

>  <SCORE.SYSTEM.CONST>
0

>  <SCORE.SYSTEM.DIHEDRAL>
0

>  <SCORE.SYSTEM.SOLV>
0

>  <SCORE.SYSTEM.norm>
0

>  <SCORE.heavy>
13

>  <SCORE.norm>
-3.1095

>  <RMSD>
2.857

$$$$
lig.pdb
 OpenBabel11021811453D
libRbt.so/2013.1/901 2013/11/27
 13 14  0  0  0  0  0  0  0  0999 V2000
    3.2116    1.4855   -3.6491 N   0  0  0  0  0  0  0  0  0  0  0  0
    2.5667    2.5778   -4.1756 C   0  0  0  0  0  0  0  0  0  0  0  0
    1.3055    2.8337   -3.8457 N   0  0  0  0  0  0  0  0  0  0  0  0
    0.6153    2.0294   -2.9789 C   0  0  0  0  0  0  0  0  0  0  0  0
    1.2405    0.8861   -2.4194 C   0  0  0  0  0  0  0  0  0  0  0  0
    2.5936    0.6285   -2.7807 C   0  0  0  0  0  0  0  0  0  0  0  0
    3.1944   -0.3303   -2.3308 O   0  0  0  0  0  0  0  0  0  0  0  0
    0.2414    0.2321   -1.5745 C   0  0  0  0  0  0  0  0  0  0  0  0
    0.4024   -1.0557   -0.8129 C   0  0  0  0  0  0  0  0  0  0  0  0
    1.7330   -1.0971   -0.1906 N   0  0  0  0  0  0  0  0  0  0  0  0
   -0.8553    0.9977   -1.6372 C   0  0  0  0  0  0  0  0  0  0  0  0
   -0.6453    2.0601   -2.4758 N   0  0  0  0  0  0  0  0  0  0  0  0
    3.2300    3.4112   -5.0373 N   0  0  0  0  0  0  0  0  0  0  0  0
  1  6  1  0  0  0  0
  2  1  1  0  0  0  0
  2  3  2  0  0  0  0
  3  4  1  0  0  0  0
  4  5  2  0  0  0  0
  4 12  1  0  0  0  0
  5  8  1  0  0  0  0
  6  7  2  0  0  0  0
  6  5  1  0  0  0  0
  8 11  2  0  0  0  0
  8  9  1  0  0  0  0
 10  9  1  0  0  0  0
 12 11  1  0  0  0  0
 13  2  1  0  0  0  0
M  END
>  <CHROM.1>
41.54412054,42.05138180,1.51127344,1.11788780,-2.60947053,-1.15937234,-0.28913594
2.45289100

>  <Name>
lig.pdb

>  <RI>
2.50021e+07

>  <Rbt.Current_Directory>
/home/itssahil/PROJECTS/Mol_Feturizer/New_Systems/rnas/2l1v

>  <Rbt.Executable>
rbdock ($Id: //depot/dev/client3/rdock/2013.1/src/exe/rbdock.cxx#4 $)

>  <Rbt.Library>
libRbt.so (2013.1, Build901 2013/11/27)

>  <Rbt.Parameter_File>
/export/apps/rDock/src/rDock_2013.1_src/data/scripts/dock_solv.prm

>  <Rbt.Receptor>
prm/pocket_docking_5.prm

>  <SCORE>
-39.047

>  <SCORE.INTER>
-40.4931

>  <SCORE.INTER.CONST>
1

>  <SCORE.INTER.POLAR>
-2.84112

>  <SCORE.INTER.ROT>
2

>  <SCORE.INTER.SOLV>
15.9217

>  <SCORE.INTER.VDW>
-27.7655

>  <SCORE.INTER.norm>
-3.11485

>  <SCORE.INTRA>
1.44603

>  <SCORE.INTRA.DIHEDRAL>
0.569256

>  <SCORE.INTRA.DIHEDRAL.0>
1.43995

>  <SCORE.INTRA.POLAR>
0.272593

>  <SCORE.INTRA.POLAR.0>
-0.272593

>  <SCORE.INTRA.REPUL>
0

>  <SCORE.INTRA.REPUL.0>
0

>  <SCORE.INTRA.SOLV>
0.1516

>  <SCORE.INTRA.SOLV.lig_0>
-22.6728

>  <SCORE.INTRA.VDW>
0.15879

>  <SCORE.INTRA.VDW.0>
-0.754459

>  <SCORE.INTRA.norm>
0.111233

>  <SCORE.RESTR>
0

>  <SCORE.RESTR.CAVITY>
0

>  <SCORE.RESTR.norm>
0

>  <SCORE.SYSTEM>
0

>  <SCORE.SYSTEM.CONST>
0

>  <SCORE.SYSTEM.DIHEDRAL>
0

>  <SCORE.SYSTEM.SOLV>
0

>  <SCORE.SYSTEM.norm>
0

>  <SCORE.heavy>
13

>  <SCORE.norm>
-3.00362

>  <RMSD>
2.863

$$$$
lig.pdb
 OpenBabel11021811453D
libRbt.so/2013.1/901 2013/11/27
 13 14  0  0  0  0  0  0  0  0999 V2000
    3.1743    1.9038   -3.3531 N   0  0  0  0  0  0  0  0  0  0  0  0
    2.4202    2.8383   -4.0196 C   0  0  0  0  0  0  0  0  0  0  0  0
    1.1134    2.9261   -3.7970 N   0  0  0  0  0  0  0  0  0  0  0  0
    0.4824    2.1008   -2.9054 C   0  0  0  0  0  0  0  0  0  0  0  0
    1.2219    1.1158   -2.2026 C   0  0  0  0  0  0  0  0  0  0  0  0
    2.6220    1.0376   -2.4503 C   0  0  0  0  0  0  0  0  0  0  0  0
    3.3190    0.2216   -1.8751 O   0  0  0  0  0  0  0  0  0  0  0  0
    0.2660    0.3898   -1.3665 C   0  0  0  0  0  0  0  0  0  0  0  0
    0.5529   -0.7913   -0.4794 C   0  0  0  0  0  0  0  0  0  0  0  0
    1.6078   -1.6168   -1.0838 N   0  0  0  0  0  0  0  0  0  0  0  0
   -0.9223    0.9722   -1.5709 C   0  0  0  0  0  0  0  0  0  0  0  0
   -0.8045    1.9813   -2.4896 N   0  0  0  0  0  0  0  0  0  0  0  0
    3.0201    3.6887   -4.9107 N   0  0  0  0  0  0  0  0  0  0  0  0
  1  6  1  0  0  0  0
  2  1  1  0  0  0  0
  2  3  2  0  0  0  0
  3  4  1  0  0  0  0
  4  5  2  0  0  0  0
  4 12  1  0  0  0  0
  5  8  1  0  0  0  0
  6  7  2  0  0  0  0
  6  5  1  0  0  0  0
  8 11  2  0  0  0  0
  8  9  1  0  0  0  0
 10  9  1  0  0  0  0
 12 11  1  0  0  0  0
 13  2  1  0  0  0  0
M  END
>  <CHROM.1>
-33.52529225,158.24462840,1.44994345,1.27274322,-2.51777150,-1.19694688,-0.20954824
2.49853518

>  <Name>
lig.pdb

>  <RI>
2.86608e+07

>  <Rbt.Current_Directory>
/home/itssahil/PROJECTS/Mol_Feturizer/New_Systems/rnas/2l1v

>  <Rbt.Executable>
rbdock ($Id: //depot/dev/client3/rdock/2013.1/src/exe/rbdock.cxx#4 $)

>  <Rbt.Library>
libRbt.so (2013.1, Build901 2013/11/27)

>  <Rbt.Parameter_File>
/export/apps/rDock/src/rDock_2013.1_src/data/scripts/dock_solv.prm

>  <Rbt.Receptor>
prm/pocket_docking_7.prm

>  <SCORE>
-40.4215

>  <SCORE.INTER>
-42.2404

>  <SCORE.INTER.CONST>
1

>  <SCORE.INTER.POLAR>
-2.85107

>  <SCORE.INTER.ROT>
2

>  <SCORE.INTER.SOLV>
16.9867

>  <SCORE.INTER.VDW>
-29.2523

>  <SCORE.INTER.norm>
-3.24926

>  <SCORE.INTRA>
1.81889

>  <SCORE.INTRA.DIHEDRAL>
0.906938

>  <SCORE.INTRA.DIHEDRAL.0>
1.43995

>  <SCORE.INTRA.POLAR>
0.272593

>  <SCORE.INTRA.POLAR.0>
-0.272593

>  <SCORE.INTRA.REPUL>
0

>  <SCORE.INTRA.REPUL.0>
0

>  <SCORE.INTRA.SOLV>
0.203313

>  <SCORE.INTRA.SOLV.lig_0>
-22.6728

>  <SCORE.INTRA.VDW>
0.336946

>  <SCORE.INTRA.VDW.0>
-0.754459

>  <SCORE.INTRA.norm>
0.139914

>  <SCORE.RESTR>
0

>  <SCORE.RESTR.CAVITY>
0

>  <SCORE.RESTR.norm>
0

>  <SCORE.SYSTEM>
0

>  <SCORE.SYSTEM.CONST>
0

>  <SCORE.SYSTEM.DIHEDRAL>
0

>  <SCORE.SYSTEM.SOLV>
0

>  <SCORE.SYSTEM.norm>
0

>  <SCORE.heavy>
13

>  <SCORE.norm>
-3.10935

>  <RMSD>
2.863

$$$$
lig.pdb
 OpenBabel11021811453D
libRbt.so/2013.1/901 2013/11/27
 13 14  0  0  0  0  0  0  0  0999 V2000
    3.1717    1.8991   -3.3496 N   0  0  0  0  0  0  0  0  0  0  0  0
    2.4183    2.8337   -4.0169 C   0  0  0  0  0  0  0  0  0  0  0  0
    1.1113    2.9218   -3.7955 N   0  0  0  0  0  0  0  0  0  0  0  0
    0.4793    2.0968   -2.9042 C   0  0  0  0  0  0  0  0  0  0  0  0
    1.2181    1.1118   -2.2006 C   0  0  0  0  0  0  0  0  0  0  0  0
    2.6184    1.0333   -2.4471 C   0  0  0  0  0  0  0  0  0  0  0  0
    3.3148    0.2172   -1.8711 O   0  0  0  0  0  0  0  0  0  0  0  0
    0.2613    0.3861   -1.3652 C   0  0  0  0  0  0  0  0  0  0  0  0
    0.5472   -0.7949   -0.4775 C   0  0  0  0  0  0  0  0  0  0  0  0
    1.6142   -1.6115   -1.0725 N   0  0  0  0  0  0  0  0  0  0  0  0
   -0.9267    0.9687   -1.5708 C   0  0  0  0  0  0  0  0  0  0  0  0
   -0.8080    1.9776   -2.4896 N   0  0  0  0  0  0  0  0  0  0  0  0
    3.0191    3.6838   -4.9077 N   0  0  0  0  0  0  0  0  0  0  0  0
  1  6  1  0  0  0  0
  2  1  1  0  0  0  0
  2  3  2  0  0  0  0
  3  4  1  0  0  0  0
  4  5  2  0  0  0  0
  4 12  1  0  0  0  0
  5  8  1  0  0  0  0
  6  7  2  0  0  0  0
  6  5  1  0  0  0  0
  8 11  2  0  0  0  0
  8  9  1  0  0  0  0
 10  9  1  0  0  0  0
 12 11  1  0  0  0  0
 13  2  1  0  0  0  0
M  END
>  <CHROM.1>
-32.81933425,-21.14789299,1.44727144,1.26918518,-2.51489890,-1.19706805,-0.20866924
2.49747321

>  <Name>
lig.pdb

>  <RI>
0

>  <Rbt.Current_Directory>
/home/itssahil/PROJECTS/Mol_Feturizer/New_Systems/rnas/2l1v

>  <Rbt.Executable>
rbdock ($Id: //depot/dev/client3/rdock/2013.1/src/exe/rbdock.cxx#4 $)

>  <Rbt.Library>
libRbt.so (2013.1, Build901 2013/11/27)

>  <Rbt.Parameter_File>
/export/apps/rDock/src/rDock_2013.1_src/data/scripts/dock_solv.prm

>  <Rbt.Receptor>
prm/pocket_docking_3.prm

>  <SCORE>
-40.4383

>  <SCORE.INTER>
-42.2413

>  <SCORE.INTER.CONST>
1

>  <SCORE.INTER.POLAR>
-2.8506

>  <SCORE.INTER.ROT>
2

>  <SCORE.INTER.SOLV>
16.9732

>  <SCORE.INTER.VDW>
-29.2499

>  <SCORE.INTER.norm>
-3.24933

>  <SCORE.INTRA>
1.80298

>  <SCORE.INTRA.DIHEDRAL>
0.830534

>  <SCORE.INTRA.DIHEDRAL.0>
1.43995

>  <SCORE.INTRA.POLAR>
0.272593

>  <SCORE.INTRA.POLAR.0>
-0.272593

>  <SCORE.INTRA.REPUL>
0

>  <SCORE.INTRA.REPUL.0>
0

>  <SCORE.INTRA.SOLV>
0.205124

>  <SCORE.INTRA.SOLV.lig_0>
-22.6728

>  <SCORE.INTRA.VDW>
0.358332

>  <SCORE.INTRA.VDW.0>
-0.754459

>  <SCORE.INTRA.norm>
0.13869

>  <SCORE.RESTR>
0

>  <SCORE.RESTR.CAVITY>
0

>  <SCORE.RESTR.norm>
0

>  <SCORE.SYSTEM>
0

>  <SCORE.SYSTEM.CONST>
0

>  <SCORE.SYSTEM.DIHEDRAL>
0

>  <SCORE.SYSTEM.SOLV>
0

>  <SCORE.SYSTEM.norm>
0

>  <SCORE.heavy>
13

>  <SCORE.norm>
-3.11064

>  <RMSD>
2.865

$$$$
lig.pdb
 OpenBabel11021811453D
libRbt.so/2013.1/901 2013/11/27
 13 14  0  0  0  0  0  0  0  0999 V2000
    3.1701    1.9013   -3.3477 N   0  0  0  0  0  0  0  0  0  0  0  0
    2.4172    2.8353   -4.0163 C   0  0  0  0  0  0  0  0  0  0  0  0
    1.1100    2.9232   -3.7964 N   0  0  0  0  0  0  0  0  0  0  0  0
    0.4772    2.0983   -2.9055 C   0  0  0  0  0  0  0  0  0  0  0  0
    1.2154    1.1137   -2.2007 C   0  0  0  0  0  0  0  0  0  0  0  0
    2.6159    1.0356   -2.4455 C   0  0  0  0  0  0  0  0  0  0  0  0
    3.3119    0.2199   -1.8685 O   0  0  0  0  0  0  0  0  0  0  0  0
    0.2578    0.3881   -1.3662 C   0  0  0  0  0  0  0  0  0  0  0  0
    0.5430   -0.7925   -0.4777 C   0  0  0  0  0  0  0  0  0  0  0  0
    1.5974   -1.6195   -1.0808 N   0  0  0  0  0  0  0  0  0  0  0  0
   -0.9301    0.9704   -1.5733 C   0  0  0  0  0  0  0  0  0  0  0  0
   -0.8106    1.9789   -2.4923 N   0  0  0  0  0  0  0  0  0  0  0  0
    3.0189    3.6853   -4.9066 N   0  0  0  0  0  0  0  0  0  0  0  0
  1  6  1  0  0  0  0
  2  1  1  0  0  0  0
  2  3  2  0  0  0  0
  3  4  1  0  0  0  0
  4  5  2  0  0  0  0
  4 12  1  0  0  0  0
  5  8  1  0  0  0  0
  6  7  2  0  0  0  0
  6  5  1  0  0  0  0
  8 11  2  0  0  0  0
  8  9  1  0  0  0  0
 10  9  1  0  0  0  0
 12 11  1  0  0  0  0
 13  2  1  0  0  0  0
M  END
>  <CHROM.1>
-33.63468377,159.70074615,1.44384439,1.27040246,-2.51561560,-1.19563695,-0.20798427
2.49843942

>  <Name>
lig.pdb

>  <RI>
2.86608e+07

>  <Rbt.Current_Directory>
/home/itssahil/PROJECTS/Mol_Feturizer/New_Systems/rnas/2l1v

>  <Rbt.Executable>
rbdock ($Id: //depot/dev/client3/rdock/2013.1/src/exe/rbdock.cxx#4 $)

>  <Rbt.Library>
libRbt.so (2013.1, Build901 2013/11/27)

>  <Rbt.Parameter_File>
/export/apps/rDock/src/rDock_2013.1_src/data/scripts/dock_solv.prm

>  <Rbt.Receptor>
prm/pocket_docking_7.prm

>  <SCORE>
-40.4262

>  <SCORE.INTER>
-42.2457

>  <SCORE.INTER.CONST>
1

>  <SCORE.INTER.POLAR>
-2.85151

>  <SCORE.INTER.ROT>
2

>  <SCORE.INTER.SOLV>
16.9889

>  <SCORE.INTER.VDW>
-29.2551

>  <SCORE.INTER.norm>
-3.24967

>  <SCORE.INTRA>
1.81948

>  <SCORE.INTRA.DIHEDRAL>
0.898282

>  <SCORE.INTRA.DIHEDRAL.0>
1.43995

>  <SCORE.INTRA.POLAR>
0.272593

>  <SCORE.INTRA.POLAR.0>
-0.272593

>  <SCORE.INTRA.REPUL>
0

>  <SCORE.INTRA.REPUL.0>
0

>  <SCORE.INTRA.SOLV>
0.202523

>  <SCORE.INTRA.SOLV.lig_0>
-22.6728

>  <SCORE.INTRA.VDW>
0.342259

>  <SCORE.INTRA.VDW.0>
-0.754459

>  <SCORE.INTRA.norm>
0.13996

>  <SCORE.RESTR>
0

>  <SCORE.RESTR.CAVITY>
0

>  <SCORE.RESTR.norm>
0

>  <SCORE.SYSTEM>
0

>  <SCORE.SYSTEM.CONST>
0

>  <SCORE.SYSTEM.DIHEDRAL>
0

>  <SCORE.SYSTEM.SOLV>
0

>  <SCORE.SYSTEM.norm>
0

>  <SCORE.heavy>
13

>  <SCORE.norm>
-3.10971

>  <RMSD>
2.865

$$$$
lig.pdb
 OpenBabel11021811453D
libRbt.so/2013.1/901 2013/11/27
 13 14  0  0  0  0  0  0  0  0999 V2000
    3.1756    1.9007   -3.3511 N   0  0  0  0  0  0  0  0  0  0  0  0
    2.4204    2.8346   -4.0172 C   0  0  0  0  0  0  0  0  0  0  0  0
    1.1134    2.9207   -3.7947 N   0  0  0  0  0  0  0  0  0  0  0  0
    0.4833    2.0942   -2.9035 C   0  0  0  0  0  0  0  0  0  0  0  0
    1.2240    1.1097   -2.2011 C   0  0  0  0  0  0  0  0  0  0  0  0
    2.6242    1.0334   -2.4488 C   0  0  0  0  0  0  0  0  0  0  0  0
    3.3222    0.2179   -1.8739 O   0  0  0  0  0  0  0  0  0  0  0  0
    0.2689    0.3821   -1.3656 C   0  0  0  0  0  0  0  0  0  0  0  0
    0.5571   -0.7991   -0.4789 C   0  0  0  0  0  0  0  0  0  0  0  0
    1.6330   -1.6074   -1.0694 N   0  0  0  0  0  0  0  0  0  0  0  0
   -0.9201    0.9632   -1.5698 C   0  0  0  0  0  0  0  0  0  0  0  0
   -0.8035    1.9728   -2.4880 N   0  0  0  0  0  0  0  0  0  0  0  0
    3.0193    3.6862   -4.9078 N   0  0  0  0  0  0  0  0  0  0  0  0
  1  6  1  0  0  0  0
  2  1  1  0  0  0  0
  2  3  2  0  0  0  0
  3  4  1  0  0  0  0
  4  5  2  0  0  0  0
  4 12  1  0  0  0  0
  5  8  1  0  0  0  0
  6  7  2  0  0  0  0
  6  5  1  0  0  0  0
  8 11  2  0  0  0  0
  8  9  1  0  0  0  0
 10  9  1  0  0  0  0
 12 11  1  0  0  0  0
 13  2  1  0  0  0  0
M  END
>  <CHROM.1>
-32.32705571,-23.28125650,1.45346016,1.26827687,-2.51497248,-1.19928755,-0.20806222
2.49688593

>  <Name>
lig.pdb

>  <RI>
1.75485e+07

>  <Rbt.Current_Directory>
/home/itssahil/PROJECTS/Mol_Feturizer/New_Systems/rnas/2l1v

>  <Rbt.Executable>
rbdock ($Id: //depot/dev/client3/rdock/2013.1/src/exe/rbdock.cxx#4 $)

>  <Rbt.Library>
libRbt.so (2013.1, Build901 2013/11/27)

>  <Rbt.Parameter_File>
/export/apps/rDock/src/rDock_2013.1_src/data/scripts/dock_solv.prm

>  <Rbt.Receptor>
prm/pocket_docking_4.prm

>  <SCORE>
-40.4302

>  <SCORE.INTER>
-42.2546

>  <SCORE.INTER.CONST>
1

>  <SCORE.INTER.POLAR>
-2.85039

>  <SCORE.INTER.ROT>
2

>  <SCORE.INTER.SOLV>
16.9495

>  <SCORE.INTER.VDW>
-29.2516

>  <SCORE.INTER.norm>
-3.25036

>  <SCORE.INTRA>
1.82444

>  <SCORE.INTRA.DIHEDRAL>
0.855099

>  <SCORE.INTRA.DIHEDRAL.0>
1.43995

>  <SCORE.INTRA.POLAR>
0.272593

>  <SCORE.INTRA.POLAR.0>
-0.272593

>  <SCORE.INTRA.REPUL>
0

>  <SCORE.INTRA.REPUL.0>
0

>  <SCORE.INTRA.SOLV>
0.209063

>  <SCORE.INTRA.SOLV.lig_0>
-22.6728

>  <SCORE.INTRA.VDW>
0.365543

>  <SCORE.INTRA.VDW.0>
-0.754459

>  <SCORE.INTRA.norm>
0.140341

>  <SCORE.RESTR>
0

>  <SCORE.RESTR.CAVITY>
0

>  <SCORE.RESTR.norm>
0

>  <SCORE.SYSTEM>
0

>  <SCORE.SYSTEM.CONST>
0

>  <SCORE.SYSTEM.DIHEDRAL>
0

>  <SCORE.SYSTEM.SOLV>
0

>  <SCORE.SYSTEM.norm>
0

>  <SCORE.heavy>
13

>  <SCORE.norm>
-3.11002

>  <RMSD>
2.866

$$$$
lig.pdb
 OpenBabel11021811453D
libRbt.so/2013.1/901 2013/11/27
 13 14  0  0  0  0  0  0  0  0999 V2000
    3.1673    1.8871   -3.3562 N   0  0  0  0  0  0  0  0  0  0  0  0
    2.4148    2.8237   -4.0216 C   0  0  0  0  0  0  0  0  0  0  0  0
    1.1082    2.9136   -3.7987 N   0  0  0  0  0  0  0  0  0  0  0  0
    0.4758    2.0884   -2.9079 C   0  0  0  0  0  0  0  0  0  0  0  0
    1.2137    1.1013   -2.2062 C   0  0  0  0  0  0  0  0  0  0  0  0
    2.6136    1.0210   -2.4542 C   0  0  0  0  0  0  0  0  0  0  0  0
    3.3092    0.2030   -1.8800 O   0  0  0  0  0  0  0  0  0  0  0  0
    0.2566    0.3761   -1.3709 C   0  0  0  0  0  0  0  0  0  0  0  0
    0.5415   -0.8065   -0.4850 C   0  0  0  0  0  0  0  0  0  0  0  0
    1.6135   -1.6187   -1.0772 N   0  0  0  0  0  0  0  0  0  0  0  0
   -0.9307    0.9609   -1.5745 C   0  0  0  0  0  0  0  0  0  0  0  0
   -0.8113    1.9707   -2.4921 N   0  0  0  0  0  0  0  0  0  0  0  0
    3.0161    3.6740   -4.9118 N   0  0  0  0  0  0  0  0  0  0  0  0
  1  6  1  0  0  0  0
  2  1  1  0  0  0  0
  2  3  2  0  0  0  0
  3  4  1  0  0  0  0
  4  5  2  0  0  0  0
  4 12  1  0  0  0  0
  5  8  1  0  0  0  0
  6  7  2  0  0  0  0
  6  5  1  0  0  0  0
  8 11  2  0  0  0  0
  8  9  1  0  0  0  0
 10  9  1  0  0  0  0
 12 11  1  0  0  0  0
 13  2  1  0  0  0  0
M  END
>  <CHROM.1>
-32.40566735,-21.86763778,1.44342220,1.25930279,-2.52013873,-1.19687336,-0.21014670
2.49814778

>  <Name>
lig.pdb

>  <RI>
2.86608e+07

>  <Rbt.Current_Directory>
/home/itssahil/PROJECTS/Mol_Feturizer/New_Systems/rnas/2l1v

>  <Rbt.Executable>
rbdock ($Id: //depot/dev/client3/rdock/2013.1/src/exe/rbdock.cxx#4 $)

>  <Rbt.Library>
libRbt.so (2013.1, Build901 2013/11/27)

>  <Rbt.Parameter_File>
/export/apps/rDock/src/rDock_2013.1_src/data/scripts/dock_solv.prm

>  <Rbt.Receptor>
prm/pocket_docking_7.prm

>  <SCORE>
-40.4219

>  <SCORE.INTER>
-42.2504

>  <SCORE.INTER.CONST>
1

>  <SCORE.INTER.POLAR>
-2.84945

>  <SCORE.INTER.ROT>
2

>  <SCORE.INTER.SOLV>
16.9813

>  <SCORE.INTER.VDW>
-29.2625

>  <SCORE.INTER.norm>
-3.25003

>  <SCORE.INTRA>
1.82854

>  <SCORE.INTRA.DIHEDRAL>
0.852747

>  <SCORE.INTRA.DIHEDRAL.0>
1.43995

>  <SCORE.INTRA.POLAR>
0.272593

>  <SCORE.INTRA.POLAR.0>
-0.272593

>  <SCORE.INTRA.REPUL>
0

>  <SCORE.INTRA.REPUL.0>
0

>  <SCORE.INTRA.SOLV>
0.208624

>  <SCORE.INTRA.SOLV.lig_0>
-22.6728

>  <SCORE.INTRA.VDW>
0.371035

>  <SCORE.INTRA.VDW.0>
-0.754459

>  <SCORE.INTRA.norm>
0.140657

>  <SCORE.RESTR>
0

>  <SCORE.RESTR.CAVITY>
0

>  <SCORE.RESTR.norm>
0

>  <SCORE.SYSTEM>
0

>  <SCORE.SYSTEM.CONST>
0

>  <SCORE.SYSTEM.DIHEDRAL>
0

>  <SCORE.SYSTEM.SOLV>
0

>  <SCORE.SYSTEM.norm>
0

>  <SCORE.heavy>
13

>  <SCORE.norm>
-3.10938

>  <RMSD>
2.866

$$$$
lig.pdb
 OpenBabel11021811453D
libRbt.so/2013.1/901 2013/11/27
 13 14  0  0  0  0  0  0  0  0999 V2000
    3.1693    1.8995   -3.3455 N   0  0  0  0  0  0  0  0  0  0  0  0
    2.4157    2.8333   -4.0134 C   0  0  0  0  0  0  0  0  0  0  0  0
    1.1084    2.9203   -3.7930 N   0  0  0  0  0  0  0  0  0  0  0  0
    0.4765    2.0946   -2.9022 C   0  0  0  0  0  0  0  0  0  0  0  0
    1.2156    1.1102   -2.1981 C   0  0  0  0  0  0  0  0  0  0  0  0
    2.6161    1.0330   -2.4435 C   0  0  0  0  0  0  0  0  0  0  0  0
    3.3128    0.2175   -1.8670 O   0  0  0  0  0  0  0  0  0  0  0  0
    0.2588    0.3837   -1.3635 C   0  0  0  0  0  0  0  0  0  0  0  0
    0.5451   -0.7971   -0.4757 C   0  0  0  0  0  0  0  0  0  0  0  0
    1.6089   -1.6162   -1.0730 N   0  0  0  0  0  0  0  0  0  0  0  0
   -0.9296    0.9652   -1.5700 C   0  0  0  0  0  0  0  0  0  0  0  0
   -0.8110    1.9742   -2.4886 N   0  0  0  0  0  0  0  0  0  0  0  0
    3.0164    3.6840   -4.9036 N   0  0  0  0  0  0  0  0  0  0  0  0
  1  6  1  0  0  0  0
  2  1  1  0  0  0  0
  2  3  2  0  0  0  0
  3  4  1  0  0  0  0
  4  5  2  0  0  0  0
  4 12  1  0  0  0  0
  5  8  1  0  0  0  0
  6  7  2  0  0  0  0
  6  5  1  0  0  0  0
  8 11  2  0  0  0  0
  8  9  1  0  0  0  0
 10  9  1  0  0  0  0
 12 11  1  0  0  0  0
 13  2  1  0  0  0  0
M  END
>  <CHROM.1>
-33.08361367,-20.59229730,1.44445241,1.26756264,-2.51250022,-1.19700970,-0.20768092
2.49799015

>  <Name>
lig.pdb

>  <RI>
0

>  <Rbt.Current_Directory>
/home/itssahil/PROJECTS/Mol_Feturizer/New_Systems/rnas/2l1v

>  <Rbt.Executable>
rbdock ($Id: //depot/dev/client3/rdock/2013.1/src/exe/rbdock.cxx#4 $)

>  <Rbt.Library>
libRbt.so (2013.1, Build901 2013/11/27)

>  <Rbt.Parameter_File>
/export/apps/rDock/src/rDock_2013.1_src/data/scripts/dock_solv.prm

>  <Rbt.Receptor>
prm/pocket_docking_3.prm

>  <SCORE>
-40.4386

>  <SCORE.INTER>
-42.2262

>  <SCORE.INTER.CONST>
1

>  <SCORE.INTER.POLAR>
-2.84945

>  <SCORE.INTER.ROT>
2

>  <SCORE.INTER.SOLV>
16.9792

>  <SCORE.INTER.VDW>
-29.2457

>  <SCORE.INTER.norm>
-3.24817

>  <SCORE.INTRA>
1.78761

>  <SCORE.INTRA.DIHEDRAL>
0.816609

>  <SCORE.INTRA.DIHEDRAL.0>
1.43995

>  <SCORE.INTRA.POLAR>
0.272593

>  <SCORE.INTRA.POLAR.0>
-0.272593

>  <SCORE.INTRA.REPUL>
0

>  <SCORE.INTRA.REPUL.0>
0

>  <SCORE.INTRA.SOLV>
0.202888

>  <SCORE.INTRA.SOLV.lig_0>
-22.6728

>  <SCORE.INTRA.VDW>
0.351051

>  <SCORE.INTRA.VDW.0>
-0.754459

>  <SCORE.INTRA.norm>
0.137509

>  <SCORE.RESTR>
0

>  <SCORE.RESTR.CAVITY>
0

>  <SCORE.RESTR.norm>
0

>  <SCORE.SYSTEM>
0

>  <SCORE.SYSTEM.CONST>
0

>  <SCORE.SYSTEM.DIHEDRAL>
0

>  <SCORE.SYSTEM.SOLV>
0

>  <SCORE.SYSTEM.norm>
0

>  <SCORE.heavy>
13

>  <SCORE.norm>
-3.11066

>  <RMSD>
2.867

$$$$
lig.pdb
 OpenBabel11021811453D
libRbt.so/2013.1/901 2013/11/27
 13 14  0  0  0  0  0  0  0  0999 V2000
    3.2049    1.5208   -3.6693 N   0  0  0  0  0  0  0  0  0  0  0  0
    2.5360    2.6051   -4.1820 C   0  0  0  0  0  0  0  0  0  0  0  0
    1.2745    2.8380   -3.8363 N   0  0  0  0  0  0  0  0  0  0  0  0
    0.6077    2.0175   -2.9666 C   0  0  0  0  0  0  0  0  0  0  0  0
    1.2582    0.8816   -2.4209 C   0  0  0  0  0  0  0  0  0  0  0  0
    2.6111    0.6487   -2.7990 C   0  0  0  0  0  0  0  0  0  0  0  0
    3.2328   -0.3025   -2.3615 O   0  0  0  0  0  0  0  0  0  0  0  0
    0.2798    0.2063   -1.5685 C   0  0  0  0  0  0  0  0  0  0  0  0
    0.4708   -1.0829   -0.8163 C   0  0  0  0  0  0  0  0  0  0  0  0
    1.8070   -1.1034   -0.2051 N   0  0  0  0  0  0  0  0  0  0  0  0
   -0.8302    0.9539   -1.6143 C   0  0  0  0  0  0  0  0  0  0  0  0
   -0.6474    2.0244   -2.4490 N   0  0  0  0  0  0  0  0  0  0  0  0
    3.1754    3.4544   -5.0463 N   0  0  0  0  0  0  0  0  0  0  0  0
  1  6  1  0  0  0  0
  2  1  1  0  0  0  0
  2  3  2  0  0  0  0
  3  4  1  0  0  0  0
  4  5  2  0  0  0  0
  4 12  1  0  0  0  0
  5  8  1  0  0  0  0
  6  7  2  0  0  0  0
  6  5  1  0  0  0  0
  8 11  2  0  0  0  0
  8  9  1  0  0  0  0
 10  9  1  0  0  0  0
 12 11  1  0  0  0  0
 13  2  1  0  0  0  0
M  END
>  <CHROM.1>
41.76428718,44.73992295,1.52267890,1.11918299,-2.61221227,-1.18015630,-0.28733741
2.45228208

>  <Name>
lig.pdb

>  <RI>
2.50021e+07

>  <Rbt.Current_Directory>
/home/itssahil/PROJECTS/Mol_Feturizer/New_Systems/rnas/2l1v

>  <Rbt.Executable>
rbdock ($Id: //depot/dev/client3/rdock/2013.1/src/exe/rbdock.cxx#4 $)

>  <Rbt.Library>
libRbt.so (2013.1, Build901 2013/11/27)

>  <Rbt.Parameter_File>
/export/apps/rDock/src/rDock_2013.1_src/data/scripts/dock_solv.prm

>  <Rbt.Receptor>
prm/pocket_docking_5.prm

>  <SCORE>
-38.9809

>  <SCORE.INTER>
-40.4096

>  <SCORE.INTER.CONST>
1

>  <SCORE.INTER.POLAR>
-2.82071

>  <SCORE.INTER.ROT>
2

>  <SCORE.INTER.SOLV>
15.9461

>  <SCORE.INTER.VDW>
-27.786

>  <SCORE.INTER.norm>
-3.10843

>  <SCORE.INTRA>
1.42868

>  <SCORE.INTRA.DIHEDRAL>
0.552146

>  <SCORE.INTRA.DIHEDRAL.0>
1.43995

>  <SCORE.INTRA.POLAR>
0.272593

>  <SCORE.INTRA.POLAR.0>
-0.272593

>  <SCORE.INTRA.REPUL>
0

>  <SCORE.INTRA.REPUL.0>
0

>  <SCORE.INTRA.SOLV>
0.149278

>  <SCORE.INTRA.SOLV.lig_0>
-22.6728

>  <SCORE.INTRA.VDW>
0.15115

>  <SCORE.INTRA.VDW.0>
-0.754459

>  <SCORE.INTRA.norm>
0.109898

>  <SCORE.RESTR>
0

>  <SCORE.RESTR.CAVITY>
0

>  <SCORE.RESTR.norm>
0

>  <SCORE.SYSTEM>
0

>  <SCORE.SYSTEM.CONST>
0

>  <SCORE.SYSTEM.DIHEDRAL>
0

>  <SCORE.SYSTEM.SOLV>
0

>  <SCORE.SYSTEM.norm>
0

>  <SCORE.heavy>
13

>  <SCORE.norm>
-2.99853

>  <RMSD>
2.867

$$$$
lig.pdb
 OpenBabel11021811453D
libRbt.so/2013.1/901 2013/11/27
 13 14  0  0  0  0  0  0  0  0999 V2000
    3.2088    1.9154   -3.3834 N   0  0  0  0  0  0  0  0  0  0  0  0
    2.4811    2.8560   -4.0704 C   0  0  0  0  0  0  0  0  0  0  0  0
    1.1768    2.9837   -3.8519 N   0  0  0  0  0  0  0  0  0  0  0  0
    0.5226    2.1943   -2.9446 C   0  0  0  0  0  0  0  0  0  0  0  0
    1.2344    1.2044   -2.2202 C   0  0  0  0  0  0  0  0  0  0  0  0
    2.6321    1.0834   -2.4639 C   0  0  0  0  0  0  0  0  0  0  0  0
    3.3062    0.2608   -1.8707 O   0  0  0  0  0  0  0  0  0  0  0  0
    0.2582    0.5220   -1.3711 C   0  0  0  0  0  0  0  0  0  0  0  0
    0.5120   -0.6479   -0.4592 C   0  0  0  0  0  0  0  0  0  0  0  0
    1.5245   -0.2823    0.5410 N   0  0  0  0  0  0  0  0  0  0  0  0
   -0.9137    1.1320   -1.5896 C   0  0  0  0  0  0  0  0  0  0  0  0
   -0.7676    2.1182   -2.5287 N   0  0  0  0  0  0  0  0  0  0  0  0
    3.1048    3.6712   -4.9778 N   0  0  0  0  0  0  0  0  0  0  0  0
  1  6  1  0  0  0  0
  2  1  1  0  0  0  0
  2  3  2  0  0  0  0
  3  4  1  0  0  0  0
  4  5  2  0  0  0  0
  4 12  1  0  0  0  0
  5  8  1  0  0  0  0
  6  7  2  0  0  0  0
  6  5  1  0  0  0  0
  8 11  2  0  0  0  0
  8  9  1  0  0  0  0
 10  9  1  0  0  0  0
 12 11  1  0  0  0  0
 13  2  1  0  0  0  0
M  END
>  <CHROM.1>
59.43474829,6.62079193,1.46506067,1.46332846,-2.39047097,-1.18795160,-0.15024389
2.30723106

>  <Name>
lig.pdb

>  <RI>
4.02536e+07

>  <Rbt.Current_Directory>
/home/itssahil/PROJECTS/Mol_Feturizer/New_Systems/rnas/2l1v

>  <Rbt.Executable>
rbdock ($Id: //depot/dev/client3/rdock/2013.1/src/exe/rbdock.cxx#4 $)

>  <Rbt.Library>
libRbt.so (2013.1, Build901 2013/11/27)

>  <Rbt.Parameter_File>
/export/apps/rDock/src/rDock_2013.1_src/data/scripts/dock_solv.prm

>  <Rbt.Receptor>
prm/blind_docking_40.prm

>  <SCORE>
-38.4202

>  <SCORE.INTER>
-39.4335

>  <SCORE.INTER.CONST>
1

>  <SCORE.INTER.POLAR>
-2.79744

>  <SCORE.INTER.ROT>
2

>  <SCORE.INTER.SOLV>
15.3202

>  <SCORE.INTER.VDW>
-27.0043

>  <SCORE.INTER.norm>
-3.03335

>  <SCORE.INTRA>
1.01333

>  <SCORE.INTRA.DIHEDRAL>
0.029905

>  <SCORE.INTRA.DIHEDRAL.0>
1.43995

>  <SCORE.INTRA.POLAR>
0.272593

>  <SCORE.INTRA.POLAR.0>
-0.272593

>  <SCORE.INTRA.REPUL>
0

>  <SCORE.INTRA.REPUL.0>
0

>  <SCORE.INTRA.SOLV>
-0.040374

>  <SCORE.INTRA.SOLV.lig_0>
-22.6728

>  <SCORE.INTRA.VDW>
0.0917528

>  <SCORE.INTRA.VDW.0>
-0.754459

>  <SCORE.INTRA.norm>
0.0779487

>  <SCORE.RESTR>
0

>  <SCORE.RESTR.CAVITY>
0

>  <SCORE.RESTR.norm>
0

>  <SCORE.SYSTEM>
0

>  <SCORE.SYSTEM.CONST>
0

>  <SCORE.SYSTEM.DIHEDRAL>
0

>  <SCORE.SYSTEM.SOLV>
0

>  <SCORE.SYSTEM.norm>
0

>  <SCORE.heavy>
13

>  <SCORE.norm>
-2.9554

>  <RMSD>
2.869

$$$$
lig.pdb
 OpenBabel11021811453D
libRbt.so/2013.1/901 2013/11/27
 13 14  0  0  0  0  0  0  0  0999 V2000
    3.1968    1.9091   -3.3958 N   0  0  0  0  0  0  0  0  0  0  0  0
    2.4701    2.8549   -4.0766 C   0  0  0  0  0  0  0  0  0  0  0  0
    1.1677    2.9885   -3.8509 N   0  0  0  0  0  0  0  0  0  0  0  0
    0.5144    2.2002   -2.9420 C   0  0  0  0  0  0  0  0  0  0  0  0
    1.2251    1.2051   -2.2238 C   0  0  0  0  0  0  0  0  0  0  0  0
    2.6209    1.0777   -2.4752 C   0  0  0  0  0  0  0  0  0  0  0  0
    3.2940    0.2504   -1.8876 O   0  0  0  0  0  0  0  0  0  0  0  0
    0.2500    0.5254   -1.3711 C   0  0  0  0  0  0  0  0  0  0  0  0
    0.5028   -0.6479   -0.4634 C   0  0  0  0  0  0  0  0  0  0  0  0
    1.4703   -0.2677    0.5753 N   0  0  0  0  0  0  0  0  0  0  0  0
   -0.9199    1.1417   -1.5819 C   0  0  0  0  0  0  0  0  0  0  0  0
   -0.7739    2.1295   -2.5195 N   0  0  0  0  0  0  0  0  0  0  0  0
    3.0930    3.6693   -4.9854 N   0  0  0  0  0  0  0  0  0  0  0  0
  1  6  1  0  0  0  0
  2  1  1  0  0  0  0
  2  3  2  0  0  0  0
  3  4  1  0  0  0  0
  4  5  2  0  0  0  0
  4 12  1  0  0  0  0
  5  8  1  0  0  0  0
  6  7  2  0  0  0  0
  6  5  1  0  0  0  0
  8 11  2  0  0  0  0
  8  9  1  0  0  0  0
 10  9  1  0  0  0  0
 12 11  1  0  0  0  0
 13  2  1  0  0  0  0
M  END
>  <CHROM.1>
62.37868975,-179.77546567,1.45097328,1.46537304,-2.39042006,-1.18488111,-0.15805935
2.30603776

>  <Name>
lig.pdb

>  <RI>
1.77584e+07

>  <Rbt.Current_Directory>
/home/itssahil/PROJECTS/Mol_Feturizer/New_Systems/rnas/2l1v

>  <Rbt.Executable>
rbdock ($Id: //depot/dev/client3/rdock/2013.1/src/exe/rbdock.cxx#4 $)

>  <Rbt.Library>
libRbt.so (2013.1, Build901 2013/11/27)

>  <Rbt.Parameter_File>
/export/apps/rDock/src/rDock_2013.1_src/data/scripts/dock_solv.prm

>  <Rbt.Receptor>
prm/blind_docking_80.prm

>  <SCORE>
-38.468

>  <SCORE.INTER>
-39.4543

>  <SCORE.INTER.CONST>
1

>  <SCORE.INTER.POLAR>
-2.80004

>  <SCORE.INTER.ROT>
2

>  <SCORE.INTER.SOLV>
15.3091

>  <SCORE.INTER.VDW>
-27.0058

>  <SCORE.INTER.norm>
-3.03495

>  <SCORE.INTRA>
0.986305

>  <SCORE.INTRA.DIHEDRAL>
-0.000278564

>  <SCORE.INTRA.DIHEDRAL.0>
1.43995

>  <SCORE.INTRA.POLAR>
0.272593

>  <SCORE.INTRA.POLAR.0>
-0.272593

>  <SCORE.INTRA.REPUL>
0

>  <SCORE.INTRA.REPUL.0>
0

>  <SCORE.INTRA.SOLV>
-0.079224

>  <SCORE.INTRA.SOLV.lig_0>
-22.6728

>  <SCORE.INTRA.VDW>
0.0992417

>  <SCORE.INTRA.VDW.0>
-0.754459

>  <SCORE.INTRA.norm>
0.0758696

>  <SCORE.RESTR>
0

>  <SCORE.RESTR.CAVITY>
0

>  <SCORE.RESTR.norm>
0

>  <SCORE.SYSTEM>
0

>  <SCORE.SYSTEM.CONST>
0

>  <SCORE.SYSTEM.DIHEDRAL>
0

>  <SCORE.SYSTEM.SOLV>
0

>  <SCORE.SYSTEM.norm>
0

>  <SCORE.heavy>
13

>  <SCORE.norm>
-2.95908

>  <RMSD>
2.869

$$$$
lig.pdb
 OpenBabel11021811453D
libRbt.so/2013.1/901 2013/11/27
 13 14  0  0  0  0  0  0  0  0999 V2000
    3.2223    1.4718   -3.6542 N   0  0  0  0  0  0  0  0  0  0  0  0
    2.5672    2.5644   -4.1672 C   0  0  0  0  0  0  0  0  0  0  0  0
    1.3078    2.8117   -3.8240 N   0  0  0  0  0  0  0  0  0  0  0  0
    0.6296    1.9982   -2.9565 C   0  0  0  0  0  0  0  0  0  0  0  0
    1.2656    0.8542   -2.4106 C   0  0  0  0  0  0  0  0  0  0  0  0
    2.6165    0.6059   -2.7861 C   0  0  0  0  0  0  0  0  0  0  0  0
    3.2261   -0.3530   -2.3482 O   0  0  0  0  0  0  0  0  0  0  0  0
    0.2775    0.1895   -1.5611 C   0  0  0  0  0  0  0  0  0  0  0  0
    0.4518   -1.1027   -0.8098 C   0  0  0  0  0  0  0  0  0  0  0  0
    1.7743   -1.1258   -0.1696 N   0  0  0  0  0  0  0  0  0  0  0  0
   -0.8236    0.9500   -1.6085 C   0  0  0  0  0  0  0  0  0  0  0  0
   -0.6265    2.0191   -2.4416 N   0  0  0  0  0  0  0  0  0  0  0  0
    3.2184    3.4070   -5.0292 N   0  0  0  0  0  0  0  0  0  0  0  0
  1  6  1  0  0  0  0
  2  1  1  0  0  0  0
  2  3  2  0  0  0  0
  3  4  1  0  0  0  0
  4  5  2  0  0  0  0
  4 12  1  0  0  0  0
  5  8  1  0  0  0  0
  6  7  2  0  0  0  0
  6  5  1  0  0  0  0
  8 11  2  0  0  0  0
  8  9  1  0  0  0  0
 10  9  1  0  0  0  0
 12 11  1  0  0  0  0
 13  2  1  0  0  0  0
M  END
>  <CHROM.1>
43.08019610,51.29129771,1.53210765,1.09010935,-2.59867263,-1.16860326,-0.29278038
2.45401027

>  <Name>
lig.pdb

>  <RI>
2.86608e+07

>  <Rbt.Current_Directory>
/home/itssahil/PROJECTS/Mol_Feturizer/New_Systems/rnas/2l1v

>  <Rbt.Executable>
rbdock ($Id: //depot/dev/client3/rdock/2013.1/src/exe/rbdock.cxx#4 $)

>  <Rbt.Library>
libRbt.so (2013.1, Build901 2013/11/27)

>  <Rbt.Parameter_File>
/export/apps/rDock/src/rDock_2013.1_src/data/scripts/dock_solv.prm

>  <Rbt.Receptor>
prm/pocket_docking_7.prm

>  <SCORE>
-38.9542

>  <SCORE.INTER>
-40.2938

>  <SCORE.INTER.CONST>
1

>  <SCORE.INTER.POLAR>
-2.82496

>  <SCORE.INTER.ROT>
2

>  <SCORE.INTER.SOLV>
15.8466

>  <SCORE.INTER.VDW>
-27.6615

>  <SCORE.INTER.norm>
-3.09952

>  <SCORE.INTRA>
1.33963

>  <SCORE.INTRA.DIHEDRAL>
0.470803

>  <SCORE.INTRA.DIHEDRAL.0>
1.43995

>  <SCORE.INTRA.POLAR>
0.272593

>  <SCORE.INTRA.POLAR.0>
-0.272593

>  <SCORE.INTRA.REPUL>
0

>  <SCORE.INTRA.REPUL.0>
0

>  <SCORE.INTRA.SOLV>
0.136115

>  <SCORE.INTRA.SOLV.lig_0>
-22.6728

>  <SCORE.INTRA.VDW>
0.109358

>  <SCORE.INTRA.VDW.0>
-0.754459

>  <SCORE.INTRA.norm>
0.103049

>  <SCORE.RESTR>
0

>  <SCORE.RESTR.CAVITY>
0

>  <SCORE.RESTR.norm>
0

>  <SCORE.SYSTEM>
0

>  <SCORE.SYSTEM.CONST>
0

>  <SCORE.SYSTEM.DIHEDRAL>
0

>  <SCORE.SYSTEM.SOLV>
0

>  <SCORE.SYSTEM.norm>
0

>  <SCORE.heavy>
13

>  <SCORE.norm>
-2.99647

>  <RMSD>
2.871

$$$$
lig.pdb
 OpenBabel11021811453D
libRbt.so/2013.1/901 2013/11/27
 13 14  0  0  0  0  0  0  0  0999 V2000
    3.1675    1.8610   -3.2890 N   0  0  0  0  0  0  0  0  0  0  0  0
    2.4387    2.7939   -3.9852 C   0  0  0  0  0  0  0  0  0  0  0  0
    1.1303    2.9068   -3.7844 N   0  0  0  0  0  0  0  0  0  0  0  0
    0.4727    2.1094   -2.8864 C   0  0  0  0  0  0  0  0  0  0  0  0
    1.1857    1.1270   -2.1532 C   0  0  0  0  0  0  0  0  0  0  0  0
    2.5878    1.0218   -2.3779 C   0  0  0  0  0  0  0  0  0  0  0  0
    3.2630    0.2064   -1.7762 O   0  0  0  0  0  0  0  0  0  0  0  0
    0.2057    0.4330   -1.3177 C   0  0  0  0  0  0  0  0  0  0  0  0
    0.4603   -0.7347   -0.4033 C   0  0  0  0  0  0  0  0  0  0  0  0
    1.4778   -1.6129   -0.9971 N   0  0  0  0  0  0  0  0  0  0  0  0
   -0.9698    1.0300   -1.5517 C   0  0  0  0  0  0  0  0  0  0  0  0
   -0.8220    2.0186   -2.4881 N   0  0  0  0  0  0  0  0  0  0  0  0
    3.0655    3.6168   -4.8835 N   0  0  0  0  0  0  0  0  0  0  0  0
  1  6  1  0  0  0  0
  2  1  1  0  0  0  0
  2  3  2  0  0  0  0
  3  4  1  0  0  0  0
  4  5  2  0  0  0  0
  4 12  1  0  0  0  0
  5  8  1  0  0  0  0
  6  7  2  0  0  0  0
  6  5  1  0  0  0  0
  8 11  2  0  0  0  0
  8  9  1  0  0  0  0
 10  9  1  0  0  0  0
 12 11  1  0  0  0  0
 13  2  1  0  0  0  0
M  END
>  <CHROM.1>
-35.44745133,159.37470627,1.41782619,1.27173495,-2.46992899,-1.17227227,-0.20821342
2.48691259

>  <Name>
lig.pdb

>  <RI>
2.86608e+07

>  <Rbt.Current_Directory>
/home/itssahil/PROJECTS/Mol_Feturizer/New_Systems/rnas/2l1v

>  <Rbt.Executable>
rbdock ($Id: //depot/dev/client3/rdock/2013.1/src/exe/rbdock.cxx#4 $)

>  <Rbt.Library>
libRbt.so (2013.1, Build901 2013/11/27)

>  <Rbt.Parameter_File>
/export/apps/rDock/src/rDock_2013.1_src/data/scripts/dock_solv.prm

>  <Rbt.Receptor>
prm/pocket_docking_7.prm

>  <SCORE>
-40.3607

>  <SCORE.INTER>
-42.0539

>  <SCORE.INTER.CONST>
1

>  <SCORE.INTER.POLAR>
-2.8527

>  <SCORE.INTER.ROT>
2

>  <SCORE.INTER.SOLV>
16.8635

>  <SCORE.INTER.VDW>
-29.0815

>  <SCORE.INTER.norm>
-3.23492

>  <SCORE.INTRA>
1.69318

>  <SCORE.INTRA.DIHEDRAL>
0.798764

>  <SCORE.INTRA.DIHEDRAL.0>
1.43995

>  <SCORE.INTRA.POLAR>
0.272593

>  <SCORE.INTRA.POLAR.0>
-0.272593

>  <SCORE.INTRA.REPUL>
0

>  <SCORE.INTRA.REPUL.0>
0

>  <SCORE.INTRA.SOLV>
0.186052

>  <SCORE.INTRA.SOLV.lig_0>
-22.6728

>  <SCORE.INTRA.VDW>
0.27396

>  <SCORE.INTRA.VDW.0>
-0.754459

>  <SCORE.INTRA.norm>
0.130245

>  <SCORE.RESTR>
0

>  <SCORE.RESTR.CAVITY>
0

>  <SCORE.RESTR.norm>
0

>  <SCORE.SYSTEM>
0

>  <SCORE.SYSTEM.CONST>
0

>  <SCORE.SYSTEM.DIHEDRAL>
0

>  <SCORE.SYSTEM.SOLV>
0

>  <SCORE.SYSTEM.norm>
0

>  <SCORE.heavy>
13

>  <SCORE.norm>
-3.10467

>  <RMSD>
2.872

$$$$
lig.pdb
 OpenBabel11021811453D
libRbt.so/2013.1/901 2013/11/27
 13 14  0  0  0  0  0  0  0  0999 V2000
    3.2085    1.4699   -3.6368 N   0  0  0  0  0  0  0  0  0  0  0  0
    2.5597    2.5597   -4.1637 C   0  0  0  0  0  0  0  0  0  0  0  0
    1.2993    2.8143   -3.8296 N   0  0  0  0  0  0  0  0  0  0  0  0
    0.6139    2.0113   -2.9580 C   0  0  0  0  0  0  0  0  0  0  0  0
    1.2432    0.8705   -2.3979 C   0  0  0  0  0  0  0  0  0  0  0  0
    2.5953    0.6143   -2.7637 C   0  0  0  0  0  0  0  0  0  0  0  0
    3.1993   -0.3423   -2.3135 O   0  0  0  0  0  0  0  0  0  0  0  0
    0.2484    0.2172   -1.5473 C   0  0  0  0  0  0  0  0  0  0  0  0
    0.4144   -1.0683   -0.7829 C   0  0  0  0  0  0  0  0  0  0  0  0
    1.7368   -1.0934   -0.1425 N   0  0  0  0  0  0  0  0  0  0  0  0
   -0.8499    0.9808   -1.6079 C   0  0  0  0  0  0  0  0  0  0  0  0
   -0.6449    2.0413   -2.4501 N   0  0  0  0  0  0  0  0  0  0  0  0
    3.2183    3.3919   -5.0302 N   0  0  0  0  0  0  0  0  0  0  0  0
  1  6  1  0  0  0  0
  2  1  1  0  0  0  0
  2  3  2  0  0  0  0
  3  4  1  0  0  0  0
  4  5  2  0  0  0  0
  4 12  1  0  0  0  0
  5  8  1  0  0  0  0
  6  7  2  0  0  0  0
  6  5  1  0  0  0  0
  8 11  2  0  0  0  0
  8  9  1  0  0  0  0
 10  9  1  0  0  0  0
 12 11  1  0  0  0  0
 13  2  1  0  0  0  0
M  END
>  <CHROM.1>
42.71704064,-135.70753702,1.51161938,1.10331317,-2.58711496,-1.16302597,-0.29066046
2.44682413

>  <Name>
lig.pdb

>  <RI>
2.7104e+07

>  <Rbt.Current_Directory>
/home/itssahil/PROJECTS/Mol_Feturizer/New_Systems/rnas/2l1v

>  <Rbt.Executable>
rbdock ($Id: //depot/dev/client3/rdock/2013.1/src/exe/rbdock.cxx#4 $)

>  <Rbt.Library>
libRbt.so (2013.1, Build901 2013/11/27)

>  <Rbt.Parameter_File>
/export/apps/rDock/src/rDock_2013.1_src/data/scripts/dock_solv.prm

>  <Rbt.Receptor>
prm/pocket_docking_8.prm

>  <SCORE>
-39.0951

>  <SCORE.INTER>
-40.4341

>  <SCORE.INTER.CONST>
1

>  <SCORE.INTER.POLAR>
-2.82879

>  <SCORE.INTER.ROT>
2

>  <SCORE.INTER.SOLV>
15.831

>  <SCORE.INTER.VDW>
-27.7371

>  <SCORE.INTER.norm>
-3.11032

>  <SCORE.INTRA>
1.33902

>  <SCORE.INTRA.DIHEDRAL>
0.415853

>  <SCORE.INTRA.DIHEDRAL.0>
1.43995

>  <SCORE.INTRA.POLAR>
0.272593

>  <SCORE.INTRA.POLAR.0>
-0.272593

>  <SCORE.INTRA.REPUL>
0

>  <SCORE.INTRA.REPUL.0>
0

>  <SCORE.INTRA.SOLV>
0.134543

>  <SCORE.INTRA.SOLV.lig_0>
-22.6728

>  <SCORE.INTRA.VDW>
0.137011

>  <SCORE.INTRA.VDW.0>
-0.754459

>  <SCORE.INTRA.norm>
0.103002

>  <SCORE.RESTR>
0

>  <SCORE.RESTR.CAVITY>
0

>  <SCORE.RESTR.norm>
0

>  <SCORE.SYSTEM>
0

>  <SCORE.SYSTEM.CONST>
0

>  <SCORE.SYSTEM.DIHEDRAL>
0

>  <SCORE.SYSTEM.SOLV>
0

>  <SCORE.SYSTEM.norm>
0

>  <SCORE.heavy>
13

>  <SCORE.norm>
-3.00731

>  <RMSD>
2.872

$$$$
lig.pdb
 OpenBabel11021811453D
libRbt.so/2013.1/901 2013/11/27
 13 14  0  0  0  0  0  0  0  0999 V2000
    3.1928    1.8082   -3.2842 N   0  0  0  0  0  0  0  0  0  0  0  0
    2.4840    2.7740   -3.9558 C   0  0  0  0  0  0  0  0  0  0  0  0
    1.1778    2.9079   -3.7533 N   0  0  0  0  0  0  0  0  0  0  0  0
    0.5029    2.1002   -2.8777 C   0  0  0  0  0  0  0  0  0  0  0  0
    1.1947    1.0842   -2.1704 C   0  0  0  0  0  0  0  0  0  0  0  0
    2.5949    0.9567   -2.3965 C   0  0  0  0  0  0  0  0  0  0  0  0
    3.2525    0.1120   -1.8163 O   0  0  0  0  0  0  0  0  0  0  0  0
    0.1997    0.3880   -1.3550 C   0  0  0  0  0  0  0  0  0  0  0  0
    0.4292   -0.8087   -0.4719 C   0  0  0  0  0  0  0  0  0  0  0  0
    1.5080   -1.6346   -1.0319 N   0  0  0  0  0  0  0  0  0  0  0  0
   -0.9631    1.0147   -1.5739 C   0  0  0  0  0  0  0  0  0  0  0  0
   -0.7940    2.0249   -2.4833 N   0  0  0  0  0  0  0  0  0  0  0  0
    3.1286    3.6079   -4.8311 N   0  0  0  0  0  0  0  0  0  0  0  0
  1  6  1  0  0  0  0
  2  1  1  0  0  0  0
  2  3  2  0  0  0  0
  3  4  1  0  0  0  0
  4  5  2  0  0  0  0
  4 12  1  0  0  0  0
  5  8  1  0  0  0  0
  6  7  2  0  0  0  0
  6  5  1  0  0  0  0
  8 11  2  0  0  0  0
  8  9  1  0  0  0  0
 10  9  1  0  0  0  0
 12 11  1  0  0  0  0
 13  2  1  0  0  0  0
M  END
>  <CHROM.1>
-30.82014989,167.06102874,1.43757146,1.23793723,-2.47770286,-1.16038168,-0.21698815
2.50907588

>  <Name>
lig.pdb

>  <RI>
2.7104e+07

>  <Rbt.Current_Directory>
/home/itssahil/PROJECTS/Mol_Feturizer/New_Systems/rnas/2l1v

>  <Rbt.Executable>
rbdock ($Id: //depot/dev/client3/rdock/2013.1/src/exe/rbdock.cxx#4 $)

>  <Rbt.Library>
libRbt.so (2013.1, Build901 2013/11/27)

>  <Rbt.Parameter_File>
/export/apps/rDock/src/rDock_2013.1_src/data/scripts/dock_solv.prm

>  <Rbt.Receptor>
prm/pocket_docking_8.prm

>  <SCORE>
-39.734

>  <SCORE.INTER>
-41.8561

>  <SCORE.INTER.CONST>
1

>  <SCORE.INTER.POLAR>
-2.82866

>  <SCORE.INTER.ROT>
2

>  <SCORE.INTER.SOLV>
16.8376

>  <SCORE.INTER.VDW>
-29.0211

>  <SCORE.INTER.norm>
-3.2197

>  <SCORE.INTRA>
2.12212

>  <SCORE.INTRA.DIHEDRAL>
1.04057

>  <SCORE.INTRA.DIHEDRAL.0>
1.43995

>  <SCORE.INTRA.POLAR>
0.272593

>  <SCORE.INTRA.POLAR.0>
-0.272593

>  <SCORE.INTRA.REPUL>
0

>  <SCORE.INTRA.REPUL.0>
0

>  <SCORE.INTRA.SOLV>
0.242478

>  <SCORE.INTRA.SOLV.lig_0>
-22.6728

>  <SCORE.INTRA.VDW>
0.553782

>  <SCORE.INTRA.VDW.0>
-0.754459

>  <SCORE.INTRA.norm>
0.16324

>  <SCORE.RESTR>
0

>  <SCORE.RESTR.CAVITY>
0

>  <SCORE.RESTR.norm>
0

>  <SCORE.SYSTEM>
0

>  <SCORE.SYSTEM.CONST>
0

>  <SCORE.SYSTEM.DIHEDRAL>
0

>  <SCORE.SYSTEM.SOLV>
0

>  <SCORE.SYSTEM.norm>
0

>  <SCORE.heavy>
13

>  <SCORE.norm>
-3.05646

>  <RMSD>
2.876

$$$$
lig.pdb
 OpenBabel11021811453D
libRbt.so/2013.1/901 2013/11/27
 13 14  0  0  0  0  0  0  0  0999 V2000
    3.1606    1.8434   -3.2884 N   0  0  0  0  0  0  0  0  0  0  0  0
    2.4321    2.7778   -3.9830 C   0  0  0  0  0  0  0  0  0  0  0  0
    1.1240    2.8918   -3.7810 N   0  0  0  0  0  0  0  0  0  0  0  0
    0.4663    2.0943   -2.8833 C   0  0  0  0  0  0  0  0  0  0  0  0
    1.1788    1.1104   -2.1516 C   0  0  0  0  0  0  0  0  0  0  0  0
    2.5807    1.0040   -2.3776 C   0  0  0  0  0  0  0  0  0  0  0  0
    3.2555    0.1873   -1.7772 O   0  0  0  0  0  0  0  0  0  0  0  0
    0.1989    0.4166   -1.3161 C   0  0  0  0  0  0  0  0  0  0  0  0
    0.4529   -0.7521   -0.4029 C   0  0  0  0  0  0  0  0  0  0  0  0
    1.4805   -1.6226   -0.9910 N   0  0  0  0  0  0  0  0  0  0  0  0
   -0.9762    1.0151   -1.5485 C   0  0  0  0  0  0  0  0  0  0  0  0
   -0.8282    2.0044   -2.4841 N   0  0  0  0  0  0  0  0  0  0  0  0
    3.0591    3.6009   -4.8811 N   0  0  0  0  0  0  0  0  0  0  0  0
  1  6  1  0  0  0  0
  2  1  1  0  0  0  0
  2  3  2  0  0  0  0
  3  4  1  0  0  0  0
  4  5  2  0  0  0  0
  4 12  1  0  0  0  0
  5  8  1  0  0  0  0
  6  7  2  0  0  0  0
  6  5  1  0  0  0  0
  8 11  2  0  0  0  0
  8  9  1  0  0  0  0
 10  9  1  0  0  0  0
 12 11  1  0  0  0  0
 13  2  1  0  0  0  0
M  END
>  <CHROM.1>
-34.78651363,156.10827235,1.41196397,1.25603265,-2.46773971,-1.17272623,-0.20905717
2.48668667

>  <Name>
lig.pdb

>  <RI>
4.17264e+07

>  <Rbt.Current_Directory>
/home/itssahil/PROJECTS/Mol_Feturizer/New_Systems/rnas/2l1v

>  <Rbt.Executable>
rbdock ($Id: //depot/dev/client3/rdock/2013.1/src/exe/rbdock.cxx#4 $)

>  <Rbt.Library>
libRbt.so (2013.1, Build901 2013/11/27)

>  <Rbt.Parameter_File>
/export/apps/rDock/src/rDock_2013.1_src/data/scripts/dock_solv.prm

>  <Rbt.Receptor>
prm/blind_docking_20.prm

>  <SCORE>
-40.3231

>  <SCORE.INTER>
-42.0444

>  <SCORE.INTER.CONST>
1

>  <SCORE.INTER.POLAR>
-2.85227

>  <SCORE.INTER.ROT>
2

>  <SCORE.INTER.SOLV>
16.8297

>  <SCORE.INTER.VDW>
-29.0653

>  <SCORE.INTER.norm>
-3.23419

>  <SCORE.INTRA>
1.72136

>  <SCORE.INTRA.DIHEDRAL>
0.839971

>  <SCORE.INTRA.DIHEDRAL.0>
1.43995

>  <SCORE.INTRA.POLAR>
0.272593

>  <SCORE.INTRA.POLAR.0>
-0.272593

>  <SCORE.INTRA.REPUL>
0

>  <SCORE.INTRA.REPUL.0>
0

>  <SCORE.INTRA.SOLV>
0.191721

>  <SCORE.INTRA.SOLV.lig_0>
-22.6728

>  <SCORE.INTRA.VDW>
0.278703

>  <SCORE.INTRA.VDW.0>
-0.754459

>  <SCORE.INTRA.norm>
0.132413

>  <SCORE.RESTR>
0

>  <SCORE.RESTR.CAVITY>
0

>  <SCORE.RESTR.norm>
0

>  <SCORE.SYSTEM>
0

>  <SCORE.SYSTEM.CONST>
0

>  <SCORE.SYSTEM.DIHEDRAL>
0

>  <SCORE.SYSTEM.SOLV>
0

>  <SCORE.SYSTEM.norm>
0

>  <SCORE.heavy>
13

>  <SCORE.norm>
-3.10178

>  <RMSD>
2.877

$$$$
lig.pdb
 OpenBabel11021811453D
libRbt.so/2013.1/901 2013/11/27
 13 14  0  0  0  0  0  0  0  0999 V2000
    3.1893    1.8358   -3.2603 N   0  0  0  0  0  0  0  0  0  0  0  0
    2.4605    2.7624   -3.9647 C   0  0  0  0  0  0  0  0  0  0  0  0
    1.1502    2.8697   -3.7728 N   0  0  0  0  0  0  0  0  0  0  0  0
    0.4908    2.0726   -2.8761 C   0  0  0  0  0  0  0  0  0  0  0  0
    1.2037    1.0965   -2.1344 C   0  0  0  0  0  0  0  0  0  0  0  0
    2.6078    0.9973   -2.3497 C   0  0  0  0  0  0  0  0  0  0  0  0
    3.2829    0.1875   -1.7405 O   0  0  0  0  0  0  0  0  0  0  0  0
    0.2218    0.4009   -1.3027 C   0  0  0  0  0  0  0  0  0  0  0  0
    0.4760   -0.7619   -0.3820 C   0  0  0  0  0  0  0  0  0  0  0  0
    1.5097   -1.6315   -0.9606 N   0  0  0  0  0  0  0  0  0  0  0  0
   -0.9551    0.9913   -1.5465 C   0  0  0  0  0  0  0  0  0  0  0  0
   -0.8061    1.9770   -2.4858 N   0  0  0  0  0  0  0  0  0  0  0  0
    3.0891    3.5849   -4.8622 N   0  0  0  0  0  0  0  0  0  0  0  0
  1  6  1  0  0  0  0
  2  1  1  0  0  0  0
  2  3  2  0  0  0  0
  3  4  1  0  0  0  0
  4  5  2  0  0  0  0
  4 12  1  0  0  0  0
  5  8  1  0  0  0  0
  6  7  2  0  0  0  0
  6  5  1  0  0  0  0
  8 11  2  0  0  0  0
  8  9  1  0  0  0  0
 10  9  1  0  0  0  0
 12 11  1  0  0  0  0
 13  2  1  0  0  0  0
M  END
>  <CHROM.1>
-34.97780073,-25.65053622,1.43770299,1.24146273,-2.44978164,-1.17273922,-0.19981639
2.48240755

>  <Name>
lig.pdb

>  <RI>
9.54411e+06

>  <Rbt.Current_Directory>
/home/itssahil/PROJECTS/Mol_Feturizer/New_Systems/rnas/2l1v

>  <Rbt.Executable>
rbdock ($Id: //depot/dev/client3/rdock/2013.1/src/exe/rbdock.cxx#4 $)

>  <Rbt.Library>
libRbt.so (2013.1, Build901 2013/11/27)

>  <Rbt.Parameter_File>
/export/apps/rDock/src/rDock_2013.1_src/data/scripts/dock_solv.prm

>  <Rbt.Receptor>
prm/pocket_docking_6.prm

>  <SCORE>
-40.3536

>  <SCORE.INTER>
-41.9829

>  <SCORE.INTER.CONST>
1

>  <SCORE.INTER.POLAR>
-2.8527

>  <SCORE.INTER.ROT>
2

>  <SCORE.INTER.SOLV>
16.737

>  <SCORE.INTER.VDW>
-28.992

>  <SCORE.INTER.norm>
-3.22946

>  <SCORE.INTRA>
1.62935

>  <SCORE.INTRA.DIHEDRAL>
0.704161

>  <SCORE.INTRA.DIHEDRAL.0>
1.43995

>  <SCORE.INTRA.POLAR>
0.272593

>  <SCORE.INTRA.POLAR.0>
-0.272593

>  <SCORE.INTRA.REPUL>
0

>  <SCORE.INTRA.REPUL.0>
0

>  <SCORE.INTRA.SOLV>
0.184993

>  <SCORE.INTRA.SOLV.lig_0>
-22.6728

>  <SCORE.INTRA.VDW>
0.257961

>  <SCORE.INTRA.VDW.0>
-0.754459

>  <SCORE.INTRA.norm>
0.125335

>  <SCORE.RESTR>
0

>  <SCORE.RESTR.CAVITY>
0

>  <SCORE.RESTR.norm>
0

>  <SCORE.SYSTEM>
0

>  <SCORE.SYSTEM.CONST>
0

>  <SCORE.SYSTEM.DIHEDRAL>
0

>  <SCORE.SYSTEM.SOLV>
0

>  <SCORE.SYSTEM.norm>
0

>  <SCORE.heavy>
13

>  <SCORE.norm>
-3.10412

>  <RMSD>
2.880

$$$$
lig.pdb
 OpenBabel11021811453D
libRbt.so/2013.1/901 2013/11/27
 13 14  0  0  0  0  0  0  0  0999 V2000
    3.5290    1.1461   -3.1852 N   0  0  0  0  0  0  0  0  0  0  0  0
    3.0130    2.1634   -3.9500 C   0  0  0  0  0  0  0  0  0  0  0  0
    1.7522    2.5495   -3.7876 N   0  0  0  0  0  0  0  0  0  0  0  0
    0.9356    1.9562   -2.8626 C   0  0  0  0  0  0  0  0  0  0  0  0
    1.4256    0.8959   -2.0583 C   0  0  0  0  0  0  0  0  0  0  0  0
    2.7800    0.4970   -2.2427 C   0  0  0  0  0  0  0  0  0  0  0  0
    3.2684   -0.4003   -1.5801 O   0  0  0  0  0  0  0  0  0  0  0  0
    0.3151    0.4649   -1.2093 C   0  0  0  0  0  0  0  0  0  0  0  0
    0.3163   -0.6733   -0.2249 C   0  0  0  0  0  0  0  0  0  0  0  0
    1.1343   -1.7763   -0.7481 N   0  0  0  0  0  0  0  0  0  0  0  0
   -0.7121    1.2715   -1.5048 C   0  0  0  0  0  0  0  0  0  0  0  0
   -0.3555    2.1522   -2.4914 N   0  0  0  0  0  0  0  0  0  0  0  0
    3.8046    2.7878   -4.8776 N   0  0  0  0  0  0  0  0  0  0  0  0
  1  6  1  0  0  0  0
  2  1  1  0  0  0  0
  2  3  2  0  0  0  0
  3  4  1  0  0  0  0
  4  5  2  0  0  0  0
  4 12  1  0  0  0  0
  5  8  1  0  0  0  0
  6  7  2  0  0  0  0
  6  5  1  0  0  0  0
  8 11  2  0  0  0  0
  8  9  1  0  0  0  0
 10  9  1  0  0  0  0
 12 11  1  0  0  0  0
 13  2  1  0  0  0  0
M  END
>  <CHROM.1>
-35.84783270,-43.85464747,1.68514719,0.97110547,-2.37738807,-0.99335270,-0.31821570
2.47558902

>  <Name>
lig.pdb

>  <RI>
2.7104e+07

>  <Rbt.Current_Directory>
/home/itssahil/PROJECTS/Mol_Feturizer/New_Systems/rnas/2l1v

>  <Rbt.Executable>
rbdock ($Id: //depot/dev/client3/rdock/2013.1/src/exe/rbdock.cxx#4 $)

>  <Rbt.Library>
libRbt.so (2013.1, Build901 2013/11/27)

>  <Rbt.Parameter_File>
/export/apps/rDock/src/rDock_2013.1_src/data/scripts/dock_solv.prm

>  <Rbt.Receptor>
prm/pocket_docking_8.prm

>  <SCORE>
-37.7511

>  <SCORE.INTER>
-39.2999

>  <SCORE.INTER.CONST>
1

>  <SCORE.INTER.POLAR>
-3.0292

>  <SCORE.INTER.ROT>
2

>  <SCORE.INTER.SOLV>
15.9615

>  <SCORE.INTER.VDW>
-26.3565

>  <SCORE.INTER.norm>
-3.02307

>  <SCORE.INTRA>
1.54885

>  <SCORE.INTRA.DIHEDRAL>
0.668486

>  <SCORE.INTRA.DIHEDRAL.0>
1.43995

>  <SCORE.INTRA.POLAR>
0.272593

>  <SCORE.INTRA.POLAR.0>
-0.272593

>  <SCORE.INTRA.REPUL>
0

>  <SCORE.INTRA.REPUL.0>
0

>  <SCORE.INTRA.SOLV>
0.174252

>  <SCORE.INTRA.SOLV.lig_0>
-22.6728

>  <SCORE.INTRA.VDW>
0.200662

>  <SCORE.INTRA.VDW.0>
-0.754459

>  <SCORE.INTRA.norm>
0.119142

>  <SCORE.RESTR>
0

>  <SCORE.RESTR.CAVITY>
0

>  <SCORE.RESTR.norm>
0

>  <SCORE.SYSTEM>
0

>  <SCORE.SYSTEM.CONST>
0

>  <SCORE.SYSTEM.DIHEDRAL>
0

>  <SCORE.SYSTEM.SOLV>
0

>  <SCORE.SYSTEM.norm>
0

>  <SCORE.heavy>
13

>  <SCORE.norm>
-2.90393

>  <RMSD>
2.884

$$$$
lig.pdb
 OpenBabel11021811453D
libRbt.so/2013.1/901 2013/11/27
 13 14  0  0  0  0  0  0  0  0999 V2000
    3.1668    1.6781   -3.4759 N   0  0  0  0  0  0  0  0  0  0  0  0
    2.4788    2.7099   -4.0660 C   0  0  0  0  0  0  0  0  0  0  0  0
    1.1892    2.8913   -3.8029 N   0  0  0  0  0  0  0  0  0  0  0  0
    0.5115    2.0685   -2.9439 C   0  0  0  0  0  0  0  0  0  0  0  0
    1.1816    0.9854   -2.3201 C   0  0  0  0  0  0  0  0  0  0  0  0
    2.5643    0.8075   -2.6102 C   0  0  0  0  0  0  0  0  0  0  0  0
    3.2033   -0.0963   -2.1028 O   0  0  0  0  0  0  0  0  0  0  0  0
    0.1873    0.2914   -1.5019 C   0  0  0  0  0  0  0  0  0  0  0  0
    0.3942   -0.9606   -0.6931 C   0  0  0  0  0  0  0  0  0  0  0  0
    1.7372   -0.9457   -0.0969 N   0  0  0  0  0  0  0  0  0  0  0  0
   -0.9524    0.9808   -1.6394 C   0  0  0  0  0  0  0  0  0  0  0  0
   -0.7712    2.0303   -2.5007 N   0  0  0  0  0  0  0  0  0  0  0  0
    3.1276    3.5603   -4.9222 N   0  0  0  0  0  0  0  0  0  0  0  0
  1  6  1  0  0  0  0
  2  1  1  0  0  0  0
  2  3  2  0  0  0  0
  3  4  1  0  0  0  0
  4  5  2  0  0  0  0
  4 12  1  0  0  0  0
  5  8  1  0  0  0  0
  6  7  2  0  0  0  0
  6  5  1  0  0  0  0
  8 11  2  0  0  0  0
  8  9  1  0  0  0  0
 10  9  1  0  0  0  0
 12 11  1  0  0  0  0
 13  2  1  0  0  0  0
M  END
>  <CHROM.1>
36.99090795,119.02150491,1.44964439,1.22454135,-2.51274221,-1.17974840,-0.21249958
2.42366578

>  <Name>
lig.pdb

>  <RI>
4.17264e+07

>  <Rbt.Current_Directory>
/home/itssahil/PROJECTS/Mol_Feturizer/New_Systems/rnas/2l1v

>  <Rbt.Executable>
rbdock ($Id: //depot/dev/client3/rdock/2013.1/src/exe/rbdock.cxx#4 $)

>  <Rbt.Library>
libRbt.so (2013.1, Build901 2013/11/27)

>  <Rbt.Parameter_File>
/export/apps/rDock/src/rDock_2013.1_src/data/scripts/dock_solv.prm

>  <Rbt.Receptor>
prm/blind_docking_20.prm

>  <SCORE>
-36.6471

>  <SCORE.INTER>
-35.482

>  <SCORE.INTER.CONST>
1

>  <SCORE.INTER.POLAR>
-1.82525

>  <SCORE.INTER.ROT>
2

>  <SCORE.INTER.SOLV>
15.3024

>  <SCORE.INTER.VDW>
-27.6046

>  <SCORE.INTER.norm>
-2.72938

>  <SCORE.INTRA>
-1.16513

>  <SCORE.INTRA.DIHEDRAL>
0.754929

>  <SCORE.INTRA.DIHEDRAL.0>
1.43995

>  <SCORE.INTRA.POLAR>
-0.57713

>  <SCORE.INTRA.POLAR.0>
-0.272593

>  <SCORE.INTRA.REPUL>
0

>  <SCORE.INTRA.REPUL.0>
0

>  <SCORE.INTRA.SOLV>
0.197426

>  <SCORE.INTRA.SOLV.lig_0>
-22.6728

>  <SCORE.INTRA.VDW>
0.320939

>  <SCORE.INTRA.VDW.0>
-0.754459

>  <SCORE.INTRA.norm>
-0.0896251

>  <SCORE.RESTR>
0

>  <SCORE.RESTR.CAVITY>
0

>  <SCORE.RESTR.norm>
0

>  <SCORE.SYSTEM>
0

>  <SCORE.SYSTEM.CONST>
0

>  <SCORE.SYSTEM.DIHEDRAL>
0

>  <SCORE.SYSTEM.SOLV>
0

>  <SCORE.SYSTEM.norm>
0

>  <SCORE.heavy>
13

>  <SCORE.norm>
-2.81901

>  <RMSD>
2.885

$$$$
lig.pdb
 OpenBabel11021811453D
libRbt.so/2013.1/901 2013/11/27
 13 14  0  0  0  0  0  0  0  0999 V2000
    3.1859    1.8287   -3.2535 N   0  0  0  0  0  0  0  0  0  0  0  0
    2.4532    2.7539   -3.9558 C   0  0  0  0  0  0  0  0  0  0  0  0
    1.1427    2.8557   -3.7632 N   0  0  0  0  0  0  0  0  0  0  0  0
    0.4866    2.0542   -2.8679 C   0  0  0  0  0  0  0  0  0  0  0  0
    1.2036    1.0794   -2.1285 C   0  0  0  0  0  0  0  0  0  0  0  0
    2.6080    0.9861   -2.3444 C   0  0  0  0  0  0  0  0  0  0  0  0
    3.2865    0.1777   -1.7371 O   0  0  0  0  0  0  0  0  0  0  0  0
    0.2246    0.3783   -1.2979 C   0  0  0  0  0  0  0  0  0  0  0  0
    0.4837   -0.7855   -0.3797 C   0  0  0  0  0  0  0  0  0  0  0  0
    1.5256   -1.6461   -0.9571 N   0  0  0  0  0  0  0  0  0  0  0  0
   -0.9546    0.9645   -1.5401 C   0  0  0  0  0  0  0  0  0  0  0  0
   -0.8098    1.9527   -2.4775 N   0  0  0  0  0  0  0  0  0  0  0  0
    3.0783    3.5807   -4.8518 N   0  0  0  0  0  0  0  0  0  0  0  0
  1  6  1  0  0  0  0
  2  1  1  0  0  0  0
  2  3  2  0  0  0  0
  3  4  1  0  0  0  0
  4  5  2  0  0  0  0
  4 12  1  0  0  0  0
  5  8  1  0  0  0  0
  6  7  2  0  0  0  0
  6  5  1  0  0  0  0
  8 11  2  0  0  0  0
  8  9  1  0  0  0  0
 10  9  1  0  0  0  0
 12 11  1  0  0  0  0
 13  2  1  0  0  0  0
M  END
>  <CHROM.1>
-34.68496969,-23.73237696,1.43736949,1.22625146,-2.44333972,-1.17643064,-0.19758898
2.48331466

>  <Name>
lig.pdb

>  <RI>
2.86608e+07

>  <Rbt.Current_Directory>
/home/itssahil/PROJECTS/Mol_Feturizer/New_Systems/rnas/2l1v

>  <Rbt.Executable>
rbdock ($Id: //depot/dev/client3/rdock/2013.1/src/exe/rbdock.cxx#4 $)

>  <Rbt.Library>
libRbt.so (2013.1, Build901 2013/11/27)

>  <Rbt.Parameter_File>
/export/apps/rDock/src/rDock_2013.1_src/data/scripts/dock_solv.prm

>  <Rbt.Receptor>
prm/pocket_docking_7.prm

>  <SCORE>
-40.3898

>  <SCORE.INTER>
-42.0472

>  <SCORE.INTER.CONST>
1

>  <SCORE.INTER.POLAR>
-2.8527

>  <SCORE.INTER.ROT>
2

>  <SCORE.INTER.SOLV>
16.7112

>  <SCORE.INTER.VDW>
-29.0262

>  <SCORE.INTER.norm>
-3.2344

>  <SCORE.INTRA>
1.65747

>  <SCORE.INTRA.DIHEDRAL>
0.722441

>  <SCORE.INTRA.DIHEDRAL.0>
1.43995

>  <SCORE.INTRA.POLAR>
0.272593

>  <SCORE.INTRA.POLAR.0>
-0.272593

>  <SCORE.INTRA.REPUL>
0

>  <SCORE.INTRA.REPUL.0>
0

>  <SCORE.INTRA.SOLV>
0.187965

>  <SCORE.INTRA.SOLV.lig_0>
-22.6728

>  <SCORE.INTRA.VDW>
0.275448

>  <SCORE.INTRA.VDW.0>
-0.754459

>  <SCORE.INTRA.norm>
0.127497

>  <SCORE.RESTR>
0

>  <SCORE.RESTR.CAVITY>
0

>  <SCORE.RESTR.norm>
0

>  <SCORE.SYSTEM>
0

>  <SCORE.SYSTEM.CONST>
0

>  <SCORE.SYSTEM.DIHEDRAL>
0

>  <SCORE.SYSTEM.SOLV>
0

>  <SCORE.SYSTEM.norm>
0

>  <SCORE.heavy>
13

>  <SCORE.norm>
-3.10691

>  <RMSD>
2.886

$$$$
lig.pdb
 OpenBabel11021811453D
libRbt.so/2013.1/901 2013/11/27
 13 14  0  0  0  0  0  0  0  0999 V2000
    3.1782    1.8159   -3.2642 N   0  0  0  0  0  0  0  0  0  0  0  0
    2.4471    2.7460   -3.9618 C   0  0  0  0  0  0  0  0  0  0  0  0
    1.1384    2.8560   -3.7613 N   0  0  0  0  0  0  0  0  0  0  0  0
    0.4827    2.0584   -2.8622 C   0  0  0  0  0  0  0  0  0  0  0  0
    1.1979    1.0788   -2.1274 C   0  0  0  0  0  0  0  0  0  0  0  0
    2.6004    0.9767   -2.3519 C   0  0  0  0  0  0  0  0  0  0  0  0
    3.2774    0.1638   -1.7489 O   0  0  0  0  0  0  0  0  0  0  0  0
    0.2196    0.3836   -1.2911 C   0  0  0  0  0  0  0  0  0  0  0  0
    0.4769   -0.7820   -0.3749 C   0  0  0  0  0  0  0  0  0  0  0  0
    1.5141   -1.6458   -0.9559 N   0  0  0  0  0  0  0  0  0  0  0  0
   -0.9573    0.9774   -1.5261 C   0  0  0  0  0  0  0  0  0  0  0  0
   -0.8119    1.9650   -2.4640 N   0  0  0  0  0  0  0  0  0  0  0  0
    3.0720    3.5691   -4.8613 N   0  0  0  0  0  0  0  0  0  0  0  0
  1  6  1  0  0  0  0
  2  1  1  0  0  0  0
  2  3  2  0  0  0  0
  3  4  1  0  0  0  0
  4  5  2  0  0  0  0
  4 12  1  0  0  0  0
  5  8  1  0  0  0  0
  6  7  2  0  0  0  0
  6  5  1  0  0  0  0
  8 11  2  0  0  0  0
  8  9  1  0  0  0  0
 10  9  1  0  0  0  0
 12 11  1  0  0  0  0
 13  2  1  0  0  0  0
M  END
>  <CHROM.1>
-34.43319418,-24.91060671,1.43116700,1.22459914,-2.44337879,-1.17540358,-0.20608266
2.48341045

>  <Name>
lig.pdb

>  <RI>
2.7104e+07

>  <Rbt.Current_Directory>
/home/itssahil/PROJECTS/Mol_Feturizer/New_Systems/rnas/2l1v

>  <Rbt.Executable>
rbdock ($Id: //depot/dev/client3/rdock/2013.1/src/exe/rbdock.cxx#4 $)

>  <Rbt.Library>
libRbt.so (2013.1, Build901 2013/11/27)

>  <Rbt.Parameter_File>
/export/apps/rDock/src/rDock_2013.1_src/data/scripts/dock_solv.prm

>  <Rbt.Receptor>
prm/pocket_docking_8.prm

>  <SCORE>
-40.3921

>  <SCORE.INTER>
-42.0599

>  <SCORE.INTER.CONST>
1

>  <SCORE.INTER.POLAR>
-2.85168

>  <SCORE.INTER.ROT>
2

>  <SCORE.INTER.SOLV>
16.7092

>  <SCORE.INTER.VDW>
-29.0374

>  <SCORE.INTER.norm>
-3.23538

>  <SCORE.INTRA>
1.66783

>  <SCORE.INTRA.DIHEDRAL>
0.734936

>  <SCORE.INTRA.DIHEDRAL.0>
1.43995

>  <SCORE.INTRA.POLAR>
0.272593

>  <SCORE.INTRA.POLAR.0>
-0.272593

>  <SCORE.INTRA.REPUL>
0

>  <SCORE.INTRA.REPUL.0>
0

>  <SCORE.INTRA.SOLV>
0.190069

>  <SCORE.INTRA.SOLV.lig_0>
-22.6728

>  <SCORE.INTRA.VDW>
0.278511

>  <SCORE.INTRA.VDW.0>
-0.754459

>  <SCORE.INTRA.norm>
0.128295

>  <SCORE.RESTR>
0

>  <SCORE.RESTR.CAVITY>
0

>  <SCORE.RESTR.norm>
0

>  <SCORE.SYSTEM>
0

>  <SCORE.SYSTEM.CONST>
0

>  <SCORE.SYSTEM.DIHEDRAL>
0

>  <SCORE.SYSTEM.SOLV>
0

>  <SCORE.SYSTEM.norm>
0

>  <SCORE.heavy>
13

>  <SCORE.norm>
-3.10709

>  <RMSD>
2.887

$$$$
lig.pdb
 OpenBabel11021811453D
libRbt.so/2013.1/901 2013/11/27
 13 14  0  0  0  0  0  0  0  0999 V2000
    3.1836    1.8210   -3.2705 N   0  0  0  0  0  0  0  0  0  0  0  0
    2.4462    2.7495   -3.9635 C   0  0  0  0  0  0  0  0  0  0  0  0
    1.1368    2.8495   -3.7626 N   0  0  0  0  0  0  0  0  0  0  0  0
    0.4865    2.0429   -2.8676 C   0  0  0  0  0  0  0  0  0  0  0  0
    1.2084    1.0646   -2.1377 C   0  0  0  0  0  0  0  0  0  0  0  0
    2.6115    0.9732   -2.3625 C   0  0  0  0  0  0  0  0  0  0  0  0
    3.2941    0.1620   -1.7635 O   0  0  0  0  0  0  0  0  0  0  0  0
    0.2348    0.3585   -1.3050 C   0  0  0  0  0  0  0  0  0  0  0  0
    0.5000   -0.8099   -0.3946 C   0  0  0  0  0  0  0  0  0  0  0  0
    1.5461   -1.6614   -0.9777 N   0  0  0  0  0  0  0  0  0  0  0  0
   -0.9462    0.9454   -1.5371 C   0  0  0  0  0  0  0  0  0  0  0  0
   -0.8075    1.9386   -2.4700 N   0  0  0  0  0  0  0  0  0  0  0  0
    3.0655    3.5814   -4.8588 N   0  0  0  0  0  0  0  0  0  0  0  0
  1  6  1  0  0  0  0
  2  1  1  0  0  0  0
  2  3  2  0  0  0  0
  3  4  1  0  0  0  0
  4  5  2  0  0  0  0
  4 12  1  0  0  0  0
  5  8  1  0  0  0  0
  6  7  2  0  0  0  0
  6  5  1  0  0  0  0
  8 11  2  0  0  0  0
  8  9  1  0  0  0  0
 10  9  1  0  0  0  0
 12 11  1  0  0  0  0
 13  2  1  0  0  0  0
M  END
>  <CHROM.1>
-34.25543595,-24.81275361,1.44092361,1.21376423,-2.45267906,-1.18110893,-0.20171321
2.48699564

>  <Name>
lig.pdb

>  <RI>
2.7104e+07

>  <Rbt.Current_Directory>
/home/itssahil/PROJECTS/Mol_Feturizer/New_Systems/rnas/2l1v

>  <Rbt.Executable>
rbdock ($Id: //depot/dev/client3/rdock/2013.1/src/exe/rbdock.cxx#4 $)

>  <Rbt.Library>
libRbt.so (2013.1, Build901 2013/11/27)

>  <Rbt.Parameter_File>
/export/apps/rDock/src/rDock_2013.1_src/data/scripts/dock_solv.prm

>  <Rbt.Receptor>
prm/pocket_docking_8.prm

>  <SCORE>
-40.4105

>  <SCORE.INTER>
-42.0905

>  <SCORE.INTER.CONST>
1

>  <SCORE.INTER.POLAR>
-2.8527

>  <SCORE.INTER.ROT>
2

>  <SCORE.INTER.SOLV>
16.7417

>  <SCORE.INTER.VDW>
-29.0652

>  <SCORE.INTER.norm>
-3.23773

>  <SCORE.INTRA>
1.68

>  <SCORE.INTRA.DIHEDRAL>
0.744894

>  <SCORE.INTRA.DIHEDRAL.0>
1.43995

>  <SCORE.INTRA.POLAR>
0.272593

>  <SCORE.INTRA.POLAR.0>
-0.272593

>  <SCORE.INTRA.REPUL>
0

>  <SCORE.INTRA.REPUL.0>
0

>  <SCORE.INTRA.SOLV>
0.191694

>  <SCORE.INTRA.SOLV.lig_0>
-22.6728

>  <SCORE.INTRA.VDW>
0.284895

>  <SCORE.INTRA.VDW.0>
-0.754459

>  <SCORE.INTRA.norm>
0.129231

>  <SCORE.RESTR>
0

>  <SCORE.RESTR.CAVITY>
0

>  <SCORE.RESTR.norm>
0

>  <SCORE.SYSTEM>
0

>  <SCORE.SYSTEM.CONST>
0

>  <SCORE.SYSTEM.DIHEDRAL>
0

>  <SCORE.SYSTEM.SOLV>
0

>  <SCORE.SYSTEM.norm>
0

>  <SCORE.heavy>
13

>  <SCORE.norm>
-3.1085

>  <RMSD>
2.887

$$$$
lig.pdb
 OpenBabel11021811453D
libRbt.so/2013.1/901 2013/11/27
 13 14  0  0  0  0  0  0  0  0999 V2000
    3.2010    1.7902   -3.2793 N   0  0  0  0  0  0  0  0  0  0  0  0
    2.4775    2.7540   -3.9380 C   0  0  0  0  0  0  0  0  0  0  0  0
    1.1691    2.8638   -3.7356 N   0  0  0  0  0  0  0  0  0  0  0  0
    0.5062    2.0328   -2.8729 C   0  0  0  0  0  0  0  0  0  0  0  0
    1.2134    1.0180   -2.1792 C   0  0  0  0  0  0  0  0  0  0  0  0
    2.6157    0.9165   -2.4049 C   0  0  0  0  0  0  0  0  0  0  0  0
    3.2861    0.0742   -1.8358 O   0  0  0  0  0  0  0  0  0  0  0  0
    0.2287    0.2941   -1.3754 C   0  0  0  0  0  0  0  0  0  0  0  0
    0.4764   -0.9113   -0.5093 C   0  0  0  0  0  0  0  0  0  0  0  0
    1.6065   -1.6810   -1.0477 N   0  0  0  0  0  0  0  0  0  0  0  0
   -0.9438    0.9050   -1.5871 C   0  0  0  0  0  0  0  0  0  0  0  0
   -0.7899    1.9308   -2.4816 N   0  0  0  0  0  0  0  0  0  0  0  0
    3.1097    3.6107   -4.8002 N   0  0  0  0  0  0  0  0  0  0  0  0
  1  6  1  0  0  0  0
  2  1  1  0  0  0  0
  2  3  2  0  0  0  0
  3  4  1  0  0  0  0
  4  5  2  0  0  0  0
  4 12  1  0  0  0  0
  5  8  1  0  0  0  0
  6  7  2  0  0  0  0
  6  5  1  0  0  0  0
  8 11  2  0  0  0  0
  8  9  1  0  0  0  0
 10  9  1  0  0  0  0
 12 11  1  0  0  0  0
 13  2  1  0  0  0  0
M  END
>  <CHROM.1>
-28.43276997,-30.02255622,1.45739669,1.18266758,-2.48093900,-1.17565460,-0.20441274
2.51617422

>  <Name>
lig.pdb

>  <RI>
2.50021e+07

>  <Rbt.Current_Directory>
/home/itssahil/PROJECTS/Mol_Feturizer/New_Systems/rnas/2l1v

>  <Rbt.Executable>
rbdock ($Id: //depot/dev/client3/rdock/2013.1/src/exe/rbdock.cxx#4 $)

>  <Rbt.Library>
libRbt.so (2013.1, Build901 2013/11/27)

>  <Rbt.Parameter_File>
/export/apps/rDock/src/rDock_2013.1_src/data/scripts/dock_solv.prm

>  <Rbt.Receptor>
prm/pocket_docking_5.prm

>  <SCORE>
-39.8932

>  <SCORE.INTER>
-41.9866

>  <SCORE.INTER.CONST>
1

>  <SCORE.INTER.POLAR>
-2.84584

>  <SCORE.INTER.ROT>
2

>  <SCORE.INTER.SOLV>
16.8139

>  <SCORE.INTER.VDW>
-29.0429

>  <SCORE.INTER.norm>
-3.22974

>  <SCORE.INTRA>
2.09241

>  <SCORE.INTRA.DIHEDRAL>
1.07304

>  <SCORE.INTRA.DIHEDRAL.0>
1.43995

>  <SCORE.INTRA.POLAR>
0.272593

>  <SCORE.INTRA.POLAR.0>
-0.272593

>  <SCORE.INTRA.REPUL>
0

>  <SCORE.INTRA.REPUL.0>
0

>  <SCORE.INTRA.SOLV>
0.240308

>  <SCORE.INTRA.SOLV.lig_0>
-22.6728

>  <SCORE.INTRA.VDW>
0.508916

>  <SCORE.INTRA.VDW.0>
-0.754459

>  <SCORE.INTRA.norm>
0.160954

>  <SCORE.RESTR>
0.00100969

>  <SCORE.RESTR.CAVITY>
0.00100969

>  <SCORE.RESTR.norm>
7.76685e-05

>  <SCORE.SYSTEM>
0

>  <SCORE.SYSTEM.CONST>
0

>  <SCORE.SYSTEM.DIHEDRAL>
0

>  <SCORE.SYSTEM.SOLV>
0

>  <SCORE.SYSTEM.norm>
0

>  <SCORE.heavy>
13

>  <SCORE.norm>
-3.06871

>  <RMSD>
2.889

$$$$
lig.pdb
 OpenBabel11021811453D
libRbt.so/2013.1/901 2013/11/27
 13 14  0  0  0  0  0  0  0  0999 V2000
    3.1828    1.8256   -3.2550 N   0  0  0  0  0  0  0  0  0  0  0  0
    2.4456    2.7507   -3.9529 C   0  0  0  0  0  0  0  0  0  0  0  0
    1.1355    2.8492   -3.7556 N   0  0  0  0  0  0  0  0  0  0  0  0
    0.4843    2.0446   -2.8596 C   0  0  0  0  0  0  0  0  0  0  0  0
    1.2059    1.0698   -2.1246 C   0  0  0  0  0  0  0  0  0  0  0  0
    2.6098    0.9800   -2.3456 C   0  0  0  0  0  0  0  0  0  0  0  0
    3.2921    0.1719   -1.7422 O   0  0  0  0  0  0  0  0  0  0  0  0
    0.2314    0.3650   -1.2920 C   0  0  0  0  0  0  0  0  0  0  0  0
    0.4962   -0.8000   -0.3770 C   0  0  0  0  0  0  0  0  0  0  0  0
    1.5261   -1.6661   -0.9675 N   0  0  0  0  0  0  0  0  0  0  0  0
   -0.9499    0.9492   -1.5290 C   0  0  0  0  0  0  0  0  0  0  0  0
   -0.8105    1.9395   -2.4648 N   0  0  0  0  0  0  0  0  0  0  0  0
    3.0658    3.5806   -4.8494 N   0  0  0  0  0  0  0  0  0  0  0  0
  1  6  1  0  0  0  0
  2  1  1  0  0  0  0
  2  3  2  0  0  0  0
  3  4  1  0  0  0  0
  4  5  2  0  0  0  0
  4 12  1  0  0  0  0
  5  8  1  0  0  0  0
  6  7  2  0  0  0  0
  6  5  1  0  0  0  0
  8 11  2  0  0  0  0
  8  9  1  0  0  0  0
 10  9  1  0  0  0  0
 12 11  1  0  0  0  0
 13  2  1  0  0  0  0
M  END
>  <CHROM.1>
-35.37785283,156.21522281,1.43747619,1.21725055,-2.44063744,-1.17951487,-0.19928346
2.48547716

>  <Name>
lig.pdb

>  <RI>
2.7104e+07

>  <Rbt.Current_Directory>
/home/itssahil/PROJECTS/Mol_Feturizer/New_Systems/rnas/2l1v

>  <Rbt.Executable>
rbdock ($Id: //depot/dev/client3/rdock/2013.1/src/exe/rbdock.cxx#4 $)

>  <Rbt.Library>
libRbt.so (2013.1, Build901 2013/11/27)

>  <Rbt.Parameter_File>
/export/apps/rDock/src/rDock_2013.1_src/data/scripts/dock_solv.prm

>  <Rbt.Receptor>
prm/pocket_docking_8.prm

>  <SCORE>
-40.3901

>  <SCORE.INTER>
-42.0738

>  <SCORE.INTER.CONST>
1

>  <SCORE.INTER.POLAR>
-2.85248

>  <SCORE.INTER.ROT>
2

>  <SCORE.INTER.SOLV>
16.7202

>  <SCORE.INTER.VDW>
-29.0477

>  <SCORE.INTER.norm>
-3.23645

>  <SCORE.INTRA>
1.6837

>  <SCORE.INTRA.DIHEDRAL>
0.807449

>  <SCORE.INTRA.DIHEDRAL.0>
1.43995

>  <SCORE.INTRA.POLAR>
0.272593

>  <SCORE.INTRA.POLAR.0>
-0.272593

>  <SCORE.INTRA.REPUL>
0

>  <SCORE.INTRA.REPUL.0>
0

>  <SCORE.INTRA.SOLV>
0.186327

>  <SCORE.INTRA.SOLV.lig_0>
-22.6728

>  <SCORE.INTRA.VDW>
0.259996

>  <SCORE.INTRA.VDW.0>
-0.754459

>  <SCORE.INTRA.norm>
0.129515

>  <SCORE.RESTR>
0

>  <SCORE.RESTR.CAVITY>
0

>  <SCORE.RESTR.norm>
0

>  <SCORE.SYSTEM>
0

>  <SCORE.SYSTEM.CONST>
0

>  <SCORE.SYSTEM.DIHEDRAL>
0

>  <SCORE.SYSTEM.SOLV>
0

>  <SCORE.SYSTEM.norm>
0

>  <SCORE.heavy>
13

>  <SCORE.norm>
-3.10693

>  <RMSD>
2.889

$$$$
lig.pdb
 OpenBabel11021811453D
libRbt.so/2013.1/901 2013/11/27
 13 14  0  0  0  0  0  0  0  0999 V2000
    3.4854    0.9939   -3.4097 N   0  0  0  0  0  0  0  0  0  0  0  0
    3.0219    2.1105   -4.0612 C   0  0  0  0  0  0  0  0  0  0  0  0
    1.7793    2.5353   -3.8600 N   0  0  0  0  0  0  0  0  0  0  0  0
    0.9303    1.8849   -3.0054 C   0  0  0  0  0  0  0  0  0  0  0  0
    1.3654    0.7225   -2.3193 C   0  0  0  0  0  0  0  0  0  0  0  0
    2.7011    0.2829   -2.5437 C   0  0  0  0  0  0  0  0  0  0  0  0
    3.1432   -0.7022   -1.9808 O   0  0  0  0  0  0  0  0  0  0  0  0
    0.2307    0.2550   -1.5232 C   0  0  0  0  0  0  0  0  0  0  0  0
    0.1730   -0.9811   -0.6670 C   0  0  0  0  0  0  0  0  0  0  0  0
    1.5094   -1.2704   -0.1287 N   0  0  0  0  0  0  0  0  0  0  0  0
   -0.7561    1.1358   -1.7315 C   0  0  0  0  0  0  0  0  0  0  0  0
   -0.3528    2.0998   -2.6170 N   0  0  0  0  0  0  0  0  0  0  0  0
    3.8475    2.7934   -4.9151 N   0  0  0  0  0  0  0  0  0  0  0  0
  1  6  1  0  0  0  0
  2  1  1  0  0  0  0
  2  3  2  0  0  0  0
  3  4  1  0  0  0  0
  4  5  2  0  0  0  0
  4 12  1  0  0  0  0
  5  8  1  0  0  0  0
  6  7  2  0  0  0  0
  6  5  1  0  0  0  0
  8 11  2  0  0  0  0
  8  9  1  0  0  0  0
 10  9  1  0  0  0  0
 12 11  1  0  0  0  0
 13  2  1  0  0  0  0
M  END
>  <CHROM.1>
30.99421173,-118.15600550,1.68320312,0.89291534,-2.51817508,-1.00897864,-0.30607081
2.44586092

>  <Name>
lig.pdb

>  <RI>
2.05237e+07

>  <Rbt.Current_Directory>
/home/itssahil/PROJECTS/Mol_Feturizer/New_Systems/rnas/2l1v

>  <Rbt.Executable>
rbdock ($Id: //depot/dev/client3/rdock/2013.1/src/exe/rbdock.cxx#4 $)

>  <Rbt.Library>
libRbt.so (2013.1, Build901 2013/11/27)

>  <Rbt.Parameter_File>
/export/apps/rDock/src/rDock_2013.1_src/data/scripts/dock_solv.prm

>  <Rbt.Receptor>
prm/blind_docking_100.prm

>  <SCORE>
-39.9898

>  <SCORE.INTER>
-42.0944

>  <SCORE.INTER.CONST>
1

>  <SCORE.INTER.POLAR>
-3.20649

>  <SCORE.INTER.ROT>
2

>  <SCORE.INTER.SOLV>
15.3281

>  <SCORE.INTER.VDW>
-27.4173

>  <SCORE.INTER.norm>
-3.23803

>  <SCORE.INTRA>
2.10459

>  <SCORE.INTRA.DIHEDRAL>
1.10388

>  <SCORE.INTRA.DIHEDRAL.0>
1.43995

>  <SCORE.INTRA.POLAR>
0.272593

>  <SCORE.INTRA.POLAR.0>
-0.272593

>  <SCORE.INTRA.REPUL>
0

>  <SCORE.INTRA.REPUL.0>
0

>  <SCORE.INTRA.SOLV>
0.236558

>  <SCORE.INTRA.SOLV.lig_0>
-22.6728

>  <SCORE.INTRA.VDW>
0.507558

>  <SCORE.INTRA.VDW.0>
-0.754459

>  <SCORE.INTRA.norm>
0.161892

>  <SCORE.RESTR>
0

>  <SCORE.RESTR.CAVITY>
0

>  <SCORE.RESTR.norm>
0

>  <SCORE.SYSTEM>
0

>  <SCORE.SYSTEM.CONST>
0

>  <SCORE.SYSTEM.DIHEDRAL>
0

>  <SCORE.SYSTEM.SOLV>
0

>  <SCORE.SYSTEM.norm>
0

>  <SCORE.heavy>
13

>  <SCORE.norm>
-3.07614

>  <RMSD>
2.892

$$$$
lig.pdb
 OpenBabel11021811453D
libRbt.so/2013.1/901 2013/11/27
 13 14  0  0  0  0  0  0  0  0999 V2000
    3.4842    0.9918   -3.4092 N   0  0  0  0  0  0  0  0  0  0  0  0
    3.0210    2.1079   -4.0620 C   0  0  0  0  0  0  0  0  0  0  0  0
    1.7785    2.5332   -3.8614 N   0  0  0  0  0  0  0  0  0  0  0  0
    0.9292    1.8838   -3.0062 C   0  0  0  0  0  0  0  0  0  0  0  0
    1.3640    0.7221   -2.3188 C   0  0  0  0  0  0  0  0  0  0  0  0
    2.6996    0.2820   -2.5426 C   0  0  0  0  0  0  0  0  0  0  0  0
    3.1414   -0.7026   -1.9786 O   0  0  0  0  0  0  0  0  0  0  0  0
    0.2291    0.2557   -1.5224 C   0  0  0  0  0  0  0  0  0  0  0  0
    0.1710   -0.9795   -0.6650 C   0  0  0  0  0  0  0  0  0  0  0  0
    1.5087   -1.2727   -0.1320 N   0  0  0  0  0  0  0  0  0  0  0  0
   -0.7575    1.1365   -1.7318 C   0  0  0  0  0  0  0  0  0  0  0  0
   -0.3539    2.0995   -2.6182 N   0  0  0  0  0  0  0  0  0  0  0  0
    3.8469    2.7897   -4.9165 N   0  0  0  0  0  0  0  0  0  0  0  0
  1  6  1  0  0  0  0
  2  1  1  0  0  0  0
  2  3  2  0  0  0  0
  3  4  1  0  0  0  0
  4  5  2  0  0  0  0
  4 12  1  0  0  0  0
  5  8  1  0  0  0  0
  6  7  2  0  0  0  0
  6  5  1  0  0  0  0
  8 11  2  0  0  0  0
  8  9  1  0  0  0  0
 10  9  1  0  0  0  0
 12 11  1  0  0  0  0
 13  2  1  0  0  0  0
M  END
>  <CHROM.1>
30.68756228,59.90027810,1.68214814,0.89201230,-2.51870996,-1.00836890,-0.30620572
2.44571821

>  <Name>
lig.pdb

>  <RI>
4.02536e+07

>  <Rbt.Current_Directory>
/home/itssahil/PROJECTS/Mol_Feturizer/New_Systems/rnas/2l1v

>  <Rbt.Executable>
rbdock ($Id: //depot/dev/client3/rdock/2013.1/src/exe/rbdock.cxx#4 $)

>  <Rbt.Library>
libRbt.so (2013.1, Build901 2013/11/27)

>  <Rbt.Parameter_File>
/export/apps/rDock/src/rDock_2013.1_src/data/scripts/dock_solv.prm

>  <Rbt.Receptor>
prm/blind_docking_40.prm

>  <SCORE>
-40.0034

>  <SCORE.INTER>
-42.1247

>  <SCORE.INTER.CONST>
1

>  <SCORE.INTER.POLAR>
-3.20869

>  <SCORE.INTER.ROT>
2

>  <SCORE.INTER.SOLV>
15.3334

>  <SCORE.INTER.VDW>
-27.4319

>  <SCORE.INTER.norm>
-3.24036

>  <SCORE.INTRA>
2.12132

>  <SCORE.INTRA.DIHEDRAL>
1.10819

>  <SCORE.INTRA.DIHEDRAL.0>
1.43995

>  <SCORE.INTRA.POLAR>
0.272593

>  <SCORE.INTRA.POLAR.0>
-0.272593

>  <SCORE.INTRA.REPUL>
0

>  <SCORE.INTRA.REPUL.0>
0

>  <SCORE.INTRA.SOLV>
0.244383

>  <SCORE.INTRA.SOLV.lig_0>
-22.6728

>  <SCORE.INTRA.VDW>
0.518212

>  <SCORE.INTRA.VDW.0>
-0.754459

>  <SCORE.INTRA.norm>
0.163178

>  <SCORE.RESTR>
0

>  <SCORE.RESTR.CAVITY>
0

>  <SCORE.RESTR.norm>
0

>  <SCORE.SYSTEM>
0

>  <SCORE.SYSTEM.CONST>
0

>  <SCORE.SYSTEM.DIHEDRAL>
0

>  <SCORE.SYSTEM.SOLV>
0

>  <SCORE.SYSTEM.norm>
0

>  <SCORE.heavy>
13

>  <SCORE.norm>
-3.07718

>  <RMSD>
2.892

$$$$
lig.pdb
 OpenBabel11021811453D
libRbt.so/2013.1/901 2013/11/27
 13 14  0  0  0  0  0  0  0  0999 V2000
    3.5168    1.1034   -3.1788 N   0  0  0  0  0  0  0  0  0  0  0  0
    2.9915    2.0971   -3.9680 C   0  0  0  0  0  0  0  0  0  0  0  0
    1.7307    2.4836   -3.8068 N   0  0  0  0  0  0  0  0  0  0  0  0
    0.9233    1.9141   -2.8590 C   0  0  0  0  0  0  0  0  0  0  0  0
    1.4230    0.8786   -2.0289 C   0  0  0  0  0  0  0  0  0  0  0  0
    2.7773    0.4789   -2.2126 C   0  0  0  0  0  0  0  0  0  0  0  0
    3.2738   -0.3977   -1.5286 O   0  0  0  0  0  0  0  0  0  0  0  0
    0.3205    0.4682   -1.1594 C   0  0  0  0  0  0  0  0  0  0  0  0
    0.3333   -0.6416   -0.1433 C   0  0  0  0  0  0  0  0  0  0  0  0
    0.9988   -1.8222   -0.7114 N   0  0  0  0  0  0  0  0  0  0  0  0
   -0.7116    1.2628   -1.4696 C   0  0  0  0  0  0  0  0  0  0  0  0
   -0.3656    2.1164   -2.4834 N   0  0  0  0  0  0  0  0  0  0  0  0
    3.7738    2.6975   -4.9191 N   0  0  0  0  0  0  0  0  0  0  0  0
  1  6  1  0  0  0  0
  2  1  1  0  0  0  0
  2  3  2  0  0  0  0
  3  4  1  0  0  0  0
  4  5  2  0  0  0  0
  4 12  1  0  0  0  0
  5  8  1  0  0  0  0
  6  7  2  0  0  0  0
  6  5  1  0  0  0  0
  8 11  2  0  0  0  0
  8  9  1  0  0  0  0
 10  9  1  0  0  0  0
 12 11  1  0  0  0  0
 13  2  1  0  0  0  0
M  END
>  <CHROM.1>
-43.29933166,-55.40906666,1.66568158,0.93940008,-2.35847862,-0.98944903,-0.32200751
2.45820373

>  <Name>
lig.pdb

>  <RI>
9.54411e+06

>  <Rbt.Current_Directory>
/home/itssahil/PROJECTS/Mol_Feturizer/New_Systems/rnas/2l1v

>  <Rbt.Executable>
rbdock ($Id: //depot/dev/client3/rdock/2013.1/src/exe/rbdock.cxx#4 $)

>  <Rbt.Library>
libRbt.so (2013.1, Build901 2013/11/27)

>  <Rbt.Parameter_File>
/export/apps/rDock/src/rDock_2013.1_src/data/scripts/dock_solv.prm

>  <Rbt.Receptor>
prm/pocket_docking_6.prm

>  <SCORE>
-37.8035

>  <SCORE.INTER>
-39.0035

>  <SCORE.INTER.CONST>
1

>  <SCORE.INTER.POLAR>
-3.01895

>  <SCORE.INTER.ROT>
2

>  <SCORE.INTER.SOLV>
15.9134

>  <SCORE.INTER.VDW>
-26.177

>  <SCORE.INTER.norm>
-3.00027

>  <SCORE.INTRA>
1.20001

>  <SCORE.INTRA.DIHEDRAL>
0.337286

>  <SCORE.INTRA.DIHEDRAL.0>
1.43995

>  <SCORE.INTRA.POLAR>
0.272593

>  <SCORE.INTRA.POLAR.0>
-0.272593

>  <SCORE.INTRA.REPUL>
0

>  <SCORE.INTRA.REPUL.0>
0

>  <SCORE.INTRA.SOLV>
0.101393

>  <SCORE.INTRA.SOLV.lig_0>
-22.6728

>  <SCORE.INTRA.VDW>
0.0538546

>  <SCORE.INTRA.VDW.0>
-0.754459

>  <SCORE.INTRA.norm>
0.0923084

>  <SCORE.RESTR>
0

>  <SCORE.RESTR.CAVITY>
0

>  <SCORE.RESTR.norm>
0

>  <SCORE.SYSTEM>
0

>  <SCORE.SYSTEM.CONST>
0

>  <SCORE.SYSTEM.DIHEDRAL>
0

>  <SCORE.SYSTEM.SOLV>
0

>  <SCORE.SYSTEM.norm>
0

>  <SCORE.heavy>
13

>  <SCORE.norm>
-2.90796

>  <RMSD>
2.892

$$$$
lig.pdb
 OpenBabel11021811453D
libRbt.so/2013.1/901 2013/11/27
 13 14  0  0  0  0  0  0  0  0999 V2000
    3.4812    0.9969   -3.4066 N   0  0  0  0  0  0  0  0  0  0  0  0
    3.0151    2.1142   -4.0552 C   0  0  0  0  0  0  0  0  0  0  0  0
    1.7725    2.5374   -3.8505 N   0  0  0  0  0  0  0  0  0  0  0  0
    0.9260    1.8845   -2.9953 C   0  0  0  0  0  0  0  0  0  0  0  0
    1.3639    0.7214   -2.3122 C   0  0  0  0  0  0  0  0  0  0  0  0
    2.6995    0.2836   -2.5403 C   0  0  0  0  0  0  0  0  0  0  0  0
    3.1438   -0.7021   -1.9801 O   0  0  0  0  0  0  0  0  0  0  0  0
    0.2314    0.2513   -1.5145 C   0  0  0  0  0  0  0  0  0  0  0  0
    0.1768   -0.9865   -0.6605 C   0  0  0  0  0  0  0  0  0  0  0  0
    1.5107   -1.2647   -0.1103 N   0  0  0  0  0  0  0  0  0  0  0  0
   -0.7568    1.1314   -1.7192 C   0  0  0  0  0  0  0  0  0  0  0  0
   -0.3565    2.0974   -2.6038 N   0  0  0  0  0  0  0  0  0  0  0  0
    3.8382    2.7995   -4.9096 N   0  0  0  0  0  0  0  0  0  0  0  0
  1  6  1  0  0  0  0
  2  1  1  0  0  0  0
  2  3  2  0  0  0  0
  3  4  1  0  0  0  0
  4  5  2  0  0  0  0
  4 12  1  0  0  0  0
  5  8  1  0  0  0  0
  6  7  2  0  0  0  0
  6  5  1  0  0  0  0
  8 11  2  0  0  0  0
  8  9  1  0  0  0  0
 10  9  1  0  0  0  0
 12 11  1  0  0  0  0
 13  2  1  0  0  0  0
M  END
>  <CHROM.1>
31.77937382,60.04602731,1.68081919,0.89362306,-2.51035994,-1.01097666,-0.30672149
2.44551727

>  <Name>
lig.pdb

>  <RI>
4.15415e+07

>  <Rbt.Current_Directory>
/home/itssahil/PROJECTS/Mol_Feturizer/New_Systems/rnas/2l1v

>  <Rbt.Executable>
rbdock ($Id: //depot/dev/client3/rdock/2013.1/src/exe/rbdock.cxx#4 $)

>  <Rbt.Library>
libRbt.so (2013.1, Build901 2013/11/27)

>  <Rbt.Parameter_File>
/export/apps/rDock/src/rDock_2013.1_src/data/scripts/dock_solv.prm

>  <Rbt.Receptor>
prm/blind_docking_60.prm

>  <SCORE>
-39.9877

>  <SCORE.INTER>
-42.0189

>  <SCORE.INTER.CONST>
1

>  <SCORE.INTER.POLAR>
-3.17953

>  <SCORE.INTER.ROT>
2

>  <SCORE.INTER.SOLV>
15.2972

>  <SCORE.INTER.VDW>
-27.4466

>  <SCORE.INTER.norm>
-3.23223

>  <SCORE.INTRA>
2.03128

>  <SCORE.INTRA.DIHEDRAL>
1.04487

>  <SCORE.INTRA.DIHEDRAL.0>
1.43995

>  <SCORE.INTRA.POLAR>
0.272593

>  <SCORE.INTRA.POLAR.0>
-0.272593

>  <SCORE.INTRA.REPUL>
0

>  <SCORE.INTRA.REPUL.0>
0

>  <SCORE.INTRA.SOLV>
0.235952

>  <SCORE.INTRA.SOLV.lig_0>
-22.6728

>  <SCORE.INTRA.VDW>
0.464058

>  <SCORE.INTRA.VDW.0>
-0.754459

>  <SCORE.INTRA.norm>
0.156253

>  <SCORE.RESTR>
0

>  <SCORE.RESTR.CAVITY>
0

>  <SCORE.RESTR.norm>
0

>  <SCORE.SYSTEM>
0

>  <SCORE.SYSTEM.CONST>
0

>  <SCORE.SYSTEM.DIHEDRAL>
0

>  <SCORE.SYSTEM.SOLV>
0

>  <SCORE.SYSTEM.norm>
0

>  <SCORE.heavy>
13

>  <SCORE.norm>
-3.07597

>  <RMSD>
2.894

$$$$
lig.pdb
 OpenBabel11021811453D
libRbt.so/2013.1/901 2013/11/27
 13 14  0  0  0  0  0  0  0  0999 V2000
    3.4728    0.9957   -3.4097 N   0  0  0  0  0  0  0  0  0  0  0  0
    3.0060    2.1121   -4.0592 C   0  0  0  0  0  0  0  0  0  0  0  0
    1.7632    2.5347   -3.8546 N   0  0  0  0  0  0  0  0  0  0  0  0
    0.9172    1.8822   -2.9986 C   0  0  0  0  0  0  0  0  0  0  0  0
    1.3559    0.7199   -2.3145 C   0  0  0  0  0  0  0  0  0  0  0  0
    2.6918    0.2827   -2.5424 C   0  0  0  0  0  0  0  0  0  0  0  0
    3.1368   -0.7022   -1.9814 O   0  0  0  0  0  0  0  0  0  0  0  0
    0.2239    0.2500   -1.5161 C   0  0  0  0  0  0  0  0  0  0  0  0
    0.1702   -0.9870   -0.6609 C   0  0  0  0  0  0  0  0  0  0  0  0
    1.5073   -1.2717   -0.1218 N   0  0  0  0  0  0  0  0  0  0  0  0
   -0.7649    1.1293   -1.7214 C   0  0  0  0  0  0  0  0  0  0  0  0
   -0.3653    2.0947   -2.6070 N   0  0  0  0  0  0  0  0  0  0  0  0
    3.8285    2.7970   -4.9144 N   0  0  0  0  0  0  0  0  0  0  0  0
  1  6  1  0  0  0  0
  2  1  1  0  0  0  0
  2  3  2  0  0  0  0
  3  4  1  0  0  0  0
  4  5  2  0  0  0  0
  4 12  1  0  0  0  0
  5  8  1  0  0  0  0
  6  7  2  0  0  0  0
  6  5  1  0  0  0  0
  8 11  2  0  0  0  0
  8  9  1  0  0  0  0
 10  9  1  0  0  0  0
 12 11  1  0  0  0  0
 13  2  1  0  0  0  0
M  END
>  <CHROM.1>
31.20789155,-117.95934770,1.67282933,0.89130302,-2.51361763,-1.01188697,-0.30677202
2.44538639

>  <Name>
lig.pdb

>  <RI>
4.15415e+07

>  <Rbt.Current_Directory>
/home/itssahil/PROJECTS/Mol_Feturizer/New_Systems/rnas/2l1v

>  <Rbt.Executable>
rbdock ($Id: //depot/dev/client3/rdock/2013.1/src/exe/rbdock.cxx#4 $)

>  <Rbt.Library>
libRbt.so (2013.1, Build901 2013/11/27)

>  <Rbt.Parameter_File>
/export/apps/rDock/src/rDock_2013.1_src/data/scripts/dock_solv.prm

>  <Rbt.Receptor>
prm/blind_docking_60.prm

>  <SCORE>
-39.9525

>  <SCORE.INTER>
-42.0397

>  <SCORE.INTER.CONST>
1

>  <SCORE.INTER.POLAR>
-3.17178

>  <SCORE.INTER.ROT>
2

>  <SCORE.INTER.SOLV>
15.3202

>  <SCORE.INTER.VDW>
-27.494

>  <SCORE.INTER.norm>
-3.23382

>  <SCORE.INTRA>
2.08717

>  <SCORE.INTRA.DIHEDRAL>
1.09226

>  <SCORE.INTRA.DIHEDRAL.0>
1.43995

>  <SCORE.INTRA.POLAR>
0.272593

>  <SCORE.INTRA.POLAR.0>
-0.272593

>  <SCORE.INTRA.REPUL>
0

>  <SCORE.INTRA.REPUL.0>
0

>  <SCORE.INTRA.SOLV>
0.234902

>  <SCORE.INTRA.SOLV.lig_0>
-22.6728

>  <SCORE.INTRA.VDW>
0.496777

>  <SCORE.INTRA.VDW.0>
-0.754459

>  <SCORE.INTRA.norm>
0.160552

>  <SCORE.RESTR>
0

>  <SCORE.RESTR.CAVITY>
0

>  <SCORE.RESTR.norm>
0

>  <SCORE.SYSTEM>
0

>  <SCORE.SYSTEM.CONST>
0

>  <SCORE.SYSTEM.DIHEDRAL>
0

>  <SCORE.SYSTEM.SOLV>
0

>  <SCORE.SYSTEM.norm>
0

>  <SCORE.heavy>
13

>  <SCORE.norm>
-3.07327

>  <RMSD>
2.895

$$$$
lig.pdb
 OpenBabel11021811453D
libRbt.so/2013.1/901 2013/11/27
 13 14  0  0  0  0  0  0  0  0999 V2000
    3.1571    1.6800   -3.4135 N   0  0  0  0  0  0  0  0  0  0  0  0
    2.4740    2.6959   -4.0359 C   0  0  0  0  0  0  0  0  0  0  0  0
    1.1797    2.8770   -3.7966 N   0  0  0  0  0  0  0  0  0  0  0  0
    0.4924    2.0695   -2.9306 C   0  0  0  0  0  0  0  0  0  0  0  0
    1.1573    1.0031   -2.2736 C   0  0  0  0  0  0  0  0  0  0  0  0
    2.5451    0.8253   -2.5387 C   0  0  0  0  0  0  0  0  0  0  0  0
    3.1800   -0.0646   -2.0024 O   0  0  0  0  0  0  0  0  0  0  0  0
    0.1535    0.3221   -1.4561 C   0  0  0  0  0  0  0  0  0  0  0  0
    0.3532   -0.9114   -0.6177 C   0  0  0  0  0  0  0  0  0  0  0  0
    1.6561   -0.8420    0.0584 N   0  0  0  0  0  0  0  0  0  0  0  0
   -0.9868    1.0033   -1.6257 C   0  0  0  0  0  0  0  0  0  0  0  0
   -0.7969    2.0350   -2.5064 N   0  0  0  0  0  0  0  0  0  0  0  0
    3.1323    3.5307   -4.9001 N   0  0  0  0  0  0  0  0  0  0  0  0
  1  6  1  0  0  0  0
  2  1  1  0  0  0  0
  2  3  2  0  0  0  0
  3  4  1  0  0  0  0
  4  5  2  0  0  0  0
  4 12  1  0  0  0  0
  5  8  1  0  0  0  0
  6  7  2  0  0  0  0
  6  5  1  0  0  0  0
  8 11  2  0  0  0  0
  8  9  1  0  0  0  0
 10  9  1  0  0  0  0
 12 11  1  0  0  0  0
 13  2  1  0  0  0  0
M  END
>  <CHROM.1>
40.14435661,116.26561021,1.42443767,1.24257420,-2.46166412,-1.17120073,-0.19658996
2.39822901

>  <Name>
lig.pdb

>  <RI>
1.77584e+07

>  <Rbt.Current_Directory>
/home/itssahil/PROJECTS/Mol_Feturizer/New_Systems/rnas/2l1v

>  <Rbt.Executable>
rbdock ($Id: //depot/dev/client3/rdock/2013.1/src/exe/rbdock.cxx#4 $)

>  <Rbt.Library>
libRbt.so (2013.1, Build901 2013/11/27)

>  <Rbt.Parameter_File>
/export/apps/rDock/src/rDock_2013.1_src/data/scripts/dock_solv.prm

>  <Rbt.Receptor>
prm/blind_docking_80.prm

>  <SCORE>
-36.6582

>  <SCORE.INTER>
-35.428

>  <SCORE.INTER.CONST>
1

>  <SCORE.INTER.POLAR>
-1.8329

>  <SCORE.INTER.ROT>
2

>  <SCORE.INTER.SOLV>
15.0854

>  <SCORE.INTER.VDW>
-27.4708

>  <SCORE.INTER.norm>
-2.72523

>  <SCORE.INTRA>
-1.23015

>  <SCORE.INTRA.DIHEDRAL>
0.578567

>  <SCORE.INTRA.DIHEDRAL.0>
1.43995

>  <SCORE.INTRA.POLAR>
-0.526736

>  <SCORE.INTRA.POLAR.0>
-0.272593

>  <SCORE.INTRA.REPUL>
0

>  <SCORE.INTRA.REPUL.0>
0

>  <SCORE.INTRA.SOLV>
0.165308

>  <SCORE.INTRA.SOLV.lig_0>
-22.6728

>  <SCORE.INTRA.VDW>
0.188812

>  <SCORE.INTRA.VDW.0>
-0.754459

>  <SCORE.INTRA.norm>
-0.0946271

>  <SCORE.RESTR>
0

>  <SCORE.RESTR.CAVITY>
0

>  <SCORE.RESTR.norm>
0

>  <SCORE.SYSTEM>
0

>  <SCORE.SYSTEM.CONST>
0

>  <SCORE.SYSTEM.DIHEDRAL>
0

>  <SCORE.SYSTEM.SOLV>
0

>  <SCORE.SYSTEM.norm>
0

>  <SCORE.heavy>
13

>  <SCORE.norm>
-2.81986

>  <RMSD>
2.895

$$$$
lig.pdb
 OpenBabel11021811453D
libRbt.so/2013.1/901 2013/11/27
 13 14  0  0  0  0  0  0  0  0999 V2000
    3.5224    0.9058   -3.4562 N   0  0  0  0  0  0  0  0  0  0  0  0
    3.0771    2.0577   -4.0571 C   0  0  0  0  0  0  0  0  0  0  0  0
    1.8491    2.5052   -3.8190 N   0  0  0  0  0  0  0  0  0  0  0  0
    0.9975    1.8437   -2.9755 C   0  0  0  0  0  0  0  0  0  0  0  0
    1.4138    0.6455   -2.3413 C   0  0  0  0  0  0  0  0  0  0  0  0
    2.7342    0.1819   -2.6046 C   0  0  0  0  0  0  0  0  0  0  0  0
    3.1600   -0.8347   -2.0870 O   0  0  0  0  0  0  0  0  0  0  0  0
    0.2804    0.1762   -1.5445 C   0  0  0  0  0  0  0  0  0  0  0  0
    0.2049   -1.0900   -0.7349 C   0  0  0  0  0  0  0  0  0  0  0  0
    1.4916   -1.3236   -0.0645 N   0  0  0  0  0  0  0  0  0  0  0  0
   -0.6869    1.0885   -1.7027 C   0  0  0  0  0  0  0  0  0  0  0  0
   -0.2734    2.0754   -2.5577 N   0  0  0  0  0  0  0  0  0  0  0  0
    3.9061    2.7521   -4.8983 N   0  0  0  0  0  0  0  0  0  0  0  0
  1  6  1  0  0  0  0
  2  1  1  0  0  0  0
  2  3  2  0  0  0  0
  3  4  1  0  0  0  0
  4  5  2  0  0  0  0
  4 12  1  0  0  0  0
  5  8  1  0  0  0  0
  6  7  2  0  0  0  0
  6  5  1  0  0  0  0
  8 11  2  0  0  0  0
  8  9  1  0  0  0  0
 10  9  1  0  0  0  0
 12 11  1  0  0  0  0
 13  2  1  0  0  0  0
M  END
>  <CHROM.1>
39.48002009,-106.65894076,1.72791759,0.82564498,-2.52348500,-0.99848395,-0.33252154
2.46973861

>  <Name>
lig.pdb

>  <RI>
1.77584e+07

>  <Rbt.Current_Directory>
/home/itssahil/PROJECTS/Mol_Feturizer/New_Systems/rnas/2l1v

>  <Rbt.Executable>
rbdock ($Id: //depot/dev/client3/rdock/2013.1/src/exe/rbdock.cxx#4 $)

>  <Rbt.Library>
libRbt.so (2013.1, Build901 2013/11/27)

>  <Rbt.Parameter_File>
/export/apps/rDock/src/rDock_2013.1_src/data/scripts/dock_solv.prm

>  <Rbt.Receptor>
prm/blind_docking_80.prm

>  <SCORE>
-39.0141

>  <SCORE.INTER>
-40.5402

>  <SCORE.INTER.CONST>
1

>  <SCORE.INTER.POLAR>
-2.94472

>  <SCORE.INTER.ROT>
2

>  <SCORE.INTER.SOLV>
15.3365

>  <SCORE.INTER.VDW>
-27.2566

>  <SCORE.INTER.norm>
-3.11848

>  <SCORE.INTRA>
1.52609

>  <SCORE.INTRA.DIHEDRAL>
0.667324

>  <SCORE.INTRA.DIHEDRAL.0>
1.43995

>  <SCORE.INTRA.POLAR>
0.272593

>  <SCORE.INTRA.POLAR.0>
-0.272593

>  <SCORE.INTRA.REPUL>
0

>  <SCORE.INTRA.REPUL.0>
0

>  <SCORE.INTRA.SOLV>
0.164907

>  <SCORE.INTRA.SOLV.lig_0>
-22.6728

>  <SCORE.INTRA.VDW>
0.183155

>  <SCORE.INTRA.VDW.0>
-0.754459

>  <SCORE.INTRA.norm>
0.117391

>  <SCORE.RESTR>
0

>  <SCORE.RESTR.CAVITY>
0

>  <SCORE.RESTR.norm>
0

>  <SCORE.SYSTEM>
0

>  <SCORE.SYSTEM.CONST>
0

>  <SCORE.SYSTEM.DIHEDRAL>
0

>  <SCORE.SYSTEM.SOLV>
0

>  <SCORE.SYSTEM.norm>
0

>  <SCORE.heavy>
13

>  <SCORE.norm>
-3.00109

>  <RMSD>
2.903

$$$$
lig.pdb
 OpenBabel11021811453D
libRbt.so/2013.1/901 2013/11/27
 13 14  0  0  0  0  0  0  0  0999 V2000
    3.1808    1.8366   -3.2640 N   0  0  0  0  0  0  0  0  0  0  0  0
    2.4434    2.7627   -3.9603 C   0  0  0  0  0  0  0  0  0  0  0  0
    1.1338    2.8628   -3.7605 N   0  0  0  0  0  0  0  0  0  0  0  0
    0.4833    2.0588   -2.8634 C   0  0  0  0  0  0  0  0  0  0  0  0
    1.2052    1.0830   -2.1299 C   0  0  0  0  0  0  0  0  0  0  0  0
    2.6085    0.9915   -2.3536 C   0  0  0  0  0  0  0  0  0  0  0  0
    3.2911    0.1824   -1.7517 O   0  0  0  0  0  0  0  0  0  0  0  0
    0.2314    0.3792   -1.2956 C   0  0  0  0  0  0  0  0  0  0  0  0
    0.4965   -0.7863   -0.3813 C   0  0  0  0  0  0  0  0  0  0  0  0
    1.8849   -1.2378   -0.5487 N   0  0  0  0  0  0  0  0  0  0  0  0
   -0.9496    0.9649   -1.5302 C   0  0  0  0  0  0  0  0  0  0  0  0
   -0.8108    1.9552   -2.4662 N   0  0  0  0  0  0  0  0  0  0  0  0
    3.0629    3.5920   -4.8579 N   0  0  0  0  0  0  0  0  0  0  0  0
  1  6  1  0  0  0  0
  2  1  1  0  0  0  0
  2  3  2  0  0  0  0
  3  4  1  0  0  0  0
  4  5  2  0  0  0  0
  4 12  1  0  0  0  0
  5  8  1  0  0  0  0
  6  7  2  0  0  0  0
  6  5  1  0  0  0  0
  8 11  2  0  0  0  0
  8  9  1  0  0  0  0
 10  9  1  0  0  0  0
 12 11  1  0  0  0  0
 13  2  1  0  0  0  0
M  END
>  <CHROM.1>
-6.28247668,-134.16127351,1.46986678,1.26884023,-2.40657848,-1.20527952,-0.17540448
2.42936806

>  <Name>
lig.pdb

>  <RI>
2.7104e+07

>  <Rbt.Current_Directory>
/home/itssahil/PROJECTS/Mol_Feturizer/New_Systems/rnas/2l1v

>  <Rbt.Executable>
rbdock ($Id: //depot/dev/client3/rdock/2013.1/src/exe/rbdock.cxx#4 $)

>  <Rbt.Library>
libRbt.so (2013.1, Build901 2013/11/27)

>  <Rbt.Parameter_File>
/export/apps/rDock/src/rDock_2013.1_src/data/scripts/dock_solv.prm

>  <Rbt.Receptor>
prm/pocket_docking_8.prm

>  <SCORE>
-38.0056

>  <SCORE.INTER>
-41.1623

>  <SCORE.INTER.CONST>
1

>  <SCORE.INTER.POLAR>
-2.84965

>  <SCORE.INTER.ROT>
2

>  <SCORE.INTER.SOLV>
15.7022

>  <SCORE.INTER.VDW>
-28.1101

>  <SCORE.INTER.norm>
-3.16633

>  <SCORE.INTRA>
3.15671

>  <SCORE.INTRA.DIHEDRAL>
2.08077

>  <SCORE.INTRA.DIHEDRAL.0>
1.43995

>  <SCORE.INTRA.POLAR>
-0.110089

>  <SCORE.INTRA.POLAR.0>
-0.272593

>  <SCORE.INTRA.REPUL>
0

>  <SCORE.INTRA.REPUL.0>
0

>  <SCORE.INTRA.SOLV>
0.3999

>  <SCORE.INTRA.SOLV.lig_0>
-22.6728

>  <SCORE.INTRA.VDW>
2.29068

>  <SCORE.INTRA.VDW.0>
-0.754459

>  <SCORE.INTRA.norm>
0.242824

>  <SCORE.RESTR>
0

>  <SCORE.RESTR.CAVITY>
0

>  <SCORE.RESTR.norm>
0

>  <SCORE.SYSTEM>
0

>  <SCORE.SYSTEM.CONST>
0

>  <SCORE.SYSTEM.DIHEDRAL>
0

>  <SCORE.SYSTEM.SOLV>
0

>  <SCORE.SYSTEM.norm>
0

>  <SCORE.heavy>
13

>  <SCORE.norm>
-2.9235

>  <RMSD>
2.908

$$$$
lig.pdb
 OpenBabel11021811453D
libRbt.so/2013.1/901 2013/11/27
 13 14  0  0  0  0  0  0  0  0999 V2000
    3.2017    1.8449   -3.2253 N   0  0  0  0  0  0  0  0  0  0  0  0
    2.4606    2.7609   -3.9308 C   0  0  0  0  0  0  0  0  0  0  0  0
    1.1485    2.8486   -3.7415 N   0  0  0  0  0  0  0  0  0  0  0  0
    0.4992    2.0415   -2.8464 C   0  0  0  0  0  0  0  0  0  0  0  0
    1.2251    1.0757   -2.1037 C   0  0  0  0  0  0  0  0  0  0  0  0
    2.6309    0.9974   -2.3162 C   0  0  0  0  0  0  0  0  0  0  0  0
    3.3168    0.1975   -1.7060 O   0  0  0  0  0  0  0  0  0  0  0  0
    0.2519    0.3652   -1.2743 C   0  0  0  0  0  0  0  0  0  0  0  0
    0.5215   -0.7942   -0.3536 C   0  0  0  0  0  0  0  0  0  0  0  0
    1.9001   -1.2656   -0.5457 N   0  0  0  0  0  0  0  0  0  0  0  0
   -0.9331    0.9381   -1.5202 C   0  0  0  0  0  0  0  0  0  0  0  0
   -0.7969    1.9264   -2.4588 N   0  0  0  0  0  0  0  0  0  0  0  0
    3.0787    3.5931   -4.8267 N   0  0  0  0  0  0  0  0  0  0  0  0
  1  6  1  0  0  0  0
  2  1  1  0  0  0  0
  2  3  2  0  0  0  0
  3  4  1  0  0  0  0
  4  5  2  0  0  0  0
  4 12  1  0  0  0  0
  5  8  1  0  0  0  0
  6  7  2  0  0  0  0
  6  5  1  0  0  0  0
  8 11  2  0  0  0  0
  8  9  1  0  0  0  0
 10  9  1  0  0  0  0
 12 11  1  0  0  0  0
 13  2  1  0  0  0  0
M  END
>  <CHROM.1>
-8.44265087,-135.11849118,1.48852754,1.26005463,-2.38247998,-1.20644552,-0.16547863
2.42978938

>  <Name>
lig.pdb

>  <RI>
2.7104e+07

>  <Rbt.Current_Directory>
/home/itssahil/PROJECTS/Mol_Feturizer/New_Systems/rnas/2l1v

>  <Rbt.Executable>
rbdock ($Id: //depot/dev/client3/rdock/2013.1/src/exe/rbdock.cxx#4 $)

>  <Rbt.Library>
libRbt.so (2013.1, Build901 2013/11/27)

>  <Rbt.Parameter_File>
/export/apps/rDock/src/rDock_2013.1_src/data/scripts/dock_solv.prm

>  <Rbt.Receptor>
prm/pocket_docking_8.prm

>  <SCORE>
-38.0694

>  <SCORE.INTER>
-41.0998

>  <SCORE.INTER.CONST>
1

>  <SCORE.INTER.POLAR>
-2.8527

>  <SCORE.INTER.ROT>
2

>  <SCORE.INTER.SOLV>
15.668

>  <SCORE.INTER.VDW>
-28.0469

>  <SCORE.INTER.norm>
-3.16152

>  <SCORE.INTRA>
3.03038

>  <SCORE.INTRA.DIHEDRAL>
2.02623

>  <SCORE.INTRA.DIHEDRAL.0>
1.43995

>  <SCORE.INTRA.POLAR>
-0.12143

>  <SCORE.INTRA.POLAR.0>
-0.272593

>  <SCORE.INTRA.REPUL>
0

>  <SCORE.INTRA.REPUL.0>
0

>  <SCORE.INTRA.SOLV>
0.397375

>  <SCORE.INTRA.SOLV.lig_0>
-22.6728

>  <SCORE.INTRA.VDW>
2.23144

>  <SCORE.INTRA.VDW.0>
-0.754459

>  <SCORE.INTRA.norm>
0.233106

>  <SCORE.RESTR>
0

>  <SCORE.RESTR.CAVITY>
0

>  <SCORE.RESTR.norm>
0

>  <SCORE.SYSTEM>
0

>  <SCORE.SYSTEM.CONST>
0

>  <SCORE.SYSTEM.DIHEDRAL>
0

>  <SCORE.SYSTEM.SOLV>
0

>  <SCORE.SYSTEM.norm>
0

>  <SCORE.heavy>
13

>  <SCORE.norm>
-2.92842

>  <RMSD>
2.913

$$$$
lig.pdb
 OpenBabel11021811453D
libRbt.so/2013.1/901 2013/11/27
 13 14  0  0  0  0  0  0  0  0999 V2000
    3.1640    1.7106   -3.5404 N   0  0  0  0  0  0  0  0  0  0  0  0
    2.3992    2.7287   -4.0549 C   0  0  0  0  0  0  0  0  0  0  0  0
    1.1190    2.8403   -3.7176 N   0  0  0  0  0  0  0  0  0  0  0  0
    0.5268    1.9576   -2.8548 C   0  0  0  0  0  0  0  0  0  0  0  0
    1.2778    0.8863   -2.3076 C   0  0  0  0  0  0  0  0  0  0  0  0
    2.6493    0.7835   -2.6767 C   0  0  0  0  0  0  0  0  0  0  0  0
    3.3550   -0.1063   -2.2374 O   0  0  0  0  0  0  0  0  0  0  0  0
    0.3618    0.1188   -1.4641 C   0  0  0  0  0  0  0  0  0  0  0  0
    0.6685   -1.1492   -0.7140 C   0  0  0  0  0  0  0  0  0  0  0  0
    1.9703   -1.0228   -0.0443 N   0  0  0  0  0  0  0  0  0  0  0  0
   -0.8135    0.7584   -1.5158 C   0  0  0  0  0  0  0  0  0  0  0  0
   -0.7269    1.8441   -2.3462 N   0  0  0  0  0  0  0  0  0  0  0  0
    2.9615    3.6374   -4.9123 N   0  0  0  0  0  0  0  0  0  0  0  0
  1  6  1  0  0  0  0
  2  1  1  0  0  0  0
  2  3  2  0  0  0  0
  3  4  1  0  0  0  0
  4  5  2  0  0  0  0
  4 12  1  0  0  0  0
  5  8  1  0  0  0  0
  6  7  2  0  0  0  0
  6  5  1  0  0  0  0
  8 11  2  0  0  0  0
  8  9  1  0  0  0  0
 10  9  1  0  0  0  0
 12 11  1  0  0  0  0
 13  2  1  0  0  0  0
M  END
>  <CHROM.1>
44.24976619,31.20939000,1.51757861,1.15053199,-2.49184012,-1.24949482,-0.21963962
2.43365395

>  <Name>
lig.pdb

>  <RI>
4.15415e+07

>  <Rbt.Current_Directory>
/home/itssahil/PROJECTS/Mol_Feturizer/New_Systems/rnas/2l1v

>  <Rbt.Executable>
rbdock ($Id: //depot/dev/client3/rdock/2013.1/src/exe/rbdock.cxx#4 $)

>  <Rbt.Library>
libRbt.so (2013.1, Build901 2013/11/27)

>  <Rbt.Parameter_File>
/export/apps/rDock/src/rDock_2013.1_src/data/scripts/dock_solv.prm

>  <Rbt.Receptor>
prm/blind_docking_60.prm

>  <SCORE>
-39.0977

>  <SCORE.INTER>
-40.4452

>  <SCORE.INTER.CONST>
1

>  <SCORE.INTER.POLAR>
-2.74684

>  <SCORE.INTER.ROT>
2

>  <SCORE.INTER.SOLV>
15.7069

>  <SCORE.INTER.VDW>
-27.9763

>  <SCORE.INTER.norm>
-3.11117

>  <SCORE.INTRA>
1.34744

>  <SCORE.INTRA.DIHEDRAL>
0.457962

>  <SCORE.INTRA.DIHEDRAL.0>
1.43995

>  <SCORE.INTRA.POLAR>
0.272593

>  <SCORE.INTRA.POLAR.0>
-0.272593

>  <SCORE.INTRA.REPUL>
0

>  <SCORE.INTRA.REPUL.0>
0

>  <SCORE.INTRA.SOLV>
0.125748

>  <SCORE.INTRA.SOLV.lig_0>
-22.6728

>  <SCORE.INTRA.VDW>
0.12877

>  <SCORE.INTRA.VDW.0>
-0.754459

>  <SCORE.INTRA.norm>
0.103649

>  <SCORE.RESTR>
0

>  <SCORE.RESTR.CAVITY>
0

>  <SCORE.RESTR.norm>
0

>  <SCORE.SYSTEM>
0

>  <SCORE.SYSTEM.CONST>
0

>  <SCORE.SYSTEM.DIHEDRAL>
0

>  <SCORE.SYSTEM.SOLV>
0

>  <SCORE.SYSTEM.norm>
0

>  <SCORE.heavy>
13

>  <SCORE.norm>
-3.00752

>  <RMSD>
2.914

$$$$
lig.pdb
 OpenBabel11021811453D
libRbt.so/2013.1/901 2013/11/27
 13 14  0  0  0  0  0  0  0  0999 V2000
    3.1581    1.6926   -3.5402 N   0  0  0  0  0  0  0  0  0  0  0  0
    2.4008    2.7208   -4.0458 C   0  0  0  0  0  0  0  0  0  0  0  0
    1.1210    2.8377   -3.7092 N   0  0  0  0  0  0  0  0  0  0  0  0
    0.5216    1.9506   -2.8558 C   0  0  0  0  0  0  0  0  0  0  0  0
    1.2647    0.8690   -2.3181 C   0  0  0  0  0  0  0  0  0  0  0  0
    2.6360    0.7606   -2.6863 C   0  0  0  0  0  0  0  0  0  0  0  0
    3.3351   -0.1381   -2.2547 O   0  0  0  0  0  0  0  0  0  0  0  0
    0.3423    0.0995   -1.4833 C   0  0  0  0  0  0  0  0  0  0  0  0
    0.6395   -1.1778   -0.7453 C   0  0  0  0  0  0  0  0  0  0  0  0
    1.9782   -1.0995   -0.1443 N   0  0  0  0  0  0  0  0  0  0  0  0
   -0.8286    0.7474   -1.5304 C   0  0  0  0  0  0  0  0  0  0  0  0
   -0.7336    1.8406   -2.3501 N   0  0  0  0  0  0  0  0  0  0  0  0
    2.9704    3.6341   -4.8935 N   0  0  0  0  0  0  0  0  0  0  0  0
  1  6  1  0  0  0  0
  2  1  1  0  0  0  0
  2  3  2  0  0  0  0
  3  4  1  0  0  0  0
  4  5  2  0  0  0  0
  4 12  1  0  0  0  0
  5  8  1  0  0  0  0
  6  7  2  0  0  0  0
  6  5  1  0  0  0  0
  8 11  2  0  0  0  0
  8  9  1  0  0  0  0
 10  9  1  0  0  0  0
 12 11  1  0  0  0  0
 13  2  1  0  0  0  0
M  END
>  <CHROM.1>
40.64298765,47.59468089,1.50990535,1.13037994,-2.50607553,-1.24470520,-0.22516373
2.45060025

>  <Name>
lig.pdb

>  <RI>
1.75485e+07

>  <Rbt.Current_Directory>
/home/itssahil/PROJECTS/Mol_Feturizer/New_Systems/rnas/2l1v

>  <Rbt.Executable>
rbdock ($Id: //depot/dev/client3/rdock/2013.1/src/exe/rbdock.cxx#4 $)

>  <Rbt.Library>
libRbt.so (2013.1, Build901 2013/11/27)

>  <Rbt.Parameter_File>
/export/apps/rDock/src/rDock_2013.1_src/data/scripts/dock_solv.prm

>  <Rbt.Receptor>
prm/pocket_docking_4.prm

>  <SCORE>
-39.0512

>  <SCORE.INTER>
-40.5291

>  <SCORE.INTER.CONST>
1

>  <SCORE.INTER.POLAR>
-2.74555

>  <SCORE.INTER.ROT>
2

>  <SCORE.INTER.SOLV>
15.7198

>  <SCORE.INTER.VDW>
-28.0408

>  <SCORE.INTER.norm>
-3.11763

>  <SCORE.INTRA>
1.47795

>  <SCORE.INTRA.DIHEDRAL>
0.599723

>  <SCORE.INTRA.DIHEDRAL.0>
1.43995

>  <SCORE.INTRA.POLAR>
0.272593

>  <SCORE.INTRA.POLAR.0>
-0.272593

>  <SCORE.INTRA.REPUL>
0

>  <SCORE.INTRA.REPUL.0>
0

>  <SCORE.INTRA.SOLV>
0.159844

>  <SCORE.INTRA.SOLV.lig_0>
-22.6728

>  <SCORE.INTRA.VDW>
0.171356

>  <SCORE.INTRA.VDW.0>
-0.754459

>  <SCORE.INTRA.norm>
0.113689

>  <SCORE.RESTR>
0

>  <SCORE.RESTR.CAVITY>
0

>  <SCORE.RESTR.norm>
0

>  <SCORE.SYSTEM>
0

>  <SCORE.SYSTEM.CONST>
0

>  <SCORE.SYSTEM.DIHEDRAL>
0

>  <SCORE.SYSTEM.SOLV>
0

>  <SCORE.SYSTEM.norm>
0

>  <SCORE.heavy>
13

>  <SCORE.norm>
-3.00394

>  <RMSD>
2.916

$$$$
lig.pdb
 OpenBabel11021811453D
libRbt.so/2013.1/901 2013/11/27
 13 14  0  0  0  0  0  0  0  0999 V2000
    3.1700    1.6748   -3.5277 N   0  0  0  0  0  0  0  0  0  0  0  0
    2.4107    2.6952   -4.0458 C   0  0  0  0  0  0  0  0  0  0  0  0
    1.1305    2.8135   -3.7108 N   0  0  0  0  0  0  0  0  0  0  0  0
    0.5329    1.9355   -2.8468 C   0  0  0  0  0  0  0  0  0  0  0  0
    1.2782    0.8621   -2.2959 C   0  0  0  0  0  0  0  0  0  0  0  0
    2.6497    0.7520   -2.6627 C   0  0  0  0  0  0  0  0  0  0  0  0
    3.3506   -0.1399   -2.2202 O   0  0  0  0  0  0  0  0  0  0  0  0
    0.3573    0.1007   -1.4521 C   0  0  0  0  0  0  0  0  0  0  0  0
    0.6570   -1.1669   -0.6986 C   0  0  0  0  0  0  0  0  0  0  0  0
    1.9515   -1.0393   -0.0149 N   0  0  0  0  0  0  0  0  0  0  0  0
   -0.8149    0.7456   -1.5070 C   0  0  0  0  0  0  0  0  0  0  0  0
   -0.7221    1.8290   -2.3399 N   0  0  0  0  0  0  0  0  0  0  0  0
    2.9785    3.5993   -4.9045 N   0  0  0  0  0  0  0  0  0  0  0  0
  1  6  1  0  0  0  0
  2  1  1  0  0  0  0
  2  3  2  0  0  0  0
  3  4  1  0  0  0  0
  4  5  2  0  0  0  0
  4 12  1  0  0  0  0
  5  8  1  0  0  0  0
  6  7  2  0  0  0  0
  6  5  1  0  0  0  0
  8 11  2  0  0  0  0
  8  9  1  0  0  0  0
 10  9  1  0  0  0  0
 12 11  1  0  0  0  0
 13  2  1  0  0  0  0
M  END
>  <CHROM.1>
44.87647140,30.78015147,1.51877328,1.12523804,-2.47928654,-1.24453873,-0.22119431
2.43132634

>  <Name>
lig.pdb

>  <RI>
9.54411e+06

>  <Rbt.Current_Directory>
/home/itssahil/PROJECTS/Mol_Feturizer/New_Systems/rnas/2l1v

>  <Rbt.Executable>
rbdock ($Id: //depot/dev/client3/rdock/2013.1/src/exe/rbdock.cxx#4 $)

>  <Rbt.Library>
libRbt.so (2013.1, Build901 2013/11/27)

>  <Rbt.Parameter_File>
/export/apps/rDock/src/rDock_2013.1_src/data/scripts/dock_solv.prm

>  <Rbt.Receptor>
prm/pocket_docking_6.prm

>  <SCORE>
-39.028

>  <SCORE.INTER>
-40.3507

>  <SCORE.INTER.CONST>
1

>  <SCORE.INTER.POLAR>
-2.74801

>  <SCORE.INTER.ROT>
2

>  <SCORE.INTER.SOLV>
15.6417

>  <SCORE.INTER.VDW>
-27.8877

>  <SCORE.INTER.norm>
-3.1039

>  <SCORE.INTRA>
1.32261

>  <SCORE.INTRA.DIHEDRAL>
0.430912

>  <SCORE.INTRA.DIHEDRAL.0>
1.43995

>  <SCORE.INTRA.POLAR>
0.272593

>  <SCORE.INTRA.POLAR.0>
-0.272593

>  <SCORE.INTRA.REPUL>
0

>  <SCORE.INTRA.REPUL.0>
0

>  <SCORE.INTRA.SOLV>
0.11941

>  <SCORE.INTRA.SOLV.lig_0>
-22.6728

>  <SCORE.INTRA.VDW>
0.120631

>  <SCORE.INTRA.VDW.0>
-0.754459

>  <SCORE.INTRA.norm>
0.101739

>  <SCORE.RESTR>
0

>  <SCORE.RESTR.CAVITY>
0

>  <SCORE.RESTR.norm>
0

>  <SCORE.SYSTEM>
0

>  <SCORE.SYSTEM.CONST>
0

>  <SCORE.SYSTEM.DIHEDRAL>
0

>  <SCORE.SYSTEM.SOLV>
0

>  <SCORE.SYSTEM.norm>
0

>  <SCORE.heavy>
13

>  <SCORE.norm>
-3.00216

>  <RMSD>
2.920

$$$$
lig.pdb
 OpenBabel11021811453D
libRbt.so/2013.1/901 2013/11/27
 13 14  0  0  0  0  0  0  0  0999 V2000
    3.1704    1.6729   -3.5277 N   0  0  0  0  0  0  0  0  0  0  0  0
    2.4106    2.6939   -4.0439 C   0  0  0  0  0  0  0  0  0  0  0  0
    1.1311    2.8125   -3.7066 N   0  0  0  0  0  0  0  0  0  0  0  0
    0.5346    1.9343   -2.8422 C   0  0  0  0  0  0  0  0  0  0  0  0
    1.2804    0.8603   -2.2931 C   0  0  0  0  0  0  0  0  0  0  0  0
    2.6512    0.7499   -2.6623 C   0  0  0  0  0  0  0  0  0  0  0  0
    3.3526   -0.1425   -2.2214 O   0  0  0  0  0  0  0  0  0  0  0  0
    0.3606    0.0989   -1.4481 C   0  0  0  0  0  0  0  0  0  0  0  0
    0.6612   -1.1693   -0.6958 C   0  0  0  0  0  0  0  0  0  0  0  0
    1.9519   -1.0386   -0.0056 N   0  0  0  0  0  0  0  0  0  0  0  0
   -0.8114    0.7442   -1.5007 C   0  0  0  0  0  0  0  0  0  0  0  0
   -0.7196    1.8280   -2.3331 N   0  0  0  0  0  0  0  0  0  0  0  0
    2.9773    3.5983   -4.9030 N   0  0  0  0  0  0  0  0  0  0  0  0
  1  6  1  0  0  0  0
  2  1  1  0  0  0  0
  2  3  2  0  0  0  0
  3  4  1  0  0  0  0
  4  5  2  0  0  0  0
  4 12  1  0  0  0  0
  5  8  1  0  0  0  0
  6  7  2  0  0  0  0
  6  5  1  0  0  0  0
  8 11  2  0  0  0  0
  8  9  1  0  0  0  0
 10  9  1  0  0  0  0
 12 11  1  0  0  0  0
 13  2  1  0  0  0  0
M  END
>  <CHROM.1>
45.31662294,-141.12730235,1.52016007,1.12378234,-2.47560496,-1.24509995,-0.22281822
2.43073590

>  <Name>
lig.pdb

>  <RI>
4.17264e+07

>  <Rbt.Current_Directory>
/home/itssahil/PROJECTS/Mol_Feturizer/New_Systems/rnas/2l1v

>  <Rbt.Executable>
rbdock ($Id: //depot/dev/client3/rdock/2013.1/src/exe/rbdock.cxx#4 $)

>  <Rbt.Library>
libRbt.so (2013.1, Build901 2013/11/27)

>  <Rbt.Parameter_File>
/export/apps/rDock/src/rDock_2013.1_src/data/scripts/dock_solv.prm

>  <Rbt.Receptor>
prm/blind_docking_20.prm

>  <SCORE>
-39.0859

>  <SCORE.INTER>
-40.3156

>  <SCORE.INTER.CONST>
1

>  <SCORE.INTER.POLAR>
-2.74491

>  <SCORE.INTER.ROT>
2

>  <SCORE.INTER.SOLV>
15.6133

>  <SCORE.INTER.VDW>
-27.8651

>  <SCORE.INTER.norm>
-3.1012

>  <SCORE.INTRA>
1.2297

>  <SCORE.INTRA.DIHEDRAL>
0.288791

>  <SCORE.INTRA.DIHEDRAL.0>
1.43995

>  <SCORE.INTRA.POLAR>
0.272593

>  <SCORE.INTRA.POLAR.0>
-0.272593

>  <SCORE.INTRA.REPUL>
0

>  <SCORE.INTRA.REPUL.0>
0

>  <SCORE.INTRA.SOLV>
0.108826

>  <SCORE.INTRA.SOLV.lig_0>
-22.6728

>  <SCORE.INTRA.VDW>
0.104075

>  <SCORE.INTRA.VDW.0>
-0.754459

>  <SCORE.INTRA.norm>
0.0945922

>  <SCORE.RESTR>
0

>  <SCORE.RESTR.CAVITY>
0

>  <SCORE.RESTR.norm>
0

>  <SCORE.SYSTEM>
0

>  <SCORE.SYSTEM.CONST>
0

>  <SCORE.SYSTEM.DIHEDRAL>
0

>  <SCORE.SYSTEM.SOLV>
0

>  <SCORE.SYSTEM.norm>
0

>  <SCORE.heavy>
13

>  <SCORE.norm>
-3.0066

>  <RMSD>
2.921

$$$$
lig.pdb
 OpenBabel11021811453D
libRbt.so/2013.1/901 2013/11/27
 13 14  0  0  0  0  0  0  0  0999 V2000
    3.1688    1.6780   -3.5015 N   0  0  0  0  0  0  0  0  0  0  0  0
    2.4117    2.6943   -4.0307 C   0  0  0  0  0  0  0  0  0  0  0  0
    1.1281    2.8104   -3.7083 N   0  0  0  0  0  0  0  0  0  0  0  0
    0.5246    1.9341   -2.8467 C   0  0  0  0  0  0  0  0  0  0  0  0
    1.2675    0.8649   -2.2845 C   0  0  0  0  0  0  0  0  0  0  0  0
    2.6428    0.7572   -2.6378 C   0  0  0  0  0  0  0  0  0  0  0  0
    3.3419   -0.1311   -2.1852 O   0  0  0  0  0  0  0  0  0  0  0  0
    0.3407    0.1043   -1.4465 C   0  0  0  0  0  0  0  0  0  0  0  0
    0.6367   -1.1596   -0.6853 C   0  0  0  0  0  0  0  0  0  0  0  0
    1.9464   -1.0441   -0.0289 N   0  0  0  0  0  0  0  0  0  0  0  0
   -0.8327    0.7457   -1.5151 C   0  0  0  0  0  0  0  0  0  0  0  0
   -0.7348    1.8262   -2.3513 N   0  0  0  0  0  0  0  0  0  0  0  0
    2.9852    3.5967   -4.8874 N   0  0  0  0  0  0  0  0  0  0  0  0
  1  6  1  0  0  0  0
  2  1  1  0  0  0  0
  2  3  2  0  0  0  0
  3  4  1  0  0  0  0
  4  5  2  0  0  0  0
  4 12  1  0  0  0  0
  5  8  1  0  0  0  0
  6  7  2  0  0  0  0
  6  5  1  0  0  0  0
  8 11  2  0  0  0  0
  8  9  1  0  0  0  0
 10  9  1  0  0  0  0
 12 11  1  0  0  0  0
 13  2  1  0  0  0  0
M  END
>  <CHROM.1>
42.86712375,-148.58082171,1.51104120,1.12627361,-2.46993974,-1.24155165,-0.21304818
2.43141948

>  <Name>
lig.pdb

>  <RI>
4.17264e+07

>  <Rbt.Current_Directory>
/home/itssahil/PROJECTS/Mol_Feturizer/New_Systems/rnas/2l1v

>  <Rbt.Executable>
rbdock ($Id: //depot/dev/client3/rdock/2013.1/src/exe/rbdock.cxx#4 $)

>  <Rbt.Library>
libRbt.so (2013.1, Build901 2013/11/27)

>  <Rbt.Parameter_File>
/export/apps/rDock/src/rDock_2013.1_src/data/scripts/dock_solv.prm

>  <Rbt.Receptor>
prm/blind_docking_20.prm

>  <SCORE>
-39.0553

>  <SCORE.INTER>
-40.3946

>  <SCORE.INTER.CONST>
1

>  <SCORE.INTER.POLAR>
-2.75423

>  <SCORE.INTER.ROT>
2

>  <SCORE.INTER.SOLV>
15.616

>  <SCORE.INTER.VDW>
-27.8877

>  <SCORE.INTER.norm>
-3.10728

>  <SCORE.INTRA>
1.3393

>  <SCORE.INTRA.DIHEDRAL>
0.389124

>  <SCORE.INTRA.DIHEDRAL.0>
1.43995

>  <SCORE.INTRA.POLAR>
0.272593

>  <SCORE.INTRA.POLAR.0>
-0.272593

>  <SCORE.INTRA.REPUL>
0

>  <SCORE.INTRA.REPUL.0>
0

>  <SCORE.INTRA.SOLV>
0.13436

>  <SCORE.INTRA.SOLV.lig_0>
-22.6728

>  <SCORE.INTRA.VDW>
0.150748

>  <SCORE.INTRA.VDW.0>
-0.754459

>  <SCORE.INTRA.norm>
0.103023

>  <SCORE.RESTR>
0

>  <SCORE.RESTR.CAVITY>
0

>  <SCORE.RESTR.norm>
0

>  <SCORE.SYSTEM>
0

>  <SCORE.SYSTEM.CONST>
0

>  <SCORE.SYSTEM.DIHEDRAL>
0

>  <SCORE.SYSTEM.SOLV>
0

>  <SCORE.SYSTEM.norm>
0

>  <SCORE.heavy>
13

>  <SCORE.norm>
-3.00425

>  <RMSD>
2.923

$$$$
lig.pdb
 OpenBabel11021811453D
libRbt.so/2013.1/901 2013/11/27
 13 14  0  0  0  0  0  0  0  0999 V2000
    3.4968    0.8878   -3.4310 N   0  0  0  0  0  0  0  0  0  0  0  0
    3.0371    2.0356   -4.0288 C   0  0  0  0  0  0  0  0  0  0  0  0
    1.8001    2.4615   -3.7974 N   0  0  0  0  0  0  0  0  0  0  0  0
    0.9533    1.7814   -2.9639 C   0  0  0  0  0  0  0  0  0  0  0  0
    1.3846    0.5866   -2.3333 C   0  0  0  0  0  0  0  0  0  0  0  0
    2.7143    0.1462   -2.5894 C   0  0  0  0  0  0  0  0  0  0  0  0
    3.1530   -0.8662   -2.0743 O   0  0  0  0  0  0  0  0  0  0  0  0
    0.2533    0.0942   -1.5476 C   0  0  0  0  0  0  0  0  0  0  0  0
    0.1927   -1.1777   -0.7457 C   0  0  0  0  0  0  0  0  0  0  0  0
    1.4492   -1.3529   -0.0041 N   0  0  0  0  0  0  0  0  0  0  0  0
   -0.7278    0.9913   -1.7079 C   0  0  0  0  0  0  0  0  0  0  0  0
   -0.3242    1.9898   -2.5543 N   0  0  0  0  0  0  0  0  0  0  0  0
    3.8607    2.7483   -4.8599 N   0  0  0  0  0  0  0  0  0  0  0  0
  1  6  1  0  0  0  0
  2  1  1  0  0  0  0
  2  3  2  0  0  0  0
  3  4  1  0  0  0  0
  4  5  2  0  0  0  0
  4 12  1  0  0  0  0
  5  8  1  0  0  0  0
  6  7  2  0  0  0  0
  6  5  1  0  0  0  0
  8 11  2  0  0  0  0
  8  9  1  0  0  0  0
 10  9  1  0  0  0  0
 12 11  1  0  0  0  0
 13  2  1  0  0  0  0
M  END
>  <CHROM.1>
42.81344913,73.82056720,1.69452015,0.77693864,-2.50652436,-1.00587009,-0.31605679
2.46655713

>  <Name>
lig.pdb

>  <RI>
2.50021e+07

>  <Rbt.Current_Directory>
/home/itssahil/PROJECTS/Mol_Feturizer/New_Systems/rnas/2l1v

>  <Rbt.Executable>
rbdock ($Id: //depot/dev/client3/rdock/2013.1/src/exe/rbdock.cxx#4 $)

>  <Rbt.Library>
libRbt.so (2013.1, Build901 2013/11/27)

>  <Rbt.Parameter_File>
/export/apps/rDock/src/rDock_2013.1_src/data/scripts/dock_solv.prm

>  <Rbt.Receptor>
prm/pocket_docking_5.prm

>  <SCORE>
-38.7311

>  <SCORE.INTER>
-39.9803

>  <SCORE.INTER.CONST>
1

>  <SCORE.INTER.POLAR>
-2.92467

>  <SCORE.INTER.ROT>
2

>  <SCORE.INTER.SOLV>
15.2429

>  <SCORE.INTER.VDW>
-26.919

>  <SCORE.INTER.norm>
-3.07541

>  <SCORE.INTRA>
1.24919

>  <SCORE.INTRA.DIHEDRAL>
0.410788

>  <SCORE.INTRA.DIHEDRAL.0>
1.43995

>  <SCORE.INTRA.POLAR>
0.256025

>  <SCORE.INTRA.POLAR.0>
-0.272593

>  <SCORE.INTRA.REPUL>
0

>  <SCORE.INTRA.REPUL.0>
0

>  <SCORE.INTRA.SOLV>
0.138593

>  <SCORE.INTRA.SOLV.lig_0>
-22.6728

>  <SCORE.INTRA.VDW>
0.104012

>  <SCORE.INTRA.VDW.0>
-0.754459

>  <SCORE.INTRA.norm>
0.0960914

>  <SCORE.RESTR>
0

>  <SCORE.RESTR.CAVITY>
0

>  <SCORE.RESTR.norm>
0

>  <SCORE.SYSTEM>
0

>  <SCORE.SYSTEM.CONST>
0

>  <SCORE.SYSTEM.DIHEDRAL>
0

>  <SCORE.SYSTEM.SOLV>
0

>  <SCORE.SYSTEM.norm>
0

>  <SCORE.heavy>
13

>  <SCORE.norm>
-2.97932

>  <RMSD>
2.925

$$$$
lig.pdb
 OpenBabel11021811453D
libRbt.so/2013.1/901 2013/11/27
 13 14  0  0  0  0  0  0  0  0999 V2000
    3.4928    0.8364   -3.4618 N   0  0  0  0  0  0  0  0  0  0  0  0
    3.0300    1.9827   -4.0601 C   0  0  0  0  0  0  0  0  0  0  0  0
    1.8002    2.4187   -3.8100 N   0  0  0  0  0  0  0  0  0  0  0  0
    0.9639    1.7505   -2.9565 C   0  0  0  0  0  0  0  0  0  0  0  0
    1.3986    0.5577   -2.3245 C   0  0  0  0  0  0  0  0  0  0  0  0
    2.7206    0.1065   -2.6008 C   0  0  0  0  0  0  0  0  0  0  0  0
    3.1617   -0.9049   -2.0858 O   0  0  0  0  0  0  0  0  0  0  0  0
    0.2782    0.0788   -1.5151 C   0  0  0  0  0  0  0  0  0  0  0  0
    0.2236   -1.1866   -0.7024 C   0  0  0  0  0  0  0  0  0  0  0  0
    1.4763   -1.3437    0.0494 N   0  0  0  0  0  0  0  0  0  0  0  0
   -0.6996    0.9812   -1.6648 C   0  0  0  0  0  0  0  0  0  0  0  0
   -0.3047    1.9705   -2.5259 N   0  0  0  0  0  0  0  0  0  0  0  0
    3.8434    2.6836   -4.9112 N   0  0  0  0  0  0  0  0  0  0  0  0
  1  6  1  0  0  0  0
  2  1  1  0  0  0  0
  2  3  2  0  0  0  0
  3  4  1  0  0  0  0
  4  5  2  0  0  0  0
  4 12  1  0  0  0  0
  5  8  1  0  0  0  0
  6  7  2  0  0  0  0
  6  5  1  0  0  0  0
  8 11  2  0  0  0  0
  8  9  1  0  0  0  0
 10  9  1  0  0  0  0
 12 11  1  0  0  0  0
 13  2  1  0  0  0  0
M  END
>  <CHROM.1>
44.49861232,75.29516733,1.70512478,0.74657605,-2.50168040,-1.01161325,-0.33392414
2.45389279

>  <Name>
lig.pdb

>  <RI>
2.7104e+07

>  <Rbt.Current_Directory>
/home/itssahil/PROJECTS/Mol_Feturizer/New_Systems/rnas/2l1v

>  <Rbt.Executable>
rbdock ($Id: //depot/dev/client3/rdock/2013.1/src/exe/rbdock.cxx#4 $)

>  <Rbt.Library>
libRbt.so (2013.1, Build901 2013/11/27)

>  <Rbt.Parameter_File>
/export/apps/rDock/src/rDock_2013.1_src/data/scripts/dock_solv.prm

>  <Rbt.Receptor>
prm/pocket_docking_8.prm

>  <SCORE>
-38.3567

>  <SCORE.INTER>
-39.4628

>  <SCORE.INTER.CONST>
1

>  <SCORE.INTER.POLAR>
-2.74523

>  <SCORE.INTER.ROT>
2

>  <SCORE.INTER.SOLV>
15.2291

>  <SCORE.INTER.VDW>
-27.1675

>  <SCORE.INTER.norm>
-3.0356

>  <SCORE.INTRA>
1.10617

>  <SCORE.INTRA.DIHEDRAL>
0.331205

>  <SCORE.INTRA.DIHEDRAL.0>
1.43995

>  <SCORE.INTRA.POLAR>
0.23643

>  <SCORE.INTRA.POLAR.0>
-0.272593

>  <SCORE.INTRA.REPUL>
0

>  <SCORE.INTRA.REPUL.0>
0

>  <SCORE.INTRA.SOLV>
0.122086

>  <SCORE.INTRA.SOLV.lig_0>
-22.6728

>  <SCORE.INTRA.VDW>
0.0756648

>  <SCORE.INTRA.VDW.0>
-0.754459

>  <SCORE.INTRA.norm>
0.0850903

>  <SCORE.RESTR>
0

>  <SCORE.RESTR.CAVITY>
0

>  <SCORE.RESTR.norm>
0

>  <SCORE.SYSTEM>
0

>  <SCORE.SYSTEM.CONST>
0

>  <SCORE.SYSTEM.DIHEDRAL>
0

>  <SCORE.SYSTEM.SOLV>
0

>  <SCORE.SYSTEM.norm>
0

>  <SCORE.heavy>
13

>  <SCORE.norm>
-2.95051

>  <RMSD>
2.936

$$$$
lig.pdb
 OpenBabel11021811453D
libRbt.so/2013.1/901 2013/11/27
 13 14  0  0  0  0  0  0  0  0999 V2000
    3.1714    1.5259   -3.4270 N   0  0  0  0  0  0  0  0  0  0  0  0
    2.4472    2.5728   -3.9425 C   0  0  0  0  0  0  0  0  0  0  0  0
    1.1660    2.7214   -3.6240 N   0  0  0  0  0  0  0  0  0  0  0  0
    0.5327    1.8491   -2.7798 C   0  0  0  0  0  0  0  0  0  0  0  0
    1.2410    0.7492   -2.2324 C   0  0  0  0  0  0  0  0  0  0  0  0
    2.6142    0.6069   -2.5813 C   0  0  0  0  0  0  0  0  0  0  0  0
    3.2846   -0.3091   -2.1405 O   0  0  0  0  0  0  0  0  0  0  0  0
    0.2880    0.0025   -1.4114 C   0  0  0  0  0  0  0  0  0  0  0  0
    0.5429   -1.2820   -0.6701 C   0  0  0  0  0  0  0  0  0  0  0  0
    1.8158   -1.1866    0.0578 N   0  0  0  0  0  0  0  0  0  0  0  0
   -0.8656    0.6794   -1.4745 C   0  0  0  0  0  0  0  0  0  0  0  0
   -0.7318    1.7702   -2.2920 N   0  0  0  0  0  0  0  0  0  0  0  0
    3.0512    3.4719   -4.7814 N   0  0  0  0  0  0  0  0  0  0  0  0
  1  6  1  0  0  0  0
  2  1  1  0  0  0  0
  2  3  2  0  0  0  0
  3  4  1  0  0  0  0
  4  5  2  0  0  0  0
  4 12  1  0  0  0  0
  5  8  1  0  0  0  0
  6  7  2  0  0  0  0
  6  5  1  0  0  0  0
  8 11  2  0  0  0  0
  8  9  1  0  0  0  0
 10  9  1  0  0  0  0
 12 11  1  0  0  0  0
 13  2  1  0  0  0  0
M  END
>  <CHROM.1>
46.14511455,-124.34816653,1.48965613,1.00901958,-2.40636715,-1.21285466,-0.22798426
2.44824945

>  <Name>
lig.pdb

>  <RI>
4.15415e+07

>  <Rbt.Current_Directory>
/home/itssahil/PROJECTS/Mol_Feturizer/New_Systems/rnas/2l1v

>  <Rbt.Executable>
rbdock ($Id: //depot/dev/client3/rdock/2013.1/src/exe/rbdock.cxx#4 $)

>  <Rbt.Library>
libRbt.so (2013.1, Build901 2013/11/27)

>  <Rbt.Parameter_File>
/export/apps/rDock/src/rDock_2013.1_src/data/scripts/dock_solv.prm

>  <Rbt.Receptor>
prm/blind_docking_60.prm

>  <SCORE>
-38.6682

>  <SCORE.INTER>
-39.8734

>  <SCORE.INTER.CONST>
1

>  <SCORE.INTER.POLAR>
-2.73212

>  <SCORE.INTER.ROT>
2

>  <SCORE.INTER.SOLV>
15.3164

>  <SCORE.INTER.VDW>
-27.514

>  <SCORE.INTER.norm>
-3.06719

>  <SCORE.INTRA>
1.20521

>  <SCORE.INTRA.DIHEDRAL>
0.300949

>  <SCORE.INTRA.DIHEDRAL.0>
1.43995

>  <SCORE.INTRA.POLAR>
0.272593

>  <SCORE.INTRA.POLAR.0>
-0.272593

>  <SCORE.INTRA.REPUL>
0

>  <SCORE.INTRA.REPUL.0>
0

>  <SCORE.INTRA.SOLV>
0.0998188

>  <SCORE.INTRA.SOLV.lig_0>
-22.6728

>  <SCORE.INTRA.VDW>
0.0780114

>  <SCORE.INTRA.VDW.0>
-0.754459

>  <SCORE.INTRA.norm>
0.0927085

>  <SCORE.RESTR>
0

>  <SCORE.RESTR.CAVITY>
0

>  <SCORE.RESTR.norm>
0

>  <SCORE.SYSTEM>
0

>  <SCORE.SYSTEM.CONST>
0

>  <SCORE.SYSTEM.DIHEDRAL>
0

>  <SCORE.SYSTEM.SOLV>
0

>  <SCORE.SYSTEM.norm>
0

>  <SCORE.heavy>
13

>  <SCORE.norm>
-2.97448

>  <RMSD>
2.963

$$$$
lig.pdb
 OpenBabel11021811453D
libRbt.so/2013.1/901 2013/11/27
 13 14  0  0  0  0  0  0  0  0999 V2000
    3.1864    1.4095   -3.3961 N   0  0  0  0  0  0  0  0  0  0  0  0
    2.4893    2.4826   -3.8947 C   0  0  0  0  0  0  0  0  0  0  0  0
    1.2138    2.6619   -3.5691 N   0  0  0  0  0  0  0  0  0  0  0  0
    0.5599    1.7960   -2.7343 C   0  0  0  0  0  0  0  0  0  0  0  0
    1.2397    0.6698   -2.2044 C   0  0  0  0  0  0  0  0  0  0  0  0
    2.6072    0.4946   -2.5606 C   0  0  0  0  0  0  0  0  0  0  0  0
    3.2538   -0.4452   -2.1348 O   0  0  0  0  0  0  0  0  0  0  0  0
    0.2695   -0.0615   -1.3898 C   0  0  0  0  0  0  0  0  0  0  0  0
    0.4916   -1.3625   -0.6668 C   0  0  0  0  0  0  0  0  0  0  0  0
    1.7156   -1.2741    0.1417 N   0  0  0  0  0  0  0  0  0  0  0  0
   -0.8653    0.6474   -1.4393 C   0  0  0  0  0  0  0  0  0  0  0  0
   -0.7046    1.7451   -2.2426 N   0  0  0  0  0  0  0  0  0  0  0  0
    3.1149    3.3761   -4.7238 N   0  0  0  0  0  0  0  0  0  0  0  0
  1  6  1  0  0  0  0
  2  1  1  0  0  0  0
  2  3  2  0  0  0  0
  3  4  1  0  0  0  0
  4  5  2  0  0  0  0
  4 12  1  0  0  0  0
  5  8  1  0  0  0  0
  6  7  2  0  0  0  0
  6  5  1  0  0  0  0
  8 11  2  0  0  0  0
  8  9  1  0  0  0  0
 10  9  1  0  0  0  0
 12 11  1  0  0  0  0
 13  2  1  0  0  0  0
M  END
>  <CHROM.1>
50.56935738,-121.47134318,1.48973356,0.92852907,-2.36803293,-1.19038391,-0.24738125
2.45943836

>  <Name>
lig.pdb

>  <RI>
1.77584e+07

>  <Rbt.Current_Directory>
/home/itssahil/PROJECTS/Mol_Feturizer/New_Systems/rnas/2l1v

>  <Rbt.Executable>
rbdock ($Id: //depot/dev/client3/rdock/2013.1/src/exe/rbdock.cxx#4 $)

>  <Rbt.Library>
libRbt.so (2013.1, Build901 2013/11/27)

>  <Rbt.Parameter_File>
/export/apps/rDock/src/rDock_2013.1_src/data/scripts/dock_solv.prm

>  <Rbt.Receptor>
prm/blind_docking_80.prm

>  <SCORE>
-38.5669

>  <SCORE.INTER>
-39.6535

>  <SCORE.INTER.CONST>
1

>  <SCORE.INTER.POLAR>
-2.71874

>  <SCORE.INTER.ROT>
2

>  <SCORE.INTER.SOLV>
15.1603

>  <SCORE.INTER.VDW>
-27.3599

>  <SCORE.INTER.norm>
-3.05027

>  <SCORE.INTRA>
1.08654

>  <SCORE.INTRA.DIHEDRAL>
0.155895

>  <SCORE.INTRA.DIHEDRAL.0>
1.43995

>  <SCORE.INTRA.POLAR>
0.272593

>  <SCORE.INTRA.POLAR.0>
-0.272593

>  <SCORE.INTRA.REPUL>
0

>  <SCORE.INTRA.REPUL.0>
0

>  <SCORE.INTRA.SOLV>
0.0534716

>  <SCORE.INTRA.SOLV.lig_0>
-22.6728

>  <SCORE.INTRA.VDW>
0.0550413

>  <SCORE.INTRA.VDW.0>
-0.754459

>  <SCORE.INTRA.norm>
0.0835799

>  <SCORE.RESTR>
0

>  <SCORE.RESTR.CAVITY>
0

>  <SCORE.RESTR.norm>
0

>  <SCORE.SYSTEM>
0

>  <SCORE.SYSTEM.CONST>
0

>  <SCORE.SYSTEM.DIHEDRAL>
0

>  <SCORE.SYSTEM.SOLV>
0

>  <SCORE.SYSTEM.norm>
0

>  <SCORE.heavy>
13

>  <SCORE.norm>
-2.96669

>  <RMSD>
2.988

$$$$
lig.pdb
 OpenBabel11021811453D
libRbt.so/2013.1/901 2013/11/27
 13 14  0  0  0  0  0  0  0  0999 V2000
   -0.6899    2.0377   -2.4730 N   0  0  0  0  0  0  0  0  0  0  0  0
   -0.7107    1.0386   -1.5309 C   0  0  0  0  0  0  0  0  0  0  0  0
    0.3964    0.3597   -1.2507 N   0  0  0  0  0  0  0  0  0  0  0  0
    1.5810    0.6309   -1.8812 C   0  0  0  0  0  0  0  0  0  0  0  0
    1.6446    1.6484   -2.8671 C   0  0  0  0  0  0  0  0  0  0  0  0
    0.4499    2.3686   -3.1526 C   0  0  0  0  0  0  0  0  0  0  0  0
    0.4348    3.2609   -3.9810 O   0  0  0  0  0  0  0  0  0  0  0  0
    3.0203    1.6662   -3.3643 C   0  0  0  0  0  0  0  0  0  0  0  0
    3.5747    2.5308   -4.4640 C   0  0  0  0  0  0  0  0  0  0  0  0
    2.6198    3.6030   -4.7767 N   0  0  0  0  0  0  0  0  0  0  0  0
    3.6807    0.7380   -2.6606 C   0  0  0  0  0  0  0  0  0  0  0  0
    2.8322    0.1125   -1.7860 N   0  0  0  0  0  0  0  0  0  0  0  0
   -1.8758    0.7474   -0.8716 N   0  0  0  0  0  0  0  0  0  0  0  0
  1  6  1  0  0  0  0
  2  1  1  0  0  0  0
  2  3  2  0  0  0  0
  3  4  1  0  0  0  0
  4  5  2  0  0  0  0
  4 12  1  0  0  0  0
  5  8  1  0  0  0  0
  6  7  2  0  0  0  0
  6  5  1  0  0  0  0
  8 11  2  0  0  0  0
  8  9  1  0  0  0  0
 10  9  1  0  0  0  0
 12 11  1  0  0  0  0
 13  2  1  0  0  0  0
M  END
>  <CHROM.1>
13.45381147,-43.13850991,1.25292478,1.63478533,-2.71217820,2.52286573,-0.23480191
2.40070590

>  <Name>
lig.pdb

>  <RI>
2.86608e+07

>  <Rbt.Current_Directory>
/home/itssahil/PROJECTS/Mol_Feturizer/New_Systems/rnas/2l1v

>  <Rbt.Executable>
rbdock ($Id: //depot/dev/client3/rdock/2013.1/src/exe/rbdock.cxx#4 $)

>  <Rbt.Library>
libRbt.so (2013.1, Build901 2013/11/27)

>  <Rbt.Parameter_File>
/export/apps/rDock/src/rDock_2013.1_src/data/scripts/dock_solv.prm

>  <Rbt.Receptor>
prm/pocket_docking_7.prm

>  <SCORE>
-36.1649

>  <SCORE.INTER>
-39.4305

>  <SCORE.INTER.CONST>
1

>  <SCORE.INTER.POLAR>
-2.47398

>  <SCORE.INTER.ROT>
2

>  <SCORE.INTER.SOLV>
15.4163

>  <SCORE.INTER.VDW>
-28.1125

>  <SCORE.INTER.norm>
-3.03311

>  <SCORE.INTRA>
3.26562

>  <SCORE.INTRA.DIHEDRAL>
1.91634

>  <SCORE.INTRA.DIHEDRAL.0>
1.43995

>  <SCORE.INTRA.POLAR>
-0.0753221

>  <SCORE.INTRA.POLAR.0>
-0.272593

>  <SCORE.INTRA.REPUL>
0

>  <SCORE.INTRA.REPUL.0>
0

>  <SCORE.INTRA.SOLV>
0.395312

>  <SCORE.INTRA.SOLV.lig_0>
-22.6728

>  <SCORE.INTRA.VDW>
2.36589

>  <SCORE.INTRA.VDW.0>
-0.754459

>  <SCORE.INTRA.norm>
0.251201

>  <SCORE.RESTR>
0

>  <SCORE.RESTR.CAVITY>
0

>  <SCORE.RESTR.norm>
0

>  <SCORE.SYSTEM>
0

>  <SCORE.SYSTEM.CONST>
0

>  <SCORE.SYSTEM.DIHEDRAL>
0

>  <SCORE.SYSTEM.SOLV>
0

>  <SCORE.SYSTEM.norm>
0

>  <SCORE.heavy>
13

>  <SCORE.norm>
-2.78191

>  <RMSD>
4.004

$$$$
lig.pdb
 OpenBabel11021811453D
libRbt.so/2013.1/901 2013/11/27
 13 14  0  0  0  0  0  0  0  0999 V2000
    0.0585   -0.0481   -1.2964 N   0  0  0  0  0  0  0  0  0  0  0  0
    1.0572   -0.9106   -0.9155 C   0  0  0  0  0  0  0  0  0  0  0  0
    2.2992   -0.7307   -1.3513 N   0  0  0  0  0  0  0  0  0  0  0  0
    2.6227    0.3085   -2.1819 C   0  0  0  0  0  0  0  0  0  0  0  0
    1.6202    1.2172   -2.6068 C   0  0  0  0  0  0  0  0  0  0  0  0
    0.2951    1.0119   -2.1275 C   0  0  0  0  0  0  0  0  0  0  0  0
   -0.6126    1.7590   -2.4450 O   0  0  0  0  0  0  0  0  0  0  0  0
    2.2728    2.1761   -3.4980 C   0  0  0  0  0  0  0  0  0  0  0  0
    1.6182    3.3005   -4.2541 C   0  0  0  0  0  0  0  0  0  0  0  0
    0.5440    3.8833   -3.4380 N   0  0  0  0  0  0  0  0  0  0  0  0
    3.5672    1.8344   -3.5262 C   0  0  0  0  0  0  0  0  0  0  0  0
    3.7813    0.7219   -2.7563 N   0  0  0  0  0  0  0  0  0  0  0  0
    0.7723   -1.9552   -0.0759 N   0  0  0  0  0  0  0  0  0  0  0  0
  1  6  1  0  0  0  0
  2  1  1  0  0  0  0
  2  3  2  0  0  0  0
  3  4  1  0  0  0  0
  4  5  2  0  0  0  0
  4 12  1  0  0  0  0
  5  8  1  0  0  0  0
  6  7  2  0  0  0  0
  6  5  1  0  0  0  0
  8 11  2  0  0  0  0
  8  9  1  0  0  0  0
 10  9  1  0  0  0  0
 12 11  1  0  0  0  0
 13  2  1  0  0  0  0
M  END
>  <CHROM.1>
36.30827948,99.53925741,1.47233051,0.97019631,-2.31731110,1.69009376,-0.23848679
2.55627552

>  <Name>
lig.pdb

>  <RI>
2.05237e+07

>  <Rbt.Current_Directory>
/home/itssahil/PROJECTS/Mol_Feturizer/New_Systems/rnas/2l1v

>  <Rbt.Executable>
rbdock ($Id: //depot/dev/client3/rdock/2013.1/src/exe/rbdock.cxx#4 $)

>  <Rbt.Library>
libRbt.so (2013.1, Build901 2013/11/27)

>  <Rbt.Parameter_File>
/export/apps/rDock/src/rDock_2013.1_src/data/scripts/dock_solv.prm

>  <Rbt.Receptor>
prm/blind_docking_100.prm

>  <SCORE>
-38.3044

>  <SCORE.INTER>
-38.3382

>  <SCORE.INTER.CONST>
1

>  <SCORE.INTER.POLAR>
-3.05497

>  <SCORE.INTER.ROT>
2

>  <SCORE.INTER.SOLV>
14.938

>  <SCORE.INTER.VDW>
-25.2882

>  <SCORE.INTER.norm>
-2.94909

>  <SCORE.INTRA>
0.0338029

>  <SCORE.INTRA.DIHEDRAL>
0.735842

>  <SCORE.INTRA.DIHEDRAL.0>
1.43995

>  <SCORE.INTRA.POLAR>
-0.204257

>  <SCORE.INTRA.POLAR.0>
-0.272593

>  <SCORE.INTRA.REPUL>
0

>  <SCORE.INTRA.REPUL.0>
0

>  <SCORE.INTRA.SOLV>
0.198166

>  <SCORE.INTRA.SOLV.lig_0>
-22.6728

>  <SCORE.INTRA.VDW>
0.261271

>  <SCORE.INTRA.VDW.0>
-0.754459

>  <SCORE.INTRA.norm>
0.00260022

>  <SCORE.RESTR>
0

>  <SCORE.RESTR.CAVITY>
0

>  <SCORE.RESTR.norm>
0

>  <SCORE.SYSTEM>
0

>  <SCORE.SYSTEM.CONST>
0

>  <SCORE.SYSTEM.DIHEDRAL>
0

>  <SCORE.SYSTEM.SOLV>
0

>  <SCORE.SYSTEM.norm>
0

>  <SCORE.heavy>
13

>  <SCORE.norm>
-2.94649

>  <RMSD>
4.036

$$$$
lig.pdb
 OpenBabel11021811453D
libRbt.so/2013.1/901 2013/11/27
 13 14  0  0  0  0  0  0  0  0999 V2000
    0.0443   -0.0721   -1.2934 N   0  0  0  0  0  0  0  0  0  0  0  0
    1.0437   -0.9324   -0.9097 C   0  0  0  0  0  0  0  0  0  0  0  0
    2.2863   -0.7508   -1.3435 N   0  0  0  0  0  0  0  0  0  0  0  0
    2.6094    0.2881   -2.1745 C   0  0  0  0  0  0  0  0  0  0  0  0
    1.6061    1.1945   -2.6022 C   0  0  0  0  0  0  0  0  0  0  0  0
    0.2805    0.9874   -2.1252 C   0  0  0  0  0  0  0  0  0  0  0  0
   -0.6279    1.7326   -2.4452 O   0  0  0  0  0  0  0  0  0  0  0  0
    2.2587    2.1536   -3.4933 C   0  0  0  0  0  0  0  0  0  0  0  0
    1.6035    3.2761   -4.2518 C   0  0  0  0  0  0  0  0  0  0  0  0
    0.5335    3.8645   -3.4344 N   0  0  0  0  0  0  0  0  0  0  0  0
    3.5537    1.8142   -3.5187 C   0  0  0  0  0  0  0  0  0  0  0  0
    3.7683    0.7029   -2.7473 N   0  0  0  0  0  0  0  0  0  0  0  0
    0.7592   -1.9766   -0.0695 N   0  0  0  0  0  0  0  0  0  0  0  0
  1  6  1  0  0  0  0
  2  1  1  0  0  0  0
  2  3  2  0  0  0  0
  3  4  1  0  0  0  0
  4  5  2  0  0  0  0
  4 12  1  0  0  0  0
  5  8  1  0  0  0  0
  6  7  2  0  0  0  0
  6  5  1  0  0  0  0
  8 11  2  0  0  0  0
  8  9  1  0  0  0  0
 10  9  1  0  0  0  0
 12 11  1  0  0  0  0
 13  2  1  0  0  0  0
M  END
>  <CHROM.1>
36.73007492,99.42767546,1.45880002,0.94821142,-2.31243601,1.69010917,-0.23641982
2.55576328

>  <Name>
lig.pdb

>  <RI>
2.05237e+07

>  <Rbt.Current_Directory>
/home/itssahil/PROJECTS/Mol_Feturizer/New_Systems/rnas/2l1v

>  <Rbt.Executable>
rbdock ($Id: //depot/dev/client3/rdock/2013.1/src/exe/rbdock.cxx#4 $)

>  <Rbt.Library>
libRbt.so (2013.1, Build901 2013/11/27)

>  <Rbt.Parameter_File>
/export/apps/rDock/src/rDock_2013.1_src/data/scripts/dock_solv.prm

>  <Rbt.Receptor>
prm/blind_docking_100.prm

>  <SCORE>
-38.2716

>  <SCORE.INTER>
-38.2689

>  <SCORE.INTER.CONST>
1

>  <SCORE.INTER.POLAR>
-3.03146

>  <SCORE.INTER.ROT>
2

>  <SCORE.INTER.SOLV>
14.9465

>  <SCORE.INTER.VDW>
-25.3232

>  <SCORE.INTER.norm>
-2.94376

>  <SCORE.INTRA>
-0.00270928

>  <SCORE.INTRA.DIHEDRAL>
0.71241

>  <SCORE.INTRA.DIHEDRAL.0>
1.43995

>  <SCORE.INTRA.POLAR>
-0.206603

>  <SCORE.INTRA.POLAR.0>
-0.272593

>  <SCORE.INTRA.REPUL>
0

>  <SCORE.INTRA.REPUL.0>
0

>  <SCORE.INTRA.SOLV>
0.194433

>  <SCORE.INTRA.SOLV.lig_0>
-22.6728

>  <SCORE.INTRA.VDW>
0.246319

>  <SCORE.INTRA.VDW.0>
-0.754459

>  <SCORE.INTRA.norm>
-0.000208406

>  <SCORE.RESTR>
0

>  <SCORE.RESTR.CAVITY>
0

>  <SCORE.RESTR.norm>
0

>  <SCORE.SYSTEM>
0

>  <SCORE.SYSTEM.CONST>
0

>  <SCORE.SYSTEM.DIHEDRAL>
0

>  <SCORE.SYSTEM.SOLV>
0

>  <SCORE.SYSTEM.norm>
0

>  <SCORE.heavy>
13

>  <SCORE.norm>
-2.94397

>  <RMSD>
4.043

$$$$
lig.pdb
 OpenBabel11021811453D
libRbt.so/2013.1/901 2013/11/27
 13 14  0  0  0  0  0  0  0  0999 V2000
   -0.0395   -0.1498   -1.1281 N   0  0  0  0  0  0  0  0  0  0  0  0
    1.0009   -0.9554   -0.7348 C   0  0  0  0  0  0  0  0  0  0  0  0
    2.2276   -0.7371   -1.1956 N   0  0  0  0  0  0  0  0  0  0  0  0
    2.4939    0.2866   -2.0648 C   0  0  0  0  0  0  0  0  0  0  0  0
    1.4470    1.1367   -2.5036 C   0  0  0  0  0  0  0  0  0  0  0  0
    0.1390    0.8910   -1.9972 C   0  0  0  0  0  0  0  0  0  0  0  0
   -0.8046    1.5874   -2.3248 O   0  0  0  0  0  0  0  0  0  0  0  0
    2.0447    2.0923   -3.4360 C   0  0  0  0  0  0  0  0  0  0  0  0
    1.3313    3.1617   -4.2183 C   0  0  0  0  0  0  0  0  0  0  0  0
    0.2991    3.7823   -3.3764 N   0  0  0  0  0  0  0  0  0  0  0  0
    3.3521    1.8057   -3.4731 C   0  0  0  0  0  0  0  0  0  0  0  0
    3.6252    0.7298   -2.6706 N   0  0  0  0  0  0  0  0  0  0  0  0
    0.7736   -1.9825    0.1431 N   0  0  0  0  0  0  0  0  0  0  0  0
  1  6  1  0  0  0  0
  2  1  1  0  0  0  0
  2  3  2  0  0  0  0
  3  4  1  0  0  0  0
  4  5  2  0  0  0  0
  4 12  1  0  0  0  0
  5  8  1  0  0  0  0
  6  7  2  0  0  0  0
  6  5  1  0  0  0  0
  8 11  2  0  0  0  0
  8  9  1  0  0  0  0
 10  9  1  0  0  0  0
 12 11  1  0  0  0  0
 13  2  1  0  0  0  0
M  END
>  <CHROM.1>
39.79503903,90.43084725,1.31920062,0.89877845,-2.20125619,1.64869548,-0.22948765
2.51781784

>  <Name>
lig.pdb

>  <RI>
4.02536e+07

>  <Rbt.Current_Directory>
/home/itssahil/PROJECTS/Mol_Feturizer/New_Systems/rnas/2l1v

>  <Rbt.Executable>
rbdock ($Id: //depot/dev/client3/rdock/2013.1/src/exe/rbdock.cxx#4 $)

>  <Rbt.Library>
libRbt.so (2013.1, Build901 2013/11/27)

>  <Rbt.Parameter_File>
/export/apps/rDock/src/rDock_2013.1_src/data/scripts/dock_solv.prm

>  <Rbt.Receptor>
prm/blind_docking_40.prm

>  <SCORE>
-37.4229

>  <SCORE.INTER>
-37.9177

>  <SCORE.INTER.CONST>
1

>  <SCORE.INTER.POLAR>
-3.1526

>  <SCORE.INTER.ROT>
2

>  <SCORE.INTER.SOLV>
14.5948

>  <SCORE.INTER.VDW>
-24.568

>  <SCORE.INTER.norm>
-2.91675

>  <SCORE.INTRA>
0.329035

>  <SCORE.INTRA.DIHEDRAL>
0.539636

>  <SCORE.INTRA.DIHEDRAL.0>
1.43995

>  <SCORE.INTRA.POLAR>
-0.0540195

>  <SCORE.INTRA.POLAR.0>
-0.272593

>  <SCORE.INTRA.REPUL>
0

>  <SCORE.INTRA.REPUL.0>
0

>  <SCORE.INTRA.SOLV>
0.167052

>  <SCORE.INTRA.SOLV.lig_0>
-22.6728

>  <SCORE.INTRA.VDW>
0.159356

>  <SCORE.INTRA.VDW.0>
-0.754459

>  <SCORE.INTRA.norm>
0.0253103

>  <SCORE.RESTR>
0.165736

>  <SCORE.RESTR.CAVITY>
0.165736

>  <SCORE.RESTR.norm>
0.0127489

>  <SCORE.SYSTEM>
0

>  <SCORE.SYSTEM.CONST>
0

>  <SCORE.SYSTEM.DIHEDRAL>
0

>  <SCORE.SYSTEM.SOLV>
0

>  <SCORE.SYSTEM.norm>
0

>  <SCORE.heavy>
13

>  <SCORE.norm>
-2.87869

>  <RMSD>
4.091

$$$$
lig.pdb
 OpenBabel11021811453D
libRbt.so/2013.1/901 2013/11/27
 13 14  0  0  0  0  0  0  0  0999 V2000
   -0.7773    1.8298   -2.4011 N   0  0  0  0  0  0  0  0  0  0  0  0
   -0.4503    0.6961   -1.6983 C   0  0  0  0  0  0  0  0  0  0  0  0
    0.7860    0.2122   -1.7463 N   0  0  0  0  0  0  0  0  0  0  0  0
    1.7644    0.8205   -2.4860 C   0  0  0  0  0  0  0  0  0  0  0  0
    1.4672    1.9882   -3.2339 C   0  0  0  0  0  0  0  0  0  0  0  0
    0.1383    2.4955   -3.1685 C   0  0  0  0  0  0  0  0  0  0  0  0
   -0.1837    3.4990   -3.7783 O   0  0  0  0  0  0  0  0  0  0  0  0
    2.6978    2.3666   -3.9284 C   0  0  0  0  0  0  0  0  0  0  0  0
    2.8782    3.5046   -4.8964 C   0  0  0  0  0  0  0  0  0  0  0  0
    4.3114    3.7716   -5.0814 N   0  0  0  0  0  0  0  0  0  0  0  0
    3.6255    1.4787   -3.5491 C   0  0  0  0  0  0  0  0  0  0  0  0
    3.0778    0.5526   -2.7016 N   0  0  0  0  0  0  0  0  0  0  0  0
   -1.4010    0.0673   -0.9381 N   0  0  0  0  0  0  0  0  0  0  0  0
  1  6  1  0  0  0  0
  2  1  1  0  0  0  0
  2  3  2  0  0  0  0
  3  4  1  0  0  0  0
  4  5  2  0  0  0  0
  4 12  1  0  0  0  0
  5  8  1  0  0  0  0
  6  7  2  0  0  0  0
  6  5  1  0  0  0  0
  8 11  2  0  0  0  0
  8  9  1  0  0  0  0
 10  9  1  0  0  0  0
 12 11  1  0  0  0  0
 13  2  1  0  0  0  0
M  END
>  <CHROM.1>
164.61213283,-144.15796953,1.36272986,1.81085919,-3.04929741,2.45621391,-0.24182439
2.53091579

>  <Name>
lig.pdb

>  <RI>
1.459e+07

>  <Rbt.Current_Directory>
/home/itssahil/PROJECTS/Mol_Feturizer/New_Systems/rnas/2l1v

>  <Rbt.Executable>
rbdock ($Id: //depot/dev/client3/rdock/2013.1/src/exe/rbdock.cxx#4 $)

>  <Rbt.Library>
libRbt.so (2013.1, Build901 2013/11/27)

>  <Rbt.Parameter_File>
/export/apps/rDock/src/rDock_2013.1_src/data/scripts/dock_solv.prm

>  <Rbt.Receptor>
prm/pocket_docking_2.prm

>  <SCORE>
-44.1601

>  <SCORE.INTER>
-45.7678

>  <SCORE.INTER.CONST>
1

>  <SCORE.INTER.POLAR>
-3.8049

>  <SCORE.INTER.ROT>
2

>  <SCORE.INTER.SOLV>
16.9978

>  <SCORE.INTER.VDW>
-28.4281

>  <SCORE.INTER.norm>
-3.5206

>  <SCORE.INTRA>
1.60562

>  <SCORE.INTRA.DIHEDRAL>
0.314333

>  <SCORE.INTRA.DIHEDRAL.0>
1.43995

>  <SCORE.INTRA.POLAR>
0.272593

>  <SCORE.INTRA.POLAR.0>
-0.272593

>  <SCORE.INTRA.REPUL>
0

>  <SCORE.INTRA.REPUL.0>
0

>  <SCORE.INTRA.SOLV>
-0.500451

>  <SCORE.INTRA.SOLV.lig_0>
-22.6728

>  <SCORE.INTRA.VDW>
0.771867

>  <SCORE.INTRA.VDW.0>
-0.754459

>  <SCORE.INTRA.norm>
0.123509

>  <SCORE.RESTR>
0.00207903

>  <SCORE.RESTR.CAVITY>
0.00207903

>  <SCORE.RESTR.norm>
0.000159925

>  <SCORE.SYSTEM>
0

>  <SCORE.SYSTEM.CONST>
0

>  <SCORE.SYSTEM.DIHEDRAL>
0

>  <SCORE.SYSTEM.SOLV>
0

>  <SCORE.SYSTEM.norm>
0

>  <SCORE.heavy>
13

>  <SCORE.norm>
-3.39693

>  <RMSD>
4.177

$$$$
lig.pdb
 OpenBabel11021811453D
libRbt.so/2013.1/901 2013/11/27
 13 14  0  0  0  0  0  0  0  0999 V2000
   -0.7637    1.8149   -2.3513 N   0  0  0  0  0  0  0  0  0  0  0  0
   -0.4230    0.6956   -1.6321 C   0  0  0  0  0  0  0  0  0  0  0  0
    0.8185    0.2246   -1.6751 N   0  0  0  0  0  0  0  0  0  0  0  0
    1.7888    0.8325   -2.4258 C   0  0  0  0  0  0  0  0  0  0  0  0
    1.4775    1.9854   -3.1907 C   0  0  0  0  0  0  0  0  0  0  0  0
    0.1432    2.4790   -3.1304 C   0  0  0  0  0  0  0  0  0  0  0  0
   -0.1909    3.4696   -3.7547 O   0  0  0  0  0  0  0  0  0  0  0  0
    2.7027    2.3669   -3.8931 C   0  0  0  0  0  0  0  0  0  0  0  0
    2.8688    3.4920   -4.8784 C   0  0  0  0  0  0  0  0  0  0  0  0
    4.2985    3.7744   -5.0672 N   0  0  0  0  0  0  0  0  0  0  0  0
    3.6408    1.4950   -3.5022 C   0  0  0  0  0  0  0  0  0  0  0  0
    3.1047    0.5758   -2.6398 N   0  0  0  0  0  0  0  0  0  0  0  0
   -1.3654    0.0680   -0.8607 N   0  0  0  0  0  0  0  0  0  0  0  0
  1  6  1  0  0  0  0
  2  1  1  0  0  0  0
  2  3  2  0  0  0  0
  3  4  1  0  0  0  0
  4  5  2  0  0  0  0
  4 12  1  0  0  0  0
  5  8  1  0  0  0  0
  6  7  2  0  0  0  0
  6  5  1  0  0  0  0
  8 11  2  0  0  0  0
  8  9  1  0  0  0  0
 10  9  1  0  0  0  0
 12 11  1  0  0  0  0
 13  2  1  0  0  0  0
M  END
>  <CHROM.1>
164.45371501,-142.81116389,1.37529505,1.80998395,-3.00292392,2.44589991,-0.23675246
2.51368252

>  <Name>
lig.pdb

>  <RI>
2.86608e+07

>  <Rbt.Current_Directory>
/home/itssahil/PROJECTS/Mol_Feturizer/New_Systems/rnas/2l1v

>  <Rbt.Executable>
rbdock ($Id: //depot/dev/client3/rdock/2013.1/src/exe/rbdock.cxx#4 $)

>  <Rbt.Library>
libRbt.so (2013.1, Build901 2013/11/27)

>  <Rbt.Parameter_File>
/export/apps/rDock/src/rDock_2013.1_src/data/scripts/dock_solv.prm

>  <Rbt.Receptor>
prm/pocket_docking_7.prm

>  <SCORE>
-44.2647

>  <SCORE.INTER>
-45.8578

>  <SCORE.INTER.CONST>
1

>  <SCORE.INTER.POLAR>
-3.83805

>  <SCORE.INTER.ROT>
2

>  <SCORE.INTER.SOLV>
16.7561

>  <SCORE.INTER.VDW>
-28.2971

>  <SCORE.INTER.norm>
-3.52752

>  <SCORE.INTRA>
1.59303

>  <SCORE.INTRA.DIHEDRAL>
0.323024

>  <SCORE.INTRA.DIHEDRAL.0>
1.43995

>  <SCORE.INTRA.POLAR>
0.272593

>  <SCORE.INTRA.POLAR.0>
-0.272593

>  <SCORE.INTRA.REPUL>
0

>  <SCORE.INTRA.REPUL.0>
0

>  <SCORE.INTRA.SOLV>
-0.500703

>  <SCORE.INTRA.SOLV.lig_0>
-22.6728

>  <SCORE.INTRA.VDW>
0.755053

>  <SCORE.INTRA.VDW.0>
-0.754459

>  <SCORE.INTRA.norm>
0.122541

>  <SCORE.RESTR>
0

>  <SCORE.RESTR.CAVITY>
0

>  <SCORE.RESTR.norm>
0

>  <SCORE.SYSTEM>
0

>  <SCORE.SYSTEM.CONST>
0

>  <SCORE.SYSTEM.DIHEDRAL>
0

>  <SCORE.SYSTEM.SOLV>
0

>  <SCORE.SYSTEM.norm>
0

>  <SCORE.heavy>
13

>  <SCORE.norm>
-3.40498

>  <RMSD>
4.179

$$$$
lig.pdb
 OpenBabel11021811453D
libRbt.so/2013.1/901 2013/11/27
 13 14  0  0  0  0  0  0  0  0999 V2000
   -0.7655    1.8134   -2.3498 N   0  0  0  0  0  0  0  0  0  0  0  0
   -0.4249    0.6923   -1.6334 C   0  0  0  0  0  0  0  0  0  0  0  0
    0.8168    0.2218   -1.6770 N   0  0  0  0  0  0  0  0  0  0  0  0
    1.7873    0.8318   -2.4256 C   0  0  0  0  0  0  0  0  0  0  0  0
    1.4761    1.9866   -3.1877 C   0  0  0  0  0  0  0  0  0  0  0  0
    0.1416    2.4797   -3.1268 C   0  0  0  0  0  0  0  0  0  0  0  0
   -0.1925    3.4718   -3.7487 O   0  0  0  0  0  0  0  0  0  0  0  0
    2.7015    2.3702   -3.8885 C   0  0  0  0  0  0  0  0  0  0  0  0
    2.8678    3.4979   -4.8709 C   0  0  0  0  0  0  0  0  0  0  0  0
    4.2980    3.7687   -5.0725 N   0  0  0  0  0  0  0  0  0  0  0  0
    3.6396    1.4976   -3.4994 C   0  0  0  0  0  0  0  0  0  0  0  0
    3.1034    0.5760   -2.6396 N   0  0  0  0  0  0  0  0  0  0  0  0
   -1.3675    0.0625   -0.8641 N   0  0  0  0  0  0  0  0  0  0  0  0
  1  6  1  0  0  0  0
  2  1  1  0  0  0  0
  2  3  2  0  0  0  0
  3  4  1  0  0  0  0
  4  5  2  0  0  0  0
  4 12  1  0  0  0  0
  5  8  1  0  0  0  0
  6  7  2  0  0  0  0
  6  5  1  0  0  0  0
  8 11  2  0  0  0  0
  8  9  1  0  0  0  0
 10  9  1  0  0  0  0
 12 11  1  0  0  0  0
 13  2  1  0  0  0  0
M  END
>  <CHROM.1>
165.23707195,-144.14173802,1.37387155,1.80951472,-3.00175736,2.44615217,-0.23704590
2.51506869

>  <Name>
lig.pdb

>  <RI>
4.02536e+07

>  <Rbt.Current_Directory>
/home/itssahil/PROJECTS/Mol_Feturizer/New_Systems/rnas/2l1v

>  <Rbt.Executable>
rbdock ($Id: //depot/dev/client3/rdock/2013.1/src/exe/rbdock.cxx#4 $)

>  <Rbt.Library>
libRbt.so (2013.1, Build901 2013/11/27)

>  <Rbt.Parameter_File>
/export/apps/rDock/src/rDock_2013.1_src/data/scripts/dock_solv.prm

>  <Rbt.Receptor>
prm/blind_docking_40.prm

>  <SCORE>
-44.258

>  <SCORE.INTER>
-45.8539

>  <SCORE.INTER.CONST>
1

>  <SCORE.INTER.POLAR>
-3.8093

>  <SCORE.INTER.ROT>
2

>  <SCORE.INTER.SOLV>
16.76

>  <SCORE.INTER.VDW>
-28.3916

>  <SCORE.INTER.norm>
-3.52722

>  <SCORE.INTRA>
1.59594

>  <SCORE.INTRA.DIHEDRAL>
0.287671

>  <SCORE.INTRA.DIHEDRAL.0>
1.43995

>  <SCORE.INTRA.POLAR>
0.272593

>  <SCORE.INTRA.POLAR.0>
-0.272593

>  <SCORE.INTRA.REPUL>
0

>  <SCORE.INTRA.REPUL.0>
0

>  <SCORE.INTRA.SOLV>
-0.499903

>  <SCORE.INTRA.SOLV.lig_0>
-22.6728

>  <SCORE.INTRA.VDW>
0.775242

>  <SCORE.INTRA.VDW.0>
-0.754459

>  <SCORE.INTRA.norm>
0.122765

>  <SCORE.RESTR>
0

>  <SCORE.RESTR.CAVITY>
0

>  <SCORE.RESTR.norm>
0

>  <SCORE.SYSTEM>
0

>  <SCORE.SYSTEM.CONST>
0

>  <SCORE.SYSTEM.DIHEDRAL>
0

>  <SCORE.SYSTEM.SOLV>
0

>  <SCORE.SYSTEM.norm>
0

>  <SCORE.heavy>
13

>  <SCORE.norm>
-3.40446

>  <RMSD>
4.180

$$$$
lig.pdb
 OpenBabel11021811453D
libRbt.so/2013.1/901 2013/11/27
 13 14  0  0  0  0  0  0  0  0999 V2000
   -0.7695    1.8104   -2.3542 N   0  0  0  0  0  0  0  0  0  0  0  0
   -0.4288    0.6902   -1.6365 C   0  0  0  0  0  0  0  0  0  0  0  0
    0.8133    0.2206   -1.6783 N   0  0  0  0  0  0  0  0  0  0  0  0
    1.7842    0.8309   -2.4262 C   0  0  0  0  0  0  0  0  0  0  0  0
    1.4729    1.9849   -3.1896 C   0  0  0  0  0  0  0  0  0  0  0  0
    0.1380    2.4769   -3.1306 C   0  0  0  0  0  0  0  0  0  0  0  0
   -0.1963    3.4683   -3.7536 O   0  0  0  0  0  0  0  0  0  0  0  0
    2.6988    2.3689   -3.8893 C   0  0  0  0  0  0  0  0  0  0  0  0
    2.8653    3.4961   -4.8723 C   0  0  0  0  0  0  0  0  0  0  0  0
    4.2954    3.7728   -5.0668 N   0  0  0  0  0  0  0  0  0  0  0  0
    3.6372    1.4974   -3.4984 C   0  0  0  0  0  0  0  0  0  0  0  0
    3.1007    0.5761   -2.6386 N   0  0  0  0  0  0  0  0  0  0  0  0
   -1.3718    0.0601   -0.8678 N   0  0  0  0  0  0  0  0  0  0  0  0
  1  6  1  0  0  0  0
  2  1  1  0  0  0  0
  2  3  2  0  0  0  0
  3  4  1  0  0  0  0
  4  5  2  0  0  0  0
  4 12  1  0  0  0  0
  5  8  1  0  0  0  0
  6  7  2  0  0  0  0
  6  5  1  0  0  0  0
  8 11  2  0  0  0  0
  8  9  1  0  0  0  0
 10  9  1  0  0  0  0
 12 11  1  0  0  0  0
 13  2  1  0  0  0  0
M  END
>  <CHROM.1>
164.92599643,-143.36814811,1.37058627,1.80829698,-3.00311167,2.44609927,-0.23529185
2.51480752

>  <Name>
lig.pdb

>  <RI>
1.459e+07

>  <Rbt.Current_Directory>
/home/itssahil/PROJECTS/Mol_Feturizer/New_Systems/rnas/2l1v

>  <Rbt.Executable>
rbdock ($Id: //depot/dev/client3/rdock/2013.1/src/exe/rbdock.cxx#4 $)

>  <Rbt.Library>
libRbt.so (2013.1, Build901 2013/11/27)

>  <Rbt.Parameter_File>
/export/apps/rDock/src/rDock_2013.1_src/data/scripts/dock_solv.prm

>  <Rbt.Receptor>
prm/pocket_docking_2.prm

>  <SCORE>
-44.2677

>  <SCORE.INTER>
-45.8596

>  <SCORE.INTER.CONST>
1

>  <SCORE.INTER.POLAR>
-3.82863

>  <SCORE.INTER.ROT>
2

>  <SCORE.INTER.SOLV>
16.7679

>  <SCORE.INTER.VDW>
-28.3336

>  <SCORE.INTER.norm>
-3.52766

>  <SCORE.INTRA>
1.59188

>  <SCORE.INTRA.DIHEDRAL>
0.301855

>  <SCORE.INTRA.DIHEDRAL.0>
1.43995

>  <SCORE.INTRA.POLAR>
0.272593

>  <SCORE.INTRA.POLAR.0>
-0.272593

>  <SCORE.INTRA.REPUL>
0

>  <SCORE.INTRA.REPUL.0>
0

>  <SCORE.INTRA.SOLV>
-0.500237

>  <SCORE.INTRA.SOLV.lig_0>
-22.6728

>  <SCORE.INTRA.VDW>
0.764258

>  <SCORE.INTRA.VDW.0>
-0.754459

>  <SCORE.INTRA.norm>
0.122452

>  <SCORE.RESTR>
0

>  <SCORE.RESTR.CAVITY>
0

>  <SCORE.RESTR.norm>
0

>  <SCORE.SYSTEM>
0

>  <SCORE.SYSTEM.CONST>
0

>  <SCORE.SYSTEM.DIHEDRAL>
0

>  <SCORE.SYSTEM.SOLV>
0

>  <SCORE.SYSTEM.norm>
0

>  <SCORE.heavy>
13

>  <SCORE.norm>
-3.40521

>  <RMSD>
4.180

$$$$
lig.pdb
 OpenBabel11021811453D
libRbt.so/2013.1/901 2013/11/27
 13 14  0  0  0  0  0  0  0  0999 V2000
   -0.7638    1.8164   -2.3378 N   0  0  0  0  0  0  0  0  0  0  0  0
   -0.4206    0.6971   -1.6198 C   0  0  0  0  0  0  0  0  0  0  0  0
    0.8209    0.2263   -1.6670 N   0  0  0  0  0  0  0  0  0  0  0  0
    1.7886    0.8343   -2.4207 C   0  0  0  0  0  0  0  0  0  0  0  0
    1.4746    1.9872   -3.1846 C   0  0  0  0  0  0  0  0  0  0  0  0
    0.1405    2.4806   -3.1199 C   0  0  0  0  0  0  0  0  0  0  0  0
   -0.1959    3.4712   -3.7430 O   0  0  0  0  0  0  0  0  0  0  0  0
    2.6974    2.3689   -3.8910 C   0  0  0  0  0  0  0  0  0  0  0  0
    2.8601    3.4941   -4.8768 C   0  0  0  0  0  0  0  0  0  0  0  0
    4.2894    3.7713   -5.0765 N   0  0  0  0  0  0  0  0  0  0  0  0
    3.6369    1.4972   -3.5032 C   0  0  0  0  0  0  0  0  0  0  0  0
    3.1038    0.5778   -2.6391 N   0  0  0  0  0  0  0  0  0  0  0  0
   -1.3604    0.0692   -0.8454 N   0  0  0  0  0  0  0  0  0  0  0  0
  1  6  1  0  0  0  0
  2  1  1  0  0  0  0
  2  3  2  0  0  0  0
  3  4  1  0  0  0  0
  4  5  2  0  0  0  0
  4 12  1  0  0  0  0
  5  8  1  0  0  0  0
  6  7  2  0  0  0  0
  6  5  1  0  0  0  0
  8 11  2  0  0  0  0
  8  9  1  0  0  0  0
 10  9  1  0  0  0  0
 12 11  1  0  0  0  0
 13  2  1  0  0  0  0
M  END
>  <CHROM.1>
164.79108440,-143.93829617,1.37305595,1.81124087,-2.99705886,2.44384649,-0.23968281
2.51269331

>  <Name>
lig.pdb

>  <RI>
1.75485e+07

>  <Rbt.Current_Directory>
/home/itssahil/PROJECTS/Mol_Feturizer/New_Systems/rnas/2l1v

>  <Rbt.Executable>
rbdock ($Id: //depot/dev/client3/rdock/2013.1/src/exe/rbdock.cxx#4 $)

>  <Rbt.Library>
libRbt.so (2013.1, Build901 2013/11/27)

>  <Rbt.Parameter_File>
/export/apps/rDock/src/rDock_2013.1_src/data/scripts/dock_solv.prm

>  <Rbt.Receptor>
prm/pocket_docking_4.prm

>  <SCORE>
-44.245

>  <SCORE.INTER>
-45.8454

>  <SCORE.INTER.CONST>
1

>  <SCORE.INTER.POLAR>
-3.82226

>  <SCORE.INTER.ROT>
2

>  <SCORE.INTER.SOLV>
16.733

>  <SCORE.INTER.VDW>
-28.3337

>  <SCORE.INTER.norm>
-3.52657

>  <SCORE.INTRA>
1.60038

>  <SCORE.INTRA.DIHEDRAL>
0.306886

>  <SCORE.INTRA.DIHEDRAL.0>
1.43995

>  <SCORE.INTRA.POLAR>
0.272593

>  <SCORE.INTRA.POLAR.0>
-0.272593

>  <SCORE.INTRA.REPUL>
0

>  <SCORE.INTRA.REPUL.0>
0

>  <SCORE.INTRA.SOLV>
-0.50031

>  <SCORE.INTRA.SOLV.lig_0>
-22.6728

>  <SCORE.INTRA.VDW>
0.770276

>  <SCORE.INTRA.VDW.0>
-0.754459

>  <SCORE.INTRA.norm>
0.123106

>  <SCORE.RESTR>
0

>  <SCORE.RESTR.CAVITY>
0

>  <SCORE.RESTR.norm>
0

>  <SCORE.SYSTEM>
0

>  <SCORE.SYSTEM.CONST>
0

>  <SCORE.SYSTEM.DIHEDRAL>
0

>  <SCORE.SYSTEM.SOLV>
0

>  <SCORE.SYSTEM.norm>
0

>  <SCORE.heavy>
13

>  <SCORE.norm>
-3.40346

>  <RMSD>
4.180

$$$$
lig.pdb
 OpenBabel11021811453D
libRbt.so/2013.1/901 2013/11/27
 13 14  0  0  0  0  0  0  0  0999 V2000
   -0.7667    1.8112   -2.3480 N   0  0  0  0  0  0  0  0  0  0  0  0
   -0.4246    0.6906   -1.6314 C   0  0  0  0  0  0  0  0  0  0  0  0
    0.8176    0.2215   -1.6752 N   0  0  0  0  0  0  0  0  0  0  0  0
    1.7872    0.8326   -2.4241 C   0  0  0  0  0  0  0  0  0  0  0  0
    1.4745    1.9869   -3.1863 C   0  0  0  0  0  0  0  0  0  0  0  0
    0.1395    2.4784   -3.1252 C   0  0  0  0  0  0  0  0  0  0  0  0
   -0.1959    3.4701   -3.7471 O   0  0  0  0  0  0  0  0  0  0  0  0
    2.6993    2.3718   -3.8874 C   0  0  0  0  0  0  0  0  0  0  0  0
    2.8641    3.4996   -4.8700 C   0  0  0  0  0  0  0  0  0  0  0  0
    4.2940    3.7711   -5.0730 N   0  0  0  0  0  0  0  0  0  0  0  0
    3.6386    1.5004   -3.4984 C   0  0  0  0  0  0  0  0  0  0  0  0
    3.1035    0.5783   -2.6384 N   0  0  0  0  0  0  0  0  0  0  0  0
   -1.3664    0.0597   -0.8618 N   0  0  0  0  0  0  0  0  0  0  0  0
  1  6  1  0  0  0  0
  2  1  1  0  0  0  0
  2  3  2  0  0  0  0
  3  4  1  0  0  0  0
  4  5  2  0  0  0  0
  4 12  1  0  0  0  0
  5  8  1  0  0  0  0
  6  7  2  0  0  0  0
  6  5  1  0  0  0  0
  8 11  2  0  0  0  0
  8  9  1  0  0  0  0
 10  9  1  0  0  0  0
 12 11  1  0  0  0  0
 13  2  1  0  0  0  0
M  END
>  <CHROM.1>
165.29632527,-143.78314437,1.37252060,1.80963097,-3.00040960,2.44507913,-0.23660306
2.51460745

>  <Name>
lig.pdb

>  <RI>
2.86608e+07

>  <Rbt.Current_Directory>
/home/itssahil/PROJECTS/Mol_Feturizer/New_Systems/rnas/2l1v

>  <Rbt.Executable>
rbdock ($Id: //depot/dev/client3/rdock/2013.1/src/exe/rbdock.cxx#4 $)

>  <Rbt.Library>
libRbt.so (2013.1, Build901 2013/11/27)

>  <Rbt.Parameter_File>
/export/apps/rDock/src/rDock_2013.1_src/data/scripts/dock_solv.prm

>  <Rbt.Receptor>
prm/pocket_docking_7.prm

>  <SCORE>
-44.2595

>  <SCORE.INTER>
-45.8505

>  <SCORE.INTER.CONST>
1

>  <SCORE.INTER.POLAR>
-3.81573

>  <SCORE.INTER.ROT>
2

>  <SCORE.INTER.SOLV>
16.7562

>  <SCORE.INTER.VDW>
-28.3666

>  <SCORE.INTER.norm>
-3.52696

>  <SCORE.INTRA>
1.59094

>  <SCORE.INTRA.DIHEDRAL>
0.285634

>  <SCORE.INTRA.DIHEDRAL.0>
1.43995

>  <SCORE.INTRA.POLAR>
0.272593

>  <SCORE.INTRA.POLAR.0>
-0.272593

>  <SCORE.INTRA.REPUL>
0

>  <SCORE.INTRA.REPUL.0>
0

>  <SCORE.INTRA.SOLV>
-0.499881

>  <SCORE.INTRA.SOLV.lig_0>
-22.6728

>  <SCORE.INTRA.VDW>
0.771247

>  <SCORE.INTRA.VDW.0>
-0.754459

>  <SCORE.INTRA.norm>
0.12238

>  <SCORE.RESTR>
0

>  <SCORE.RESTR.CAVITY>
0

>  <SCORE.RESTR.norm>
0

>  <SCORE.SYSTEM>
0

>  <SCORE.SYSTEM.CONST>
0

>  <SCORE.SYSTEM.DIHEDRAL>
0

>  <SCORE.SYSTEM.SOLV>
0

>  <SCORE.SYSTEM.norm>
0

>  <SCORE.heavy>
13

>  <SCORE.norm>
-3.40458

>  <RMSD>
4.180

$$$$
lig.pdb
 OpenBabel11021811453D
libRbt.so/2013.1/901 2013/11/27
 13 14  0  0  0  0  0  0  0  0999 V2000
   -0.7665    1.8091   -2.3430 N   0  0  0  0  0  0  0  0  0  0  0  0
   -0.4234    0.6929   -1.6201 C   0  0  0  0  0  0  0  0  0  0  0  0
    0.8190    0.2242   -1.6621 N   0  0  0  0  0  0  0  0  0  0  0  0
    1.7878    0.8313   -2.4152 C   0  0  0  0  0  0  0  0  0  0  0  0
    1.4740    1.9810   -3.1840 C   0  0  0  0  0  0  0  0  0  0  0  0
    0.1388    2.4722   -3.1248 C   0  0  0  0  0  0  0  0  0  0  0  0
   -0.1976    3.4600   -3.7523 O   0  0  0  0  0  0  0  0  0  0  0  0
    2.6981    2.3624   -3.8883 C   0  0  0  0  0  0  0  0  0  0  0  0
    2.8617    3.4844   -4.8775 C   0  0  0  0  0  0  0  0  0  0  0  0
    4.2910    3.7630   -5.0746 N   0  0  0  0  0  0  0  0  0  0  0  0
    3.6381    1.4937   -3.4947 C   0  0  0  0  0  0  0  0  0  0  0  0
    3.1041    0.5765   -2.6289 N   0  0  0  0  0  0  0  0  0  0  0  0
   -1.3642    0.0661   -0.8461 N   0  0  0  0  0  0  0  0  0  0  0  0
  1  6  1  0  0  0  0
  2  1  1  0  0  0  0
  2  3  2  0  0  0  0
  3  4  1  0  0  0  0
  4  5  2  0  0  0  0
  4 12  1  0  0  0  0
  5  8  1  0  0  0  0
  6  7  2  0  0  0  0
  6  5  1  0  0  0  0
  8 11  2  0  0  0  0
  8  9  1  0  0  0  0
 10  9  1  0  0  0  0
 12 11  1  0  0  0  0
 13  2  1  0  0  0  0
M  END
>  <CHROM.1>
164.82300846,-142.16290044,1.37220901,1.80546210,-2.99618064,2.44414542,-0.23640534
2.50927448

>  <Name>
lig.pdb

>  <RI>
1.75485e+07

>  <Rbt.Current_Directory>
/home/itssahil/PROJECTS/Mol_Feturizer/New_Systems/rnas/2l1v

>  <Rbt.Executable>
rbdock ($Id: //depot/dev/client3/rdock/2013.1/src/exe/rbdock.cxx#4 $)

>  <Rbt.Library>
libRbt.so (2013.1, Build901 2013/11/27)

>  <Rbt.Parameter_File>
/export/apps/rDock/src/rDock_2013.1_src/data/scripts/dock_solv.prm

>  <Rbt.Receptor>
prm/pocket_docking_4.prm

>  <SCORE>
-44.2467

>  <SCORE.INTER>
-45.8269

>  <SCORE.INTER.CONST>
1

>  <SCORE.INTER.POLAR>
-3.83109

>  <SCORE.INTER.ROT>
2

>  <SCORE.INTER.SOLV>
16.7155

>  <SCORE.INTER.VDW>
-28.2861

>  <SCORE.INTER.norm>
-3.52515

>  <SCORE.INTRA>
1.58028

>  <SCORE.INTRA.DIHEDRAL>
0.308021

>  <SCORE.INTRA.DIHEDRAL.0>
1.43995

>  <SCORE.INTRA.POLAR>
0.272593

>  <SCORE.INTRA.POLAR.0>
-0.272593

>  <SCORE.INTRA.REPUL>
0

>  <SCORE.INTRA.REPUL.0>
0

>  <SCORE.INTRA.SOLV>
-0.500427

>  <SCORE.INTRA.SOLV.lig_0>
-22.6728

>  <SCORE.INTRA.VDW>
0.749663

>  <SCORE.INTRA.VDW.0>
-0.754459

>  <SCORE.INTRA.norm>
0.12156

>  <SCORE.RESTR>
0

>  <SCORE.RESTR.CAVITY>
0

>  <SCORE.RESTR.norm>
0

>  <SCORE.SYSTEM>
0

>  <SCORE.SYSTEM.CONST>
0

>  <SCORE.SYSTEM.DIHEDRAL>
0

>  <SCORE.SYSTEM.SOLV>
0

>  <SCORE.SYSTEM.norm>
0

>  <SCORE.heavy>
13

>  <SCORE.norm>
-3.40359

>  <RMSD>
4.181

$$$$
lig.pdb
 OpenBabel11021811453D
libRbt.so/2013.1/901 2013/11/27
 13 14  0  0  0  0  0  0  0  0999 V2000
   -0.7801    1.8038   -2.3496 N   0  0  0  0  0  0  0  0  0  0  0  0
   -0.4449    0.6884   -1.6219 C   0  0  0  0  0  0  0  0  0  0  0  0
    0.7963    0.2157   -1.6551 N   0  0  0  0  0  0  0  0  0  0  0  0
    1.7716    0.8180   -2.4037 C   0  0  0  0  0  0  0  0  0  0  0  0
    1.4661    1.9668   -3.1772 C   0  0  0  0  0  0  0  0  0  0  0  0
    0.1320    2.4622   -3.1274 C   0  0  0  0  0  0  0  0  0  0  0  0
   -0.1974    3.4495   -3.7594 O   0  0  0  0  0  0  0  0  0  0  0  0
    2.6956    2.3427   -3.8748 C   0  0  0  0  0  0  0  0  0  0  0  0
    2.8688    3.4618   -4.8658 C   0  0  0  0  0  0  0  0  0  0  0  0
    4.2999    3.7408   -5.0488 N   0  0  0  0  0  0  0  0  0  0  0  0
    3.6305    1.4721   -3.4734 C   0  0  0  0  0  0  0  0  0  0  0  0
    3.0884    0.5586   -2.6087 N   0  0  0  0  0  0  0  0  0  0  0  0
   -1.3924    0.0663   -0.8523 N   0  0  0  0  0  0  0  0  0  0  0  0
  1  6  1  0  0  0  0
  2  1  1  0  0  0  0
  2  3  2  0  0  0  0
  3  4  1  0  0  0  0
  4  5  2  0  0  0  0
  4 12  1  0  0  0  0
  5  8  1  0  0  0  0
  6  7  2  0  0  0  0
  6  5  1  0  0  0  0
  8 11  2  0  0  0  0
  8  9  1  0  0  0  0
 10  9  1  0  0  0  0
 12 11  1  0  0  0  0
 13  2  1  0  0  0  0
M  END
>  <CHROM.1>
164.49614517,-145.38719468,1.36257606,1.79249429,-2.98904019,2.45026711,-0.23277351
2.50862880

>  <Name>
lig.pdb

>  <RI>
2.05237e+07

>  <Rbt.Current_Directory>
/home/itssahil/PROJECTS/Mol_Feturizer/New_Systems/rnas/2l1v

>  <Rbt.Executable>
rbdock ($Id: //depot/dev/client3/rdock/2013.1/src/exe/rbdock.cxx#4 $)

>  <Rbt.Library>
libRbt.so (2013.1, Build901 2013/11/27)

>  <Rbt.Parameter_File>
/export/apps/rDock/src/rDock_2013.1_src/data/scripts/dock_solv.prm

>  <Rbt.Receptor>
prm/blind_docking_100.prm

>  <SCORE>
-43.9222

>  <SCORE.INTER>
-45.7057

>  <SCORE.INTER.CONST>
1

>  <SCORE.INTER.POLAR>
-3.79769

>  <SCORE.INTER.ROT>
2

>  <SCORE.INTER.SOLV>
16.6862

>  <SCORE.INTER.VDW>
-28.3069

>  <SCORE.INTER.norm>
-3.51583

>  <SCORE.INTRA>
1.62169

>  <SCORE.INTRA.DIHEDRAL>
0.317993

>  <SCORE.INTRA.DIHEDRAL.0>
1.43995

>  <SCORE.INTRA.POLAR>
0.272593

>  <SCORE.INTRA.POLAR.0>
-0.272593

>  <SCORE.INTRA.REPUL>
0

>  <SCORE.INTRA.REPUL.0>
0

>  <SCORE.INTRA.SOLV>
-0.500456

>  <SCORE.INTRA.SOLV.lig_0>
-22.6728

>  <SCORE.INTRA.VDW>
0.786105

>  <SCORE.INTRA.VDW.0>
-0.754459

>  <SCORE.INTRA.norm>
0.124745

>  <SCORE.RESTR>
0.161797

>  <SCORE.RESTR.CAVITY>
0.161797

>  <SCORE.RESTR.norm>
0.0124459

>  <SCORE.SYSTEM>
0

>  <SCORE.SYSTEM.CONST>
0

>  <SCORE.SYSTEM.DIHEDRAL>
0

>  <SCORE.SYSTEM.SOLV>
0

>  <SCORE.SYSTEM.norm>
0

>  <SCORE.heavy>
13

>  <SCORE.norm>
-3.37863

>  <RMSD>
4.182

$$$$
lig.pdb
 OpenBabel11021811453D
libRbt.so/2013.1/901 2013/11/27
 13 14  0  0  0  0  0  0  0  0999 V2000
   -0.7786    1.8104   -2.3432 N   0  0  0  0  0  0  0  0  0  0  0  0
   -0.4381    0.6942   -1.6192 C   0  0  0  0  0  0  0  0  0  0  0  0
    0.8042    0.2248   -1.6576 N   0  0  0  0  0  0  0  0  0  0  0  0
    1.7754    0.8312   -2.4083 C   0  0  0  0  0  0  0  0  0  0  0  0
    1.4643    1.9809   -3.1781 C   0  0  0  0  0  0  0  0  0  0  0  0
    0.1292    2.4728   -3.1227 C   0  0  0  0  0  0  0  0  0  0  0  0
   -0.2049    3.4607   -3.7513 O   0  0  0  0  0  0  0  0  0  0  0  0
    2.6905    2.3615   -3.8791 C   0  0  0  0  0  0  0  0  0  0  0  0
    2.8574    3.4833   -4.8682 C   0  0  0  0  0  0  0  0  0  0  0  0
    4.2879    3.7394   -5.0858 N   0  0  0  0  0  0  0  0  0  0  0  0
    3.6289    1.4924   -3.4829 C   0  0  0  0  0  0  0  0  0  0  0  0
    3.0921    0.5756   -2.6184 N   0  0  0  0  0  0  0  0  0  0  0  0
   -1.3814    0.0681   -0.8477 N   0  0  0  0  0  0  0  0  0  0  0  0
  1  6  1  0  0  0  0
  2  1  1  0  0  0  0
  2  3  2  0  0  0  0
  3  4  1  0  0  0  0
  4  5  2  0  0  0  0
  4 12  1  0  0  0  0
  5  8  1  0  0  0  0
  6  7  2  0  0  0  0
  6  5  1  0  0  0  0
  8 11  2  0  0  0  0
  8  9  1  0  0  0  0
 10  9  1  0  0  0  0
 12 11  1  0  0  0  0
 13  2  1  0  0  0  0
M  END
>  <CHROM.1>
166.17239449,34.70515004,1.36198625,1.80350026,-2.99248267,2.44671904,-0.23574698
2.50766290

>  <Name>
lig.pdb

>  <RI>
2.05237e+07

>  <Rbt.Current_Directory>
/home/itssahil/PROJECTS/Mol_Feturizer/New_Systems/rnas/2l1v

>  <Rbt.Executable>
rbdock ($Id: //depot/dev/client3/rdock/2013.1/src/exe/rbdock.cxx#4 $)

>  <Rbt.Library>
libRbt.so (2013.1, Build901 2013/11/27)

>  <Rbt.Parameter_File>
/export/apps/rDock/src/rDock_2013.1_src/data/scripts/dock_solv.prm

>  <Rbt.Receptor>
prm/blind_docking_100.prm

>  <SCORE>
-43.678

>  <SCORE.INTER>
-45.5376

>  <SCORE.INTER.CONST>
1

>  <SCORE.INTER.POLAR>
-3.7414

>  <SCORE.INTER.ROT>
2

>  <SCORE.INTER.SOLV>
16.7067

>  <SCORE.INTER.VDW>
-28.3893

>  <SCORE.INTER.norm>
-3.50289

>  <SCORE.INTRA>
1.6846

>  <SCORE.INTRA.DIHEDRAL>
0.374504

>  <SCORE.INTRA.DIHEDRAL.0>
1.43995

>  <SCORE.INTRA.POLAR>
0.272593

>  <SCORE.INTRA.POLAR.0>
-0.272593

>  <SCORE.INTRA.REPUL>
0

>  <SCORE.INTRA.REPUL.0>
0

>  <SCORE.INTRA.SOLV>
-0.498217

>  <SCORE.INTRA.SOLV.lig_0>
-22.6728

>  <SCORE.INTRA.VDW>
0.819637

>  <SCORE.INTRA.VDW.0>
-0.754459

>  <SCORE.INTRA.norm>
0.129584

>  <SCORE.RESTR>
0.174985

>  <SCORE.RESTR.CAVITY>
0.174985

>  <SCORE.RESTR.norm>
0.0134604

>  <SCORE.SYSTEM>
0

>  <SCORE.SYSTEM.CONST>
0

>  <SCORE.SYSTEM.DIHEDRAL>
0

>  <SCORE.SYSTEM.SOLV>
0

>  <SCORE.SYSTEM.norm>
0

>  <SCORE.heavy>
13

>  <SCORE.norm>
-3.35985

>  <RMSD>
4.182

$$$$
lig.pdb
 OpenBabel11021811453D
libRbt.so/2013.1/901 2013/11/27
 13 14  0  0  0  0  0  0  0  0999 V2000
   -0.7834    1.8064   -2.3455 N   0  0  0  0  0  0  0  0  0  0  0  0
   -0.4448    0.6847   -1.6291 C   0  0  0  0  0  0  0  0  0  0  0  0
    0.7957    0.2110   -1.6740 N   0  0  0  0  0  0  0  0  0  0  0  0
    1.7669    0.8184   -2.4238 C   0  0  0  0  0  0  0  0  0  0  0  0
    1.4577    1.9738   -3.1859 C   0  0  0  0  0  0  0  0  0  0  0  0
    0.1246    2.4702   -3.1236 C   0  0  0  0  0  0  0  0  0  0  0  0
   -0.2078    3.4630   -3.7454 O   0  0  0  0  0  0  0  0  0  0  0  0
    2.6832    2.3541   -3.8882 C   0  0  0  0  0  0  0  0  0  0  0  0
    2.8514    3.4811   -4.8710 C   0  0  0  0  0  0  0  0  0  0  0  0
    4.2822    3.7373   -5.0868 N   0  0  0  0  0  0  0  0  0  0  0  0
    3.6197    1.4793   -3.4999 C   0  0  0  0  0  0  0  0  0  0  0  0
    3.0820    0.5593   -2.6393 N   0  0  0  0  0  0  0  0  0  0  0  0
   -1.3881    0.0574   -0.8585 N   0  0  0  0  0  0  0  0  0  0  0  0
  1  6  1  0  0  0  0
  2  1  1  0  0  0  0
  2  3  2  0  0  0  0
  3  4  1  0  0  0  0
  4  5  2  0  0  0  0
  4 12  1  0  0  0  0
  5  8  1  0  0  0  0
  6  7  2  0  0  0  0
  6  5  1  0  0  0  0
  8 11  2  0  0  0  0
  8  9  1  0  0  0  0
 10  9  1  0  0  0  0
 12 11  1  0  0  0  0
 13  2  1  0  0  0  0
M  END
>  <CHROM.1>
165.92432450,34.63558791,1.35530146,1.79601250,-3.00057845,2.44790612,-0.23996610
2.51427354

>  <Name>
lig.pdb

>  <RI>
4.17264e+07

>  <Rbt.Current_Directory>
/home/itssahil/PROJECTS/Mol_Feturizer/New_Systems/rnas/2l1v

>  <Rbt.Executable>
rbdock ($Id: //depot/dev/client3/rdock/2013.1/src/exe/rbdock.cxx#4 $)

>  <Rbt.Library>
libRbt.so (2013.1, Build901 2013/11/27)

>  <Rbt.Parameter_File>
/export/apps/rDock/src/rDock_2013.1_src/data/scripts/dock_solv.prm

>  <Rbt.Receptor>
prm/blind_docking_20.prm

>  <SCORE>
-43.6986

>  <SCORE.INTER>
-45.5604

>  <SCORE.INTER.CONST>
1

>  <SCORE.INTER.POLAR>
-3.74148

>  <SCORE.INTER.ROT>
2

>  <SCORE.INTER.SOLV>
16.7591

>  <SCORE.INTER.VDW>
-28.4217

>  <SCORE.INTER.norm>
-3.50465

>  <SCORE.INTRA>
1.68906

>  <SCORE.INTRA.DIHEDRAL>
0.384585

>  <SCORE.INTRA.DIHEDRAL.0>
1.43995

>  <SCORE.INTRA.POLAR>
0.272593

>  <SCORE.INTRA.POLAR.0>
-0.272593

>  <SCORE.INTRA.REPUL>
0

>  <SCORE.INTRA.REPUL.0>
0

>  <SCORE.INTRA.SOLV>
-0.498421

>  <SCORE.INTRA.SOLV.lig_0>
-22.6728

>  <SCORE.INTRA.VDW>
0.819163

>  <SCORE.INTRA.VDW.0>
-0.754459

>  <SCORE.INTRA.norm>
0.129928

>  <SCORE.RESTR>
0.172715

>  <SCORE.RESTR.CAVITY>
0.172715

>  <SCORE.RESTR.norm>
0.0132858

>  <SCORE.SYSTEM>
0

>  <SCORE.SYSTEM.CONST>
0

>  <SCORE.SYSTEM.DIHEDRAL>
0

>  <SCORE.SYSTEM.SOLV>
0

>  <SCORE.SYSTEM.norm>
0

>  <SCORE.heavy>
13

>  <SCORE.norm>
-3.36143

>  <RMSD>
4.182

$$$$
lig.pdb
 OpenBabel11021811453D
libRbt.so/2013.1/901 2013/11/27
 13 14  0  0  0  0  0  0  0  0999 V2000
   -0.7818    1.8053   -2.3475 N   0  0  0  0  0  0  0  0  0  0  0  0
   -0.4413    0.6881   -1.6248 C   0  0  0  0  0  0  0  0  0  0  0  0
    0.8018    0.2209   -1.6607 N   0  0  0  0  0  0  0  0  0  0  0  0
    1.7741    0.8305   -2.4073 C   0  0  0  0  0  0  0  0  0  0  0  0
    1.4632    1.9813   -3.1757 C   0  0  0  0  0  0  0  0  0  0  0  0
    0.1271    2.4709   -3.1230 C   0  0  0  0  0  0  0  0  0  0  0  0
   -0.2069    3.4595   -3.7505 O   0  0  0  0  0  0  0  0  0  0  0  0
    2.6907    2.3654   -3.8724 C   0  0  0  0  0  0  0  0  0  0  0  0
    2.8585    3.4895   -4.8587 C   0  0  0  0  0  0  0  0  0  0  0  0
    4.2892    3.7483   -5.0720 N   0  0  0  0  0  0  0  0  0  0  0  0
    3.6295    1.4971   -3.4754 C   0  0  0  0  0  0  0  0  0  0  0  0
    3.0918    0.5776   -2.6143 N   0  0  0  0  0  0  0  0  0  0  0  0
   -1.3858    0.0588   -0.8572 N   0  0  0  0  0  0  0  0  0  0  0  0
  1  6  1  0  0  0  0
  2  1  1  0  0  0  0
  2  3  2  0  0  0  0
  3  4  1  0  0  0  0
  4  5  2  0  0  0  0
  4 12  1  0  0  0  0
  5  8  1  0  0  0  0
  6  7  2  0  0  0  0
  6  5  1  0  0  0  0
  8 11  2  0  0  0  0
  8  9  1  0  0  0  0
 10  9  1  0  0  0  0
 12 11  1  0  0  0  0
 13  2  1  0  0  0  0
M  END
>  <CHROM.1>
166.18532240,-143.64288256,1.36062862,1.80326855,-2.99107867,2.44688080,-0.23277965
2.50970816

>  <Name>
lig.pdb

>  <RI>
4.17264e+07

>  <Rbt.Current_Directory>
/home/itssahil/PROJECTS/Mol_Feturizer/New_Systems/rnas/2l1v

>  <Rbt.Executable>
rbdock ($Id: //depot/dev/client3/rdock/2013.1/src/exe/rbdock.cxx#4 $)

>  <Rbt.Library>
libRbt.so (2013.1, Build901 2013/11/27)

>  <Rbt.Parameter_File>
/export/apps/rDock/src/rDock_2013.1_src/data/scripts/dock_solv.prm

>  <Rbt.Receptor>
prm/blind_docking_20.prm

>  <SCORE>
-44.0304

>  <SCORE.INTER>
-45.7844

>  <SCORE.INTER.CONST>
1

>  <SCORE.INTER.POLAR>
-3.78654

>  <SCORE.INTER.ROT>
2

>  <SCORE.INTER.SOLV>
16.7209

>  <SCORE.INTER.VDW>
-28.4081

>  <SCORE.INTER.norm>
-3.52187

>  <SCORE.INTRA>
1.57609

>  <SCORE.INTRA.DIHEDRAL>
0.249364

>  <SCORE.INTRA.DIHEDRAL.0>
1.43995

>  <SCORE.INTRA.POLAR>
0.272593

>  <SCORE.INTRA.POLAR.0>
-0.272593

>  <SCORE.INTRA.REPUL>
0

>  <SCORE.INTRA.REPUL.0>
0

>  <SCORE.INTRA.SOLV>
-0.499143

>  <SCORE.INTRA.SOLV.lig_0>
-22.6728

>  <SCORE.INTRA.VDW>
0.774164

>  <SCORE.INTRA.VDW.0>
-0.754459

>  <SCORE.INTRA.norm>
0.121238

>  <SCORE.RESTR>
0.177854

>  <SCORE.RESTR.CAVITY>
0.177854

>  <SCORE.RESTR.norm>
0.0136811

>  <SCORE.SYSTEM>
0

>  <SCORE.SYSTEM.CONST>
0

>  <SCORE.SYSTEM.DIHEDRAL>
0

>  <SCORE.SYSTEM.SOLV>
0

>  <SCORE.SYSTEM.norm>
0

>  <SCORE.heavy>
13

>  <SCORE.norm>
-3.38695

>  <RMSD>
4.182

$$$$
lig.pdb
 OpenBabel11021811453D
libRbt.so/2013.1/901 2013/11/27
 13 14  0  0  0  0  0  0  0  0999 V2000
   -0.7764    1.8070   -2.3421 N   0  0  0  0  0  0  0  0  0  0  0  0
   -0.4409    0.6910   -1.6153 C   0  0  0  0  0  0  0  0  0  0  0  0
    0.7999    0.2174   -1.6504 N   0  0  0  0  0  0  0  0  0  0  0  0
    1.7745    0.8192   -2.4003 C   0  0  0  0  0  0  0  0  0  0  0  0
    1.4687    1.9685   -3.1729 C   0  0  0  0  0  0  0  0  0  0  0  0
    0.1351    2.4650   -3.1210 C   0  0  0  0  0  0  0  0  0  0  0  0
   -0.1945    3.4527   -3.7522 O   0  0  0  0  0  0  0  0  0  0  0  0
    2.6975    2.3436   -3.8723 C   0  0  0  0  0  0  0  0  0  0  0  0
    2.8700    3.4630   -4.8632 C   0  0  0  0  0  0  0  0  0  0  0  0
    4.3011    3.7406   -5.0485 N   0  0  0  0  0  0  0  0  0  0  0  0
    3.6323    1.4722   -3.4726 C   0  0  0  0  0  0  0  0  0  0  0  0
    3.0908    0.5588   -2.6074 N   0  0  0  0  0  0  0  0  0  0  0  0
   -1.3878    0.0695   -0.8444 N   0  0  0  0  0  0  0  0  0  0  0  0
  1  6  1  0  0  0  0
  2  1  1  0  0  0  0
  2  3  2  0  0  0  0
  3  4  1  0  0  0  0
  4  5  2  0  0  0  0
  4 12  1  0  0  0  0
  5  8  1  0  0  0  0
  6  7  2  0  0  0  0
  6  5  1  0  0  0  0
  8 11  2  0  0  0  0
  8  9  1  0  0  0  0
 10  9  1  0  0  0  0
 12 11  1  0  0  0  0
 13  2  1  0  0  0  0
M  END
>  <CHROM.1>
164.50852983,-145.49912994,1.36534708,1.79419100,-2.98473472,2.45001262,-0.23448123
2.50889460

>  <Name>
lig.pdb

>  <RI>
9.54411e+06

>  <Rbt.Current_Directory>
/home/itssahil/PROJECTS/Mol_Feturizer/New_Systems/rnas/2l1v

>  <Rbt.Executable>
rbdock ($Id: //depot/dev/client3/rdock/2013.1/src/exe/rbdock.cxx#4 $)

>  <Rbt.Library>
libRbt.so (2013.1, Build901 2013/11/27)

>  <Rbt.Parameter_File>
/export/apps/rDock/src/rDock_2013.1_src/data/scripts/dock_solv.prm

>  <Rbt.Receptor>
prm/pocket_docking_6.prm

>  <SCORE>
-43.9263

>  <SCORE.INTER>
-45.7107

>  <SCORE.INTER.CONST>
1

>  <SCORE.INTER.POLAR>
-3.7912

>  <SCORE.INTER.ROT>
2

>  <SCORE.INTER.SOLV>
16.6705

>  <SCORE.INTER.VDW>
-28.3267

>  <SCORE.INTER.norm>
-3.51621

>  <SCORE.INTRA>
1.62283

>  <SCORE.INTRA.DIHEDRAL>
0.317341

>  <SCORE.INTRA.DIHEDRAL.0>
1.43995

>  <SCORE.INTRA.POLAR>
0.272593

>  <SCORE.INTRA.POLAR.0>
-0.272593

>  <SCORE.INTRA.REPUL>
0

>  <SCORE.INTRA.REPUL.0>
0

>  <SCORE.INTRA.SOLV>
-0.500436

>  <SCORE.INTRA.SOLV.lig_0>
-22.6728

>  <SCORE.INTRA.VDW>
0.787559

>  <SCORE.INTRA.VDW.0>
-0.754459

>  <SCORE.INTRA.norm>
0.124833

>  <SCORE.RESTR>
0.161618

>  <SCORE.RESTR.CAVITY>
0.161618

>  <SCORE.RESTR.norm>
0.0124321

>  <SCORE.SYSTEM>
0

>  <SCORE.SYSTEM.CONST>
0

>  <SCORE.SYSTEM.DIHEDRAL>
0

>  <SCORE.SYSTEM.SOLV>
0

>  <SCORE.SYSTEM.norm>
0

>  <SCORE.heavy>
13

>  <SCORE.norm>
-3.37894

>  <RMSD>
4.182

$$$$
lig.pdb
 OpenBabel11021811453D
libRbt.so/2013.1/901 2013/11/27
 13 14  0  0  0  0  0  0  0  0999 V2000
   -0.7863    1.8148   -2.3422 N   0  0  0  0  0  0  0  0  0  0  0  0
   -0.4587    0.6874   -1.6295 C   0  0  0  0  0  0  0  0  0  0  0  0
    0.7763    0.2000   -1.6785 N   0  0  0  0  0  0  0  0  0  0  0  0
    1.7525    0.7984   -2.4290 C   0  0  0  0  0  0  0  0  0  0  0  0
    1.4546    1.9591   -3.1874 C   0  0  0  0  0  0  0  0  0  0  0  0
    0.1272    2.4703   -3.1208 C   0  0  0  0  0  0  0  0  0  0  0  0
   -0.1954    3.4684   -3.7393 O   0  0  0  0  0  0  0  0  0  0  0  0
    2.6827    2.3275   -3.8916 C   0  0  0  0  0  0  0  0  0  0  0  0
    2.8612    3.4551   -4.8720 C   0  0  0  0  0  0  0  0  0  0  0  0
    4.2940    3.7185   -5.0644 N   0  0  0  0  0  0  0  0  0  0  0  0
    3.6101    1.4412   -3.5077 C   0  0  0  0  0  0  0  0  0  0  0  0
    3.0642    0.5251   -2.6482 N   0  0  0  0  0  0  0  0  0  0  0  0
   -1.4072    0.0688   -0.8584 N   0  0  0  0  0  0  0  0  0  0  0  0
  1  6  1  0  0  0  0
  2  1  1  0  0  0  0
  2  3  2  0  0  0  0
  3  4  1  0  0  0  0
  4  5  2  0  0  0  0
  4 12  1  0  0  0  0
  5  8  1  0  0  0  0
  6  7  2  0  0  0  0
  6  5  1  0  0  0  0
  8 11  2  0  0  0  0
  8  9  1  0  0  0  0
 10  9  1  0  0  0  0
 12 11  1  0  0  0  0
 13  2  1  0  0  0  0
M  END
>  <CHROM.1>
164.49702435,-146.53355123,1.35052897,1.78410803,-3.00027720,2.45530436,-0.24692637
2.52057960

>  <Name>
lig.pdb

>  <RI>
2.7104e+07

>  <Rbt.Current_Directory>
/home/itssahil/PROJECTS/Mol_Feturizer/New_Systems/rnas/2l1v

>  <Rbt.Executable>
rbdock ($Id: //depot/dev/client3/rdock/2013.1/src/exe/rbdock.cxx#4 $)

>  <Rbt.Library>
libRbt.so (2013.1, Build901 2013/11/27)

>  <Rbt.Parameter_File>
/export/apps/rDock/src/rDock_2013.1_src/data/scripts/dock_solv.prm

>  <Rbt.Receptor>
prm/pocket_docking_8.prm

>  <SCORE>
-43.829

>  <SCORE.INTER>
-45.611

>  <SCORE.INTER.CONST>
1

>  <SCORE.INTER.POLAR>
-3.74272

>  <SCORE.INTER.ROT>
2

>  <SCORE.INTER.SOLV>
16.7736

>  <SCORE.INTER.VDW>
-28.4562

>  <SCORE.INTER.norm>
-3.50854

>  <SCORE.INTRA>
1.63544

>  <SCORE.INTRA.DIHEDRAL>
0.316906

>  <SCORE.INTRA.DIHEDRAL.0>
1.43995

>  <SCORE.INTRA.POLAR>
0.272593

>  <SCORE.INTRA.POLAR.0>
-0.272593

>  <SCORE.INTRA.REPUL>
0

>  <SCORE.INTRA.REPUL.0>
0

>  <SCORE.INTRA.SOLV>
-0.500365

>  <SCORE.INTRA.SOLV.lig_0>
-22.6728

>  <SCORE.INTRA.VDW>
0.800355

>  <SCORE.INTRA.VDW.0>
-0.754459

>  <SCORE.INTRA.norm>
0.125803

>  <SCORE.RESTR>
0.14663

>  <SCORE.RESTR.CAVITY>
0.14663

>  <SCORE.RESTR.norm>
0.0112792

>  <SCORE.SYSTEM>
0

>  <SCORE.SYSTEM.CONST>
0

>  <SCORE.SYSTEM.DIHEDRAL>
0

>  <SCORE.SYSTEM.SOLV>
0

>  <SCORE.SYSTEM.norm>
0

>  <SCORE.heavy>
13

>  <SCORE.norm>
-3.37146

>  <RMSD>
4.182

$$$$
lig.pdb
 OpenBabel11021811453D
libRbt.so/2013.1/901 2013/11/27
 13 14  0  0  0  0  0  0  0  0999 V2000
   -0.7808    1.7943   -2.3392 N   0  0  0  0  0  0  0  0  0  0  0  0
   -0.4388    0.6826   -1.6087 C   0  0  0  0  0  0  0  0  0  0  0  0
    0.8057    0.2187   -1.6390 N   0  0  0  0  0  0  0  0  0  0  0  0
    1.7779    0.8263   -2.3873 C   0  0  0  0  0  0  0  0  0  0  0  0
    1.4655    1.9714   -3.1635 C   0  0  0  0  0  0  0  0  0  0  0  0
    0.1279    2.4575   -3.1168 C   0  0  0  0  0  0  0  0  0  0  0  0
   -0.2074    3.4412   -3.7513 O   0  0  0  0  0  0  0  0  0  0  0  0
    2.6935    2.3545   -3.8600 C   0  0  0  0  0  0  0  0  0  0  0  0
    2.8603    3.4729   -4.8529 C   0  0  0  0  0  0  0  0  0  0  0  0
    4.2907    3.7401   -5.0583 N   0  0  0  0  0  0  0  0  0  0  0  0
    3.6338    1.4913   -3.4554 C   0  0  0  0  0  0  0  0  0  0  0  0
    3.0968    0.5758   -2.5897 N   0  0  0  0  0  0  0  0  0  0  0  0
   -1.3832    0.0555   -0.8393 N   0  0  0  0  0  0  0  0  0  0  0  0
  1  6  1  0  0  0  0
  2  1  1  0  0  0  0
  2  3  2  0  0  0  0
  3  4  1  0  0  0  0
  4  5  2  0  0  0  0
  4 12  1  0  0  0  0
  5  8  1  0  0  0  0
  6  7  2  0  0  0  0
  6  5  1  0  0  0  0
  8 11  2  0  0  0  0
  8  9  1  0  0  0  0
 10  9  1  0  0  0  0
 12 11  1  0  0  0  0
 13  2  1  0  0  0  0
M  END
>  <CHROM.1>
165.83067561,-144.65584985,1.36303478,1.79474123,-2.97743095,2.44579798,-0.22889170
2.50364917

>  <Name>
lig.pdb

>  <RI>
9.54411e+06

>  <Rbt.Current_Directory>
/home/itssahil/PROJECTS/Mol_Feturizer/New_Systems/rnas/2l1v

>  <Rbt.Executable>
rbdock ($Id: //depot/dev/client3/rdock/2013.1/src/exe/rbdock.cxx#4 $)

>  <Rbt.Library>
libRbt.so (2013.1, Build901 2013/11/27)

>  <Rbt.Parameter_File>
/export/apps/rDock/src/rDock_2013.1_src/data/scripts/dock_solv.prm

>  <Rbt.Receptor>
prm/pocket_docking_6.prm

>  <SCORE>
-43.9343

>  <SCORE.INTER>
-45.6918

>  <SCORE.INTER.CONST>
1

>  <SCORE.INTER.POLAR>
-3.79096

>  <SCORE.INTER.ROT>
2

>  <SCORE.INTER.SOLV>
16.6393

>  <SCORE.INTER.VDW>
-28.3045

>  <SCORE.INTER.norm>
-3.51476

>  <SCORE.INTRA>
1.59309

>  <SCORE.INTRA.DIHEDRAL>
0.262462

>  <SCORE.INTRA.DIHEDRAL.0>
1.43995

>  <SCORE.INTRA.POLAR>
0.272593

>  <SCORE.INTRA.POLAR.0>
-0.272593

>  <SCORE.INTRA.REPUL>
0

>  <SCORE.INTRA.REPUL.0>
0

>  <SCORE.INTRA.SOLV>
-0.499355

>  <SCORE.INTRA.SOLV.lig_0>
-22.6728

>  <SCORE.INTRA.VDW>
0.784726

>  <SCORE.INTRA.VDW.0>
-0.754459

>  <SCORE.INTRA.norm>
0.122546

>  <SCORE.RESTR>
0.164413

>  <SCORE.RESTR.CAVITY>
0.164413

>  <SCORE.RESTR.norm>
0.0126471

>  <SCORE.SYSTEM>
0

>  <SCORE.SYSTEM.CONST>
0

>  <SCORE.SYSTEM.DIHEDRAL>
0

>  <SCORE.SYSTEM.SOLV>
0

>  <SCORE.SYSTEM.norm>
0

>  <SCORE.heavy>
13

>  <SCORE.norm>
-3.37956

>  <RMSD>
4.183

$$$$
lig.pdb
 OpenBabel11021811453D
libRbt.so/2013.1/901 2013/11/27
 13 14  0  0  0  0  0  0  0  0999 V2000
   -0.8948    1.9501   -2.4558 N   0  0  0  0  0  0  0  0  0  0  0  0
   -0.8853    0.9177   -1.5501 C   0  0  0  0  0  0  0  0  0  0  0  0
    0.2461    0.2768   -1.2777 N   0  0  0  0  0  0  0  0  0  0  0  0
    1.4263    0.6207   -1.8804 C   0  0  0  0  0  0  0  0  0  0  0  0
    1.4593    1.6748   -2.8285 C   0  0  0  0  0  0  0  0  0  0  0  0
    0.2387    2.3535   -3.1061 C   0  0  0  0  0  0  0  0  0  0  0  0
    0.1963    3.2736   -3.9026 O   0  0  0  0  0  0  0  0  0  0  0  0
    2.8395    1.7690   -3.3041 C   0  0  0  0  0  0  0  0  0  0  0  0
    3.3710    2.6954   -4.3642 C   0  0  0  0  0  0  0  0  0  0  0  0
    4.4834    2.0471   -5.0724 N   0  0  0  0  0  0  0  0  0  0  0  0
    3.5297    0.8449   -2.6240 C   0  0  0  0  0  0  0  0  0  0  0  0
    2.6972    0.1528   -1.7849 N   0  0  0  0  0  0  0  0  0  0  0  0
   -2.0456    0.5537   -0.9190 N   0  0  0  0  0  0  0  0  0  0  0  0
  1  6  1  0  0  0  0
  2  1  1  0  0  0  0
  2  3  2  0  0  0  0
  3  4  1  0  0  0  0
  4  5  2  0  0  0  0
  4 12  1  0  0  0  0
  5  8  1  0  0  0  0
  6  7  2  0  0  0  0
  6  5  1  0  0  0  0
  8 11  2  0  0  0  0
  8  9  1  0  0  0  0
 10  9  1  0  0  0  0
 12 11  1  0  0  0  0
 13  2  1  0  0  0  0
M  END
>  <CHROM.1>
-148.38583030,-147.33538658,1.26307753,1.48143752,-2.71917338,2.67762234
-0.24614464,2.37193618

>  <Name>
lig.pdb

>  <RI>
2.86608e+07

>  <Rbt.Current_Directory>
/home/itssahil/PROJECTS/Mol_Feturizer/New_Systems/rnas/2l1v

>  <Rbt.Executable>
rbdock ($Id: //depot/dev/client3/rdock/2013.1/src/exe/rbdock.cxx#4 $)

>  <Rbt.Library>
libRbt.so (2013.1, Build901 2013/11/27)

>  <Rbt.Parameter_File>
/export/apps/rDock/src/rDock_2013.1_src/data/scripts/dock_solv.prm

>  <Rbt.Receptor>
prm/pocket_docking_7.prm

>  <SCORE>
-42.2378

>  <SCORE.INTER>
-43.9951

>  <SCORE.INTER.CONST>
1

>  <SCORE.INTER.POLAR>
-3.64226

>  <SCORE.INTER.ROT>
2

>  <SCORE.INTER.SOLV>
16.1902

>  <SCORE.INTER.VDW>
-27.5193

>  <SCORE.INTER.norm>
-3.38424

>  <SCORE.INTRA>
1.75735

>  <SCORE.INTRA.DIHEDRAL>
1.0769

>  <SCORE.INTRA.DIHEDRAL.0>
1.43995

>  <SCORE.INTRA.POLAR>
0.272593

>  <SCORE.INTRA.POLAR.0>
-0.272593

>  <SCORE.INTRA.REPUL>
0

>  <SCORE.INTRA.REPUL.0>
0

>  <SCORE.INTRA.SOLV>
-0.507221

>  <SCORE.INTRA.SOLV.lig_0>
-22.6728

>  <SCORE.INTRA.VDW>
0.545699

>  <SCORE.INTRA.VDW.0>
-0.754459

>  <SCORE.INTRA.norm>
0.135181

>  <SCORE.RESTR>
0

>  <SCORE.RESTR.CAVITY>
0

>  <SCORE.RESTR.norm>
0

>  <SCORE.SYSTEM>
0

>  <SCORE.SYSTEM.CONST>
0

>  <SCORE.SYSTEM.DIHEDRAL>
0

>  <SCORE.SYSTEM.SOLV>
0

>  <SCORE.SYSTEM.norm>
0

>  <SCORE.heavy>
13

>  <SCORE.norm>
-3.24906

>  <RMSD>
4.183

$$$$
lig.pdb
 OpenBabel11021811453D
libRbt.so/2013.1/901 2013/11/27
 13 14  0  0  0  0  0  0  0  0999 V2000
   -0.9005    1.9483   -2.4596 N   0  0  0  0  0  0  0  0  0  0  0  0
   -0.8805    0.9082   -1.5629 C   0  0  0  0  0  0  0  0  0  0  0  0
    0.2556    0.2704   -1.3028 N   0  0  0  0  0  0  0  0  0  0  0  0
    1.4304    0.6253   -1.9095 C   0  0  0  0  0  0  0  0  0  0  0  0
    1.4527    1.6876   -2.8487 C   0  0  0  0  0  0  0  0  0  0  0  0
    0.2271    2.3627   -3.1131 C   0  0  0  0  0  0  0  0  0  0  0  0
    0.1756    3.2894   -3.9013 O   0  0  0  0  0  0  0  0  0  0  0  0
    2.8295    1.7926   -3.3317 C   0  0  0  0  0  0  0  0  0  0  0  0
    3.3501    2.7307   -4.3868 C   0  0  0  0  0  0  0  0  0  0  0  0
    4.4771    2.1034   -5.0910 N   0  0  0  0  0  0  0  0  0  0  0  0
    3.5282    0.8660   -2.6637 C   0  0  0  0  0  0  0  0  0  0  0  0
    2.7041    0.1627   -1.8257 N   0  0  0  0  0  0  0  0  0  0  0  0
   -2.0353    0.5331   -0.9281 N   0  0  0  0  0  0  0  0  0  0  0  0
  1  6  1  0  0  0  0
  2  1  1  0  0  0  0
  2  3  2  0  0  0  0
  3  4  1  0  0  0  0
  4  5  2  0  0  0  0
  4 12  1  0  0  0  0
  5  8  1  0  0  0  0
  6  7  2  0  0  0  0
  6  5  1  0  0  0  0
  8 11  2  0  0  0  0
  8  9  1  0  0  0  0
 10  9  1  0  0  0  0
 12 11  1  0  0  0  0
 13  2  1  0  0  0  0
M  END
>  <CHROM.1>
-149.40207327,-145.26557979,1.25951541,1.49326811,-2.73832860,2.67103627
-0.24594891,2.37995078

>  <Name>
lig.pdb

>  <RI>
2.7104e+07

>  <Rbt.Current_Directory>
/home/itssahil/PROJECTS/Mol_Feturizer/New_Systems/rnas/2l1v

>  <Rbt.Executable>
rbdock ($Id: //depot/dev/client3/rdock/2013.1/src/exe/rbdock.cxx#4 $)

>  <Rbt.Library>
libRbt.so (2013.1, Build901 2013/11/27)

>  <Rbt.Parameter_File>
/export/apps/rDock/src/rDock_2013.1_src/data/scripts/dock_solv.prm

>  <Rbt.Receptor>
prm/pocket_docking_8.prm

>  <SCORE>
-42.1706

>  <SCORE.INTER>
-43.8993

>  <SCORE.INTER.CONST>
1

>  <SCORE.INTER.POLAR>
-3.59421

>  <SCORE.INTER.ROT>
2

>  <SCORE.INTER.SOLV>
16.2456

>  <SCORE.INTER.VDW>
-27.634

>  <SCORE.INTER.norm>
-3.37687

>  <SCORE.INTRA>
1.72865

>  <SCORE.INTRA.DIHEDRAL>
1.02019

>  <SCORE.INTRA.DIHEDRAL.0>
1.43995

>  <SCORE.INTRA.POLAR>
0.272593

>  <SCORE.INTRA.POLAR.0>
-0.272593

>  <SCORE.INTRA.REPUL>
0

>  <SCORE.INTRA.REPUL.0>
0

>  <SCORE.INTRA.SOLV>
-0.506328

>  <SCORE.INTRA.SOLV.lig_0>
-22.6728

>  <SCORE.INTRA.VDW>
0.544904

>  <SCORE.INTRA.VDW.0>
-0.754459

>  <SCORE.INTRA.norm>
0.132973

>  <SCORE.RESTR>
0

>  <SCORE.RESTR.CAVITY>
0

>  <SCORE.RESTR.norm>
0

>  <SCORE.SYSTEM>
0

>  <SCORE.SYSTEM.CONST>
0

>  <SCORE.SYSTEM.DIHEDRAL>
0

>  <SCORE.SYSTEM.SOLV>
0

>  <SCORE.SYSTEM.norm>
0

>  <SCORE.heavy>
13

>  <SCORE.norm>
-3.24389

>  <RMSD>
4.183

$$$$
lig.pdb
 OpenBabel11021811453D
libRbt.so/2013.1/901 2013/11/27
 13 14  0  0  0  0  0  0  0  0999 V2000
   -0.8988    1.9511   -2.4482 N   0  0  0  0  0  0  0  0  0  0  0  0
   -0.8732    0.9201   -1.5413 C   0  0  0  0  0  0  0  0  0  0  0  0
    0.2647    0.2857   -1.2810 N   0  0  0  0  0  0  0  0  0  0  0  0
    1.4360    0.6352   -1.8976 C   0  0  0  0  0  0  0  0  0  0  0  0
    1.4524    1.6881   -2.8475 C   0  0  0  0  0  0  0  0  0  0  0  0
    0.2249    2.3597   -3.1120 C   0  0  0  0  0  0  0  0  0  0  0  0
    0.1684    3.2784   -3.9092 O   0  0  0  0  0  0  0  0  0  0  0  0
    2.8265    1.7892   -3.3390 C   0  0  0  0  0  0  0  0  0  0  0  0
    3.3407    2.7170   -4.4063 C   0  0  0  0  0  0  0  0  0  0  0  0
    4.4676    2.0855   -5.1069 N   0  0  0  0  0  0  0  0  0  0  0  0
    3.5295    0.8699   -2.6656 C   0  0  0  0  0  0  0  0  0  0  0  0
    2.7105    0.1744   -1.8161 N   0  0  0  0  0  0  0  0  0  0  0  0
   -2.0243    0.5506   -0.8964 N   0  0  0  0  0  0  0  0  0  0  0  0
  1  6  1  0  0  0  0
  2  1  1  0  0  0  0
  2  3  2  0  0  0  0
  3  4  1  0  0  0  0
  4  5  2  0  0  0  0
  4 12  1  0  0  0  0
  5  8  1  0  0  0  0
  6  7  2  0  0  0  0
  6  5  1  0  0  0  0
  8 11  2  0  0  0  0
  8  9  1  0  0  0  0
 10  9  1  0  0  0  0
 12 11  1  0  0  0  0
 13  2  1  0  0  0  0
M  END
>  <CHROM.1>
-149.61651997,34.40563877,1.26043776,1.49491349,-2.73351415,2.66729887,-0.24902356
2.36933125

>  <Name>
lig.pdb

>  <RI>
2.7104e+07

>  <Rbt.Current_Directory>
/home/itssahil/PROJECTS/Mol_Feturizer/New_Systems/rnas/2l1v

>  <Rbt.Executable>
rbdock ($Id: //depot/dev/client3/rdock/2013.1/src/exe/rbdock.cxx#4 $)

>  <Rbt.Library>
libRbt.so (2013.1, Build901 2013/11/27)

>  <Rbt.Parameter_File>
/export/apps/rDock/src/rDock_2013.1_src/data/scripts/dock_solv.prm

>  <Rbt.Receptor>
prm/pocket_docking_8.prm

>  <SCORE>
-41.433

>  <SCORE.INTER>
-43.2323

>  <SCORE.INTER.CONST>
1

>  <SCORE.INTER.POLAR>
-3.47138

>  <SCORE.INTER.ROT>
2

>  <SCORE.INTER.SOLV>
16.1957

>  <SCORE.INTER.VDW>
-27.5822

>  <SCORE.INTER.norm>
-3.32556

>  <SCORE.INTRA>
1.79928

>  <SCORE.INTRA.DIHEDRAL>
1.13468

>  <SCORE.INTRA.DIHEDRAL.0>
1.43995

>  <SCORE.INTRA.POLAR>
0.272593

>  <SCORE.INTRA.POLAR.0>
-0.272593

>  <SCORE.INTRA.REPUL>
0

>  <SCORE.INTRA.REPUL.0>
0

>  <SCORE.INTRA.SOLV>
-0.504885

>  <SCORE.INTRA.SOLV.lig_0>
-22.6728

>  <SCORE.INTRA.VDW>
0.557569

>  <SCORE.INTRA.VDW.0>
-0.754459

>  <SCORE.INTRA.norm>
0.138406

>  <SCORE.RESTR>
0

>  <SCORE.RESTR.CAVITY>
0

>  <SCORE.RESTR.norm>
0

>  <SCORE.SYSTEM>
0

>  <SCORE.SYSTEM.CONST>
0

>  <SCORE.SYSTEM.DIHEDRAL>
0

>  <SCORE.SYSTEM.SOLV>
0

>  <SCORE.SYSTEM.norm>
0

>  <SCORE.heavy>
13

>  <SCORE.norm>
-3.18715

>  <RMSD>
4.184

$$$$
lig.pdb
 OpenBabel11021811453D
libRbt.so/2013.1/901 2013/11/27
 13 14  0  0  0  0  0  0  0  0999 V2000
   -0.8563    1.8369   -2.4195 N   0  0  0  0  0  0  0  0  0  0  0  0
   -0.7330    0.7097   -1.6447 C   0  0  0  0  0  0  0  0  0  0  0  0
    0.4382    0.0901   -1.5460 N   0  0  0  0  0  0  0  0  0  0  0  0
    1.5483    0.5496   -2.2025 C   0  0  0  0  0  0  0  0  0  0  0  0
    1.4629    1.7050   -3.0204 C   0  0  0  0  0  0  0  0  0  0  0  0
    0.2012    2.3588   -3.1122 C   0  0  0  0  0  0  0  0  0  0  0  0
    0.0586    3.3608   -3.7892 O   0  0  0  0  0  0  0  0  0  0  0  0
    2.7913    1.9106   -3.5971 C   0  0  0  0  0  0  0  0  0  0  0  0
    3.1962    2.9729   -4.5830 C   0  0  0  0  0  0  0  0  0  0  0  0
    4.6544    2.9474   -4.7636 N   0  0  0  0  0  0  0  0  0  0  0  0
    3.5687    0.9451   -3.0906 C   0  0  0  0  0  0  0  0  0  0  0  0
    2.8370    0.1278   -2.2705 N   0  0  0  0  0  0  0  0  0  0  0  0
   -1.8201    0.2279   -0.9642 N   0  0  0  0  0  0  0  0  0  0  0  0
  1  6  1  0  0  0  0
  2  1  1  0  0  0  0
  2  3  2  0  0  0  0
  3  4  1  0  0  0  0
  4  5  2  0  0  0  0
  4 12  1  0  0  0  0
  5  8  1  0  0  0  0
  6  7  2  0  0  0  0
  6  5  1  0  0  0  0
  8 11  2  0  0  0  0
  8  9  1  0  0  0  0
 10  9  1  0  0  0  0
 12 11  1  0  0  0  0
 13  2  1  0  0  0  0
M  END
>  <CHROM.1>
172.19049073,102.39492594,1.32021017,1.53796250,-2.85343604,2.61362728,-0.23364023
2.51166702

>  <Name>
lig.pdb

>  <RI>
1.77584e+07

>  <Rbt.Current_Directory>
/home/itssahil/PROJECTS/Mol_Feturizer/New_Systems/rnas/2l1v

>  <Rbt.Executable>
rbdock ($Id: //depot/dev/client3/rdock/2013.1/src/exe/rbdock.cxx#4 $)

>  <Rbt.Library>
libRbt.so (2013.1, Build901 2013/11/27)

>  <Rbt.Parameter_File>
/export/apps/rDock/src/rDock_2013.1_src/data/scripts/dock_solv.prm

>  <Rbt.Receptor>
prm/blind_docking_80.prm

>  <SCORE>
-43.4751

>  <SCORE.INTER>
-44.7658

>  <SCORE.INTER.CONST>
1

>  <SCORE.INTER.POLAR>
-3.92136

>  <SCORE.INTER.ROT>
2

>  <SCORE.INTER.SOLV>
16.4829

>  <SCORE.INTER.VDW>
-27.2003

>  <SCORE.INTER.norm>
-3.44352

>  <SCORE.INTRA>
1.29068

>  <SCORE.INTRA.DIHEDRAL>
0.0622959

>  <SCORE.INTRA.DIHEDRAL.0>
1.43995

>  <SCORE.INTRA.POLAR>
0.272593

>  <SCORE.INTRA.POLAR.0>
-0.272593

>  <SCORE.INTRA.REPUL>
0

>  <SCORE.INTRA.REPUL.0>
0

>  <SCORE.INTRA.SOLV>
-0.496635

>  <SCORE.INTRA.SOLV.lig_0>
-22.6728

>  <SCORE.INTRA.VDW>
0.58103

>  <SCORE.INTRA.VDW.0>
-0.754459

>  <SCORE.INTRA.norm>
0.0992827

>  <SCORE.RESTR>
0

>  <SCORE.RESTR.CAVITY>
0

>  <SCORE.RESTR.norm>
0

>  <SCORE.SYSTEM>
0

>  <SCORE.SYSTEM.CONST>
0

>  <SCORE.SYSTEM.DIHEDRAL>
0

>  <SCORE.SYSTEM.SOLV>
0

>  <SCORE.SYSTEM.norm>
0

>  <SCORE.heavy>
13

>  <SCORE.norm>
-3.34424

>  <RMSD>
4.192

$$$$
lig.pdb
 OpenBabel11021811453D
libRbt.so/2013.1/901 2013/11/27
 13 14  0  0  0  0  0  0  0  0999 V2000
   -0.8820    1.8898   -2.4028 N   0  0  0  0  0  0  0  0  0  0  0  0
   -0.7586    0.7942   -1.5838 C   0  0  0  0  0  0  0  0  0  0  0  0
    0.4140    0.1830   -1.4558 N   0  0  0  0  0  0  0  0  0  0  0  0
    1.5256    0.6200   -2.1250 C   0  0  0  0  0  0  0  0  0  0  0  0
    1.4401    1.7421   -2.9880 C   0  0  0  0  0  0  0  0  0  0  0  0
    0.1768    2.3876   -3.1109 C   0  0  0  0  0  0  0  0  0  0  0  0
    0.0341    3.3618   -3.8273 O   0  0  0  0  0  0  0  0  0  0  0  0
    2.7705    1.9293   -3.5667 C   0  0  0  0  0  0  0  0  0  0  0  0
    3.1764    2.9534   -4.5918 C   0  0  0  0  0  0  0  0  0  0  0  0
    4.6364    2.9326   -4.7577 N   0  0  0  0  0  0  0  0  0  0  0  0
    3.5487    0.9870   -3.0193 C   0  0  0  0  0  0  0  0  0  0  0  0
    2.8159    0.2001   -2.1709 N   0  0  0  0  0  0  0  0  0  0  0  0
   -1.8473    0.3359   -0.8896 N   0  0  0  0  0  0  0  0  0  0  0  0
  1  6  1  0  0  0  0
  2  1  1  0  0  0  0
  2  3  2  0  0  0  0
  3  4  1  0  0  0  0
  4  5  2  0  0  0  0
  4 12  1  0  0  0  0
  5  8  1  0  0  0  0
  6  7  2  0  0  0  0
  6  5  1  0  0  0  0
  8 11  2  0  0  0  0
  8  9  1  0  0  0  0
 10  9  1  0  0  0  0
 12 11  1  0  0  0  0
 13  2  1  0  0  0  0
M  END
>  <CHROM.1>
171.77535160,104.62025532,1.29737218,1.58192394,-2.81459571,2.61359935,-0.22756952
2.47276863

>  <Name>
lig.pdb

>  <RI>
4.02536e+07

>  <Rbt.Current_Directory>
/home/itssahil/PROJECTS/Mol_Feturizer/New_Systems/rnas/2l1v

>  <Rbt.Executable>
rbdock ($Id: //depot/dev/client3/rdock/2013.1/src/exe/rbdock.cxx#4 $)

>  <Rbt.Library>
libRbt.so (2013.1, Build901 2013/11/27)

>  <Rbt.Parameter_File>
/export/apps/rDock/src/rDock_2013.1_src/data/scripts/dock_solv.prm

>  <Rbt.Receptor>
prm/blind_docking_40.prm

>  <SCORE>
-43.6635

>  <SCORE.INTER>
-44.9625

>  <SCORE.INTER.CONST>
1

>  <SCORE.INTER.POLAR>
-3.94615

>  <SCORE.INTER.ROT>
2

>  <SCORE.INTER.SOLV>
16.3615

>  <SCORE.INTER.VDW>
-27.2083

>  <SCORE.INTER.norm>
-3.45865

>  <SCORE.INTRA>
1.29892

>  <SCORE.INTRA.DIHEDRAL>
0.0783665

>  <SCORE.INTRA.DIHEDRAL.0>
1.43995

>  <SCORE.INTRA.POLAR>
0.272593

>  <SCORE.INTRA.POLAR.0>
-0.272593

>  <SCORE.INTRA.REPUL>
0

>  <SCORE.INTRA.REPUL.0>
0

>  <SCORE.INTRA.SOLV>
-0.496826

>  <SCORE.INTRA.SOLV.lig_0>
-22.6728

>  <SCORE.INTRA.VDW>
0.581332

>  <SCORE.INTRA.VDW.0>
-0.754459

>  <SCORE.INTRA.norm>
0.0999167

>  <SCORE.RESTR>
0

>  <SCORE.RESTR.CAVITY>
0

>  <SCORE.RESTR.norm>
0

>  <SCORE.SYSTEM>
0

>  <SCORE.SYSTEM.CONST>
0

>  <SCORE.SYSTEM.DIHEDRAL>
0

>  <SCORE.SYSTEM.SOLV>
0

>  <SCORE.SYSTEM.norm>
0

>  <SCORE.heavy>
13

>  <SCORE.norm>
-3.35873

>  <RMSD>
4.198

$$$$
lig.pdb
 OpenBabel11021811453D
libRbt.so/2013.1/901 2013/11/27
 13 14  0  0  0  0  0  0  0  0999 V2000
   -0.8668    1.8753   -2.3912 N   0  0  0  0  0  0  0  0  0  0  0  0
   -0.7344    0.7882   -1.5624 C   0  0  0  0  0  0  0  0  0  0  0  0
    0.4429    0.1871   -1.4298 N   0  0  0  0  0  0  0  0  0  0  0  0
    1.5506    0.6265   -2.1038 C   0  0  0  0  0  0  0  0  0  0  0  0
    1.4560    1.7401   -2.9768 C   0  0  0  0  0  0  0  0  0  0  0  0
    0.1878    2.3748   -3.1045 C   0  0  0  0  0  0  0  0  0  0  0  0
    0.0371    3.3413   -3.8297 O   0  0  0  0  0  0  0  0  0  0  0  0
    2.7846    1.9322   -3.5582 C   0  0  0  0  0  0  0  0  0  0  0  0
    3.1819    2.9501   -4.5928 C   0  0  0  0  0  0  0  0  0  0  0  0
    4.6381    2.9127   -4.7869 N   0  0  0  0  0  0  0  0  0  0  0  0
    3.5703    1.0009   -3.0029 C   0  0  0  0  0  0  0  0  0  0  0  0
    2.8441    0.2161   -2.1469 N   0  0  0  0  0  0  0  0  0  0  0  0
   -1.8191    0.3279   -0.8633 N   0  0  0  0  0  0  0  0  0  0  0  0
  1  6  1  0  0  0  0
  2  1  1  0  0  0  0
  2  3  2  0  0  0  0
  3  4  1  0  0  0  0
  4  5  2  0  0  0  0
  4 12  1  0  0  0  0
  5  8  1  0  0  0  0
  6  7  2  0  0  0  0
  6  5  1  0  0  0  0
  8 11  2  0  0  0  0
  8  9  1  0  0  0  0
 10  9  1  0  0  0  0
 12 11  1  0  0  0  0
 13  2  1  0  0  0  0
M  END
>  <CHROM.1>
173.35283336,-79.02998625,1.31425131,1.57828135,-2.80459555,2.60681387,-0.22562658
2.46058958

>  <Name>
lig.pdb

>  <RI>
1.77584e+07

>  <Rbt.Current_Directory>
/home/itssahil/PROJECTS/Mol_Feturizer/New_Systems/rnas/2l1v

>  <Rbt.Executable>
rbdock ($Id: //depot/dev/client3/rdock/2013.1/src/exe/rbdock.cxx#4 $)

>  <Rbt.Library>
libRbt.so (2013.1, Build901 2013/11/27)

>  <Rbt.Parameter_File>
/export/apps/rDock/src/rDock_2013.1_src/data/scripts/dock_solv.prm

>  <Rbt.Receptor>
prm/blind_docking_80.prm

>  <SCORE>
-43.7037

>  <SCORE.INTER>
-45.0383

>  <SCORE.INTER.CONST>
1

>  <SCORE.INTER.POLAR>
-3.87238

>  <SCORE.INTER.ROT>
2

>  <SCORE.INTER.SOLV>
16.2076

>  <SCORE.INTER.VDW>
-27.4535

>  <SCORE.INTER.norm>
-3.46448

>  <SCORE.INTRA>
1.33456

>  <SCORE.INTRA.DIHEDRAL>
0.13879

>  <SCORE.INTRA.DIHEDRAL.0>
1.43995

>  <SCORE.INTRA.POLAR>
0.272593

>  <SCORE.INTRA.POLAR.0>
-0.272593

>  <SCORE.INTRA.REPUL>
0

>  <SCORE.INTRA.REPUL.0>
0

>  <SCORE.INTRA.SOLV>
-0.497565

>  <SCORE.INTRA.SOLV.lig_0>
-22.6728

>  <SCORE.INTRA.VDW>
0.587135

>  <SCORE.INTRA.VDW.0>
-0.754459

>  <SCORE.INTRA.norm>
0.102659

>  <SCORE.RESTR>
0

>  <SCORE.RESTR.CAVITY>
0

>  <SCORE.RESTR.norm>
0

>  <SCORE.SYSTEM>
0

>  <SCORE.SYSTEM.CONST>
0

>  <SCORE.SYSTEM.DIHEDRAL>
0

>  <SCORE.SYSTEM.SOLV>
0

>  <SCORE.SYSTEM.norm>
0

>  <SCORE.heavy>
13

>  <SCORE.norm>
-3.36183

>  <RMSD>
4.198

$$$$
lig.pdb
 OpenBabel11021811453D
libRbt.so/2013.1/901 2013/11/27
 13 14  0  0  0  0  0  0  0  0999 V2000
   -0.8652    1.8881   -2.3837 N   0  0  0  0  0  0  0  0  0  0  0  0
   -0.7340    0.8047   -1.5500 C   0  0  0  0  0  0  0  0  0  0  0  0
    0.4418    0.2005   -1.4178 N   0  0  0  0  0  0  0  0  0  0  0  0
    1.5490    0.6330   -2.0971 C   0  0  0  0  0  0  0  0  0  0  0  0
    1.4555    1.7426   -2.9753 C   0  0  0  0  0  0  0  0  0  0  0  0
    0.1888    2.3807   -3.1025 C   0  0  0  0  0  0  0  0  0  0  0  0
    0.0391    3.3441   -3.8320 O   0  0  0  0  0  0  0  0  0  0  0  0
    2.7829    1.9276   -3.5614 C   0  0  0  0  0  0  0  0  0  0  0  0
    3.1806    2.9391   -4.6021 C   0  0  0  0  0  0  0  0  0  0  0  0
    4.6408    2.9288   -4.7665 N   0  0  0  0  0  0  0  0  0  0  0  0
    3.5672    0.9965   -3.0038 C   0  0  0  0  0  0  0  0  0  0  0  0
    2.8410    0.2183   -2.1418 N   0  0  0  0  0  0  0  0  0  0  0  0
   -1.8181    0.3513   -0.8455 N   0  0  0  0  0  0  0  0  0  0  0  0
  1  6  1  0  0  0  0
  2  1  1  0  0  0  0
  2  3  2  0  0  0  0
  3  4  1  0  0  0  0
  4  5  2  0  0  0  0
  4 12  1  0  0  0  0
  5  8  1  0  0  0  0
  6  7  2  0  0  0  0
  6  5  1  0  0  0  0
  8 11  2  0  0  0  0
  8  9  1  0  0  0  0
 10  9  1  0  0  0  0
 12 11  1  0  0  0  0
 13  2  1  0  0  0  0
M  END
>  <CHROM.1>
171.39578725,106.01876149,1.31410571,1.58480430,-2.79854949,2.60763205,-0.22704163
2.45785462

>  <Name>
lig.pdb

>  <RI>
1.77584e+07

>  <Rbt.Current_Directory>
/home/itssahil/PROJECTS/Mol_Feturizer/New_Systems/rnas/2l1v

>  <Rbt.Executable>
rbdock ($Id: //depot/dev/client3/rdock/2013.1/src/exe/rbdock.cxx#4 $)

>  <Rbt.Library>
libRbt.so (2013.1, Build901 2013/11/27)

>  <Rbt.Parameter_File>
/export/apps/rDock/src/rDock_2013.1_src/data/scripts/dock_solv.prm

>  <Rbt.Receptor>
prm/blind_docking_80.prm

>  <SCORE>
-43.7221

>  <SCORE.INTER>
-45.0279

>  <SCORE.INTER.CONST>
1

>  <SCORE.INTER.POLAR>
-3.94297

>  <SCORE.INTER.ROT>
2

>  <SCORE.INTER.SOLV>
16.1949

>  <SCORE.INTER.VDW>
-27.2069

>  <SCORE.INTER.norm>
-3.46368

>  <SCORE.INTRA>
1.30571

>  <SCORE.INTRA.DIHEDRAL>
0.0922584

>  <SCORE.INTRA.DIHEDRAL.0>
1.43995

>  <SCORE.INTRA.POLAR>
0.272593

>  <SCORE.INTRA.POLAR.0>
-0.272593

>  <SCORE.INTRA.REPUL>
0

>  <SCORE.INTRA.REPUL.0>
0

>  <SCORE.INTRA.SOLV>
-0.497018

>  <SCORE.INTRA.SOLV.lig_0>
-22.6728

>  <SCORE.INTRA.VDW>
0.581277

>  <SCORE.INTRA.VDW.0>
-0.754459

>  <SCORE.INTRA.norm>
0.100439

>  <SCORE.RESTR>
0

>  <SCORE.RESTR.CAVITY>
0

>  <SCORE.RESTR.norm>
0

>  <SCORE.SYSTEM>
0

>  <SCORE.SYSTEM.CONST>
0

>  <SCORE.SYSTEM.DIHEDRAL>
0

>  <SCORE.SYSTEM.SOLV>
0

>  <SCORE.SYSTEM.norm>
0

>  <SCORE.heavy>
13

>  <SCORE.norm>
-3.36324

>  <RMSD>
4.199

$$$$
lig.pdb
 OpenBabel11021811453D
libRbt.so/2013.1/901 2013/11/27
 13 14  0  0  0  0  0  0  0  0999 V2000
   -0.9079    1.8941   -2.4191 N   0  0  0  0  0  0  0  0  0  0  0  0
   -0.7868    0.8054   -1.5907 C   0  0  0  0  0  0  0  0  0  0  0  0
    0.3876    0.2011   -1.4472 N   0  0  0  0  0  0  0  0  0  0  0  0
    1.5033    0.6387   -2.1092 C   0  0  0  0  0  0  0  0  0  0  0  0
    1.4204    1.7539   -2.9814 C   0  0  0  0  0  0  0  0  0  0  0  0
    0.1551    2.3920   -3.1209 C   0  0  0  0  0  0  0  0  0  0  0  0
    0.0142    3.3601   -3.8460 O   0  0  0  0  0  0  0  0  0  0  0  0
    2.7552    1.9435   -3.5489 C   0  0  0  0  0  0  0  0  0  0  0  0
    3.1657    2.9619   -4.5778 C   0  0  0  0  0  0  0  0  0  0  0  0
    4.6236    2.9209   -4.7574 N   0  0  0  0  0  0  0  0  0  0  0  0
    3.5329    1.0093   -2.9872 C   0  0  0  0  0  0  0  0  0  0  0  0
    2.7960    0.2250   -2.1398 N   0  0  0  0  0  0  0  0  0  0  0  0
   -1.8796    0.3468   -0.9034 N   0  0  0  0  0  0  0  0  0  0  0  0
  1  6  1  0  0  0  0
  2  1  1  0  0  0  0
  2  3  2  0  0  0  0
  3  4  1  0  0  0  0
  4  5  2  0  0  0  0
  4 12  1  0  0  0  0
  5  8  1  0  0  0  0
  6  7  2  0  0  0  0
  6  5  1  0  0  0  0
  8 11  2  0  0  0  0
  8  9  1  0  0  0  0
 10  9  1  0  0  0  0
 12 11  1  0  0  0  0
 13  2  1  0  0  0  0
M  END
>  <CHROM.1>
173.35946419,102.91922957,1.27644118,1.59180990,-2.81065164,2.61575346,-0.21932910
2.46383985

>  <Name>
lig.pdb

>  <RI>
4.17264e+07

>  <Rbt.Current_Directory>
/home/itssahil/PROJECTS/Mol_Feturizer/New_Systems/rnas/2l1v

>  <Rbt.Executable>
rbdock ($Id: //depot/dev/client3/rdock/2013.1/src/exe/rbdock.cxx#4 $)

>  <Rbt.Library>
libRbt.so (2013.1, Build901 2013/11/27)

>  <Rbt.Parameter_File>
/export/apps/rDock/src/rDock_2013.1_src/data/scripts/dock_solv.prm

>  <Rbt.Receptor>
prm/blind_docking_20.prm

>  <SCORE>
-43.6181

>  <SCORE.INTER>
-44.9139

>  <SCORE.INTER.CONST>
1

>  <SCORE.INTER.POLAR>
-3.92411

>  <SCORE.INTER.ROT>
2

>  <SCORE.INTER.SOLV>
16.4027

>  <SCORE.INTER.VDW>
-27.2631

>  <SCORE.INTER.norm>
-3.45491

>  <SCORE.INTRA>
1.28173

>  <SCORE.INTRA.DIHEDRAL>
0.0357722

>  <SCORE.INTRA.DIHEDRAL.0>
1.43995

>  <SCORE.INTRA.POLAR>
0.272593

>  <SCORE.INTRA.POLAR.0>
-0.272593

>  <SCORE.INTRA.REPUL>
0

>  <SCORE.INTRA.REPUL.0>
0

>  <SCORE.INTRA.SOLV>
-0.495963

>  <SCORE.INTRA.SOLV.lig_0>
-22.6728

>  <SCORE.INTRA.VDW>
0.585009

>  <SCORE.INTRA.VDW.0>
-0.754459

>  <SCORE.INTRA.norm>
0.0985945

>  <SCORE.RESTR>
0.0140867

>  <SCORE.RESTR.CAVITY>
0.0140867

>  <SCORE.RESTR.norm>
0.00108359

>  <SCORE.SYSTEM>
0

>  <SCORE.SYSTEM.CONST>
0

>  <SCORE.SYSTEM.DIHEDRAL>
0

>  <SCORE.SYSTEM.SOLV>
0

>  <SCORE.SYSTEM.norm>
0

>  <SCORE.heavy>
13

>  <SCORE.norm>
-3.35524

>  <RMSD>
4.201

$$$$
lig.pdb
 OpenBabel11021811453D
libRbt.so/2013.1/901 2013/11/27
 13 14  0  0  0  0  0  0  0  0999 V2000
   -0.9019    1.8927   -2.3974 N   0  0  0  0  0  0  0  0  0  0  0  0
   -0.7759    0.8108   -1.5608 C   0  0  0  0  0  0  0  0  0  0  0  0
    0.3985    0.2057   -1.4213 N   0  0  0  0  0  0  0  0  0  0  0  0
    1.5096    0.6358   -2.0958 C   0  0  0  0  0  0  0  0  0  0  0  0
    1.4217    1.7437   -2.9768 C   0  0  0  0  0  0  0  0  0  0  0  0
    0.1564    2.3828   -3.1117 C   0  0  0  0  0  0  0  0  0  0  0  0
    0.0114    3.3449   -3.8439 O   0  0  0  0  0  0  0  0  0  0  0  0
    2.7523    1.9261   -3.5564 C   0  0  0  0  0  0  0  0  0  0  0  0
    3.1563    2.9351   -4.5971 C   0  0  0  0  0  0  0  0  0  0  0  0
    4.6144    2.9006   -4.7770 N   0  0  0  0  0  0  0  0  0  0  0  0
    3.5328    0.9954   -2.9929 C   0  0  0  0  0  0  0  0  0  0  0  0
    2.8014    0.2196   -2.1331 N   0  0  0  0  0  0  0  0  0  0  0  0
   -1.8641    0.3600   -0.8609 N   0  0  0  0  0  0  0  0  0  0  0  0
  1  6  1  0  0  0  0
  2  1  1  0  0  0  0
  2  3  2  0  0  0  0
  3  4  1  0  0  0  0
  4  5  2  0  0  0  0
  4 12  1  0  0  0  0
  5  8  1  0  0  0  0
  6  7  2  0  0  0  0
  6  5  1  0  0  0  0
  8 11  2  0  0  0  0
  8  9  1  0  0  0  0
 10  9  1  0  0  0  0
 12 11  1  0  0  0  0
 13  2  1  0  0  0  0
M  END
>  <CHROM.1>
172.72933137,102.85210961,1.27900432,1.58427656,-2.80253639,2.61195764,-0.22564975
2.45532112

>  <Name>
lig.pdb

>  <RI>
2.05237e+07

>  <Rbt.Current_Directory>
/home/itssahil/PROJECTS/Mol_Feturizer/New_Systems/rnas/2l1v

>  <Rbt.Executable>
rbdock ($Id: //depot/dev/client3/rdock/2013.1/src/exe/rbdock.cxx#4 $)

>  <Rbt.Library>
libRbt.so (2013.1, Build901 2013/11/27)

>  <Rbt.Parameter_File>
/export/apps/rDock/src/rDock_2013.1_src/data/scripts/dock_solv.prm

>  <Rbt.Receptor>
prm/blind_docking_100.prm

>  <SCORE>
-43.5947

>  <SCORE.INTER>
-44.8857

>  <SCORE.INTER.CONST>
1

>  <SCORE.INTER.POLAR>
-3.88893

>  <SCORE.INTER.ROT>
2

>  <SCORE.INTER.SOLV>
16.2983

>  <SCORE.INTER.VDW>
-27.3268

>  <SCORE.INTER.norm>
-3.45275

>  <SCORE.INTRA>
1.28677

>  <SCORE.INTRA.DIHEDRAL>
0.0500936

>  <SCORE.INTRA.DIHEDRAL.0>
1.43995

>  <SCORE.INTRA.POLAR>
0.272593

>  <SCORE.INTRA.POLAR.0>
-0.272593

>  <SCORE.INTRA.REPUL>
0

>  <SCORE.INTRA.REPUL.0>
0

>  <SCORE.INTRA.SOLV>
-0.496312

>  <SCORE.INTRA.SOLV.lig_0>
-22.6728

>  <SCORE.INTRA.VDW>
0.583061

>  <SCORE.INTRA.VDW.0>
-0.754459

>  <SCORE.INTRA.norm>
0.098982

>  <SCORE.RESTR>
0.0042113

>  <SCORE.RESTR.CAVITY>
0.0042113

>  <SCORE.RESTR.norm>
0.000323946

>  <SCORE.SYSTEM>
0

>  <SCORE.SYSTEM.CONST>
0

>  <SCORE.SYSTEM.DIHEDRAL>
0

>  <SCORE.SYSTEM.SOLV>
0

>  <SCORE.SYSTEM.norm>
0

>  <SCORE.heavy>
13

>  <SCORE.norm>
-3.35344

>  <RMSD>
4.202

$$$$
lig.pdb
 OpenBabel11021811453D
libRbt.so/2013.1/901 2013/11/27
 13 14  0  0  0  0  0  0  0  0999 V2000
   -0.8883    1.8707   -2.3806 N   0  0  0  0  0  0  0  0  0  0  0  0
   -0.7546    0.7927   -1.5403 C   0  0  0  0  0  0  0  0  0  0  0  0
    0.4243    0.1967   -1.3986 N   0  0  0  0  0  0  0  0  0  0  0  0
    1.5323    0.6326   -2.0744 C   0  0  0  0  0  0  0  0  0  0  0  0
    1.4363    1.7368   -2.9592 C   0  0  0  0  0  0  0  0  0  0  0  0
    0.1664    2.3661   -3.0965 C   0  0  0  0  0  0  0  0  0  0  0  0
    0.0145    3.3246   -3.8320 O   0  0  0  0  0  0  0  0  0  0  0  0
    2.7657    1.9270   -3.5393 C   0  0  0  0  0  0  0  0  0  0  0  0
    3.1624    2.9354   -4.5834 C   0  0  0  0  0  0  0  0  0  0  0  0
    4.6206    2.9104   -4.7634 N   0  0  0  0  0  0  0  0  0  0  0  0
    3.5529    1.0039   -2.9725 C   0  0  0  0  0  0  0  0  0  0  0  0
    2.8271    0.2258   -2.1101 N   0  0  0  0  0  0  0  0  0  0  0  0
   -1.8395    0.3362   -0.8391 N   0  0  0  0  0  0  0  0  0  0  0  0
  1  6  1  0  0  0  0
  2  1  1  0  0  0  0
  2  3  2  0  0  0  0
  3  4  1  0  0  0  0
  4  5  2  0  0  0  0
  4 12  1  0  0  0  0
  5  8  1  0  0  0  0
  6  7  2  0  0  0  0
  6  5  1  0  0  0  0
  8 11  2  0  0  0  0
  8  9  1  0  0  0  0
 10  9  1  0  0  0  0
 12 11  1  0  0  0  0
 13  2  1  0  0  0  0
M  END
>  <CHROM.1>
172.76056723,-74.50045357,1.29476321,1.57719480,-2.78465149,2.60576360,-0.22079965
2.45044751

>  <Name>
lig.pdb

>  <RI>
2.05237e+07

>  <Rbt.Current_Directory>
/home/itssahil/PROJECTS/Mol_Feturizer/New_Systems/rnas/2l1v

>  <Rbt.Executable>
rbdock ($Id: //depot/dev/client3/rdock/2013.1/src/exe/rbdock.cxx#4 $)

>  <Rbt.Library>
libRbt.so (2013.1, Build901 2013/11/27)

>  <Rbt.Parameter_File>
/export/apps/rDock/src/rDock_2013.1_src/data/scripts/dock_solv.prm

>  <Rbt.Receptor>
prm/blind_docking_100.prm

>  <SCORE>
-43.7067

>  <SCORE.INTER>
-45.0539

>  <SCORE.INTER.CONST>
1

>  <SCORE.INTER.POLAR>
-3.92471

>  <SCORE.INTER.ROT>
2

>  <SCORE.INTER.SOLV>
16.1332

>  <SCORE.INTER.VDW>
-27.2647

>  <SCORE.INTER.norm>
-3.46569

>  <SCORE.INTRA>
1.33685

>  <SCORE.INTRA.DIHEDRAL>
0.141708

>  <SCORE.INTRA.DIHEDRAL.0>
1.43995

>  <SCORE.INTRA.POLAR>
0.272593

>  <SCORE.INTRA.POLAR.0>
-0.272593

>  <SCORE.INTRA.REPUL>
0

>  <SCORE.INTRA.REPUL.0>
0

>  <SCORE.INTRA.SOLV>
-0.497752

>  <SCORE.INTRA.SOLV.lig_0>
-22.6728

>  <SCORE.INTRA.VDW>
0.588056

>  <SCORE.INTRA.VDW.0>
-0.754459

>  <SCORE.INTRA.norm>
0.102835

>  <SCORE.RESTR>
0.0103908

>  <SCORE.RESTR.CAVITY>
0.0103908

>  <SCORE.RESTR.norm>
0.000799289

>  <SCORE.SYSTEM>
0

>  <SCORE.SYSTEM.CONST>
0

>  <SCORE.SYSTEM.DIHEDRAL>
0

>  <SCORE.SYSTEM.SOLV>
0

>  <SCORE.SYSTEM.norm>
0

>  <SCORE.heavy>
13

>  <SCORE.norm>
-3.36205

>  <RMSD>
4.204

$$$$
lig.pdb
 OpenBabel11021811453D
libRbt.so/2013.1/901 2013/11/27
 13 14  0  0  0  0  0  0  0  0999 V2000
   -0.8996    1.8700   -2.3968 N   0  0  0  0  0  0  0  0  0  0  0  0
   -0.7646    0.8066   -1.5383 C   0  0  0  0  0  0  0  0  0  0  0  0
    0.4159    0.2170   -1.3836 N   0  0  0  0  0  0  0  0  0  0  0  0
    1.5242    0.6453   -2.0636 C   0  0  0  0  0  0  0  0  0  0  0  0
    1.4270    1.7343   -2.9669 C   0  0  0  0  0  0  0  0  0  0  0  0
    0.1554    2.3570   -3.1181 C   0  0  0  0  0  0  0  0  0  0  0  0
    0.0022    3.3026   -3.8698 O   0  0  0  0  0  0  0  0  0  0  0  0
    2.7572    1.9193   -3.5466 C   0  0  0  0  0  0  0  0  0  0  0  0
    3.1534    2.9115   -4.6063 C   0  0  0  0  0  0  0  0  0  0  0  0
    4.6145    2.9072   -4.7638 N   0  0  0  0  0  0  0  0  0  0  0  0
    3.5460    1.0085   -2.9625 C   0  0  0  0  0  0  0  0  0  0  0  0
    2.8205    0.2424   -2.0892 N   0  0  0  0  0  0  0  0  0  0  0  0
   -1.8499    0.3582   -0.8324 N   0  0  0  0  0  0  0  0  0  0  0  0
  1  6  1  0  0  0  0
  2  1  1  0  0  0  0
  2  3  2  0  0  0  0
  3  4  1  0  0  0  0
  4  5  2  0  0  0  0
  4 12  1  0  0  0  0
  5  8  1  0  0  0  0
  6  7  2  0  0  0  0
  6  5  1  0  0  0  0
  8 11  2  0  0  0  0
  8  9  1  0  0  0  0
 10  9  1  0  0  0  0
 12 11  1  0  0  0  0
 13  2  1  0  0  0  0
M  END
>  <CHROM.1>
171.67424924,-71.51068274,1.28570727,1.57893013,-2.78841731,2.60470595,-0.21500610
2.43477086

>  <Name>
lig.pdb

>  <RI>
4.15415e+07

>  <Rbt.Current_Directory>
/home/itssahil/PROJECTS/Mol_Feturizer/New_Systems/rnas/2l1v

>  <Rbt.Executable>
rbdock ($Id: //depot/dev/client3/rdock/2013.1/src/exe/rbdock.cxx#4 $)

>  <Rbt.Library>
libRbt.so (2013.1, Build901 2013/11/27)

>  <Rbt.Parameter_File>
/export/apps/rDock/src/rDock_2013.1_src/data/scripts/dock_solv.prm

>  <Rbt.Receptor>
prm/blind_docking_60.prm

>  <SCORE>
-43.6852

>  <SCORE.INTER>
-45.0448

>  <SCORE.INTER.CONST>
1

>  <SCORE.INTER.POLAR>
-3.9797

>  <SCORE.INTER.ROT>
2

>  <SCORE.INTER.SOLV>
16.1355

>  <SCORE.INTER.VDW>
-27.076

>  <SCORE.INTER.norm>
-3.46498

>  <SCORE.INTRA>
1.3451

>  <SCORE.INTRA.DIHEDRAL>
0.160721

>  <SCORE.INTRA.DIHEDRAL.0>
1.43995

>  <SCORE.INTRA.POLAR>
0.272593

>  <SCORE.INTRA.POLAR.0>
-0.272593

>  <SCORE.INTRA.REPUL>
0

>  <SCORE.INTRA.REPUL.0>
0

>  <SCORE.INTRA.SOLV>
-0.498278

>  <SCORE.INTRA.SOLV.lig_0>
-22.6728

>  <SCORE.INTRA.VDW>
0.587066

>  <SCORE.INTRA.VDW.0>
-0.754459

>  <SCORE.INTRA.norm>
0.103469

>  <SCORE.RESTR>
0.0144567

>  <SCORE.RESTR.CAVITY>
0.0144567

>  <SCORE.RESTR.norm>
0.00111206

>  <SCORE.SYSTEM>
0

>  <SCORE.SYSTEM.CONST>
0

>  <SCORE.SYSTEM.DIHEDRAL>
0

>  <SCORE.SYSTEM.SOLV>
0

>  <SCORE.SYSTEM.norm>
0

>  <SCORE.heavy>
13

>  <SCORE.norm>
-3.3604

>  <RMSD>
4.204

$$$$
lig.pdb
 OpenBabel11021811453D
libRbt.so/2013.1/901 2013/11/27
 13 14  0  0  0  0  0  0  0  0999 V2000
   -0.9175    1.8881   -2.4072 N   0  0  0  0  0  0  0  0  0  0  0  0
   -0.7943    0.8080   -1.5679 C   0  0  0  0  0  0  0  0  0  0  0  0
    0.3812    0.2072   -1.4185 N   0  0  0  0  0  0  0  0  0  0  0  0
    1.4959    0.6400   -2.0852 C   0  0  0  0  0  0  0  0  0  0  0  0
    1.4108    1.7461   -2.9687 C   0  0  0  0  0  0  0  0  0  0  0  0
    0.1444    2.3806   -3.1143 C   0  0  0  0  0  0  0  0  0  0  0  0
    0.0017    3.3410   -3.8492 O   0  0  0  0  0  0  0  0  0  0  0  0
    2.7452    1.9322   -3.5385 C   0  0  0  0  0  0  0  0  0  0  0  0
    3.1536    2.9409   -4.5778 C   0  0  0  0  0  0  0  0  0  0  0  0
    4.6132    2.9115   -4.7460 N   0  0  0  0  0  0  0  0  0  0  0  0
    3.5246    1.0051   -2.9675 C   0  0  0  0  0  0  0  0  0  0  0  0
    2.7893    0.2282   -2.1120 N   0  0  0  0  0  0  0  0  0  0  0  0
   -1.8862    0.3545   -0.8756 N   0  0  0  0  0  0  0  0  0  0  0  0
  1  6  1  0  0  0  0
  2  1  1  0  0  0  0
  2  3  2  0  0  0  0
  3  4  1  0  0  0  0
  4  5  2  0  0  0  0
  4 12  1  0  0  0  0
  5  8  1  0  0  0  0
  6  7  2  0  0  0  0
  6  5  1  0  0  0  0
  8 11  2  0  0  0  0
  8  9  1  0  0  0  0
 10  9  1  0  0  0  0
 12 11  1  0  0  0  0
 13  2  1  0  0  0  0
M  END
>  <CHROM.1>
172.70350544,104.11047849,1.26738806,1.58654503,-2.79523190,2.61413741,-0.21751070
2.45409835

>  <Name>
lig.pdb

>  <RI>
2.50021e+07

>  <Rbt.Current_Directory>
/home/itssahil/PROJECTS/Mol_Feturizer/New_Systems/rnas/2l1v

>  <Rbt.Executable>
rbdock ($Id: //depot/dev/client3/rdock/2013.1/src/exe/rbdock.cxx#4 $)

>  <Rbt.Library>
libRbt.so (2013.1, Build901 2013/11/27)

>  <Rbt.Parameter_File>
/export/apps/rDock/src/rDock_2013.1_src/data/scripts/dock_solv.prm

>  <Rbt.Receptor>
prm/pocket_docking_5.prm

>  <SCORE>
-43.5916

>  <SCORE.INTER>
-44.8841

>  <SCORE.INTER.CONST>
1

>  <SCORE.INTER.POLAR>
-3.94996

>  <SCORE.INTER.ROT>
2

>  <SCORE.INTER.SOLV>
16.3148

>  <SCORE.INTER.VDW>
-27.1278

>  <SCORE.INTER.norm>
-3.45262

>  <SCORE.INTRA>
1.28949

>  <SCORE.INTRA.DIHEDRAL>
0.0537215

>  <SCORE.INTRA.DIHEDRAL.0>
1.43995

>  <SCORE.INTRA.POLAR>
0.272593

>  <SCORE.INTRA.POLAR.0>
-0.272593

>  <SCORE.INTRA.REPUL>
0

>  <SCORE.INTRA.REPUL.0>
0

>  <SCORE.INTRA.SOLV>
-0.496293

>  <SCORE.INTRA.SOLV.lig_0>
-22.6728

>  <SCORE.INTRA.VDW>
0.583959

>  <SCORE.INTRA.VDW.0>
-0.754459

>  <SCORE.INTRA.norm>
0.0991914

>  <SCORE.RESTR>
0.00300422

>  <SCORE.RESTR.CAVITY>
0.00300422

>  <SCORE.RESTR.norm>
0.000231094

>  <SCORE.SYSTEM>
0

>  <SCORE.SYSTEM.CONST>
0

>  <SCORE.SYSTEM.DIHEDRAL>
0

>  <SCORE.SYSTEM.SOLV>
0

>  <SCORE.SYSTEM.norm>
0

>  <SCORE.heavy>
13

>  <SCORE.norm>
-3.3532

>  <RMSD>
4.204

$$$$
lig.pdb
 OpenBabel11021811453D
libRbt.so/2013.1/901 2013/11/27
 13 14  0  0  0  0  0  0  0  0999 V2000
   -0.8994    1.8845   -2.3952 N   0  0  0  0  0  0  0  0  0  0  0  0
   -0.7691    0.8135   -1.5455 C   0  0  0  0  0  0  0  0  0  0  0  0
    0.4087    0.2174   -1.3956 N   0  0  0  0  0  0  0  0  0  0  0  0
    1.5190    0.6464   -2.0720 C   0  0  0  0  0  0  0  0  0  0  0  0
    1.4267    1.7431   -2.9664 C   0  0  0  0  0  0  0  0  0  0  0  0
    0.1578    2.3726   -3.1125 C   0  0  0  0  0  0  0  0  0  0  0  0
    0.0089    3.3250   -3.8565 O   0  0  0  0  0  0  0  0  0  0  0  0
    2.7578    1.9270   -3.5444 C   0  0  0  0  0  0  0  0  0  0  0  0
    3.1584    2.9260   -4.5960 C   0  0  0  0  0  0  0  0  0  0  0  0
    4.6188    2.9111   -4.7588 N   0  0  0  0  0  0  0  0  0  0  0  0
    3.5425    1.0079   -2.9677 C   0  0  0  0  0  0  0  0  0  0  0  0
    2.8134    0.2379   -2.1008 N   0  0  0  0  0  0  0  0  0  0  0  0
   -1.8565    0.3641   -0.8433 N   0  0  0  0  0  0  0  0  0  0  0  0
  1  6  1  0  0  0  0
  2  1  1  0  0  0  0
  2  3  2  0  0  0  0
  3  4  1  0  0  0  0
  4  5  2  0  0  0  0
  4 12  1  0  0  0  0
  5  8  1  0  0  0  0
  6  7  2  0  0  0  0
  6  5  1  0  0  0  0
  8 11  2  0  0  0  0
  8  9  1  0  0  0  0
 10  9  1  0  0  0  0
 12 11  1  0  0  0  0
 13  2  1  0  0  0  0
M  END
>  <CHROM.1>
171.98725188,-72.09335019,1.28461094,1.58640770,-2.78965203,2.60826218,-0.21826550
2.44333023

>  <Name>
lig.pdb

>  <RI>
2.7104e+07

>  <Rbt.Current_Directory>
/home/itssahil/PROJECTS/Mol_Feturizer/New_Systems/rnas/2l1v

>  <Rbt.Executable>
rbdock ($Id: //depot/dev/client3/rdock/2013.1/src/exe/rbdock.cxx#4 $)

>  <Rbt.Library>
libRbt.so (2013.1, Build901 2013/11/27)

>  <Rbt.Parameter_File>
/export/apps/rDock/src/rDock_2013.1_src/data/scripts/dock_solv.prm

>  <Rbt.Receptor>
prm/pocket_docking_8.prm

>  <SCORE>
-43.6761

>  <SCORE.INTER>
-45.0271

>  <SCORE.INTER.CONST>
1

>  <SCORE.INTER.POLAR>
-3.97034

>  <SCORE.INTER.ROT>
2

>  <SCORE.INTER.SOLV>
16.1992

>  <SCORE.INTER.VDW>
-27.1167

>  <SCORE.INTER.norm>
-3.46363

>  <SCORE.INTRA>
1.34245

>  <SCORE.INTRA.DIHEDRAL>
0.154205

>  <SCORE.INTRA.DIHEDRAL.0>
1.43995

>  <SCORE.INTRA.POLAR>
0.272593

>  <SCORE.INTRA.POLAR.0>
-0.272593

>  <SCORE.INTRA.REPUL>
0

>  <SCORE.INTRA.REPUL.0>
0

>  <SCORE.INTRA.SOLV>
-0.498111

>  <SCORE.INTRA.SOLV.lig_0>
-22.6728

>  <SCORE.INTRA.VDW>
0.587584

>  <SCORE.INTRA.VDW.0>
-0.754459

>  <SCORE.INTRA.norm>
0.103265

>  <SCORE.RESTR>
0.00862456

>  <SCORE.RESTR.CAVITY>
0.00862456

>  <SCORE.RESTR.norm>
0.000663427

>  <SCORE.SYSTEM>
0

>  <SCORE.SYSTEM.CONST>
0

>  <SCORE.SYSTEM.DIHEDRAL>
0

>  <SCORE.SYSTEM.SOLV>
0

>  <SCORE.SYSTEM.norm>
0

>  <SCORE.heavy>
13

>  <SCORE.norm>
-3.3597

>  <RMSD>
4.204

$$$$
lig.pdb
 OpenBabel11021811453D
libRbt.so/2013.1/901 2013/11/27
 13 14  0  0  0  0  0  0  0  0999 V2000
   -0.8864    1.8619   -2.3736 N   0  0  0  0  0  0  0  0  0  0  0  0
   -0.7486    0.7878   -1.5290 C   0  0  0  0  0  0  0  0  0  0  0  0
    0.4330    0.1979   -1.3837 N   0  0  0  0  0  0  0  0  0  0  0  0
    1.5397    0.6365   -2.0599 C   0  0  0  0  0  0  0  0  0  0  0  0
    1.4396    1.7368   -2.9490 C   0  0  0  0  0  0  0  0  0  0  0  0
    0.1668    2.3596   -3.0902 C   0  0  0  0  0  0  0  0  0  0  0  0
    0.0112    3.3145   -3.8296 O   0  0  0  0  0  0  0  0  0  0  0  0
    2.7686    1.9311   -3.5282 C   0  0  0  0  0  0  0  0  0  0  0  0
    3.1618    2.9374   -4.5758 C   0  0  0  0  0  0  0  0  0  0  0  0
    4.6199    2.9151   -4.7576 N   0  0  0  0  0  0  0  0  0  0  0  0
    3.5596    1.0140   -2.9570 C   0  0  0  0  0  0  0  0  0  0  0  0
    2.8365    0.2358   -2.0925 N   0  0  0  0  0  0  0  0  0  0  0  0
   -1.8321    0.3288   -0.8273 N   0  0  0  0  0  0  0  0  0  0  0  0
  1  6  1  0  0  0  0
  2  1  1  0  0  0  0
  2  3  2  0  0  0  0
  3  4  1  0  0  0  0
  4  5  2  0  0  0  0
  4 12  1  0  0  0  0
  5  8  1  0  0  0  0
  6  7  2  0  0  0  0
  6  5  1  0  0  0  0
  8 11  2  0  0  0  0
  8  9  1  0  0  0  0
 10  9  1  0  0  0  0
 12 11  1  0  0  0  0
 13  2  1  0  0  0  0
M  END
>  <CHROM.1>
172.97037081,103.47842670,1.29851247,1.57659603,-2.77416350,2.60325790,-0.21723724
2.44577648

>  <Name>
lig.pdb

>  <RI>
4.17264e+07

>  <Rbt.Current_Directory>
/home/itssahil/PROJECTS/Mol_Feturizer/New_Systems/rnas/2l1v

>  <Rbt.Executable>
rbdock ($Id: //depot/dev/client3/rdock/2013.1/src/exe/rbdock.cxx#4 $)

>  <Rbt.Library>
libRbt.so (2013.1, Build901 2013/11/27)

>  <Rbt.Parameter_File>
/export/apps/rDock/src/rDock_2013.1_src/data/scripts/dock_solv.prm

>  <Rbt.Receptor>
prm/blind_docking_20.prm

>  <SCORE>
-43.6222

>  <SCORE.INTER>
-44.9182

>  <SCORE.INTER.CONST>
1

>  <SCORE.INTER.POLAR>
-3.91269

>  <SCORE.INTER.ROT>
2

>  <SCORE.INTER.SOLV>
16.0537

>  <SCORE.INTER.VDW>
-27.1877

>  <SCORE.INTER.norm>
-3.45525

>  <SCORE.INTRA>
1.28596

>  <SCORE.INTRA.DIHEDRAL>
0.0458991

>  <SCORE.INTRA.DIHEDRAL.0>
1.43995

>  <SCORE.INTRA.POLAR>
0.272593

>  <SCORE.INTRA.POLAR.0>
-0.272593

>  <SCORE.INTRA.REPUL>
0

>  <SCORE.INTRA.REPUL.0>
0

>  <SCORE.INTRA.SOLV>
-0.496161

>  <SCORE.INTRA.SOLV.lig_0>
-22.6728

>  <SCORE.INTRA.VDW>
0.584275

>  <SCORE.INTRA.VDW.0>
-0.754459

>  <SCORE.INTRA.norm>
0.0989199

>  <SCORE.RESTR>
0.00999962

>  <SCORE.RESTR.CAVITY>
0.00999962

>  <SCORE.RESTR.norm>
0.000769202

>  <SCORE.SYSTEM>
0

>  <SCORE.SYSTEM.CONST>
0

>  <SCORE.SYSTEM.DIHEDRAL>
0

>  <SCORE.SYSTEM.SOLV>
0

>  <SCORE.SYSTEM.norm>
0

>  <SCORE.heavy>
13

>  <SCORE.norm>
-3.35556

>  <RMSD>
4.205

$$$$
lig.pdb
 OpenBabel11021811453D
libRbt.so/2013.1/901 2013/11/27
 13 14  0  0  0  0  0  0  0  0999 V2000
   -0.9214    1.8708   -2.4011 N   0  0  0  0  0  0  0  0  0  0  0  0
   -0.7921    0.7976   -1.5539 C   0  0  0  0  0  0  0  0  0  0  0  0
    0.3864    0.2035   -1.4014 N   0  0  0  0  0  0  0  0  0  0  0  0
    1.4984    0.6368   -2.0724 C   0  0  0  0  0  0  0  0  0  0  0  0
    1.4071    1.7359   -2.9639 C   0  0  0  0  0  0  0  0  0  0  0  0
    0.1375    2.3633   -3.1129 C   0  0  0  0  0  0  0  0  0  0  0  0
   -0.0106    3.3175   -3.8546 O   0  0  0  0  0  0  0  0  0  0  0  0
    2.7400    1.9243   -3.5364 C   0  0  0  0  0  0  0  0  0  0  0  0
    3.1425    2.9273   -4.5835 C   0  0  0  0  0  0  0  0  0  0  0  0
    4.5975    2.8748   -4.7824 N   0  0  0  0  0  0  0  0  0  0  0  0
    3.5244    1.0052   -2.9595 C   0  0  0  0  0  0  0  0  0  0  0  0
    2.7938    0.2311   -2.0975 N   0  0  0  0  0  0  0  0  0  0  0  0
   -1.8811    0.3439   -0.8572 N   0  0  0  0  0  0  0  0  0  0  0  0
  1  6  1  0  0  0  0
  2  1  1  0  0  0  0
  2  3  2  0  0  0  0
  3  4  1  0  0  0  0
  4  5  2  0  0  0  0
  4 12  1  0  0  0  0
  5  8  1  0  0  0  0
  6  7  2  0  0  0  0
  6  5  1  0  0  0  0
  8 11  2  0  0  0  0
  8  9  1  0  0  0  0
 10  9  1  0  0  0  0
 12 11  1  0  0  0  0
 13  2  1  0  0  0  0
M  END
>  <CHROM.1>
174.41909667,98.77413958,1.26418343,1.57429776,-2.79185246,2.60988466,-0.21774987
2.44402819

>  <Name>
lig.pdb

>  <RI>
4.15415e+07

>  <Rbt.Current_Directory>
/home/itssahil/PROJECTS/Mol_Feturizer/New_Systems/rnas/2l1v

>  <Rbt.Executable>
rbdock ($Id: //depot/dev/client3/rdock/2013.1/src/exe/rbdock.cxx#4 $)

>  <Rbt.Library>
libRbt.so (2013.1, Build901 2013/11/27)

>  <Rbt.Parameter_File>
/export/apps/rDock/src/rDock_2013.1_src/data/scripts/dock_solv.prm

>  <Rbt.Receptor>
prm/blind_docking_60.prm

>  <SCORE>
-43.5141

>  <SCORE.INTER>
-44.7814

>  <SCORE.INTER.CONST>
1

>  <SCORE.INTER.POLAR>
-3.84095

>  <SCORE.INTER.ROT>
2

>  <SCORE.INTER.SOLV>
16.2219

>  <SCORE.INTER.VDW>
-27.3917

>  <SCORE.INTER.norm>
-3.44472

>  <SCORE.INTRA>
1.26727

>  <SCORE.INTRA.DIHEDRAL>
0.00554866

>  <SCORE.INTRA.DIHEDRAL.0>
1.43995

>  <SCORE.INTRA.POLAR>
0.272593

>  <SCORE.INTRA.POLAR.0>
-0.272593

>  <SCORE.INTRA.REPUL>
0

>  <SCORE.INTRA.REPUL.0>
0

>  <SCORE.INTRA.SOLV>
-0.495511

>  <SCORE.INTRA.SOLV.lig_0>
-22.6728

>  <SCORE.INTRA.VDW>
0.58544

>  <SCORE.INTRA.VDW.0>
-0.754459

>  <SCORE.INTRA.norm>
0.0974826

>  <SCORE.RESTR>
0

>  <SCORE.RESTR.CAVITY>
0

>  <SCORE.RESTR.norm>
0

>  <SCORE.SYSTEM>
0

>  <SCORE.SYSTEM.CONST>
0

>  <SCORE.SYSTEM.DIHEDRAL>
0

>  <SCORE.SYSTEM.SOLV>
0

>  <SCORE.SYSTEM.norm>
0

>  <SCORE.heavy>
13

>  <SCORE.norm>
-3.34724

>  <RMSD>
4.206

$$$$
lig.pdb
 OpenBabel11021811453D
libRbt.so/2013.1/901 2013/11/27
 13 14  0  0  0  0  0  0  0  0999 V2000
   -0.8935    1.8703   -2.3709 N   0  0  0  0  0  0  0  0  0  0  0  0
   -0.7563    0.8015   -1.5194 C   0  0  0  0  0  0  0  0  0  0  0  0
    0.4244    0.2106   -1.3718 N   0  0  0  0  0  0  0  0  0  0  0  0
    1.5310    0.6429   -2.0522 C   0  0  0  0  0  0  0  0  0  0  0  0
    1.4315    1.7375   -2.9485 C   0  0  0  0  0  0  0  0  0  0  0  0
    0.1596    2.3614   -3.0921 C   0  0  0  0  0  0  0  0  0  0  0  0
    0.0047    3.3117   -3.8375 O   0  0  0  0  0  0  0  0  0  0  0  0
    2.7602    1.9257   -3.5307 C   0  0  0  0  0  0  0  0  0  0  0  0
    3.1537    2.9244   -4.5854 C   0  0  0  0  0  0  0  0  0  0  0  0
    4.6114    2.8985   -4.7689 N   0  0  0  0  0  0  0  0  0  0  0  0
    3.5504    1.0111   -2.9545 C   0  0  0  0  0  0  0  0  0  0  0  0
    2.8270    0.2397   -2.0839 N   0  0  0  0  0  0  0  0  0  0  0  0
   -1.8397    0.3490   -0.8133 N   0  0  0  0  0  0  0  0  0  0  0  0
  1  6  1  0  0  0  0
  2  1  1  0  0  0  0
  2  3  2  0  0  0  0
  3  4  1  0  0  0  0
  4  5  2  0  0  0  0
  4 12  1  0  0  0  0
  5  8  1  0  0  0  0
  6  7  2  0  0  0  0
  6  5  1  0  0  0  0
  8 11  2  0  0  0  0
  8  9  1  0  0  0  0
 10  9  1  0  0  0  0
 12 11  1  0  0  0  0
 13  2  1  0  0  0  0
M  END
>  <CHROM.1>
172.96606237,102.28432802,1.29044775,1.57865167,-2.77240209,2.60374995,-0.21935495
2.43939533

>  <Name>
lig.pdb

>  <RI>
2.50021e+07

>  <Rbt.Current_Directory>
/home/itssahil/PROJECTS/Mol_Feturizer/New_Systems/rnas/2l1v

>  <Rbt.Executable>
rbdock ($Id: //depot/dev/client3/rdock/2013.1/src/exe/rbdock.cxx#4 $)

>  <Rbt.Library>
libRbt.so (2013.1, Build901 2013/11/27)

>  <Rbt.Parameter_File>
/export/apps/rDock/src/rDock_2013.1_src/data/scripts/dock_solv.prm

>  <Rbt.Receptor>
prm/pocket_docking_5.prm

>  <SCORE>
-43.5836

>  <SCORE.INTER>
-44.8683

>  <SCORE.INTER.CONST>
1

>  <SCORE.INTER.POLAR>
-3.88742

>  <SCORE.INTER.ROT>
2

>  <SCORE.INTER.SOLV>
16.0569

>  <SCORE.INTER.VDW>
-27.2398

>  <SCORE.INTER.norm>
-3.45141

>  <SCORE.INTRA>
1.28372

>  <SCORE.INTRA.DIHEDRAL>
0.0432372

>  <SCORE.INTRA.DIHEDRAL.0>
1.43995

>  <SCORE.INTRA.POLAR>
0.272593

>  <SCORE.INTRA.POLAR.0>
-0.272593

>  <SCORE.INTRA.REPUL>
0

>  <SCORE.INTRA.REPUL.0>
0

>  <SCORE.INTRA.SOLV>
-0.496194

>  <SCORE.INTRA.SOLV.lig_0>
-22.6728

>  <SCORE.INTRA.VDW>
0.583388

>  <SCORE.INTRA.VDW.0>
-0.754459

>  <SCORE.INTRA.norm>
0.0987481

>  <SCORE.RESTR>
0.000994381

>  <SCORE.RESTR.CAVITY>
0.000994381

>  <SCORE.RESTR.norm>
7.64909e-05

>  <SCORE.SYSTEM>
0

>  <SCORE.SYSTEM.CONST>
0

>  <SCORE.SYSTEM.DIHEDRAL>
0

>  <SCORE.SYSTEM.SOLV>
0

>  <SCORE.SYSTEM.norm>
0

>  <SCORE.heavy>
13

>  <SCORE.norm>
-3.35258

>  <RMSD>
4.206

$$$$
lig.pdb
 OpenBabel11021811453D
libRbt.so/2013.1/901 2013/11/27
 13 14  0  0  0  0  0  0  0  0999 V2000
    2.8082   -0.2502   -1.8382 N   0  0  0  0  0  0  0  0  0  0  0  0
    1.5420   -0.4217   -1.3349 C   0  0  0  0  0  0  0  0  0  0  0  0
    0.5644    0.4066   -1.6860 N   0  0  0  0  0  0  0  0  0  0  0  0
    0.7821    1.4442   -2.5523 C   0  0  0  0  0  0  0  0  0  0  0  0
    2.0768    1.6627   -3.0882 C   0  0  0  0  0  0  0  0  0  0  0  0
    3.1122    0.7636   -2.7044 C   0  0  0  0  0  0  0  0  0  0  0  0
    4.2450    0.8870   -3.1335 O   0  0  0  0  0  0  0  0  0  0  0  0
    1.9846    2.8491   -3.9390 C   0  0  0  0  0  0  0  0  0  0  0  0
    3.1079    3.5205   -4.6818 C   0  0  0  0  0  0  0  0  0  0  0  0
    4.3346    2.7229   -4.5458 N   0  0  0  0  0  0  0  0  0  0  0  0
    0.7023    3.2331   -3.9017 C   0  0  0  0  0  0  0  0  0  0  0  0
   -0.0154    2.4113   -3.0737 N   0  0  0  0  0  0  0  0  0  0  0  0
    1.2847   -1.4563   -0.4745 N   0  0  0  0  0  0  0  0  0  0  0  0
  1  6  1  0  0  0  0
  2  1  1  0  0  0  0
  2  3  2  0  0  0  0
  3  4  1  0  0  0  0
  4  5  2  0  0  0  0
  4 12  1  0  0  0  0
  5  8  1  0  0  0  0
  6  7  2  0  0  0  0
  6  5  1  0  0  0  0
  8 11  2  0  0  0  0
  8  9  1  0  0  0  0
 10  9  1  0  0  0  0
 12 11  1  0  0  0  0
 13  2  1  0  0  0  0
M  END
>  <CHROM.1>
5.81889009,-146.04795754,2.09299671,1.32792885,-2.82873205,-1.88263231,0.22245241
-0.64648561

>  <Name>
lig.pdb

>  <RI>
4.15415e+07

>  <Rbt.Current_Directory>
/home/itssahil/PROJECTS/Mol_Feturizer/New_Systems/rnas/2l1v

>  <Rbt.Executable>
rbdock ($Id: //depot/dev/client3/rdock/2013.1/src/exe/rbdock.cxx#4 $)

>  <Rbt.Library>
libRbt.so (2013.1, Build901 2013/11/27)

>  <Rbt.Parameter_File>
/export/apps/rDock/src/rDock_2013.1_src/data/scripts/dock_solv.prm

>  <Rbt.Receptor>
prm/blind_docking_60.prm

>  <SCORE>
-41.1741

>  <SCORE.INTER>
-45.1748

>  <SCORE.INTER.CONST>
1

>  <SCORE.INTER.POLAR>
-4.70406

>  <SCORE.INTER.ROT>
2

>  <SCORE.INTER.SOLV>
15.5386

>  <SCORE.INTER.VDW>
-24.5492

>  <SCORE.INTER.norm>
-3.47498

>  <SCORE.INTRA>
4.00069

>  <SCORE.INTRA.DIHEDRAL>
2.09884

>  <SCORE.INTRA.DIHEDRAL.0>
1.43995

>  <SCORE.INTRA.POLAR>
0.046257

>  <SCORE.INTRA.POLAR.0>
-0.272593

>  <SCORE.INTRA.REPUL>
0

>  <SCORE.INTRA.REPUL.0>
0

>  <SCORE.INTRA.SOLV>
0.412141

>  <SCORE.INTRA.SOLV.lig_0>
-22.6728

>  <SCORE.INTRA.VDW>
2.58792

>  <SCORE.INTRA.VDW.0>
-0.754459

>  <SCORE.INTRA.norm>
0.307745

>  <SCORE.RESTR>
0

>  <SCORE.RESTR.CAVITY>
0

>  <SCORE.RESTR.norm>
0

>  <SCORE.SYSTEM>
0

>  <SCORE.SYSTEM.CONST>
0

>  <SCORE.SYSTEM.DIHEDRAL>
0

>  <SCORE.SYSTEM.SOLV>
0

>  <SCORE.SYSTEM.norm>
0

>  <SCORE.heavy>
13

>  <SCORE.norm>
-3.16724

>  <RMSD>
4.597

$$$$
lig.pdb
 OpenBabel11021811453D
libRbt.so/2013.1/901 2013/11/27
 13 14  0  0  0  0  0  0  0  0999 V2000
    2.7166   -0.3142   -1.8512 N   0  0  0  0  0  0  0  0  0  0  0  0
    1.4622   -0.4760   -1.3157 C   0  0  0  0  0  0  0  0  0  0  0  0
    0.4824    0.3597   -1.6420 N   0  0  0  0  0  0  0  0  0  0  0  0
    0.6859    1.3955   -2.5137 C   0  0  0  0  0  0  0  0  0  0  0  0
    1.9681    1.6041   -3.0826 C   0  0  0  0  0  0  0  0  0  0  0  0
    3.0060    0.6972   -2.7250 C   0  0  0  0  0  0  0  0  0  0  0  0
    4.1285    0.8120   -3.1829 O   0  0  0  0  0  0  0  0  0  0  0  0
    1.8633    2.7912   -3.9310 C   0  0  0  0  0  0  0  0  0  0  0  0
    2.9723    3.4540   -4.7024 C   0  0  0  0  0  0  0  0  0  0  0  0
    4.2527    2.8118   -4.3743 N   0  0  0  0  0  0  0  0  0  0  0  0
    0.5853    3.1850   -3.8611 C   0  0  0  0  0  0  0  0  0  0  0  0
   -0.1173    2.3687   -3.0149 N   0  0  0  0  0  0  0  0  0  0  0  0
    1.2191   -1.5087   -0.4487 N   0  0  0  0  0  0  0  0  0  0  0  0
  1  6  1  0  0  0  0
  2  1  1  0  0  0  0
  2  3  2  0  0  0  0
  3  4  1  0  0  0  0
  4  5  2  0  0  0  0
  4 12  1  0  0  0  0
  5  8  1  0  0  0  0
  6  7  2  0  0  0  0
  6  5  1  0  0  0  0
  8 11  2  0  0  0  0
  8  9  1  0  0  0  0
 10  9  1  0  0  0  0
 12 11  1  0  0  0  0
 13  2  1  0  0  0  0
M  END
>  <CHROM.1>
-5.91818732,-39.78739602,1.99370187,1.28478197,-2.80246641,-1.87398075,0.22231196
-0.63936144

>  <Name>
lig.pdb

>  <RI>
2.86608e+07

>  <Rbt.Current_Directory>
/home/itssahil/PROJECTS/Mol_Feturizer/New_Systems/rnas/2l1v

>  <Rbt.Executable>
rbdock ($Id: //depot/dev/client3/rdock/2013.1/src/exe/rbdock.cxx#4 $)

>  <Rbt.Library>
libRbt.so (2013.1, Build901 2013/11/27)

>  <Rbt.Parameter_File>
/export/apps/rDock/src/rDock_2013.1_src/data/scripts/dock_solv.prm

>  <Rbt.Receptor>
prm/pocket_docking_7.prm

>  <SCORE>
-41.8315

>  <SCORE.INTER>
-46.0398

>  <SCORE.INTER.CONST>
1

>  <SCORE.INTER.POLAR>
-4.66637

>  <SCORE.INTER.ROT>
2

>  <SCORE.INTER.SOLV>
15.5427

>  <SCORE.INTER.VDW>
-25.2528

>  <SCORE.INTER.norm>
-3.54152

>  <SCORE.INTRA>
4.17984

>  <SCORE.INTRA.DIHEDRAL>
2.07079

>  <SCORE.INTRA.DIHEDRAL.0>
1.43995

>  <SCORE.INTRA.POLAR>
0.206366

>  <SCORE.INTRA.POLAR.0>
-0.272593

>  <SCORE.INTRA.REPUL>
0

>  <SCORE.INTRA.REPUL.0>
0

>  <SCORE.INTRA.SOLV>
0.398758

>  <SCORE.INTRA.SOLV.lig_0>
-22.6728

>  <SCORE.INTRA.VDW>
2.24342

>  <SCORE.INTRA.VDW.0>
-0.754459

>  <SCORE.INTRA.norm>
0.321526

>  <SCORE.RESTR>
0.0284694

>  <SCORE.RESTR.CAVITY>
0.0284694

>  <SCORE.RESTR.norm>
0.00218995

>  <SCORE.SYSTEM>
0

>  <SCORE.SYSTEM.CONST>
0

>  <SCORE.SYSTEM.DIHEDRAL>
0

>  <SCORE.SYSTEM.SOLV>
0

>  <SCORE.SYSTEM.norm>
0

>  <SCORE.heavy>
13

>  <SCORE.norm>
-3.21781

>  <RMSD>
4.597

$$$$
lig.pdb
 OpenBabel11021811453D
libRbt.so/2013.1/901 2013/11/27
 13 14  0  0  0  0  0  0  0  0999 V2000
    2.7491   -0.2889   -1.8614 N   0  0  0  0  0  0  0  0  0  0  0  0
    1.4815   -0.4527   -1.3590 C   0  0  0  0  0  0  0  0  0  0  0  0
    0.5124    0.3898   -1.7000 N   0  0  0  0  0  0  0  0  0  0  0  0
    0.7405    1.4347   -2.5547 C   0  0  0  0  0  0  0  0  0  0  0  0
    2.0370    1.6455   -3.0893 C   0  0  0  0  0  0  0  0  0  0  0  0
    3.0631    0.7314   -2.7164 C   0  0  0  0  0  0  0  0  0  0  0  0
    4.1969    0.8477   -3.1450 O   0  0  0  0  0  0  0  0  0  0  0  0
    1.9566    2.8423   -3.9265 C   0  0  0  0  0  0  0  0  0  0  0  0
    3.0864    3.5102   -4.6627 C   0  0  0  0  0  0  0  0  0  0  0  0
    4.3156    2.7216   -4.4989 N   0  0  0  0  0  0  0  0  0  0  0  0
    0.6785    3.2394   -3.8839 C   0  0  0  0  0  0  0  0  0  0  0  0
   -0.0472    2.4159   -3.0646 N   0  0  0  0  0  0  0  0  0  0  0  0
    1.2139   -1.4942   -0.5100 N   0  0  0  0  0  0  0  0  0  0  0  0
  1  6  1  0  0  0  0
  2  1  1  0  0  0  0
  2  3  2  0  0  0  0
  3  4  1  0  0  0  0
  4  5  2  0  0  0  0
  4 12  1  0  0  0  0
  5  8  1  0  0  0  0
  6  7  2  0  0  0  0
  6  5  1  0  0  0  0
  8 11  2  0  0  0  0
  8  9  1  0  0  0  0
 10  9  1  0  0  0  0
 12 11  1  0  0  0  0
 13  2  1  0  0  0  0
M  END
>  <CHROM.1>
3.92663171,36.69159229,2.05080350,1.30990587,-2.82963974,-1.89085800,0.22472800
-0.63160832

>  <Name>
lig.pdb

>  <RI>
1.75485e+07

>  <Rbt.Current_Directory>
/home/itssahil/PROJECTS/Mol_Feturizer/New_Systems/rnas/2l1v

>  <Rbt.Executable>
rbdock ($Id: //depot/dev/client3/rdock/2013.1/src/exe/rbdock.cxx#4 $)

>  <Rbt.Library>
libRbt.so (2013.1, Build901 2013/11/27)

>  <Rbt.Parameter_File>
/export/apps/rDock/src/rDock_2013.1_src/data/scripts/dock_solv.prm

>  <Rbt.Receptor>
prm/pocket_docking_4.prm

>  <SCORE>
-40.5275

>  <SCORE.INTER>
-44.6252

>  <SCORE.INTER.CONST>
1

>  <SCORE.INTER.POLAR>
-4.63471

>  <SCORE.INTER.ROT>
2

>  <SCORE.INTER.SOLV>
15.682

>  <SCORE.INTER.VDW>
-24.4618

>  <SCORE.INTER.norm>
-3.43271

>  <SCORE.INTRA>
4.08315

>  <SCORE.INTRA.DIHEDRAL>
2.24629

>  <SCORE.INTRA.DIHEDRAL.0>
1.43995

>  <SCORE.INTRA.POLAR>
0.0221911

>  <SCORE.INTRA.POLAR.0>
-0.272593

>  <SCORE.INTRA.REPUL>
0

>  <SCORE.INTRA.REPUL.0>
0

>  <SCORE.INTRA.SOLV>
0.419923

>  <SCORE.INTRA.SOLV.lig_0>
-22.6728

>  <SCORE.INTRA.VDW>
2.67459

>  <SCORE.INTRA.VDW.0>
-0.754459

>  <SCORE.INTRA.norm>
0.314089

>  <SCORE.RESTR>
0.0145935

>  <SCORE.RESTR.CAVITY>
0.0145935

>  <SCORE.RESTR.norm>
0.00112258

>  <SCORE.SYSTEM>
0

>  <SCORE.SYSTEM.CONST>
0

>  <SCORE.SYSTEM.DIHEDRAL>
0

>  <SCORE.SYSTEM.SOLV>
0

>  <SCORE.SYSTEM.norm>
0

>  <SCORE.heavy>
13

>  <SCORE.norm>
-3.1175

>  <RMSD>
4.599

$$$$
lig.pdb
 OpenBabel11021811453D
libRbt.so/2013.1/901 2013/11/27
 13 14  0  0  0  0  0  0  0  0999 V2000
    2.7219   -0.2995   -1.7926 N   0  0  0  0  0  0  0  0  0  0  0  0
    1.4558   -0.4727   -1.2895 C   0  0  0  0  0  0  0  0  0  0  0  0
    0.4761    0.3516   -1.6442 N   0  0  0  0  0  0  0  0  0  0  0  0
    0.6916    1.3867   -2.5139 C   0  0  0  0  0  0  0  0  0  0  0  0
    1.9860    1.6069   -3.0498 C   0  0  0  0  0  0  0  0  0  0  0  0
    3.0236    0.7121   -2.6621 C   0  0  0  0  0  0  0  0  0  0  0  0
    4.1564    0.8371   -3.0909 O   0  0  0  0  0  0  0  0  0  0  0  0
    1.8911    2.7900   -3.9048 C   0  0  0  0  0  0  0  0  0  0  0  0
    3.0130    3.4620   -4.6493 C   0  0  0  0  0  0  0  0  0  0  0  0
    4.1725    2.5613   -4.7106 N   0  0  0  0  0  0  0  0  0  0  0  0
    0.6077    3.1706   -3.8697 C   0  0  0  0  0  0  0  0  0  0  0  0
   -0.1083    2.3498   -3.0393 N   0  0  0  0  0  0  0  0  0  0  0  0
    1.2008   -1.5051   -0.4256 N   0  0  0  0  0  0  0  0  0  0  0  0
  1  6  1  0  0  0  0
  2  1  1  0  0  0  0
  2  3  2  0  0  0  0
  3  4  1  0  0  0  0
  4  5  2  0  0  0  0
  4 12  1  0  0  0  0
  5  8  1  0  0  0  0
  6  7  2  0  0  0  0
  6  5  1  0  0  0  0
  8 11  2  0  0  0  0
  8  9  1  0  0  0  0
 10  9  1  0  0  0  0
 12 11  1  0  0  0  0
 13  2  1  0  0  0  0
M  END
>  <CHROM.1>
15.67768121,-161.05629223,1.99644785,1.26310811,-2.80785671,-1.87782353,0.24216608
-0.65979816

>  <Name>
lig.pdb

>  <RI>
1.77584e+07

>  <Rbt.Current_Directory>
/home/itssahil/PROJECTS/Mol_Feturizer/New_Systems/rnas/2l1v

>  <Rbt.Executable>
rbdock ($Id: //depot/dev/client3/rdock/2013.1/src/exe/rbdock.cxx#4 $)

>  <Rbt.Library>
libRbt.so (2013.1, Build901 2013/11/27)

>  <Rbt.Parameter_File>
/export/apps/rDock/src/rDock_2013.1_src/data/scripts/dock_solv.prm

>  <Rbt.Receptor>
prm/blind_docking_80.prm

>  <SCORE>
-42.0165

>  <SCORE.INTER>
-46.2712

>  <SCORE.INTER.CONST>
1

>  <SCORE.INTER.POLAR>
-4.50615

>  <SCORE.INTER.ROT>
2

>  <SCORE.INTER.SOLV>
15.4839

>  <SCORE.INTER.VDW>
-25.9216

>  <SCORE.INTER.norm>
-3.55932

>  <SCORE.INTRA>
3.82672

>  <SCORE.INTRA.DIHEDRAL>
1.8284

>  <SCORE.INTRA.DIHEDRAL.0>
1.43995

>  <SCORE.INTRA.POLAR>
0.159659

>  <SCORE.INTRA.POLAR.0>
-0.272593

>  <SCORE.INTRA.REPUL>
0

>  <SCORE.INTRA.REPUL.0>
0

>  <SCORE.INTRA.SOLV>
0.381942

>  <SCORE.INTRA.SOLV.lig_0>
-22.6728

>  <SCORE.INTRA.VDW>
2.17871

>  <SCORE.INTRA.VDW.0>
-0.754459

>  <SCORE.INTRA.norm>
0.294363

>  <SCORE.RESTR>
0.427969

>  <SCORE.RESTR.CAVITY>
0.427969

>  <SCORE.RESTR.norm>
0.0329207

>  <SCORE.SYSTEM>
0

>  <SCORE.SYSTEM.CONST>
0

>  <SCORE.SYSTEM.DIHEDRAL>
0

>  <SCORE.SYSTEM.SOLV>
0

>  <SCORE.SYSTEM.norm>
0

>  <SCORE.heavy>
13

>  <SCORE.norm>
-3.23204

>  <RMSD>
4.600

$$$$
lig.pdb
 OpenBabel11021811453D
libRbt.so/2013.1/901 2013/11/27
 13 14  0  0  0  0  0  0  0  0999 V2000
    2.8073   -0.2418   -1.7346 N   0  0  0  0  0  0  0  0  0  0  0  0
    1.5377   -0.4339   -1.2474 C   0  0  0  0  0  0  0  0  0  0  0  0
    0.5465    0.3642   -1.6291 N   0  0  0  0  0  0  0  0  0  0  0  0
    0.7534    1.3902   -2.5117 C   0  0  0  0  0  0  0  0  0  0  0  0
    2.0508    1.6293   -3.0320 C   0  0  0  0  0  0  0  0  0  0  0  0
    3.1008    0.7625   -2.6153 C   0  0  0  0  0  0  0  0  0  0  0  0
    4.2370    0.9048   -3.0295 O   0  0  0  0  0  0  0  0  0  0  0  0
    1.9440    2.7970   -3.9066 C   0  0  0  0  0  0  0  0  0  0  0  0
    3.0626    3.4809   -4.6450 C   0  0  0  0  0  0  0  0  0  0  0  0
    4.2142    2.5736   -4.7448 N   0  0  0  0  0  0  0  0  0  0  0  0
    0.6526    3.1510   -3.8961 C   0  0  0  0  0  0  0  0  0  0  0  0
   -0.0585    2.3281   -3.0636 N   0  0  0  0  0  0  0  0  0  0  0  0
    1.2914   -1.4580   -0.3713 N   0  0  0  0  0  0  0  0  0  0  0  0
  1  6  1  0  0  0  0
  2  1  1  0  0  0  0
  2  3  2  0  0  0  0
  3  4  1  0  0  0  0
  4  5  2  0  0  0  0
  4 12  1  0  0  0  0
  5  8  1  0  0  0  0
  6  7  2  0  0  0  0
  6  5  1  0  0  0  0
  8 11  2  0  0  0  0
  8  9  1  0  0  0  0
 10  9  1  0  0  0  0
 12 11  1  0  0  0  0
 13  2  1  0  0  0  0
M  END
>  <CHROM.1>
19.01185813,-161.41925553,2.06219222,1.28673780,-2.79106666,-1.86884117,0.22465001
-0.68016391

>  <Name>
lig.pdb

>  <RI>
2.50021e+07

>  <Rbt.Current_Directory>
/home/itssahil/PROJECTS/Mol_Feturizer/New_Systems/rnas/2l1v

>  <Rbt.Executable>
rbdock ($Id: //depot/dev/client3/rdock/2013.1/src/exe/rbdock.cxx#4 $)

>  <Rbt.Library>
libRbt.so (2013.1, Build901 2013/11/27)

>  <Rbt.Parameter_File>
/export/apps/rDock/src/rDock_2013.1_src/data/scripts/dock_solv.prm

>  <Rbt.Receptor>
prm/pocket_docking_5.prm

>  <SCORE>
-42.3251

>  <SCORE.INTER>
-45.8261

>  <SCORE.INTER.CONST>
1

>  <SCORE.INTER.POLAR>
-4.47492

>  <SCORE.INTER.ROT>
2

>  <SCORE.INTER.SOLV>
15.2881

>  <SCORE.INTER.VDW>
-25.6637

>  <SCORE.INTER.norm>
-3.52508

>  <SCORE.INTRA>
3.50097

>  <SCORE.INTRA.DIHEDRAL>
1.68358

>  <SCORE.INTRA.DIHEDRAL.0>
1.43995

>  <SCORE.INTRA.POLAR>
0.211993

>  <SCORE.INTRA.POLAR.0>
-0.272593

>  <SCORE.INTRA.REPUL>
0

>  <SCORE.INTRA.REPUL.0>
0

>  <SCORE.INTRA.SOLV>
0.354641

>  <SCORE.INTRA.SOLV.lig_0>
-22.6728

>  <SCORE.INTRA.VDW>
1.76108

>  <SCORE.INTRA.VDW.0>
-0.754459

>  <SCORE.INTRA.norm>
0.269305

>  <SCORE.RESTR>
0

>  <SCORE.RESTR.CAVITY>
0

>  <SCORE.RESTR.norm>
0

>  <SCORE.SYSTEM>
0

>  <SCORE.SYSTEM.CONST>
0

>  <SCORE.SYSTEM.DIHEDRAL>
0

>  <SCORE.SYSTEM.SOLV>
0

>  <SCORE.SYSTEM.norm>
0

>  <SCORE.heavy>
13

>  <SCORE.norm>
-3.25578

>  <RMSD>
4.600

$$$$
lig.pdb
 OpenBabel11021811453D
libRbt.so/2013.1/901 2013/11/27
 13 14  0  0  0  0  0  0  0  0999 V2000
    2.7288   -0.2876   -1.7852 N   0  0  0  0  0  0  0  0  0  0  0  0
    1.4695   -0.4607   -1.2652 C   0  0  0  0  0  0  0  0  0  0  0  0
    0.4831    0.3583   -1.6137 N   0  0  0  0  0  0  0  0  0  0  0  0
    0.6847    1.3875   -2.4937 C   0  0  0  0  0  0  0  0  0  0  0  0
    1.9717    1.6074   -3.0472 C   0  0  0  0  0  0  0  0  0  0  0  0
    3.0167    0.7184   -2.6659 C   0  0  0  0  0  0  0  0  0  0  0  0
    4.1437    0.8434   -3.1096 O   0  0  0  0  0  0  0  0  0  0  0  0
    1.8627    2.7839   -3.9097 C   0  0  0  0  0  0  0  0  0  0  0  0
    2.9733    3.4534   -4.6730 C   0  0  0  0  0  0  0  0  0  0  0  0
    4.2520    2.8032   -4.3541 N   0  0  0  0  0  0  0  0  0  0  0  0
    0.5788    3.1611   -3.8614 C   0  0  0  0  0  0  0  0  0  0  0  0
   -0.1244    2.3444   -3.0161 N   0  0  0  0  0  0  0  0  0  0  0  0
    1.2283   -1.4873   -0.3905 N   0  0  0  0  0  0  0  0  0  0  0  0
  1  6  1  0  0  0  0
  2  1  1  0  0  0  0
  2  3  2  0  0  0  0
  3  4  1  0  0  0  0
  4  5  2  0  0  0  0
  4 12  1  0  0  0  0
  5  8  1  0  0  0  0
  6  7  2  0  0  0  0
  6  5  1  0  0  0  0
  8 11  2  0  0  0  0
  8  9  1  0  0  0  0
 10  9  1  0  0  0  0
 12 11  1  0  0  0  0
 13  2  1  0  0  0  0
M  END
>  <CHROM.1>
-4.07521146,-39.21790956,1.99722397,1.28868174,-2.76648227,-1.87142058,0.20737203
-0.65231600

>  <Name>
lig.pdb

>  <RI>
2.05237e+07

>  <Rbt.Current_Directory>
/home/itssahil/PROJECTS/Mol_Feturizer/New_Systems/rnas/2l1v

>  <Rbt.Executable>
rbdock ($Id: //depot/dev/client3/rdock/2013.1/src/exe/rbdock.cxx#4 $)

>  <Rbt.Library>
libRbt.so (2013.1, Build901 2013/11/27)

>  <Rbt.Parameter_File>
/export/apps/rDock/src/rDock_2013.1_src/data/scripts/dock_solv.prm

>  <Rbt.Receptor>
prm/blind_docking_100.prm

>  <SCORE>
-41.9898

>  <SCORE.INTER>
-46.2273

>  <SCORE.INTER.CONST>
1

>  <SCORE.INTER.POLAR>
-4.69283

>  <SCORE.INTER.ROT>
2

>  <SCORE.INTER.SOLV>
15.3286

>  <SCORE.INTER.VDW>
-25.2183

>  <SCORE.INTER.norm>
-3.55595

>  <SCORE.INTRA>
4.23759

>  <SCORE.INTRA.DIHEDRAL>
2.1021

>  <SCORE.INTRA.DIHEDRAL.0>
1.43995

>  <SCORE.INTRA.POLAR>
0.17012

>  <SCORE.INTRA.POLAR.0>
-0.272593

>  <SCORE.INTRA.REPUL>
0

>  <SCORE.INTRA.REPUL.0>
0

>  <SCORE.INTRA.SOLV>
0.408205

>  <SCORE.INTRA.SOLV.lig_0>
-22.6728

>  <SCORE.INTRA.VDW>
2.40403

>  <SCORE.INTRA.VDW.0>
-0.754459

>  <SCORE.INTRA.norm>
0.325968

>  <SCORE.RESTR>
0

>  <SCORE.RESTR.CAVITY>
0

>  <SCORE.RESTR.norm>
0

>  <SCORE.SYSTEM>
0

>  <SCORE.SYSTEM.CONST>
0

>  <SCORE.SYSTEM.DIHEDRAL>
0

>  <SCORE.SYSTEM.SOLV>
0

>  <SCORE.SYSTEM.norm>
0

>  <SCORE.heavy>
13

>  <SCORE.norm>
-3.22998

>  <RMSD>
4.601

$$$$
lig.pdb
 OpenBabel11021811453D
libRbt.so/2013.1/901 2013/11/27
 13 14  0  0  0  0  0  0  0  0999 V2000
    2.7242   -0.2978   -1.7801 N   0  0  0  0  0  0  0  0  0  0  0  0
    1.4586   -0.4712   -1.2758 C   0  0  0  0  0  0  0  0  0  0  0  0
    0.4783    0.3525   -1.6303 N   0  0  0  0  0  0  0  0  0  0  0  0
    0.6926    1.3869   -2.5011 C   0  0  0  0  0  0  0  0  0  0  0  0
    1.9864    1.6072   -3.0383 C   0  0  0  0  0  0  0  0  0  0  0  0
    3.0247    0.7132   -2.6507 C   0  0  0  0  0  0  0  0  0  0  0  0
    4.1571    0.8383   -3.0806 O   0  0  0  0  0  0  0  0  0  0  0  0
    1.8902    2.7896   -3.8942 C   0  0  0  0  0  0  0  0  0  0  0  0
    3.0112    3.4614   -4.6402 C   0  0  0  0  0  0  0  0  0  0  0  0
    4.1627    2.5521   -4.7225 N   0  0  0  0  0  0  0  0  0  0  0  0
    0.6068    3.1697   -3.8583 C   0  0  0  0  0  0  0  0  0  0  0  0
   -0.1082    2.3492   -3.0266 N   0  0  0  0  0  0  0  0  0  0  0  0
    1.2048   -1.5029   -0.4108 N   0  0  0  0  0  0  0  0  0  0  0  0
  1  6  1  0  0  0  0
  2  1  1  0  0  0  0
  2  3  2  0  0  0  0
  3  4  1  0  0  0  0
  4  5  2  0  0  0  0
  4 12  1  0  0  0  0
  5  8  1  0  0  0  0
  6  7  2  0  0  0  0
  6  5  1  0  0  0  0
  8 11  2  0  0  0  0
  8  9  1  0  0  0  0
 10  9  1  0  0  0  0
 12 11  1  0  0  0  0
 13  2  1  0  0  0  0
M  END
>  <CHROM.1>
16.67785639,17.67888071,1.99650068,1.26285014,-2.79765118,-1.87639434,0.24438600
-0.66169817

>  <Name>
lig.pdb

>  <RI>
4.02536e+07

>  <Rbt.Current_Directory>
/home/itssahil/PROJECTS/Mol_Feturizer/New_Systems/rnas/2l1v

>  <Rbt.Executable>
rbdock ($Id: //depot/dev/client3/rdock/2013.1/src/exe/rbdock.cxx#4 $)

>  <Rbt.Library>
libRbt.so (2013.1, Build901 2013/11/27)

>  <Rbt.Parameter_File>
/export/apps/rDock/src/rDock_2013.1_src/data/scripts/dock_solv.prm

>  <Rbt.Receptor>
prm/blind_docking_40.prm

>  <SCORE>
-41.8281

>  <SCORE.INTER>
-46.1264

>  <SCORE.INTER.CONST>
1

>  <SCORE.INTER.POLAR>
-4.46196

>  <SCORE.INTER.ROT>
2

>  <SCORE.INTER.SOLV>
15.4292

>  <SCORE.INTER.VDW>
-25.9541

>  <SCORE.INTER.norm>
-3.54819

>  <SCORE.INTRA>
3.86419

>  <SCORE.INTRA.DIHEDRAL>
1.89955

>  <SCORE.INTRA.DIHEDRAL.0>
1.43995

>  <SCORE.INTRA.POLAR>
0.158047

>  <SCORE.INTRA.POLAR.0>
-0.272593

>  <SCORE.INTRA.REPUL>
0

>  <SCORE.INTRA.REPUL.0>
0

>  <SCORE.INTRA.SOLV>
0.381994

>  <SCORE.INTRA.SOLV.lig_0>
-22.6728

>  <SCORE.INTRA.VDW>
2.18606

>  <SCORE.INTRA.VDW.0>
-0.754459

>  <SCORE.INTRA.norm>
0.297246

>  <SCORE.RESTR>
0.434086

>  <SCORE.RESTR.CAVITY>
0.434086

>  <SCORE.RESTR.norm>
0.0333912

>  <SCORE.SYSTEM>
0

>  <SCORE.SYSTEM.CONST>
0

>  <SCORE.SYSTEM.DIHEDRAL>
0

>  <SCORE.SYSTEM.SOLV>
0

>  <SCORE.SYSTEM.norm>
0

>  <SCORE.heavy>
13

>  <SCORE.norm>
-3.21755

>  <RMSD>
4.601

$$$$
lig.pdb
 OpenBabel11021811453D
libRbt.so/2013.1/901 2013/11/27
 13 14  0  0  0  0  0  0  0  0999 V2000
    2.7231   -0.2975   -1.7809 N   0  0  0  0  0  0  0  0  0  0  0  0
    1.4572   -0.4712   -1.2776 C   0  0  0  0  0  0  0  0  0  0  0  0
    0.4770    0.3524   -1.6324 N   0  0  0  0  0  0  0  0  0  0  0  0
    0.6917    1.3873   -2.5027 C   0  0  0  0  0  0  0  0  0  0  0  0
    1.9859    1.6080   -3.0389 C   0  0  0  0  0  0  0  0  0  0  0  0
    3.0241    0.7139   -2.6510 C   0  0  0  0  0  0  0  0  0  0  0  0
    4.1567    0.8394   -3.0800 O   0  0  0  0  0  0  0  0  0  0  0  0
    1.8901    2.7907   -3.8943 C   0  0  0  0  0  0  0  0  0  0  0  0
    3.0115    3.4630   -4.6393 C   0  0  0  0  0  0  0  0  0  0  0  0
    4.1638    2.5546   -4.7196 N   0  0  0  0  0  0  0  0  0  0  0  0
    0.6066    3.1706   -3.8591 C   0  0  0  0  0  0  0  0  0  0  0  0
   -0.1088    2.3496   -3.0283 N   0  0  0  0  0  0  0  0  0  0  0  0
    1.2029   -1.5034   -0.4132 N   0  0  0  0  0  0  0  0  0  0  0  0
  1  6  1  0  0  0  0
  2  1  1  0  0  0  0
  2  3  2  0  0  0  0
  3  4  1  0  0  0  0
  4  5  2  0  0  0  0
  4 12  1  0  0  0  0
  5  8  1  0  0  0  0
  6  7  2  0  0  0  0
  6  5  1  0  0  0  0
  8 11  2  0  0  0  0
  8  9  1  0  0  0  0
 10  9  1  0  0  0  0
 12 11  1  0  0  0  0
 13  2  1  0  0  0  0
M  END
>  <CHROM.1>
16.60151105,17.82189050,1.99590342,1.26355609,-2.79819704,-1.87674692,0.24357631
-0.66112227

>  <Name>
lig.pdb

>  <RI>
4.02536e+07

>  <Rbt.Current_Directory>
/home/itssahil/PROJECTS/Mol_Feturizer/New_Systems/rnas/2l1v

>  <Rbt.Executable>
rbdock ($Id: //depot/dev/client3/rdock/2013.1/src/exe/rbdock.cxx#4 $)

>  <Rbt.Library>
libRbt.so (2013.1, Build901 2013/11/27)

>  <Rbt.Parameter_File>
/export/apps/rDock/src/rDock_2013.1_src/data/scripts/dock_solv.prm

>  <Rbt.Receptor>
prm/blind_docking_40.prm

>  <SCORE>
-41.828

>  <SCORE.INTER>
-46.1308

>  <SCORE.INTER.CONST>
1

>  <SCORE.INTER.POLAR>
-4.46973

>  <SCORE.INTER.ROT>
2

>  <SCORE.INTER.SOLV>
15.4352

>  <SCORE.INTER.VDW>
-25.9332

>  <SCORE.INTER.norm>
-3.54852

>  <SCORE.INTRA>
3.86878

>  <SCORE.INTRA.DIHEDRAL>
1.90305

>  <SCORE.INTRA.DIHEDRAL.0>
1.43995

>  <SCORE.INTRA.POLAR>
0.157518

>  <SCORE.INTRA.POLAR.0>
-0.272593

>  <SCORE.INTRA.REPUL>
0

>  <SCORE.INTRA.REPUL.0>
0

>  <SCORE.INTRA.SOLV>
0.3824

>  <SCORE.INTRA.SOLV.lig_0>
-22.6728

>  <SCORE.INTRA.VDW>
2.19049

>  <SCORE.INTRA.VDW.0>
-0.754459

>  <SCORE.INTRA.norm>
0.297598

>  <SCORE.RESTR>
0.434

>  <SCORE.RESTR.CAVITY>
0.434

>  <SCORE.RESTR.norm>
0.0333846

>  <SCORE.SYSTEM>
0

>  <SCORE.SYSTEM.CONST>
0

>  <SCORE.SYSTEM.DIHEDRAL>
0

>  <SCORE.SYSTEM.SOLV>
0

>  <SCORE.SYSTEM.norm>
0

>  <SCORE.heavy>
13

>  <SCORE.norm>
-3.21754

>  <RMSD>
4.601

$$$$
lig.pdb
 OpenBabel11021811453D
libRbt.so/2013.1/901 2013/11/27
 13 14  0  0  0  0  0  0  0  0999 V2000
    2.7245   -0.2982   -1.7795 N   0  0  0  0  0  0  0  0  0  0  0  0
    1.4581   -0.4732   -1.2778 C   0  0  0  0  0  0  0  0  0  0  0  0
    0.4768    0.3476   -1.6361 N   0  0  0  0  0  0  0  0  0  0  0  0
    0.6909    1.3808   -2.5085 C   0  0  0  0  0  0  0  0  0  0  0  0
    1.9855    1.6028   -3.0431 C   0  0  0  0  0  0  0  0  0  0  0  0
    3.0248    0.7118   -2.6514 C   0  0  0  0  0  0  0  0  0  0  0  0
    4.1579    0.8385   -3.0790 O   0  0  0  0  0  0  0  0  0  0  0  0
    1.8887    2.7833   -3.9015 C   0  0  0  0  0  0  0  0  0  0  0  0
    3.0099    3.4560   -4.6463 C   0  0  0  0  0  0  0  0  0  0  0  0
    4.1510    2.5364   -4.7545 N   0  0  0  0  0  0  0  0  0  0  0  0
    0.6043    3.1607   -3.8693 C   0  0  0  0  0  0  0  0  0  0  0  0
   -0.1108    2.3403   -3.0377 N   0  0  0  0  0  0  0  0  0  0  0  0
    1.2045   -1.5038   -0.4113 N   0  0  0  0  0  0  0  0  0  0  0  0
  1  6  1  0  0  0  0
  2  1  1  0  0  0  0
  2  3  2  0  0  0  0
  3  4  1  0  0  0  0
  4  5  2  0  0  0  0
  4 12  1  0  0  0  0
  5  8  1  0  0  0  0
  6  7  2  0  0  0  0
  6  5  1  0  0  0  0
  8 11  2  0  0  0  0
  8  9  1  0  0  0  0
 10  9  1  0  0  0  0
 12 11  1  0  0  0  0
 13  2  1  0  0  0  0
M  END
>  <CHROM.1>
18.13103812,16.37822630,1.99455318,1.25775386,-2.80458880,-1.87542150,0.24434493
-0.66514007

>  <Name>
lig.pdb

>  <RI>
4.02536e+07

>  <Rbt.Current_Directory>
/home/itssahil/PROJECTS/Mol_Feturizer/New_Systems/rnas/2l1v

>  <Rbt.Executable>
rbdock ($Id: //depot/dev/client3/rdock/2013.1/src/exe/rbdock.cxx#4 $)

>  <Rbt.Library>
libRbt.so (2013.1, Build901 2013/11/27)

>  <Rbt.Parameter_File>
/export/apps/rDock/src/rDock_2013.1_src/data/scripts/dock_solv.prm

>  <Rbt.Receptor>
prm/blind_docking_40.prm

>  <SCORE>
-41.7499

>  <SCORE.INTER>
-45.9263

>  <SCORE.INTER.CONST>
1

>  <SCORE.INTER.POLAR>
-4.42348

>  <SCORE.INTER.ROT>
2

>  <SCORE.INTER.SOLV>
15.4544

>  <SCORE.INTER.VDW>
-25.9574

>  <SCORE.INTER.norm>
-3.53279

>  <SCORE.INTRA>
3.741

>  <SCORE.INTRA.DIHEDRAL>
1.83328

>  <SCORE.INTRA.DIHEDRAL.0>
1.43995

>  <SCORE.INTRA.POLAR>
0.177209

>  <SCORE.INTRA.POLAR.0>
-0.272593

>  <SCORE.INTRA.REPUL>
0

>  <SCORE.INTRA.REPUL.0>
0

>  <SCORE.INTRA.SOLV>
0.371495

>  <SCORE.INTRA.SOLV.lig_0>
-22.6728

>  <SCORE.INTRA.VDW>
2.03611

>  <SCORE.INTRA.VDW.0>
-0.754459

>  <SCORE.INTRA.norm>
0.287769

>  <SCORE.RESTR>
0.43546

>  <SCORE.RESTR.CAVITY>
0.43546

>  <SCORE.RESTR.norm>
0.0334969

>  <SCORE.SYSTEM>
0

>  <SCORE.SYSTEM.CONST>
0

>  <SCORE.SYSTEM.DIHEDRAL>
0

>  <SCORE.SYSTEM.SOLV>
0

>  <SCORE.SYSTEM.norm>
0

>  <SCORE.heavy>
13

>  <SCORE.norm>
-3.21153

>  <RMSD>
4.601

$$$$
lig.pdb
 OpenBabel11021811453D
libRbt.so/2013.1/901 2013/11/27
 13 14  0  0  0  0  0  0  0  0999 V2000
    2.7305   -0.2872   -1.7830 N   0  0  0  0  0  0  0  0  0  0  0  0
    1.4717   -0.4613   -1.2623 C   0  0  0  0  0  0  0  0  0  0  0  0
    0.4847    0.3575   -1.6092 N   0  0  0  0  0  0  0  0  0  0  0  0
    0.6852    1.3877   -2.4884 C   0  0  0  0  0  0  0  0  0  0  0  0
    1.9717    1.6087   -3.0426 C   0  0  0  0  0  0  0  0  0  0  0  0
    3.0173    0.7198   -2.6629 C   0  0  0  0  0  0  0  0  0  0  0  0
    4.1439    0.8458   -3.1074 O   0  0  0  0  0  0  0  0  0  0  0  0
    1.8615    2.7860   -3.9038 C   0  0  0  0  0  0  0  0  0  0  0  0
    2.9712    3.4568   -4.6673 C   0  0  0  0  0  0  0  0  0  0  0  0
    4.2495    2.8027   -4.3550 N   0  0  0  0  0  0  0  0  0  0  0  0
    0.5774    3.1625   -3.8543 C   0  0  0  0  0  0  0  0  0  0  0  0
   -0.1248    2.3447   -3.0093 N   0  0  0  0  0  0  0  0  0  0  0  0
    1.2316   -1.4889   -0.3884 N   0  0  0  0  0  0  0  0  0  0  0  0
  1  6  1  0  0  0  0
  2  1  1  0  0  0  0
  2  3  2  0  0  0  0
  3  4  1  0  0  0  0
  4  5  2  0  0  0  0
  4 12  1  0  0  0  0
  5  8  1  0  0  0  0
  6  7  2  0  0  0  0
  6  5  1  0  0  0  0
  8 11  2  0  0  0  0
  8  9  1  0  0  0  0
 10  9  1  0  0  0  0
 12 11  1  0  0  0  0
 13  2  1  0  0  0  0
M  END
>  <CHROM.1>
-3.80522952,140.11844430,1.99728797,1.28902712,-2.76276619,-1.87028771,0.20861546
-0.65185595

>  <Name>
lig.pdb

>  <RI>
2.7104e+07

>  <Rbt.Current_Directory>
/home/itssahil/PROJECTS/Mol_Feturizer/New_Systems/rnas/2l1v

>  <Rbt.Executable>
rbdock ($Id: //depot/dev/client3/rdock/2013.1/src/exe/rbdock.cxx#4 $)

>  <Rbt.Library>
libRbt.so (2013.1, Build901 2013/11/27)

>  <Rbt.Parameter_File>
/export/apps/rDock/src/rDock_2013.1_src/data/scripts/dock_solv.prm

>  <Rbt.Receptor>
prm/pocket_docking_8.prm

>  <SCORE>
-41.8693

>  <SCORE.INTER>
-46.1878

>  <SCORE.INTER.CONST>
1

>  <SCORE.INTER.POLAR>
-4.68097

>  <SCORE.INTER.ROT>
2

>  <SCORE.INTER.SOLV>
15.3157

>  <SCORE.INTER.VDW>
-25.2272

>  <SCORE.INTER.norm>
-3.55291

>  <SCORE.INTRA>
4.31851

>  <SCORE.INTRA.DIHEDRAL>
2.22561

>  <SCORE.INTRA.DIHEDRAL.0>
1.43995

>  <SCORE.INTRA.POLAR>
0.154837

>  <SCORE.INTRA.POLAR.0>
-0.272593

>  <SCORE.INTRA.REPUL>
0

>  <SCORE.INTRA.REPUL.0>
0

>  <SCORE.INTRA.SOLV>
0.41542

>  <SCORE.INTRA.SOLV.lig_0>
-22.6728

>  <SCORE.INTRA.VDW>
2.47155

>  <SCORE.INTRA.VDW.0>
-0.754459

>  <SCORE.INTRA.norm>
0.332193

>  <SCORE.RESTR>
0

>  <SCORE.RESTR.CAVITY>
0

>  <SCORE.RESTR.norm>
0

>  <SCORE.SYSTEM>
0

>  <SCORE.SYSTEM.CONST>
0

>  <SCORE.SYSTEM.DIHEDRAL>
0

>  <SCORE.SYSTEM.SOLV>
0

>  <SCORE.SYSTEM.norm>
0

>  <SCORE.heavy>
13

>  <SCORE.norm>
-3.22072

>  <RMSD>
4.601

$$$$
lig.pdb
 OpenBabel11021811453D
libRbt.so/2013.1/901 2013/11/27
 13 14  0  0  0  0  0  0  0  0999 V2000
    2.7265   -0.2931   -1.7668 N   0  0  0  0  0  0  0  0  0  0  0  0
    1.4591   -0.4715   -1.2689 C   0  0  0  0  0  0  0  0  0  0  0  0
    0.4771    0.3477   -1.6289 N   0  0  0  0  0  0  0  0  0  0  0  0
    0.6914    1.3826   -2.4992 C   0  0  0  0  0  0  0  0  0  0  0  0
    1.9870    1.6080   -3.0300 C   0  0  0  0  0  0  0  0  0  0  0  0
    3.0271    0.7186   -2.6366 C   0  0  0  0  0  0  0  0  0  0  0  0
    4.1611    0.8483   -3.0608 O   0  0  0  0  0  0  0  0  0  0  0  0
    1.8902    2.7895   -3.8871 C   0  0  0  0  0  0  0  0  0  0  0  0
    3.0121    3.4655   -4.6278 C   0  0  0  0  0  0  0  0  0  0  0  0
    4.1630    2.5560   -4.7157 N   0  0  0  0  0  0  0  0  0  0  0  0
    0.6050    3.1641   -3.8580 C   0  0  0  0  0  0  0  0  0  0  0  0
   -0.1107    2.3411   -3.0294 N   0  0  0  0  0  0  0  0  0  0  0  0
    1.2053   -1.5038   -0.4045 N   0  0  0  0  0  0  0  0  0  0  0  0
  1  6  1  0  0  0  0
  2  1  1  0  0  0  0
  2  3  2  0  0  0  0
  3  4  1  0  0  0  0
  4  5  2  0  0  0  0
  4 12  1  0  0  0  0
  5  8  1  0  0  0  0
  6  7  2  0  0  0  0
  6  5  1  0  0  0  0
  8 11  2  0  0  0  0
  8  9  1  0  0  0  0
 10  9  1  0  0  0  0
 12 11  1  0  0  0  0
 13  2  1  0  0  0  0
M  END
>  <CHROM.1>
17.25466950,-160.65122812,1.99683035,1.26332493,-2.79054235,-1.87600443,0.23931218
-0.66301855

>  <Name>
lig.pdb

>  <RI>
2.86608e+07

>  <Rbt.Current_Directory>
/home/itssahil/PROJECTS/Mol_Feturizer/New_Systems/rnas/2l1v

>  <Rbt.Executable>
rbdock ($Id: //depot/dev/client3/rdock/2013.1/src/exe/rbdock.cxx#4 $)

>  <Rbt.Library>
libRbt.so (2013.1, Build901 2013/11/27)

>  <Rbt.Parameter_File>
/export/apps/rDock/src/rDock_2013.1_src/data/scripts/dock_solv.prm

>  <Rbt.Receptor>
prm/pocket_docking_7.prm

>  <SCORE>
-42.4556

>  <SCORE.INTER>
-46.1831

>  <SCORE.INTER.CONST>
1

>  <SCORE.INTER.POLAR>
-4.46844

>  <SCORE.INTER.ROT>
2

>  <SCORE.INTER.SOLV>
15.4176

>  <SCORE.INTER.VDW>
-25.9665

>  <SCORE.INTER.norm>
-3.55255

>  <SCORE.INTRA>
3.66642

>  <SCORE.INTRA.DIHEDRAL>
1.76163

>  <SCORE.INTRA.DIHEDRAL.0>
1.43995

>  <SCORE.INTRA.POLAR>
0.189862

>  <SCORE.INTRA.POLAR.0>
-0.272593

>  <SCORE.INTRA.REPUL>
0

>  <SCORE.INTRA.REPUL.0>
0

>  <SCORE.INTRA.SOLV>
0.367827

>  <SCORE.INTRA.SOLV.lig_0>
-22.6728

>  <SCORE.INTRA.VDW>
1.95616

>  <SCORE.INTRA.VDW.0>
-0.754459

>  <SCORE.INTRA.norm>
0.282032

>  <SCORE.RESTR>
0.0611312

>  <SCORE.RESTR.CAVITY>
0.0611312

>  <SCORE.RESTR.norm>
0.0047024

>  <SCORE.SYSTEM>
0

>  <SCORE.SYSTEM.CONST>
0

>  <SCORE.SYSTEM.DIHEDRAL>
0

>  <SCORE.SYSTEM.SOLV>
0

>  <SCORE.SYSTEM.norm>
0

>  <SCORE.heavy>
13

>  <SCORE.norm>
-3.26581

>  <RMSD>
4.602

$$$$
lig.pdb
 OpenBabel11021811453D
libRbt.so/2013.1/901 2013/11/27
 13 14  0  0  0  0  0  0  0  0999 V2000
    2.7257   -0.2956   -1.7679 N   0  0  0  0  0  0  0  0  0  0  0  0
    1.4582   -0.4723   -1.2696 C   0  0  0  0  0  0  0  0  0  0  0  0
    0.4772    0.3482   -1.6293 N   0  0  0  0  0  0  0  0  0  0  0  0
    0.6926    1.3828   -2.4997 C   0  0  0  0  0  0  0  0  0  0  0  0
    1.9883    1.6065   -3.0309 C   0  0  0  0  0  0  0  0  0  0  0  0
    3.0274    0.7157   -2.6378 C   0  0  0  0  0  0  0  0  0  0  0  0
    4.1614    0.8439   -3.0624 O   0  0  0  0  0  0  0  0  0  0  0  0
    1.8928    2.7880   -3.8880 C   0  0  0  0  0  0  0  0  0  0  0  0
    3.0153    3.4626   -4.6291 C   0  0  0  0  0  0  0  0  0  0  0  0
    4.1708    2.5577   -4.7028 N   0  0  0  0  0  0  0  0  0  0  0  0
    0.6080    3.1644   -3.8585 C   0  0  0  0  0  0  0  0  0  0  0  0
   -0.1084    2.3424   -3.0296 N   0  0  0  0  0  0  0  0  0  0  0  0
    1.2033   -1.5042   -0.4051 N   0  0  0  0  0  0  0  0  0  0  0  0
  1  6  1  0  0  0  0
  2  1  1  0  0  0  0
  2  3  2  0  0  0  0
  3  4  1  0  0  0  0
  4  5  2  0  0  0  0
  4 12  1  0  0  0  0
  5  8  1  0  0  0  0
  6  7  2  0  0  0  0
  6  5  1  0  0  0  0
  8 11  2  0  0  0  0
  8  9  1  0  0  0  0
 10  9  1  0  0  0  0
 12 11  1  0  0  0  0
 13  2  1  0  0  0  0
M  END
>  <CHROM.1>
16.55669119,-161.68589866,1.99828951,1.26231678,-2.79007662,-1.87718861,0.23893859
-0.66218993

>  <Name>
lig.pdb

>  <RI>
2.86608e+07

>  <Rbt.Current_Directory>
/home/itssahil/PROJECTS/Mol_Feturizer/New_Systems/rnas/2l1v

>  <Rbt.Executable>
rbdock ($Id: //depot/dev/client3/rdock/2013.1/src/exe/rbdock.cxx#4 $)

>  <Rbt.Library>
libRbt.so (2013.1, Build901 2013/11/27)

>  <Rbt.Parameter_File>
/export/apps/rDock/src/rDock_2013.1_src/data/scripts/dock_solv.prm

>  <Rbt.Receptor>
prm/pocket_docking_7.prm

>  <SCORE>
-42.4462

>  <SCORE.INTER>
-46.2658

>  <SCORE.INTER.CONST>
1

>  <SCORE.INTER.POLAR>
-4.49208

>  <SCORE.INTER.ROT>
2

>  <SCORE.INTER.SOLV>
15.4104

>  <SCORE.INTER.VDW>
-25.9404

>  <SCORE.INTER.norm>
-3.55891

>  <SCORE.INTRA>
3.75824

>  <SCORE.INTRA.DIHEDRAL>
1.79332

>  <SCORE.INTRA.DIHEDRAL.0>
1.43995

>  <SCORE.INTRA.POLAR>
0.172408

>  <SCORE.INTRA.POLAR.0>
-0.272593

>  <SCORE.INTRA.REPUL>
0

>  <SCORE.INTRA.REPUL.0>
0

>  <SCORE.INTRA.SOLV>
0.37578

>  <SCORE.INTRA.SOLV.lig_0>
-22.6728

>  <SCORE.INTRA.VDW>
2.0875

>  <SCORE.INTRA.VDW.0>
-0.754459

>  <SCORE.INTRA.norm>
0.289095

>  <SCORE.RESTR>
0.0614008

>  <SCORE.RESTR.CAVITY>
0.0614008

>  <SCORE.RESTR.norm>
0.00472314

>  <SCORE.SYSTEM>
0

>  <SCORE.SYSTEM.CONST>
0

>  <SCORE.SYSTEM.DIHEDRAL>
0

>  <SCORE.SYSTEM.SOLV>
0

>  <SCORE.SYSTEM.norm>
0

>  <SCORE.heavy>
13

>  <SCORE.norm>
-3.26509

>  <RMSD>
4.603

$$$$
lig.pdb
 OpenBabel11021811453D
libRbt.so/2013.1/901 2013/11/27
 13 14  0  0  0  0  0  0  0  0999 V2000
    2.7271   -0.2936   -1.7611 N   0  0  0  0  0  0  0  0  0  0  0  0
    1.4583   -0.4745   -1.2675 C   0  0  0  0  0  0  0  0  0  0  0  0
    0.4757    0.3422   -1.6316 N   0  0  0  0  0  0  0  0  0  0  0  0
    0.6908    1.3769   -2.5020 C   0  0  0  0  0  0  0  0  0  0  0  0
    1.9877    1.6049   -3.0284 C   0  0  0  0  0  0  0  0  0  0  0  0
    3.0285    0.7181   -2.6306 C   0  0  0  0  0  0  0  0  0  0  0  0
    4.1637    0.8501   -3.0509 O   0  0  0  0  0  0  0  0  0  0  0  0
    1.8912    2.7854   -3.8867 C   0  0  0  0  0  0  0  0  0  0  0  0
    3.0142    3.4635   -4.6240 C   0  0  0  0  0  0  0  0  0  0  0  0
    4.1650    2.5540   -4.7132 N   0  0  0  0  0  0  0  0  0  0  0  0
    0.6051    3.1572   -3.8624 C   0  0  0  0  0  0  0  0  0  0  0  0
   -0.1117    2.3332   -3.0358 N   0  0  0  0  0  0  0  0  0  0  0  0
    1.2038   -1.5067   -0.4032 N   0  0  0  0  0  0  0  0  0  0  0  0
  1  6  1  0  0  0  0
  2  1  1  0  0  0  0
  2  3  2  0  0  0  0
  3  4  1  0  0  0  0
  4  5  2  0  0  0  0
  4 12  1  0  0  0  0
  5  8  1  0  0  0  0
  6  7  2  0  0  0  0
  6  5  1  0  0  0  0
  8 11  2  0  0  0  0
  8  9  1  0  0  0  0
 10  9  1  0  0  0  0
 12 11  1  0  0  0  0
 13  2  1  0  0  0  0
M  END
>  <CHROM.1>
17.54185785,16.77829265,1.99731142,1.26016382,-2.78882586,-1.87617186,0.23542821
-0.66389281

>  <Name>
lig.pdb

>  <RI>
2.86608e+07

>  <Rbt.Current_Directory>
/home/itssahil/PROJECTS/Mol_Feturizer/New_Systems/rnas/2l1v

>  <Rbt.Executable>
rbdock ($Id: //depot/dev/client3/rdock/2013.1/src/exe/rbdock.cxx#4 $)

>  <Rbt.Library>
libRbt.so (2013.1, Build901 2013/11/27)

>  <Rbt.Parameter_File>
/export/apps/rDock/src/rDock_2013.1_src/data/scripts/dock_solv.prm

>  <Rbt.Receptor>
prm/pocket_docking_7.prm

>  <SCORE>
-42.2354

>  <SCORE.INTER>
-46.0942

>  <SCORE.INTER.CONST>
1

>  <SCORE.INTER.POLAR>
-4.47643

>  <SCORE.INTER.ROT>
2

>  <SCORE.INTER.SOLV>
15.4022

>  <SCORE.INTER.VDW>
-25.8754

>  <SCORE.INTER.norm>
-3.54571

>  <SCORE.INTRA>
3.79517

>  <SCORE.INTRA.DIHEDRAL>
1.86041

>  <SCORE.INTRA.DIHEDRAL.0>
1.43995

>  <SCORE.INTRA.POLAR>
0.168893

>  <SCORE.INTRA.POLAR.0>
-0.272593

>  <SCORE.INTRA.REPUL>
0

>  <SCORE.INTRA.REPUL.0>
0

>  <SCORE.INTRA.SOLV>
0.376066

>  <SCORE.INTRA.SOLV.lig_0>
-22.6728

>  <SCORE.INTRA.VDW>
2.1027

>  <SCORE.INTRA.VDW.0>
-0.754459

>  <SCORE.INTRA.norm>
0.291936

>  <SCORE.RESTR>
0.0636602

>  <SCORE.RESTR.CAVITY>
0.0636602

>  <SCORE.RESTR.norm>
0.00489694

>  <SCORE.SYSTEM>
0

>  <SCORE.SYSTEM.CONST>
0

>  <SCORE.SYSTEM.DIHEDRAL>
0

>  <SCORE.SYSTEM.SOLV>
0

>  <SCORE.SYSTEM.norm>
0

>  <SCORE.heavy>
13

>  <SCORE.norm>
-3.24888

>  <RMSD>
4.603

$$$$
lig.pdb
 OpenBabel11021811453D
libRbt.so/2013.1/901 2013/11/27
 13 14  0  0  0  0  0  0  0  0999 V2000
    2.7295   -0.2945   -1.7572 N   0  0  0  0  0  0  0  0  0  0  0  0
    1.4604   -0.4749   -1.2643 C   0  0  0  0  0  0  0  0  0  0  0  0
    0.4780    0.3414   -1.6300 N   0  0  0  0  0  0  0  0  0  0  0  0
    0.6937    1.3751   -2.5015 C   0  0  0  0  0  0  0  0  0  0  0  0
    1.9910    1.6025   -3.0271 C   0  0  0  0  0  0  0  0  0  0  0  0
    3.0315    0.7163   -2.6276 C   0  0  0  0  0  0  0  0  0  0  0  0
    4.1670    0.8478   -3.0472 O   0  0  0  0  0  0  0  0  0  0  0  0
    1.8951    2.7821   -3.8869 C   0  0  0  0  0  0  0  0  0  0  0  0
    3.0186    3.4593   -4.6242 C   0  0  0  0  0  0  0  0  0  0  0  0
    4.1726    2.5531   -4.7036 N   0  0  0  0  0  0  0  0  0  0  0  0
    0.6089    3.1538   -3.8639 C   0  0  0  0  0  0  0  0  0  0  0  0
   -0.1084    2.3308   -3.0368 N   0  0  0  0  0  0  0  0  0  0  0  0
    1.2053   -1.5061   -0.3990 N   0  0  0  0  0  0  0  0  0  0  0  0
  1  6  1  0  0  0  0
  2  1  1  0  0  0  0
  2  3  2  0  0  0  0
  3  4  1  0  0  0  0
  4  5  2  0  0  0  0
  4 12  1  0  0  0  0
  5  8  1  0  0  0  0
  6  7  2  0  0  0  0
  6  5  1  0  0  0  0
  8 11  2  0  0  0  0
  8  9  1  0  0  0  0
 10  9  1  0  0  0  0
 12 11  1  0  0  0  0
 13  2  1  0  0  0  0
M  END
>  <CHROM.1>
17.16609267,-161.32848286,2.00066068,1.25836464,-2.78680590,-1.87686656,0.23437951
-0.66466594

>  <Name>
lig.pdb

>  <RI>
2.05237e+07

>  <Rbt.Current_Directory>
/home/itssahil/PROJECTS/Mol_Feturizer/New_Systems/rnas/2l1v

>  <Rbt.Executable>
rbdock ($Id: //depot/dev/client3/rdock/2013.1/src/exe/rbdock.cxx#4 $)

>  <Rbt.Library>
libRbt.so (2013.1, Build901 2013/11/27)

>  <Rbt.Parameter_File>
/export/apps/rDock/src/rDock_2013.1_src/data/scripts/dock_solv.prm

>  <Rbt.Receptor>
prm/blind_docking_100.prm

>  <SCORE>
-42.5414

>  <SCORE.INTER>
-46.2314

>  <SCORE.INTER.CONST>
1

>  <SCORE.INTER.POLAR>
-4.4992

>  <SCORE.INTER.ROT>
2

>  <SCORE.INTER.SOLV>
15.3974

>  <SCORE.INTER.VDW>
-25.8894

>  <SCORE.INTER.norm>
-3.55626

>  <SCORE.INTRA>
3.68999

>  <SCORE.INTRA.DIHEDRAL>
1.76665

>  <SCORE.INTRA.DIHEDRAL.0>
1.43995

>  <SCORE.INTRA.POLAR>
0.184932

>  <SCORE.INTRA.POLAR.0>
-0.272593

>  <SCORE.INTRA.REPUL>
0

>  <SCORE.INTRA.REPUL.0>
0

>  <SCORE.INTRA.SOLV>
0.369865

>  <SCORE.INTRA.SOLV.lig_0>
-22.6728

>  <SCORE.INTRA.VDW>
1.99296

>  <SCORE.INTRA.VDW.0>
-0.754459

>  <SCORE.INTRA.norm>
0.283845

>  <SCORE.RESTR>
0

>  <SCORE.RESTR.CAVITY>
0

>  <SCORE.RESTR.norm>
0

>  <SCORE.SYSTEM>
0

>  <SCORE.SYSTEM.CONST>
0

>  <SCORE.SYSTEM.DIHEDRAL>
0

>  <SCORE.SYSTEM.SOLV>
0

>  <SCORE.SYSTEM.norm>
0

>  <SCORE.heavy>
13

>  <SCORE.norm>
-3.27242

>  <RMSD>
4.604

$$$$
lig.pdb
 OpenBabel11021811453D
libRbt.so/2013.1/901 2013/11/27
 13 14  0  0  0  0  0  0  0  0999 V2000
    2.7298   -0.3001   -1.7603 N   0  0  0  0  0  0  0  0  0  0  0  0
    1.4606   -0.4765   -1.2661 C   0  0  0  0  0  0  0  0  0  0  0  0
    0.4805    0.3429   -1.6306 N   0  0  0  0  0  0  0  0  0  0  0  0
    0.6985    1.3761   -2.5021 C   0  0  0  0  0  0  0  0  0  0  0  0
    1.9960    1.5995   -3.0291 C   0  0  0  0  0  0  0  0  0  0  0  0
    3.0341    0.7098   -2.6308 C   0  0  0  0  0  0  0  0  0  0  0  0
    4.1695    0.8378   -3.0516 O   0  0  0  0  0  0  0  0  0  0  0  0
    1.9029    2.7795   -3.8885 C   0  0  0  0  0  0  0  0  0  0  0  0
    3.0278    3.4533   -4.6269 C   0  0  0  0  0  0  0  0  0  0  0  0
    4.1712    2.5356   -4.7265 N   0  0  0  0  0  0  0  0  0  0  0  0
    0.6179    3.1553   -3.8642 C   0  0  0  0  0  0  0  0  0  0  0  0
   -0.1011    2.3344   -3.0365 N   0  0  0  0  0  0  0  0  0  0  0  0
    1.2031   -1.5071   -0.4007 N   0  0  0  0  0  0  0  0  0  0  0  0
  1  6  1  0  0  0  0
  2  1  1  0  0  0  0
  2  3  2  0  0  0  0
  3  4  1  0  0  0  0
  4  5  2  0  0  0  0
  4 12  1  0  0  0  0
  5  8  1  0  0  0  0
  6  7  2  0  0  0  0
  6  5  1  0  0  0  0
  8 11  2  0  0  0  0
  8  9  1  0  0  0  0
 10  9  1  0  0  0  0
 12 11  1  0  0  0  0
 13  2  1  0  0  0  0
M  END
>  <CHROM.1>
18.06736417,-163.21987585,2.00408346,1.25452581,-2.79059628,-1.87833695,0.23911576
-0.66491934

>  <Name>
lig.pdb

>  <RI>
2.05237e+07

>  <Rbt.Current_Directory>
/home/itssahil/PROJECTS/Mol_Feturizer/New_Systems/rnas/2l1v

>  <Rbt.Executable>
rbdock ($Id: //depot/dev/client3/rdock/2013.1/src/exe/rbdock.cxx#4 $)

>  <Rbt.Library>
libRbt.so (2013.1, Build901 2013/11/27)

>  <Rbt.Parameter_File>
/export/apps/rDock/src/rDock_2013.1_src/data/scripts/dock_solv.prm

>  <Rbt.Receptor>
prm/blind_docking_100.prm

>  <SCORE>
-42.4911

>  <SCORE.INTER>
-46.1309

>  <SCORE.INTER.CONST>
1

>  <SCORE.INTER.POLAR>
-4.47452

>  <SCORE.INTER.ROT>
2

>  <SCORE.INTER.SOLV>
15.4155

>  <SCORE.INTER.VDW>
-25.9108

>  <SCORE.INTER.norm>
-3.54853

>  <SCORE.INTRA>
3.6398

>  <SCORE.INTRA.DIHEDRAL>
1.73044

>  <SCORE.INTRA.DIHEDRAL.0>
1.43995

>  <SCORE.INTRA.POLAR>
0.189882

>  <SCORE.INTRA.POLAR.0>
-0.272593

>  <SCORE.INTRA.REPUL>
0

>  <SCORE.INTRA.REPUL.0>
0

>  <SCORE.INTRA.SOLV>
0.365222

>  <SCORE.INTRA.SOLV.lig_0>
-22.6728

>  <SCORE.INTRA.VDW>
1.94637

>  <SCORE.INTRA.VDW.0>
-0.754459

>  <SCORE.INTRA.norm>
0.279985

>  <SCORE.RESTR>
0

>  <SCORE.RESTR.CAVITY>
0

>  <SCORE.RESTR.norm>
0

>  <SCORE.SYSTEM>
0

>  <SCORE.SYSTEM.CONST>
0

>  <SCORE.SYSTEM.DIHEDRAL>
0

>  <SCORE.SYSTEM.SOLV>
0

>  <SCORE.SYSTEM.norm>
0

>  <SCORE.heavy>
13

>  <SCORE.norm>
-3.26855

>  <RMSD>
4.604

$$$$
lig.pdb
 OpenBabel11021811453D
libRbt.so/2013.1/901 2013/11/27
 13 14  0  0  0  0  0  0  0  0999 V2000
    2.7314   -0.2959   -1.7510 N   0  0  0  0  0  0  0  0  0  0  0  0
    1.4591   -0.4775   -1.2668 C   0  0  0  0  0  0  0  0  0  0  0  0
    0.4792    0.3399   -1.6367 N   0  0  0  0  0  0  0  0  0  0  0  0
    0.7006    1.3759   -2.5039 C   0  0  0  0  0  0  0  0  0  0  0  0
    2.0014    1.6047   -3.0206 C   0  0  0  0  0  0  0  0  0  0  0  0
    3.0392    0.7172   -2.6167 C   0  0  0  0  0  0  0  0  0  0  0  0
    4.1774    0.8497   -3.0286 O   0  0  0  0  0  0  0  0  0  0  0  0
    1.9112    2.7866   -3.8777 C   0  0  0  0  0  0  0  0  0  0  0  0
    3.0395    3.4657   -4.6058 C   0  0  0  0  0  0  0  0  0  0  0  0
    4.1711    2.5373   -4.7363 N   0  0  0  0  0  0  0  0  0  0  0  0
    0.6249    3.1584   -3.8621 C   0  0  0  0  0  0  0  0  0  0  0  0
   -0.0978    2.3332   -3.0419 N   0  0  0  0  0  0  0  0  0  0  0  0
    1.1983   -1.5110   -0.4061 N   0  0  0  0  0  0  0  0  0  0  0  0
  1  6  1  0  0  0  0
  2  1  1  0  0  0  0
  2  3  2  0  0  0  0
  3  4  1  0  0  0  0
  4  5  2  0  0  0  0
  4 12  1  0  0  0  0
  5  8  1  0  0  0  0
  6  7  2  0  0  0  0
  6  5  1  0  0  0  0
  8 11  2  0  0  0  0
  8  9  1  0  0  0  0
 10  9  1  0  0  0  0
 12 11  1  0  0  0  0
 13  2  1  0  0  0  0
M  END
>  <CHROM.1>
19.83456148,13.71497187,2.00737861,1.25780906,-2.78598869,-1.87968891,0.23468548
-0.66345721

>  <Name>
lig.pdb

>  <RI>
2.05237e+07

>  <Rbt.Current_Directory>
/home/itssahil/PROJECTS/Mol_Feturizer/New_Systems/rnas/2l1v

>  <Rbt.Executable>
rbdock ($Id: //depot/dev/client3/rdock/2013.1/src/exe/rbdock.cxx#4 $)

>  <Rbt.Library>
libRbt.so (2013.1, Build901 2013/11/27)

>  <Rbt.Parameter_File>
/export/apps/rDock/src/rDock_2013.1_src/data/scripts/dock_solv.prm

>  <Rbt.Receptor>
prm/blind_docking_100.prm

>  <SCORE>
-42.2351

>  <SCORE.INTER>
-45.8435

>  <SCORE.INTER.CONST>
1

>  <SCORE.INTER.POLAR>
-4.46552

>  <SCORE.INTER.ROT>
2

>  <SCORE.INTER.SOLV>
15.4158

>  <SCORE.INTER.VDW>
-25.7492

>  <SCORE.INTER.norm>
-3.52643

>  <SCORE.INTRA>
3.60841

>  <SCORE.INTRA.DIHEDRAL>
1.74755

>  <SCORE.INTRA.DIHEDRAL.0>
1.43995

>  <SCORE.INTRA.POLAR>
0.19112

>  <SCORE.INTRA.POLAR.0>
-0.272593

>  <SCORE.INTRA.REPUL>
0

>  <SCORE.INTRA.REPUL.0>
0

>  <SCORE.INTRA.SOLV>
0.363044

>  <SCORE.INTRA.SOLV.lig_0>
-22.6728

>  <SCORE.INTRA.VDW>
1.9033

>  <SCORE.INTRA.VDW.0>
-0.754459

>  <SCORE.INTRA.norm>
0.27757

>  <SCORE.RESTR>
0

>  <SCORE.RESTR.CAVITY>
0

>  <SCORE.RESTR.norm>
0

>  <SCORE.SYSTEM>
0

>  <SCORE.SYSTEM.CONST>
0

>  <SCORE.SYSTEM.DIHEDRAL>
0

>  <SCORE.SYSTEM.SOLV>
0

>  <SCORE.SYSTEM.norm>
0

>  <SCORE.heavy>
13

>  <SCORE.norm>
-3.24886

>  <RMSD>
4.605

$$$$
lig.pdb
 OpenBabel11021811453D
libRbt.so/2013.1/901 2013/11/27
 13 14  0  0  0  0  0  0  0  0999 V2000
    2.7324   -0.2983   -1.7493 N   0  0  0  0  0  0  0  0  0  0  0  0
    1.4608   -0.4793   -1.2631 C   0  0  0  0  0  0  0  0  0  0  0  0
    0.4799    0.3361   -1.6346 N   0  0  0  0  0  0  0  0  0  0  0  0
    0.6995    1.3694   -2.5054 C   0  0  0  0  0  0  0  0  0  0  0  0
    1.9995    1.5975   -3.0243 C   0  0  0  0  0  0  0  0  0  0  0  0
    3.0384    0.7122   -2.6186 C   0  0  0  0  0  0  0  0  0  0  0  0
    4.1760    0.8443   -3.0323 O   0  0  0  0  0  0  0  0  0  0  0  0
    1.9073    2.7765   -3.8853 C   0  0  0  0  0  0  0  0  0  0  0  0
    3.0342    3.4541   -4.6169 C   0  0  0  0  0  0  0  0  0  0  0  0
    4.1736    2.5328   -4.7284 N   0  0  0  0  0  0  0  0  0  0  0  0
    0.6207    3.1473   -3.8694 C   0  0  0  0  0  0  0  0  0  0  0  0
   -0.1004    2.3242   -3.0457 N   0  0  0  0  0  0  0  0  0  0  0  0
    1.2018   -1.5102   -0.3986 N   0  0  0  0  0  0  0  0  0  0  0  0
  1  6  1  0  0  0  0
  2  1  1  0  0  0  0
  2  3  2  0  0  0  0
  3  4  1  0  0  0  0
  4  5  2  0  0  0  0
  4 12  1  0  0  0  0
  5  8  1  0  0  0  0
  6  7  2  0  0  0  0
  6  5  1  0  0  0  0
  8 11  2  0  0  0  0
  8  9  1  0  0  0  0
 10  9  1  0  0  0  0
 12 11  1  0  0  0  0
 13  2  1  0  0  0  0
M  END
>  <CHROM.1>
19.02016807,-164.37289175,2.00656677,1.25195549,-2.78732840,-1.87879319,0.23367685
-0.66640898

>  <Name>
lig.pdb

>  <RI>
4.17264e+07

>  <Rbt.Current_Directory>
/home/itssahil/PROJECTS/Mol_Feturizer/New_Systems/rnas/2l1v

>  <Rbt.Executable>
rbdock ($Id: //depot/dev/client3/rdock/2013.1/src/exe/rbdock.cxx#4 $)

>  <Rbt.Library>
libRbt.so (2013.1, Build901 2013/11/27)

>  <Rbt.Parameter_File>
/export/apps/rDock/src/rDock_2013.1_src/data/scripts/dock_solv.prm

>  <Rbt.Receptor>
prm/blind_docking_20.prm

>  <SCORE>
-42.4758

>  <SCORE.INTER>
-46.0398

>  <SCORE.INTER.CONST>
1

>  <SCORE.INTER.POLAR>
-4.48051

>  <SCORE.INTER.ROT>
2

>  <SCORE.INTER.SOLV>
15.4098

>  <SCORE.INTER.VDW>
-25.8281

>  <SCORE.INTER.norm>
-3.54153

>  <SCORE.INTRA>
3.56408

>  <SCORE.INTRA.DIHEDRAL>
1.68914

>  <SCORE.INTRA.DIHEDRAL.0>
1.43995

>  <SCORE.INTRA.POLAR>
0.199023

>  <SCORE.INTRA.POLAR.0>
-0.272593

>  <SCORE.INTRA.REPUL>
0

>  <SCORE.INTRA.REPUL.0>
0

>  <SCORE.INTRA.SOLV>
0.36

>  <SCORE.INTRA.SOLV.lig_0>
-22.6728

>  <SCORE.INTRA.VDW>
1.86283

>  <SCORE.INTRA.VDW.0>
-0.754459

>  <SCORE.INTRA.norm>
0.27416

>  <SCORE.RESTR>
0

>  <SCORE.RESTR.CAVITY>
0

>  <SCORE.RESTR.norm>
0

>  <SCORE.SYSTEM>
0

>  <SCORE.SYSTEM.CONST>
0

>  <SCORE.SYSTEM.DIHEDRAL>
0

>  <SCORE.SYSTEM.SOLV>
0

>  <SCORE.SYSTEM.norm>
0

>  <SCORE.heavy>
13

>  <SCORE.norm>
-3.26737

>  <RMSD>
4.606

$$$$
lig.pdb
 OpenBabel11021811453D
libRbt.so/2013.1/901 2013/11/27
 13 14  0  0  0  0  0  0  0  0999 V2000
    2.7278   -0.3119   -1.7668 N   0  0  0  0  0  0  0  0  0  0  0  0
    1.4580   -0.4811   -1.2717 C   0  0  0  0  0  0  0  0  0  0  0  0
    0.4823    0.3439   -1.6356 N   0  0  0  0  0  0  0  0  0  0  0  0
    0.7056    1.3758   -2.5073 C   0  0  0  0  0  0  0  0  0  0  0  0
    2.0040    1.5918   -3.0352 C   0  0  0  0  0  0  0  0  0  0  0  0
    3.0373    0.6962   -2.6376 C   0  0  0  0  0  0  0  0  0  0  0  0
    4.1731    0.8177   -3.0592 O   0  0  0  0  0  0  0  0  0  0  0  0
    1.9170    2.7722   -3.8947 C   0  0  0  0  0  0  0  0  0  0  0  0
    3.0452    3.4396   -4.6339 C   0  0  0  0  0  0  0  0  0  0  0  0
    4.1643    2.4983   -4.7785 N   0  0  0  0  0  0  0  0  0  0  0  0
    0.6342    3.1554   -3.8695 C   0  0  0  0  0  0  0  0  0  0  0  0
   -0.0889    2.3386   -3.0412 N   0  0  0  0  0  0  0  0  0  0  0  0
    1.1953   -1.5100   -0.4060 N   0  0  0  0  0  0  0  0  0  0  0  0
  1  6  1  0  0  0  0
  2  1  1  0  0  0  0
  2  3  2  0  0  0  0
  3  4  1  0  0  0  0
  4  5  2  0  0  0  0
  4 12  1  0  0  0  0
  5  8  1  0  0  0  0
  6  7  2  0  0  0  0
  6  5  1  0  0  0  0
  8 11  2  0  0  0  0
  8  9  1  0  0  0  0
 10  9  1  0  0  0  0
 12 11  1  0  0  0  0
 13  2  1  0  0  0  0
M  END
>  <CHROM.1>
20.18315669,12.41185739,2.00858406,1.24521695,-2.80049989,-1.88135731,0.24733369
-0.66594834

>  <Name>
lig.pdb

>  <RI>
1.75485e+07

>  <Rbt.Current_Directory>
/home/itssahil/PROJECTS/Mol_Feturizer/New_Systems/rnas/2l1v

>  <Rbt.Executable>
rbdock ($Id: //depot/dev/client3/rdock/2013.1/src/exe/rbdock.cxx#4 $)

>  <Rbt.Library>
libRbt.so (2013.1, Build901 2013/11/27)

>  <Rbt.Parameter_File>
/export/apps/rDock/src/rDock_2013.1_src/data/scripts/dock_solv.prm

>  <Rbt.Receptor>
prm/pocket_docking_4.prm

>  <SCORE>
-42.2105

>  <SCORE.INTER>
-45.8096

>  <SCORE.INTER.CONST>
1

>  <SCORE.INTER.POLAR>
-4.41519

>  <SCORE.INTER.ROT>
2

>  <SCORE.INTER.SOLV>
15.4523

>  <SCORE.INTER.VDW>
-25.9065

>  <SCORE.INTER.norm>
-3.52381

>  <SCORE.INTRA>
3.59462

>  <SCORE.INTRA.DIHEDRAL>
1.72731

>  <SCORE.INTRA.DIHEDRAL.0>
1.43995

>  <SCORE.INTRA.POLAR>
0.189514

>  <SCORE.INTRA.POLAR.0>
-0.272593

>  <SCORE.INTRA.REPUL>
0

>  <SCORE.INTRA.REPUL.0>
0

>  <SCORE.INTRA.SOLV>
0.362348

>  <SCORE.INTRA.SOLV.lig_0>
-22.6728

>  <SCORE.INTRA.VDW>
1.90545

>  <SCORE.INTRA.VDW.0>
-0.754459

>  <SCORE.INTRA.norm>
0.27651

>  <SCORE.RESTR>
0.0044608

>  <SCORE.RESTR.CAVITY>
0.0044608

>  <SCORE.RESTR.norm>
0.000343138

>  <SCORE.SYSTEM>
0

>  <SCORE.SYSTEM.CONST>
0

>  <SCORE.SYSTEM.DIHEDRAL>
0

>  <SCORE.SYSTEM.SOLV>
0

>  <SCORE.SYSTEM.norm>
0

>  <SCORE.heavy>
13

>  <SCORE.norm>
-3.24696

>  <RMSD>
4.606

$$$$
lig.pdb
 OpenBabel11021811453D
libRbt.so/2013.1/901 2013/11/27
 13 14  0  0  0  0  0  0  0  0999 V2000
    2.7342   -0.2972   -1.7447 N   0  0  0  0  0  0  0  0  0  0  0  0
    1.4608   -0.4801   -1.2641 C   0  0  0  0  0  0  0  0  0  0  0  0
    0.4804    0.3343   -1.6391 N   0  0  0  0  0  0  0  0  0  0  0  0
    0.7024    1.3686   -2.5082 C   0  0  0  0  0  0  0  0  0  0  0  0
    2.0043    1.5987   -3.0213 C   0  0  0  0  0  0  0  0  0  0  0  0
    3.0426    0.7144   -2.6120 C   0  0  0  0  0  0  0  0  0  0  0  0
    4.1818    0.8482   -3.0207 O   0  0  0  0  0  0  0  0  0  0  0  0
    1.9143    2.7782   -3.8817 C   0  0  0  0  0  0  0  0  0  0  0  0
    3.0434    3.4578   -4.6080 C   0  0  0  0  0  0  0  0  0  0  0  0
    4.1787    2.5327   -4.7296 N   0  0  0  0  0  0  0  0  0  0  0  0
    0.6272    3.1475   -3.8711 C   0  0  0  0  0  0  0  0  0  0  0  0
   -0.0964    2.3228   -3.0510 N   0  0  0  0  0  0  0  0  0  0  0  0
    1.1994   -1.5120   -0.4015 N   0  0  0  0  0  0  0  0  0  0  0  0
  1  6  1  0  0  0  0
  2  1  1  0  0  0  0
  2  3  2  0  0  0  0
  3  4  1  0  0  0  0
  4  5  2  0  0  0  0
  4 12  1  0  0  0  0
  5  8  1  0  0  0  0
  6  7  2  0  0  0  0
  6  5  1  0  0  0  0
  8 11  2  0  0  0  0
  8  9  1  0  0  0  0
 10  9  1  0  0  0  0
 12 11  1  0  0  0  0
 13  2  1  0  0  0  0
M  END
>  <CHROM.1>
19.68677337,17.24112149,2.01033709,1.25253230,-2.78557558,-1.88006466,0.23056114
-0.66572031

>  <Name>
lig.pdb

>  <RI>
2.05237e+07

>  <Rbt.Current_Directory>
/home/itssahil/PROJECTS/Mol_Feturizer/New_Systems/rnas/2l1v

>  <Rbt.Executable>
rbdock ($Id: //depot/dev/client3/rdock/2013.1/src/exe/rbdock.cxx#4 $)

>  <Rbt.Library>
libRbt.so (2013.1, Build901 2013/11/27)

>  <Rbt.Parameter_File>
/export/apps/rDock/src/rDock_2013.1_src/data/scripts/dock_solv.prm

>  <Rbt.Receptor>
prm/blind_docking_100.prm

>  <SCORE>
-42.2658

>  <SCORE.INTER>
-45.8183

>  <SCORE.INTER.CONST>
1

>  <SCORE.INTER.POLAR>
-4.48932

>  <SCORE.INTER.ROT>
2

>  <SCORE.INTER.SOLV>
15.4129

>  <SCORE.INTER.VDW>
-25.6521

>  <SCORE.INTER.norm>
-3.52448

>  <SCORE.INTRA>
3.55253

>  <SCORE.INTRA.DIHEDRAL>
1.76257

>  <SCORE.INTRA.DIHEDRAL.0>
1.43995

>  <SCORE.INTRA.POLAR>
0.206386

>  <SCORE.INTRA.POLAR.0>
-0.272593

>  <SCORE.INTRA.REPUL>
0

>  <SCORE.INTRA.REPUL.0>
0

>  <SCORE.INTRA.SOLV>
0.358444

>  <SCORE.INTRA.SOLV.lig_0>
-22.6728

>  <SCORE.INTRA.VDW>
1.79031

>  <SCORE.INTRA.VDW.0>
-0.754459

>  <SCORE.INTRA.norm>
0.273272

>  <SCORE.RESTR>
0

>  <SCORE.RESTR.CAVITY>
0

>  <SCORE.RESTR.norm>
0

>  <SCORE.SYSTEM>
0

>  <SCORE.SYSTEM.CONST>
0

>  <SCORE.SYSTEM.DIHEDRAL>
0

>  <SCORE.SYSTEM.SOLV>
0

>  <SCORE.SYSTEM.norm>
0

>  <SCORE.heavy>
13

>  <SCORE.norm>
-3.25121

>  <RMSD>
4.607

$$$$
lig.pdb
 OpenBabel11021811453D
libRbt.so/2013.1/901 2013/11/27
 13 14  0  0  0  0  0  0  0  0999 V2000
    2.7334   -0.3071   -1.7442 N   0  0  0  0  0  0  0  0  0  0  0  0
    1.4595   -0.4842   -1.2624 C   0  0  0  0  0  0  0  0  0  0  0  0
    0.4827    0.3351   -1.6361 N   0  0  0  0  0  0  0  0  0  0  0  0
    0.7087    1.3687   -2.5049 C   0  0  0  0  0  0  0  0  0  0  0  0
    2.0112    1.5928   -3.0192 C   0  0  0  0  0  0  0  0  0  0  0  0
    3.0457    0.7034   -2.6113 C   0  0  0  0  0  0  0  0  0  0  0  0
    4.1852    0.8320   -3.0210 O   0  0  0  0  0  0  0  0  0  0  0  0
    1.9260    2.7732   -3.8790 C   0  0  0  0  0  0  0  0  0  0  0  0
    3.0577    3.4478   -4.6060 C   0  0  0  0  0  0  0  0  0  0  0  0
    4.1806    2.5105   -4.7476 N   0  0  0  0  0  0  0  0  0  0  0  0
    0.6407    3.1485   -3.8669 C   0  0  0  0  0  0  0  0  0  0  0  0
   -0.0860    2.3269   -3.0466 N   0  0  0  0  0  0  0  0  0  0  0  0
    1.1941   -1.5152   -0.4000 N   0  0  0  0  0  0  0  0  0  0  0  0
  1  6  1  0  0  0  0
  2  1  1  0  0  0  0
  2  3  2  0  0  0  0
  3  4  1  0  0  0  0
  4  5  2  0  0  0  0
  4 12  1  0  0  0  0
  5  8  1  0  0  0  0
  6  7  2  0  0  0  0
  6  5  1  0  0  0  0
  8 11  2  0  0  0  0
  8  9  1  0  0  0  0
 10  9  1  0  0  0  0
 12 11  1  0  0  0  0
 13  2  1  0  0  0  0
M  END
>  <CHROM.1>
20.56763016,12.15482985,2.01515502,1.24593431,-2.78533102,-1.88285058,0.23618606
-0.66540467

>  <Name>
lig.pdb

>  <RI>
2.05237e+07

>  <Rbt.Current_Directory>
/home/itssahil/PROJECTS/Mol_Feturizer/New_Systems/rnas/2l1v

>  <Rbt.Executable>
rbdock ($Id: //depot/dev/client3/rdock/2013.1/src/exe/rbdock.cxx#4 $)

>  <Rbt.Library>
libRbt.so (2013.1, Build901 2013/11/27)

>  <Rbt.Parameter_File>
/export/apps/rDock/src/rDock_2013.1_src/data/scripts/dock_solv.prm

>  <Rbt.Receptor>
prm/blind_docking_100.prm

>  <SCORE>
-42.2632

>  <SCORE.INTER>
-45.8182

>  <SCORE.INTER.CONST>
1

>  <SCORE.INTER.POLAR>
-4.46855

>  <SCORE.INTER.ROT>
2

>  <SCORE.INTER.SOLV>
15.4109

>  <SCORE.INTER.VDW>
-25.7206

>  <SCORE.INTER.norm>
-3.52447

>  <SCORE.INTRA>
3.55493

>  <SCORE.INTRA.DIHEDRAL>
1.70777

>  <SCORE.INTRA.DIHEDRAL.0>
1.43995

>  <SCORE.INTRA.POLAR>
0.194341

>  <SCORE.INTRA.POLAR.0>
-0.272593

>  <SCORE.INTRA.REPUL>
0

>  <SCORE.INTRA.REPUL.0>
0

>  <SCORE.INTRA.SOLV>
0.359744

>  <SCORE.INTRA.SOLV.lig_0>
-22.6728

>  <SCORE.INTRA.VDW>
1.86042

>  <SCORE.INTRA.VDW.0>
-0.754459

>  <SCORE.INTRA.norm>
0.273456

>  <SCORE.RESTR>
0

>  <SCORE.RESTR.CAVITY>
0

>  <SCORE.RESTR.norm>
0

>  <SCORE.SYSTEM>
0

>  <SCORE.SYSTEM.CONST>
0

>  <SCORE.SYSTEM.DIHEDRAL>
0

>  <SCORE.SYSTEM.SOLV>
0

>  <SCORE.SYSTEM.norm>
0

>  <SCORE.heavy>
13

>  <SCORE.norm>
-3.25102

>  <RMSD>
4.609

$$$$
lig.pdb
 OpenBabel11021811453D
libRbt.so/2013.1/901 2013/11/27
 13 14  0  0  0  0  0  0  0  0999 V2000
    2.7380   -0.3063   -1.7326 N   0  0  0  0  0  0  0  0  0  0  0  0
    1.4647   -0.4827   -1.2490 C   0  0  0  0  0  0  0  0  0  0  0  0
    0.4867    0.3338   -1.6255 N   0  0  0  0  0  0  0  0  0  0  0  0
    0.7109    1.3639   -2.4991 C   0  0  0  0  0  0  0  0  0  0  0  0
    2.0127    1.5872   -3.0153 C   0  0  0  0  0  0  0  0  0  0  0  0
    3.0485    0.7007   -2.6043 C   0  0  0  0  0  0  0  0  0  0  0  0
    4.1875    0.8288   -3.0155 O   0  0  0  0  0  0  0  0  0  0  0  0
    1.9256    2.7637   -3.8803 C   0  0  0  0  0  0  0  0  0  0  0  0
    3.0560    3.4363   -4.6112 C   0  0  0  0  0  0  0  0  0  0  0  0
    4.1694    2.4911   -4.7732 N   0  0  0  0  0  0  0  0  0  0  0  0
    0.6398    3.1376   -3.8688 C   0  0  0  0  0  0  0  0  0  0  0  0
   -0.0853    2.3189   -3.0443 N   0  0  0  0  0  0  0  0  0  0  0  0
    1.2011   -1.5102   -0.3819 N   0  0  0  0  0  0  0  0  0  0  0  0
  1  6  1  0  0  0  0
  2  1  1  0  0  0  0
  2  3  2  0  0  0  0
  3  4  1  0  0  0  0
  4  5  2  0  0  0  0
  4 12  1  0  0  0  0
  5  8  1  0  0  0  0
  6  7  2  0  0  0  0
  6  5  1  0  0  0  0
  8 11  2  0  0  0  0
  8  9  1  0  0  0  0
 10  9  1  0  0  0  0
 12 11  1  0  0  0  0
 13  2  1  0  0  0  0
M  END
>  <CHROM.1>
21.69475636,-168.81136859,2.01618448,1.24049185,-2.78253662,-1.88085716,0.23882980
-0.67135113

>  <Name>
lig.pdb

>  <RI>
2.7104e+07

>  <Rbt.Current_Directory>
/home/itssahil/PROJECTS/Mol_Feturizer/New_Systems/rnas/2l1v

>  <Rbt.Executable>
rbdock ($Id: //depot/dev/client3/rdock/2013.1/src/exe/rbdock.cxx#4 $)

>  <Rbt.Library>
libRbt.so (2013.1, Build901 2013/11/27)

>  <Rbt.Parameter_File>
/export/apps/rDock/src/rDock_2013.1_src/data/scripts/dock_solv.prm

>  <Rbt.Receptor>
prm/pocket_docking_8.prm

>  <SCORE>
-42.4499

>  <SCORE.INTER>
-45.8097

>  <SCORE.INTER.CONST>
1

>  <SCORE.INTER.POLAR>
-4.41255

>  <SCORE.INTER.ROT>
2

>  <SCORE.INTER.SOLV>
15.3806

>  <SCORE.INTER.VDW>
-25.8915

>  <SCORE.INTER.norm>
-3.52382

>  <SCORE.INTRA>
3.35974

>  <SCORE.INTRA.DIHEDRAL>
1.56928

>  <SCORE.INTRA.DIHEDRAL.0>
1.43995

>  <SCORE.INTRA.POLAR>
0.216644

>  <SCORE.INTRA.POLAR.0>
-0.272593

>  <SCORE.INTRA.REPUL>
0

>  <SCORE.INTRA.REPUL.0>
0

>  <SCORE.INTRA.SOLV>
0.346289

>  <SCORE.INTRA.SOLV.lig_0>
-22.6728

>  <SCORE.INTRA.VDW>
1.66537

>  <SCORE.INTRA.VDW.0>
-0.754459

>  <SCORE.INTRA.norm>
0.258442

>  <SCORE.RESTR>
0

>  <SCORE.RESTR.CAVITY>
0

>  <SCORE.RESTR.norm>
0

>  <SCORE.SYSTEM>
0

>  <SCORE.SYSTEM.CONST>
0

>  <SCORE.SYSTEM.DIHEDRAL>
0

>  <SCORE.SYSTEM.SOLV>
0

>  <SCORE.SYSTEM.norm>
0

>  <SCORE.heavy>
13

>  <SCORE.norm>
-3.26538

>  <RMSD>
4.610

$$$$
lig.pdb
 OpenBabel11021811453D
libRbt.so/2013.1/901 2013/11/27
 13 14  0  0  0  0  0  0  0  0999 V2000
    2.7413   -0.3112   -1.7425 N   0  0  0  0  0  0  0  0  0  0  0  0
    1.4661   -0.4838   -1.2627 C   0  0  0  0  0  0  0  0  0  0  0  0
    0.4924    0.3379   -1.6391 N   0  0  0  0  0  0  0  0  0  0  0  0
    0.7231    1.3697   -2.5090 C   0  0  0  0  0  0  0  0  0  0  0  0
    2.0272    1.5892   -3.0213 C   0  0  0  0  0  0  0  0  0  0  0  0
    3.0582    0.6971   -2.6104 C   0  0  0  0  0  0  0  0  0  0  0  0
    4.1987    0.8217   -3.0183 O   0  0  0  0  0  0  0  0  0  0  0  0
    1.9471    2.7687   -3.8828 C   0  0  0  0  0  0  0  0  0  0  0  0
    3.0821    3.4388   -4.6088 C   0  0  0  0  0  0  0  0  0  0  0  0
    4.1968    2.4933   -4.7600 N   0  0  0  0  0  0  0  0  0  0  0  0
    0.6629    3.1479   -3.8734 C   0  0  0  0  0  0  0  0  0  0  0  0
   -0.0678    2.3296   -3.0533 N   0  0  0  0  0  0  0  0  0  0  0  0
    1.1960   -1.5129   -0.3994 N   0  0  0  0  0  0  0  0  0  0  0  0
  1  6  1  0  0  0  0
  2  1  1  0  0  0  0
  2  3  2  0  0  0  0
  3  4  1  0  0  0  0
  4  5  2  0  0  0  0
  4 12  1  0  0  0  0
  5  8  1  0  0  0  0
  6  7  2  0  0  0  0
  6  5  1  0  0  0  0
  8 11  2  0  0  0  0
  8  9  1  0  0  0  0
 10  9  1  0  0  0  0
 12 11  1  0  0  0  0
 13  2  1  0  0  0  0
M  END
>  <CHROM.1>
21.17567730,-168.61474982,2.02901802,1.24207705,-2.78850759,-1.88612296,0.23836013
-0.66661095

>  <Name>
lig.pdb

>  <RI>
4.17264e+07

>  <Rbt.Current_Directory>
/home/itssahil/PROJECTS/Mol_Feturizer/New_Systems/rnas/2l1v

>  <Rbt.Executable>
rbdock ($Id: //depot/dev/client3/rdock/2013.1/src/exe/rbdock.cxx#4 $)

>  <Rbt.Library>
libRbt.so (2013.1, Build901 2013/11/27)

>  <Rbt.Parameter_File>
/export/apps/rDock/src/rDock_2013.1_src/data/scripts/dock_solv.prm

>  <Rbt.Receptor>
prm/blind_docking_20.prm

>  <SCORE>
-42.4585

>  <SCORE.INTER>
-45.8745

>  <SCORE.INTER.CONST>
1

>  <SCORE.INTER.POLAR>
-4.47808

>  <SCORE.INTER.ROT>
2

>  <SCORE.INTER.SOLV>
15.4223

>  <SCORE.INTER.VDW>
-25.7302

>  <SCORE.INTER.norm>
-3.52881

>  <SCORE.INTRA>
3.41603

>  <SCORE.INTRA.DIHEDRAL>
1.59502

>  <SCORE.INTRA.DIHEDRAL.0>
1.43995

>  <SCORE.INTRA.POLAR>
0.210436

>  <SCORE.INTRA.POLAR.0>
-0.272593

>  <SCORE.INTRA.REPUL>
0

>  <SCORE.INTRA.REPUL.0>
0

>  <SCORE.INTRA.SOLV>
0.350255

>  <SCORE.INTRA.SOLV.lig_0>
-22.6728

>  <SCORE.INTRA.VDW>
1.72791

>  <SCORE.INTRA.VDW.0>
-0.754459

>  <SCORE.INTRA.norm>
0.262772

>  <SCORE.RESTR>
0

>  <SCORE.RESTR.CAVITY>
0

>  <SCORE.RESTR.norm>
0

>  <SCORE.SYSTEM>
0

>  <SCORE.SYSTEM.CONST>
0

>  <SCORE.SYSTEM.DIHEDRAL>
0

>  <SCORE.SYSTEM.SOLV>
0

>  <SCORE.SYSTEM.norm>
0

>  <SCORE.heavy>
13

>  <SCORE.norm>
-3.26604

>  <RMSD>
4.611

$$$$
lig.pdb
 OpenBabel11021811453D
libRbt.so/2013.1/901 2013/11/27
 13 14  0  0  0  0  0  0  0  0999 V2000
    2.6999   -0.3633   -1.8890 N   0  0  0  0  0  0  0  0  0  0  0  0
    1.4379   -0.4923   -1.3628 C   0  0  0  0  0  0  0  0  0  0  0  0
    0.4859    0.3761   -1.6861 N   0  0  0  0  0  0  0  0  0  0  0  0
    0.7262    1.4141   -2.5458 C   0  0  0  0  0  0  0  0  0  0  0  0
    2.0177    1.5894   -3.1048 C   0  0  0  0  0  0  0  0  0  0  0  0
    3.0254    0.6478   -2.7505 C   0  0  0  0  0  0  0  0  0  0  0  0
    4.1537    0.7330   -3.2005 O   0  0  0  0  0  0  0  0  0  0  0  0
    1.9543    2.7877   -3.9414 C   0  0  0  0  0  0  0  0  0  0  0  0
    3.0878    3.4244   -4.6992 C   0  0  0  0  0  0  0  0  0  0  0  0
    4.3695    2.9653   -4.1461 N   0  0  0  0  0  0  0  0  0  0  0  0
    0.6885    3.2195   -3.8750 C   0  0  0  0  0  0  0  0  0  0  0  0
   -0.0439    2.4163   -3.0416 N   0  0  0  0  0  0  0  0  0  0  0  0
    1.1581   -1.5259   -0.5080 N   0  0  0  0  0  0  0  0  0  0  0  0
  1  6  1  0  0  0  0
  2  1  1  0  0  0  0
  2  3  2  0  0  0  0
  3  4  1  0  0  0  0
  4  5  2  0  0  0  0
  4 12  1  0  0  0  0
  5  8  1  0  0  0  0
  6  7  2  0  0  0  0
  6  5  1  0  0  0  0
  8 11  2  0  0  0  0
  8  9  1  0  0  0  0
 10  9  1  0  0  0  0
 12 11  1  0  0  0  0
 13  2  1  0  0  0  0
M  END
>  <CHROM.1>
-19.12683435,-6.78972020,2.03398253,1.28760142,-2.80689852,-1.90083651,0.20597791
-0.61022387

>  <Name>
lig.pdb

>  <RI>
2.05237e+07

>  <Rbt.Current_Directory>
/home/itssahil/PROJECTS/Mol_Feturizer/New_Systems/rnas/2l1v

>  <Rbt.Executable>
rbdock ($Id: //depot/dev/client3/rdock/2013.1/src/exe/rbdock.cxx#4 $)

>  <Rbt.Library>
libRbt.so (2013.1, Build901 2013/11/27)

>  <Rbt.Parameter_File>
/export/apps/rDock/src/rDock_2013.1_src/data/scripts/dock_solv.prm

>  <Rbt.Receptor>
prm/blind_docking_100.prm

>  <SCORE>
-42.1812

>  <SCORE.INTER>
-45.9795

>  <SCORE.INTER.CONST>
1

>  <SCORE.INTER.POLAR>
-4.87264

>  <SCORE.INTER.ROT>
2

>  <SCORE.INTER.SOLV>
15.8195

>  <SCORE.INTER.VDW>
-24.6173

>  <SCORE.INTER.norm>
-3.53688

>  <SCORE.INTRA>
3.79822

>  <SCORE.INTRA.DIHEDRAL>
1.6294

>  <SCORE.INTRA.DIHEDRAL.0>
1.43995

>  <SCORE.INTRA.POLAR>
0.265174

>  <SCORE.INTRA.POLAR.0>
-0.272593

>  <SCORE.INTRA.REPUL>
0

>  <SCORE.INTRA.REPUL.0>
0

>  <SCORE.INTRA.SOLV>
0.360966

>  <SCORE.INTRA.SOLV.lig_0>
-22.6728

>  <SCORE.INTRA.VDW>
1.90144

>  <SCORE.INTRA.VDW.0>
-0.754459

>  <SCORE.INTRA.norm>
0.292171

>  <SCORE.RESTR>
0

>  <SCORE.RESTR.CAVITY>
0

>  <SCORE.RESTR.norm>
0

>  <SCORE.SYSTEM>
0

>  <SCORE.SYSTEM.CONST>
0

>  <SCORE.SYSTEM.DIHEDRAL>
0

>  <SCORE.SYSTEM.SOLV>
0

>  <SCORE.SYSTEM.norm>
0

>  <SCORE.heavy>
13

>  <SCORE.norm>
-3.24471

>  <RMSD>
4.613

$$$$
lig.pdb
 OpenBabel11021811453D
libRbt.so/2013.1/901 2013/11/27
 13 14  0  0  0  0  0  0  0  0999 V2000
    2.6898   -0.3885   -1.9501 N   0  0  0  0  0  0  0  0  0  0  0  0
    1.4333   -0.4992   -1.4067 C   0  0  0  0  0  0  0  0  0  0  0  0
    0.4922    0.3881   -1.7104 N   0  0  0  0  0  0  0  0  0  0  0  0
    0.7386    1.4279   -2.5663 C   0  0  0  0  0  0  0  0  0  0  0  0
    2.0249    1.5845   -3.1425 C   0  0  0  0  0  0  0  0  0  0  0  0
    3.0208    0.6228   -2.8092 C   0  0  0  0  0  0  0  0  0  0  0  0
    4.1438    0.6915   -3.2747 O   0  0  0  0  0  0  0  0  0  0  0  0
    1.9707    2.7896   -3.9699 C   0  0  0  0  0  0  0  0  0  0  0  0
    3.1044    3.4117   -4.7395 C   0  0  0  0  0  0  0  0  0  0  0  0
    4.3853    3.0010   -4.1479 N   0  0  0  0  0  0  0  0  0  0  0  0
    0.7138    3.2430   -3.8824 C   0  0  0  0  0  0  0  0  0  0  0  0
   -0.0207    2.4469   -3.0441 N   0  0  0  0  0  0  0  0  0  0  0  0
    1.1475   -1.5338   -0.5552 N   0  0  0  0  0  0  0  0  0  0  0  0
  1  6  1  0  0  0  0
  2  1  1  0  0  0  0
  2  3  2  0  0  0  0
  3  4  1  0  0  0  0
  4  5  2  0  0  0  0
  4 12  1  0  0  0  0
  5  8  1  0  0  0  0
  6  7  2  0  0  0  0
  6  5  1  0  0  0  0
  8 11  2  0  0  0  0
  8  9  1  0  0  0  0
 10  9  1  0  0  0  0
 12 11  1  0  0  0  0
 13  2  1  0  0  0  0
M  END
>  <CHROM.1>
-23.09769823,174.67105200,2.04005535,1.28696613,-2.84157759,-1.90597693,0.22012751
-0.59829640

>  <Name>
lig.pdb

>  <RI>
2.86608e+07

>  <Rbt.Current_Directory>
/home/itssahil/PROJECTS/Mol_Feturizer/New_Systems/rnas/2l1v

>  <Rbt.Executable>
rbdock ($Id: //depot/dev/client3/rdock/2013.1/src/exe/rbdock.cxx#4 $)

>  <Rbt.Library>
libRbt.so (2013.1, Build901 2013/11/27)

>  <Rbt.Parameter_File>
/export/apps/rDock/src/rDock_2013.1_src/data/scripts/dock_solv.prm

>  <Rbt.Receptor>
prm/pocket_docking_7.prm

>  <SCORE>
-41.9146

>  <SCORE.INTER>
-45.2366

>  <SCORE.INTER.CONST>
1

>  <SCORE.INTER.POLAR>
-4.79007

>  <SCORE.INTER.ROT>
2

>  <SCORE.INTER.SOLV>
16.0289

>  <SCORE.INTER.VDW>
-24.4671

>  <SCORE.INTER.norm>
-3.47974

>  <SCORE.INTRA>
3.27818

>  <SCORE.INTRA.DIHEDRAL>
1.4553

>  <SCORE.INTRA.DIHEDRAL.0>
1.43995

>  <SCORE.INTRA.POLAR>
0.272593

>  <SCORE.INTRA.POLAR.0>
-0.272593

>  <SCORE.INTRA.REPUL>
0

>  <SCORE.INTRA.REPUL.0>
0

>  <SCORE.INTRA.SOLV>
0.334033

>  <SCORE.INTRA.SOLV.lig_0>
-22.6728

>  <SCORE.INTRA.VDW>
1.4567

>  <SCORE.INTRA.VDW.0>
-0.754459

>  <SCORE.INTRA.norm>
0.252167

>  <SCORE.RESTR>
0.0438423

>  <SCORE.RESTR.CAVITY>
0.0438423

>  <SCORE.RESTR.norm>
0.00337249

>  <SCORE.SYSTEM>
0

>  <SCORE.SYSTEM.CONST>
0

>  <SCORE.SYSTEM.DIHEDRAL>
0

>  <SCORE.SYSTEM.SOLV>
0

>  <SCORE.SYSTEM.norm>
0

>  <SCORE.heavy>
13

>  <SCORE.norm>
-3.2242

>  <RMSD>
4.613

$$$$
lig.pdb
 OpenBabel11021811453D
libRbt.so/2013.1/901 2013/11/27
 13 14  0  0  0  0  0  0  0  0999 V2000
    2.7024   -0.3706   -1.8986 N   0  0  0  0  0  0  0  0  0  0  0  0
    1.4409   -0.4935   -1.3699 C   0  0  0  0  0  0  0  0  0  0  0  0
    0.4925    0.3796   -1.6915 N   0  0  0  0  0  0  0  0  0  0  0  0
    0.7363    1.4165   -2.5516 C   0  0  0  0  0  0  0  0  0  0  0  0
    2.0275    1.5855   -3.1131 C   0  0  0  0  0  0  0  0  0  0  0  0
    3.0312    0.6388   -2.7607 C   0  0  0  0  0  0  0  0  0  0  0  0
    4.1590    0.7186   -3.2129 O   0  0  0  0  0  0  0  0  0  0  0  0
    1.9683    2.7840   -3.9496 C   0  0  0  0  0  0  0  0  0  0  0  0
    3.1035    3.4151   -4.7096 C   0  0  0  0  0  0  0  0  0  0  0  0
    4.3836    2.9868   -4.1287 N   0  0  0  0  0  0  0  0  0  0  0  0
    0.7048    3.2220   -3.8808 C   0  0  0  0  0  0  0  0  0  0  0  0
   -0.0299    2.4224   -3.0459 N   0  0  0  0  0  0  0  0  0  0  0  0
    1.1576   -1.5257   -0.5146 N   0  0  0  0  0  0  0  0  0  0  0  0
  1  6  1  0  0  0  0
  2  1  1  0  0  0  0
  2  3  2  0  0  0  0
  3  4  1  0  0  0  0
  4  5  2  0  0  0  0
  4 12  1  0  0  0  0
  5  8  1  0  0  0  0
  6  7  2  0  0  0  0
  6  5  1  0  0  0  0
  8 11  2  0  0  0  0
  8  9  1  0  0  0  0
 10  9  1  0  0  0  0
 12 11  1  0  0  0  0
 13  2  1  0  0  0  0
M  END
>  <CHROM.1>
-21.10650361,174.64541633,2.04282116,1.28669938,-2.81260910,-1.90315543,0.20669850
-0.60790647

>  <Name>
lig.pdb

>  <RI>
4.15415e+07

>  <Rbt.Current_Directory>
/home/itssahil/PROJECTS/Mol_Feturizer/New_Systems/rnas/2l1v

>  <Rbt.Executable>
rbdock ($Id: //depot/dev/client3/rdock/2013.1/src/exe/rbdock.cxx#4 $)

>  <Rbt.Library>
libRbt.so (2013.1, Build901 2013/11/27)

>  <Rbt.Parameter_File>
/export/apps/rDock/src/rDock_2013.1_src/data/scripts/dock_solv.prm

>  <Rbt.Receptor>
prm/blind_docking_60.prm

>  <SCORE>
-41.9784

>  <SCORE.INTER>
-45.6018

>  <SCORE.INTER.CONST>
1

>  <SCORE.INTER.POLAR>
-4.8703

>  <SCORE.INTER.ROT>
2

>  <SCORE.INTER.SOLV>
15.8621

>  <SCORE.INTER.VDW>
-24.3876

>  <SCORE.INTER.norm>
-3.50783

>  <SCORE.INTRA>
3.62338

>  <SCORE.INTRA.DIHEDRAL>
1.56231

>  <SCORE.INTRA.DIHEDRAL.0>
1.43995

>  <SCORE.INTRA.POLAR>
0.272593

>  <SCORE.INTRA.POLAR.0>
-0.272593

>  <SCORE.INTRA.REPUL>
0

>  <SCORE.INTRA.REPUL.0>
0

>  <SCORE.INTRA.SOLV>
0.351341

>  <SCORE.INTRA.SOLV.lig_0>
-22.6728

>  <SCORE.INTRA.VDW>
1.73974

>  <SCORE.INTRA.VDW.0>
-0.754459

>  <SCORE.INTRA.norm>
0.278722

>  <SCORE.RESTR>
0

>  <SCORE.RESTR.CAVITY>
0

>  <SCORE.RESTR.norm>
0

>  <SCORE.SYSTEM>
0

>  <SCORE.SYSTEM.CONST>
0

>  <SCORE.SYSTEM.DIHEDRAL>
0

>  <SCORE.SYSTEM.SOLV>
0

>  <SCORE.SYSTEM.norm>
0

>  <SCORE.heavy>
13

>  <SCORE.norm>
-3.22911

>  <RMSD>
4.615

$$$$
lig.pdb
 OpenBabel11021811453D
libRbt.so/2013.1/901 2013/11/27
 13 14  0  0  0  0  0  0  0  0999 V2000
    2.6996   -0.3713   -1.8743 N   0  0  0  0  0  0  0  0  0  0  0  0
    1.4320   -0.5051   -1.3630 C   0  0  0  0  0  0  0  0  0  0  0  0
    0.4801    0.3587   -1.6990 N   0  0  0  0  0  0  0  0  0  0  0  0
    0.7262    1.3965   -2.5574 C   0  0  0  0  0  0  0  0  0  0  0  0
    2.0235    1.5766   -3.1012 C   0  0  0  0  0  0  0  0  0  0  0  0
    3.0310    0.6398   -2.7335 C   0  0  0  0  0  0  0  0  0  0  0  0
    4.1641    0.7294   -3.1701 O   0  0  0  0  0  0  0  0  0  0  0  0
    1.9649    2.7734   -3.9403 C   0  0  0  0  0  0  0  0  0  0  0  0
    3.1046    3.4138   -4.6856 C   0  0  0  0  0  0  0  0  0  0  0  0
    4.3815    2.9626   -4.1153 N   0  0  0  0  0  0  0  0  0  0  0  0
    0.6965    3.1997   -3.8897 C   0  0  0  0  0  0  0  0  0  0  0  0
   -0.0423    2.3946   -3.0639 N   0  0  0  0  0  0  0  0  0  0  0  0
    1.1465   -1.5386   -0.5101 N   0  0  0  0  0  0  0  0  0  0  0  0
  1  6  1  0  0  0  0
  2  1  1  0  0  0  0
  2  3  2  0  0  0  0
  3  4  1  0  0  0  0
  4  5  2  0  0  0  0
  4 12  1  0  0  0  0
  5  8  1  0  0  0  0
  6  7  2  0  0  0  0
  6  5  1  0  0  0  0
  8 11  2  0  0  0  0
  8  9  1  0  0  0  0
 10  9  1  0  0  0  0
 12 11  1  0  0  0  0
 13  2  1  0  0  0  0
M  END
>  <CHROM.1>
-19.20732497,-7.29861151,2.03753124,1.27543559,-2.80255037,-1.90416360,0.19358073
-0.61101104

>  <Name>
lig.pdb

>  <RI>
2.05237e+07

>  <Rbt.Current_Directory>
/home/itssahil/PROJECTS/Mol_Feturizer/New_Systems/rnas/2l1v

>  <Rbt.Executable>
rbdock ($Id: //depot/dev/client3/rdock/2013.1/src/exe/rbdock.cxx#4 $)

>  <Rbt.Library>
libRbt.so (2013.1, Build901 2013/11/27)

>  <Rbt.Parameter_File>
/export/apps/rDock/src/rDock_2013.1_src/data/scripts/dock_solv.prm

>  <Rbt.Receptor>
prm/blind_docking_100.prm

>  <SCORE>
-42.2552

>  <SCORE.INTER>
-46.0242

>  <SCORE.INTER.CONST>
1

>  <SCORE.INTER.POLAR>
-4.9653

>  <SCORE.INTER.ROT>
2

>  <SCORE.INTER.SOLV>
15.8364

>  <SCORE.INTER.VDW>
-24.344

>  <SCORE.INTER.norm>
-3.54033

>  <SCORE.INTRA>
3.76905

>  <SCORE.INTRA.DIHEDRAL>
1.6237

>  <SCORE.INTRA.DIHEDRAL.0>
1.43995

>  <SCORE.INTRA.POLAR>
0.267623

>  <SCORE.INTRA.POLAR.0>
-0.272593

>  <SCORE.INTRA.REPUL>
0

>  <SCORE.INTRA.REPUL.0>
0

>  <SCORE.INTRA.SOLV>
0.359684

>  <SCORE.INTRA.SOLV.lig_0>
-22.6728

>  <SCORE.INTRA.VDW>
1.86743

>  <SCORE.INTRA.VDW.0>
-0.754459

>  <SCORE.INTRA.norm>
0.289927

>  <SCORE.RESTR>
0

>  <SCORE.RESTR.CAVITY>
0

>  <SCORE.RESTR.norm>
0

>  <SCORE.SYSTEM>
0

>  <SCORE.SYSTEM.CONST>
0

>  <SCORE.SYSTEM.DIHEDRAL>
0

>  <SCORE.SYSTEM.SOLV>
0

>  <SCORE.SYSTEM.norm>
0

>  <SCORE.heavy>
13

>  <SCORE.norm>
-3.2504

>  <RMSD>
4.616

$$$$
lig.pdb
 OpenBabel11021811453D
libRbt.so/2013.1/901 2013/11/27
 13 14  0  0  0  0  0  0  0  0999 V2000
    2.7033   -0.3746   -1.8880 N   0  0  0  0  0  0  0  0  0  0  0  0
    1.4390   -0.5013   -1.3667 C   0  0  0  0  0  0  0  0  0  0  0  0
    0.4880    0.3647   -1.6993 N   0  0  0  0  0  0  0  0  0  0  0  0
    0.7317    1.3981   -2.5637 C   0  0  0  0  0  0  0  0  0  0  0  0
    2.0256    1.5709   -3.1178 C   0  0  0  0  0  0  0  0  0  0  0  0
    3.0322    0.6318   -2.7537 C   0  0  0  0  0  0  0  0  0  0  0  0
    4.1624    0.7151   -3.1990 O   0  0  0  0  0  0  0  0  0  0  0  0
    1.9654    2.7645   -3.9614 C   0  0  0  0  0  0  0  0  0  0  0  0
    3.1020    3.3974   -4.7176 C   0  0  0  0  0  0  0  0  0  0  0  0
    4.3805    2.9829   -4.1235 N   0  0  0  0  0  0  0  0  0  0  0  0
    0.6991    3.1959   -3.9032 C   0  0  0  0  0  0  0  0  0  0  0  0
   -0.0366    2.3971   -3.0685 N   0  0  0  0  0  0  0  0  0  0  0  0
    1.1559   -1.5303   -0.5075 N   0  0  0  0  0  0  0  0  0  0  0  0
  1  6  1  0  0  0  0
  2  1  1  0  0  0  0
  2  3  2  0  0  0  0
  3  4  1  0  0  0  0
  4  5  2  0  0  0  0
  4 12  1  0  0  0  0
  5  8  1  0  0  0  0
  6  7  2  0  0  0  0
  6  5  1  0  0  0  0
  8 11  2  0  0  0  0
  8  9  1  0  0  0  0
 10  9  1  0  0  0  0
 12 11  1  0  0  0  0
 13  2  1  0  0  0  0
M  END
>  <CHROM.1>
-21.29112393,174.51979534,2.04061422,1.27428829,-2.81528858,-1.90232678,0.19797349
-0.61350936

>  <Name>
lig.pdb

>  <RI>
9.54411e+06

>  <Rbt.Current_Directory>
/home/itssahil/PROJECTS/Mol_Feturizer/New_Systems/rnas/2l1v

>  <Rbt.Executable>
rbdock ($Id: //depot/dev/client3/rdock/2013.1/src/exe/rbdock.cxx#4 $)

>  <Rbt.Library>
libRbt.so (2013.1, Build901 2013/11/27)

>  <Rbt.Parameter_File>
/export/apps/rDock/src/rDock_2013.1_src/data/scripts/dock_solv.prm

>  <Rbt.Receptor>
prm/pocket_docking_6.prm

>  <SCORE>
-42.0241

>  <SCORE.INTER>
-45.6097

>  <SCORE.INTER.CONST>
1

>  <SCORE.INTER.POLAR>
-4.89892

>  <SCORE.INTER.ROT>
2

>  <SCORE.INTER.SOLV>
15.8497

>  <SCORE.INTER.VDW>
-24.2933

>  <SCORE.INTER.norm>
-3.50844

>  <SCORE.INTRA>
3.58554

>  <SCORE.INTRA.DIHEDRAL>
1.55301

>  <SCORE.INTRA.DIHEDRAL.0>
1.43995

>  <SCORE.INTRA.POLAR>
0.272593

>  <SCORE.INTRA.POLAR.0>
-0.272593

>  <SCORE.INTRA.REPUL>
0

>  <SCORE.INTRA.REPUL.0>
0

>  <SCORE.INTRA.SOLV>
0.349654

>  <SCORE.INTRA.SOLV.lig_0>
-22.6728

>  <SCORE.INTRA.VDW>
1.7074

>  <SCORE.INTRA.VDW.0>
-0.754459

>  <SCORE.INTRA.norm>
0.275811

>  <SCORE.RESTR>
0

>  <SCORE.RESTR.CAVITY>
0

>  <SCORE.RESTR.norm>
0

>  <SCORE.SYSTEM>
0

>  <SCORE.SYSTEM.CONST>
0

>  <SCORE.SYSTEM.DIHEDRAL>
0

>  <SCORE.SYSTEM.SOLV>
0

>  <SCORE.SYSTEM.norm>
0

>  <SCORE.heavy>
13

>  <SCORE.norm>
-3.23262

>  <RMSD>
4.616

$$$$
lig.pdb
 OpenBabel11021811453D
libRbt.so/2013.1/901 2013/11/27
 13 14  0  0  0  0  0  0  0  0999 V2000
    2.6670   -0.4193   -1.9630 N   0  0  0  0  0  0  0  0  0  0  0  0
    1.4032   -0.5340   -1.4377 C   0  0  0  0  0  0  0  0  0  0  0  0
    0.4671    0.3570   -1.7454 N   0  0  0  0  0  0  0  0  0  0  0  0
    0.7258    1.4048   -2.5877 C   0  0  0  0  0  0  0  0  0  0  0  0
    2.0198    1.5658   -3.1450 C   0  0  0  0  0  0  0  0  0  0  0  0
    3.0103    0.6000   -2.8077 C   0  0  0  0  0  0  0  0  0  0  0  0
    4.1397    0.6722   -3.2573 O   0  0  0  0  0  0  0  0  0  0  0  0
    1.9778    2.7790   -3.9613 C   0  0  0  0  0  0  0  0  0  0  0  0
    3.1222    3.4075   -4.7094 C   0  0  0  0  0  0  0  0  0  0  0  0
    4.3950    2.9811   -4.1115 N   0  0  0  0  0  0  0  0  0  0  0  0
    0.7201    3.2327   -3.8863 C   0  0  0  0  0  0  0  0  0  0  0  0
   -0.0262    2.4291   -3.0658 N   0  0  0  0  0  0  0  0  0  0  0  0
    1.1052   -1.5766   -0.6002 N   0  0  0  0  0  0  0  0  0  0  0  0
  1  6  1  0  0  0  0
  2  1  1  0  0  0  0
  2  3  2  0  0  0  0
  3  4  1  0  0  0  0
  4  5  2  0  0  0  0
  4 12  1  0  0  0  0
  5  8  1  0  0  0  0
  6  7  2  0  0  0  0
  6  5  1  0  0  0  0
  8 11  2  0  0  0  0
  8  9  1  0  0  0  0
 10  9  1  0  0  0  0
 12 11  1  0  0  0  0
 13  2  1  0  0  0  0
M  END
>  <CHROM.1>
-22.63756738,174.42595013,2.03071635,1.26457923,-2.84744118,-1.91457983,0.21033959
-0.58720583

>  <Name>
lig.pdb

>  <RI>
2.7104e+07

>  <Rbt.Current_Directory>
/home/itssahil/PROJECTS/Mol_Feturizer/New_Systems/rnas/2l1v

>  <Rbt.Executable>
rbdock ($Id: //depot/dev/client3/rdock/2013.1/src/exe/rbdock.cxx#4 $)

>  <Rbt.Library>
libRbt.so (2013.1, Build901 2013/11/27)

>  <Rbt.Parameter_File>
/export/apps/rDock/src/rDock_2013.1_src/data/scripts/dock_solv.prm

>  <Rbt.Receptor>
prm/pocket_docking_8.prm

>  <SCORE>
-41.8498

>  <SCORE.INTER>
-45.1974

>  <SCORE.INTER.CONST>
1

>  <SCORE.INTER.POLAR>
-4.9007

>  <SCORE.INTER.ROT>
2

>  <SCORE.INTER.SOLV>
16.1885

>  <SCORE.INTER.VDW>
-24.1254

>  <SCORE.INTER.norm>
-3.47672

>  <SCORE.INTRA>
3.34756

>  <SCORE.INTRA.DIHEDRAL>
1.48121

>  <SCORE.INTRA.DIHEDRAL.0>
1.43995

>  <SCORE.INTRA.POLAR>
0.272593

>  <SCORE.INTRA.POLAR.0>
-0.272593

>  <SCORE.INTRA.REPUL>
0

>  <SCORE.INTRA.REPUL.0>
0

>  <SCORE.INTRA.SOLV>
0.337877

>  <SCORE.INTRA.SOLV.lig_0>
-22.6728

>  <SCORE.INTRA.VDW>
1.5112

>  <SCORE.INTRA.VDW.0>
-0.754459

>  <SCORE.INTRA.norm>
0.257505

>  <SCORE.RESTR>
0

>  <SCORE.RESTR.CAVITY>
0

>  <SCORE.RESTR.norm>
0

>  <SCORE.SYSTEM>
0

>  <SCORE.SYSTEM.CONST>
0

>  <SCORE.SYSTEM.DIHEDRAL>
0

>  <SCORE.SYSTEM.SOLV>
0

>  <SCORE.SYSTEM.norm>
0

>  <SCORE.heavy>
13

>  <SCORE.norm>
-3.21922

>  <RMSD>
4.616

$$$$
lig.pdb
 OpenBabel11021811453D
libRbt.so/2013.1/901 2013/11/27
 13 14  0  0  0  0  0  0  0  0999 V2000
    2.7177   -0.3565   -1.8190 N   0  0  0  0  0  0  0  0  0  0  0  0
    1.4490   -0.4949   -1.3116 C   0  0  0  0  0  0  0  0  0  0  0  0
    0.4915    0.3567   -1.6622 N   0  0  0  0  0  0  0  0  0  0  0  0
    0.7326    1.3861   -2.5320 C   0  0  0  0  0  0  0  0  0  0  0  0
    2.0308    1.5707   -3.0723 C   0  0  0  0  0  0  0  0  0  0  0  0
    3.0444    0.6470   -2.6889 C   0  0  0  0  0  0  0  0  0  0  0  0
    4.1787    0.7408   -3.1216 O   0  0  0  0  0  0  0  0  0  0  0  0
    1.9658    2.7567   -3.9261 C   0  0  0  0  0  0  0  0  0  0  0  0
    3.1034    3.3977   -4.6740 C   0  0  0  0  0  0  0  0  0  0  0  0
    4.3818    2.9541   -4.1010 N   0  0  0  0  0  0  0  0  0  0  0  0
    0.6937    3.1728   -3.8862 C   0  0  0  0  0  0  0  0  0  0  0  0
   -0.0420    2.3715   -3.0539 N   0  0  0  0  0  0  0  0  0  0  0  0
    1.1684   -1.5204   -0.4475 N   0  0  0  0  0  0  0  0  0  0  0  0
  1  6  1  0  0  0  0
  2  1  1  0  0  0  0
  2  3  2  0  0  0  0
  3  4  1  0  0  0  0
  4  5  2  0  0  0  0
  4 12  1  0  0  0  0
  5  8  1  0  0  0  0
  6  7  2  0  0  0  0
  6  5  1  0  0  0  0
  8 11  2  0  0  0  0
  8  9  1  0  0  0  0
 10  9  1  0  0  0  0
 12 11  1  0  0  0  0
 13  2  1  0  0  0  0
M  END
>  <CHROM.1>
-18.66792889,174.66696473,2.04601749,1.27198374,-2.77094032,-1.89992110,0.18651528
-0.62449410

>  <Name>
lig.pdb

>  <RI>
2.50021e+07

>  <Rbt.Current_Directory>
/home/itssahil/PROJECTS/Mol_Feturizer/New_Systems/rnas/2l1v

>  <Rbt.Executable>
rbdock ($Id: //depot/dev/client3/rdock/2013.1/src/exe/rbdock.cxx#4 $)

>  <Rbt.Library>
libRbt.so (2013.1, Build901 2013/11/27)

>  <Rbt.Parameter_File>
/export/apps/rDock/src/rDock_2013.1_src/data/scripts/dock_solv.prm

>  <Rbt.Receptor>
prm/pocket_docking_5.prm

>  <SCORE>
-41.9503

>  <SCORE.INTER>
-45.9433

>  <SCORE.INTER.CONST>
1

>  <SCORE.INTER.POLAR>
-4.96143

>  <SCORE.INTER.ROT>
2

>  <SCORE.INTER.SOLV>
15.6216

>  <SCORE.INTER.VDW>
-24.2313

>  <SCORE.INTER.norm>
-3.5341

>  <SCORE.INTRA>
3.99305

>  <SCORE.INTRA.DIHEDRAL>
1.68645

>  <SCORE.INTRA.DIHEDRAL.0>
1.43995

>  <SCORE.INTRA.POLAR>
0.245007

>  <SCORE.INTRA.POLAR.0>
-0.272593

>  <SCORE.INTRA.REPUL>
0

>  <SCORE.INTRA.REPUL.0>
0

>  <SCORE.INTRA.SOLV>
0.370729

>  <SCORE.INTRA.SOLV.lig_0>
-22.6728

>  <SCORE.INTRA.VDW>
2.13144

>  <SCORE.INTRA.VDW.0>
-0.754459

>  <SCORE.INTRA.norm>
0.307158

>  <SCORE.RESTR>
0

>  <SCORE.RESTR.CAVITY>
0

>  <SCORE.RESTR.norm>
0

>  <SCORE.SYSTEM>
0

>  <SCORE.SYSTEM.CONST>
0

>  <SCORE.SYSTEM.DIHEDRAL>
0

>  <SCORE.SYSTEM.SOLV>
0

>  <SCORE.SYSTEM.norm>
0

>  <SCORE.heavy>
13

>  <SCORE.norm>
-3.22694

>  <RMSD>
4.621

$$$$
lig.pdb
 OpenBabel11021811453D
libRbt.so/2013.1/901 2013/11/27
 13 14  0  0  0  0  0  0  0  0999 V2000
    1.6294   -0.7439   -1.5221 N   0  0  0  0  0  0  0  0  0  0  0  0
    0.3343   -0.4653   -1.1601 C   0  0  0  0  0  0  0  0  0  0  0  0
   -0.2710    0.6227   -1.6238 N   0  0  0  0  0  0  0  0  0  0  0  0
    0.3662    1.4906   -2.4694 C   0  0  0  0  0  0  0  0  0  0  0  0
    1.7070    1.2455   -2.8612 C   0  0  0  0  0  0  0  0  0  0  0  0
    2.3395    0.0732   -2.3580 C   0  0  0  0  0  0  0  0  0  0  0  0
    3.4861   -0.2034   -2.6606 O   0  0  0  0  0  0  0  0  0  0  0  0
    2.1015    2.3567   -3.7268 C   0  0  0  0  0  0  0  0  0  0  0  0
    3.4533    2.5861   -4.3469 C   0  0  0  0  0  0  0  0  0  0  0  0
    3.4985    3.9260   -4.9485 N   0  0  0  0  0  0  0  0  0  0  0  0
    1.0234    3.1436   -3.8344 C   0  0  0  0  0  0  0  0  0  0  0  0
   -0.0068    2.6425   -3.0837 N   0  0  0  0  0  0  0  0  0  0  0  0
   -0.3384   -1.3176   -0.3246 N   0  0  0  0  0  0  0  0  0  0  0  0
  1  6  1  0  0  0  0
  2  1  1  0  0  0  0
  2  3  2  0  0  0  0
  3  4  1  0  0  0  0
  4  5  2  0  0  0  0
  4 12  1  0  0  0  0
  5  8  1  0  0  0  0
  6  7  2  0  0  0  0
  6  5  1  0  0  0  0
  8 11  2  0  0  0  0
  8  9  1  0  0  0  0
 10  9  1  0  0  0  0
 12 11  1  0  0  0  0
 13  2  1  0  0  0  0
M  END
>  <CHROM.1>
-170.22669390,-20.05688129,1.50738654,1.16836994,-2.68064499,-2.03663325
0.31251690,-0.55844545

>  <Name>
lig.pdb

>  <RI>
1.77584e+07

>  <Rbt.Current_Directory>
/home/itssahil/PROJECTS/Mol_Feturizer/New_Systems/rnas/2l1v

>  <Rbt.Executable>
rbdock ($Id: //depot/dev/client3/rdock/2013.1/src/exe/rbdock.cxx#4 $)

>  <Rbt.Library>
libRbt.so (2013.1, Build901 2013/11/27)

>  <Rbt.Parameter_File>
/export/apps/rDock/src/rDock_2013.1_src/data/scripts/dock_solv.prm

>  <Rbt.Receptor>
prm/blind_docking_80.prm

>  <SCORE>
-37.6902

>  <SCORE.INTER>
-39.4646

>  <SCORE.INTER.CONST>
1

>  <SCORE.INTER.POLAR>
-2.05447

>  <SCORE.INTER.ROT>
2

>  <SCORE.INTER.SOLV>
15.7127

>  <SCORE.INTER.VDW>
-29.6324

>  <SCORE.INTER.norm>
-3.03574

>  <SCORE.INTRA>
1.77439

>  <SCORE.INTRA.DIHEDRAL>
0.0620905

>  <SCORE.INTRA.DIHEDRAL.0>
1.43995

>  <SCORE.INTRA.POLAR>
0.272593

>  <SCORE.INTRA.POLAR.0>
-0.272593

>  <SCORE.INTRA.REPUL>
0

>  <SCORE.INTRA.REPUL.0>
0

>  <SCORE.INTRA.SOLV>
-0.482844

>  <SCORE.INTRA.SOLV.lig_0>
-22.6728

>  <SCORE.INTRA.VDW>
1.05795

>  <SCORE.INTRA.VDW.0>
-0.754459

>  <SCORE.INTRA.norm>
0.136491

>  <SCORE.RESTR>
0

>  <SCORE.RESTR.CAVITY>
0

>  <SCORE.RESTR.norm>
0

>  <SCORE.SYSTEM>
0

>  <SCORE.SYSTEM.CONST>
0

>  <SCORE.SYSTEM.DIHEDRAL>
0

>  <SCORE.SYSTEM.SOLV>
0

>  <SCORE.SYSTEM.norm>
0

>  <SCORE.heavy>
13

>  <SCORE.norm>
-2.89925

>  <RMSD>
4.833

$$$$
lig.pdb
 OpenBabel11021811453D
libRbt.so/2013.1/901 2013/11/27
 13 14  0  0  0  0  0  0  0  0999 V2000
    1.6336   -0.7300   -1.5102 N   0  0  0  0  0  0  0  0  0  0  0  0
    0.3387   -0.4499   -1.1483 C   0  0  0  0  0  0  0  0  0  0  0  0
   -0.2675    0.6353   -1.6172 N   0  0  0  0  0  0  0  0  0  0  0  0
    0.3685    1.4988   -2.4683 C   0  0  0  0  0  0  0  0  0  0  0  0
    1.7089    1.2521   -2.8603 C   0  0  0  0  0  0  0  0  0  0  0  0
    2.3424    0.0828   -2.3514 C   0  0  0  0  0  0  0  0  0  0  0  0
    3.4888   -0.1950   -2.6537 O   0  0  0  0  0  0  0  0  0  0  0  0
    2.1020    2.3587   -3.7324 C   0  0  0  0  0  0  0  0  0  0  0  0
    3.4530    2.5851   -4.3553 C   0  0  0  0  0  0  0  0  0  0  0  0
    3.5018    3.9271   -4.9520 N   0  0  0  0  0  0  0  0  0  0  0  0
    1.0235    3.1446   -3.8431 C   0  0  0  0  0  0  0  0  0  0  0  0
   -0.0057    2.6472   -3.0885 N   0  0  0  0  0  0  0  0  0  0  0  0
   -0.3327   -1.2979   -0.3074 N   0  0  0  0  0  0  0  0  0  0  0  0
  1  6  1  0  0  0  0
  2  1  1  0  0  0  0
  2  3  2  0  0  0  0
  3  4  1  0  0  0  0
  4  5  2  0  0  0  0
  4 12  1  0  0  0  0
  5  8  1  0  0  0  0
  6  7  2  0  0  0  0
  6  5  1  0  0  0  0
  8 11  2  0  0  0  0
  8  9  1  0  0  0  0
 10  9  1  0  0  0  0
 12 11  1  0  0  0  0
 13  2  1  0  0  0  0
M  END
>  <CHROM.1>
-169.63914635,-20.93171789,1.50998424,1.17634594,-2.67791862,-2.03608617
0.31260242,-0.56330524

>  <Name>
lig.pdb

>  <RI>
1.77584e+07

>  <Rbt.Current_Directory>
/home/itssahil/PROJECTS/Mol_Feturizer/New_Systems/rnas/2l1v

>  <Rbt.Executable>
rbdock ($Id: //depot/dev/client3/rdock/2013.1/src/exe/rbdock.cxx#4 $)

>  <Rbt.Library>
libRbt.so (2013.1, Build901 2013/11/27)

>  <Rbt.Parameter_File>
/export/apps/rDock/src/rDock_2013.1_src/data/scripts/dock_solv.prm

>  <Rbt.Receptor>
prm/blind_docking_80.prm

>  <SCORE>
-37.6791

>  <SCORE.INTER>
-39.4459

>  <SCORE.INTER.CONST>
1

>  <SCORE.INTER.POLAR>
-2.05728

>  <SCORE.INTER.ROT>
2

>  <SCORE.INTER.SOLV>
15.6506

>  <SCORE.INTER.VDW>
-29.5899

>  <SCORE.INTER.norm>
-3.0343

>  <SCORE.INTRA>
1.76683

>  <SCORE.INTRA.DIHEDRAL>
0.0761323

>  <SCORE.INTRA.DIHEDRAL.0>
1.43995

>  <SCORE.INTRA.POLAR>
0.272593

>  <SCORE.INTRA.POLAR.0>
-0.272593

>  <SCORE.INTRA.REPUL>
0

>  <SCORE.INTRA.REPUL.0>
0

>  <SCORE.INTRA.SOLV>
-0.48374

>  <SCORE.INTRA.SOLV.lig_0>
-22.6728

>  <SCORE.INTRA.VDW>
1.04382

>  <SCORE.INTRA.VDW.0>
-0.754459

>  <SCORE.INTRA.norm>
0.13591

>  <SCORE.RESTR>
0

>  <SCORE.RESTR.CAVITY>
0

>  <SCORE.RESTR.norm>
0

>  <SCORE.SYSTEM>
0

>  <SCORE.SYSTEM.CONST>
0

>  <SCORE.SYSTEM.DIHEDRAL>
0

>  <SCORE.SYSTEM.SOLV>
0

>  <SCORE.SYSTEM.norm>
0

>  <SCORE.heavy>
13

>  <SCORE.norm>
-2.89839

>  <RMSD>
4.833

$$$$
lig.pdb
 OpenBabel11021811453D
libRbt.so/2013.1/901 2013/11/27
 13 14  0  0  0  0  0  0  0  0999 V2000
    1.6401   -0.7285   -1.5036 N   0  0  0  0  0  0  0  0  0  0  0  0
    0.3428   -0.4506   -1.1488 C   0  0  0  0  0  0  0  0  0  0  0  0
   -0.2641    0.6314   -1.6242 N   0  0  0  0  0  0  0  0  0  0  0  0
    0.3736    1.4937   -2.4751 C   0  0  0  0  0  0  0  0  0  0  0  0
    1.7165    1.2493   -2.8599 C   0  0  0  0  0  0  0  0  0  0  0  0
    2.3508    0.0834   -2.3441 C   0  0  0  0  0  0  0  0  0  0  0  0
    3.4993   -0.1923   -2.6401 O   0  0  0  0  0  0  0  0  0  0  0  0
    2.1108    2.3541   -3.7338 C   0  0  0  0  0  0  0  0  0  0  0  0
    3.4642    2.5821   -4.3510 C   0  0  0  0  0  0  0  0  0  0  0  0
    3.5016    3.9097   -4.9798 N   0  0  0  0  0  0  0  0  0  0  0  0
    1.0308    3.1367   -3.8522 C   0  0  0  0  0  0  0  0  0  0  0  0
   -0.0007    2.6390   -3.1009 N   0  0  0  0  0  0  0  0  0  0  0  0
   -0.3304   -1.2977   -0.3082 N   0  0  0  0  0  0  0  0  0  0  0  0
  1  6  1  0  0  0  0
  2  1  1  0  0  0  0
  2  3  2  0  0  0  0
  3  4  1  0  0  0  0
  4  5  2  0  0  0  0
  4 12  1  0  0  0  0
  5  8  1  0  0  0  0
  6  7  2  0  0  0  0
  6  5  1  0  0  0  0
  8 11  2  0  0  0  0
  8  9  1  0  0  0  0
 10  9  1  0  0  0  0
 12 11  1  0  0  0  0
 13  2  1  0  0  0  0
M  END
>  <CHROM.1>
-170.97965253,157.82394600,1.51594523,1.17262669,-2.68049074,-2.03538242
0.30836210,-0.56840142

>  <Name>
lig.pdb

>  <RI>
1.77584e+07

>  <Rbt.Current_Directory>
/home/itssahil/PROJECTS/Mol_Feturizer/New_Systems/rnas/2l1v

>  <Rbt.Executable>
rbdock ($Id: //depot/dev/client3/rdock/2013.1/src/exe/rbdock.cxx#4 $)

>  <Rbt.Library>
libRbt.so (2013.1, Build901 2013/11/27)

>  <Rbt.Parameter_File>
/export/apps/rDock/src/rDock_2013.1_src/data/scripts/dock_solv.prm

>  <Rbt.Receptor>
prm/blind_docking_80.prm

>  <SCORE>
-37.7068

>  <SCORE.INTER>
-39.5307

>  <SCORE.INTER.CONST>
1

>  <SCORE.INTER.POLAR>
-2.05473

>  <SCORE.INTER.ROT>
2

>  <SCORE.INTER.SOLV>
15.6257

>  <SCORE.INTER.VDW>
-29.6466

>  <SCORE.INTER.norm>
-3.04082

>  <SCORE.INTRA>
1.82385

>  <SCORE.INTRA.DIHEDRAL>
0.158233

>  <SCORE.INTRA.DIHEDRAL.0>
1.43995

>  <SCORE.INTRA.POLAR>
0.272593

>  <SCORE.INTRA.POLAR.0>
-0.272593

>  <SCORE.INTRA.REPUL>
0

>  <SCORE.INTRA.REPUL.0>
0

>  <SCORE.INTRA.SOLV>
-0.482359

>  <SCORE.INTRA.SOLV.lig_0>
-22.6728

>  <SCORE.INTRA.VDW>
1.0591

>  <SCORE.INTRA.VDW.0>
-0.754459

>  <SCORE.INTRA.norm>
0.140296

>  <SCORE.RESTR>
0

>  <SCORE.RESTR.CAVITY>
0

>  <SCORE.RESTR.norm>
0

>  <SCORE.SYSTEM>
0

>  <SCORE.SYSTEM.CONST>
0

>  <SCORE.SYSTEM.DIHEDRAL>
0

>  <SCORE.SYSTEM.SOLV>
0

>  <SCORE.SYSTEM.norm>
0

>  <SCORE.heavy>
13

>  <SCORE.norm>
-2.90052

>  <RMSD>
4.833

$$$$
lig.pdb
 OpenBabel11021811453D
libRbt.so/2013.1/901 2013/11/27
 13 14  0  0  0  0  0  0  0  0999 V2000
    1.6453   -0.7094   -1.4769 N   0  0  0  0  0  0  0  0  0  0  0  0
    0.3460   -0.4323   -1.1288 C   0  0  0  0  0  0  0  0  0  0  0  0
   -0.2616    0.6451   -1.6135 N   0  0  0  0  0  0  0  0  0  0  0  0
    0.3773    1.5035   -2.4676 C   0  0  0  0  0  0  0  0  0  0  0  0
    1.7222    1.2597   -2.8457 C   0  0  0  0  0  0  0  0  0  0  0  0
    2.3572    0.0987   -2.3199 C   0  0  0  0  0  0  0  0  0  0  0  0
    3.5075   -0.1762   -2.6098 O   0  0  0  0  0  0  0  0  0  0  0  0
    2.1173    2.3597   -3.7253 C   0  0  0  0  0  0  0  0  0  0  0  0
    3.4724    2.5869   -4.3388 C   0  0  0  0  0  0  0  0  0  0  0  0
    3.5102    3.9118   -4.9733 N   0  0  0  0  0  0  0  0  0  0  0  0
    1.0359    3.1390   -3.8528 C   0  0  0  0  0  0  0  0  0  0  0  0
    0.0028    2.6438   -3.1022 N   0  0  0  0  0  0  0  0  0  0  0  0
   -0.3283   -1.2755   -0.2853 N   0  0  0  0  0  0  0  0  0  0  0  0
  1  6  1  0  0  0  0
  2  1  1  0  0  0  0
  2  3  2  0  0  0  0
  3  4  1  0  0  0  0
  4  5  2  0  0  0  0
  4 12  1  0  0  0  0
  5  8  1  0  0  0  0
  6  7  2  0  0  0  0
  6  5  1  0  0  0  0
  8 11  2  0  0  0  0
  8  9  1  0  0  0  0
 10  9  1  0  0  0  0
 12 11  1  0  0  0  0
 13  2  1  0  0  0  0
M  END
>  <CHROM.1>
-170.83979405,159.69879261,1.52128753,1.18385357,-2.66630265,-2.03560311
0.30388539,-0.57461089

>  <Name>
lig.pdb

>  <RI>
1.77584e+07

>  <Rbt.Current_Directory>
/home/itssahil/PROJECTS/Mol_Feturizer/New_Systems/rnas/2l1v

>  <Rbt.Executable>
rbdock ($Id: //depot/dev/client3/rdock/2013.1/src/exe/rbdock.cxx#4 $)

>  <Rbt.Library>
libRbt.so (2013.1, Build901 2013/11/27)

>  <Rbt.Parameter_File>
/export/apps/rDock/src/rDock_2013.1_src/data/scripts/dock_solv.prm

>  <Rbt.Receptor>
prm/blind_docking_80.prm

>  <SCORE>
-37.7094

>  <SCORE.INTER>
-39.5595

>  <SCORE.INTER.CONST>
1

>  <SCORE.INTER.POLAR>
-2.06283

>  <SCORE.INTER.ROT>
2

>  <SCORE.INTER.SOLV>
15.5021

>  <SCORE.INTER.VDW>
-29.5976

>  <SCORE.INTER.norm>
-3.04304

>  <SCORE.INTRA>
1.85007

>  <SCORE.INTRA.DIHEDRAL>
0.158388

>  <SCORE.INTRA.DIHEDRAL.0>
1.43995

>  <SCORE.INTRA.POLAR>
0.272593

>  <SCORE.INTRA.POLAR.0>
-0.272593

>  <SCORE.INTRA.REPUL>
0

>  <SCORE.INTRA.REPUL.0>
0

>  <SCORE.INTRA.SOLV>
-0.480756

>  <SCORE.INTRA.SOLV.lig_0>
-22.6728

>  <SCORE.INTRA.VDW>
1.08444

>  <SCORE.INTRA.VDW.0>
-0.754459

>  <SCORE.INTRA.norm>
0.142313

>  <SCORE.RESTR>
0

>  <SCORE.RESTR.CAVITY>
0

>  <SCORE.RESTR.norm>
0

>  <SCORE.SYSTEM>
0

>  <SCORE.SYSTEM.CONST>
0

>  <SCORE.SYSTEM.DIHEDRAL>
0

>  <SCORE.SYSTEM.SOLV>
0

>  <SCORE.SYSTEM.norm>
0

>  <SCORE.heavy>
13

>  <SCORE.norm>
-2.90073

>  <RMSD>
4.834

$$$$
lig.pdb
 OpenBabel11021811453D
libRbt.so/2013.1/901 2013/11/27
 13 14  0  0  0  0  0  0  0  0999 V2000
    1.6296   -0.7295   -1.5057 N   0  0  0  0  0  0  0  0  0  0  0  0
    0.3355   -0.4472   -1.1429 C   0  0  0  0  0  0  0  0  0  0  0  0
   -0.2696    0.6385   -1.6123 N   0  0  0  0  0  0  0  0  0  0  0  0
    0.3668    1.5002   -2.4648 C   0  0  0  0  0  0  0  0  0  0  0  0
    1.7065    1.2512   -2.8577 C   0  0  0  0  0  0  0  0  0  0  0  0
    2.3388    0.0814   -2.3483 C   0  0  0  0  0  0  0  0  0  0  0  0
    3.4845   -0.1983   -2.6515 O   0  0  0  0  0  0  0  0  0  0  0  0
    2.1004    2.3564   -3.7313 C   0  0  0  0  0  0  0  0  0  0  0  0
    3.4512    2.5802   -4.3556 C   0  0  0  0  0  0  0  0  0  0  0  0
    3.5011    3.9213   -4.9543 N   0  0  0  0  0  0  0  0  0  0  0  0
    1.0230    3.1437   -3.8417 C   0  0  0  0  0  0  0  0  0  0  0  0
   -0.0062    2.6485   -3.0857 N   0  0  0  0  0  0  0  0  0  0  0  0
   -0.3364   -1.2934   -0.3005 N   0  0  0  0  0  0  0  0  0  0  0  0
  1  6  1  0  0  0  0
  2  1  1  0  0  0  0
  2  3  2  0  0  0  0
  3  4  1  0  0  0  0
  4  5  2  0  0  0  0
  4 12  1  0  0  0  0
  5  8  1  0  0  0  0
  6  7  2  0  0  0  0
  6  5  1  0  0  0  0
  8 11  2  0  0  0  0
  8  9  1  0  0  0  0
 10  9  1  0  0  0  0
 12 11  1  0  0  0  0
 13  2  1  0  0  0  0
M  END
>  <CHROM.1>
-169.66939813,-20.63461291,1.50763798,1.17586741,-2.67519398,-2.03683098
0.31419600,-0.56406090

>  <Name>
lig.pdb

>  <RI>
2.86608e+07

>  <Rbt.Current_Directory>
/home/itssahil/PROJECTS/Mol_Feturizer/New_Systems/rnas/2l1v

>  <Rbt.Executable>
rbdock ($Id: //depot/dev/client3/rdock/2013.1/src/exe/rbdock.cxx#4 $)

>  <Rbt.Library>
libRbt.so (2013.1, Build901 2013/11/27)

>  <Rbt.Parameter_File>
/export/apps/rDock/src/rDock_2013.1_src/data/scripts/dock_solv.prm

>  <Rbt.Receptor>
prm/pocket_docking_7.prm

>  <SCORE>
-37.6741

>  <SCORE.INTER>
-39.4452

>  <SCORE.INTER.CONST>
1

>  <SCORE.INTER.POLAR>
-2.046

>  <SCORE.INTER.ROT>
2

>  <SCORE.INTER.SOLV>
15.6286

>  <SCORE.INTER.VDW>
-29.6197

>  <SCORE.INTER.norm>
-3.03425

>  <SCORE.INTRA>
1.77107

>  <SCORE.INTRA.DIHEDRAL>
0.0758329

>  <SCORE.INTRA.DIHEDRAL.0>
1.43995

>  <SCORE.INTRA.POLAR>
0.272593

>  <SCORE.INTRA.POLAR.0>
-0.272593

>  <SCORE.INTRA.REPUL>
0

>  <SCORE.INTRA.REPUL.0>
0

>  <SCORE.INTRA.SOLV>
-0.483455

>  <SCORE.INTRA.SOLV.lig_0>
-22.6728

>  <SCORE.INTRA.VDW>
1.04807

>  <SCORE.INTRA.VDW.0>
-0.754459

>  <SCORE.INTRA.norm>
0.136236

>  <SCORE.RESTR>
0

>  <SCORE.RESTR.CAVITY>
0

>  <SCORE.RESTR.norm>
0

>  <SCORE.SYSTEM>
0

>  <SCORE.SYSTEM.CONST>
0

>  <SCORE.SYSTEM.DIHEDRAL>
0

>  <SCORE.SYSTEM.SOLV>
0

>  <SCORE.SYSTEM.norm>
0

>  <SCORE.heavy>
13

>  <SCORE.norm>
-2.89801

>  <RMSD>
4.834

$$$$
lig.pdb
 OpenBabel11021811453D
libRbt.so/2013.1/901 2013/11/27
 13 14  0  0  0  0  0  0  0  0999 V2000
    1.7351   -0.8562   -1.2590 N   0  0  0  0  0  0  0  0  0  0  0  0
    0.4202   -0.6962   -0.8964 C   0  0  0  0  0  0  0  0  0  0  0  0
   -0.2846    0.3262   -1.3685 N   0  0  0  0  0  0  0  0  0  0  0  0
    0.2676    1.2419   -2.2235 C   0  0  0  0  0  0  0  0  0  0  0  0
    1.6247    1.1193   -2.6163 C   0  0  0  0  0  0  0  0  0  0  0  0
    2.3646    0.0157   -2.1039 C   0  0  0  0  0  0  0  0  0  0  0  0
    3.5315   -0.1555   -2.4067 O   0  0  0  0  0  0  0  0  0  0  0  0
    1.9126    2.2543   -3.4929 C   0  0  0  0  0  0  0  0  0  0  0  0
    3.2362    2.6029   -4.1183 C   0  0  0  0  0  0  0  0  0  0  0  0
    3.9958    1.3729   -4.3818 N   0  0  0  0  0  0  0  0  0  0  0  0
    0.7657    2.9363   -3.6050 C   0  0  0  0  0  0  0  0  0  0  0  0
   -0.2122    2.3482   -2.8474 N   0  0  0  0  0  0  0  0  0  0  0  0
   -0.1688   -1.5998   -0.0516 N   0  0  0  0  0  0  0  0  0  0  0  0
  1  6  1  0  0  0  0
  2  1  1  0  0  0  0
  2  3  2  0  0  0  0
  3  4  1  0  0  0  0
  4  5  2  0  0  0  0
  4 12  1  0  0  0  0
  5  8  1  0  0  0  0
  6  7  2  0  0  0  0
  6  5  1  0  0  0  0
  8 11  2  0  0  0  0
  8  9  1  0  0  0  0
 10  9  1  0  0  0  0
 12 11  1  0  0  0  0
 13  2  1  0  0  0  0
M  END
>  <CHROM.1>
31.40731943,-56.30460272,1.51206873,0.78661770,-2.40164754,-2.14118093,0.33737270
-0.62145082

>  <Name>
lig.pdb

>  <RI>
0

>  <Rbt.Current_Directory>
/home/itssahil/PROJECTS/Mol_Feturizer/New_Systems/rnas/2l1v

>  <Rbt.Executable>
rbdock ($Id: //depot/dev/client3/rdock/2013.1/src/exe/rbdock.cxx#4 $)

>  <Rbt.Library>
libRbt.so (2013.1, Build901 2013/11/27)

>  <Rbt.Parameter_File>
/export/apps/rDock/src/rDock_2013.1_src/data/scripts/dock_solv.prm

>  <Rbt.Receptor>
prm/pocket_docking_3.prm

>  <SCORE>
-38.0138

>  <SCORE.INTER>
-37.2051

>  <SCORE.INTER.CONST>
1

>  <SCORE.INTER.POLAR>
-1.83266

>  <SCORE.INTER.ROT>
2

>  <SCORE.INTER.SOLV>
14.1521

>  <SCORE.INTER.VDW>
-28.3453

>  <SCORE.INTER.norm>
-2.86193

>  <SCORE.INTRA>
-0.808724

>  <SCORE.INTRA.DIHEDRAL>
1.05377

>  <SCORE.INTRA.DIHEDRAL.0>
1.43995

>  <SCORE.INTRA.POLAR>
-0.617036

>  <SCORE.INTRA.POLAR.0>
-0.272593

>  <SCORE.INTRA.REPUL>
0

>  <SCORE.INTRA.REPUL.0>
0

>  <SCORE.INTRA.SOLV>
0.254556

>  <SCORE.INTRA.SOLV.lig_0>
-22.6728

>  <SCORE.INTRA.VDW>
0.635035

>  <SCORE.INTRA.VDW.0>
-0.754459

>  <SCORE.INTRA.norm>
-0.0622095

>  <SCORE.RESTR>
0

>  <SCORE.RESTR.CAVITY>
0

>  <SCORE.RESTR.norm>
0

>  <SCORE.SYSTEM>
0

>  <SCORE.SYSTEM.CONST>
0

>  <SCORE.SYSTEM.DIHEDRAL>
0

>  <SCORE.SYSTEM.SOLV>
0

>  <SCORE.SYSTEM.norm>
0

>  <SCORE.heavy>
13

>  <SCORE.norm>
-2.92414

>  <RMSD>
4.852

$$$$
lig.pdb
 OpenBabel11021811453D
libRbt.so/2013.1/901 2013/11/27
 13 14  0  0  0  0  0  0  0  0999 V2000
    1.5124   -0.7127   -1.3806 N   0  0  0  0  0  0  0  0  0  0  0  0
    0.2178   -0.3846   -1.0603 C   0  0  0  0  0  0  0  0  0  0  0  0
   -0.3475    0.6976   -1.5840 N   0  0  0  0  0  0  0  0  0  0  0  0
    0.3311    1.5107   -2.4517 C   0  0  0  0  0  0  0  0  0  0  0  0
    1.6728    1.2135   -2.8021 C   0  0  0  0  0  0  0  0  0  0  0  0
    2.2622    0.0481   -2.2346 C   0  0  0  0  0  0  0  0  0  0  0  0
    3.4070   -0.2714   -2.4990 O   0  0  0  0  0  0  0  0  0  0  0  0
    2.1159    2.2751   -3.7057 C   0  0  0  0  0  0  0  0  0  0  0  0
    3.4865    2.4415   -4.3043 C   0  0  0  0  0  0  0  0  0  0  0  0
    3.5141    3.6468   -5.1446 N   0  0  0  0  0  0  0  0  0  0  0  0
    1.0622    3.0846   -3.8714 C   0  0  0  0  0  0  0  0  0  0  0  0
    0.0029    2.6440   -3.1233 N   0  0  0  0  0  0  0  0  0  0  0  0
   -0.4957   -1.1816   -0.2042 N   0  0  0  0  0  0  0  0  0  0  0  0
  1  6  1  0  0  0  0
  2  1  1  0  0  0  0
  2  3  2  0  0  0  0
  3  4  1  0  0  0  0
  4  5  2  0  0  0  0
  4 12  1  0  0  0  0
  5  8  1  0  0  0  0
  6  7  2  0  0  0  0
  6  5  1  0  0  0  0
  8 11  2  0  0  0  0
  8  9  1  0  0  0  0
 10  9  1  0  0  0  0
 12 11  1  0  0  0  0
 13  2  1  0  0  0  0
M  END
>  <CHROM.1>
-179.39455814,17.72451954,1.46099303,1.13979584,-2.63991634,-2.06802309,0.32156447
-0.60421376

>  <Name>
lig.pdb

>  <RI>
1.77584e+07

>  <Rbt.Current_Directory>
/home/itssahil/PROJECTS/Mol_Feturizer/New_Systems/rnas/2l1v

>  <Rbt.Executable>
rbdock ($Id: //depot/dev/client3/rdock/2013.1/src/exe/rbdock.cxx#4 $)

>  <Rbt.Library>
libRbt.so (2013.1, Build901 2013/11/27)

>  <Rbt.Parameter_File>
/export/apps/rDock/src/rDock_2013.1_src/data/scripts/dock_solv.prm

>  <Rbt.Receptor>
prm/blind_docking_80.prm

>  <SCORE>
-37.3044

>  <SCORE.INTER>
-39.1044

>  <SCORE.INTER.CONST>
1

>  <SCORE.INTER.POLAR>
-1.83095

>  <SCORE.INTER.ROT>
2

>  <SCORE.INTER.SOLV>
15.0382

>  <SCORE.INTER.VDW>
-29.9125

>  <SCORE.INTER.norm>
-3.00803

>  <SCORE.INTRA>
1.80004

>  <SCORE.INTRA.DIHEDRAL>
0.0560849

>  <SCORE.INTRA.DIHEDRAL.0>
1.43995

>  <SCORE.INTRA.POLAR>
0.272593

>  <SCORE.INTRA.POLAR.0>
-0.272593

>  <SCORE.INTRA.REPUL>
0

>  <SCORE.INTRA.REPUL.0>
0

>  <SCORE.INTRA.SOLV>
-0.480177

>  <SCORE.INTRA.SOLV.lig_0>
-22.6728

>  <SCORE.INTRA.VDW>
1.08527

>  <SCORE.INTRA.VDW.0>
-0.754459

>  <SCORE.INTRA.norm>
0.138464

>  <SCORE.RESTR>
0

>  <SCORE.RESTR.CAVITY>
0

>  <SCORE.RESTR.norm>
0

>  <SCORE.SYSTEM>
0

>  <SCORE.SYSTEM.CONST>
0

>  <SCORE.SYSTEM.DIHEDRAL>
0

>  <SCORE.SYSTEM.SOLV>
0

>  <SCORE.SYSTEM.norm>
0

>  <SCORE.heavy>
13

>  <SCORE.norm>
-2.86957

>  <RMSD>
4.860

$$$$
lig.pdb
 OpenBabel11021811453D
libRbt.so/2013.1/901 2013/11/27
 13 14  0  0  0  0  0  0  0  0999 V2000
    1.2901   -0.4161   -1.3181 N   0  0  0  0  0  0  0  0  0  0  0  0
    0.1077    0.1903   -0.9711 C   0  0  0  0  0  0  0  0  0  0  0  0
   -0.2535    1.3315   -1.5476 N   0  0  0  0  0  0  0  0  0  0  0  0
    0.5288    1.9328   -2.4967 C   0  0  0  0  0  0  0  0  0  0  0  0
    1.7619    1.3451   -2.8777 C   0  0  0  0  0  0  0  0  0  0  0  0
    2.1322    0.1203   -2.2527 C   0  0  0  0  0  0  0  0  0  0  0  0
    3.1729   -0.4435   -2.5387 O   0  0  0  0  0  0  0  0  0  0  0  0
    2.3624    2.2353   -3.8710 C   0  0  0  0  0  0  0  0  0  0  0  0
    3.7045    2.0792   -4.5334 C   0  0  0  0  0  0  0  0  0  0  0  0
    4.3280    3.3993   -4.7007 N   0  0  0  0  0  0  0  0  0  0  0  0
    1.4874    3.2326   -4.0520 C   0  0  0  0  0  0  0  0  0  0  0  0
    0.4019    3.0660   -3.2335 N   0  0  0  0  0  0  0  0  0  0  0  0
   -0.7060   -0.3889   -0.0333 N   0  0  0  0  0  0  0  0  0  0  0  0
  1  6  1  0  0  0  0
  2  1  1  0  0  0  0
  2  3  2  0  0  0  0
  3  4  1  0  0  0  0
  4  5  2  0  0  0  0
  4 12  1  0  0  0  0
  5  8  1  0  0  0  0
  6  7  2  0  0  0  0
  6  5  1  0  0  0  0
  8 11  2  0  0  0  0
  8  9  1  0  0  0  0
 10  9  1  0  0  0  0
 12 11  1  0  0  0  0
 13  2  1  0  0  0  0
M  END
>  <CHROM.1>
-142.43914552,139.30355995,1.58557534,1.34532769,-2.63162474,-2.26016108
0.42304307,-0.56787688

>  <Name>
lig.pdb

>  <RI>
4.02536e+07

>  <Rbt.Current_Directory>
/home/itssahil/PROJECTS/Mol_Feturizer/New_Systems/rnas/2l1v

>  <Rbt.Executable>
rbdock ($Id: //depot/dev/client3/rdock/2013.1/src/exe/rbdock.cxx#4 $)

>  <Rbt.Library>
libRbt.so (2013.1, Build901 2013/11/27)

>  <Rbt.Parameter_File>
/export/apps/rDock/src/rDock_2013.1_src/data/scripts/dock_solv.prm

>  <Rbt.Receptor>
prm/blind_docking_40.prm

>  <SCORE>
-35.4457

>  <SCORE.INTER>
-37.4406

>  <SCORE.INTER.CONST>
1

>  <SCORE.INTER.POLAR>
-1.6789

>  <SCORE.INTER.ROT>
2

>  <SCORE.INTER.SOLV>
14.7916

>  <SCORE.INTER.VDW>
-29.228

>  <SCORE.INTER.norm>
-2.88005

>  <SCORE.INTRA>
1.99495

>  <SCORE.INTRA.DIHEDRAL>
1.53443

>  <SCORE.INTRA.DIHEDRAL.0>
1.43995

>  <SCORE.INTRA.POLAR>
0.272593

>  <SCORE.INTRA.POLAR.0>
-0.272593

>  <SCORE.INTRA.REPUL>
0

>  <SCORE.INTRA.REPUL.0>
0

>  <SCORE.INTRA.SOLV>
-0.513954

>  <SCORE.INTRA.SOLV.lig_0>
-22.6728

>  <SCORE.INTRA.VDW>
0.557897

>  <SCORE.INTRA.VDW.0>
-0.754459

>  <SCORE.INTRA.norm>
0.153458

>  <SCORE.RESTR>
0

>  <SCORE.RESTR.CAVITY>
0

>  <SCORE.RESTR.norm>
0

>  <SCORE.SYSTEM>
0

>  <SCORE.SYSTEM.CONST>
0

>  <SCORE.SYSTEM.DIHEDRAL>
0

>  <SCORE.SYSTEM.SOLV>
0

>  <SCORE.SYSTEM.norm>
0

>  <SCORE.heavy>
13

>  <SCORE.norm>
-2.72659

>  <RMSD>
4.862

$$$$
lig.pdb
 OpenBabel11021811453D
libRbt.so/2013.1/901 2013/11/27
 13 14  0  0  0  0  0  0  0  0999 V2000
    1.1901   -0.5757   -1.4378 N   0  0  0  0  0  0  0  0  0  0  0  0
   -0.0007    0.0238   -1.1082 C   0  0  0  0  0  0  0  0  0  0  0  0
   -0.3360    1.1892   -1.6508 N   0  0  0  0  0  0  0  0  0  0  0  0
    0.4819    1.8228   -2.5474 C   0  0  0  0  0  0  0  0  0  0  0  0
    1.7246    1.2430   -2.9086 C   0  0  0  0  0  0  0  0  0  0  0  0
    2.0669   -0.0079   -2.3206 C   0  0  0  0  0  0  0  0  0  0  0  0
    3.1141   -0.5665   -2.5926 O   0  0  0  0  0  0  0  0  0  0  0  0
    2.3638    2.1682   -3.8442 C   0  0  0  0  0  0  0  0  0  0  0  0
    3.7274    2.0300   -4.4654 C   0  0  0  0  0  0  0  0  0  0  0  0
    4.3231    3.3610   -4.6473 N   0  0  0  0  0  0  0  0  0  0  0  0
    1.5005    3.1773   -4.0155 C   0  0  0  0  0  0  0  0  0  0  0  0
    0.3863    2.9852   -3.2424 N   0  0  0  0  0  0  0  0  0  0  0  0
   -0.8495   -0.5871   -0.2230 N   0  0  0  0  0  0  0  0  0  0  0  0
  1  6  1  0  0  0  0
  2  1  1  0  0  0  0
  2  3  2  0  0  0  0
  3  4  1  0  0  0  0
  4  5  2  0  0  0  0
  4 12  1  0  0  0  0
  5  8  1  0  0  0  0
  6  7  2  0  0  0  0
  6  5  1  0  0  0  0
  8 11  2  0  0  0  0
  8  9  1  0  0  0  0
 10  9  1  0  0  0  0
 12 11  1  0  0  0  0
 13  2  1  0  0  0  0
M  END
>  <CHROM.1>
-146.49559604,-38.73260902,1.53619939,1.23535718,-2.67768623,-2.27965686
0.40226158,-0.52131611

>  <Name>
lig.pdb

>  <RI>
2.05237e+07

>  <Rbt.Current_Directory>
/home/itssahil/PROJECTS/Mol_Feturizer/New_Systems/rnas/2l1v

>  <Rbt.Executable>
rbdock ($Id: //depot/dev/client3/rdock/2013.1/src/exe/rbdock.cxx#4 $)

>  <Rbt.Library>
libRbt.so (2013.1, Build901 2013/11/27)

>  <Rbt.Parameter_File>
/export/apps/rDock/src/rDock_2013.1_src/data/scripts/dock_solv.prm

>  <Rbt.Receptor>
prm/blind_docking_100.prm

>  <SCORE>
-35.7175

>  <SCORE.INTER>
-37.5892

>  <SCORE.INTER.CONST>
1

>  <SCORE.INTER.POLAR>
-1.67999

>  <SCORE.INTER.ROT>
2

>  <SCORE.INTER.SOLV>
15.1551

>  <SCORE.INTER.VDW>
-29.4445

>  <SCORE.INTER.norm>
-2.89148

>  <SCORE.INTRA>
1.8717

>  <SCORE.INTRA.DIHEDRAL>
1.18926

>  <SCORE.INTRA.DIHEDRAL.0>
1.43995

>  <SCORE.INTRA.POLAR>
0.272593

>  <SCORE.INTRA.POLAR.0>
-0.272593

>  <SCORE.INTRA.REPUL>
0

>  <SCORE.INTRA.REPUL.0>
0

>  <SCORE.INTRA.SOLV>
-0.509318

>  <SCORE.INTRA.SOLV.lig_0>
-22.6728

>  <SCORE.INTRA.VDW>
0.604917

>  <SCORE.INTRA.VDW.0>
-0.754459

>  <SCORE.INTRA.norm>
0.143977

>  <SCORE.RESTR>
0

>  <SCORE.RESTR.CAVITY>
0

>  <SCORE.RESTR.norm>
0

>  <SCORE.SYSTEM>
0

>  <SCORE.SYSTEM.CONST>
0

>  <SCORE.SYSTEM.DIHEDRAL>
0

>  <SCORE.SYSTEM.SOLV>
0

>  <SCORE.SYSTEM.norm>
0

>  <SCORE.heavy>
13

>  <SCORE.norm>
-2.7475

>  <RMSD>
4.870

$$$$
lig.pdb
 OpenBabel11021811453D
libRbt.so/2013.1/901 2013/11/27
 13 14  0  0  0  0  0  0  0  0999 V2000
    1.4299   -0.6556   -1.3222 N   0  0  0  0  0  0  0  0  0  0  0  0
    0.1412   -0.2938   -1.0148 C   0  0  0  0  0  0  0  0  0  0  0  0
   -0.3979    0.7907   -1.5610 N   0  0  0  0  0  0  0  0  0  0  0  0
    0.3025    1.5730   -2.4395 C   0  0  0  0  0  0  0  0  0  0  0  0
    1.6391    1.2406   -2.7773 C   0  0  0  0  0  0  0  0  0  0  0  0
    2.2003    0.0731   -2.1858 C   0  0  0  0  0  0  0  0  0  0  0  0
    3.3392   -0.2759   -2.4383 O   0  0  0  0  0  0  0  0  0  0  0  0
    2.1097    2.2757   -3.6976 C   0  0  0  0  0  0  0  0  0  0  0  0
    3.4865    2.4015   -4.2918 C   0  0  0  0  0  0  0  0  0  0  0  0
    3.5403    3.5824   -5.1647 N   0  0  0  0  0  0  0  0  0  0  0  0
    1.0747    3.1047   -3.8835 C   0  0  0  0  0  0  0  0  0  0  0  0
    0.0023    2.7008   -3.1332 N   0  0  0  0  0  0  0  0  0  0  0  0
   -0.5936   -1.0596   -0.1483 N   0  0  0  0  0  0  0  0  0  0  0  0
  1  6  1  0  0  0  0
  2  1  1  0  0  0  0
  2  3  2  0  0  0  0
  3  4  1  0  0  0  0
  4  5  2  0  0  0  0
  4 12  1  0  0  0  0
  5  8  1  0  0  0  0
  6  7  2  0  0  0  0
  6  5  1  0  0  0  0
  8 11  2  0  0  0  0
  8  9  1  0  0  0  0
 10  9  1  0  0  0  0
 12 11  1  0  0  0  0
 13  2  1  0  0  0  0
M  END
>  <CHROM.1>
-179.99049239,20.25355173,1.42461426,1.17362050,-2.61604386,-2.08963736,0.33061538
-0.61617339

>  <Name>
lig.pdb

>  <RI>
2.7104e+07

>  <Rbt.Current_Directory>
/home/itssahil/PROJECTS/Mol_Feturizer/New_Systems/rnas/2l1v

>  <Rbt.Executable>
rbdock ($Id: //depot/dev/client3/rdock/2013.1/src/exe/rbdock.cxx#4 $)

>  <Rbt.Library>
libRbt.so (2013.1, Build901 2013/11/27)

>  <Rbt.Parameter_File>
/export/apps/rDock/src/rDock_2013.1_src/data/scripts/dock_solv.prm

>  <Rbt.Receptor>
prm/pocket_docking_8.prm

>  <SCORE>
-37.3185

>  <SCORE.INTER>
-39.0847

>  <SCORE.INTER.CONST>
1

>  <SCORE.INTER.POLAR>
-1.8329

>  <SCORE.INTER.ROT>
2

>  <SCORE.INTER.SOLV>
14.8182

>  <SCORE.INTER.VDW>
-29.8195

>  <SCORE.INTER.norm>
-3.00651

>  <SCORE.INTRA>
1.76614

>  <SCORE.INTRA.DIHEDRAL>
0.0614917

>  <SCORE.INTRA.DIHEDRAL.0>
1.43995

>  <SCORE.INTRA.POLAR>
0.272593

>  <SCORE.INTRA.POLAR.0>
-0.272593

>  <SCORE.INTRA.REPUL>
0

>  <SCORE.INTRA.REPUL.0>
0

>  <SCORE.INTRA.SOLV>
-0.482424

>  <SCORE.INTRA.SOLV.lig_0>
-22.6728

>  <SCORE.INTRA.VDW>
1.04979

>  <SCORE.INTRA.VDW.0>
-0.754459

>  <SCORE.INTRA.norm>
0.135857

>  <SCORE.RESTR>
0

>  <SCORE.RESTR.CAVITY>
0

>  <SCORE.RESTR.norm>
0

>  <SCORE.SYSTEM>
0

>  <SCORE.SYSTEM.CONST>
0

>  <SCORE.SYSTEM.DIHEDRAL>
0

>  <SCORE.SYSTEM.SOLV>
0

>  <SCORE.SYSTEM.norm>
0

>  <SCORE.heavy>
13

>  <SCORE.norm>
-2.87066

>  <RMSD>
4.870

$$$$
lig.pdb
 OpenBabel11021811453D
libRbt.so/2013.1/901 2013/11/27
 13 14  0  0  0  0  0  0  0  0999 V2000
    1.4180   -0.7000   -1.3546 N   0  0  0  0  0  0  0  0  0  0  0  0
    0.1271   -0.3441   -1.0494 C   0  0  0  0  0  0  0  0  0  0  0  0
   -0.4096    0.7484   -1.5817 N   0  0  0  0  0  0  0  0  0  0  0  0
    0.2954    1.5450   -2.4435 C   0  0  0  0  0  0  0  0  0  0  0  0
    1.6344    1.2191   -2.7783 C   0  0  0  0  0  0  0  0  0  0  0  0
    2.1929    0.0429   -2.2019 C   0  0  0  0  0  0  0  0  0  0  0  0
    3.3337   -0.3012   -2.4529 O   0  0  0  0  0  0  0  0  0  0  0  0
    2.1096    2.2690   -3.6792 C   0  0  0  0  0  0  0  0  0  0  0  0
    3.4899    2.4052   -4.2630 C   0  0  0  0  0  0  0  0  0  0  0  0
    3.5362    3.5757   -5.1502 N   0  0  0  0  0  0  0  0  0  0  0  0
    1.0750    3.1000   -3.8584 C   0  0  0  0  0  0  0  0  0  0  0  0
   -0.0015    2.6834   -3.1212 N   0  0  0  0  0  0  0  0  0  0  0  0
   -0.6123   -1.1240   -0.1996 N   0  0  0  0  0  0  0  0  0  0  0  0
  1  6  1  0  0  0  0
  2  1  1  0  0  0  0
  2  3  2  0  0  0  0
  3  4  1  0  0  0  0
  4  5  2  0  0  0  0
  4 12  1  0  0  0  0
  5  8  1  0  0  0  0
  6  7  2  0  0  0  0
  6  5  1  0  0  0  0
  8 11  2  0  0  0  0
  8  9  1  0  0  0  0
 10  9  1  0  0  0  0
 12 11  1  0  0  0  0
 13  2  1  0  0  0  0
M  END
>  <CHROM.1>
178.24018998,19.71167382,1.41784246,1.14716995,-2.62254608,-2.09195463,0.32711275
-0.60224551

>  <Name>
lig.pdb

>  <RI>
2.05237e+07

>  <Rbt.Current_Directory>
/home/itssahil/PROJECTS/Mol_Feturizer/New_Systems/rnas/2l1v

>  <Rbt.Executable>
rbdock ($Id: //depot/dev/client3/rdock/2013.1/src/exe/rbdock.cxx#4 $)

>  <Rbt.Library>
libRbt.so (2013.1, Build901 2013/11/27)

>  <Rbt.Parameter_File>
/export/apps/rDock/src/rDock_2013.1_src/data/scripts/dock_solv.prm

>  <Rbt.Receptor>
prm/blind_docking_100.prm

>  <SCORE>
-37.3387

>  <SCORE.INTER>
-39.1234

>  <SCORE.INTER.CONST>
1

>  <SCORE.INTER.POLAR>
-1.8329

>  <SCORE.INTER.ROT>
2

>  <SCORE.INTER.SOLV>
14.9759

>  <SCORE.INTER.VDW>
-29.8979

>  <SCORE.INTER.norm>
-3.00949

>  <SCORE.INTRA>
1.78471

>  <SCORE.INTRA.DIHEDRAL>
0.0700187

>  <SCORE.INTRA.DIHEDRAL.0>
1.43995

>  <SCORE.INTRA.POLAR>
0.272593

>  <SCORE.INTRA.POLAR.0>
-0.272593

>  <SCORE.INTRA.REPUL>
0

>  <SCORE.INTRA.REPUL.0>
0

>  <SCORE.INTRA.SOLV>
-0.482384

>  <SCORE.INTRA.SOLV.lig_0>
-22.6728

>  <SCORE.INTRA.VDW>
1.06408

>  <SCORE.INTRA.VDW.0>
-0.754459

>  <SCORE.INTRA.norm>
0.137285

>  <SCORE.RESTR>
0

>  <SCORE.RESTR.CAVITY>
0

>  <SCORE.RESTR.norm>
0

>  <SCORE.SYSTEM>
0

>  <SCORE.SYSTEM.CONST>
0

>  <SCORE.SYSTEM.DIHEDRAL>
0

>  <SCORE.SYSTEM.SOLV>
0

>  <SCORE.SYSTEM.norm>
0

>  <SCORE.heavy>
13

>  <SCORE.norm>
-2.87221

>  <RMSD>
4.871

$$$$
lig.pdb
 OpenBabel11021811453D
libRbt.so/2013.1/901 2013/11/27
 13 14  0  0  0  0  0  0  0  0999 V2000
    1.3597   -0.5949   -1.3119 N   0  0  0  0  0  0  0  0  0  0  0  0
    0.0645   -0.2257   -1.0428 C   0  0  0  0  0  0  0  0  0  0  0  0
   -0.4534    0.8593   -1.6081 N   0  0  0  0  0  0  0  0  0  0  0  0
    0.2756    1.6348   -2.4692 C   0  0  0  0  0  0  0  0  0  0  0  0
    1.6197    1.2947   -2.7675 C   0  0  0  0  0  0  0  0  0  0  0  0
    2.1580    0.1268   -2.1558 C   0  0  0  0  0  0  0  0  0  0  0  0
    3.3019   -0.2286   -2.3744 O   0  0  0  0  0  0  0  0  0  0  0  0
    2.1214    2.3240   -3.6777 C   0  0  0  0  0  0  0  0  0  0  0  0
    3.5152    2.4409   -4.2328 C   0  0  0  0  0  0  0  0  0  0  0  0
    3.5779    3.5680   -5.1736 N   0  0  0  0  0  0  0  0  0  0  0  0
    1.0963    3.1572   -3.8962 C   0  0  0  0  0  0  0  0  0  0  0  0
    0.0009    2.7613   -3.1754 N   0  0  0  0  0  0  0  0  0  0  0  0
   -0.6985   -0.9846   -0.1948 N   0  0  0  0  0  0  0  0  0  0  0  0
  1  6  1  0  0  0  0
  2  1  1  0  0  0  0
  2  3  2  0  0  0  0
  3  4  1  0  0  0  0
  4  5  2  0  0  0  0
  4 12  1  0  0  0  0
  5  8  1  0  0  0  0
  6  7  2  0  0  0  0
  6  5  1  0  0  0  0
  8 11  2  0  0  0  0
  8  9  1  0  0  0  0
 10  9  1  0  0  0  0
 12 11  1  0  0  0  0
 13  2  1  0  0  0  0
M  END
>  <CHROM.1>
176.48010007,19.63174654,1.39830337,1.22468417,-2.61822258,-2.11012761,0.31415642
-0.61860104

>  <Name>
lig.pdb

>  <RI>
4.17264e+07

>  <Rbt.Current_Directory>
/home/itssahil/PROJECTS/Mol_Feturizer/New_Systems/rnas/2l1v

>  <Rbt.Executable>
rbdock ($Id: //depot/dev/client3/rdock/2013.1/src/exe/rbdock.cxx#4 $)

>  <Rbt.Library>
libRbt.so (2013.1, Build901 2013/11/27)

>  <Rbt.Parameter_File>
/export/apps/rDock/src/rDock_2013.1_src/data/scripts/dock_solv.prm

>  <Rbt.Receptor>
prm/blind_docking_20.prm

>  <SCORE>
-37.1312

>  <SCORE.INTER>
-38.932

>  <SCORE.INTER.CONST>
1

>  <SCORE.INTER.POLAR>
-1.8329

>  <SCORE.INTER.ROT>
2

>  <SCORE.INTER.SOLV>
14.8381

>  <SCORE.INTER.VDW>
-29.7244

>  <SCORE.INTER.norm>
-2.99477

>  <SCORE.INTRA>
1.79746

>  <SCORE.INTRA.DIHEDRAL>
0.088482

>  <SCORE.INTRA.DIHEDRAL.0>
1.43995

>  <SCORE.INTRA.POLAR>
0.272593

>  <SCORE.INTRA.POLAR.0>
-0.272593

>  <SCORE.INTRA.REPUL>
0

>  <SCORE.INTRA.REPUL.0>
0

>  <SCORE.INTRA.SOLV>
-0.482958

>  <SCORE.INTRA.SOLV.lig_0>
-22.6728

>  <SCORE.INTRA.VDW>
1.06789

>  <SCORE.INTRA.VDW.0>
-0.754459

>  <SCORE.INTRA.norm>
0.138266

>  <SCORE.RESTR>
0.0033574

>  <SCORE.RESTR.CAVITY>
0.0033574

>  <SCORE.RESTR.norm>
0.000258262

>  <SCORE.SYSTEM>
0

>  <SCORE.SYSTEM.CONST>
0

>  <SCORE.SYSTEM.DIHEDRAL>
0

>  <SCORE.SYSTEM.SOLV>
0

>  <SCORE.SYSTEM.norm>
0

>  <SCORE.heavy>
13

>  <SCORE.norm>
-2.85625

>  <RMSD>
4.871

$$$$
lig.pdb
 OpenBabel11021811453D
libRbt.so/2013.1/901 2013/11/27
 13 14  0  0  0  0  0  0  0  0999 V2000
    1.4273   -0.6965   -1.3410 N   0  0  0  0  0  0  0  0  0  0  0  0
    0.1349   -0.3428   -1.0394 C   0  0  0  0  0  0  0  0  0  0  0  0
   -0.4041    0.7455   -1.5780 N   0  0  0  0  0  0  0  0  0  0  0  0
    0.2998    1.5397   -2.4429 C   0  0  0  0  0  0  0  0  0  0  0  0
    1.6402    1.2159   -2.7742 C   0  0  0  0  0  0  0  0  0  0  0  0
    2.2013    0.0443   -2.1910 C   0  0  0  0  0  0  0  0  0  0  0  0
    3.3434   -0.2978   -2.4386 O   0  0  0  0  0  0  0  0  0  0  0  0
    2.1137    2.2625   -3.6798 C   0  0  0  0  0  0  0  0  0  0  0  0
    3.4943    2.3998   -4.2623 C   0  0  0  0  0  0  0  0  0  0  0  0
    3.5226    3.5294   -5.2019 N   0  0  0  0  0  0  0  0  0  0  0  0
    1.0770    3.0896   -3.8646 C   0  0  0  0  0  0  0  0  0  0  0  0
    0.0005    2.6737   -3.1268 N   0  0  0  0  0  0  0  0  0  0  0  0
   -0.6034   -1.1205   -0.1867 N   0  0  0  0  0  0  0  0  0  0  0  0
  1  6  1  0  0  0  0
  2  1  1  0  0  0  0
  2  3  2  0  0  0  0
  3  4  1  0  0  0  0
  4  5  2  0  0  0  0
  4 12  1  0  0  0  0
  5  8  1  0  0  0  0
  6  7  2  0  0  0  0
  6  5  1  0  0  0  0
  8 11  2  0  0  0  0
  8  9  1  0  0  0  0
 10  9  1  0  0  0  0
 12 11  1  0  0  0  0
 13  2  1  0  0  0  0
M  END
>  <CHROM.1>
175.70690692,-160.82370106,1.42235610,1.14092451,-2.62246297,-2.08977198
0.32701644,-0.61155649

>  <Name>
lig.pdb

>  <RI>
4.02536e+07

>  <Rbt.Current_Directory>
/home/itssahil/PROJECTS/Mol_Feturizer/New_Systems/rnas/2l1v

>  <Rbt.Executable>
rbdock ($Id: //depot/dev/client3/rdock/2013.1/src/exe/rbdock.cxx#4 $)

>  <Rbt.Library>
libRbt.so (2013.1, Build901 2013/11/27)

>  <Rbt.Parameter_File>
/export/apps/rDock/src/rDock_2013.1_src/data/scripts/dock_solv.prm

>  <Rbt.Receptor>
prm/blind_docking_40.prm

>  <SCORE>
-37.4507

>  <SCORE.INTER>
-39.1714

>  <SCORE.INTER.CONST>
1

>  <SCORE.INTER.POLAR>
-1.8329

>  <SCORE.INTER.ROT>
2

>  <SCORE.INTER.SOLV>
14.8999

>  <SCORE.INTER.VDW>
-29.9046

>  <SCORE.INTER.norm>
-3.01319

>  <SCORE.INTRA>
1.72078

>  <SCORE.INTRA.DIHEDRAL>
-0.0168038

>  <SCORE.INTRA.DIHEDRAL.0>
1.43995

>  <SCORE.INTRA.POLAR>
0.272593

>  <SCORE.INTRA.POLAR.0>
-0.272593

>  <SCORE.INTRA.REPUL>
0

>  <SCORE.INTRA.REPUL.0>
0

>  <SCORE.INTRA.SOLV>
-0.485123

>  <SCORE.INTRA.SOLV.lig_0>
-22.6728

>  <SCORE.INTRA.VDW>
1.04492

>  <SCORE.INTRA.VDW.0>
-0.754459

>  <SCORE.INTRA.norm>
0.132367

>  <SCORE.RESTR>
0

>  <SCORE.RESTR.CAVITY>
0

>  <SCORE.RESTR.norm>
0

>  <SCORE.SYSTEM>
0

>  <SCORE.SYSTEM.CONST>
0

>  <SCORE.SYSTEM.DIHEDRAL>
0

>  <SCORE.SYSTEM.SOLV>
0

>  <SCORE.SYSTEM.norm>
0

>  <SCORE.heavy>
13

>  <SCORE.norm>
-2.88082

>  <RMSD>
4.871

$$$$
lig.pdb
 OpenBabel11021811453D
libRbt.so/2013.1/901 2013/11/27
 13 14  0  0  0  0  0  0  0  0999 V2000
    1.3573   -0.5902   -1.3048 N   0  0  0  0  0  0  0  0  0  0  0  0
    0.0632   -0.2184   -1.0343 C   0  0  0  0  0  0  0  0  0  0  0  0
   -0.4535    0.8670   -1.6000 N   0  0  0  0  0  0  0  0  0  0  0  0
    0.2758    1.6403   -2.4628 C   0  0  0  0  0  0  0  0  0  0  0  0
    1.6188    1.2975   -2.7626 C   0  0  0  0  0  0  0  0  0  0  0  0
    2.1558    0.1292   -2.1506 C   0  0  0  0  0  0  0  0  0  0  0  0
    3.2988   -0.2286   -2.3704 O   0  0  0  0  0  0  0  0  0  0  0  0
    2.1212    2.3250   -3.6745 C   0  0  0  0  0  0  0  0  0  0  0  0
    3.5144    2.4388   -4.2317 C   0  0  0  0  0  0  0  0  0  0  0  0
    3.5795    3.5688   -5.1688 N   0  0  0  0  0  0  0  0  0  0  0  0
    1.0973    3.1599   -3.8924 C   0  0  0  0  0  0  0  0  0  0  0  0
    0.0022    2.7667   -3.1697 N   0  0  0  0  0  0  0  0  0  0  0  0
   -0.7000   -0.9751   -0.1846 N   0  0  0  0  0  0  0  0  0  0  0  0
  1  6  1  0  0  0  0
  2  1  1  0  0  0  0
  2  3  2  0  0  0  0
  3  4  1  0  0  0  0
  4  5  2  0  0  0  0
  4 12  1  0  0  0  0
  5  8  1  0  0  0  0
  6  7  2  0  0  0  0
  6  5  1  0  0  0  0
  8 11  2  0  0  0  0
  8  9  1  0  0  0  0
 10  9  1  0  0  0  0
 12 11  1  0  0  0  0
 13  2  1  0  0  0  0
M  END
>  <CHROM.1>
176.74601991,19.31067367,1.39764960,1.22838752,-2.61253412,-2.11093909,0.31601906
-0.61892507

>  <Name>
lig.pdb

>  <RI>
4.17264e+07

>  <Rbt.Current_Directory>
/home/itssahil/PROJECTS/Mol_Feturizer/New_Systems/rnas/2l1v

>  <Rbt.Executable>
rbdock ($Id: //depot/dev/client3/rdock/2013.1/src/exe/rbdock.cxx#4 $)

>  <Rbt.Library>
libRbt.so (2013.1, Build901 2013/11/27)

>  <Rbt.Parameter_File>
/export/apps/rDock/src/rDock_2013.1_src/data/scripts/dock_solv.prm

>  <Rbt.Receptor>
prm/blind_docking_20.prm

>  <SCORE>
-37.1054

>  <SCORE.INTER>
-38.9068

>  <SCORE.INTER.CONST>
1

>  <SCORE.INTER.POLAR>
-1.8329

>  <SCORE.INTER.ROT>
2

>  <SCORE.INTER.SOLV>
14.8066

>  <SCORE.INTER.VDW>
-29.697

>  <SCORE.INTER.norm>
-2.99283

>  <SCORE.INTRA>
1.80021

>  <SCORE.INTRA.DIHEDRAL>
0.0845555

>  <SCORE.INTRA.DIHEDRAL.0>
1.43995

>  <SCORE.INTRA.POLAR>
0.272593

>  <SCORE.INTRA.POLAR.0>
-0.272593

>  <SCORE.INTRA.REPUL>
0

>  <SCORE.INTRA.REPUL.0>
0

>  <SCORE.INTRA.SOLV>
-0.482585

>  <SCORE.INTRA.SOLV.lig_0>
-22.6728

>  <SCORE.INTRA.VDW>
1.07241

>  <SCORE.INTRA.VDW.0>
-0.754459

>  <SCORE.INTRA.norm>
0.138477

>  <SCORE.RESTR>
0.00115915

>  <SCORE.RESTR.CAVITY>
0.00115915

>  <SCORE.RESTR.norm>
8.91651e-05

>  <SCORE.SYSTEM>
0

>  <SCORE.SYSTEM.CONST>
0

>  <SCORE.SYSTEM.DIHEDRAL>
0

>  <SCORE.SYSTEM.SOLV>
0

>  <SCORE.SYSTEM.norm>
0

>  <SCORE.heavy>
13

>  <SCORE.norm>
-2.85426

>  <RMSD>
4.872

$$$$
lig.pdb
 OpenBabel11021811453D
libRbt.so/2013.1/901 2013/11/27
 13 14  0  0  0  0  0  0  0  0999 V2000
    1.4071   -0.6898   -1.3463 N   0  0  0  0  0  0  0  0  0  0  0  0
    0.1175   -0.3280   -1.0424 C   0  0  0  0  0  0  0  0  0  0  0  0
   -0.4154    0.7641   -1.5794 N   0  0  0  0  0  0  0  0  0  0  0  0
    0.2923    1.5544   -2.4448 C   0  0  0  0  0  0  0  0  0  0  0  0
    1.6300    1.2222   -2.7785 C   0  0  0  0  0  0  0  0  0  0  0  0
    2.1846    0.0466   -2.1969 C   0  0  0  0  0  0  0  0  0  0  0  0
    3.3240   -0.3026   -2.4466 O   0  0  0  0  0  0  0  0  0  0  0  0
    2.1088    2.2665   -3.6841 C   0  0  0  0  0  0  0  0  0  0  0  0
    3.4895    2.3952   -4.2687 C   0  0  0  0  0  0  0  0  0  0  0  0
    3.5485    3.5796   -5.1366 N   0  0  0  0  0  0  0  0  0  0  0  0
    1.0772    3.1003   -3.8667 C   0  0  0  0  0  0  0  0  0  0  0  0
   -0.0007    2.6908   -3.1274 N   0  0  0  0  0  0  0  0  0  0  0  0
   -0.6245   -1.1015   -0.1891 N   0  0  0  0  0  0  0  0  0  0  0  0
  1  6  1  0  0  0  0
  2  1  1  0  0  0  0
  2  3  2  0  0  0  0
  3  4  1  0  0  0  0
  4  5  2  0  0  0  0
  4 12  1  0  0  0  0
  5  8  1  0  0  0  0
  6  7  2  0  0  0  0
  6  5  1  0  0  0  0
  8 11  2  0  0  0  0
  8  9  1  0  0  0  0
 10  9  1  0  0  0  0
 12 11  1  0  0  0  0
 13  2  1  0  0  0  0
M  END
>  <CHROM.1>
179.54436494,19.90992686,1.41409663,1.15344830,-2.62004923,-2.09538955,0.32780544
-0.60363281

>  <Name>
lig.pdb

>  <RI>
2.50021e+07

>  <Rbt.Current_Directory>
/home/itssahil/PROJECTS/Mol_Feturizer/New_Systems/rnas/2l1v

>  <Rbt.Executable>
rbdock ($Id: //depot/dev/client3/rdock/2013.1/src/exe/rbdock.cxx#4 $)

>  <Rbt.Library>
libRbt.so (2013.1, Build901 2013/11/27)

>  <Rbt.Parameter_File>
/export/apps/rDock/src/rDock_2013.1_src/data/scripts/dock_solv.prm

>  <Rbt.Receptor>
prm/pocket_docking_5.prm

>  <SCORE>
-37.3307

>  <SCORE.INTER>
-39.1046

>  <SCORE.INTER.CONST>
1

>  <SCORE.INTER.POLAR>
-1.83285

>  <SCORE.INTER.ROT>
2

>  <SCORE.INTER.SOLV>
14.9446

>  <SCORE.INTER.VDW>
-29.8752

>  <SCORE.INTER.norm>
-3.00805

>  <SCORE.INTRA>
1.77393

>  <SCORE.INTRA.DIHEDRAL>
0.0625127

>  <SCORE.INTRA.DIHEDRAL.0>
1.43995

>  <SCORE.INTRA.POLAR>
0.272593

>  <SCORE.INTRA.POLAR.0>
-0.272593

>  <SCORE.INTRA.REPUL>
0

>  <SCORE.INTRA.REPUL.0>
0

>  <SCORE.INTRA.SOLV>
-0.482215

>  <SCORE.INTRA.SOLV.lig_0>
-22.6728

>  <SCORE.INTRA.VDW>
1.05697

>  <SCORE.INTRA.VDW.0>
-0.754459

>  <SCORE.INTRA.norm>
0.136456

>  <SCORE.RESTR>
0

>  <SCORE.RESTR.CAVITY>
0

>  <SCORE.RESTR.norm>
0

>  <SCORE.SYSTEM>
0

>  <SCORE.SYSTEM.CONST>
0

>  <SCORE.SYSTEM.DIHEDRAL>
0

>  <SCORE.SYSTEM.SOLV>
0

>  <SCORE.SYSTEM.norm>
0

>  <SCORE.heavy>
13

>  <SCORE.norm>
-2.87159

>  <RMSD>
4.872

$$$$
lig.pdb
 OpenBabel11021811453D
libRbt.so/2013.1/901 2013/11/27
 13 14  0  0  0  0  0  0  0  0999 V2000
    1.3840   -0.6879   -1.3527 N   0  0  0  0  0  0  0  0  0  0  0  0
    0.0953   -0.3200   -1.0525 C   0  0  0  0  0  0  0  0  0  0  0  0
   -0.4303    0.7756   -1.5896 N   0  0  0  0  0  0  0  0  0  0  0  0
    0.2842    1.5636   -2.4515 C   0  0  0  0  0  0  0  0  0  0  0  0
    1.6213    1.2251   -2.7813 C   0  0  0  0  0  0  0  0  0  0  0  0
    2.1680    0.0459   -2.1997 C   0  0  0  0  0  0  0  0  0  0  0  0
    3.3065   -0.3087   -2.4462 O   0  0  0  0  0  0  0  0  0  0  0  0
    2.1083    2.2683   -3.6837 C   0  0  0  0  0  0  0  0  0  0  0  0
    3.4915    2.3910   -4.2636 C   0  0  0  0  0  0  0  0  0  0  0  0
    3.5519    3.5612   -5.1504 N   0  0  0  0  0  0  0  0  0  0  0  0
    1.0815    3.1076   -3.8684 C   0  0  0  0  0  0  0  0  0  0  0  0
   -0.0009    2.7025   -3.1333 N   0  0  0  0  0  0  0  0  0  0  0  0
   -0.6534   -1.0911   -0.2027 N   0  0  0  0  0  0  0  0  0  0  0  0
  1  6  1  0  0  0  0
  2  1  1  0  0  0  0
  2  3  2  0  0  0  0
  3  4  1  0  0  0  0
  4  5  2  0  0  0  0
  4 12  1  0  0  0  0
  5  8  1  0  0  0  0
  6  7  2  0  0  0  0
  6  5  1  0  0  0  0
  8 11  2  0  0  0  0
  8  9  1  0  0  0  0
 10  9  1  0  0  0  0
 12 11  1  0  0  0  0
 13  2  1  0  0  0  0
M  END
>  <CHROM.1>
178.43630955,-160.82039883,1.40401000,1.15597723,-2.62535846,-2.10155842
0.32903125,-0.60154925

>  <Name>
lig.pdb

>  <RI>
2.05237e+07

>  <Rbt.Current_Directory>
/home/itssahil/PROJECTS/Mol_Feturizer/New_Systems/rnas/2l1v

>  <Rbt.Executable>
rbdock ($Id: //depot/dev/client3/rdock/2013.1/src/exe/rbdock.cxx#4 $)

>  <Rbt.Library>
libRbt.so (2013.1, Build901 2013/11/27)

>  <Rbt.Parameter_File>
/export/apps/rDock/src/rDock_2013.1_src/data/scripts/dock_solv.prm

>  <Rbt.Receptor>
prm/blind_docking_100.prm

>  <SCORE>
-37.4137

>  <SCORE.INTER>
-39.1153

>  <SCORE.INTER.CONST>
1

>  <SCORE.INTER.POLAR>
-1.8329

>  <SCORE.INTER.ROT>
2

>  <SCORE.INTER.SOLV>
14.9832

>  <SCORE.INTER.VDW>
-29.895

>  <SCORE.INTER.norm>
-3.00887

>  <SCORE.INTRA>
1.70162

>  <SCORE.INTRA.DIHEDRAL>
-0.0479548

>  <SCORE.INTRA.DIHEDRAL.0>
1.43995

>  <SCORE.INTRA.POLAR>
0.272593

>  <SCORE.INTRA.POLAR.0>
-0.272593

>  <SCORE.INTRA.REPUL>
0

>  <SCORE.INTRA.REPUL.0>
0

>  <SCORE.INTRA.SOLV>
-0.48414

>  <SCORE.INTRA.SOLV.lig_0>
-22.6728

>  <SCORE.INTRA.VDW>
1.04086

>  <SCORE.INTRA.VDW.0>
-0.754459

>  <SCORE.INTRA.norm>
0.130894

>  <SCORE.RESTR>
0

>  <SCORE.RESTR.CAVITY>
0

>  <SCORE.RESTR.norm>
0

>  <SCORE.SYSTEM>
0

>  <SCORE.SYSTEM.CONST>
0

>  <SCORE.SYSTEM.DIHEDRAL>
0

>  <SCORE.SYSTEM.SOLV>
0

>  <SCORE.SYSTEM.norm>
0

>  <SCORE.heavy>
13

>  <SCORE.norm>
-2.87798

>  <RMSD>
4.873

$$$$
lig.pdb
 OpenBabel11021811453D
libRbt.so/2013.1/901 2013/11/27
 13 14  0  0  0  0  0  0  0  0999 V2000
    1.4176   -0.7003   -1.3397 N   0  0  0  0  0  0  0  0  0  0  0  0
    0.1245   -0.3459   -1.0424 C   0  0  0  0  0  0  0  0  0  0  0  0
   -0.4115    0.7437   -1.5814 N   0  0  0  0  0  0  0  0  0  0  0  0
    0.2964    1.5386   -2.4424 C   0  0  0  0  0  0  0  0  0  0  0  0
    1.6377    1.2140   -2.7691 C   0  0  0  0  0  0  0  0  0  0  0  0
    2.1956    0.0410   -2.1856 C   0  0  0  0  0  0  0  0  0  0  0  0
    3.3383   -0.3017   -2.4294 O   0  0  0  0  0  0  0  0  0  0  0  0
    2.1156    2.2617   -3.6713 C   0  0  0  0  0  0  0  0  0  0  0  0
    3.4986    2.3985   -4.2484 C   0  0  0  0  0  0  0  0  0  0  0  0
    3.5472    3.5658   -5.1398 N   0  0  0  0  0  0  0  0  0  0  0  0
    1.0804    3.0900   -3.8588 C   0  0  0  0  0  0  0  0  0  0  0  0
    0.0008    2.6739   -3.1257 N   0  0  0  0  0  0  0  0  0  0  0  0
   -0.6178   -1.1242   -0.1937 N   0  0  0  0  0  0  0  0  0  0  0  0
  1  6  1  0  0  0  0
  2  1  1  0  0  0  0
  2  3  2  0  0  0  0
  3  4  1  0  0  0  0
  4  5  2  0  0  0  0
  4 12  1  0  0  0  0
  5  8  1  0  0  0  0
  6  7  2  0  0  0  0
  6  5  1  0  0  0  0
  8 11  2  0  0  0  0
  8  9  1  0  0  0  0
 10  9  1  0  0  0  0
 12 11  1  0  0  0  0
 13  2  1  0  0  0  0
M  END
>  <CHROM.1>
178.22565870,-157.82294293,1.42074537,1.14242823,-2.61400949,-2.09357729
0.32176415,-0.60503942

>  <Name>
lig.pdb

>  <RI>
2.7104e+07

>  <Rbt.Current_Directory>
/home/itssahil/PROJECTS/Mol_Feturizer/New_Systems/rnas/2l1v

>  <Rbt.Executable>
rbdock ($Id: //depot/dev/client3/rdock/2013.1/src/exe/rbdock.cxx#4 $)

>  <Rbt.Library>
libRbt.so (2013.1, Build901 2013/11/27)

>  <Rbt.Parameter_File>
/export/apps/rDock/src/rDock_2013.1_src/data/scripts/dock_solv.prm

>  <Rbt.Receptor>
prm/pocket_docking_8.prm

>  <SCORE>
-37.4129

>  <SCORE.INTER>
-39.0655

>  <SCORE.INTER.CONST>
1

>  <SCORE.INTER.POLAR>
-1.8329

>  <SCORE.INTER.ROT>
2

>  <SCORE.INTER.SOLV>
14.918

>  <SCORE.INTER.VDW>
-29.84

>  <SCORE.INTER.norm>
-3.00504

>  <SCORE.INTRA>
1.65256

>  <SCORE.INTRA.DIHEDRAL>
-0.0506954

>  <SCORE.INTRA.DIHEDRAL.0>
1.43995

>  <SCORE.INTRA.POLAR>
0.272593

>  <SCORE.INTRA.POLAR.0>
-0.272593

>  <SCORE.INTRA.REPUL>
0

>  <SCORE.INTRA.REPUL.0>
0

>  <SCORE.INTRA.SOLV>
-0.487197

>  <SCORE.INTRA.SOLV.lig_0>
-22.6728

>  <SCORE.INTRA.VDW>
0.99469

>  <SCORE.INTRA.VDW.0>
-0.754459

>  <SCORE.INTRA.norm>
0.12712

>  <SCORE.RESTR>
0

>  <SCORE.RESTR.CAVITY>
0

>  <SCORE.RESTR.norm>
0

>  <SCORE.SYSTEM>
0

>  <SCORE.SYSTEM.CONST>
0

>  <SCORE.SYSTEM.DIHEDRAL>
0

>  <SCORE.SYSTEM.SOLV>
0

>  <SCORE.SYSTEM.norm>
0

>  <SCORE.heavy>
13

>  <SCORE.norm>
-2.87792

>  <RMSD>
4.873

$$$$
lig.pdb
 OpenBabel11021811453D
libRbt.so/2013.1/901 2013/11/27
 13 14  0  0  0  0  0  0  0  0999 V2000
    1.3983   -0.6783   -1.3349 N   0  0  0  0  0  0  0  0  0  0  0  0
    0.1081   -0.3115   -1.0401 C   0  0  0  0  0  0  0  0  0  0  0  0
   -0.4206    0.7765   -1.5896 N   0  0  0  0  0  0  0  0  0  0  0  0
    0.2923    1.5574   -2.4593 C   0  0  0  0  0  0  0  0  0  0  0  0
    1.6309    1.2198   -2.7840 C   0  0  0  0  0  0  0  0  0  0  0  0
    2.1808    0.0487   -2.1890 C   0  0  0  0  0  0  0  0  0  0  0  0
    3.3207   -0.3048   -2.4305 O   0  0  0  0  0  0  0  0  0  0  0  0
    2.1155    2.2547   -3.6972 C   0  0  0  0  0  0  0  0  0  0  0  0
    3.4989    2.3756   -4.2769 C   0  0  0  0  0  0  0  0  0  0  0  0
    3.5780    3.5795   -5.1158 N   0  0  0  0  0  0  0  0  0  0  0  0
    1.0861    3.0886   -3.8921 C   0  0  0  0  0  0  0  0  0  0  0  0
    0.0043    2.6879   -3.1538 N   0  0  0  0  0  0  0  0  0  0  0  0
   -0.6390   -1.0757   -0.1828 N   0  0  0  0  0  0  0  0  0  0  0  0
  1  6  1  0  0  0  0
  2  1  1  0  0  0  0
  2  3  2  0  0  0  0
  3  4  1  0  0  0  0
  4  5  2  0  0  0  0
  4 12  1  0  0  0  0
  5  8  1  0  0  0  0
  6  7  2  0  0  0  0
  6  5  1  0  0  0  0
  8 11  2  0  0  0  0
  8  9  1  0  0  0  0
 10  9  1  0  0  0  0
 12 11  1  0  0  0  0
 13  2  1  0  0  0  0
M  END
>  <CHROM.1>
-178.36061553,17.58245762,1.41546397,1.15547383,-2.62215630,-2.10039695,0.32266101
-0.60846660

>  <Name>
lig.pdb

>  <RI>
2.05237e+07

>  <Rbt.Current_Directory>
/home/itssahil/PROJECTS/Mol_Feturizer/New_Systems/rnas/2l1v

>  <Rbt.Executable>
rbdock ($Id: //depot/dev/client3/rdock/2013.1/src/exe/rbdock.cxx#4 $)

>  <Rbt.Library>
libRbt.so (2013.1, Build901 2013/11/27)

>  <Rbt.Parameter_File>
/export/apps/rDock/src/rDock_2013.1_src/data/scripts/dock_solv.prm

>  <Rbt.Receptor>
prm/blind_docking_100.prm

>  <SCORE>
-37.3186

>  <SCORE.INTER>
-39.1157

>  <SCORE.INTER.CONST>
1

>  <SCORE.INTER.POLAR>
-1.8329

>  <SCORE.INTER.ROT>
2

>  <SCORE.INTER.SOLV>
14.9009

>  <SCORE.INTER.VDW>
-29.8678

>  <SCORE.INTER.norm>
-3.0089

>  <SCORE.INTRA>
1.79712

>  <SCORE.INTRA.DIHEDRAL>
0.0565447

>  <SCORE.INTRA.DIHEDRAL.0>
1.43995

>  <SCORE.INTRA.POLAR>
0.272593

>  <SCORE.INTRA.POLAR.0>
-0.272593

>  <SCORE.INTRA.REPUL>
0

>  <SCORE.INTRA.REPUL.0>
0

>  <SCORE.INTRA.SOLV>
-0.479919

>  <SCORE.INTRA.SOLV.lig_0>
-22.6728

>  <SCORE.INTRA.VDW>
1.08199

>  <SCORE.INTRA.VDW.0>
-0.754459

>  <SCORE.INTRA.norm>
0.13824

>  <SCORE.RESTR>
0

>  <SCORE.RESTR.CAVITY>
0

>  <SCORE.RESTR.norm>
0

>  <SCORE.SYSTEM>
0

>  <SCORE.SYSTEM.CONST>
0

>  <SCORE.SYSTEM.DIHEDRAL>
0

>  <SCORE.SYSTEM.SOLV>
0

>  <SCORE.SYSTEM.norm>
0

>  <SCORE.heavy>
13

>  <SCORE.norm>
-2.87066

>  <RMSD>
4.874

$$$$
lig.pdb
 OpenBabel11021811453D
libRbt.so/2013.1/901 2013/11/27
 13 14  0  0  0  0  0  0  0  0999 V2000
    1.3709   -0.6888   -1.3509 N   0  0  0  0  0  0  0  0  0  0  0  0
    0.0810   -0.3195   -1.0575 C   0  0  0  0  0  0  0  0  0  0  0  0
   -0.4402    0.7773   -1.5964 N   0  0  0  0  0  0  0  0  0  0  0  0
    0.2801    1.5652   -2.4536 C   0  0  0  0  0  0  0  0  0  0  0  0
    1.6185    1.2252   -2.7764 C   0  0  0  0  0  0  0  0  0  0  0  0
    2.1604    0.0447   -2.1929 C   0  0  0  0  0  0  0  0  0  0  0  0
    3.2998   -0.3111   -2.4335 O   0  0  0  0  0  0  0  0  0  0  0  0
    2.1119    2.2686   -3.6752 C   0  0  0  0  0  0  0  0  0  0  0  0
    3.4984    2.3900   -4.2473 C   0  0  0  0  0  0  0  0  0  0  0  0
    3.5574    3.5439   -5.1553 N   0  0  0  0  0  0  0  0  0  0  0  0
    1.0872    3.1094   -3.8647 C   0  0  0  0  0  0  0  0  0  0  0  0
    0.0002    2.7050   -3.1360 N   0  0  0  0  0  0  0  0  0  0  0  0
   -0.6733   -1.0903   -0.2126 N   0  0  0  0  0  0  0  0  0  0  0  0
  1  6  1  0  0  0  0
  2  1  1  0  0  0  0
  2  3  2  0  0  0  0
  3  4  1  0  0  0  0
  4  5  2  0  0  0  0
  4 12  1  0  0  0  0
  5  8  1  0  0  0  0
  6  7  2  0  0  0  0
  6  5  1  0  0  0  0
  8 11  2  0  0  0  0
  8  9  1  0  0  0  0
 10  9  1  0  0  0  0
 12 11  1  0  0  0  0
 13  2  1  0  0  0  0
M  END
>  <CHROM.1>
177.22101004,-157.53781777,1.39958303,1.15463791,-2.62385597,-2.10561038
0.32685958,-0.60099011

>  <Name>
lig.pdb

>  <RI>
2.50021e+07

>  <Rbt.Current_Directory>
/home/itssahil/PROJECTS/Mol_Feturizer/New_Systems/rnas/2l1v

>  <Rbt.Executable>
rbdock ($Id: //depot/dev/client3/rdock/2013.1/src/exe/rbdock.cxx#4 $)

>  <Rbt.Library>
libRbt.so (2013.1, Build901 2013/11/27)

>  <Rbt.Parameter_File>
/export/apps/rDock/src/rDock_2013.1_src/data/scripts/dock_solv.prm

>  <Rbt.Receptor>
prm/pocket_docking_5.prm

>  <SCORE>
-37.4527

>  <SCORE.INTER>
-39.1076

>  <SCORE.INTER.CONST>
1

>  <SCORE.INTER.POLAR>
-1.8329

>  <SCORE.INTER.ROT>
2

>  <SCORE.INTER.SOLV>
14.982

>  <SCORE.INTER.VDW>
-29.8894

>  <SCORE.INTER.norm>
-3.00828

>  <SCORE.INTRA>
1.65492

>  <SCORE.INTRA.DIHEDRAL>
-0.0414993

>  <SCORE.INTRA.DIHEDRAL.0>
1.43995

>  <SCORE.INTRA.POLAR>
0.272593

>  <SCORE.INTRA.POLAR.0>
-0.272593

>  <SCORE.INTRA.REPUL>
0

>  <SCORE.INTRA.REPUL.0>
0

>  <SCORE.INTRA.SOLV>
-0.487792

>  <SCORE.INTRA.SOLV.lig_0>
-22.6728

>  <SCORE.INTRA.VDW>
0.992747

>  <SCORE.INTRA.VDW.0>
-0.754459

>  <SCORE.INTRA.norm>
0.127301

>  <SCORE.RESTR>
0

>  <SCORE.RESTR.CAVITY>
0

>  <SCORE.RESTR.norm>
0

>  <SCORE.SYSTEM>
0

>  <SCORE.SYSTEM.CONST>
0

>  <SCORE.SYSTEM.DIHEDRAL>
0

>  <SCORE.SYSTEM.SOLV>
0

>  <SCORE.SYSTEM.norm>
0

>  <SCORE.heavy>
13

>  <SCORE.norm>
-2.88098

>  <RMSD>
4.875

$$$$
lig.pdb
 OpenBabel11021811453D
libRbt.so/2013.1/901 2013/11/27
 13 14  0  0  0  0  0  0  0  0999 V2000
    1.3788   -0.6870   -1.3545 N   0  0  0  0  0  0  0  0  0  0  0  0
    0.0939   -0.3127   -1.0460 C   0  0  0  0  0  0  0  0  0  0  0  0
   -0.4306    0.7839   -1.5820 N   0  0  0  0  0  0  0  0  0  0  0  0
    0.2812    1.5667   -2.4509 C   0  0  0  0  0  0  0  0  0  0  0  0
    1.6144    1.2214   -2.7894 C   0  0  0  0  0  0  0  0  0  0  0  0
    2.1600    0.0412   -2.2089 C   0  0  0  0  0  0  0  0  0  0  0  0
    3.2951   -0.3191   -2.4626 O   0  0  0  0  0  0  0  0  0  0  0  0
    2.0996    2.2602   -3.6978 C   0  0  0  0  0  0  0  0  0  0  0  0
    3.4791    2.3753   -4.2879 C   0  0  0  0  0  0  0  0  0  0  0  0
    3.6182    3.6713   -4.9666 N   0  0  0  0  0  0  0  0  0  0  0  0
    1.0752    3.1037   -3.8773 C   0  0  0  0  0  0  0  0  0  0  0  0
   -0.0037    2.7052   -3.1335 N   0  0  0  0  0  0  0  0  0  0  0  0
   -0.6521   -1.0784   -0.1891 N   0  0  0  0  0  0  0  0  0  0  0  0
  1  6  1  0  0  0  0
  2  1  1  0  0  0  0
  2  3  2  0  0  0  0
  3  4  1  0  0  0  0
  4  5  2  0  0  0  0
  4 12  1  0  0  0  0
  5  8  1  0  0  0  0
  6  7  2  0  0  0  0
  6  5  1  0  0  0  0
  8 11  2  0  0  0  0
  8  9  1  0  0  0  0
 10  9  1  0  0  0  0
 12 11  1  0  0  0  0
 13  2  1  0  0  0  0
M  END
>  <CHROM.1>
-170.80063925,-13.77951129,1.40524840,1.16541083,-2.61235092,-2.10635945
0.32270588,-0.58872889

>  <Name>
lig.pdb

>  <RI>
2.05237e+07

>  <Rbt.Current_Directory>
/home/itssahil/PROJECTS/Mol_Feturizer/New_Systems/rnas/2l1v

>  <Rbt.Executable>
rbdock ($Id: //depot/dev/client3/rdock/2013.1/src/exe/rbdock.cxx#4 $)

>  <Rbt.Library>
libRbt.so (2013.1, Build901 2013/11/27)

>  <Rbt.Parameter_File>
/export/apps/rDock/src/rDock_2013.1_src/data/scripts/dock_solv.prm

>  <Rbt.Receptor>
prm/blind_docking_100.prm

>  <SCORE>
-37.2933

>  <SCORE.INTER>
-39.2124

>  <SCORE.INTER.CONST>
1

>  <SCORE.INTER.POLAR>
-1.83821

>  <SCORE.INTER.ROT>
2

>  <SCORE.INTER.SOLV>
15.0226

>  <SCORE.INTER.VDW>
-29.9551

>  <SCORE.INTER.norm>
-3.01634

>  <SCORE.INTRA>
1.85656

>  <SCORE.INTRA.DIHEDRAL>
0.0623388

>  <SCORE.INTRA.DIHEDRAL.0>
1.43995

>  <SCORE.INTRA.POLAR>
0.272593

>  <SCORE.INTRA.POLAR.0>
-0.272593

>  <SCORE.INTRA.REPUL>
0

>  <SCORE.INTRA.REPUL.0>
0

>  <SCORE.INTRA.SOLV>
-0.477782

>  <SCORE.INTRA.SOLV.lig_0>
-22.6728

>  <SCORE.INTRA.VDW>
1.13747

>  <SCORE.INTRA.VDW.0>
-0.754459

>  <SCORE.INTRA.norm>
0.142813

>  <SCORE.RESTR>
0.0625485

>  <SCORE.RESTR.CAVITY>
0.0625485

>  <SCORE.RESTR.norm>
0.00481142

>  <SCORE.SYSTEM>
0

>  <SCORE.SYSTEM.CONST>
0

>  <SCORE.SYSTEM.DIHEDRAL>
0

>  <SCORE.SYSTEM.SOLV>
0

>  <SCORE.SYSTEM.norm>
0

>  <SCORE.heavy>
13

>  <SCORE.norm>
-2.86871

>  <RMSD>
4.876

$$$$
lig.pdb
 OpenBabel11021811453D
libRbt.so/2013.1/901 2013/11/27
 13 14  0  0  0  0  0  0  0  0999 V2000
    1.1665   -0.5991   -1.3944 N   0  0  0  0  0  0  0  0  0  0  0  0
   -0.0163    0.0175   -1.0671 C   0  0  0  0  0  0  0  0  0  0  0  0
   -0.3354    1.1859   -1.6130 N   0  0  0  0  0  0  0  0  0  0  0  0
    0.4916    1.8060   -2.5108 C   0  0  0  0  0  0  0  0  0  0  0  0
    1.7266    1.2083   -2.8696 C   0  0  0  0  0  0  0  0  0  0  0  0
    2.0515   -0.0456   -2.2781 C   0  0  0  0  0  0  0  0  0  0  0  0
    3.0912   -0.6190   -2.5479 O   0  0  0  0  0  0  0  0  0  0  0  0
    2.3789    2.1223   -3.8072 C   0  0  0  0  0  0  0  0  0  0  0  0
    3.7409    1.9640   -4.4271 C   0  0  0  0  0  0  0  0  0  0  0  0
    4.3430    3.2878   -4.6383 N   0  0  0  0  0  0  0  0  0  0  0  0
    1.5295    3.1426   -3.9817 C   0  0  0  0  0  0  0  0  0  0  0  0
    0.4123    2.9677   -3.2089 N   0  0  0  0  0  0  0  0  0  0  0  0
   -0.8738   -0.5795   -0.1810 N   0  0  0  0  0  0  0  0  0  0  0  0
  1  6  1  0  0  0  0
  2  1  1  0  0  0  0
  2  3  2  0  0  0  0
  3  4  1  0  0  0  0
  4  5  2  0  0  0  0
  4 12  1  0  0  0  0
  5  8  1  0  0  0  0
  6  7  2  0  0  0  0
  6  5  1  0  0  0  0
  8 11  2  0  0  0  0
  8  9  1  0  0  0  0
 10  9  1  0  0  0  0
 12 11  1  0  0  0  0
 13  2  1  0  0  0  0
M  END
>  <CHROM.1>
-147.68976696,141.46365929,1.53681767,1.20408428,-2.64088628,-2.29128234
0.41004724,-0.51950550

>  <Name>
lig.pdb

>  <RI>
9.54411e+06

>  <Rbt.Current_Directory>
/home/itssahil/PROJECTS/Mol_Feturizer/New_Systems/rnas/2l1v

>  <Rbt.Executable>
rbdock ($Id: //depot/dev/client3/rdock/2013.1/src/exe/rbdock.cxx#4 $)

>  <Rbt.Library>
libRbt.so (2013.1, Build901 2013/11/27)

>  <Rbt.Parameter_File>
/export/apps/rDock/src/rDock_2013.1_src/data/scripts/dock_solv.prm

>  <Rbt.Receptor>
prm/pocket_docking_6.prm

>  <SCORE>
-35.4195

>  <SCORE.INTER>
-37.3804

>  <SCORE.INTER.CONST>
1

>  <SCORE.INTER.POLAR>
-1.68637

>  <SCORE.INTER.ROT>
2

>  <SCORE.INTER.SOLV>
14.9941

>  <SCORE.INTER.VDW>
-29.2304

>  <SCORE.INTER.norm>
-2.87542

>  <SCORE.INTRA>
1.93133

>  <SCORE.INTRA.DIHEDRAL>
1.24317

>  <SCORE.INTRA.DIHEDRAL.0>
1.43995

>  <SCORE.INTRA.POLAR>
0.272593

>  <SCORE.INTRA.POLAR.0>
-0.272593

>  <SCORE.INTRA.REPUL>
0

>  <SCORE.INTRA.REPUL.0>
0

>  <SCORE.INTRA.SOLV>
-0.507149

>  <SCORE.INTRA.SOLV.lig_0>
-22.6728

>  <SCORE.INTRA.VDW>
0.636503

>  <SCORE.INTRA.VDW.0>
-0.754459

>  <SCORE.INTRA.norm>
0.148564

>  <SCORE.RESTR>
0.0295985

>  <SCORE.RESTR.CAVITY>
0.0295985

>  <SCORE.RESTR.norm>
0.0022768

>  <SCORE.SYSTEM>
0

>  <SCORE.SYSTEM.CONST>
0

>  <SCORE.SYSTEM.DIHEDRAL>
0

>  <SCORE.SYSTEM.SOLV>
0

>  <SCORE.SYSTEM.norm>
0

>  <SCORE.heavy>
13

>  <SCORE.norm>
-2.72458

>  <RMSD>
4.879

$$$$
lig.pdb
 OpenBabel11021811453D
libRbt.so/2013.1/901 2013/11/27
 13 14  0  0  0  0  0  0  0  0999 V2000
    1.1585   -0.5981   -1.3763 N   0  0  0  0  0  0  0  0  0  0  0  0
   -0.0371    0.0055   -1.0726 C   0  0  0  0  0  0  0  0  0  0  0  0
   -0.3654    1.1624   -1.6375 N   0  0  0  0  0  0  0  0  0  0  0  0
    0.4648    1.7829   -2.5320 C   0  0  0  0  0  0  0  0  0  0  0  0
    1.7128    1.1986   -2.8668 C   0  0  0  0  0  0  0  0  0  0  0  0
    2.0474   -0.0430   -2.2551 C   0  0  0  0  0  0  0  0  0  0  0  0
    3.0987   -0.6049   -2.5038 O   0  0  0  0  0  0  0  0  0  0  0  0
    2.3647    2.1100   -3.8071 C   0  0  0  0  0  0  0  0  0  0  0  0
    3.7370    1.9635   -4.4069 C   0  0  0  0  0  0  0  0  0  0  0  0
    4.3357    3.2918   -4.5975 N   0  0  0  0  0  0  0  0  0  0  0  0
    1.5033    3.1158   -4.0059 C   0  0  0  0  0  0  0  0  0  0  0  0
    0.3784    2.9346   -3.2457 N   0  0  0  0  0  0  0  0  0  0  0  0
   -0.8980   -0.5925   -0.1904 N   0  0  0  0  0  0  0  0  0  0  0  0
  1  6  1  0  0  0  0
  2  1  1  0  0  0  0
  2  3  2  0  0  0  0
  3  4  1  0  0  0  0
  4  5  2  0  0  0  0
  4 12  1  0  0  0  0
  5  8  1  0  0  0  0
  6  7  2  0  0  0  0
  6  5  1  0  0  0  0
  8 11  2  0  0  0  0
  8  9  1  0  0  0  0
 10  9  1  0  0  0  0
 12 11  1  0  0  0  0
 13  2  1  0  0  0  0
M  END
>  <CHROM.1>
-146.36580618,-37.06923960,1.52129356,1.19430518,-2.63815484,-2.28701142
0.38963043,-0.53351762

>  <Name>
lig.pdb

>  <RI>
4.17264e+07

>  <Rbt.Current_Directory>
/home/itssahil/PROJECTS/Mol_Feturizer/New_Systems/rnas/2l1v

>  <Rbt.Executable>
rbdock ($Id: //depot/dev/client3/rdock/2013.1/src/exe/rbdock.cxx#4 $)

>  <Rbt.Library>
libRbt.so (2013.1, Build901 2013/11/27)

>  <Rbt.Parameter_File>
/export/apps/rDock/src/rDock_2013.1_src/data/scripts/dock_solv.prm

>  <Rbt.Receptor>
prm/blind_docking_20.prm

>  <SCORE>
-35.4858

>  <SCORE.INTER>
-37.3873

>  <SCORE.INTER.CONST>
1

>  <SCORE.INTER.POLAR>
-1.68828

>  <SCORE.INTER.ROT>
2

>  <SCORE.INTER.SOLV>
14.939

>  <SCORE.INTER.VDW>
-29.2103

>  <SCORE.INTER.norm>
-2.87595

>  <SCORE.INTRA>
1.88645

>  <SCORE.INTRA.DIHEDRAL>
1.19463

>  <SCORE.INTRA.DIHEDRAL.0>
1.43995

>  <SCORE.INTRA.POLAR>
0.272593

>  <SCORE.INTRA.POLAR.0>
-0.272593

>  <SCORE.INTRA.REPUL>
0

>  <SCORE.INTRA.REPUL.0>
0

>  <SCORE.INTRA.SOLV>
-0.509357

>  <SCORE.INTRA.SOLV.lig_0>
-22.6728

>  <SCORE.INTRA.VDW>
0.616992

>  <SCORE.INTRA.VDW.0>
-0.754459

>  <SCORE.INTRA.norm>
0.145111

>  <SCORE.RESTR>
0.0150279

>  <SCORE.RESTR.CAVITY>
0.0150279

>  <SCORE.RESTR.norm>
0.00115599

>  <SCORE.SYSTEM>
0

>  <SCORE.SYSTEM.CONST>
0

>  <SCORE.SYSTEM.DIHEDRAL>
0

>  <SCORE.SYSTEM.SOLV>
0

>  <SCORE.SYSTEM.norm>
0

>  <SCORE.heavy>
13

>  <SCORE.norm>
-2.72968

>  <RMSD>
4.882

$$$$
lig.pdb
 OpenBabel11021811453D
libRbt.so/2013.1/901 2013/11/27
 13 14  0  0  0  0  0  0  0  0999 V2000
    1.3477   -0.6378   -1.2889 N   0  0  0  0  0  0  0  0  0  0  0  0
    0.0601   -0.2567   -1.0007 C   0  0  0  0  0  0  0  0  0  0  0  0
   -0.4572    0.8313   -1.5608 N   0  0  0  0  0  0  0  0  0  0  0  0
    0.2650    1.5983   -2.4352 C   0  0  0  0  0  0  0  0  0  0  0  0
    1.6012    1.2458   -2.7534 C   0  0  0  0  0  0  0  0  0  0  0  0
    2.1389    0.0749   -2.1471 C   0  0  0  0  0  0  0  0  0  0  0  0
    3.2762   -0.2910   -2.3825 O   0  0  0  0  0  0  0  0  0  0  0  0
    2.0976    2.2684   -3.6741 C   0  0  0  0  0  0  0  0  0  0  0  0
    3.4835    2.3719   -4.2511 C   0  0  0  0  0  0  0  0  0  0  0  0
    3.6128    3.6296   -5.0000 N   0  0  0  0  0  0  0  0  0  0  0  0
    1.0763    3.1100   -3.8788 C   0  0  0  0  0  0  0  0  0  0  0  0
   -0.0110    2.7254   -3.1400 N   0  0  0  0  0  0  0  0  0  0  0  0
   -0.6961   -1.0068   -0.1389 N   0  0  0  0  0  0  0  0  0  0  0  0
  1  6  1  0  0  0  0
  2  1  1  0  0  0  0
  2  3  2  0  0  0  0
  3  4  1  0  0  0  0
  4  5  2  0  0  0  0
  4 12  1  0  0  0  0
  5  8  1  0  0  0  0
  6  7  2  0  0  0  0
  6  5  1  0  0  0  0
  8 11  2  0  0  0  0
  8  9  1  0  0  0  0
 10  9  1  0  0  0  0
 12 11  1  0  0  0  0
 13  2  1  0  0  0  0
M  END
>  <CHROM.1>
-173.26102075,-4.88204746,1.38834324,1.19056946,-2.58233152,-2.11238561,0.31810264
-0.60681298

>  <Name>
lig.pdb

>  <RI>
9.54411e+06

>  <Rbt.Current_Directory>
/home/itssahil/PROJECTS/Mol_Feturizer/New_Systems/rnas/2l1v

>  <Rbt.Executable>
rbdock ($Id: //depot/dev/client3/rdock/2013.1/src/exe/rbdock.cxx#4 $)

>  <Rbt.Library>
libRbt.so (2013.1, Build901 2013/11/27)

>  <Rbt.Parameter_File>
/export/apps/rDock/src/rDock_2013.1_src/data/scripts/dock_solv.prm

>  <Rbt.Receptor>
prm/pocket_docking_6.prm

>  <SCORE>
-37.0582

>  <SCORE.INTER>
-39.0322

>  <SCORE.INTER.CONST>
1

>  <SCORE.INTER.POLAR>
-1.8329

>  <SCORE.INTER.ROT>
2

>  <SCORE.INTER.SOLV>
14.7583

>  <SCORE.INTER.VDW>
-29.7646

>  <SCORE.INTER.norm>
-3.00248

>  <SCORE.INTRA>
1.9214

>  <SCORE.INTRA.DIHEDRAL>
0.0388223

>  <SCORE.INTRA.DIHEDRAL.0>
1.43995

>  <SCORE.INTRA.POLAR>
0.272593

>  <SCORE.INTRA.POLAR.0>
-0.272593

>  <SCORE.INTRA.REPUL>
0

>  <SCORE.INTRA.REPUL.0>
0

>  <SCORE.INTRA.SOLV>
-0.473508

>  <SCORE.INTRA.SOLV.lig_0>
-22.6728

>  <SCORE.INTRA.VDW>
1.21193

>  <SCORE.INTRA.VDW.0>
-0.754459

>  <SCORE.INTRA.norm>
0.1478

>  <SCORE.RESTR>
0.0525598

>  <SCORE.RESTR.CAVITY>
0.0525598

>  <SCORE.RESTR.norm>
0.00404306

>  <SCORE.SYSTEM>
0

>  <SCORE.SYSTEM.CONST>
0

>  <SCORE.SYSTEM.DIHEDRAL>
0

>  <SCORE.SYSTEM.SOLV>
0

>  <SCORE.SYSTEM.norm>
0

>  <SCORE.heavy>
13

>  <SCORE.norm>
-2.85063

>  <RMSD>
4.883

$$$$
lig.pdb
 OpenBabel11021811453D
libRbt.so/2013.1/901 2013/11/27
 13 14  0  0  0  0  0  0  0  0999 V2000
    1.7955   -1.0892   -1.1727 N   0  0  0  0  0  0  0  0  0  0  0  0
    0.4734   -1.0006   -0.8115 C   0  0  0  0  0  0  0  0  0  0  0  0
   -0.2789   -0.0038   -1.2648 N   0  0  0  0  0  0  0  0  0  0  0  0
    0.2305    0.9551   -2.0987 C   0  0  0  0  0  0  0  0  0  0  0  0
    1.5930    0.9064   -2.4892 C   0  0  0  0  0  0  0  0  0  0  0  0
    2.3841   -0.1705   -1.9973 C   0  0  0  0  0  0  0  0  0  0  0  0
    3.5587   -0.2788   -2.2995 O   0  0  0  0  0  0  0  0  0  0  0  0
    1.8277    2.0722   -3.3412 C   0  0  0  0  0  0  0  0  0  0  0  0
    3.1344    2.4973   -3.9546 C   0  0  0  0  0  0  0  0  0  0  0  0
    3.9511    1.3108   -4.2456 N   0  0  0  0  0  0  0  0  0  0  0  0
    0.6494    2.7000   -3.4431 C   0  0  0  0  0  0  0  0  0  0  0  0
   -0.3007    2.0497   -2.7012 N   0  0  0  0  0  0  0  0  0  0  0  0
   -0.0732   -1.9490    0.0124 N   0  0  0  0  0  0  0  0  0  0  0  0
  1  6  1  0  0  0  0
  2  1  1  0  0  0  0
  2  3  2  0  0  0  0
  3  4  1  0  0  0  0
  4  5  2  0  0  0  0
  4 12  1  0  0  0  0
  5  8  1  0  0  0  0
  6  7  2  0  0  0  0
  6  5  1  0  0  0  0
  8 11  2  0  0  0  0
  8  9  1  0  0  0  0
 10  9  1  0  0  0  0
 12 11  1  0  0  0  0
 13  2  1  0  0  0  0
M  END
>  <CHROM.1>
31.61988214,121.47936244,1.49548353,0.56412030,-2.28242903,-2.10079527,0.30758242
-0.61343455

>  <Name>
lig.pdb

>  <RI>
4.02536e+07

>  <Rbt.Current_Directory>
/home/itssahil/PROJECTS/Mol_Feturizer/New_Systems/rnas/2l1v

>  <Rbt.Executable>
rbdock ($Id: //depot/dev/client3/rdock/2013.1/src/exe/rbdock.cxx#4 $)

>  <Rbt.Library>
libRbt.so (2013.1, Build901 2013/11/27)

>  <Rbt.Parameter_File>
/export/apps/rDock/src/rDock_2013.1_src/data/scripts/dock_solv.prm

>  <Rbt.Receptor>
prm/blind_docking_40.prm

>  <SCORE>
-40.5128

>  <SCORE.INTER>
-39.6754

>  <SCORE.INTER.CONST>
1

>  <SCORE.INTER.POLAR>
-2.60514

>  <SCORE.INTER.ROT>
2

>  <SCORE.INTER.SOLV>
14.3497

>  <SCORE.INTER.VDW>
-27.483

>  <SCORE.INTER.norm>
-3.05195

>  <SCORE.INTRA>
-0.837449

>  <SCORE.INTRA.DIHEDRAL>
1.06663

>  <SCORE.INTRA.DIHEDRAL.0>
1.43995

>  <SCORE.INTRA.POLAR>
-0.622103

>  <SCORE.INTRA.POLAR.0>
-0.272593

>  <SCORE.INTRA.REPUL>
0

>  <SCORE.INTRA.REPUL.0>
0

>  <SCORE.INTRA.SOLV>
0.254111

>  <SCORE.INTRA.SOLV.lig_0>
-22.6728

>  <SCORE.INTRA.VDW>
0.617332

>  <SCORE.INTRA.VDW.0>
-0.754459

>  <SCORE.INTRA.norm>
-0.0644191

>  <SCORE.RESTR>
0

>  <SCORE.RESTR.CAVITY>
0

>  <SCORE.RESTR.norm>
0

>  <SCORE.SYSTEM>
0

>  <SCORE.SYSTEM.CONST>
0

>  <SCORE.SYSTEM.DIHEDRAL>
0

>  <SCORE.SYSTEM.SOLV>
0

>  <SCORE.SYSTEM.norm>
0

>  <SCORE.heavy>
13

>  <SCORE.norm>
-3.11637

>  <RMSD>
4.910

$$$$
lig.pdb
 OpenBabel11021811453D
libRbt.so/2013.1/901 2013/11/27
 13 14  0  0  0  0  0  0  0  0999 V2000
    1.7730   -1.0971   -1.1818 N   0  0  0  0  0  0  0  0  0  0  0  0
    0.4534   -0.9987   -0.8142 C   0  0  0  0  0  0  0  0  0  0  0  0
   -0.2939    0.0033   -1.2645 N   0  0  0  0  0  0  0  0  0  0  0  0
    0.2183    0.9579   -2.1016 C   0  0  0  0  0  0  0  0  0  0  0  0
    1.5785    0.8991   -2.4987 C   0  0  0  0  0  0  0  0  0  0  0  0
    2.3642   -0.1832   -2.0098 C   0  0  0  0  0  0  0  0  0  0  0  0
    3.5365   -0.3002   -2.3177 O   0  0  0  0  0  0  0  0  0  0  0  0
    1.8175    2.0625   -3.3525 C   0  0  0  0  0  0  0  0  0  0  0  0
    3.1242    2.4778   -3.9726 C   0  0  0  0  0  0  0  0  0  0  0  0
    3.9293    1.2851   -4.2705 N   0  0  0  0  0  0  0  0  0  0  0  0
    0.6433    2.6989   -3.4492 C   0  0  0  0  0  0  0  0  0  0  0  0
   -0.3079    2.0559   -2.7022 N   0  0  0  0  0  0  0  0  0  0  0  0
   -0.0961   -1.9426    0.0130 N   0  0  0  0  0  0  0  0  0  0  0  0
  1  6  1  0  0  0  0
  2  1  1  0  0  0  0
  2  3  2  0  0  0  0
  3  4  1  0  0  0  0
  4  5  2  0  0  0  0
  4 12  1  0  0  0  0
  5  8  1  0  0  0  0
  6  7  2  0  0  0  0
  6  5  1  0  0  0  0
  8 11  2  0  0  0  0
  8  9  1  0  0  0  0
 10  9  1  0  0  0  0
 12 11  1  0  0  0  0
 13  2  1  0  0  0  0
M  END
>  <CHROM.1>
31.78950571,-56.39814298,1.47968603,0.55780905,-2.29145768,-2.10436859,0.31583811
-0.61313309

>  <Name>
lig.pdb

>  <RI>
2.50021e+07

>  <Rbt.Current_Directory>
/home/itssahil/PROJECTS/Mol_Feturizer/New_Systems/rnas/2l1v

>  <Rbt.Executable>
rbdock ($Id: //depot/dev/client3/rdock/2013.1/src/exe/rbdock.cxx#4 $)

>  <Rbt.Library>
libRbt.so (2013.1, Build901 2013/11/27)

>  <Rbt.Parameter_File>
/export/apps/rDock/src/rDock_2013.1_src/data/scripts/dock_solv.prm

>  <Rbt.Receptor>
prm/pocket_docking_5.prm

>  <SCORE>
-39.4951

>  <SCORE.INTER>
-38.627

>  <SCORE.INTER.CONST>
1

>  <SCORE.INTER.POLAR>
-2.33158

>  <SCORE.INTER.ROT>
2

>  <SCORE.INTER.SOLV>
14.3859

>  <SCORE.INTER.VDW>
-27.708

>  <SCORE.INTER.norm>
-2.97131

>  <SCORE.INTRA>
-0.86816

>  <SCORE.INTRA.DIHEDRAL>
1.0321

>  <SCORE.INTRA.DIHEDRAL.0>
1.43995

>  <SCORE.INTRA.POLAR>
-0.623775

>  <SCORE.INTRA.POLAR.0>
-0.272593

>  <SCORE.INTRA.REPUL>
0

>  <SCORE.INTRA.REPUL.0>
0

>  <SCORE.INTRA.SOLV>
0.250983

>  <SCORE.INTRA.SOLV.lig_0>
-22.6728

>  <SCORE.INTRA.VDW>
0.611133

>  <SCORE.INTRA.VDW.0>
-0.754459

>  <SCORE.INTRA.norm>
-0.0667815

>  <SCORE.RESTR>
0

>  <SCORE.RESTR.CAVITY>
0

>  <SCORE.RESTR.norm>
0

>  <SCORE.SYSTEM>
0

>  <SCORE.SYSTEM.CONST>
0

>  <SCORE.SYSTEM.DIHEDRAL>
0

>  <SCORE.SYSTEM.SOLV>
0

>  <SCORE.SYSTEM.norm>
0

>  <SCORE.heavy>
13

>  <SCORE.norm>
-3.03809

>  <RMSD>
4.911

$$$$
lig.pdb
 OpenBabel11021811453D
libRbt.so/2013.1/901 2013/11/27
 13 14  0  0  0  0  0  0  0  0999 V2000
    1.7472   -1.0922   -1.1589 N   0  0  0  0  0  0  0  0  0  0  0  0
    0.4265   -0.9890   -0.7967 C   0  0  0  0  0  0  0  0  0  0  0  0
   -0.3155    0.0153   -1.2505 N   0  0  0  0  0  0  0  0  0  0  0  0
    0.2034    0.9677   -2.0860 C   0  0  0  0  0  0  0  0  0  0  0  0
    1.5650    0.9040   -2.4775 C   0  0  0  0  0  0  0  0  0  0  0  0
    2.3450   -0.1808   -1.9850 C   0  0  0  0  0  0  0  0  0  0  0  0
    3.5180   -0.3020   -2.2880 O   0  0  0  0  0  0  0  0  0  0  0  0
    1.8115    2.0662   -3.3310 C   0  0  0  0  0  0  0  0  0  0  0  0
    3.1221    2.4766   -3.9459 C   0  0  0  0  0  0  0  0  0  0  0  0
    3.9225    1.2807   -4.2438 N   0  0  0  0  0  0  0  0  0  0  0  0
    0.6399    2.7065   -3.4327 C   0  0  0  0  0  0  0  0  0  0  0  0
   -0.3165    2.0673   -2.6893 N   0  0  0  0  0  0  0  0  0  0  0  0
   -0.1296   -1.9306    0.0287 N   0  0  0  0  0  0  0  0  0  0  0  0
  1  6  1  0  0  0  0
  2  1  1  0  0  0  0
  2  3  2  0  0  0  0
  3  4  1  0  0  0  0
  4  5  2  0  0  0  0
  4 12  1  0  0  0  0
  5  8  1  0  0  0  0
  6  7  2  0  0  0  0
  6  5  1  0  0  0  0
  8 11  2  0  0  0  0
  8  9  1  0  0  0  0
 10  9  1  0  0  0  0
 12 11  1  0  0  0  0
 13  2  1  0  0  0  0
M  END
>  <CHROM.1>
31.96570274,-56.86440974,1.46398471,0.56313084,-2.27088673,-2.10965167,0.31484495
-0.61205616

>  <Name>
lig.pdb

>  <RI>
1.77584e+07

>  <Rbt.Current_Directory>
/home/itssahil/PROJECTS/Mol_Feturizer/New_Systems/rnas/2l1v

>  <Rbt.Executable>
rbdock ($Id: //depot/dev/client3/rdock/2013.1/src/exe/rbdock.cxx#4 $)

>  <Rbt.Library>
libRbt.so (2013.1, Build901 2013/11/27)

>  <Rbt.Parameter_File>
/export/apps/rDock/src/rDock_2013.1_src/data/scripts/dock_solv.prm

>  <Rbt.Receptor>
prm/blind_docking_80.prm

>  <SCORE>
-39.3952

>  <SCORE.INTER>
-38.5325

>  <SCORE.INTER.CONST>
1

>  <SCORE.INTER.POLAR>
-2.33021

>  <SCORE.INTER.ROT>
2

>  <SCORE.INTER.SOLV>
14.2684

>  <SCORE.INTER.VDW>
-27.6105

>  <SCORE.INTER.norm>
-2.96404

>  <SCORE.INTRA>
-0.862662

>  <SCORE.INTRA.DIHEDRAL>
1.02355

>  <SCORE.INTRA.DIHEDRAL.0>
1.43995

>  <SCORE.INTRA.POLAR>
-0.615624

>  <SCORE.INTRA.POLAR.0>
-0.272593

>  <SCORE.INTRA.REPUL>
0

>  <SCORE.INTRA.REPUL.0>
0

>  <SCORE.INTRA.SOLV>
0.248496

>  <SCORE.INTRA.SOLV.lig_0>
-22.6728

>  <SCORE.INTRA.VDW>
0.594437

>  <SCORE.INTRA.VDW.0>
-0.754459

>  <SCORE.INTRA.norm>
-0.0663586

>  <SCORE.RESTR>
0

>  <SCORE.RESTR.CAVITY>
0

>  <SCORE.RESTR.norm>
0

>  <SCORE.SYSTEM>
0

>  <SCORE.SYSTEM.CONST>
0

>  <SCORE.SYSTEM.DIHEDRAL>
0

>  <SCORE.SYSTEM.SOLV>
0

>  <SCORE.SYSTEM.norm>
0

>  <SCORE.heavy>
13

>  <SCORE.norm>
-3.0304

>  <RMSD>
4.918

$$$$
lig.pdb
 OpenBabel11021811453D
libRbt.so/2013.1/901 2013/11/27
 13 14  0  0  0  0  0  0  0  0999 V2000
    1.7398   -1.0825   -1.0880 N   0  0  0  0  0  0  0  0  0  0  0  0
    0.4139   -0.9915   -0.7418 C   0  0  0  0  0  0  0  0  0  0  0  0
   -0.3351   -0.0016   -1.2152 N   0  0  0  0  0  0  0  0  0  0  0  0
    0.1816    0.9477   -2.0556 C   0  0  0  0  0  0  0  0  0  0  0  0
    1.5482    0.8964   -2.4311 C   0  0  0  0  0  0  0  0  0  0  0  0
    2.3357   -0.1731   -1.9176 C   0  0  0  0  0  0  0  0  0  0  0  0
    3.5136   -0.2832   -2.2061 O   0  0  0  0  0  0  0  0  0  0  0  0
    1.7902    2.0519   -3.2949 C   0  0  0  0  0  0  0  0  0  0  0  0
    3.1026    2.4715   -3.8998 C   0  0  0  0  0  0  0  0  0  0  0  0
    3.9175    1.2818   -4.1826 N   0  0  0  0  0  0  0  0  0  0  0  0
    0.6121    2.6766   -3.4169 C   0  0  0  0  0  0  0  0  0  0  0  0
   -0.3448    2.0339   -2.6771 N   0  0  0  0  0  0  0  0  0  0  0  0
   -0.1400   -1.9306    0.0880 N   0  0  0  0  0  0  0  0  0  0  0  0
  1  6  1  0  0  0  0
  2  1  1  0  0  0  0
  2  3  2  0  0  0  0
  3  4  1  0  0  0  0
  4  5  2  0  0  0  0
  4 12  1  0  0  0  0
  5  8  1  0  0  0  0
  6  7  2  0  0  0  0
  6  5  1  0  0  0  0
  8 11  2  0  0  0  0
  8  9  1  0  0  0  0
 10  9  1  0  0  0  0
 12 11  1  0  0  0  0
 13  2  1  0  0  0  0
M  END
>  <CHROM.1>
32.30398673,121.21262313,1.44844974,0.55641894,-2.22254059,-2.10531826,0.29941951
-0.62468622

>  <Name>
lig.pdb

>  <RI>
4.17264e+07

>  <Rbt.Current_Directory>
/home/itssahil/PROJECTS/Mol_Feturizer/New_Systems/rnas/2l1v

>  <Rbt.Executable>
rbdock ($Id: //depot/dev/client3/rdock/2013.1/src/exe/rbdock.cxx#4 $)

>  <Rbt.Library>
libRbt.so (2013.1, Build901 2013/11/27)

>  <Rbt.Parameter_File>
/export/apps/rDock/src/rDock_2013.1_src/data/scripts/dock_solv.prm

>  <Rbt.Receptor>
prm/blind_docking_20.prm

>  <SCORE>
-40.2684

>  <SCORE.INTER>
-39.3893

>  <SCORE.INTER.CONST>
1

>  <SCORE.INTER.POLAR>
-2.62078

>  <SCORE.INTER.ROT>
2

>  <SCORE.INTER.SOLV>
13.9985

>  <SCORE.INTER.VDW>
-27.1231

>  <SCORE.INTER.norm>
-3.02995

>  <SCORE.INTRA>
-0.90412

>  <SCORE.INTRA.DIHEDRAL>
1.0264

>  <SCORE.INTRA.DIHEDRAL.0>
1.43995

>  <SCORE.INTRA.POLAR>
-0.62209

>  <SCORE.INTRA.POLAR.0>
-0.272593

>  <SCORE.INTRA.REPUL>
0

>  <SCORE.INTRA.REPUL.0>
0

>  <SCORE.INTRA.SOLV>
0.247429

>  <SCORE.INTRA.SOLV.lig_0>
-22.6728

>  <SCORE.INTRA.VDW>
0.574072

>  <SCORE.INTRA.VDW.0>
-0.754459

>  <SCORE.INTRA.norm>
-0.0695477

>  <SCORE.RESTR>
0.0250125

>  <SCORE.RESTR.CAVITY>
0.0250125

>  <SCORE.RESTR.norm>
0.00192404

>  <SCORE.SYSTEM>
0

>  <SCORE.SYSTEM.CONST>
0

>  <SCORE.SYSTEM.DIHEDRAL>
0

>  <SCORE.SYSTEM.SOLV>
0

>  <SCORE.SYSTEM.norm>
0

>  <SCORE.heavy>
13

>  <SCORE.norm>
-3.09757

>  <RMSD>
4.932

$$$$
lig.pdb
 OpenBabel11021811453D
libRbt.so/2013.1/901 2013/11/27
 13 14  0  0  0  0  0  0  0  0999 V2000
    1.7173   -1.1531   -1.0543 N   0  0  0  0  0  0  0  0  0  0  0  0
    0.3867   -1.0751   -0.7231 C   0  0  0  0  0  0  0  0  0  0  0  0
   -0.3652   -0.0894   -1.2007 N   0  0  0  0  0  0  0  0  0  0  0  0
    0.1530    0.8683   -2.0305 C   0  0  0  0  0  0  0  0  0  0  0  0
    1.5242    0.8304   -2.3904 C   0  0  0  0  0  0  0  0  0  0  0  0
    2.3149   -0.2347   -1.8727 C   0  0  0  0  0  0  0  0  0  0  0  0
    3.4969   -0.3334   -2.1480 O   0  0  0  0  0  0  0  0  0  0  0  0
    1.7662    1.9920   -3.2460 C   0  0  0  0  0  0  0  0  0  0  0  0
    3.0819    2.4256   -3.8336 C   0  0  0  0  0  0  0  0  0  0  0  0
    3.9052    1.2436   -4.1243 N   0  0  0  0  0  0  0  0  0  0  0  0
    0.5843    2.6071   -3.3788 C   0  0  0  0  0  0  0  0  0  0  0  0
   -0.3755    1.9529   -2.6531 N   0  0  0  0  0  0  0  0  0  0  0  0
   -0.1687   -2.0228    0.0958 N   0  0  0  0  0  0  0  0  0  0  0  0
  1  6  1  0  0  0  0
  2  1  1  0  0  0  0
  2  3  2  0  0  0  0
  3  4  1  0  0  0  0
  4  5  2  0  0  0  0
  4 12  1  0  0  0  0
  5  8  1  0  0  0  0
  6  7  2  0  0  0  0
  6  5  1  0  0  0  0
  8 11  2  0  0  0  0
  8  9  1  0  0  0  0
 10  9  1  0  0  0  0
 12 11  1  0  0  0  0
 13  2  1  0  0  0  0
M  END
>  <CHROM.1>
32.84016029,119.62470039,1.42450284,0.48852935,-2.18567521,-2.10464106,0.28596032
-0.62043107

>  <Name>
lig.pdb

>  <RI>
9.54411e+06

>  <Rbt.Current_Directory>
/home/itssahil/PROJECTS/Mol_Feturizer/New_Systems/rnas/2l1v

>  <Rbt.Executable>
rbdock ($Id: //depot/dev/client3/rdock/2013.1/src/exe/rbdock.cxx#4 $)

>  <Rbt.Library>
libRbt.so (2013.1, Build901 2013/11/27)

>  <Rbt.Parameter_File>
/export/apps/rDock/src/rDock_2013.1_src/data/scripts/dock_solv.prm

>  <Rbt.Receptor>
prm/pocket_docking_6.prm

>  <SCORE>
-40.1022

>  <SCORE.INTER>
-39.222

>  <SCORE.INTER.CONST>
1

>  <SCORE.INTER.POLAR>
-2.74971

>  <SCORE.INTER.ROT>
2

>  <SCORE.INTER.SOLV>
14.1114

>  <SCORE.INTER.VDW>
-26.6195

>  <SCORE.INTER.norm>
-3.01708

>  <SCORE.INTRA>
-0.880166

>  <SCORE.INTRA.DIHEDRAL>
0.990168

>  <SCORE.INTRA.DIHEDRAL.0>
1.43995

>  <SCORE.INTRA.POLAR>
-0.593833

>  <SCORE.INTRA.POLAR.0>
-0.272593

>  <SCORE.INTRA.REPUL>
0

>  <SCORE.INTRA.REPUL.0>
0

>  <SCORE.INTRA.SOLV>
0.239481

>  <SCORE.INTRA.SOLV.lig_0>
-22.6728

>  <SCORE.INTRA.VDW>
0.524043

>  <SCORE.INTRA.VDW.0>
-0.754459

>  <SCORE.INTRA.norm>
-0.0677051

>  <SCORE.RESTR>
0

>  <SCORE.RESTR.CAVITY>
0

>  <SCORE.RESTR.norm>
0

>  <SCORE.SYSTEM>
0

>  <SCORE.SYSTEM.CONST>
0

>  <SCORE.SYSTEM.DIHEDRAL>
0

>  <SCORE.SYSTEM.SOLV>
0

>  <SCORE.SYSTEM.norm>
0

>  <SCORE.heavy>
13

>  <SCORE.norm>
-3.08478

>  <RMSD>
4.958

$$$$
lig.pdb
 OpenBabel11021811453D
libRbt.so/2013.1/901 2013/11/27
 13 14  0  0  0  0  0  0  0  0999 V2000
    1.6689   -1.2387   -1.1105 N   0  0  0  0  0  0  0  0  0  0  0  0
    0.4064   -1.0127   -0.6194 C   0  0  0  0  0  0  0  0  0  0  0  0
   -0.3032    0.0249   -1.0495 N   0  0  0  0  0  0  0  0  0  0  0  0
    0.1920    0.8913   -1.9867 C   0  0  0  0  0  0  0  0  0  0  0  0
    1.4948    0.6999   -2.5134 C   0  0  0  0  0  0  0  0  0  0  0  0
    2.2403   -0.4190   -2.0443 C   0  0  0  0  0  0  0  0  0  0  0  0
    3.3614   -0.6483   -2.4604 O   0  0  0  0  0  0  0  0  0  0  0  0
    1.7337    1.7961   -3.4520 C   0  0  0  0  0  0  0  0  0  0  0  0
    2.9972    2.0701   -4.2221 C   0  0  0  0  0  0  0  0  0  0  0  0
    4.1628    1.7824   -3.3746 N   0  0  0  0  0  0  0  0  0  0  0  0
    0.6090    2.5227   -3.4673 C   0  0  0  0  0  0  0  0  0  0  0  0
   -0.3065    1.9987   -2.5937 N   0  0  0  0  0  0  0  0  0  0  0  0
   -0.1260   -1.8658    0.3111 N   0  0  0  0  0  0  0  0  0  0  0  0
  1  6  1  0  0  0  0
  2  1  1  0  0  0  0
  2  3  2  0  0  0  0
  3  4  1  0  0  0  0
  4  5  2  0  0  0  0
  4 12  1  0  0  0  0
  5  8  1  0  0  0  0
  6  7  2  0  0  0  0
  6  5  1  0  0  0  0
  8 11  2  0  0  0  0
  8  9  1  0  0  0  0
 10  9  1  0  0  0  0
 12 11  1  0  0  0  0
 13  2  1  0  0  0  0
M  END
>  <CHROM.1>
-38.47924950,69.08587456,1.43730734,0.47003393,-2.17030632,-2.10777433,0.29236770
-0.62986498

>  <Name>
lig.pdb

>  <RI>
4.15415e+07

>  <Rbt.Current_Directory>
/home/itssahil/PROJECTS/Mol_Feturizer/New_Systems/rnas/2l1v

>  <Rbt.Executable>
rbdock ($Id: //depot/dev/client3/rdock/2013.1/src/exe/rbdock.cxx#4 $)

>  <Rbt.Library>
libRbt.so (2013.1, Build901 2013/11/27)

>  <Rbt.Parameter_File>
/export/apps/rDock/src/rDock_2013.1_src/data/scripts/dock_solv.prm

>  <Rbt.Receptor>
prm/blind_docking_60.prm

>  <SCORE>
-36.1446

>  <SCORE.INTER>
-35.3351

>  <SCORE.INTER.CONST>
1

>  <SCORE.INTER.POLAR>
-3.07202

>  <SCORE.INTER.ROT>
2

>  <SCORE.INTER.SOLV>
13.8175

>  <SCORE.INTER.VDW>
-22.8558

>  <SCORE.INTER.norm>
-2.71808

>  <SCORE.INTRA>
-0.809533

>  <SCORE.INTRA.DIHEDRAL>
0.548776

>  <SCORE.INTRA.DIHEDRAL.0>
1.43995

>  <SCORE.INTRA.POLAR>
-0.373055

>  <SCORE.INTRA.POLAR.0>
-0.272593

>  <SCORE.INTRA.REPUL>
0

>  <SCORE.INTRA.REPUL.0>
0

>  <SCORE.INTRA.SOLV>
0.154571

>  <SCORE.INTRA.SOLV.lig_0>
-22.6728

>  <SCORE.INTRA.VDW>
0.107181

>  <SCORE.INTRA.VDW.0>
-0.754459

>  <SCORE.INTRA.norm>
-0.0622718

>  <SCORE.RESTR>
0

>  <SCORE.RESTR.CAVITY>
0

>  <SCORE.RESTR.norm>
0

>  <SCORE.SYSTEM>
0

>  <SCORE.SYSTEM.CONST>
0

>  <SCORE.SYSTEM.DIHEDRAL>
0

>  <SCORE.SYSTEM.SOLV>
0

>  <SCORE.SYSTEM.norm>
0

>  <SCORE.heavy>
13

>  <SCORE.norm>
-2.78035

>  <RMSD>
4.985

$$$$
lig.pdb
 OpenBabel11021811453D
libRbt.so/2013.1/901 2013/11/27
 13 14  0  0  0  0  0  0  0  0999 V2000
    4.2740   -8.6395   -3.4361 N   0  0  0  0  0  0  0  0  0  0  0  0
    4.7162   -9.8055   -2.8607 C   0  0  0  0  0  0  0  0  0  0  0  0
    3.8467  -10.7324   -2.4734 N   0  0  0  0  0  0  0  0  0  0  0  0
    2.4981  -10.5606   -2.6351 C   0  0  0  0  0  0  0  0  0  0  0  0
    1.9984   -9.3675   -3.2165 C   0  0  0  0  0  0  0  0  0  0  0  0
    2.9440   -8.3861   -3.6292 C   0  0  0  0  0  0  0  0  0  0  0  0
    2.5851   -7.3425   -4.1438 O   0  0  0  0  0  0  0  0  0  0  0  0
    0.5399   -9.4794   -3.2172 C   0  0  0  0  0  0  0  0  0  0  0  0
   -0.4480   -8.4409   -3.6755 C   0  0  0  0  0  0  0  0  0  0  0  0
   -0.0471   -7.9270   -4.9925 N   0  0  0  0  0  0  0  0  0  0  0  0
    0.2603  -10.6834   -2.7020 C   0  0  0  0  0  0  0  0  0  0  0  0
    1.4155  -11.3268   -2.3450 N   0  0  0  0  0  0  0  0  0  0  0  0
    6.0595  -10.0166   -2.6937 N   0  0  0  0  0  0  0  0  0  0  0  0
  1  6  1  0  0  0  0
  2  1  1  0  0  0  0
  2  3  2  0  0  0  0
  3  4  1  0  0  0  0
  4  5  2  0  0  0  0
  4 12  1  0  0  0  0
  5  8  1  0  0  0  0
  6  7  2  0  0  0  0
  6  5  1  0  0  0  0
  8 11  2  0  0  0  0
  8  9  1  0  0  0  0
 10  9  1  0  0  0  0
 12 11  1  0  0  0  0
 13  2  1  0  0  0  0
M  END
>  <CHROM.1>
48.33357737,174.40279225,2.39147765,-9.40011592,-3.26589980,-0.29350641,-0.08373356
-0.51334138

>  <Name>
lig.pdb

>  <RI>
4.02536e+07

>  <Rbt.Current_Directory>
/home/itssahil/PROJECTS/Mol_Feturizer/New_Systems/rnas/2l1v

>  <Rbt.Executable>
rbdock ($Id: //depot/dev/client3/rdock/2013.1/src/exe/rbdock.cxx#4 $)

>  <Rbt.Library>
libRbt.so (2013.1, Build901 2013/11/27)

>  <Rbt.Parameter_File>
/export/apps/rDock/src/rDock_2013.1_src/data/scripts/dock_solv.prm

>  <Rbt.Receptor>
prm/blind_docking_40.prm

>  <SCORE>
-31.2623

>  <SCORE.INTER>
-32.475

>  <SCORE.INTER.CONST>
1

>  <SCORE.INTER.POLAR>
-3.7756

>  <SCORE.INTER.ROT>
2

>  <SCORE.INTER.SOLV>
11.3606

>  <SCORE.INTER.VDW>
-17.7849

>  <SCORE.INTER.norm>
-2.49808

>  <SCORE.INTRA>
1.21274

>  <SCORE.INTRA.DIHEDRAL>
0.245435

>  <SCORE.INTRA.DIHEDRAL.0>
1.43995

>  <SCORE.INTRA.POLAR>
0.272593

>  <SCORE.INTRA.POLAR.0>
-0.272593

>  <SCORE.INTRA.REPUL>
0

>  <SCORE.INTRA.REPUL.0>
0

>  <SCORE.INTRA.SOLV>
0.0831565

>  <SCORE.INTRA.SOLV.lig_0>
-22.6728

>  <SCORE.INTRA.VDW>
0.121626

>  <SCORE.INTRA.VDW.0>
-0.754459

>  <SCORE.INTRA.norm>
0.0932875

>  <SCORE.RESTR>
0

>  <SCORE.RESTR.CAVITY>
0

>  <SCORE.RESTR.norm>
0

>  <SCORE.SYSTEM>
0

>  <SCORE.SYSTEM.CONST>
0

>  <SCORE.SYSTEM.DIHEDRAL>
0

>  <SCORE.SYSTEM.SOLV>
0

>  <SCORE.SYSTEM.norm>
0

>  <SCORE.heavy>
13

>  <SCORE.norm>
-2.40479

>  <RMSD>
11.419

$$$$
lig.pdb
 OpenBabel11021811453D
libRbt.so/2013.1/901 2013/11/27
 13 14  0  0  0  0  0  0  0  0999 V2000
    1.0333   -7.7291   -3.9773 N   0  0  0  0  0  0  0  0  0  0  0  0
   -0.0818   -8.5243   -3.8755 C   0  0  0  0  0  0  0  0  0  0  0  0
   -0.0022   -9.7178   -3.2973 N   0  0  0  0  0  0  0  0  0  0  0  0
    1.1780  -10.1886   -2.7874 C   0  0  0  0  0  0  0  0  0  0  0  0
    2.3554   -9.4036   -2.8796 C   0  0  0  0  0  0  0  0  0  0  0  0
    2.2517   -8.1256   -3.4990 C   0  0  0  0  0  0  0  0  0  0  0  0
    3.2208   -7.3958   -3.6040 O   0  0  0  0  0  0  0  0  0  0  0  0
    3.4331  -10.1907   -2.2806 C   0  0  0  0  0  0  0  0  0  0  0  0
    4.8879   -9.8158   -2.1934 C   0  0  0  0  0  0  0  0  0  0  0  0
    5.3591   -9.3608   -3.5088 N   0  0  0  0  0  0  0  0  0  0  0  0
    2.8677  -11.3252   -1.8491 C   0  0  0  0  0  0  0  0  0  0  0  0
    1.5326  -11.3363   -2.1546 N   0  0  0  0  0  0  0  0  0  0  0  0
   -1.2823   -8.0808   -4.3644 N   0  0  0  0  0  0  0  0  0  0  0  0
  1  6  1  0  0  0  0
  2  1  1  0  0  0  0
  2  3  2  0  0  0  0
  3  4  1  0  0  0  0
  4  5  2  0  0  0  0
  4 12  1  0  0  0  0
  5  8  1  0  0  0  0
  6  7  2  0  0  0  0
  6  5  1  0  0  0  0
  8 11  2  0  0  0  0
  8  9  1  0  0  0  0
 10  9  1  0  0  0  0
 12 11  1  0  0  0  0
 13  2  1  0  0  0  0
M  END
>  <CHROM.1>
-48.48152401,-109.36489806,2.06380385,-9.27667309,-3.13869520,-2.75863492
0.10296812,2.65872356

>  <Name>
lig.pdb

>  <RI>
4.17264e+07

>  <Rbt.Current_Directory>
/home/itssahil/PROJECTS/Mol_Feturizer/New_Systems/rnas/2l1v

>  <Rbt.Executable>
rbdock ($Id: //depot/dev/client3/rdock/2013.1/src/exe/rbdock.cxx#4 $)

>  <Rbt.Library>
libRbt.so (2013.1, Build901 2013/11/27)

>  <Rbt.Parameter_File>
/export/apps/rDock/src/rDock_2013.1_src/data/scripts/dock_solv.prm

>  <Rbt.Receptor>
prm/blind_docking_20.prm

>  <SCORE>
-29.2796

>  <SCORE.INTER>
-29.1879

>  <SCORE.INTER.CONST>
1

>  <SCORE.INTER.POLAR>
-3.5716

>  <SCORE.INTER.ROT>
2

>  <SCORE.INTER.SOLV>
12.608

>  <SCORE.INTER.VDW>
-16.6892

>  <SCORE.INTER.norm>
-2.24522

>  <SCORE.INTRA>
-0.230856

>  <SCORE.INTRA.DIHEDRAL>
0.204857

>  <SCORE.INTRA.DIHEDRAL.0>
1.43995

>  <SCORE.INTRA.POLAR>
-0.101052

>  <SCORE.INTRA.POLAR.0>
-0.272593

>  <SCORE.INTRA.REPUL>
0

>  <SCORE.INTRA.REPUL.0>
0

>  <SCORE.INTRA.SOLV>
0.0485804

>  <SCORE.INTRA.SOLV.lig_0>
-22.6728

>  <SCORE.INTRA.VDW>
-0.0139994

>  <SCORE.INTRA.VDW.0>
-0.754459

>  <SCORE.INTRA.norm>
-0.0177582

>  <SCORE.RESTR>
0.139164

>  <SCORE.RESTR.CAVITY>
0.139164

>  <SCORE.RESTR.norm>
0.010705

>  <SCORE.SYSTEM>
0

>  <SCORE.SYSTEM.CONST>
0

>  <SCORE.SYSTEM.DIHEDRAL>
0

>  <SCORE.SYSTEM.SOLV>
0

>  <SCORE.SYSTEM.norm>
0

>  <SCORE.heavy>
13

>  <SCORE.norm>
-2.25227

>  <RMSD>
11.580

$$$$
lig.pdb
 OpenBabel11021811453D
libRbt.so/2013.1/901 2013/11/27
 13 14  0  0  0  0  0  0  0  0999 V2000
    3.5818   -9.0791   -4.6445 N   0  0  0  0  0  0  0  0  0  0  0  0
    4.1514  -10.1808   -4.0545 C   0  0  0  0  0  0  0  0  0  0  0  0
    3.4213  -10.9802   -3.2845 N   0  0  0  0  0  0  0  0  0  0  0  0
    2.0930  -10.7381   -3.0580 C   0  0  0  0  0  0  0  0  0  0  0  0
    1.4674   -9.6065   -3.6405 C   0  0  0  0  0  0  0  0  0  0  0  0
    2.2635   -8.7622   -4.4658 C   0  0  0  0  0  0  0  0  0  0  0  0
    1.7889   -7.7787   -5.0045 O   0  0  0  0  0  0  0  0  0  0  0  0
    0.0773   -9.6141   -3.1852 C   0  0  0  0  0  0  0  0  0  0  0  0
   -0.9783   -8.5833   -3.4812 C   0  0  0  0  0  0  0  0  0  0  0  0
   -0.7562   -8.0211   -4.8206 N   0  0  0  0  0  0  0  0  0  0  0  0
   -0.0591  -10.7108   -2.4291 C   0  0  0  0  0  0  0  0  0  0  0  0
    1.1341  -11.3775   -2.3403 N   0  0  0  0  0  0  0  0  0  0  0  0
    5.4754  -10.4606   -4.2683 N   0  0  0  0  0  0  0  0  0  0  0  0
  1  6  1  0  0  0  0
  2  1  1  0  0  0  0
  2  3  2  0  0  0  0
  3  4  1  0  0  0  0
  4  5  2  0  0  0  0
  4 12  1  0  0  0  0
  5  8  1  0  0  0  0
  6  7  2  0  0  0  0
  6  5  1  0  0  0  0
  8 11  2  0  0  0  0
  8  9  1  0  0  0  0
 10  9  1  0  0  0  0
 12 11  1  0  0  0  0
 13  2  1  0  0  0  0
M  END
>  <CHROM.1>
32.98338398,45.95346907,1.84743382,-9.64820256,-3.79062492,-0.17727649,0.21901576
-0.65192198

>  <Name>
lig.pdb

>  <RI>
4.17264e+07

>  <Rbt.Current_Directory>
/home/itssahil/PROJECTS/Mol_Feturizer/New_Systems/rnas/2l1v

>  <Rbt.Executable>
rbdock ($Id: //depot/dev/client3/rdock/2013.1/src/exe/rbdock.cxx#4 $)

>  <Rbt.Library>
libRbt.so (2013.1, Build901 2013/11/27)

>  <Rbt.Parameter_File>
/export/apps/rDock/src/rDock_2013.1_src/data/scripts/dock_solv.prm

>  <Rbt.Receptor>
prm/blind_docking_20.prm

>  <SCORE>
-22.9708

>  <SCORE.INTER>
-24.9454

>  <SCORE.INTER.CONST>
1

>  <SCORE.INTER.POLAR>
-3.68618

>  <SCORE.INTER.ROT>
2

>  <SCORE.INTER.SOLV>
14.0899

>  <SCORE.INTER.VDW>
-13.973

>  <SCORE.INTER.norm>
-1.91888

>  <SCORE.INTRA>
1.97461

>  <SCORE.INTRA.DIHEDRAL>
1.02129

>  <SCORE.INTRA.DIHEDRAL.0>
1.43995

>  <SCORE.INTRA.POLAR>
0.272593

>  <SCORE.INTRA.POLAR.0>
-0.272593

>  <SCORE.INTRA.REPUL>
0

>  <SCORE.INTRA.REPUL.0>
0

>  <SCORE.INTRA.SOLV>
0.227799

>  <SCORE.INTRA.SOLV.lig_0>
-22.6728

>  <SCORE.INTRA.VDW>
0.423246

>  <SCORE.INTRA.VDW.0>
-0.754459

>  <SCORE.INTRA.norm>
0.151893

>  <SCORE.RESTR>
0

>  <SCORE.RESTR.CAVITY>
0

>  <SCORE.RESTR.norm>
0

>  <SCORE.SYSTEM>
0

>  <SCORE.SYSTEM.CONST>
0

>  <SCORE.SYSTEM.DIHEDRAL>
0

>  <SCORE.SYSTEM.SOLV>
0

>  <SCORE.SYSTEM.norm>
0

>  <SCORE.heavy>
13

>  <SCORE.norm>
-1.76699

>  <RMSD>
11.594

$$$$
lig.pdb
 OpenBabel11021811453D
libRbt.so/2013.1/901 2013/11/27
 13 14  0  0  0  0  0  0  0  0999 V2000
    3.7466   -9.2916   -4.0797 N   0  0  0  0  0  0  0  0  0  0  0  0
    4.4322  -10.4295   -3.7313 C   0  0  0  0  0  0  0  0  0  0  0  0
    3.8250  -11.3941   -3.0486 N   0  0  0  0  0  0  0  0  0  0  0  0
    2.5117  -11.2895   -2.6763 C   0  0  0  0  0  0  0  0  0  0  0  0
    1.7694  -10.1275   -3.0078 C   0  0  0  0  0  0  0  0  0  0  0  0
    2.4343   -9.1050   -3.7427 C   0  0  0  0  0  0  0  0  0  0  0  0
    1.8549   -8.0848   -4.0683 O   0  0  0  0  0  0  0  0  0  0  0  0
    0.4306  -10.3102   -2.4475 C   0  0  0  0  0  0  0  0  0  0  0  0
   -0.7066   -9.3251   -2.4789 C   0  0  0  0  0  0  0  0  0  0  0  0
   -0.5875   -8.4731   -3.6702 N   0  0  0  0  0  0  0  0  0  0  0  0
    0.4297  -11.5216   -1.8770 C   0  0  0  0  0  0  0  0  0  0  0  0
    1.6629  -12.1049   -1.9995 N   0  0  0  0  0  0  0  0  0  0  0  0
    5.7446  -10.5735   -4.0970 N   0  0  0  0  0  0  0  0  0  0  0  0
  1  6  1  0  0  0  0
  2  1  1  0  0  0  0
  2  3  2  0  0  0  0
  3  4  1  0  0  0  0
  4  5  2  0  0  0  0
  4 12  1  0  0  0  0
  5  8  1  0  0  0  0
  6  7  2  0  0  0  0
  6  5  1  0  0  0  0
  8 11  2  0  0  0  0
  8  9  1  0  0  0  0
 10  9  1  0  0  0  0
 12 11  1  0  0  0  0
 13  2  1  0  0  0  0
M  END
>  <CHROM.1>
28.86895267,64.72685199,2.14081106,-10.11036818,-3.18896755,-0.07396305,0.26145209
-0.50490913

>  <Name>
lig.pdb

>  <RI>
4.02536e+07

>  <Rbt.Current_Directory>
/home/itssahil/PROJECTS/Mol_Feturizer/New_Systems/rnas/2l1v

>  <Rbt.Executable>
rbdock ($Id: //depot/dev/client3/rdock/2013.1/src/exe/rbdock.cxx#4 $)

>  <Rbt.Library>
libRbt.so (2013.1, Build901 2013/11/27)

>  <Rbt.Parameter_File>
/export/apps/rDock/src/rDock_2013.1_src/data/scripts/dock_solv.prm

>  <Rbt.Receptor>
prm/blind_docking_40.prm

>  <SCORE>
-27.3368

>  <SCORE.INTER>
-29.7516

>  <SCORE.INTER.CONST>
1

>  <SCORE.INTER.POLAR>
-3.46646

>  <SCORE.INTER.ROT>
2

>  <SCORE.INTER.SOLV>
13.4009

>  <SCORE.INTER.VDW>
-17.6798

>  <SCORE.INTER.norm>
-2.28858

>  <SCORE.INTRA>
2.26669

>  <SCORE.INTRA.DIHEDRAL>
1.19621

>  <SCORE.INTRA.DIHEDRAL.0>
1.43995

>  <SCORE.INTRA.POLAR>
0.272593

>  <SCORE.INTRA.POLAR.0>
-0.272593

>  <SCORE.INTRA.REPUL>
0

>  <SCORE.INTRA.REPUL.0>
0

>  <SCORE.INTRA.SOLV>
0.257401

>  <SCORE.INTRA.SOLV.lig_0>
-22.6728

>  <SCORE.INTRA.VDW>
0.613068

>  <SCORE.INTRA.VDW.0>
-0.754459

>  <SCORE.INTRA.norm>
0.174361

>  <SCORE.RESTR>
0.148057

>  <SCORE.RESTR.CAVITY>
0.148057

>  <SCORE.RESTR.norm>
0.011389

>  <SCORE.SYSTEM>
0

>  <SCORE.SYSTEM.CONST>
0

>  <SCORE.SYSTEM.DIHEDRAL>
0

>  <SCORE.SYSTEM.SOLV>
0

>  <SCORE.SYSTEM.norm>
0

>  <SCORE.heavy>
13

>  <SCORE.norm>
-2.10283

>  <RMSD>
12.009

$$$$
lig.pdb
 OpenBabel11021811453D
libRbt.so/2013.1/901 2013/11/27
 13 14  0  0  0  0  0  0  0  0999 V2000
    4.1422   -9.6187   -4.1888 N   0  0  0  0  0  0  0  0  0  0  0  0
    4.6051  -10.7597   -3.5805 C   0  0  0  0  0  0  0  0  0  0  0  0
    3.7883  -11.5030   -2.8420 N   0  0  0  0  0  0  0  0  0  0  0  0
    2.4737  -11.1631   -2.6667 C   0  0  0  0  0  0  0  0  0  0  0  0
    1.9570   -9.9881   -3.2696 C   0  0  0  0  0  0  0  0  0  0  0  0
    2.8450   -9.2049   -4.0606 C   0  0  0  0  0  0  0  0  0  0  0  0
    2.4660   -8.1888   -4.6143 O   0  0  0  0  0  0  0  0  0  0  0  0
    0.5533   -9.8927   -2.8689 C   0  0  0  0  0  0  0  0  0  0  0  0
   -0.4107   -8.7865   -3.2025 C   0  0  0  0  0  0  0  0  0  0  0  0
   -0.1379   -8.2872   -4.5574 N   0  0  0  0  0  0  0  0  0  0  0  0
    0.3066  -10.9765   -2.1222 C   0  0  0  0  0  0  0  0  0  0  0  0
    1.4428  -11.7298   -1.9890 N   0  0  0  0  0  0  0  0  0  0  0  0
    5.9122  -11.1369   -3.7434 N   0  0  0  0  0  0  0  0  0  0  0  0
  1  6  1  0  0  0  0
  2  1  1  0  0  0  0
  2  3  2  0  0  0  0
  3  4  1  0  0  0  0
  4  5  2  0  0  0  0
  4 12  1  0  0  0  0
  5  8  1  0  0  0  0
  6  7  2  0  0  0  0
  6  5  1  0  0  0  0
  8 11  2  0  0  0  0
  8  9  1  0  0  0  0
 10  9  1  0  0  0  0
 12 11  1  0  0  0  0
 13  2  1  0  0  0  0
M  END
>  <CHROM.1>
35.78304008,-166.63747036,2.33411946,-10.06213095,-3.40756814,-0.25961963
0.22940274,-0.63699799

>  <Name>
lig.pdb

>  <RI>
4.17264e+07

>  <Rbt.Current_Directory>
/home/itssahil/PROJECTS/Mol_Feturizer/New_Systems/rnas/2l1v

>  <Rbt.Executable>
rbdock ($Id: //depot/dev/client3/rdock/2013.1/src/exe/rbdock.cxx#4 $)

>  <Rbt.Library>
libRbt.so (2013.1, Build901 2013/11/27)

>  <Rbt.Parameter_File>
/export/apps/rDock/src/rDock_2013.1_src/data/scripts/dock_solv.prm

>  <Rbt.Receptor>
prm/blind_docking_20.prm

>  <SCORE>
-25.4565

>  <SCORE.INTER>
-27.285

>  <SCORE.INTER.CONST>
1

>  <SCORE.INTER.POLAR>
-2.94034

>  <SCORE.INTER.ROT>
2

>  <SCORE.INTER.SOLV>
13.3133

>  <SCORE.INTER.VDW>
-17.76

>  <SCORE.INTER.norm>
-2.09885

>  <SCORE.INTRA>
1.82849

>  <SCORE.INTRA.DIHEDRAL>
0.775898

>  <SCORE.INTRA.DIHEDRAL.0>
1.43995

>  <SCORE.INTRA.POLAR>
0.272593

>  <SCORE.INTRA.POLAR.0>
-0.272593

>  <SCORE.INTRA.REPUL>
0

>  <SCORE.INTRA.REPUL.0>
0

>  <SCORE.INTRA.SOLV>
0.204717

>  <SCORE.INTRA.SOLV.lig_0>
-22.6728

>  <SCORE.INTRA.VDW>
0.411366

>  <SCORE.INTRA.VDW.0>
-0.754459

>  <SCORE.INTRA.norm>
0.140653

>  <SCORE.RESTR>
0

>  <SCORE.RESTR.CAVITY>
0

>  <SCORE.RESTR.norm>
0

>  <SCORE.SYSTEM>
0

>  <SCORE.SYSTEM.CONST>
0

>  <SCORE.SYSTEM.DIHEDRAL>
0

>  <SCORE.SYSTEM.SOLV>
0

>  <SCORE.SYSTEM.norm>
0

>  <SCORE.heavy>
13

>  <SCORE.norm>
-1.95819

>  <RMSD>
12.029

$$$$
lig.pdb
 OpenBabel11021811453D
libRbt.so/2013.1/901 2013/11/27
 13 14  0  0  0  0  0  0  0  0999 V2000
    3.7929   -9.3070   -4.0664 N   0  0  0  0  0  0  0  0  0  0  0  0
    4.4897  -10.4422   -3.7316 C   0  0  0  0  0  0  0  0  0  0  0  0
    3.8932  -11.4193   -3.0576 N   0  0  0  0  0  0  0  0  0  0  0  0
    2.5799  -11.3307   -2.6809 C   0  0  0  0  0  0  0  0  0  0  0  0
    1.8262  -10.1721   -2.9984 C   0  0  0  0  0  0  0  0  0  0  0  0
    2.4799   -9.1359   -3.7242 C   0  0  0  0  0  0  0  0  0  0  0  0
    1.8903   -8.1177   -4.0377 O   0  0  0  0  0  0  0  0  0  0  0  0
    0.4906  -10.3729   -2.4367 C   0  0  0  0  0  0  0  0  0  0  0  0
   -0.6556   -9.3980   -2.4550 C   0  0  0  0  0  0  0  0  0  0  0  0
   -0.5612   -8.5489   -3.6506 N   0  0  0  0  0  0  0  0  0  0  0  0
    0.5022  -11.5902   -1.8789 C   0  0  0  0  0  0  0  0  0  0  0  0
    1.7404  -12.1608   -2.0106 N   0  0  0  0  0  0  0  0  0  0  0  0
    5.8025  -10.5704   -4.1021 N   0  0  0  0  0  0  0  0  0  0  0  0
  1  6  1  0  0  0  0
  2  1  1  0  0  0  0
  2  3  2  0  0  0  0
  3  4  1  0  0  0  0
  4  5  2  0  0  0  0
  4 12  1  0  0  0  0
  5  8  1  0  0  0  0
  6  7  2  0  0  0  0
  6  5  1  0  0  0  0
  8 11  2  0  0  0  0
  8  9  1  0  0  0  0
 10  9  1  0  0  0  0
 12 11  1  0  0  0  0
 13  2  1  0  0  0  0
M  END
>  <CHROM.1>
29.90274905,-114.90242205,2.19532317,-10.15115401,-3.18148757,-0.06375131
0.25774216,-0.49861214

>  <Name>
lig.pdb

>  <RI>
1.77584e+07

>  <Rbt.Current_Directory>
/home/itssahil/PROJECTS/Mol_Feturizer/New_Systems/rnas/2l1v

>  <Rbt.Executable>
rbdock ($Id: //depot/dev/client3/rdock/2013.1/src/exe/rbdock.cxx#4 $)

>  <Rbt.Library>
libRbt.so (2013.1, Build901 2013/11/27)

>  <Rbt.Parameter_File>
/export/apps/rDock/src/rDock_2013.1_src/data/scripts/dock_solv.prm

>  <Rbt.Receptor>
prm/blind_docking_80.prm

>  <SCORE>
-27.8208

>  <SCORE.INTER>
-30.0212

>  <SCORE.INTER.CONST>
1

>  <SCORE.INTER.POLAR>
-3.46696

>  <SCORE.INTER.ROT>
2

>  <SCORE.INTER.SOLV>
13.5603

>  <SCORE.INTER.VDW>
-17.911

>  <SCORE.INTER.norm>
-2.30933

>  <SCORE.INTRA>
2.20045

>  <SCORE.INTRA.DIHEDRAL>
1.17764

>  <SCORE.INTRA.DIHEDRAL.0>
1.43995

>  <SCORE.INTRA.POLAR>
0.272593

>  <SCORE.INTRA.POLAR.0>
-0.272593

>  <SCORE.INTRA.REPUL>
0

>  <SCORE.INTRA.REPUL.0>
0

>  <SCORE.INTRA.SOLV>
0.244548

>  <SCORE.INTRA.SOLV.lig_0>
-22.6728

>  <SCORE.INTRA.VDW>
0.562545

>  <SCORE.INTRA.VDW.0>
-0.754459

>  <SCORE.INTRA.norm>
0.169266

>  <SCORE.RESTR>
0

>  <SCORE.RESTR.CAVITY>
0

>  <SCORE.RESTR.norm>
0

>  <SCORE.SYSTEM>
0

>  <SCORE.SYSTEM.CONST>
0

>  <SCORE.SYSTEM.DIHEDRAL>
0

>  <SCORE.SYSTEM.SOLV>
0

>  <SCORE.SYSTEM.norm>
0

>  <SCORE.heavy>
13

>  <SCORE.norm>
-2.14006

>  <RMSD>
12.047

$$$$
lig.pdb
 OpenBabel11021811453D
libRbt.so/2013.1/901 2013/11/27
 13 14  0  0  0  0  0  0  0  0999 V2000
    4.0725  -11.5891   -2.6659 N   0  0  0  0  0  0  0  0  0  0  0  0
    5.0507  -10.9441   -3.3824 C   0  0  0  0  0  0  0  0  0  0  0  0
    4.7706   -9.8239   -4.0393 N   0  0  0  0  0  0  0  0  0  0  0  0
    3.5145   -9.2795   -4.0225 C   0  0  0  0  0  0  0  0  0  0  0  0
    2.4728   -9.9181   -3.3026 C   0  0  0  0  0  0  0  0  0  0  0  0
    2.7910  -11.1158   -2.6013 C   0  0  0  0  0  0  0  0  0  0  0  0
    1.9474  -11.7110   -1.9557 O   0  0  0  0  0  0  0  0  0  0  0  0
    1.2669   -9.1160   -3.5084 C   0  0  0  0  0  0  0  0  0  0  0  0
   -0.1172   -9.4143   -2.9989 C   0  0  0  0  0  0  0  0  0  0  0  0
   -1.0892   -8.5436   -3.6745 N   0  0  0  0  0  0  0  0  0  0  0  0
    1.6385   -8.0756   -4.2651 C   0  0  0  0  0  0  0  0  0  0  0  0
    2.9675   -8.1703   -4.5827 N   0  0  0  0  0  0  0  0  0  0  0  0
    6.3220  -11.4539   -3.4122 N   0  0  0  0  0  0  0  0  0  0  0  0
  1  6  1  0  0  0  0
  2  1  1  0  0  0  0
  2  3  2  0  0  0  0
  3  4  1  0  0  0  0
  4  5  2  0  0  0  0
  4 12  1  0  0  0  0
  5  8  1  0  0  0  0
  6  7  2  0  0  0  0
  6  5  1  0  0  0  0
  8 11  2  0  0  0  0
  8  9  1  0  0  0  0
 10  9  1  0  0  0  0
 12 11  1  0  0  0  0
 13  2  1  0  0  0  0
M  END
>  <CHROM.1>
-166.99076806,-85.32433281,2.73152213,-9.95768550,-3.40647333,0.38939516
-0.20207803,2.55510129

>  <Name>
lig.pdb

>  <RI>
4.17264e+07

>  <Rbt.Current_Directory>
/home/itssahil/PROJECTS/Mol_Feturizer/New_Systems/rnas/2l1v

>  <Rbt.Executable>
rbdock ($Id: //depot/dev/client3/rdock/2013.1/src/exe/rbdock.cxx#4 $)

>  <Rbt.Library>
libRbt.so (2013.1, Build901 2013/11/27)

>  <Rbt.Parameter_File>
/export/apps/rDock/src/rDock_2013.1_src/data/scripts/dock_solv.prm

>  <Rbt.Receptor>
prm/blind_docking_20.prm

>  <SCORE>
-31.7061

>  <SCORE.INTER>
-33.1103

>  <SCORE.INTER.CONST>
1

>  <SCORE.INTER.POLAR>
-4.09671

>  <SCORE.INTER.ROT>
2

>  <SCORE.INTER.SOLV>
14.9288

>  <SCORE.INTER.VDW>
-18.3274

>  <SCORE.INTER.norm>
-2.54694

>  <SCORE.INTRA>
1.40419

>  <SCORE.INTRA.DIHEDRAL>
0.278219

>  <SCORE.INTRA.DIHEDRAL.0>
1.43995

>  <SCORE.INTRA.POLAR>
0.272593

>  <SCORE.INTRA.POLAR.0>
-0.272593

>  <SCORE.INTRA.REPUL>
0

>  <SCORE.INTRA.REPUL.0>
0

>  <SCORE.INTRA.SOLV>
-0.496084

>  <SCORE.INTRA.SOLV.lig_0>
-22.6728

>  <SCORE.INTRA.VDW>
0.586306

>  <SCORE.INTRA.VDW.0>
-0.754459

>  <SCORE.INTRA.norm>
0.108014

>  <SCORE.RESTR>
0

>  <SCORE.RESTR.CAVITY>
0

>  <SCORE.RESTR.norm>
0

>  <SCORE.SYSTEM>
0

>  <SCORE.SYSTEM.CONST>
0

>  <SCORE.SYSTEM.DIHEDRAL>
0

>  <SCORE.SYSTEM.SOLV>
0

>  <SCORE.SYSTEM.norm>
0

>  <SCORE.heavy>
13

>  <SCORE.norm>
-2.43893

>  <RMSD>
12.068

$$$$
lig.pdb
 OpenBabel11021811453D
libRbt.so/2013.1/901 2013/11/27
 13 14  0  0  0  0  0  0  0  0999 V2000
    3.7213   -9.3897   -4.1763 N   0  0  0  0  0  0  0  0  0  0  0  0
    4.4339  -10.4838   -3.7505 C   0  0  0  0  0  0  0  0  0  0  0  0
    3.8488  -11.4150   -3.0052 N   0  0  0  0  0  0  0  0  0  0  0  0
    2.5320  -11.3187   -2.6432 C   0  0  0  0  0  0  0  0  0  0  0  0
    1.7620  -10.2008   -3.0538 C   0  0  0  0  0  0  0  0  0  0  0  0
    2.4036   -9.2138   -3.8550 C   0  0  0  0  0  0  0  0  0  0  0  0
    1.7999   -8.2329   -4.2500 O   0  0  0  0  0  0  0  0  0  0  0  0
    0.4262  -10.3789   -2.4848 C   0  0  0  0  0  0  0  0  0  0  0  0
   -0.7352   -9.4272   -2.5848 C   0  0  0  0  0  0  0  0  0  0  0  0
   -0.5629   -8.5614   -3.7597 N   0  0  0  0  0  0  0  0  0  0  0  0
    0.4536  -11.5486   -1.8337 C   0  0  0  0  0  0  0  0  0  0  0  0
    1.7015  -12.1075   -1.9142 N   0  0  0  0  0  0  0  0  0  0  0  0
    5.7509  -10.6190   -4.1034 N   0  0  0  0  0  0  0  0  0  0  0  0
  1  6  1  0  0  0  0
  2  1  1  0  0  0  0
  2  3  2  0  0  0  0
  3  4  1  0  0  0  0
  4  5  2  0  0  0  0
  4 12  1  0  0  0  0
  5  8  1  0  0  0  0
  6  7  2  0  0  0  0
  6  5  1  0  0  0  0
  8 11  2  0  0  0  0
  8  9  1  0  0  0  0
 10  9  1  0  0  0  0
 12 11  1  0  0  0  0
 13  2  1  0  0  0  0
M  END
>  <CHROM.1>
23.19943853,-110.33692702,2.13965231,-10.17778557,-3.22844255,-0.05825000
0.25408770,-0.56859666

>  <Name>
lig.pdb

>  <RI>
4.17264e+07

>  <Rbt.Current_Directory>
/home/itssahil/PROJECTS/Mol_Feturizer/New_Systems/rnas/2l1v

>  <Rbt.Executable>
rbdock ($Id: //depot/dev/client3/rdock/2013.1/src/exe/rbdock.cxx#4 $)

>  <Rbt.Library>
libRbt.so (2013.1, Build901 2013/11/27)

>  <Rbt.Parameter_File>
/export/apps/rDock/src/rDock_2013.1_src/data/scripts/dock_solv.prm

>  <Rbt.Receptor>
prm/blind_docking_20.prm

>  <SCORE>
-27.7494

>  <SCORE.INTER>
-30.5904

>  <SCORE.INTER.CONST>
1

>  <SCORE.INTER.POLAR>
-3.46088

>  <SCORE.INTER.ROT>
2

>  <SCORE.INTER.SOLV>
13.2407

>  <SCORE.INTER.VDW>
-18.2042

>  <SCORE.INTER.norm>
-2.35311

>  <SCORE.INTRA>
2.84093

>  <SCORE.INTRA.DIHEDRAL>
1.56592

>  <SCORE.INTRA.DIHEDRAL.0>
1.43995

>  <SCORE.INTRA.POLAR>
0.272593

>  <SCORE.INTRA.POLAR.0>
-0.272593

>  <SCORE.INTRA.REPUL>
0

>  <SCORE.INTRA.REPUL.0>
0

>  <SCORE.INTRA.SOLV>
0.288796

>  <SCORE.INTRA.SOLV.lig_0>
-22.6728

>  <SCORE.INTRA.VDW>
0.986763

>  <SCORE.INTRA.VDW.0>
-0.754459

>  <SCORE.INTRA.norm>
0.218533

>  <SCORE.RESTR>
0

>  <SCORE.RESTR.CAVITY>
0

>  <SCORE.RESTR.norm>
0

>  <SCORE.SYSTEM>
0

>  <SCORE.SYSTEM.CONST>
0

>  <SCORE.SYSTEM.DIHEDRAL>
0

>  <SCORE.SYSTEM.SOLV>
0

>  <SCORE.SYSTEM.norm>
0

>  <SCORE.heavy>
13

>  <SCORE.norm>
-2.13457

>  <RMSD>
12.074

$$$$
lig.pdb
 OpenBabel11021811453D
libRbt.so/2013.1/901 2013/11/27
 13 14  0  0  0  0  0  0  0  0999 V2000
    4.1728   -9.6007   -4.0515 N   0  0  0  0  0  0  0  0  0  0  0  0
    4.6632  -10.7698   -3.5233 C   0  0  0  0  0  0  0  0  0  0  0  0
    3.8702  -11.5710   -2.8202 N   0  0  0  0  0  0  0  0  0  0  0  0
    2.5538  -11.2641   -2.6031 C   0  0  0  0  0  0  0  0  0  0  0  0
    2.0091  -10.0623   -3.1229 C   0  0  0  0  0  0  0  0  0  0  0  0
    2.8718   -9.2169   -3.8771 C   0  0  0  0  0  0  0  0  0  0  0  0
    2.4681   -8.1745   -4.3599 O   0  0  0  0  0  0  0  0  0  0  0  0
    0.6111  -10.0150   -2.6949 C   0  0  0  0  0  0  0  0  0  0  0  0
   -0.3751   -8.9059   -2.9432 C   0  0  0  0  0  0  0  0  0  0  0  0
   -0.1978   -8.3848   -4.3057 N   0  0  0  0  0  0  0  0  0  0  0  0
    0.3936  -11.1471   -2.0138 C   0  0  0  0  0  0  0  0  0  0  0  0
    1.5431  -11.8888   -1.9461 N   0  0  0  0  0  0  0  0  0  0  0  0
    5.9729  -11.1148   -3.7302 N   0  0  0  0  0  0  0  0  0  0  0  0
  1  6  1  0  0  0  0
  2  1  1  0  0  0  0
  2  3  2  0  0  0  0
  3  4  1  0  0  0  0
  4  5  2  0  0  0  0
  4 12  1  0  0  0  0
  5  8  1  0  0  0  0
  6  7  2  0  0  0  0
  6  5  1  0  0  0  0
  8 11  2  0  0  0  0
  8  9  1  0  0  0  0
 10  9  1  0  0  0  0
 12 11  1  0  0  0  0
 13  2  1  0  0  0  0
M  END
>  <CHROM.1>
39.93429220,-87.38117584,2.37895355,-10.12740267,-3.27457054,-0.23066584
0.22756142,-0.58523443

>  <Name>
lig.pdb

>  <RI>
4.02536e+07

>  <Rbt.Current_Directory>
/home/itssahil/PROJECTS/Mol_Feturizer/New_Systems/rnas/2l1v

>  <Rbt.Executable>
rbdock ($Id: //depot/dev/client3/rdock/2013.1/src/exe/rbdock.cxx#4 $)

>  <Rbt.Library>
libRbt.so (2013.1, Build901 2013/11/27)

>  <Rbt.Parameter_File>
/export/apps/rDock/src/rDock_2013.1_src/data/scripts/dock_solv.prm

>  <Rbt.Receptor>
prm/blind_docking_40.prm

>  <SCORE>
-26.0287

>  <SCORE.INTER>
-26.4091

>  <SCORE.INTER.CONST>
1

>  <SCORE.INTER.POLAR>
-2.97503

>  <SCORE.INTER.ROT>
2

>  <SCORE.INTER.SOLV>
13.0621

>  <SCORE.INTER.VDW>
-16.9767

>  <SCORE.INTER.norm>
-2.03147

>  <SCORE.INTRA>
0.380341

>  <SCORE.INTRA.DIHEDRAL>
0.66361

>  <SCORE.INTRA.DIHEDRAL.0>
1.43995

>  <SCORE.INTRA.POLAR>
-0.0569478

>  <SCORE.INTRA.POLAR.0>
-0.272593

>  <SCORE.INTRA.REPUL>
0

>  <SCORE.INTRA.REPUL.0>
0

>  <SCORE.INTRA.SOLV>
0.161593

>  <SCORE.INTRA.SOLV.lig_0>
-22.6728

>  <SCORE.INTRA.VDW>
0.161362

>  <SCORE.INTRA.VDW.0>
-0.754459

>  <SCORE.INTRA.norm>
0.029257

>  <SCORE.RESTR>
0

>  <SCORE.RESTR.CAVITY>
0

>  <SCORE.RESTR.norm>
0

>  <SCORE.SYSTEM>
0

>  <SCORE.SYSTEM.CONST>
0

>  <SCORE.SYSTEM.DIHEDRAL>
0

>  <SCORE.SYSTEM.SOLV>
0

>  <SCORE.SYSTEM.norm>
0

>  <SCORE.heavy>
13

>  <SCORE.norm>
-2.00221

>  <RMSD>
12.084

$$$$
lig.pdb
 OpenBabel11021811453D
libRbt.so/2013.1/901 2013/11/27
 13 14  0  0  0  0  0  0  0  0999 V2000
    3.7279   -9.3972   -4.1703 N   0  0  0  0  0  0  0  0  0  0  0  0
    4.4473  -10.4879   -3.7473 C   0  0  0  0  0  0  0  0  0  0  0  0
    3.8682  -11.4242   -3.0035 N   0  0  0  0  0  0  0  0  0  0  0  0
    2.5511  -11.3363   -2.6403 C   0  0  0  0  0  0  0  0  0  0  0  0
    1.7742  -10.2221   -3.0481 C   0  0  0  0  0  0  0  0  0  0  0  0
    2.4095   -9.2298   -3.8477 C   0  0  0  0  0  0  0  0  0  0  0  0
    1.7997   -8.2516   -4.2402 O   0  0  0  0  0  0  0  0  0  0  0  0
    0.4399  -10.4093   -2.4786 C   0  0  0  0  0  0  0  0  0  0  0  0
   -0.7271   -9.4643   -2.5758 C   0  0  0  0  0  0  0  0  0  0  0  0
   -0.5499   -8.5803   -3.7362 N   0  0  0  0  0  0  0  0  0  0  0  0
    0.4747  -11.5802   -1.8299 C   0  0  0  0  0  0  0  0  0  0  0  0
    1.7258  -12.1316   -1.9125 N   0  0  0  0  0  0  0  0  0  0  0  0
    5.7648  -10.6147   -4.1013 N   0  0  0  0  0  0  0  0  0  0  0  0
  1  6  1  0  0  0  0
  2  1  1  0  0  0  0
  2  3  2  0  0  0  0
  3  4  1  0  0  0  0
  4  5  2  0  0  0  0
  4 12  1  0  0  0  0
  5  8  1  0  0  0  0
  6  7  2  0  0  0  0
  6  5  1  0  0  0  0
  8 11  2  0  0  0  0
  8  9  1  0  0  0  0
 10  9  1  0  0  0  0
 12 11  1  0  0  0  0
 13  2  1  0  0  0  0
M  END
>  <CHROM.1>
22.27425970,-108.37702196,2.15265361,-10.19520975,-3.22178277,-0.05343611
0.25277558,-0.56632150

>  <Name>
lig.pdb

>  <RI>
1.77584e+07

>  <Rbt.Current_Directory>
/home/itssahil/PROJECTS/Mol_Feturizer/New_Systems/rnas/2l1v

>  <Rbt.Executable>
rbdock ($Id: //depot/dev/client3/rdock/2013.1/src/exe/rbdock.cxx#4 $)

>  <Rbt.Library>
libRbt.so (2013.1, Build901 2013/11/27)

>  <Rbt.Parameter_File>
/export/apps/rDock/src/rDock_2013.1_src/data/scripts/dock_solv.prm

>  <Rbt.Receptor>
prm/blind_docking_80.prm

>  <SCORE>
-27.8438

>  <SCORE.INTER>
-30.7811

>  <SCORE.INTER.CONST>
1

>  <SCORE.INTER.POLAR>
-3.43021

>  <SCORE.INTER.ROT>
2

>  <SCORE.INTER.SOLV>
13.2751

>  <SCORE.INTER.VDW>
-18.4451

>  <SCORE.INTER.norm>
-2.36778

>  <SCORE.INTRA>
2.93732

>  <SCORE.INTRA.DIHEDRAL>
1.61995

>  <SCORE.INTRA.DIHEDRAL.0>
1.43995

>  <SCORE.INTRA.POLAR>
0.272593

>  <SCORE.INTRA.POLAR.0>
-0.272593

>  <SCORE.INTRA.REPUL>
0

>  <SCORE.INTRA.REPUL.0>
0

>  <SCORE.INTRA.SOLV>
0.293925

>  <SCORE.INTRA.SOLV.lig_0>
-22.6728

>  <SCORE.INTRA.VDW>
1.05357

>  <SCORE.INTRA.VDW.0>
-0.754459

>  <SCORE.INTRA.norm>
0.225948

>  <SCORE.RESTR>
0

>  <SCORE.RESTR.CAVITY>
0

>  <SCORE.RESTR.norm>
0

>  <SCORE.SYSTEM>
0

>  <SCORE.SYSTEM.CONST>
0

>  <SCORE.SYSTEM.DIHEDRAL>
0

>  <SCORE.SYSTEM.SOLV>
0

>  <SCORE.SYSTEM.norm>
0

>  <SCORE.heavy>
13

>  <SCORE.norm>
-2.14183

>  <RMSD>
12.090

$$$$
lig.pdb
 OpenBabel11021811453D
libRbt.so/2013.1/901 2013/11/27
 13 14  0  0  0  0  0  0  0  0999 V2000
    0.7480   -8.4800   -3.1599 N   0  0  0  0  0  0  0  0  0  0  0  0
    0.1093   -9.6626   -2.8775 C   0  0  0  0  0  0  0  0  0  0  0  0
    0.8126  -10.7714   -2.6750 N   0  0  0  0  0  0  0  0  0  0  0  0
    2.1803  -10.7726   -2.7372 C   0  0  0  0  0  0  0  0  0  0  0  0
    2.8792   -9.5751   -3.0350 C   0  0  0  0  0  0  0  0  0  0  0  0
    2.1103   -8.3952   -3.2458 C   0  0  0  0  0  0  0  0  0  0  0  0
    2.6457   -7.3307   -3.4965 O   0  0  0  0  0  0  0  0  0  0  0  0
    4.3020   -9.9140   -3.0590 C   0  0  0  0  0  0  0  0  0  0  0  0
    5.4465   -8.9951   -3.3910 C   0  0  0  0  0  0  0  0  0  0  0  0
    6.7025   -9.5724   -2.8925 N   0  0  0  0  0  0  0  0  0  0  0  0
    4.3783  -11.2150   -2.7516 C   0  0  0  0  0  0  0  0  0  0  0  0
    3.1240  -11.7340   -2.5691 N   0  0  0  0  0  0  0  0  0  0  0  0
   -1.2580   -9.6964   -2.7959 N   0  0  0  0  0  0  0  0  0  0  0  0
  1  6  1  0  0  0  0
  2  1  1  0  0  0  0
  2  3  2  0  0  0  0
  3  4  1  0  0  0  0
  4  5  2  0  0  0  0
  4 12  1  0  0  0  0
  5  8  1  0  0  0  0
  6  7  2  0  0  0  0
  6  5  1  0  0  0  0
  8 11  2  0  0  0  0
  8  9  1  0  0  0  0
 10  9  1  0  0  0  0
 12 11  1  0  0  0  0
 13  2  1  0  0  0  0
M  END
>  <CHROM.1>
161.87516338,54.81026045,2.62719722,-9.67460104,-2.97504911,-3.09737998,-0.02838105
2.93120317

>  <Name>
lig.pdb

>  <RI>
4.02536e+07

>  <Rbt.Current_Directory>
/home/itssahil/PROJECTS/Mol_Feturizer/New_Systems/rnas/2l1v

>  <Rbt.Executable>
rbdock ($Id: //depot/dev/client3/rdock/2013.1/src/exe/rbdock.cxx#4 $)

>  <Rbt.Library>
libRbt.so (2013.1, Build901 2013/11/27)

>  <Rbt.Parameter_File>
/export/apps/rDock/src/rDock_2013.1_src/data/scripts/dock_solv.prm

>  <Rbt.Receptor>
prm/blind_docking_40.prm

>  <SCORE>
-27.518

>  <SCORE.INTER>
-29.1045

>  <SCORE.INTER.CONST>
1

>  <SCORE.INTER.POLAR>
-3.87468

>  <SCORE.INTER.ROT>
2

>  <SCORE.INTER.SOLV>
13.4837

>  <SCORE.INTER.VDW>
-15.9153

>  <SCORE.INTER.norm>
-2.23881

>  <SCORE.INTRA>
1.53482

>  <SCORE.INTRA.DIHEDRAL>
0.516147

>  <SCORE.INTRA.DIHEDRAL.0>
1.43995

>  <SCORE.INTRA.POLAR>
0.272593

>  <SCORE.INTRA.POLAR.0>
-0.272593

>  <SCORE.INTRA.REPUL>
0

>  <SCORE.INTRA.REPUL.0>
0

>  <SCORE.INTRA.SOLV>
-0.503464

>  <SCORE.INTRA.SOLV.lig_0>
-22.6728

>  <SCORE.INTRA.VDW>
0.601661

>  <SCORE.INTRA.VDW.0>
-0.754459

>  <SCORE.INTRA.norm>
0.118063

>  <SCORE.RESTR>
0.0516569

>  <SCORE.RESTR.CAVITY>
0.0516569

>  <SCORE.RESTR.norm>
0.00397361

>  <SCORE.SYSTEM>
0

>  <SCORE.SYSTEM.CONST>
0

>  <SCORE.SYSTEM.DIHEDRAL>
0

>  <SCORE.SYSTEM.SOLV>
0

>  <SCORE.SYSTEM.norm>
0

>  <SCORE.heavy>
13

>  <SCORE.norm>
-2.11677

>  <RMSD>
12.096

$$$$
lig.pdb
 OpenBabel11021811453D
libRbt.so/2013.1/901 2013/11/27
 13 14  0  0  0  0  0  0  0  0999 V2000
    4.1096   -9.6456   -4.0674 N   0  0  0  0  0  0  0  0  0  0  0  0
    4.6573  -10.7779   -3.5160 C   0  0  0  0  0  0  0  0  0  0  0  0
    3.9156  -11.5807   -2.7607 N   0  0  0  0  0  0  0  0  0  0  0  0
    2.5965  -11.3118   -2.5117 C   0  0  0  0  0  0  0  0  0  0  0  0
    1.9936  -10.1484   -3.0541 C   0  0  0  0  0  0  0  0  0  0  0  0
    2.8018   -9.3009   -3.8642 C   0  0  0  0  0  0  0  0  0  0  0  0
    2.3466   -8.2905   -4.3688 O   0  0  0  0  0  0  0  0  0  0  0  0
    0.6089  -10.1342   -2.5830 C   0  0  0  0  0  0  0  0  0  0  0  0
   -0.4233   -9.0690   -2.8368 C   0  0  0  0  0  0  0  0  0  0  0  0
   -0.2274   -8.5029   -4.1786 N   0  0  0  0  0  0  0  0  0  0  0  0
    0.4529  -11.2486   -1.8571 C   0  0  0  0  0  0  0  0  0  0  0  0
    1.6296  -11.9474   -1.8015 N   0  0  0  0  0  0  0  0  0  0  0  0
    5.9714  -11.0847   -3.7533 N   0  0  0  0  0  0  0  0  0  0  0  0
  1  6  1  0  0  0  0
  2  1  1  0  0  0  0
  2  3  2  0  0  0  0
  3  4  1  0  0  0  0
  4  5  2  0  0  0  0
  4 12  1  0  0  0  0
  5  8  1  0  0  0  0
  6  7  2  0  0  0  0
  6  5  1  0  0  0  0
  8 11  2  0  0  0  0
  8  9  1  0  0  0  0
 10  9  1  0  0  0  0
 12 11  1  0  0  0  0
 13  2  1  0  0  0  0
M  END
>  <CHROM.1>
34.72470939,-79.62468778,2.36808271,-10.19789863,-3.21142381,-0.18819673
0.23974239,-0.62342166

>  <Name>
lig.pdb

>  <RI>
4.17264e+07

>  <Rbt.Current_Directory>
/home/itssahil/PROJECTS/Mol_Feturizer/New_Systems/rnas/2l1v

>  <Rbt.Executable>
rbdock ($Id: //depot/dev/client3/rdock/2013.1/src/exe/rbdock.cxx#4 $)

>  <Rbt.Library>
libRbt.so (2013.1, Build901 2013/11/27)

>  <Rbt.Parameter_File>
/export/apps/rDock/src/rDock_2013.1_src/data/scripts/dock_solv.prm

>  <Rbt.Receptor>
prm/blind_docking_20.prm

>  <SCORE>
-26.2436

>  <SCORE.INTER>
-26.6027

>  <SCORE.INTER.CONST>
1

>  <SCORE.INTER.POLAR>
-2.9442

>  <SCORE.INTER.ROT>
2

>  <SCORE.INTER.SOLV>
12.5922

>  <SCORE.INTER.VDW>
-17.0519

>  <SCORE.INTER.norm>
-2.04636

>  <SCORE.INTRA>
0.359117

>  <SCORE.INTRA.DIHEDRAL>
0.935381

>  <SCORE.INTRA.DIHEDRAL.0>
1.43995

>  <SCORE.INTRA.POLAR>
-0.158046

>  <SCORE.INTRA.POLAR.0>
-0.272593

>  <SCORE.INTRA.REPUL>
0

>  <SCORE.INTRA.REPUL.0>
0

>  <SCORE.INTRA.SOLV>
0.208562

>  <SCORE.INTRA.SOLV.lig_0>
-22.6728

>  <SCORE.INTRA.VDW>
0.324502

>  <SCORE.INTRA.VDW.0>
-0.754459

>  <SCORE.INTRA.norm>
0.0276244

>  <SCORE.RESTR>
0

>  <SCORE.RESTR.CAVITY>
0

>  <SCORE.RESTR.norm>
0

>  <SCORE.SYSTEM>
0

>  <SCORE.SYSTEM.CONST>
0

>  <SCORE.SYSTEM.DIHEDRAL>
0

>  <SCORE.SYSTEM.SOLV>
0

>  <SCORE.SYSTEM.norm>
0

>  <SCORE.heavy>
13

>  <SCORE.norm>
-2.01874

>  <RMSD>
12.141

$$$$
lig.pdb
 OpenBabel11021811453D
libRbt.so/2013.1/901 2013/11/27
 13 14  0  0  0  0  0  0  0  0999 V2000
    3.8377   -9.6546   -4.1939 N   0  0  0  0  0  0  0  0  0  0  0  0
    4.6724  -10.5984   -3.6475 C   0  0  0  0  0  0  0  0  0  0  0  0
    4.1970  -11.4988   -2.7941 N   0  0  0  0  0  0  0  0  0  0  0  0
    2.8754  -11.5182   -2.4370 C   0  0  0  0  0  0  0  0  0  0  0  0
    1.9808  -10.5560   -2.9707 C   0  0  0  0  0  0  0  0  0  0  0  0
    2.5061   -9.6005   -3.8866 C   0  0  0  0  0  0  0  0  0  0  0  0
    1.7928   -8.7517   -4.3898 O   0  0  0  0  0  0  0  0  0  0  0  0
    0.6716  -10.8240   -2.3758 C   0  0  0  0  0  0  0  0  0  0  0  0
   -0.5941  -10.0358   -2.5789 C   0  0  0  0  0  0  0  0  0  0  0  0
   -1.6227  -10.5051   -1.6402 N   0  0  0  0  0  0  0  0  0  0  0  0
    0.8334  -11.8976   -1.5921 C   0  0  0  0  0  0  0  0  0  0  0  0
    2.1395  -12.3094   -1.6149 N   0  0  0  0  0  0  0  0  0  0  0  0
    5.9987  -10.6163   -3.9909 N   0  0  0  0  0  0  0  0  0  0  0  0
  1  6  1  0  0  0  0
  2  1  1  0  0  0  0
  2  3  2  0  0  0  0
  3  4  1  0  0  0  0
  4  5  2  0  0  0  0
  4 12  1  0  0  0  0
  5  8  1  0  0  0  0
  6  7  2  0  0  0  0
  6  5  1  0  0  0  0
  8 11  2  0  0  0  0
  8  9  1  0  0  0  0
 10  9  1  0  0  0  0
 12 11  1  0  0  0  0
 13  2  1  0  0  0  0
M  END
>  <CHROM.1>
-170.95733613,-30.97221690,2.25127788,-10.62137070,-2.94357855,0.23438368
0.23405984,-0.67561542

>  <Name>
lig.pdb

>  <RI>
1.77584e+07

>  <Rbt.Current_Directory>
/home/itssahil/PROJECTS/Mol_Feturizer/New_Systems/rnas/2l1v

>  <Rbt.Executable>
rbdock ($Id: //depot/dev/client3/rdock/2013.1/src/exe/rbdock.cxx#4 $)

>  <Rbt.Library>
libRbt.so (2013.1, Build901 2013/11/27)

>  <Rbt.Parameter_File>
/export/apps/rDock/src/rDock_2013.1_src/data/scripts/dock_solv.prm

>  <Rbt.Receptor>
prm/blind_docking_80.prm

>  <SCORE>
-24.0359

>  <SCORE.INTER>
-25.6304

>  <SCORE.INTER.CONST>
1

>  <SCORE.INTER.POLAR>
-2.45821

>  <SCORE.INTER.ROT>
2

>  <SCORE.INTER.SOLV>
13.2653

>  <SCORE.INTER.VDW>
-18.248

>  <SCORE.INTER.norm>
-1.97157

>  <SCORE.INTRA>
1.59453

>  <SCORE.INTRA.DIHEDRAL>
0.033257

>  <SCORE.INTRA.DIHEDRAL.0>
1.43995

>  <SCORE.INTRA.POLAR>
0.272593

>  <SCORE.INTRA.POLAR.0>
-0.272593

>  <SCORE.INTRA.REPUL>
0

>  <SCORE.INTRA.REPUL.0>
0

>  <SCORE.INTRA.SOLV>
-0.491181

>  <SCORE.INTRA.SOLV.lig_0>
-22.6728

>  <SCORE.INTRA.VDW>
0.896677

>  <SCORE.INTRA.VDW.0>
-0.754459

>  <SCORE.INTRA.norm>
0.122656

>  <SCORE.RESTR>
0

>  <SCORE.RESTR.CAVITY>
0

>  <SCORE.RESTR.norm>
0

>  <SCORE.SYSTEM>
0

>  <SCORE.SYSTEM.CONST>
0

>  <SCORE.SYSTEM.DIHEDRAL>
0

>  <SCORE.SYSTEM.SOLV>
0

>  <SCORE.SYSTEM.norm>
0

>  <SCORE.heavy>
13

>  <SCORE.norm>
-1.84892

>  <RMSD>
12.462

$$$$
lig.pdb
 OpenBabel11021811453D
libRbt.so/2013.1/901 2013/11/27
 13 14  0  0  0  0  0  0  0  0999 V2000
    2.1709  -11.8814   -2.0629 N   0  0  0  0  0  0  0  0  0  0  0  0
    1.0136  -12.1231   -1.3641 C   0  0  0  0  0  0  0  0  0  0  0  0
   -0.0482  -11.3437   -1.5375 N   0  0  0  0  0  0  0  0  0  0  0  0
   -0.0264  -10.2884   -2.4094 C   0  0  0  0  0  0  0  0  0  0  0  0
    1.1512   -9.9979   -3.1443 C   0  0  0  0  0  0  0  0  0  0  0  0
    2.2788  -10.8453   -2.9491 C   0  0  0  0  0  0  0  0  0  0  0  0
    3.3190  -10.6592   -3.5540 O   0  0  0  0  0  0  0  0  0  0  0  0
    0.8626   -8.8103   -3.9480 C   0  0  0  0  0  0  0  0  0  0  0  0
    1.8150   -8.0745   -4.8514 C   0  0  0  0  0  0  0  0  0  0  0  0
    2.8092   -7.3581   -4.0404 N   0  0  0  0  0  0  0  0  0  0  0  0
   -0.4140   -8.4939   -3.6966 C   0  0  0  0  0  0  0  0  0  0  0  0
   -0.9455   -9.3594   -2.7777 N   0  0  0  0  0  0  0  0  0  0  0  0
    0.9518  -13.1776   -0.4914 N   0  0  0  0  0  0  0  0  0  0  0  0
  1  6  1  0  0  0  0
  2  1  1  0  0  0  0
  2  3  2  0  0  0  0
  3  4  1  0  0  0  0
  4  5  2  0  0  0  0
  4 12  1  0  0  0  0
  5  8  1  0  0  0  0
  6  7  2  0  0  0  0
  6  5  1  0  0  0  0
  8 11  2  0  0  0  0
  8  9  1  0  0  0  0
 10  9  1  0  0  0  0
 12 11  1  0  0  0  0
 13  2  1  0  0  0  0
M  END
>  <CHROM.1>
-71.18385727,137.56938517,1.20033086,-10.19859733,-2.81346870,-1.69794328
0.22680426,-0.57977521

>  <Name>
lig.pdb

>  <RI>
4.02536e+07

>  <Rbt.Current_Directory>
/home/itssahil/PROJECTS/Mol_Feturizer/New_Systems/rnas/2l1v

>  <Rbt.Executable>
rbdock ($Id: //depot/dev/client3/rdock/2013.1/src/exe/rbdock.cxx#4 $)

>  <Rbt.Library>
libRbt.so (2013.1, Build901 2013/11/27)

>  <Rbt.Parameter_File>
/export/apps/rDock/src/rDock_2013.1_src/data/scripts/dock_solv.prm

>  <Rbt.Receptor>
prm/blind_docking_40.prm

>  <SCORE>
-36.3266

>  <SCORE.INTER>
-38.2942

>  <SCORE.INTER.CONST>
1

>  <SCORE.INTER.POLAR>
-4.97649

>  <SCORE.INTER.ROT>
2

>  <SCORE.INTER.SOLV>
14.5998

>  <SCORE.INTER.VDW>
-18.7411

>  <SCORE.INTER.norm>
-2.94571

>  <SCORE.INTRA>
1.05052

>  <SCORE.INTRA.DIHEDRAL>
0.267993

>  <SCORE.INTRA.DIHEDRAL.0>
1.43995

>  <SCORE.INTRA.POLAR>
0.272593

>  <SCORE.INTRA.POLAR.0>
-0.272593

>  <SCORE.INTRA.REPUL>
0

>  <SCORE.INTRA.REPUL.0>
0

>  <SCORE.INTRA.SOLV>
-0.205607

>  <SCORE.INTRA.SOLV.lig_0>
-22.6728

>  <SCORE.INTRA.VDW>
0.092514

>  <SCORE.INTRA.VDW.0>
-0.754459

>  <SCORE.INTRA.norm>
0.0808094

>  <SCORE.RESTR>
0.917089

>  <SCORE.RESTR.CAVITY>
0.917089

>  <SCORE.RESTR.norm>
0.0705453

>  <SCORE.SYSTEM>
0

>  <SCORE.SYSTEM.CONST>
0

>  <SCORE.SYSTEM.DIHEDRAL>
0

>  <SCORE.SYSTEM.SOLV>
0

>  <SCORE.SYSTEM.norm>
0

>  <SCORE.heavy>
13

>  <SCORE.norm>
-2.79435

>  <RMSD>
12.737

$$$$
lig.pdb
 OpenBabel11021811453D
libRbt.so/2013.1/901 2013/11/27
 13 14  0  0  0  0  0  0  0  0999 V2000
    2.1861  -12.0518   -1.9624 N   0  0  0  0  0  0  0  0  0  0  0  0
    1.0513  -12.2543   -1.2157 C   0  0  0  0  0  0  0  0  0  0  0  0
   -0.0019  -11.4593   -1.3697 N   0  0  0  0  0  0  0  0  0  0  0  0
    0.0066  -10.4262   -2.2680 C   0  0  0  0  0  0  0  0  0  0  0  0
    1.1611  -10.1763   -3.0526 C   0  0  0  0  0  0  0  0  0  0  0  0
    2.2797  -11.0399   -2.8777 C   0  0  0  0  0  0  0  0  0  0  0  0
    3.3000  -10.8884   -3.5248 O   0  0  0  0  0  0  0  0  0  0  0  0
    0.8644   -9.0033   -3.8748 C   0  0  0  0  0  0  0  0  0  0  0  0
    1.7958   -8.3081   -4.8307 C   0  0  0  0  0  0  0  0  0  0  0  0
    2.7434   -7.4752   -4.0772 N   0  0  0  0  0  0  0  0  0  0  0  0
   -0.3961   -8.6567   -3.5849 C   0  0  0  0  0  0  0  0  0  0  0  0
   -0.9086   -9.4893   -2.6256 N   0  0  0  0  0  0  0  0  0  0  0  0
    1.0029  -13.2857   -0.3152 N   0  0  0  0  0  0  0  0  0  0  0  0
  1  6  1  0  0  0  0
  2  1  1  0  0  0  0
  2  3  2  0  0  0  0
  3  4  1  0  0  0  0
  4  5  2  0  0  0  0
  4 12  1  0  0  0  0
  5  8  1  0  0  0  0
  6  7  2  0  0  0  0
  6  5  1  0  0  0  0
  8 11  2  0  0  0  0
  8  9  1  0  0  0  0
 10  9  1  0  0  0  0
 12 11  1  0  0  0  0
 13  2  1  0  0  0  0
M  END
>  <CHROM.1>
-77.22760746,-38.88249809,1.21052956,-10.35857815,-2.71930001,-1.68391582
0.27113052,-0.60064445

>  <Name>
lig.pdb

>  <RI>
4.17264e+07

>  <Rbt.Current_Directory>
/home/itssahil/PROJECTS/Mol_Feturizer/New_Systems/rnas/2l1v

>  <Rbt.Executable>
rbdock ($Id: //depot/dev/client3/rdock/2013.1/src/exe/rbdock.cxx#4 $)

>  <Rbt.Library>
libRbt.so (2013.1, Build901 2013/11/27)

>  <Rbt.Parameter_File>
/export/apps/rDock/src/rDock_2013.1_src/data/scripts/dock_solv.prm

>  <Rbt.Receptor>
prm/blind_docking_20.prm

>  <SCORE>
-36.9657

>  <SCORE.INTER>
-38.0796

>  <SCORE.INTER.CONST>
1

>  <SCORE.INTER.POLAR>
-4.87474

>  <SCORE.INTER.ROT>
2

>  <SCORE.INTER.SOLV>
14.3921

>  <SCORE.INTER.VDW>
-18.868

>  <SCORE.INTER.norm>
-2.9292

>  <SCORE.INTRA>
1.11386

>  <SCORE.INTRA.DIHEDRAL>
0.398479

>  <SCORE.INTRA.DIHEDRAL.0>
1.43995

>  <SCORE.INTRA.POLAR>
0.272593

>  <SCORE.INTRA.POLAR.0>
-0.272593

>  <SCORE.INTRA.REPUL>
0

>  <SCORE.INTRA.REPUL.0>
0

>  <SCORE.INTRA.SOLV>
-0.270755

>  <SCORE.INTRA.SOLV.lig_0>
-22.6728

>  <SCORE.INTRA.VDW>
0.123185

>  <SCORE.INTRA.VDW.0>
-0.754459

>  <SCORE.INTRA.norm>
0.0856817

>  <SCORE.RESTR>
0

>  <SCORE.RESTR.CAVITY>
0

>  <SCORE.RESTR.norm>
0

>  <SCORE.SYSTEM>
0

>  <SCORE.SYSTEM.CONST>
0

>  <SCORE.SYSTEM.DIHEDRAL>
0

>  <SCORE.SYSTEM.SOLV>
0

>  <SCORE.SYSTEM.norm>
0

>  <SCORE.heavy>
13

>  <SCORE.norm>
-2.84352

>  <RMSD>
12.892

$$$$
