@<TRIPOS>MOLECULE
2l1v_rdock.pdb
 1151 1242 0 0 0
SMALL
GASTEIGER

@<TRIPOS>ATOM
      1  O5'      -14.3590   -0.7510  -16.5560 O.3     1  G1         -0.3924
      2  C5'      -14.0980    0.4670  -17.2570 C.3     1  G1          0.0730
      3  C4'      -13.3030    0.2280  -18.5260 C.3     1  G1          0.1133
      4  O4'      -12.1910   -0.6520  -18.3120 O.3     1  G1         -0.3456
      5  C3'      -14.1700   -0.4180  -19.5960 C.3     1  G1          0.1241
      6  O3'      -13.9650    0.2550  -20.8580 O.3     1  G1         -0.3187
      7  C2'      -13.6380   -1.8340  -19.6740 C.3     1  G1          0.1292
      8  O2'      -13.8280   -2.4140  -20.9700 O.3     1  G1         -0.3846
      9  C1'      -12.1810   -1.6330  -19.3460 C.3     1  G1          0.1667
     10   N9      -11.5550   -2.8800  -18.8890 N.ar    1  G1         -0.2854
     11   C8      -11.3460   -3.3040  -17.6320 C.ar    1  G1          0.1005
     12   N7      -10.7590   -4.4420  -17.4670 N.ar    1  G1         -0.2286
     13   C5      -10.5430   -4.8400  -18.7900 C.ar    1  G1          0.1721
     14   C6       -9.9310   -6.0170  -19.2990 C.ar    1  G1          0.2803
     15   O6       -9.4500   -6.9590  -18.6730 O.2     1  G1         -0.2654
     16   N.1      -9.9180   -6.0230  -20.6890 N.ar    1  G1         -0.2934
     17   C.2     -10.4280   -5.0240  -21.4940 C.ar    1  G1          0.1950
     18   N.2     -10.3210   -5.2150  -22.8090 N.pl3   1  G1         -0.3289
     19   N.3     -11.0060   -3.9140  -21.0220 N.ar    1  G1         -0.1963
     20   C4      -11.0300   -3.8860  -19.6700 C.ar    1  G1          0.1712
     21  H5'      -13.5340    1.1380  -16.6130 H       1  G1          0.0584
     22 H5''      -15.0410    0.9420  -17.5180 H       1  G1          0.0584
     23  H4'      -12.9380    1.1650  -18.8870 H       1  G1          0.0647
     24  H3'      -15.2150   -0.4130  -19.3080 H       1  G1          0.0655
     25  H2'      -14.1050   -2.4340  -18.8920 H       1  G1          0.0666
     26 HO2'      -12.9700   -2.7190  -21.2750 H       1  G1          0.2101
     27  H1'      -11.6570   -1.2530  -20.2130 H       1  G1          0.0866
     28   H8      -11.6620   -2.6980  -16.7890 H       1  G1          0.1030
     29   H1       -9.4970   -6.8320  -21.1240 H       1  G1          0.1716
     30  H21       -9.8840   -6.0540  -23.1640 H       1  G1          0.1451
     31  H22      -10.6750   -4.5210  -23.4510 H       1  G1          0.1451
     32 HO5'      -14.9220   -0.5350  -15.8090 H       1  G1          0.2095
     33    P.3    -12.5070    0.6850  -21.4260 P.3     2  G2          0.2131
     34  OP1      -12.6460    2.0030  -22.0860 O.3     2  G2         -0.4373
     35  OP2      -11.9580   -0.4590  -22.1870 O.2     2  G2         -0.5172
     36  O5'      -11.6040    0.8840  -20.1050 O.3     2  G2         -0.3248
     37  C5'      -10.9070    2.1150  -19.8770 C.3     2  G2          0.0837
     38  C4'       -9.6150    1.8990  -19.0900 C.3     2  G2          0.1139
     39  O4'       -8.4840    1.8890  -19.9710 O.3     2  G2         -0.3456
     40  C3'       -9.3730    3.0410  -18.1060 C.3     2  G2          0.1241
     41  O3'       -9.7580    2.6280  -16.7960 O.3     2  G2         -0.3187
     42  C2'       -7.8670    3.1950  -18.0980 C.3     2  G2          0.1292
     43  O2'       -7.2590    2.3180  -17.1430 O.3     2  G2         -0.3846
     44  C1'       -7.4840    2.8170  -19.5220 C.3     2  G2          0.1667
     45   N9       -7.4270    4.0110  -20.3900 N.ar    2  G2         -0.2854
     46   C8       -8.4200    4.8440  -20.7920 C.ar    2  G2          0.1005
     47   N7       -8.0970    5.8430  -21.5440 N.ar    2  G2         -0.2286
     48   C5       -6.7160    5.6710  -21.6690 C.ar    2  G2          0.1721
     49   C6       -5.7630    6.4490  -22.3790 C.ar    2  G2          0.2803
     50   O6       -5.9540    7.4620  -23.0500 O.2     2  G2         -0.2654
     51   N.1      -4.4810    5.9310  -22.2460 N.ar    2  G2         -0.2934
     52   C.2      -4.1510    4.8040  -21.5210 C.ar    2  G2          0.1950
     53   N.2      -2.8620    4.4640  -21.5130 N.pl3   2  G2         -0.3289
     54   N.3      -5.0410    4.0660  -20.8490 N.ar    2  G2         -0.1963
     55   C4       -6.2980    4.5520  -20.9640 C.ar    2  G2          0.1712
     56  H5'      -11.5540    2.7920  -19.3180 H       2  G2          0.0591
     57 H5''      -10.6670    2.5640  -20.8390 H       2  G2          0.0591
     58  H4'       -9.6650    0.9520  -18.5510 H       2  G2          0.0647
     59  H3'       -9.8820    3.9560  -18.4130 H       2  G2          0.0655
     60  H2'       -7.6040    4.2320  -17.8950 H       2  G2          0.0666
     61 HO2'       -7.8540    2.2580  -16.3930 H       2  G2          0.2101
     62  H1'       -6.5110    2.3260  -19.5160 H       2  G2          0.0866
     63   H8       -9.4520    4.6800  -20.4880 H       2  G2          0.1030
     64   H1       -3.7470    6.4330  -22.7260 H       2  G2          0.1716
     65  H21       -2.1890    5.0210  -22.0200 H       2  G2          0.1451
     66  H22       -2.5580    3.6480  -21.0000 H       2  G2          0.1451
     67    P.3     -9.3940    3.5460  -15.5160 P.3     3  A3          0.2131
     68  OP1       -9.4860    4.9670  -15.9190 O.2     3  A3         -0.5172
     69  OP2       -8.1500    3.0270  -14.9050 O.3     3  A3         -0.4373
     70  O5'      -10.6210    3.2180  -14.5270 O.3     3  A3         -0.3248
     71  C5'      -11.9570    3.4950  -14.9500 C.3     3  A3          0.0837
     72  C4'      -12.9840    2.5460  -14.3330 C.3     3  A3          0.1139
     73  O4'      -13.1470    1.3990  -15.1800 O.3     3  A3         -0.3456
     74  C3'      -12.5290    2.0240  -12.9710 C.3     3  A3          0.1241
     75  O3'      -13.3920    2.5740  -11.9730 O.3     3  A3         -0.3187
     76  C2'      -12.8350    0.5230  -13.0190 C.3     3  A3          0.1292
     77  O2'      -14.1330    0.2430  -12.4830 O.3     3  A3         -0.3846
     78  C1'      -12.7730    0.1950  -14.4980 C.3     3  A3          0.1667
     79   N9      -11.4240   -0.2710  -14.8920 N.ar    3  A3         -0.2855
     80   C8      -10.4050    0.4110  -15.4640 C.ar    3  A3          0.1004
     81   N7       -9.3210   -0.2360  -15.7260 N.ar    3  A3         -0.2306
     82   C5       -9.6430   -1.5190  -15.2790 C.ar    3  A3          0.1473
     83   C6       -8.9260   -2.7210  -15.2600 C.ar    3  A3          0.1472
     84   N6       -7.6790   -2.8340  -15.7220 N.pl3   3  A3         -0.3413
     85   N.1      -9.5430   -3.7990  -14.7490 N.ar    3  A3         -0.2188
     86   C.2     -10.7920   -3.7080  -14.2830 C.ar    3  A3          0.1205
     87   N.3     -11.5620   -2.6210  -14.2500 N.ar    3  A3         -0.2159
     88   C4      -10.9220   -1.5510  -14.7680 C.ar    3  A3          0.1674
     89  H5'      -12.0080    3.4120  -16.0350 H       3  A3          0.0591
     90 H5''      -12.2090    4.5160  -14.6640 H       3  A3          0.0591
     91  H4'      -13.9400    3.0560  -14.2310 H       3  A3          0.0647
     92  H3'      -11.4780    2.2300  -12.7740 H       3  A3          0.0655
     93  H2'      -12.0720   -0.0340  -12.4840 H       3  A3          0.0666
     94 HO2'      -14.1200   -0.6610  -12.1610 H       3  A3          0.2101
     95  H1'      -13.4990   -0.5880  -14.7320 H       3  A3          0.0866
     96   H8      -10.5010    1.4610  -15.7030 H       3  A3          0.1030
     97  H61       -7.2030   -3.7270  -15.6890 H       3  A3          0.1438
     98  H62       -7.2090   -2.0270  -16.1050 H       3  A3          0.1438
     99   H2      -11.2360   -4.6370  -13.9230 H       3  A3          0.1048
    100    P.3    -12.9320    2.5750  -10.4310 P.3     4  G4          0.2131
    101  OP1      -14.1130    2.8790   -9.5920 O.3     4  G4         -0.4373
    102  OP2      -11.7040    3.3910  -10.3090 O.2     4  G4         -0.5172
    103  O5'      -12.5440    1.0310  -10.2200 O.3     4  G4         -0.3248
    104  C5'      -13.5470    0.0960   -9.8360 C.3     4  G4          0.0837
    105  C4'      -13.0730   -1.3410  -10.0030 C.3     4  G4          0.1139
    106  O4'      -12.3340   -1.5140  -11.2050 O.3     4  G4         -0.3456
    107  C3'      -12.0980   -1.7590   -8.9290 C.3     4  G4          0.1241
    108  O3'      -12.8160   -2.1290   -7.7490 O.3     4  G4         -0.3187
    109  C2'      -11.4980   -3.0010   -9.5480 C.3     4  G4          0.1292
    110  O2'      -12.3360   -4.1460   -9.3470 O.3     4  G4         -0.3846
    111  C1'      -11.4270   -2.6130  -11.0240 C.3     4  G4          0.1667
    112   N9      -10.0490   -2.2620  -11.4270 N.ar    4  G4         -0.2854
    113   C8       -9.5240   -1.0660  -11.8000 C.ar    4  G4          0.1005
    114   N7       -8.2950   -1.0480  -12.1920 N.ar    4  G4         -0.2286
    115   C5       -7.9360   -2.3920  -12.0700 C.ar    4  G4          0.1721
    116   C6       -6.7000   -3.0310  -12.3500 C.ar    4  G4          0.2803
    117   O6       -5.6620   -2.5300  -12.7750 O.2     4  G4         -0.2654
    118   N.1      -6.7600   -4.3940  -12.0900 N.ar    4  G4         -0.2934
    119   C.2      -7.8700   -5.0650  -11.6180 C.ar    4  G4          0.1950
    120   N.2      -7.7290   -6.3770  -11.4280 N.pl3   4  G4         -0.3289
    121   N.3      -9.0380   -4.4720  -11.3520 N.ar    4  G4         -0.1963
    122   C4       -9.0030   -3.1420  -11.5990 C.ar    4  G4          0.1712
    123  H5'      -14.4270    0.2510  -10.4580 H       4  G4          0.0591
    124 H5''      -13.8130    0.2650   -8.7930 H       4  G4          0.0591
    125  H4'      -13.9280   -2.0150  -10.0080 H       4  G4          0.0647
    126  H3'      -11.3450   -1.0000   -8.7470 H       4  G4          0.0655
    127  H2'      -10.5000   -3.1740   -9.1570 H       4  G4          0.0666
    128 HO2'      -12.4770   -4.5500  -10.2070 H       4  G4          0.2101
    129  H1'      -11.7670   -3.4420  -11.6200 H       4  G4          0.0866
    130   H8      -10.1150   -0.1540  -11.7640 H       4  G4          0.1030
    131   H1       -5.9150   -4.9160  -12.2700 H       4  G4          0.1716
    132  H21       -6.8470   -6.8240  -11.6310 H       4  G4          0.1451
    133  H22       -8.5040   -6.9230  -11.0810 H       4  G4          0.1451
    134    P.3    -12.0750   -2.1510   -6.3190 P.3     5  A5          0.2131
    135  OP1      -13.0340   -2.6500   -5.3090 O.3     5  A5         -0.4373
    136  OP2      -11.4090   -0.8440   -6.1220 O.2     5  A5         -0.5172
    137  O5'      -10.9340   -3.2700   -6.5270 O.3     5  A5         -0.3248
    138  C5'      -11.2960   -4.6450   -6.6690 C.3     5  A5          0.0837
    139  C4'      -10.0760   -5.5640   -6.6820 C.3     5  A5          0.1139
    140  O4'       -9.4300   -5.5740   -7.9590 O.3     5  A5         -0.3456
    141  C3'       -9.0040   -5.1060   -5.7120 C.3     5  A5          0.1241
    142  O3'       -9.2560   -5.6860   -4.4310 O.3     5  A5         -0.3187
    143  C2'       -7.7470   -5.7350   -6.2750 C.3     5  A5          0.1292
    144  O2'       -7.5610   -7.0680   -5.7860 O.3     5  A5         -0.3846
    145  C1'       -8.0090   -5.7210   -7.7760 C.3     5  A5          0.1667
    146   N9       -7.2560   -4.6240   -8.4110 N.ar    5  A5         -0.2855
    147   C8       -7.6120   -3.3400   -8.6630 C.ar    5  A5          0.1004
    148   N7       -6.7370   -2.5830   -9.2400 N.ar    5  A5         -0.2306
    149   C5       -5.6610   -3.4660   -9.3940 C.ar    5  A5          0.1473
    150   C6       -4.3810   -3.3230   -9.9430 C.ar    5  A5          0.1472
    151   N6       -3.9340   -2.1830  -10.4690 N.pl3   5  A5         -0.3413
    152   N.1      -3.5770   -4.4020   -9.9300 N.ar    5  A5         -0.2188
    153   C.2      -4.0020   -5.5540   -9.4090 C.ar    5  A5          0.1205
    154   N.3      -5.1870   -5.7990   -8.8660 N.ar    5  A5         -0.2159
    155   C4       -5.9740   -4.7060   -8.8910 C.ar    5  A5          0.1674
    156  H5'      -11.8440   -4.7720   -7.6030 H       5  A5          0.0591
    157 H5''      -11.9430   -4.9290   -5.8380 H       5  A5          0.0591
    158  H4'      -10.3800   -6.5780   -6.4300 H       5  A5          0.0647
    159  H3'       -8.9320   -4.0180   -5.6670 H       5  A5          0.0655
    160  H2'       -6.8810   -5.1110   -6.0440 H       5  A5          0.0666
    161 HO2'       -6.9440   -7.5060   -6.3770 H       5  A5          0.2101
    162  H1'       -7.6660   -6.6630   -8.2070 H       5  A5          0.0866
    163   H8       -8.5850   -2.9580   -8.3660 H       5  A5          0.1030
    164  H61       -3.0000   -2.1370  -10.8510 H       5  A5          0.1438
    165  H62       -4.5280   -1.3670  -10.4860 H       5  A5          0.1438
    166   H2       -3.2980   -6.3850   -9.4290 H       5  A5          0.1048
    167    P.3     -8.7950   -4.9200   -3.0920 P.3     6  G6          0.2131
    168  OP1       -9.6180   -5.4080   -1.9630 O.3     6  G6         -0.4373
    169  OP2       -8.7140   -3.4720   -3.3840 O.2     6  G6         -0.5172
    170  O5'       -7.2990   -5.4920   -2.9210 O.3     6  G6         -0.3248
    171  C5'       -7.1030   -6.8420   -2.4940 C.3     6  G6          0.0837
    172  C4'       -5.6370   -7.2630   -2.5570 C.3     6  G6          0.1139
    173  O4'       -5.1660   -7.3030   -3.9100 O.3     6  G6         -0.3456
    174  C3'       -4.7180   -6.2780   -1.8570 C.3     6  G6          0.1241
    175  O3'       -4.6100   -6.6340   -0.4770 O.3     6  G6         -0.3187
    176  C2'       -3.3930   -6.5710   -2.5330 C.3     6  G6          0.1292
    177  O2'       -2.7820   -7.7540   -2.0070 O.3     6  G6         -0.3846
    178  C1'       -3.8320   -6.7690   -3.9720 C.3     6  G6          0.1667
    179   N9       -3.7940   -5.4840   -4.6860 N.ar    6  G6         -0.2854
    180   C8       -4.7350   -4.5140   -4.7730 C.ar    6  G6          0.1005
    181   N7       -4.4340   -3.4470   -5.4350 N.ar    6  G6         -0.2286
    182   C5       -3.1260   -3.7270   -5.8460 C.ar    6  G6          0.1721
    183   C6       -2.2260   -2.9450   -6.6160 C.ar    6  G6          0.2803
    184   O6       -2.4050   -1.8290   -7.0980 O.2     6  G6         -0.2654
    185   N.1      -1.0140   -3.5990   -6.8000 N.ar    6  G6         -0.2934
    186   C.2      -0.7010   -4.8490   -6.3090 C.ar    6  G6          0.1950
    187   N.2       0.5180   -5.3070   -6.5980 N.pl3   6  G6         -0.3289
    188   N.3      -1.5420   -5.5910   -5.5840 N.ar    6  G6         -0.1963
    189   C4       -2.7290   -4.9740   -5.3910 C.ar    6  G6          0.1712
    190  H5'       -7.6880   -7.5020   -3.1350 H       6  G6          0.0591
    191 H5''       -7.4550   -6.9430   -1.4680 H       6  G6          0.0591
    192  H4'       -5.5210   -8.2490   -2.1120 H       6  G6          0.0647
    193  H3'       -5.0340   -5.2440   -2.0020 H       6  G6          0.0655
    194  H2'       -2.7240   -5.7100   -2.4610 H       6  G6          0.0666
    195 HO2'       -3.4200   -8.1680   -1.4210 H       6  G6          0.2101
    196  H1'       -3.1710   -7.4830   -4.4640 H       6  G6          0.0866
    197   H8       -5.6980   -4.6180   -4.2750 H       6  G6          0.1030
    198   H1       -0.3210   -3.1020   -7.3340 H       6  G6          0.1716
    199  H21        1.1510   -4.7460   -7.1500 H       6  G6          0.1451
    200  H22        0.8070   -6.2160   -6.2660 H       6  G6          0.1451
    201    P.3     -3.7030   -5.7480    0.5170 P.3     7  G7          0.2131
    202  OP1       -3.4110   -6.5550    1.7220 O.3     7  G7         -0.4373
    203  OP2       -4.3340   -4.4160    0.6560 O.2     7  G7         -0.5172
    204  O5'       -2.3360   -5.5730   -0.3180 O.3     7  G7         -0.3248
    205  C5'       -1.3820   -6.6360   -0.3640 C.3     7  G7          0.0837
    206  C4'       -0.1570   -6.2740   -1.2000 C.3     7  G7          0.1139
    207  O4'       -0.5110   -5.7810   -2.4940 O.3     7  G7         -0.3456
    208  C3'        0.6370   -5.1550   -0.5560 C.3     7  G7          0.1241
    209  O3'        1.5660   -5.7410    0.3580 O.3     7  G7         -0.3187
    210  C2'        1.4050   -4.5790   -1.7330 C.3     7  G7          0.1292
    211  O2'        2.6320   -5.2840   -1.9510 O.3     7  G7         -0.3846
    212  C1'        0.4350   -4.7730   -2.8960 C.3     7  G7          0.1667
    213   N9       -0.2300   -3.4970   -3.2170 N.ar    7  G7         -0.2854
    214   C8       -1.4470   -3.0270   -2.8520 C.ar    7  G7          0.1005
    215   N7       -1.7770   -1.8440   -3.2580 N.ar    7  G7         -0.2286
    216   C5       -0.6440   -1.4680   -3.9880 C.ar    7  G7          0.1721
    217   C6       -0.3690   -0.2660   -4.6960 C.ar    7  G7          0.2803
    218   O6       -1.0850    0.7260   -4.8230 O.2     7  G7         -0.2654
    219   N.1       0.8890   -0.3010   -5.2900 N.ar    7  G7         -0.2934
    220   C.2       1.7730   -1.3580   -5.2150 C.ar    7  G7          0.1950
    221   N.2       2.9350   -1.2080   -5.8520 N.pl3   7  G7         -0.3289
    222   N.3       1.5200   -2.4870   -4.5520 N.ar    7  G7         -0.1963
    223   C4        0.3040   -2.4770   -3.9660 C.ar    7  G7          0.1712
    224  H5'       -1.8560   -7.5180   -0.7950 H       7  G7          0.0591
    225 H5''       -1.0610   -6.8670    0.6520 H       7  G7          0.0591
    226  H4'        0.4780   -7.1520   -1.3120 H       7  G7          0.0647
    227  H3'       -0.0070   -4.4140   -0.0800 H       7  G7          0.0655
    228  H2'        1.5910   -3.5100   -1.5850 H       7  G7          0.0666
    229 HO2'        3.1200   -5.2700   -1.1240 H       7  G7          0.2101
    230  H1'        1.0000   -5.1050   -3.7660 H       7  G7          0.0866
    231   H8       -2.1220   -3.6210   -2.2370 H       7  G7          0.1030
    232   H1        1.1580    0.5210   -5.8080 H       7  G7          0.1716
    233  H21        3.1300   -0.3570   -6.3560 H       7  G7          0.1451
    234  H22        3.6200   -1.9490   -5.8300 H       7  G7          0.1451
    235    P.3      2.8100   -4.8960    0.9270 P.3     8  U8          0.2131
    236  OP1        2.4890   -4.4740    2.3090 O.3     8  U8         -0.4373
    237  OP2        3.1910   -3.8840   -0.0840 O.2     8  U8         -0.5172
    238  O5'        3.9730   -6.0050    0.9940 O.3     8  U8         -0.3248
    239  C5'        3.9580   -7.1290    0.1070 C.3     8  U8          0.0837
    240  C4'        5.2520   -7.2180   -0.6960 C.3     8  U8          0.1139
    241  O4'        5.1410   -6.5850   -1.9690 O.3     8  U8         -0.3456
    242  C3'        6.3730   -6.4850   -0.0040 C.3     8  U8          0.1241
    243  O3'        6.9760   -7.3640    0.9480 O.3     8  U8         -0.3187
    244  C2'        7.3460   -6.2450   -1.1360 C.3     8  U8          0.1293
    245  O2'        8.1850   -7.3850   -1.3600 O.3     8  U8         -0.3846
    246  C1'        6.4070   -5.9950   -2.3190 C.3     8  U8          0.1680
    247   N.1       6.2600   -4.5510   -2.5670 N.ar    8  U8         -0.2715
    248   C.2       6.8560   -4.0270   -3.6980 C.ar    8  U8          0.3314
    249   O.2       7.4770   -4.7270   -4.4920 O.2     8  U8         -0.2464
    250   N.3       6.7150   -2.6630   -3.8800 N.ar    8  U8         -0.2749
    251   C4        6.0400   -1.7960   -3.0340 C.ar    8  U8          0.2539
    252   O4        5.9740   -0.5990   -3.2870 O.2     8  U8         -0.2677
    253   C5        5.4530   -2.4400   -1.8800 C.ar    8  U8          0.0192
    254   C6        5.5750   -3.7600   -1.6890 C.ar    8  U8          0.0171
    255  H5'        3.1140   -7.0360   -0.5790 H       8  U8          0.0591
    256 H5''        3.8410   -8.0400    0.6930 H       8  U8          0.0591
    257  H4'        5.5350   -8.2560   -0.8350 H       8  U8          0.0647
    258  H3'        6.0340   -5.5500    0.4470 H       8  U8          0.0655
    259  H2'        7.9420   -5.3530   -0.9250 H       8  U8          0.0666
    260 HO2'        8.3470   -7.7930   -0.5060 H       8  U8          0.2101
    261  H1'        6.7950   -6.4850   -3.2110 H       8  U8          0.0867
    262   H3        7.1420   -2.2610   -4.7080 H       8  U8          0.1734
    263   H5        4.9090   -1.8530   -1.1430 H       8  U8          0.0686
    264   H6        5.1070   -4.2030   -0.8190 H       8  U8          0.0813
    265    P.3      6.7820   -7.0880    2.5190 P.3     9  U9          0.2131
    266  OP1        8.1200   -6.9600    3.1380 O.3     9  U9         -0.4373
    267  OP2        5.8120   -8.0720    3.0480 O.2     9  U9         -0.5172
    268  O5'        6.0820   -5.6370    2.5140 O.3     9  U9         -0.3248
    269  C5'        6.8580   -4.4300    2.4940 C.3     9  U9          0.0837
    270  C4'        8.0620   -4.5170    1.5470 C.3     9  U9          0.1139
    271  O4'        7.8660   -3.7260    0.3650 O.3     9  U9         -0.3456
    272  C3'        9.3120   -3.9700    2.2140 C.3     9  U9          0.1241
    273  O3'       10.0300   -5.0680    2.7860 O.3     9  U9         -0.3187
    274  C2'       10.1220   -3.4230    1.0530 C.3     9  U9          0.1293
    275  O2'       10.9490   -4.4360    0.4710 O.3     9  U9         -0.3846
    276  C1'        9.0460   -2.9550    0.0790 C.3     9  U9          0.1680
    277   N.1       8.7880   -1.5090    0.2340 N.ar    9  U9         -0.2715
    278   C.2       9.5570   -0.6440   -0.5220 C.ar    9  U9          0.3314
    279   O.2      10.4180   -1.0470   -1.3010 O.2     9  U9         -0.2464
    280   N.3       9.3020    0.7040   -0.3500 N.ar    9  U9         -0.2749
    281   C4        8.3580    1.2550    0.4980 C.ar    9  U9          0.2539
    282   O4        8.2170    2.4740    0.5720 O.2     9  U9         -0.2677
    283   C5        7.6000    0.2790    1.2470 C.ar    9  U9          0.0192
    284   C6        7.8320   -1.0480    1.0960 C.ar    9  U9          0.0171
    285  H5'        7.2140   -4.2260    3.5030 H       9  U9          0.0591
    286 H5''        6.2160   -3.6100    2.1740 H       9  U9          0.0591
    287  H4'        8.2360   -5.5470    1.2610 H       9  U9          0.0647
    288  H3'        9.0770   -3.2030    2.9510 H       9  U9          0.0655
    289  H2'       10.7240   -2.5730    1.3820 H       9  U9          0.0666
    290 HO2'       11.4170   -4.0340   -0.2640 H       9  U9          0.2101
    291  H1'        9.3900   -3.1460   -0.9390 H       9  U9          0.0867
    292   H3        9.8580    1.3480   -0.8950 H       9  U9          0.1734
    293   H5        6.8310    0.6140    1.9440 H       9  U9          0.0686
    294   H6        7.2450   -1.7610    1.6720 H       9  U9          0.0813
    295    P.3     10.4880   -5.0270    4.3280 P.3    10  C10         0.2131
    296  OP1       11.9670   -5.0670    4.3730 O.2    10  C10        -0.5172
    297  OP2        9.6990   -6.0330    5.0740 O.3    10  C10        -0.4373
    298  O5'       10.0080   -3.5640    4.7940 O.3    10  C10        -0.3248
    299  C5'        9.1750   -3.4020    5.9440 C.3    10  C10         0.0837
    300  C4'        8.8430   -1.9330    6.1870 C.3    10  C10         0.1139
    301  O4'        9.8310   -1.0950    5.6070 O.3    10  C10        -0.3456
    302  C3'        7.5120   -1.5500    5.5390 C.3    10  C10         0.1241
    303  O3'        6.5770   -1.2740    6.5850 O.3    10  C10        -0.3187
    304  C2'        7.7810   -0.2440    4.7870 C.3    10  C10         0.1293
    305  O2'        6.8880    0.7910    5.2110 O.3    10  C10        -0.3846
    306  C1'        9.2260    0.1010    5.1310 C.3    10  C10         0.1680
    307   N.1       9.9440    0.6050    3.9480 N.ar   10  C10        -0.2700
    308   C.2      10.1940    1.9660    3.8860 C.ar   10  C10         0.3522
    309   O.2       9.7980    2.7060    4.7840 O.2    10  C10        -0.2444
    310   N.3      10.8800    2.4470    2.8160 N.ar   10  C10        -0.1783
    311   C4       11.3030    1.6270    1.8450 C.ar   10  C10         0.1230
    312   N.4      11.9780    2.1320    0.8120 N.pl3  10  C10        -0.3430
    313   C5       11.0450    0.2210    1.9030 C.ar   10  C10        -0.0056
    314   C6       10.3640   -0.2470    2.9680 C.ar   10  C10         0.0152
    315  H5'        9.6970   -3.7950    6.8140 H      10  C10         0.0591
    316 H5''        8.2510   -3.9610    5.7990 H      10  C10         0.0591
    317  H4'        8.7940   -1.7430    7.2590 H      10  C10         0.0647
    318  H3'        7.1490   -2.3300    4.8700 H      10  C10         0.0655
    319  H2'        7.6880   -0.4110    3.7120 H      10  C10         0.0666
    320 HO2'        6.0200    0.3950    5.3130 H      10  C10         0.2101
    321  H1'        9.2430    0.8570    5.9150 H      10  C10         0.0867
    322  H41       12.1640    3.1240    0.7650 H      10  C10         0.1437
    323  H42       12.3020    1.5220    0.0760 H      10  C10         0.1437
    324   H5       11.4030   -0.4450    1.1180 H      10  C10         0.0666
    325   H6       10.1430   -1.3150    3.0460 H      10  C10         0.0812
    326    P.3      5.0020   -1.1650    6.2690 P.3    11  U11         0.2131
    327  OP1        4.2900   -2.1370    7.1280 O.3    11  U11        -0.4373
    328  OP2        4.8200   -1.2040    4.8010 O.2    11  U11        -0.5172
    329  O5'        4.6410    0.3180    6.7820 O.3    11  U11        -0.3248
    330  C5'        4.1320    0.5210    8.1020 C.3    11  U11         0.0837
    331  C4'        3.7450    1.9770    8.3400 C.3    11  U11         0.1139
    332  O4'        4.8990    2.8150    8.4240 O.3    11  U11        -0.3456
    333  C3'        2.9230    2.5200    7.1840 C.3    11  U11         0.1241
    334  O3'        1.5370    2.3530    7.4990 O.3    11  U11        -0.3187
    335  C2'        3.2400    4.0050    7.1980 C.3    11  U11         0.1293
    336  O2'        2.3570    4.7180    8.0720 O.3    11  U11        -0.3846
    337  C1'        4.6790    4.0410    7.7080 C.3    11  U11         0.1680
    338   N.1       5.6310    4.1760    6.5890 N.ar   11  U11        -0.2715
    339   C.2       5.6120    5.3610    5.8790 C.ar   11  U11         0.3314
    340   O.2       4.8390    6.2760    6.1560 O.2    11  U11        -0.2464
    341   N.3       6.5150    5.4590    4.8370 N.ar   11  U11        -0.2749
    342   C4        7.4220    4.4880    4.4490 C.ar   11  U11         0.2539
    343   O4        8.1820    4.6840    3.5030 O.2    11  U11        -0.2677
    344   C5        7.3710    3.2840    5.2470 C.ar   11  U11         0.0192
    345   C6        6.4950    3.1650    6.2730 C.ar   11  U11         0.0171
    346  H5'        4.8960    0.2330    8.8250 H      11  U11         0.0591
    347 H5''        3.2540   -0.1080    8.2450 H      11  U11         0.0591
    348  H4'        3.1730    2.0570    9.2640 H      11  U11         0.0647
    349  H3'        3.1910    2.0530    6.2360 H      11  U11         0.0655
    350  H2'        3.1930    4.4080    6.1830 H      11  U11         0.0666
    351 HO2'        1.8200    4.0670    8.5290 H      11  U11         0.2101
    352  H1'        4.8010    4.8830    8.3880 H      11  U11         0.0867
    353   H3        6.5130    6.3200    4.3090 H      11  U11         0.1734
    354   H5        8.0460    2.4600    5.0190 H      11  U11         0.0686
    355   H6        6.4800    2.2450    6.8580 H      11  U11         0.0813
    356    P.3      0.7600    1.0040    7.0870 P.3    12  A12         0.2131
    357  OP1        0.2400    0.3730    8.3220 O.3    12  A12        -0.4373
    358  OP2        1.6270    0.2290    6.1720 O.2    12  A12        -0.5172
    359  O5'       -0.4910    1.5640    6.2430 O.3    12  A12        -0.3248
    360  C5'       -1.4660    2.4090    6.8600 C.3    12  A12         0.0837
    361  C4'       -1.5310    3.7770    6.1870 C.3    12  A12         0.1139
    362  O4'       -0.2590    4.4240    6.2060 O.3    12  A12        -0.3456
    363  C3'       -1.8980    3.6530    4.7190 C.3    12  A12         0.1241
    364  O3'       -3.3190    3.7430    4.5970 O.3    12  A12        -0.3187
    365  C2'       -1.2790    4.8990    4.1080 C.3    12  A12         0.1292
    366  O2'       -2.1540    6.0280    4.2180 O.3    12  A12        -0.3846
    367  C1'       -0.0190    5.0800    4.9500 C.3    12  A12         0.1667
    368   N9        1.1520    4.4970    4.2720 N.ar   12  A12        -0.2855
    369   C8        1.7410    3.2900    4.4500 C.ar   12  A12         0.1004
    370   N7        2.7890    3.0290    3.7440 N.ar   12  A12        -0.2306
    371   C5        2.9240    4.2040    2.9970 C.ar   12  A12         0.1473
    372   C6        3.8470    4.6090    2.0300 C.ar   12  A12         0.1472
    373   N6        4.8620    3.8440    1.6290 N.pl3  12  A12        -0.3413
    374   N.1       3.6880    5.8340    1.4920 N.ar   12  A12        -0.2188
    375   C.2       2.6800    6.6170    1.8800 C.ar   12  A12         0.1205
    376   N.3       1.7480    6.3320    2.7870 N.ar   12  A12        -0.2159
    377   C4        1.9310    5.1010    3.3110 C.ar   12  A12         0.1674
    378  H5'       -1.2070    2.5420    7.9110 H      12  A12         0.0591
    379 H5''       -2.4440    1.9320    6.7930 H      12  A12         0.0591
    380  H4'       -2.2620    4.4030    6.6960 H      12  A12         0.0647
    381  H3'       -1.5010    2.7400    4.2760 H      12  A12         0.0655
    382  H2'       -1.0110    4.7090    3.0630 H      12  A12         0.0666
    383 HO2'       -1.6490    6.7430    4.6130 H      12  A12         0.2101
    384  H1'        0.1670    6.1390    5.1340 H      12  A12         0.0866
    385   H8        1.3440    2.5660    5.1620 H      12  A12         0.1030
    386  H61        5.5040    4.1850    0.9260 H      12  A12         0.1438
    387  H62        4.9890    2.9250    2.0260 H      12  A12         0.1438
    388   H2        2.6160    7.6060    1.4130 H      12  A12         0.1048
    389    P.3     -4.1380    2.6010    3.8140 P.3    13  G13         0.2131
    390  OP1       -5.5460    2.6450    4.2690 O.3    13  G13        -0.4373
    391  OP2       -3.3730    1.3380    3.9050 O.2    13  G13        -0.5172
    392  O5'       -4.0850    3.1150    2.2900 O.3    13  G13        -0.3248
    393  C5'       -2.9040    2.9350    1.5010 C.3    13  G13         0.0837
    394  C4'       -2.5450    4.2100    0.7360 C.3    13  G13         0.1139
    395  O4'       -1.2830    4.7320    1.1590 O.3    13  G13        -0.3456
    396  C3'       -2.4220    3.9520   -0.7610 C.3    13  G13         0.1241
    397  O3'       -3.6350    4.3830   -1.3730 O.3    13  G13        -0.3187
    398  C2'       -1.3150    4.8780   -1.2230 C.3    13  G13         0.1292
    399  O2'       -1.8490    6.1030   -1.7340 O.3    13  G13        -0.3846
    400  C1'       -0.4820    5.1120    0.0300 C.3    13  G13         0.1667
    401   N9        0.7690    4.3340   -0.0080 N.ar   13  G13        -0.2854
    402   C8        1.1640    3.3020    0.7750 C.ar   13  G13         0.1005
    403   N7        2.3430    2.8150    0.5760 N.ar   13  G13        -0.2286
    404   C5        2.8070    3.6140   -0.4740 C.ar   13  G13         0.1721
    405   C6        4.0520    3.5830   -1.1570 C.ar   13  G13         0.2803
    406   O6        5.0060    2.8360   -0.9640 O.2    13  G13        -0.2654
    407   N.1       4.1140    4.5560   -2.1480 N.ar   13  G13        -0.2934
    408   C.2       3.1080    5.4470   -2.4490 C.ar   13  G13         0.1950
    409   N.2       3.3610    6.3040   -3.4390 N.pl3  13  G13        -0.3289
    410   N.3       1.9320    5.4840   -1.8120 N.ar   13  G13        -0.1963
    411   C4        1.8480    4.5460   -0.8400 C.ar   13  G13         0.1712
    412  H5'       -3.0730    2.1240    0.7950 H      13  G13         0.0591
    413 H5''       -2.0750    2.6690    2.1570 H      13  G13         0.0591
    414  H4'       -3.3150    4.9610    0.9080 H      13  G13         0.0647
    415  H3'       -2.1990    2.9170   -0.9890 H      13  G13         0.0655
    416  H2'       -0.7070    4.3790   -1.9760 H      13  G13         0.0666
    417 HO2'       -1.5030    6.8140   -1.1910 H      13  G13         0.2101
    418  H1'       -0.2380    6.1710    0.0950 H      13  G13         0.0866
    419   H8        0.5100    2.8970    1.5470 H      13  G13         0.1030
    420   H1        4.9740    4.6000   -2.6740 H      13  G13         0.1716
    421  H21        4.2520    6.2770   -3.9190 H      13  G13         0.1451
    422  H22        2.6630    6.9780   -3.7090 H      13  G13         0.1451
    423    P.3     -4.1490    3.7350   -2.7520 P.3    14  U14         0.2131
    424  OP1       -5.1950    2.7370   -2.4400 O.3    14  U14        -0.4373
    425  OP2       -2.9680    3.3500   -3.5570 O.2    14  U14        -0.5172
    426  O5'       -4.8460    5.0040   -3.4480 O.3    14  U14        -0.3248
    427  C5'       -4.5390    6.3150   -2.9700 C.3    14  U14         0.0837
    428  C4'       -5.6960    6.9080   -2.1700 C.3    14  U14         0.1139
    429  O4'       -5.3720    6.9690   -0.7750 O.3    14  U14        -0.3456
    430  C3'       -5.9530    8.3490   -2.5700 C.3    14  U14         0.1241
    431  O3'       -7.2480    8.7220   -2.0890 O.3    14  U14        -0.3187
    432  C2'       -4.9100    9.0710   -1.7480 C.3    14  U14         0.1293
    433  O2'       -5.2130   10.4640   -1.6030 O.3    14  U14        -0.3846
    434  C1'       -5.0220    8.3200   -0.4240 C.3    14  U14         0.1680
    435   N.1      -3.7660    8.3560    0.3690 N.ar   14  U14        -0.2715
    436   C.2      -3.6690    7.4530    1.4130 C.ar   14  U14         0.3314
    437   O.2      -4.5540    6.6350    1.6510 O.2    14  U14        -0.2464
    438   N.3      -2.5180    7.5220    2.1770 N.ar   14  U14        -0.2749
    439   C4       -1.4680    8.4020    1.9940 C.ar   14  U14         0.2539
    440   O4       -0.4900    8.3750    2.7390 O.2    14  U14        -0.2677
    441   C5       -1.6470    9.3090    0.8830 C.ar   14  U14         0.0192
    442   C6       -2.7630    9.2640    0.1160 C.ar   14  U14         0.0171
    443  H5'       -4.3140    6.9660   -3.8130 H      14  U14         0.0591
    444 H5''       -3.6620    6.2580   -2.3260 H      14  U14         0.0591
    445  H4'       -6.5960    6.3120   -2.3120 H      14  U14         0.0647
    446  H3'       -5.8330    8.5170   -3.6410 H      14  U14         0.0655
    447  H2'       -3.9220    8.9190   -2.1930 H      14  U14         0.0666
    448 HO2'       -5.1300   10.6790   -0.6710 H      14  U14         0.2101
    449  H1'       -5.8310    8.7550    0.1640 H      14  U14         0.0867
    450   H3       -2.4390    6.8680    2.9430 H      14  U14         0.1734
    451   H5       -0.8750   10.0440    0.6620 H      14  U14         0.0686
    452   H6       -2.8560    9.9600   -0.7150 H      14  U14         0.0813
    453    P.3     -8.4140    9.1540   -3.1110 P.3    15  U15         0.2131
    454  OP1       -9.7190    8.8750   -2.4720 O.3    15  U15        -0.4373
    455  OP2       -8.1040    8.5810   -4.4400 O.2    15  U15        -0.5172
    456  O5'       -8.2240   10.7490   -3.1940 O.3    15  U15        -0.3248
    457  C5'       -7.5220   11.3370   -4.2900 C.3    15  U15         0.0837
    458  C4'       -6.1420   11.8320   -3.8690 C.3    15  U15         0.1139
    459  O4'       -5.3160   12.0790   -4.9960 O.3    15  U15        -0.3456
    460  C3'       -6.2360   13.1490   -3.1150 C.3    15  U15         0.1241
    461  O3'       -5.2950   13.1150   -2.0400 O.3    15  U15        -0.3187
    462  C2'       -5.7850   14.2110   -4.1160 C.3    15  U15         0.1293
    463  O2'       -4.6060   14.8790   -3.6600 O.3    15  U15        -0.3846
    464  C1'       -5.5100   13.4210   -5.4030 C.3    15  U15         0.1680
    465   N.1      -6.6280   13.5220   -6.3630 N.ar   15  U15        -0.2715
    466   C.2      -7.1000   12.3510   -6.9300 C.ar   15  U15         0.3314
    467   O.2      -6.6300   11.2510   -6.6530 O.2    15  U15        -0.2464
    468   N.3      -8.1380   12.4910   -7.8350 N.ar   15  U15        -0.2749
    469   C4       -8.7330   13.6800   -8.2160 C.ar   15  U15         0.2539
    470   O4       -9.6520   13.6880   -9.0320 O.2    15  U15        -0.2677
    471   C5       -8.1750   14.8490   -7.5740 C.ar   15  U15         0.0192
    472   C6       -7.1590   14.7340   -6.6850 C.ar   15  U15         0.0171
    473  H5'       -8.1010   12.1770   -4.6710 H      15  U15         0.0591
    474 H5''       -7.4090   10.5940   -5.0790 H      15  U15         0.0591
    475  H4'       -5.6680   11.0980   -3.2390 H      15  U15         0.0647
    476  H3'       -7.2450   13.3370   -2.7550 H      15  U15         0.0655
    477  H2'       -6.5940   14.9240   -4.2710 H      15  U15         0.0666
    478 HO2'       -4.2240   15.3280   -4.4160 H      15  U15         0.2101
    479  H1'       -4.5990   13.7920   -5.8710 H      15  U15         0.0867
    480   H3       -8.4930   11.6450   -8.2570 H      15  U15         0.1734
    481   H5       -8.5760   15.8350   -7.8080 H      15  U15         0.0686
    482   H6       -6.7530   15.6250   -6.2200 H      15  U15         0.0813
    483    P.3     -5.8070   12.9780   -0.5180 P.3    16  A16         0.2131
    484  OP1       -5.0350   11.8960    0.1340 O.3    16  A16        -0.4373
    485  OP2       -7.2860   12.9280   -0.5290 O.2    16  A16        -0.5172
    486  O5'       -5.3560   14.3790    0.1310 O.3    16  A16        -0.3248
    487  C5'       -5.4100   15.5810   -0.6400 C.3    16  A16         0.0837
    488  C4'       -4.0400   16.2600   -0.7160 C.3    16  A16         0.1139
    489  O4'       -3.0280   15.4300   -0.1420 O.3    16  A16        -0.3456
    490  C3'       -3.6160   16.5380   -2.1590 C.3    16  A16         0.1241
    491  O3'       -3.0010   17.8280   -2.1910 O.3    16  A16        -0.3187
    492  C2'       -2.5480   15.4970   -2.4600 C.3    16  A16         0.1292
    493  O2'       -1.5400   16.0210   -3.3320 O.3    16  A16        -0.3846
    494  C1'       -1.9820   15.1800   -1.0860 C.3    16  A16         0.1667
    495   N9       -1.5360   13.7790   -0.9980 N.ar   16  A16        -0.2855
    496   C8       -2.2440   12.6690   -0.6820 C.ar   16  A16         0.1004
    497   N7       -1.5920   11.5550   -0.5680 N.ar   16  A16        -0.2306
    498   C5       -0.2830   11.9670   -0.8480 C.ar   16  A16         0.1473
    499   C6        0.9460   11.2880   -0.9040 C.ar   16  A16         0.1472
    500   N6        1.0920    9.9810   -0.6580 N.pl3  16  A16        -0.3413
    501   N.1       2.0310   12.0140   -1.2140 N.ar   16  A16        -0.2188
    502   C.2       1.9330   13.3180   -1.4530 C.ar   16  A16         0.1205
    503   N.3       0.8340   14.0590   -1.4260 N.ar   16  A16        -0.2159
    504   C4       -0.2460   13.3190   -1.1150 C.ar   16  A16         0.1674
    505  H5'       -6.1190   16.2670   -0.1750 H      16  A16         0.0591
    506 H5''       -5.7570   15.3400   -1.6430 H      16  A16         0.0591
    507  H4'       -4.0780   17.2010   -0.1680 H      16  A16         0.0647
    508  H3'       -4.4490   16.4660   -2.8540 H      16  A16         0.0655
    509  H2'       -3.0070   14.6070   -2.8910 H      16  A16         0.0666
    510 HO2'       -1.2540   15.3030   -3.9010 H      16  A16         0.2101
    511  H1'       -1.1400   15.8410   -0.8800 H      16  A16         0.0866
    512   H8       -3.3250   12.7160   -0.5390 H      16  A16         0.1030
    513  H61        2.0150    9.5580   -0.6980 H      16  A16         0.1438
    514  H62        0.2880    9.4150   -0.4320 H      16  A16         0.1438
    515   H2        2.8570   13.8310   -1.7050 H      16  A16         0.1048
    516    P.3     -3.6900   19.0400   -2.9940 P.3    17  U17         0.2131
    517  OP1       -2.8000   20.2190   -2.9090 O.2    17  U17        -0.5172
    518  OP2       -5.1000   19.1440   -2.5590 O.3    17  U17        -0.4373
    519  O5'       -3.6670   18.5010   -4.5070 O.3    17  U17        -0.3248
    520  C5'       -2.6910   17.5390   -4.9110 C.3    17  U17         0.0837
    521  C4'       -2.0190   17.9440   -6.2140 C.3    17  U17         0.1139
    522  O4'       -0.8800   18.7690   -5.9670 O.3    17  U17        -0.3456
    523  C3'       -1.5240   16.7180   -6.9820 C.3    17  U17         0.1241
    524  O3'       -2.2720   16.6330   -8.2000 O.3    17  U17        -0.3187
    525  C2'       -0.0870   17.0610   -7.3400 C.3    17  U17         0.1293
    526  O2'       -0.0190   17.7000   -8.6210 O.3    17  U17        -0.3846
    527  C1'        0.3050   18.0310   -6.2300 C.3    17  U17         0.1680
    528   N.1       0.7960   17.4030   -4.9620 N.ar   17  U17        -0.2715
    529   C.2       0.8590   18.2520   -3.8710 C.ar   17  U17         0.3314
    530   O.2       0.5190   19.4300   -3.9460 O.2    17  U17        -0.2464
    531   N.3       1.3240   17.7080   -2.6890 N.ar   17  U17        -0.2749
    532   C4        1.7310   16.4020   -2.4940 C.ar   17  U17         0.2539
    533   O4        2.1300   16.0280   -1.3930 O.2    17  U17        -0.2677
    534   C5        1.6370   15.5750   -3.6730 C.ar   17  U17         0.0192
    535   C6        1.1830   16.0790   -4.8510 C.ar   17  U17         0.0171
    536  H5'       -3.1770   16.5740   -5.0460 H      17  U17         0.0591
    537 H5''       -1.9340   17.4500   -4.1320 H      17  U17         0.0591
    538  H4'       -2.7220   18.4900   -6.8290 H      17  U17         0.0647
    539  H3'       -1.5940   15.8060   -6.3900 H      17  U17         0.0655
    540  H2'        0.5330   16.1710   -7.3280 H      17  U17         0.0666
    541 HO2'        0.3320   17.0580   -9.2420 H      17  U17         0.2101
    542  H1'        1.0570   18.7140   -6.6110 H      17  U17         0.0867
    543   H3        1.3730   18.3250   -1.8910 H      17  U17         0.1734
    544   H5        1.9390   14.5260   -3.6160 H      17  U17         0.0686
    545   H6        1.1290   15.4180   -5.7040 H      17  U17         0.0813
    546    P.3     -3.3930   15.4940   -8.3990 P.3    18  A18         0.2131
    547  OP1       -4.1940   15.8350   -9.5960 O.2    18  A18        -0.5172
    548  OP2       -4.0640   15.2690   -7.0990 O.3    18  A18        -0.4373
    549  O5'       -2.5050   14.1990   -8.7410 O.3    18  A18        -0.3248
    550  C5'       -2.0890   13.3170   -7.6980 C.3    18  A18         0.0837
    551  C4'       -0.5760   13.3770   -7.4970 C.3    18  A18         0.1139
    552  O4'       -0.2480   13.5420   -6.1140 O.3    18  A18        -0.3456
    553  C3'        0.1130   12.0900   -7.9410 C.3    18  A18         0.1241
    554  O3'        0.5830   12.2750   -9.2790 O.3    18  A18        -0.3187
    555  C2'        1.3140   12.0110   -7.0150 C.3    18  A18         0.1292
    556  O2'        2.4140   12.7840   -7.5080 O.3    18  A18        -0.3846
    557  C1'        0.7520   12.5910   -5.7300 C.3    18  A18         0.1667
    558   N9        0.1800   11.5230   -4.8980 N.ar   18  A18        -0.2855
    559   C8       -1.0530   11.4080   -4.3480 C.ar   18  A18         0.1004
    560   N7       -1.3010   10.3400   -3.6640 N.ar   18  A18        -0.2306
    561   C5       -0.0850    9.6540   -3.7680 C.ar   18  A18         0.1473
    562   C6        0.3590    8.4240   -3.2700 C.ar   18  A18         0.1472
    563   N6       -0.4090    7.6250   -2.5250 N.pl3  18  A18        -0.3413
    564   N.1       1.6240    8.0540   -3.5690 N.ar   18  A18        -0.2188
    565   C.2       2.4000    8.8550   -4.3140 C.ar   18  A18         0.1205
    566   N.3       2.0760   10.0290   -4.8300 N.ar   18  A18        -0.2159
    567   C4        0.8150   10.3710   -4.5180 C.ar   18  A18         0.1674
    568  H5'       -2.3820   12.3000   -7.9550 H      18  A18         0.0591
    569 H5''       -2.5830   13.6060   -6.7710 H      18  A18         0.0591
    570  H4'       -0.1700   14.2160   -8.0610 H      18  A18         0.0647
    571  H3'       -0.5320   11.2170   -7.8450 H      18  A18         0.0655
    572  H2'        1.6050   10.9670   -6.8520 H      18  A18         0.0666
    573 HO2'        3.1960   12.5130   -7.0190 H      18  A18         0.2101
    574  H1'        1.5460   13.0930   -5.1820 H      18  A18         0.0866
    575   H8       -1.8100   12.1770   -4.5030 H      18  A18         0.1030
    576  H61       -0.0480    6.7420   -2.1840 H      18  A18         0.1438
    577  H62       -1.3550    7.9010   -2.3030 H      18  A18         0.1438
    578   H2        3.4170    8.5100   -4.5120 H      18  A18         0.1048
    579    P.3      0.3300   11.1460  -10.3980 P.3    19  C19         0.2131
    580  OP1        0.1990   11.8160  -11.7110 O.2    19  C19        -0.5172
    581  OP2       -0.7420   10.2460   -9.9170 O.3    19  C19        -0.4373
    582  O5'        1.7170   10.3330  -10.3830 O.3    19  C19        -0.3248
    583  C5'        2.9080   10.9580   -9.9000 C.3    19  C19         0.0837
    584  C4'        3.9050    9.9360   -9.3690 C.3    19  C19         0.1139
    585  O4'        3.8110    9.7840   -7.9450 O.3    19  C19        -0.3456
    586  C3'        3.6170    8.5500   -9.9120 C.3    19  C19         0.1241
    587  O3'        4.2490    8.3880  -11.1820 O.3    19  C19        -0.3187
    588  C2'        4.3230    7.6800   -8.9080 C.3    19  C19         0.1293
    589  O2'        5.7380    7.6510   -9.1320 O.3    19  C19        -0.3846
    590  C1'        3.9730    8.3930   -7.6130 C.3    19  C19         0.1680
    591   N.1       2.7570    7.8070   -7.0240 N.ar   19  C19        -0.2700
    592   C.2       2.9590    6.7370   -6.1820 C.ar   19  C19         0.3522
    593   O.2       4.0960    6.3160   -5.9890 O.2    19  C19        -0.2444
    594   N.3       1.8860    6.1700   -5.5900 N.ar   19  C19        -0.1783
    595   C4        0.6530    6.6190   -5.8070 C.ar   19  C19         0.1230
    596   N.4      -0.3660    6.0080   -5.1920 N.pl3  19  C19        -0.3430
    597   C5        0.4230    7.7320   -6.6850 C.ar   19  C19        -0.0056
    598   C6        1.5050    8.2970   -7.2740 C.ar   19  C19         0.0152
    599  H5'        2.6470   11.6510   -9.1000 H      19  C19         0.0591
    600 H5''        3.3710   11.5150  -10.7150 H      19  C19         0.0591
    601  H4'        4.9170   10.2340   -9.6340 H      19  C19         0.0647
    602  H3'        2.5520    8.3390   -9.9420 H      19  C19         0.0655
    603  H2'        3.9010    6.6760   -8.9130 H      19  C19         0.0666
    604 HO2'        6.1460    7.3060   -8.3350 H      19  C19         0.2101
    605  H1'        4.7880    8.2580   -6.9090 H      19  C19         0.0867
    606  H41       -0.1860    5.2220   -4.5790 H      19  C19         0.1437
    607  H42       -1.3030    6.3180   -5.3370 H      19  C19         0.1437
    608   H5       -0.5850    8.1110   -6.8670 H      19  C19         0.0666
    609   H6        1.3740    9.1450   -7.9450 H      19  C19         0.0812
    610    P.3      3.8270    7.1600  -12.1370 P.3    20  C20         0.2131
    611  OP1        4.6370    7.2340  -13.3730 O.2    20  C20        -0.5172
    612  OP2        2.3500    7.1310  -12.2240 O.3    20  C20        -0.4373
    613  O5'        4.3070    5.8720  -11.2930 O.3    20  C20        -0.3248
    614  C5'        5.5610    5.2490  -11.5830 C.3    20  C20         0.0837
    615  C4'        5.7650    3.9600  -10.7870 C.3    20  C20         0.1139
    616  O4'        5.3110    4.0760   -9.4400 O.3    20  C20        -0.3456
    617  C3'        4.9480    2.8160  -11.3480 C.3    20  C20         0.1241
    618  O3'        5.6670    2.2090  -12.4250 O.3    20  C20        -0.3187
    619  C2'        4.9220    1.8460  -10.1800 C.3    20  C20         0.1293
    620  O2'        6.0710    0.9920  -10.1870 O.3    20  C20        -0.3846
    621  C1'        4.9220    2.7710   -8.9640 C.3    20  C20         0.1680
    622   N.1       3.5850    2.7970   -8.3460 N.ar   20  C20        -0.2700
    623   C.2       3.2170    1.6990   -7.5890 C.ar   20  C20         0.3522
    624   O.2       3.9960    0.7590   -7.4520 O.2    20  C20        -0.2444
    625   N.3       1.9850    1.6970   -7.0110 N.ar   20  C20        -0.1783
    626   C4        1.1490    2.7320   -7.1720 C.ar   20  C20         0.1230
    627   N.4      -0.0500    2.7020   -6.5920 N.pl3  20  C20        -0.3430
    628   C5        1.5270    3.8680   -7.9550 C.ar   20  C20        -0.0056
    629   C6        2.7480    3.8580   -8.5210 C.ar   20  C20         0.0152
    630  H5'        6.3650    5.9440  -11.3390 H      20  C20         0.0591
    631 H5''        5.6040    5.0170  -12.6470 H      20  C20         0.0591
    632  H4'        6.8200    3.6910  -10.7880 H      20  C20         0.0647
    633  H3'        3.9460    3.1330  -11.6410 H      20  C20         0.0655
    634  H2'        4.0020    1.2670  -10.1980 H      20  C20         0.0666
    635 HO2'        6.8480    1.5600  -10.1880 H      20  C20         0.2101
    636  H1'        5.6560    2.4210   -8.2320 H      20  C20         0.0867
    637  H41       -0.3230    1.9040   -6.0370 H      20  C20         0.1437
    638  H42       -0.6860    3.4770   -6.7080 H      20  C20         0.1437
    639   H5        0.8500    4.7110   -8.0890 H      20  C20         0.0666
    640   H6        3.0670    4.7010   -9.1290 H      20  C20         0.0812
    641    P.3      4.9090    1.2330  -13.4600 P.3    21  C21         0.2131
    642  OP1        5.7330    1.1280  -14.6850 O.2    21  C21        -0.5172
    643  OP2        3.4980    1.6690  -13.5570 O.3    21  C21        -0.4373
    644  O5'        4.9460   -0.1900  -12.7020 O.3    21  C21        -0.3248
    645  C5'        6.1850   -0.8800  -12.5280 C.3    21  C21         0.0837
    646  C4'        6.0200   -2.1790  -11.7420 C.3    21  C21         0.1139
    647  O4'        5.6500   -1.9340  -10.3800 O.3    21  C21        -0.3456
    648  C3'        4.9020   -3.0430  -12.3010 C.3    21  C21         0.1241
    649  O3'        5.4280   -3.8730  -13.3410 O.3    21  C21        -0.3187
    650  C2'        4.5660   -3.9200  -11.1100 C.3    21  C21         0.1293
    651  O2'        5.5080   -5.0140  -11.0020 O.3    21  C21        -0.3846
    652  C1'        4.6910   -2.9210   -9.9550 C.3    21  C21         0.1680
    653   N.1       3.3830   -2.3050   -9.6690 N.ar   21  C21        -0.2700
    654   C.2       2.5470   -2.9650   -8.7830 C.ar   21  C21         0.3522
    655   O.2       2.9110   -4.0170   -8.2610 O.2    21  C21        -0.2444
    656   N.3       1.3300   -2.4210   -8.5170 N.ar   21  C21        -0.1783
    657   C4        0.9450   -1.2740   -9.0930 C.ar   21  C21         0.1230
    658   N.4      -0.2620   -0.7770   -8.8020 N.pl3  21  C21        -0.3430
    659   C5        1.8100   -0.5870  -10.0110 C.ar   21  C21        -0.0056
    660   C6        3.0140   -1.1390  -10.2650 C.ar   21  C21         0.0152
    661  H5'        6.8760   -0.2300  -11.9930 H      21  C21         0.0591
    662 H5''        6.6040   -1.1090  -13.5080 H      21  C21         0.0591
    663  H4'        6.9550   -2.7370  -11.7620 H      21  C21         0.0647
    664  H3'        4.0470   -2.4500  -12.6300 H      21  C21         0.0655
    665  H2'        3.5320   -4.2760  -11.1910 H      21  C21         0.0666
    666 HO2'        5.2950   -5.5350  -10.2180 H      21  C21         0.2101
    667  H1'        5.0530   -3.4230   -9.0590 H      21  C21         0.0867
    668  H41       -0.8640   -1.2670   -8.1560 H      21  C21         0.1437
    669  H42       -0.5740    0.0840   -9.2220 H      21  C21         0.1437
    670   H5        1.5100    0.3470  -10.4870 H      21  C21         0.0666
    671   H6        3.6990   -0.6500  -10.9550 H      21  C21         0.0812
    672    P.3      4.5040   -4.3020  -14.5920 P.3    22  U22         0.2131
    673  OP1        5.3850   -4.8340  -15.6560 O.2    22  U22        -0.5172
    674  OP2        3.5810   -3.1840  -14.8910 O.3    22  U22        -0.4373
    675  O5'        3.6380   -5.5260  -13.9990 O.3    22  U22        -0.3248
    676  C5'        4.1060   -6.8730  -14.1250 C.3    22  U22         0.0837
    677  C4'        3.3770   -7.8220  -13.1590 C.3    22  U22         0.1139
    678  O4'        3.1620   -7.2010  -11.8830 O.3    22  U22        -0.3456
    679  C3'        1.9830   -8.1740  -13.6620 C.3    22  U22         0.1241
    680  O3'        2.0540   -9.3550  -14.4670 O.3    22  U22        -0.3187
    681  C2'        1.2670   -8.5160  -12.3740 C.3    22  U22         0.1293
    682  O2'        1.6020   -9.8300  -11.9130 O.3    22  U22        -0.3846
    683  C1'        1.8100   -7.4410  -11.4520 C.3    22  U22         0.1680
    684   N.1       0.9880   -6.2230  -11.5530 N.ar   22  U22        -0.2715
    685   C.2      -0.2300   -6.2350  -10.9080 C.ar   22  U22         0.3314
    686   O.2      -0.6190   -7.2070  -10.2650 O.2    22  U22        -0.2464
    687   N.3      -0.9910   -5.0890  -11.0270 N.ar   22  U22        -0.2749
    688   C4       -0.6440   -3.9460  -11.7270 C.ar   22  U22         0.2539
    689   O4       -1.4020   -2.9790  -11.7650 O.2    22  U22        -0.2677
    690   C5        0.6480   -4.0220  -12.3720 C.ar   22  U22         0.0192
    691   C6        1.4110   -5.1370  -12.2690 C.ar   22  U22         0.0171
    692  H5'        5.1800   -6.8880  -13.9160 H      22  U22         0.0591
    693 H5''        3.9390   -7.2130  -15.1460 H      22  U22         0.0591
    694  H4'        3.9520   -8.7400  -13.0190 H      22  U22         0.0647
    695  H3'        1.5120   -7.3400  -14.1840 H      22  U22         0.0655
    696  H2'        0.1880   -8.4000  -12.4950 H      22  U22         0.0666
    697 HO2'        2.5430   -9.9520  -12.0590 H      22  U22         0.2101
    698  H1'        1.8090   -7.8000  -10.4220 H      22  U22         0.0867
    699   H3       -1.8860   -5.0880  -10.5640 H      22  U22         0.1734
    700   H5        1.0120   -3.1720  -12.9490 H      22  U22         0.0686
    701   H6        2.3770   -5.1720  -12.7720 H      22  U22         0.0813
    702    P.3      0.8410   -9.7340  -15.4600 P.3    23  C23         0.2131
    703  OP1        1.1300  -11.0560  -16.0590 O.3    23  C23        -0.4373
    704  OP2        0.5800   -8.5700  -16.3370 O.2    23  C23        -0.5172
    705  O5'       -0.4080   -9.8990  -14.4540 O.3    23  C23        -0.3248
    706  C5'       -0.4320  -10.9680  -13.5040 C.3    23  C23         0.0837
    707  C4'       -1.7100  -10.9650  -12.6630 C.3    23  C23         0.1139
    708  O4'       -1.8270   -9.7770  -11.8780 O.3    23  C23        -0.3456
    709  C3'       -2.9550  -10.9830  -13.5300 C.3    23  C23         0.1241
    710  O3'       -3.3050  -12.3400  -13.8070 O.3    23  C23        -0.3187
    711  C2'       -4.0030  -10.4090  -12.5950 C.3    23  C23         0.1293
    712  O2'       -4.5070  -11.4070  -11.7000 O.3    23  C23        -0.3846
    713  C1'       -3.2020   -9.3520  -11.8430 C.3    23  C23         0.1680
    714   N.1      -3.3540   -8.0310  -12.4620 N.ar   23  C23        -0.2700
    715   C.2      -4.4340   -7.2630  -12.0680 C.ar   23  C23         0.3522
    716   O.2      -5.2580   -7.7190  -11.2790 O.2    23  C23        -0.2444
    717   N.3      -4.5510   -6.0110  -12.5780 N.ar   23  C23        -0.1783
    718   C4       -3.6490   -5.5320  -13.4410 C.ar   23  C23         0.1230
    719   N.4      -3.8020   -4.2920  -13.9080 N.pl3  23  C23        -0.3430
    720   C5       -2.5310   -6.3340  -13.8540 C.ar   23  C23        -0.0056
    721   C6       -2.4300   -7.5680  -13.3420 C.ar   23  C23         0.0152
    722  H5'        0.4270  -10.8680  -12.8430 H      23  C23         0.0591
    723 H5''       -0.3610  -11.9160  -14.0350 H      23  C23         0.0591
    724  H4'       -1.7130  -11.8320  -12.0030 H      23  C23         0.0647
    725  H3'       -2.8370  -10.3820  -14.4350 H      23  C23         0.0655
    726  H2'       -4.8160   -9.9450  -13.1700 H      23  C23         0.0666
    727 HO2'       -4.0180  -11.3250  -10.8780 H      23  C23         0.2101
    728  H1'       -3.5360   -9.3030  -10.8080 H      23  C23         0.0867
    729  H41       -4.5900   -3.7360  -13.6090 H      23  C23         0.1437
    730  H42       -3.1360   -3.9070  -14.5560 H      23  C23         0.1437
    731   H5       -1.7870   -5.9660  -14.5560 H      23  C23         0.0666
    732   H6       -1.6040   -8.2080  -13.6430 H      23  C23         0.0812
    733    P.3     -4.6440  -12.6720  -14.6330 P.3    24  U24         0.2131
    734  OP1       -5.0540  -14.0580  -14.3170 O.3    24  U24        -0.4373
    735  OP2       -4.4340  -12.2660  -16.0410 O.2    24  U24        -0.5172
    736  O5'       -5.7130  -11.6650  -13.9710 O.3    24  U24        -0.3248
    737  C5'       -6.5300  -12.0760  -12.8710 C.3    24  U24         0.0837
    738  C4'       -7.9480  -11.5390  -13.0100 C.3    24  U24         0.1139
    739  O4'       -7.9660  -10.1130  -12.8520 O.3    24  U24        -0.3456
    740  C3'       -8.4750  -11.8480  -14.4040 C.3    24  U24         0.1241
    741  O3'       -9.5720  -12.7570  -14.2660 O.3    24  U24        -0.3187
    742  C2'       -9.0290  -10.5340  -14.9550 C.3    24  U24         0.1293
    743  O2'      -10.4430  -10.6100  -15.1650 O.3    24  U24        -0.3846
    744  C1'       -8.6740   -9.4690  -13.9250 C.3    24  U24         0.1680
    745   N.1      -7.8620   -8.3990  -14.5440 N.ar   24  U24        -0.2715
    746   C.2      -8.3800   -7.1170  -14.5210 C.ar   24  U24         0.3314
    747   O.2      -9.4730   -6.8630  -14.0220 O.2    24  U24        -0.2464
    748   N.3      -7.5980   -6.1340  -15.0990 N.ar   24  U24        -0.2749
    749   C4       -6.3630   -6.3150  -15.6900 C.ar   24  U24         0.2539
    750   O4       -5.7560   -5.3580  -16.1670 O.2    24  U24        -0.2677
    751   C5       -5.8970   -7.6850  -15.6720 C.ar   24  U24         0.0192
    752   C6       -6.6470   -8.6680  -15.1120 C.ar   24  U24         0.0171
    753  H5'       -6.0950  -11.7030  -11.9430 H      24  U24         0.0591
    754 H5''       -6.5630  -13.1650  -12.8380 H      24  U24         0.0591
    755  H4'       -8.5860  -12.0080  -12.2560 H      24  U24         0.0647
    756  H3'       -7.6970  -12.2570  -15.0480 H      24  U24         0.0655
    757  H2'       -8.5160  -10.3000  -15.8890 H      24  U24         0.0666
    758 HO2'      -10.7960  -11.2180  -14.5120 H      24  U24         0.2101
    759  H1'       -9.5960   -9.0260  -13.5330 H      24  U24         0.0867
    760   H3       -7.9640   -5.1940  -15.0900 H      24  U24         0.1734
    761   H5       -4.9260   -7.9300  -16.1030 H      24  U24         0.0686
    762   H6       -6.2810   -9.6940  -15.1230 H      24  U24         0.0813
    763    P.3     -9.4300  -14.0930  -13.3740 P.3    25  A25         0.2131
    764  OP1       -8.0210  -14.5410  -13.4330 O.3    25  A25        -0.4373
    765  OP2      -10.5170  -15.0230  -13.7570 O.2    25  A25        -0.5172
    766  O5'       -9.7280  -13.5590  -11.8820 O.3    25  A25        -0.3248
    767  C5'       -9.8380  -14.4780  -10.7900 C.3    25  A25         0.0837
    768  C4'      -10.6300  -13.8840   -9.6250 C.3    25  A25         0.1139
    769  O4'      -10.4170  -12.4700   -9.5260 O.3    25  A25        -0.3456
    770  C3'      -12.1350  -14.0780   -9.8150 C.3    25  A25         0.1241
    771  O3'      -12.7240  -14.2730   -8.5270 O.3    25  A25        -0.3187
    772  C2'      -12.6050  -12.7340  -10.3430 C.3    25  A25         0.1292
    773  O2'      -13.9740  -12.4820  -10.0060 O.3    25  A25        -0.3846
    774  C1'      -11.6670  -11.7810   -9.6260 C.3    25  A25         0.1667
    775   N9      -11.5150  -10.5150  -10.3640 N.ar   25  A25        -0.2855
    776   C8      -11.1220  -10.2990  -11.6420 C.ar   25  A25         0.1004
    777   N7      -11.0290   -9.0730  -12.0390 N.ar   25  A25        -0.2306
    778   C5      -11.4090   -8.3770  -10.8860 C.ar   25  A25         0.1473
    779   C6      -11.5340   -7.0140  -10.5970 C.ar   25  A25         0.1472
    780   N6      -11.2770   -6.0550  -11.4830 N.pl3  25  A25        -0.3413
    781   N.1     -11.9320   -6.6760   -9.3590 N.ar   25  A25        -0.2188
    782   C.2     -12.1930   -7.6190   -8.4530 C.ar   25  A25         0.1205
    783   N.3     -12.1070   -8.9340   -8.6170 N.ar   25  A25        -0.2159
    784   C4      -11.7070   -9.2480   -9.8650 C.ar   25  A25         0.1674
    785  H5'       -8.8370  -14.7360  -10.4420 H      25  A25         0.0591
    786 H5''      -10.3360  -15.3840  -11.1360 H      25  A25         0.0591
    787  H4'      -10.3180  -14.3580   -8.6960 H      25  A25         0.0647
    788  H3'      -12.3640  -14.8930  -10.5020 H      25  A25         0.0655
    789  H2'      -12.4480  -12.6770  -11.4240 H      25  A25         0.0666
    790 HO2'      -14.0090  -11.6270   -9.5710 H      25  A25         0.2101
    791  H1'      -12.0490  -11.5750   -8.6260 H      25  A25         0.0866
    792   H8      -10.9090  -11.1320  -12.3130 H      25  A25         0.1030
    793  H61      -11.3810   -5.0870  -11.2200 H      25  A25         0.1438
    794  H62      -10.9780   -6.2960  -12.4160 H      25  A25         0.1438
    795   H2      -12.5150   -7.2720   -7.4730 H      25  A25         0.1048
    796    P.3    -12.4170  -15.6020   -7.6740 P.3    26  U26         0.2131
    797  OP1      -11.0250  -16.0220   -7.9540 O.2    26  U26        -0.5172
    798  OP2      -13.5310  -16.5540   -7.8790 O.3    26  U26        -0.4373
    799  O5'      -12.4840  -15.0640   -6.1580 O.3    26  U26        -0.3248
    800  C5'      -11.9260  -13.7930   -5.8160 C.3    26  U26         0.0837
    801  C4'      -10.4000  -13.8390   -5.8000 C.3    26  U26         0.1139
    802  O4'       -9.8470  -13.3520   -7.0170 O.3    26  U26        -0.3456
    803  C3'       -9.8170  -12.9500   -4.6940 C.3    26  U26         0.1241
    804  O3'       -9.2090  -13.8080   -3.7200 O.3    26  U26        -0.3187
    805  C2'       -8.7140  -12.1370   -5.3830 C.3    26  U26         0.1293
    806  O2'       -7.4980  -12.1620   -4.6330 O.3    26  U26        -0.3846
    807  C1'       -8.5550  -12.8380   -6.7250 C.3    26  U26         0.1680
    808   N.1      -8.0880  -11.9090   -7.7730 N.ar   26  U26        -0.2715
    809   C.2      -6.8260  -12.1240   -8.2940 C.ar   26  U26         0.3314
    810   O.2      -6.1080  -13.0430   -7.9080 O.2    26  U26        -0.2464
    811   N.3      -6.4150  -11.2420   -9.2760 N.ar   26  U26        -0.2749
    812   C4       -7.1450  -10.1770   -9.7760 C.ar   26  U26         0.2539
    813   O4       -6.6790   -9.4550  -10.6540 O.2    26  U26        -0.2677
    814   C5       -8.4510  -10.0270   -9.1750 C.ar   26  U26         0.0192
    815   C6       -8.8770  -10.8810   -8.2100 C.ar   26  U26         0.0171
    816  H5'      -12.2880  -13.5020   -4.8300 H      26  U26         0.0591
    817 H5''      -12.2520  -13.0530   -6.5480 H      26  U26         0.0591
    818  H4'      -10.0730  -14.8670   -5.6450 H      26  U26         0.0647
    819  H3'      -10.5740  -12.3050   -4.2490 H      26  U26         0.0655
    820  H2'       -9.0530  -11.1090   -5.5390 H      26  U26         0.0666
    821 HO2'       -7.7360  -12.1770   -3.7040 H      26  U26         0.2101
    822  H1'       -7.8490  -13.6600   -6.6240 H      26  U26         0.0867
    823   H3       -5.4960  -11.3900   -9.6680 H      26  U26         0.1734
    824   H5       -9.1020   -9.2140   -9.5020 H      26  U26         0.0686
    825   H6       -9.8640  -10.7460   -7.7720 H      26  U26         0.0813
    826    P.3     -8.7990  -13.2540   -2.2630 P.3    27  A27         0.2131
    827  OP1       -9.9080  -13.5440   -1.3270 O.3    27  A27        -0.4373
    828  OP2       -8.3040  -11.8680   -2.4160 O.2    27  A27        -0.5172
    829  O5'       -7.5480  -14.1950   -1.8760 O.3    27  A27        -0.3248
    830  C5'       -6.2680  -13.6240   -1.5810 C.3    27  A27         0.0837
    831  C4'       -5.2910  -13.8490   -2.7300 C.3    27  A27         0.1139
    832  O4'       -5.6680  -13.1060   -3.8810 O.3    27  A27        -0.3456
    833  C3'       -3.8770  -13.3840   -2.3810 C.3    27  A27         0.1241
    834  O3'       -3.0320  -14.5300   -2.3140 O.3    27  A27        -0.3187
    835  C2'       -3.4150  -12.5410   -3.5630 C.3    27  A27         0.1292
    836  O2'       -2.1370  -12.9770   -4.0250 O.3    27  A27        -0.3846
    837  C1'       -4.4910  -12.7710   -4.6090 C.3    27  A27         0.1667
    838   N9       -4.6990  -11.5660   -5.4280 N.ar   27  A27        -0.2855
    839   C8       -5.3540  -10.4190   -5.1260 C.ar   27  A27         0.1004
    840   N7       -5.3870   -9.4970   -6.0280 N.ar   27  A27        -0.2306
    841   C5       -4.6670  -10.0950   -7.0660 C.ar   27  A27         0.1473
    842   C6       -4.3150   -9.6590   -8.3470 C.ar   27  A27         0.1472
    843   N6       -4.6560   -8.4630   -8.8260 N.pl3  27  A27        -0.3413
    844   N.1      -3.5990  -10.5020   -9.1130 N.ar   27  A27        -0.2188
    845   C.2      -3.2500  -11.7050   -8.6490 C.ar   27  A27         0.1205
    846   N.3      -3.5300  -12.2170   -7.4550 N.ar   27  A27        -0.2159
    847   C4       -4.2460  -11.3540   -6.7080 C.ar   27  A27         0.1674
    848  H5'       -5.8700  -14.0850   -0.6780 H      27  A27         0.0591
    849 H5''       -6.3840  -12.5530   -1.4150 H      27  A27         0.0591
    850  H4'       -5.2710  -14.9080   -2.9830 H      27  A27         0.0647
    851  H3'       -3.8590  -12.8160   -1.4510 H      27  A27         0.0655
    852  H2'       -3.3860  -11.4860   -3.2810 H      27  A27         0.0666
    853 HO2'       -1.5660  -13.0550   -3.2570 H      27  A27         0.2101
    854  H1'       -4.2080  -13.6080   -5.2470 H      27  A27         0.0866
    855   H8       -5.8370  -10.2830   -4.1590 H      27  A27         0.1030
    856  H61       -4.3790   -8.1930   -9.7570 H      27  A27         0.1438
    857  H62       -5.1940   -7.8260   -8.2550 H      27  A27         0.1438
    858   H2       -2.6720  -12.3380   -9.3230 H      27  A27         0.1048
    859    P.3     -1.9370  -14.6890   -1.1520 P.3    28  A28         0.2131
    860  OP1       -2.2040  -15.9500   -0.4260 O.2    28  A28        -0.5172
    861  OP2       -1.8470  -13.4090   -0.4140 O.3    28  A28        -0.4373
    862  O5'       -0.5890  -14.8750   -2.0180 O.3    28  A28        -0.3248
    863  C5'       -0.5770  -15.7960   -3.1140 C.3    28  A28         0.0837
    864  C4'        0.1300  -15.2410   -4.3550 C.3    28  A28         0.1139
    865  O4'       -0.6690  -14.2640   -5.0260 O.3    28  A28        -0.3456
    866  C3'        1.4350  -14.5200   -3.9980 C.3    28  A28         0.1241
    867  O3'        2.5240  -15.2610   -4.5550 O.3    28  A28        -0.3187
    868  C2'        1.3570  -13.1850   -4.7510 C.3    28  A28         0.1292
    869  O2'        2.5840  -12.8820   -5.4220 O.3    28  A28        -0.3846
    870  C1'        0.2220  -13.4150   -5.7330 C.3    28  A28         0.1667
    871   N9       -0.4110  -12.1360   -6.1280 N.ar   28  A28        -0.2855
    872   C8       -1.1320  -11.2630   -5.3840 C.ar   28  A28         0.1004
    873   N7       -1.5690  -10.1980   -5.9650 N.ar   28  A28        -0.2306
    874   C5       -1.0850  -10.3670   -7.2640 C.ar   28  A28         0.1473
    875   C6       -1.1880   -9.5850   -8.4180 C.ar   28  A28         0.1472
    876   N6       -1.8430   -8.4250   -8.4550 N.pl3  28  A28        -0.3413
    877   N.1      -0.5930  -10.0450   -9.5320 N.ar   28  A28        -0.2188
    878   C.2       0.0670  -11.2040   -9.5150 C.ar   28  A28         0.1205
    879   N.3       0.2270  -12.0250   -8.4790 N.ar   28  A28        -0.2159
    880   C4       -0.3790  -11.5430   -7.3740 C.ar   28  A28         0.1674
    881  H5'       -1.6070  -16.0380   -3.3780 H      28  A28         0.0591
    882 H5''       -0.0700  -16.7080   -2.8000 H      28  A28         0.0591
    883  H4'        0.3450  -16.0580   -5.0420 H      28  A28         0.0647
    884  H3'        1.5430  -14.3770   -2.9230 H      28  A28         0.0655
    885  H2'        1.0810  -12.3850   -4.0590 H      28  A28         0.0666
    886 HO2'        2.8480  -12.0010   -5.1460 H      28  A28         0.2101
    887  H1'        0.5720  -13.9510   -6.6170 H      28  A28         0.0866
    888   H8       -1.3350  -11.4530   -4.3310 H      28  A28         0.1030
    889  H61       -1.8880   -7.8980   -9.3150 H      28  A28         0.1438
    890  H62       -2.2940   -8.0730   -7.6230 H      28  A28         0.1438
    891   H2        0.5270  -11.5110  -10.4550 H      28  A28         0.1048
    892    P.3      3.9770  -15.2140   -3.8630 P.3    29  A29         0.2131
    893  OP1        4.3050  -16.5740   -3.3810 O.2    29  A29        -0.5172
    894  OP2        4.0040  -14.0720   -2.9230 O.3    29  A29        -0.4373
    895  O5'        4.9470  -14.8720   -5.1000 O.3    29  A29        -0.3248
    896  C5'        5.2490  -13.5160   -5.4370 C.3    29  A29         0.0837
    897  C4'        5.6910  -13.3920   -6.8910 C.3    29  A29         0.1139
    898  O4'        4.5830  -13.0970   -7.7520 O.3    29  A29        -0.3456
    899  C3'        6.6590  -12.2370   -7.0800 C.3    29  A29         0.1241
    900  O3'        7.9940  -12.7120   -6.9090 O.3    29  A29        -0.3187
    901  C2'        6.4530  -11.8780   -8.5340 C.3    29  A29         0.1292
    902  O2'        7.1680  -12.7620   -9.4040 O.3    29  A29        -0.3846
    903  C1'        4.9480  -12.0500   -8.6700 C.3    29  A29         0.1667
    904   N9        4.2550  -10.7900   -8.3490 N.ar   29  A29        -0.2855
    905   C8        3.3100  -10.5260   -7.4130 C.ar   29  A29         0.1004
    906   N7        2.8780   -9.3110   -7.3280 N.ar   29  A29        -0.2306
    907   C5        3.6230   -8.6790   -8.3290 C.ar   29  A29         0.1473
    908   C6        3.6670   -7.3580   -8.7900 C.ar   29  A29         0.1472
    909   N6        2.9130   -6.3830   -8.2840 N.pl3  29  A29        -0.3413
    910   N.1       4.5180   -7.0820   -9.7950 N.ar   29  A29        -0.2188
    911   C.2       5.2810   -8.0450  -10.3160 C.ar   29  A29         0.1205
    912   N.3       5.3180   -9.3210   -9.9560 N.ar   29  A29        -0.2159
    913   C4        4.4600   -9.5730   -8.9520 C.ar   29  A29         0.1674
    914  H5'        6.0490  -13.1570   -4.7890 H      29  A29         0.0591
    915 H5''        4.3620  -12.9030   -5.2800 H      29  A29         0.0591
    916  H4'        6.1590  -14.3200   -7.2120 H      29  A29         0.0647
    917  H3'        6.4290  -11.4010   -6.4180 H      29  A29         0.0655
    918  H2'        6.7320  -10.8350   -8.7100 H      29  A29         0.0666
    919 HO2'        7.3210  -13.5770   -8.9190 H      29  A29         0.2101
    920  H1'        4.7050  -12.3530   -9.6880 H      29  A29         0.0866
    921   H8        2.9300  -11.3080   -6.7570 H      29  A29         0.1030
    922  H61        2.9840   -5.4460   -8.6560 H      29  A29         0.1438
    923  H62        2.2720   -6.5800   -7.5290 H      29  A29         0.1438
    924   H2        5.9390   -7.7630  -11.1370 H      29  A29         0.1048
    925    P.3      8.9190  -12.0810   -5.7540 P.3    30  A30         0.2131
    926  OP1       10.2910  -11.9300   -6.2870 O.2    30  A30        -0.5172
    927  OP2        8.6890  -12.8420   -4.5060 O.3    30  A30        -0.4373
    928  O5'        8.2790  -10.6140   -5.5780 O.3    30  A30        -0.3248
    929  C5'        9.0730   -9.5190   -5.1170 C.3    30  A30         0.0837
    930  C4'        9.5130   -8.6170   -6.2710 C.3    30  A30         0.1139
    931  O4'        8.4770   -8.4860   -7.2570 O.3    30  A30        -0.3456
    932  C3'        9.8220   -7.2030   -5.7810 C.3    30  A30         0.1241
    933  O3'       11.2420   -7.0680   -5.6930 O.3    30  A30        -0.3187
    934  C2'        9.3250   -6.3150   -6.9090 C.3    30  A30         0.1292
    935  O2'       10.3260   -6.1430   -7.9190 O.3    30  A30        -0.3846
    936  C1'        8.1360   -7.1060   -7.4320 C.3    30  A30         0.1667
    937   N9        6.9010   -6.7730   -6.6970 N.ar   30  A30        -0.2855
    938   C8        6.0670   -7.5820   -5.9980 C.ar   30  A30         0.1004
    939   N7        5.0420   -7.0360   -5.4340 N.ar   30  A30        -0.2306
    940   C5        5.2020   -5.6950   -5.7970 C.ar   30  A30         0.1473
    941   C6        4.4530   -4.5430   -5.5280 C.ar   30  A30         0.1472
    942   N6        3.3390   -4.5500   -4.7970 N.pl3  30  A30        -0.3413
    943   N.1       4.8970   -3.3830   -6.0410 N.ar   30  A30        -0.2188
    944   C.2       6.0090   -3.3500   -6.7750 C.ar   30  A30         0.1205
    945   N.3       6.7940   -4.3760   -7.0910 N.ar   30  A30        -0.2159
    946   C4        6.3300   -5.5280   -6.5660 C.ar   30  A30         0.1674
    947  H5'        9.9570   -9.9090   -4.6140 H      30  A30         0.0591
    948 H5''        8.4890   -8.9340   -4.4080 H      30  A30         0.0591
    949  H4'       10.4010   -9.0390   -6.7400 H      30  A30         0.0647
    950  H3'        9.3280   -6.9770   -4.8360 H      30  A30         0.0655
    951  H2'        8.9940   -5.3490   -6.5170 H      30  A30         0.0666
    952 HO2'       11.1730   -6.0750   -7.4730 H      30  A30         0.2101
    953  H1'        7.9970   -6.8910   -8.4900 H      30  A30         0.0866
    954   H8        6.2540   -8.6530   -5.9150 H      30  A30         0.1030
    955  H61        2.8410   -3.6880   -4.6350 H      30  A30         0.1438
    956  H62        2.9950   -5.4150   -4.4060 H      30  A30         0.1438
    957   H2        6.3070   -2.3750   -7.1590 H      30  A30         0.1048
    958    P.3     11.9750   -6.9930   -4.2610 P.3    31  A31         0.2131
    959  OP1       12.6780   -8.2750   -4.0320 O.2    31  A31        -0.5172
    960  OP2       11.0000   -6.4960   -3.2640 O.3    31  A31        -0.4373
    961  O5'       13.0760   -5.8470   -4.5040 O.3    31  A31        -0.3248
    962  C5'       12.6850   -4.4740   -4.5620 C.3    31  A31         0.0837
    963  C4'       12.9440   -3.8810   -5.9420 C.3    31  A31         0.1139
    964  O4'       11.8240   -4.0880   -6.8090 O.3    31  A31        -0.3456
    965  C3'       13.1340   -2.3760   -5.8630 C.3    31  A31         0.1241
    966  O3'       14.5330   -2.1010   -5.7730 O.3    31  A31        -0.3187
    967  C2'       12.6360   -1.8940   -7.2120 C.3    31  A31         0.1292
    968  O2'       13.6700   -1.9370   -8.2020 O.3    31  A31        -0.3846
    969  C1'       11.5200   -2.8810   -7.5250 C.3    31  A31         0.1667
    970   N9       10.2160   -2.3290   -7.1140 N.ar   31  A31        -0.2855
    971   C8        9.3990   -2.6940   -6.0950 C.ar   31  A31         0.1004
    972   N7        8.3120   -2.0170   -5.9300 N.ar   31  A31        -0.2306
    973   C5        8.4050   -1.0790   -6.9640 C.ar   31  A31         0.1473
    974   C6        7.5700   -0.0340   -7.3750 C.ar   31  A31         0.1472
    975   N6        6.4210    0.2640   -6.7690 N.pl3  31  A31        -0.3413
    976   N.1       7.9640    0.6940   -8.4350 N.ar   31  A31        -0.2188
    977   C.2       9.1110    0.4150   -9.0560 C.ar   31  A31         0.1205
    978   N.3       9.9760   -0.5480   -8.7520 N.ar   31  A31        -0.2159
    979   C4        9.5590   -1.2640   -7.6880 C.ar   31  A31         0.1674
    980  H5'       13.2520   -3.9100   -3.8210 H      31  A31         0.0591
    981 H5''       11.6220   -4.3960   -4.3340 H      31  A31         0.0591
    982  H4'       13.8290   -4.3400   -6.3780 H      31  A31         0.0647
    983  H3'       12.5720   -1.9350   -5.0380 H      31  A31         0.0655
    984  H2'       12.2230   -0.8890   -7.1200 H      31  A31         0.0666
    985 HO2'       14.1360   -2.7690   -8.0940 H      31  A31         0.2101
    986  H1'       11.5050   -3.0870   -8.5950 H      31  A31         0.0866
    987   H8        9.6500   -3.5280   -5.4390 H      31  A31         0.1030
    988  H61        5.8560    1.0300   -7.1070 H      31  A31         0.1438
    989  H62        6.1150   -0.2760   -5.9720 H      31  A31         0.1438
    990   H2        9.3670    1.0460   -9.9070 H      31  A31         0.1048
    991    P.3     15.0540   -0.7500   -5.0680 P.3    32  A32         0.2131
    992  OP1       16.4990   -0.9030   -4.7860 O.2    32  A32        -0.5172
    993  OP2       14.1200   -0.4100   -3.9720 O.3    32  A32        -0.4373
    994  O5'       14.8810    0.3430   -6.2370 O.3    32  A32        -0.3248
    995  C5'       14.5270    1.6930   -5.9230 C.3    32  A32         0.0837
    996  C4'       13.9290    2.4120   -7.1270 C.3    32  A32         0.1139
    997  O4'       12.8760    1.6380   -7.7170 O.3    32  A32        -0.3456
    998  C3'       13.3080    3.7410   -6.7090 C.3    32  A32         0.1241
    999  O3'       14.1870    4.7970   -7.1010 O.3    32  A32        -0.3187
   1000  C2'       12.0480    3.8440   -7.5500 C.3    32  A32         0.1292
   1001  O2'       12.3040    4.4850   -8.8050 O.3    32  A32        -0.3846
   1002  C1'       11.6570    2.3890   -7.7360 C.3    32  A32         0.1667
   1003   N9       10.7420    1.9510   -6.6700 N.ar   32  A32        -0.2855
   1004   C8       10.9430    1.0790   -5.6520 C.ar   32  A32         0.1004
   1005   N7        9.9480    0.8450   -4.8620 N.ar   32  A32        -0.2306
   1006   C5        8.9550    1.6600   -5.4160 C.ar   32  A32         0.1473
   1007   C6        7.6220    1.9020   -5.0690 C.ar   32  A32         0.1472
   1008   N6        7.0170    1.3190   -4.0350 N.pl3  32  A32        -0.3413
   1009   N.1       6.9340    2.7650   -5.8320 N.ar   32  A32        -0.2188
   1010   C.2       7.5110    3.3590   -6.8750 C.ar   32  A32         0.1205
   1011   N.3       8.7610    3.2050   -7.2930 N.ar   32  A32        -0.2159
   1012   C4        9.4330    2.3350   -6.5140 C.ar   32  A32         0.1674
   1013  H5'       15.4190    2.2280   -5.5950 H      32  A32         0.0591
   1014 H5''       13.7970    1.6890   -5.1130 H      32  A32         0.0591
   1015  H4'       14.7060    2.5890   -7.8700 H      32  A32         0.0647
   1016  H3'       13.0870    3.7680   -5.6420 H      32  A32         0.0655
   1017  H2'       11.2700    4.3730   -6.9940 H      32  A32         0.0666
   1018 HO2'       12.8910    3.9110   -9.3040 H      32  A32         0.2101
   1019  H1'       11.1670    2.2680   -8.7030 H      32  A32         0.0866
   1020   H8       11.9090    0.5940   -5.5050 H      32  A32         0.1030
   1021  H61        6.0500    1.5220   -3.8360 H      32  A32         0.1438
   1022  H62        7.5260    0.6690   -3.4530 H      32  A32         0.1438
   1023   H2        6.8890    4.0460   -7.4470 H      32  A32         0.1048
   1024    P.3     13.7920    6.3200   -6.7740 P.3    33  C33         0.2131
   1025  OP1       13.1920    6.9160   -7.9890 O.2    33  C33        -0.5172
   1026  OP2       14.9490    6.9740   -6.1230 O.3    33  C33        -0.4373
   1027  O5'       12.6300    6.1310   -5.6770 O.3    33  C33        -0.3248
   1028  C5'       11.8640    7.2470   -5.2230 C.3    33  C33         0.0837
   1029  C4'       10.6170    7.4600   -6.0780 C.3    33  C33         0.1139
   1030  O4'       10.0070    6.2110   -6.4340 O.3    33  C33        -0.3456
   1031  C3'        9.5660    8.2570   -5.3150 C.3    33  C33         0.1241
   1032  O3'        9.6090    9.6060   -5.7880 O.3    33  C33        -0.3187
   1033  C2'        8.2450    7.6400   -5.7460 C.3    33  C33         0.1293
   1034  O2'        7.7170    8.2930   -6.9060 O.3    33  C33        -0.3846
   1035  C1'        8.6270    6.1960   -6.0450 C.3    33  C33         0.1680
   1036   N.1       8.4210    5.3290   -4.8670 N.ar   33  C33        -0.2700
   1037   C.2       7.1300    5.2180   -4.3640 C.ar   33  C33         0.3522
   1038   O.2       6.2090    5.8570   -4.8740 O.2    33  C33        -0.2444
   1039   N.3       6.9200    4.3910   -3.3040 N.ar   33  C33        -0.1783
   1040   C4        7.9300    3.7010   -2.7570 C.ar   33  C33         0.1230
   1041   N.4       7.6870    2.9000   -1.7200 N.pl3  33  C33        -0.3430
   1042   C5        9.2610    3.8140   -3.2690 C.ar   33  C33        -0.0056
   1043   C6        9.4610    4.6350   -4.3180 C.ar   33  C33         0.0152
   1044  H5'       12.4820    8.1440   -5.2670 H      33  C33         0.0591
   1045 H5''       11.5650    7.0720   -4.1910 H      33  C33         0.0591
   1046  H4'       10.8880    7.9970   -6.9860 H      33  C33         0.0647
   1047  H3'        9.7090    8.1980   -4.2360 H      33  C33         0.0655
   1048  H2'        7.5290    7.6730   -4.9210 H      33  C33         0.0666
   1049 HO2'        8.4430    8.4110   -7.5220 H      33  C33         0.2101
   1050  H1'        8.0160    5.8210   -6.8680 H      33  C33         0.0867
   1051  H41        6.7490    2.8130   -1.3570 H      33  C33         0.1437
   1052  H42        8.4420    2.3780   -1.2970 H      33  C33         0.1437
   1053   H5       10.0890    3.2730   -2.8110 H      33  C33         0.0666
   1054   H6       10.4630    4.7470   -4.7320 H      33  C33         0.0812
   1055    P.3      9.4190   10.8370   -4.7690 P.3    34  U34         0.2131
   1056  OP1        9.7990   12.0820   -5.4730 O.2    34  U34        -0.5172
   1057  OP2       10.0690   10.4850   -3.4870 O.3    34  U34        -0.4373
   1058  O5'        7.8260   10.8490   -4.5420 O.3    34  U34        -0.3248
   1059  C5'        7.1970   11.9110   -3.8230 C.3    34  U34         0.0837
   1060  C4'        5.9080   11.4380   -3.1580 C.3    34  U34         0.1139
   1061  O4'        5.7500   10.0480   -3.3230 O.3    34  U34        -0.3456
   1062  C3'        5.9170   11.6680   -1.6520 C.3    34  U34         0.1241
   1063  O3'        5.1910   12.8660   -1.3770 O.3    34  U34        -0.3187
   1064  C2'        5.1040   10.5090   -1.0840 C.3    34  U34         0.1293
   1065  O2'        3.8310   10.9440   -0.6130 O.3    34  U34        -0.3846
   1066  C1'        4.9680    9.5400   -2.2500 C.3    34  U34         0.1680
   1067   N.1       5.4620    8.2330   -1.8500 N.ar   34  U34        -0.2715
   1068   C.2       4.6460    7.4760   -1.0430 C.ar   34  U34         0.3314
   1069   O.2       3.5100    7.8490   -0.7260 O.2    34  U34        -0.2464
   1070   N.3       5.1770    6.2770   -0.6120 N.ar   34  U34        -0.2749
   1071   C4        6.4320    5.7820   -0.9190 C.ar   34  U34         0.2539
   1072   O4        6.8070    4.7030   -0.4660 O.2    34  U34        -0.2677
   1073   C5        7.2130    6.6450   -1.7770 C.ar   34  U34         0.0192
   1074   C6        6.7140    7.8220   -2.2130 C.ar   34  U34         0.0171
   1075  H5'        6.9610   12.7090   -4.5160 H      34  U34         0.0591
   1076 H5''        7.8840   12.2880   -3.0660 H      34  U34         0.0591
   1077  H4'        5.0560   11.9440   -3.6000 H      34  U34         0.0647
   1078  H3'        6.9260   11.6900   -1.2410 H      34  U34         0.0655
   1079  H2'        5.6620   10.0260   -0.2780 H      34  U34         0.0666
   1080 HO2'        3.5850   11.7170   -1.1270 H      34  U34         0.2101
   1081  H1'        3.9310    9.4540   -2.5690 H      34  U34         0.0867
   1082   H3        4.5990    5.7120   -0.0180 H      34  U34         0.1734
   1083   H5        8.2300    6.3600   -2.0340 H      34  U34         0.0686
   1084   H6        7.3160    8.4520   -2.8780 H      34  U34         0.0813
   1085    P.3      5.8800   14.3110   -1.5180 P.3    35  A35         0.2131
   1086  OP1        5.8710   14.6920   -2.9480 O.2    35  A35        -0.5172
   1087  OP2        7.1520   14.2970   -0.7620 O.3    35  A35        -0.4373
   1088  O5'        4.8370   15.2550   -0.7360 O.3    35  A35        -0.3248
   1089  C5'        4.9760   15.4770    0.6680 C.3    35  A35         0.0837
   1090  C4'        3.8330   14.8490    1.4660 C.3    35  A35         0.1139
   1091  O4'        3.5380   13.5150    1.0150 O.3    35  A35        -0.3456
   1092  C3'        4.2100   14.7330    2.9350 C.3    35  A35         0.1241
   1093  O3'        3.6160   15.8290    3.6360 O.3    35  A35        -0.3187
   1094  C2'        3.5270   13.4580    3.3880 C.3    35  A35         0.1292
   1095  O2'        2.1960   13.7140    3.8510 O.3    35  A35        -0.3846
   1096  C1'        3.5240   12.6030    2.1270 C.3    35  A35         0.1667
   1097   N9        4.6980   11.7140    2.1080 N.ar   35  A35        -0.2855
   1098   C8        5.8280   11.7920    1.3670 C.ar   35  A35         0.1004
   1099   N7        6.7270   10.8830    1.5520 N.ar   35  A35        -0.2306
   1100   C5        6.1310   10.0940    2.5410 C.ar   35  A35         0.1473
   1101   C6        6.5480    8.9400    3.2130 C.ar   35  A35         0.1472
   1102   N6        7.7200    8.3450    2.9820 N.pl3  35  A35        -0.3413
   1103   N.1       5.7130    8.4210    4.1310 N.ar   35  A35        -0.2188
   1104   C.2       4.5350    9.0010    4.3760 C.ar   35  A35         0.1205
   1105   N.3       4.0410   10.0930    3.7990 N.ar   35  A35        -0.2159
   1106   C4        4.8960   10.5930    2.8840 C.ar   35  A35         0.1674
   1107  H5'        4.9880   16.5510    0.8560 H      35  A35         0.0591
   1108 H5''        5.9210   15.0490    1.0040 H      35  A35         0.0591
   1109  H4'        2.9410   15.4680    1.3700 H      35  A35         0.0647
   1110  H3'        5.2900   14.6900    3.0790 H      35  A35         0.0655
   1111  H2'        4.1210   12.9710    4.1660 H      35  A35         0.0666
   1112 HO2'        1.6260   13.0430    3.4690 H      35  A35         0.2101
   1113  H1'        2.6090   12.0040    2.1210 H      35  A35         0.0866
   1114   H8        5.9690   12.5850    0.6350 H      35  A35         0.1030
   1115  H61        7.9750    7.5130    3.4940 H      35  A35         0.1438
   1116  H62        8.3530    8.7280    2.2940 H      35  A35         0.1438
   1117   H2        3.9110    8.5320    5.1370 H      35  A35         0.1048
   1118    P.3      4.5160   16.7970    4.5550 P.3    36  A36         0.2131
   1119  OP1        3.6670   17.3180    5.6490 O.3    36  A36        -0.4373
   1120  OP2        5.2360   17.7380    3.6680 O.2    36  A36        -0.5172
   1121  O5'        5.5900   15.7800    5.1910 O.3    36  A36        -0.3248
   1122  C5'        5.7010   15.6330    6.6090 C.3    36  A36         0.0836
   1123  C4'        4.6680   14.6510    7.1550 C.3    36  A36         0.1133
   1124  O4'        4.8320   13.3540    6.5800 O.3    36  A36        -0.3456
   1125  C3'        4.8320   14.4620    8.6540 C.3    36  A36         0.1135
   1126  O3'        3.5960   14.0940    9.2760 O.3    36  A36        -0.3864
   1127  C2'        5.8470   13.3360    8.7270 C.3    36  A36         0.1285
   1128  O2'        5.7080   12.5840    9.9390 O.3    36  A36        -0.3847
   1129  C1'        5.5040   12.4890    7.5050 C.3    36  A36         0.1667
   1130   N9        6.7200   11.9180    6.9030 N.ar   36  A36        -0.2855
   1131   C8        7.6320   12.4900    6.0810 C.ar   36  A36         0.1004
   1132   N7        8.6230   11.7600    5.6910 N.ar   36  A36        -0.2306
   1133   C5        8.3450   10.5460    6.3290 C.ar   36  A36         0.1473
   1134   C6        9.0030    9.3130    6.3490 C.ar   36  A36         0.1472
   1135   N6       10.1330    9.0810    5.6810 N.pl3  36  A36        -0.3413
   1136   N.1       8.4530    8.3290    7.0830 N.ar   36  A36        -0.2188
   1137   C.2       7.3210    8.5440    7.7580 C.ar   36  A36         0.1205
   1138   N.3       6.6180    9.6690    7.8080 N.ar   36  A36        -0.2159
   1139   C4        7.1880   10.6370    7.0670 C.ar   36  A36         0.1674
   1140  H5'        5.5530   16.6040    7.0810 H      36  A36         0.0591
   1141 H5''        6.7000   15.2690    6.8520 H      36  A36         0.0591
   1142  H4'        3.6650   15.0170    6.9400 H      36  A36         0.0647
   1143  H3'        5.2430   15.3690    9.1050 H      36  A36         0.0647
   1144 HO3'        3.6630   13.1670    9.5180 H      36  A36         0.2100
   1145  H2'        6.8600   13.7370    8.6320 H      36  A36         0.0665
   1146 HO2'        6.2350   13.0250   10.6100 H      36  A36         0.2101
   1147  H1'        4.8340   11.6790    7.8000 H      36  A36         0.0866
   1148   H8        7.5330   13.5270    5.7600 H      36  A36         0.1030
   1149  H61       10.5710    8.1730    5.7280 H      36  A36         0.1438
   1150  H62       10.5520    9.8160    5.1280 H      36  A36         0.1438
   1151   H2        6.9300    7.7050    8.3300 H      36  A36         0.1048
@<TRIPOS>BOND
     1    31    18    1
     2    30    18    1
     3    50    49    2
     4    18    17    1
     5    64    51    1
     6    49    51   ar
     7    49    48   ar
     8    51    52   ar
     9    35    33    2
    10    34    33    1
    11    65    53    1
    12    48    47   ar
    13    48    55   ar
    14    47    46   ar
    15    52    53    1
    16    52    54   ar
    17    53    66    1
    18    17    19   ar
    19    17    16   ar
    20    33     6    1
    21    33    36    1
    22    26     8    1
    23    29    16    1
    24    19    20   ar
    25     8     7    1
    26    55    54   ar
    27    55    45   ar
    28     6     5    1
    29    57    37    1
    30    46    63    1
    31    46    45   ar
    32    16    14   ar
    33    45    44    1
    34    27     9    1
    35    36    37    1
    36    39    44    1
    37    39    38    1
    38    37    56    1
    39    37    38    1
    40     7     5    1
    41     7     9    1
    42     7    25    1
    43    20    10   ar
    44    20    13   ar
    45     5    24    1
    46     5     3    1
    47    44    62    1
    48    44    42    1
    49     9    10    1
    50     9     4    1
    51    14    13   ar
    52    14    15    2
    53    38    58    1
    54    38    40    1
    55    10    11   ar
    56    23     3    1
    57    13    12   ar
    58     3     4    1
    59     3     2    1
    60    59    40    1
    61    40    42    1
    62    40    41    1
    63    42    60    1
    64    42    43    1
    65    11    12   ar
    66    11    28    1
    67    22     2    1
    68     2    21    1
    69     2     1    1
    70    43    61    1
    71    41    67    1
    72     1    32    1
    73   704   702    2
    74   750   749    2
    75    98    84    1
    76   761   751    1
    77   703   702    1
    78   735   733    2
    79    89    71    1
    80    68    67    2
    81   757   742    1
    82    81    80   ar
    83    81    82   ar
    84    84    97    1
    85    84    83    1
    86    96    80    1
    87   749   751   ar
    88   749   748   ar
    89   751   752   ar
    90   673   672    2
    91    67    69    1
    92    67    70    1
    93    80    79   ar
    94   702   680    1
    95   702   705    1
    96    82    83   ar
    97    82    88   ar
    98    83    85   ar
    99    73    78    1
   100    73    72    1
   101   743   742    1
   102   743   758    1
   103   693   676    1
   104   762   752    1
   105   752   745   ar
   106   748   760    1
   107   748   746   ar
   108   756   740    1
   109   742   740    1
   110   742   744    1
   111    71    90    1
   112    71    70    1
   113    71    72    1
   114    79    88   ar
   115    79    78    1
   116   674   672    1
   117    88    87   ar
   118    85    86   ar
   119    95    78    1
   120   642   641    2
   121   733   734    1
   122   733   736    1
   123   733   710    1
   124   672   675    1
   125   672   649    1
   126   731   720    1
   127   730   719    1
   128   745   746   ar
   129   745   744    1
   130   746   747    2
   131    78    76    1
   132   680   679    1
   133   705   706    1
   134   725   709    1
   135   740   741    1
   136   740   738    1
   137    72    91    1
   138    72    74    1
   139    86    87   ar
   140    86    99    1
   141   741   763    1
   142   695   679    1
   143   676   675    1
   144   676   692    1
   145   676   677    1
   146   723   706    1
   147   736   737    1
   148   744   759    1
   149   744   739    1
   150   719   729    1
   151   719   718    1
   152   720   718   ar
   153   720   721   ar
   154   710   709    1
   155   765   763    2
   156   679   677    1
   157   679   681    1
   158   732   721    1
   159   643   641    1
   160   709   707    1
   161   709   711    1
   162   662   645    1
   163   706   722    1
   164   706   707    1
   165   641   644    1
   166   641   618    1
   167   718   717   ar
   168   764   763    1
   169   763   766    1
   170   611   610    2
   171   721   714   ar
   172   649   648    1
   173   726   711    1
   174   677   694    1
   175   677   678    1
   176    76    74    1
   177    76    93    1
   178    76    77    1
   179   738   737    1
   180   738   739    1
   181   738   755    1
   182    74    92    1
   183    74    75    1
   184   700   690    1
   185   737   754    1
   186   737   753    1
   187   117   116    2
   188   701   691    1
   189   644   645    1
   190   707   724    1
   191   707   708    1
   192   631   614    1
   193   664   648    1
   194   711   713    1
   195   711   712    1
   196   717   715   ar
   197   645   661    1
   198   645   646    1
   199   696   681    1
   200    77    94    1
   201   714   715   ar
   202   714   713    1
   203   618   617    1
   204   794   780    1
   205   681   682    1
   206   681   683    1
   207   690   691   ar
   208   690   688   ar
   209   116   118   ar
   210   116   115   ar
   211   792   776    1
   212   648   646    1
   213   648   650    1
   214   131   118    1
   215   691   684   ar
   216   612   610    1
   217   114   115   ar
   218   114   113   ar
   219   610   613    1
   220   610   587    1
   221   118   119   ar
   222   115   122   ar
   223   715   716    2
   224   697   682    1
   225   777   776   ar
   226   777   778   ar
   227    75   100    1
   228   678   683    1
   229   766   767    1
   230   708   713    1
   231   713   728    1
   232   113   130    1
   233   113   112   ar
   234   689   688    2
   235   663   646    1
   236   646   647    1
   237   688   687   ar
   238   580   579    2
   239   712   727    1
   240   776   775   ar
   241   633   617    1
   242   132   120    1
   243   129   111    1
   244   119   120    1
   245   119   121   ar
   246   122   112   ar
   247   122   121   ar
   248   614   630    1
   249   614   613    1
   250   614   615    1
   251   684   683    1
   252   684   685   ar
   253   780   793    1
   254   780   779    1
   255   683   698    1
   256   120   133    1
   257   112   111    1
   258   789   772    1
   259   617   615    1
   260   617   619    1
   261   106   111    1
   262   106   105    1
   263   665   650    1
   264   587   586    1
   265   924   911    1
   266   786   767    1
   267   650   651    1
   268   650   652    1
   269   687   685   ar
   270   687   699    1
   271   111   109    1
   272   651   666    1
   273   671   660    1
   274   685   686    2
   275   778   779   ar
   276   778   784   ar
   277   164   151    1
   278   767   785    1
   279   767   768    1
   280   632   615    1
   281   615   616    1
   282   600   583    1
   283   813   812    2
   284   779   781   ar
   285   788   770    1
   286   670   659    1
   287   165   151    1
   288   151   150    1
   289   123   104    1
   290   891   878    1
   291   100   102    2
   292   100   103    1
   293   100   101    1
   294   579   582    1
   295   579   581    1
   296   579   554    1
   297   582   583    1
   298   647   652    1
   299   775   784   ar
   300   775   774    1
   301   772   773    1
   302   772   770    1
   303   772   774    1
   304   911   912   ar
   305   911   910   ar
   306   660   659   ar
   307   660   653   ar
   308   103   104    1
   309   128   110    1
   310   634   619    1
   311   635   620    1
   312   620   619    1
   313   619   621    1
   314   659   657   ar
   315   125   105    1
   316   773   790    1
   317   105   104    1
   318   105   107    1
   319   912   913   ar
   320   652   653    1
   321   652   667    1
   322   150   152   ar
   323   150   149   ar
   324   602   586    1
   325   152   153   ar
   326   586   584    1
   327   586   588    1
   328   990   977    1
   329   583   584    1
   330   583   599    1
   331   784   783   ar
   332   104   124    1
   333   770   768    1
   334   770   771    1
   335   910   908   ar
   336   812   811   ar
   337   812   814   ar
   338   856   843    1
   339   920   903    1
   340   653   654   ar
   341   823   811    1
   342   601   584    1
   343   774   769    1
   344   774   791    1
   345   768   769    1
   346   768   787    1
   347   547   546    2
   348   109   110    1
   349   109   127    1
   350   109   107    1
   351   877   878   ar
   352   877   875   ar
   353   878   879   ar
   354   824   814    1
   355   616   621    1
   356   166   153    1
   357   153   154   ar
   358   902   919    1
   359   902   901    1
   360   149   148   ar
   361   149   155   ar
   362   584   585    1
   363   781   782   ar
   364   858   845    1
   365   889   876    1
   366  1018  1001    1
   367   554   553    1
   368   811   809   ar
   369   541   526    1
   370   148   147   ar
   371   669   658    1
   372   814   815   ar
   373   589   588    1
   374   589   604    1
   375   640   629    1
   376   844   845   ar
   377   844   842   ar
   378   657   658    1
   379   657   656   ar
   380   977   978   ar
   381   977   976   ar
   382   470   469    2
   383   621   622    1
   384   621   636    1
   385   913   904   ar
   386   913   907   ar
   387   107   126    1
   388   107   108    1
   389   603   588    1
   390   588   590    1
   391   155   154   ar
   392   155   146   ar
   393   843   842    1
   394   843   857    1
   395  1001  1000    1
   396   658   668    1
   397   908   907   ar
   398   908   909    1
   399   654   656   ar
   400   654   655    2
   401   978   979   ar
   402   549   546    1
   403   549   550    1
   404   918   901    1
   405  1019  1002    1
   406   903   901    1
   407   903   904    1
   408   903   898    1
   409   147   146   ar
   410   147   163    1
   411   922   909    1
   412   845   846   ar
   413   526   525    1
   414   783   782   ar
   415   986   969    1
   416   901   899    1
   417   771   796    1
   418   629   622   ar
   419   629   628   ar
   420   953   936    1
   421   879   880   ar
   422   876   875    1
   423   876   890    1
   424   782   795    1
   425   976   974   ar
   426   875   874   ar
   427   146   145    1
   428   546   524    1
   429   546   548    1
   430   904   905   ar
   431   842   841   ar
   432   622   623   ar
   433   907   906   ar
   434   809   810    2
   435   809   808   ar
   436   909   923    1
   437   480   468    1
   438   469   468   ar
   439   469   471   ar
   440   815   808   ar
   441   815   825    1
   442   162   145    1
   443   968   985    1
   444   968   967    1
   445   524   523    1
   446   639   628    1
   447   570   551    1
   448  1025  1024    2
   449   140   145    1
   450   140   139    1
   451   568   550    1
   452   628   626   ar
   453   797   796    2
   454   585   590    1
   455   609   598    1
   456   553   571    1
   457   553   551    1
   458   553   555    1
   459   935   952    1
   460   935   934    1
   461   798   796    1
   462  1015   996    1
   463   468   466   ar
   464   481   471    1
   465   145   143    1
   466   808   807    1
   467   898   897    1
   468   108   134    1
   469  1002   997    1
   470  1002  1000    1
   471  1002  1003    1
   472   997   996    1
   473   550   551    1
   474   550   569    1
   475   979   970   ar
   476   979   973   ar
   477   796   799    1
   478   590   591    1
   479   590   605    1
   480   156   138    1
   481   623   624    2
   482   623   625   ar
   483   471   472   ar
   484  1000  1017    1
   485  1000   998    1
   486   969   967    1
   487   969   970    1
   488   969   964    1
   489  1049  1034    1
   490   556   573    1
   491   556   555    1
   492   551   552    1
   493   846   847   ar
   494  1023  1010    1
   495   936   931    1
   496   936   934    1
   497   936   937    1
   498   905   906   ar
   499   905   921    1
   500   974   973   ar
   501   974   975    1
   502   880   874   ar
   503   880   871   ar
   504   525   540    1
   505   525   523    1
   506   525   527    1
   507   198   185    1
   508  1011  1010   ar
   509  1011  1012   ar
   510   598   591   ar
   511   598   597   ar
   512   874   873   ar
   513   931   930    1
   514   916   897    1
   515   967   984    1
   516   967   965    1
   517   626   625   ar
   518   626   627    1
   519   957   944    1
   520   199   187    1
   521   996   998    1
   522   996   995    1
   523   970   971   ar
   524   988   975    1
   525   999  1024    1
   526   999   998    1
   527   184   183    2
   528   945   944   ar
   529   945   946   ar
   530   899   900    1
   531   899   897    1
   532   899   917    1
   533   841   847   ar
   534   841   840   ar
   535   591   592   ar
   536   802   807    1
   537   802   801    1
   538   555   572    1
   539   555   557    1
   540  1046  1029    1
   541   523   539    1
   542   523   521    1
   543   973   972   ar
   544   466   467    2
   545   466   465   ar
   546   934   951    1
   547   934   932    1
   548   900   925    1
   549  1034  1033    1
   550   897   896    1
   551  1010  1009   ar
   552  1050  1035    1
   553   608   597    1
   554   538   521    1
   555   964   963    1
   556   185   183   ar
   557   185   186   ar
   558   944   943   ar
   559  1024  1026    1
   560  1024  1027    1
   561   975   989    1
   562   949   930    1
   563   807   822    1
   564   807   805    1
   565   998  1016    1
   566   847   838   ar
   567   638   627    1
   568   937   946   ar
   569   937   938   ar
   570   472   465   ar
   571   472   482    1
   572   597   595   ar
   573   139   138    1
   574   139   158    1
   575   139   141    1
   576  1003  1012   ar
   577  1003  1004   ar
   578   138   137    1
   579   138   157    1
   580   887   870    1
   581   183   182   ar
   582   542   527    1
   583   187   186    1
   584   187   200    1
   585   627   637    1
   586   946   940   ar
   587   817   800    1
   588   137   134    1
   589  1012  1006   ar
   590  1030  1029    1
   591  1030  1035    1
   592   982   963    1
   593   161   144    1
   594   465   464    1
   595   233   221    1
   596   134   136    2
   597   134   135    1
   598   186   188   ar
   599   926   925    2
   600   143   160    1
   601   143   144    1
   602   143   141    1
   603   930   932    1
   604   930   929    1
   605   994   995    1
   606   994   991    1
   607   527   522    1
   608   527   528    1
   609   521   522    1
   610   521   520    1
   611   592   593    2
   612   592   594   ar
   613   799   800    1
   614   871   870    1
   615   871   872   ar
   616   552   557    1
   617   971   972   ar
   618   971   987    1
   619  1029  1031    1
   620  1029  1028    1
   621  1035  1033    1
   622  1035  1036    1
   623   943   941   ar
   624   840   839   ar
   625   938   954    1
   626   938   939   ar
   627   873   872   ar
   628   963   965    1
   629   963   962    1
   630   995  1013    1
   631   995  1014    1
   632   479   464    1
   633   965   966    1
   634   965   983    1
   635   221   234    1
   636   221   220    1
   637   182   181   ar
   638   182   189   ar
   639  1009  1007   ar
   640   800   801    1
   641   800   816    1
   642   232   219    1
   643   595   594   ar
   644   595   596    1
   645   801   818    1
   646   801   803    1
   647   940   941   ar
   648   940   939   ar
   649  1032  1031    1
   650  1032  1055    1
   651   932   933    1
   652   932   950    1
   653   966   991    1
   654   925   928    1
   655   925   927    1
   656  1033  1031    1
   657  1033  1048    1
   658   870   865    1
   659   870   868    1
   660   557   574    1
   661   557   558    1
   662   141   159    1
   663   141   142    1
   664   545   535    1
   665   933   958    1
   666  1027  1028    1
   667  1004  1020    1
   668  1004  1005   ar
   669   188   189   ar
   670   928   929    1
   671   820   805    1
   672   941   942    1
   673  1056  1055    2
   674   896   915    1
   675   896   895    1
   676   896   914    1
   677   181   180   ar
   678   838   839   ar
   679   838   837    1
   680   869   886    1
   681   869   868    1
   682  1006  1007   ar
   683  1006  1005   ar
   684   464   459    1
   685   464   462    1
   686   189   179   ar
   687   872   888    1
   688   805   803    1
   689   805   806    1
   690   607   596    1
   691  1031  1047    1
   692   219   220   ar
   693   219   217   ar
   694  1044  1028    1
   695   854   837    1
   696  1028  1045    1
   697   220   222   ar
   698   596   606    1
   699   839   855    1
   700   929   947    1
   701   929   948    1
   702   895   892    1
   703   474   457    1
   704  1007  1008    1
   705   991   992    2
   706   991   993    1
   707   536   520    1
   708   883   864    1
   709   865   864    1
   710   459   458    1
   711   528   535   ar
   712   528   529   ar
   713   520   519    1
   714   520   537    1
   715   558   567   ar
   716   558   559   ar
   717  1038  1037    2
   718  1036  1037   ar
   719  1036  1043   ar
   720   535   534   ar
   721   566   567   ar
   722   566   565   ar
   723   218   217    2
   724   942   955    1
   725   942   956    1
   726   180   179   ar
   727   180   197    1
   728  1055  1058    1
   729  1055  1057    1
   730   868   885    1
   731   868   866    1
   732  1054  1043    1
   733   262   250    1
   734   217   216   ar
   735   803   819    1
   736   803   804    1
   737   179   178    1
   738   473   457    1
   739   806   821    1
   740   837   832    1
   741   837   835    1
   742   962   961    1
   743   962   981    1
   744   962   980    1
   745   867   866    1
   746   867   892    1
   747   222   223   ar
   748  1058  1059    1
   749   567   561   ar
   750  1075  1059    1
   751   578   565    1
   752   519   516    1
   753   961   958    1
   754   575   559    1
   755   249   248    2
   756   196   178    1
   757   455   453    2
   758   142   167    1
   759   478   463    1
   760  1037  1039   ar
   761   864   866    1
   762   864   863    1
   763   559   560   ar
   764  1043  1042   ar
   765   565   564   ar
   766   457   458    1
   767   457   456    1
   768   477   462    1
   769   958   959    2
   770   958   960    1
   771   462   463    1
   772   462   460    1
   773  1008  1021    1
   774  1008  1022    1
   775   836   835    1
   776   836   853    1
   777   866   884    1
   778   216   223   ar
   779   216   215   ar
   780   178   173    1
   781   178   176    1
   782   223   213   ar
   783   530   529    2
   784   421   409    1
   785   173   172    1
   786   510   493    1
   787   832   831    1
   788   250   248   ar
   789   250   251   ar
   790   529   531   ar
   791   458   475    1
   792   458   460    1
   793   892   893    2
   794   892   894    1
   795  1059  1060    1
   796  1059  1076    1
   797   443   427    1
   798   561   560   ar
   799   561   562   ar
   800   230   212    1
   801   804   826    1
   802   422   409    1
   803   248   247   ar
   804   534   544    1
   805   534   532   ar
   806   446   430    1
   807  1077  1060    1
   808   564   562   ar
   809   835   852    1
   810   835   833    1
   811   425   423    2
   812   426   427    1
   813   426   423    1
   814   409   408    1
   815   169   167    2
   816   881   863    1
   817   493   492    1
   818  1061  1060    1
   819  1061  1066    1
   820  1039  1040   ar
   821   252   251    2
   822   562   563    1
   823  1042  1053    1
   824  1042  1040   ar
   825   215   214   ar
   826   213   212    1
   827   213   214   ar
   828   261   246    1
   829   456   453    1
   830  1060  1062    1
   831   190   171    1
   832   460   476    1
   833   460   461    1
   834   863   882    1
   835   863   862    1
   836   453   454    1
   837   453   431    1
   838   167   170    1
   839   167   168    1
   840   251   253   ar
   841   516   517    2
   842   516   518    1
   843   516   491    1
   844   850   831    1
   845   427   444    1
   846   427   428    1
   847  1086  1085    2
   848   170   171    1
   849   212   207    1
   850   212   210    1
   851   509   492    1
   852  1084  1074    1
   853   508   490    1
   854   214   231    1
   855  1040  1041    1
   856   423   424    1
   857   423   397    1
   858   831   833    1
   859   831   830    1
   860   531   532   ar
   861   531   543    1
   862   420   407    1
   863   430   428    1
   864   430   431    1
   865   430   432    1
   866  1081  1066    1
   867   247   246    1
   868   247   254   ar
   869   172   171    1
   870   172   192    1
   871   172   174    1
   872   176   194    1
   873   176   177    1
   874   176   174    1
   875   563   577    1
   876   563   576    1
   877   207   206    1
   878   532   533    2
   879   171   191    1
   880   492   490    1
   881   492   494    1
   882   408   407   ar
   883   408   410   ar
   884   828   826    2
   885   833   834    1
   886   833   851    1
   887   246   241    1
   888   246   244    1
   889   834   859    1
   890   445   428    1
   891   826   829    1
   892   826   827    1
   893  1066  1067    1
   894  1066  1064    1
   895  1074  1067   ar
   896  1074  1073   ar
   897   447   432    1
   898   491   490    1
   899   428   429    1
   900   490   488    1
   901   407   405   ar
   902   461   483    1
   903  1083  1073    1
   904   862   859    1
   905   177   195    1
   906   193   174    1
   907   416   398    1
   908   241   240    1
   909   211   210    1
   910   211   229    1
   911   253   254   ar
   912   253   263    1
   913   829   830    1
   914   174   175    1
   915  1067  1068   ar
   916   410   411   ar
   917  1073  1071   ar
   918   432   433    1
   919   432   434    1
   920   399   398    1
   921   399   417    1
   922   210   228    1
   923   210   208    1
   924  1041  1051    1
   925  1041  1052    1
   926   515   502    1
   927   254   264    1
   928  1062  1063    1
   929  1062  1078    1
   930  1062  1064    1
   931   506   487    1
   932   433   448    1
   933   830   849    1
   934   830   848    1
   935  1085  1063    1
   936  1085  1087    1
   937  1085  1088    1
   938   502   503   ar
   939   502   501   ar
   940   503   504   ar
   941   397   396    1
   942   245   244    1
   943   245   260    1
   944   226   206    1
   945   279   278    2
   946   398   396    1
   947   398   400    1
   948   501   499   ar
   949   206   208    1
   950   206   205    1
   951   405   406    2
   952   405   404   ar
   953   859   860    2
   954   859   861    1
   955   244   259    1
   956   244   242    1
   957  1080  1065    1
   958   504   495   ar
   959   504   498   ar
   960   494   495    1
   961   494   511    1
   962   494   489    1
   963  1064  1065    1
   964  1064  1079    1
   965  1068  1069    2
   966  1068  1070   ar
   967   495   496   ar
   968   415   396    1
   969   291   276    1
   970  1071  1070   ar
   971  1071  1072    2
   972   499   498   ar
   973   499   500    1
   974   292   280    1
   975   498   497   ar
   976   411   404   ar
   977   411   401   ar
   978   257   240    1
   979   224   205    1
   980   429   434    1
   981   396   394    1
   982  1088  1089    1
   983   488   487    1
   984   488   507    1
   985   488   489    1
   986   452   442    1
   987   513   500    1
   988   240   242    1
   989   240   239    1
   990   496   497   ar
   991   496   512    1
   992   500   514    1
   993   487   505    1
   994   487   486    1
   995  1070  1082    1
   996   255   239    1
   997   208   227    1
   998   208   209    1
   999   485   483    2
  1000   278   280   ar
  1001   278   277   ar
  1002   483   486    1
  1003   483   484    1
  1004   175   201    1
  1005   404   403   ar
  1006   434   449    1
  1007   434   435    1
  1008   205   204    1
  1009   205   225    1
  1010   280   281   ar
  1011   204   201    1
  1012   290   275    1
  1013   237   235    2
  1014   401   400    1
  1015   401   402   ar
  1016   242   258    1
  1017   242   243    1
  1018   400   418    1
  1019   400   395    1
  1020   323   312    1
  1021   276   277    1
  1022   276   271    1
  1023   276   274    1
  1024   239   256    1
  1025   239   238    1
  1026   442   435   ar
  1027   442   441   ar
  1028   277   284   ar
  1029   209   235    1
  1030   271   270    1
  1031   435   436   ar
  1032   275   274    1
  1033   281   282    2
  1034   281   283   ar
  1035   201   203    2
  1036   201   202    1
  1037   403   402   ar
  1038  1114  1098    1
  1039   451   441    1
  1040  1089  1107    1
  1041  1089  1108    1
  1042  1089  1090    1
  1043   394   414    1
  1044   394   395    1
  1045   394   393    1
  1046   322   312    1
  1047   402   419    1
  1048   412   393    1
  1049   312   311    1
  1050   441   439   ar
  1051   386   373    1
  1052   235   238    1
  1053   235   236    1
  1054   243   265    1
  1055  1091  1090    1
  1056  1091  1096    1
  1057   274   289    1
  1058   274   272    1
  1059   284   283   ar
  1060   284   294    1
  1061   324   313    1
  1062   283   293    1
  1063   287   270    1
  1064  1098  1099   ar
  1065  1098  1097   ar
  1066  1109  1090    1
  1067   436   437    2
  1068   436   438   ar
  1069   388   375    1
  1070  1090  1092    1
  1071   374   375   ar
  1072   374   372   ar
  1073   393   413    1
  1074   393   392    1
  1075   270   272    1
  1076   270   269    1
  1077  1099  1100   ar
  1078   373   387    1
  1079   373   372    1
  1080   311   313   ar
  1081   311   310   ar
  1082   375   376   ar
  1083   313   314   ar
  1084   439   438   ar
  1085   439   440    2
  1086   372   371   ar
  1087  1097  1096    1
  1088  1097  1106   ar
  1089  1113  1096    1
  1090  1096  1094    1
  1091   286   269    1
  1092   438   450    1
  1093   272   273    1
  1094   272   288    1
  1095   392   389    1
  1096  1116  1102    1
  1097   269   268    1
  1098   269   285    1
  1099   268   265    1
  1100   265   267    2
  1101   265   266    1
  1102  1100  1106   ar
  1103  1100  1101   ar
  1104   273   295    1
  1105   376   377   ar
  1106   310   308   ar
  1107  1106  1105   ar
  1108  1092  1110    1
  1109  1092  1094    1
  1110  1092  1093    1
  1111   314   325    1
  1112   314   307   ar
  1113  1102  1101    1
  1114  1102  1115    1
  1115   371   377   ar
  1116   371   370   ar
  1117   382   365    1
  1118  1101  1103   ar
  1119   377   368   ar
  1120  1094  1095    1
  1121  1094  1111    1
  1122  1112  1095    1
  1123   343   342    2
  1124  1093  1118    1
  1125  1120  1118    2
  1126   319   304    1
  1127   370   369   ar
  1128  1105  1104   ar
  1129   389   391    2
  1130   389   390    1
  1131   389   364    1
  1132   308   307   ar
  1133   308   309    2
  1134   307   306    1
  1135   365   366    1
  1136   365   363    1
  1137   365   367    1
  1138  1103  1104   ar
  1139   366   383    1
  1140   368   369   ar
  1141   368   367    1
  1142   381   363    1
  1143   353   341    1
  1144   295   296    2
  1145   295   298    1
  1146   295   297    1
  1147  1104  1117    1
  1148   342   341   ar
  1149   342   344   ar
  1150   369   385    1
  1151  1118  1121    1
  1152  1118  1119    1
  1153   364   363    1
  1154   363   361    1
  1155   304   306    1
  1156   304   305    1
  1157   304   302    1
  1158   298   299    1
  1159   328   326    2
  1160   341   339   ar
  1161   318   302    1
  1162   367   384    1
  1163   367   362    1
  1164   354   344    1
  1165  1150  1135    1
  1166   306   301    1
  1167   306   321    1
  1168  1121  1122    1
  1169   305   320    1
  1170   344   345   ar
  1171   302   300    1
  1172   302   303    1
  1173   301   300    1
  1174  1135  1149    1
  1175  1135  1134    1
  1176  1132  1131   ar
  1177  1132  1133   ar
  1178  1148  1131    1
  1179   316   299    1
  1180   339   340    2
  1181   339   338   ar
  1182   299   300    1
  1183   299   315    1
  1184  1131  1130   ar
  1185   358   356    2
  1186   350   335    1
  1187   361   362    1
  1188   361   380    1
  1189   361   360    1
  1190   300   317    1
  1191   349   333    1
  1192   359   360    1
  1193   359   356    1
  1194   326   303    1
  1195   326   329    1
  1196   326   327    1
  1197   345   338   ar
  1198   345   355    1
  1199  1133  1134   ar
  1200  1133  1139   ar
  1201  1134  1136   ar
  1202  1124  1123    1
  1203  1124  1129    1
  1204   338   337    1
  1205  1122  1141    1
  1206  1122  1140    1
  1207  1122  1123    1
  1208   329   330    1
  1209   379   360    1
  1210   360   378    1
  1211  1130  1139   ar
  1212  1130  1129    1
  1213  1142  1123    1
  1214  1139  1138   ar
  1215  1136  1137   ar
  1216   356   334    1
  1217   356   357    1
  1218  1123  1125    1
  1219   333   335    1
  1220   333   334    1
  1221   333   331    1
  1222   335   337    1
  1223   335   336    1
  1224  1129  1147    1
  1225  1129  1127    1
  1226   337   352    1
  1227   337   332    1
  1228  1137  1138   ar
  1229  1137  1151    1
  1230   336   351    1
  1231   330   347    1
  1232   330   331    1
  1233   330   346    1
  1234   331   332    1
  1235   331   348    1
  1236  1145  1127    1
  1237  1125  1127    1
  1238  1125  1143    1
  1239  1125  1126    1
  1240  1127  1128    1
  1241  1126  1144    1
  1242  1128  1146    1
