1f27 biotin aptamer (Xray 1.3A)
  MOE2003           3D

 31 32  0  0  1  0  0  0  0  0999 V2000
   21.3620   -2.2610   13.5490 C   0  0  0  0  0  0  0  0  0  0  0  0
   22.4890   -2.5000   13.9710 O   0  5  0  0  0  0  0  0  0  0  0  0
   21.0750   -2.5310   12.3840 O   0  0  0  0  0  0  0  0  0  0  0  0
   20.3000   -1.6950   14.4830 C   0  0  0  0  0  0  0  0  0  0  0  0
   19.3720   -2.1690   14.2910 H   0  0  0  0  0  0  0  0  0  0  0  0
   20.5840   -1.8700   15.4880 H   0  0  0  0  0  0  0  0  0  0  0  0
   20.0760   -0.1740   14.3300 C   0  0  0  0  0  0  0  0  0  0  0  0
   19.5370    0.1890   15.1660 H   0  0  0  0  0  0  0  0  0  0  0  0
   21.0130    0.3170   14.2730 H   0  0  0  0  0  0  0  0  0  0  0  0
   19.2880    0.1530   13.0750 C   0  0  0  0  0  0  0  0  0  0  0  0
   19.9340    0.1310   12.2360 H   0  0  0  0  0  0  0  0  0  0  0  0
   18.5170   -0.5620   12.9460 H   0  0  0  0  0  0  0  0  0  0  0  0
   18.6370    1.5200   13.1090 C   0  0  0  0  0  0  0  0  0  0  0  0
   19.2690    2.1990   13.6200 H   0  0  0  0  0  0  0  0  0  0  0  0
   18.4800    1.8610   12.1190 H   0  0  0  0  0  0  0  0  0  0  0  0
   17.2750    1.5670   13.8140 C   0  0  3  0  0  0  0  0  0  0  0  0
   17.4200    1.5590   14.8630 H   0  0  0  0  0  0  0  0  0  0  0  0
   16.0560    0.1580   13.3730 S   0  0  0  0  0  0  0  0  0  0  0  0
   14.7010    1.2210   14.1970 C   0  0  0  0  0  0  0  0  0  0  0  0
   13.7560    0.9600   13.7980 H   0  0  0  0  0  0  0  0  0  0  0  0
   14.7030    1.0480   15.2420 H   0  0  0  0  0  0  0  0  0  0  0  0
   15.0810    2.6920   13.8580 C   0  0  3  0  0  0  0  0  0  0  0  0
   14.9390    3.2990   14.7140 H   0  0  0  0  0  0  0  0  0  0  0  0
   14.3530    3.0160   12.5260 N   0  0  0  0  0  0  0  0  0  0  0  0
   13.3470    2.9600   12.4740 H   0  0  0  0  0  0  0  0  0  0  0  0
   15.1390    3.3340   11.5910 C   0  0  0  0  0  0  0  0  0  0  0  0
   14.9150    3.5030   10.3400 O   0  0  0  0  0  0  0  0  0  0  0  0
   16.5350    3.1690   11.9250 N   0  0  0  0  0  0  0  0  0  0  0  0
   17.2410    3.2790   11.2120 H   0  0  0  0  0  0  0  0  0  0  0  0
   16.5270    2.8420   13.4180 C   0  0  3  0  0  0  0  0  0  0  0  0
   16.9710    3.6750   13.8980 H   0  0  0  0  0  0  0  0  0  0  0  0
  1  2  1  0  0  0  0
  1  3  2  0  0  0  0
  1  4  1  0  0  0  0
  4  5  1  0  0  0  0
  4  6  1  0  0  0  0
  4  7  1  0  0  0  0
  7  8  1  0  0  0  0
  7  9  1  0  0  0  0
  7 10  1  0  0  0  0
 10 11  1  0  0  0  0
 10 12  1  0  0  0  0
 10 13  1  0  0  0  0
 13 14  1  0  0  0  0
 13 15  1  0  0  0  0
 13 16  1  0  0  0  0
 16 17  1  0  0  0  0
 16 18  1  0  0  0  0
 16 30  1  0  0  0  0
 18 19  1  0  0  0  0
 19 20  1  0  0  0  0
 19 21  1  0  0  0  0
 19 22  1  0  0  0  0
 22 23  1  0  0  0  0
 22 24  1  0  0  0  0
 22 30  1  0  0  0  0
 24 25  1  0  0  0  0
 24 26  1  0  0  0  0
 26 27  2  0  0  0  0
 26 28  1  0  0  0  0
 28 29  1  0  0  0  0
 28 30  1  0  0  0  0
 30 31  1  0  0  0  0
M  CHG  1   2  -1
M  END
$$$$
