1f27 biotin aptamer (Xray 1.3A)
 OpenBabel11021811393D
libRbt.so/2013.1/901 2013/11/27
 16 17  0  0  0  0  0  0  0  0999 V2000
   21.4809   -2.0300   12.7719 C   0  0  0  0  0  0  0  0  0  0  0  0
   22.6577   -1.9118   13.0985 O   0  5  0  0  0  0  0  0  0  0  0  0
   21.1469   -2.9297   12.0028 O   0  0  0  0  0  0  0  0  0  0  0  0
   20.4253   -1.1088   13.3700 C   0  0  0  0  0  0  0  0  0  0  0  0
   20.4295    0.3181   12.7777 C   0  0  0  0  0  0  0  0  0  0  0  0
   19.2699    1.1455   13.3008 C   0  0  0  0  0  0  0  0  0  0  0  0
   17.9128    0.5515   12.9857 C   0  0  0  0  0  0  0  0  0  0  0  0
   16.7569    1.1026   13.8309 C   0  0  2  0  0  0  0  0  0  0  0  0
   15.0693    0.2248   13.6134 S   0  0  0  0  0  0  0  0  0  0  0  0
   14.2987    1.7219   14.5133 C   0  0  0  0  0  0  0  0  0  0  0  0
   15.1354    2.9482   14.0448 C   0  0  2  0  0  0  0  0  0  0  0  0
   14.4126    3.4905   12.7829 N   0  0  0  0  0  0  0  0  0  0  0  0
   15.1378    3.4846   11.7498 C   0  0  0  0  0  0  0  0  0  0  0  0
   14.8358    3.7010   10.5227 O   0  0  0  0  0  0  0  0  0  0  0  0
   16.4119    2.8298   11.9389 N   0  0  0  0  0  0  0  0  0  0  0  0
   16.4726    2.5549   13.4412 C   0  0  2  0  0  0  0  0  0  0  0  0
  1  2  1  0  0  0  0
  1  3  2  0  0  0  0
  1  4  1  0  0  0  0
  4  5  1  0  0  0  0
  5  6  1  0  0  0  0
  6  7  1  0  0  0  0
  8  7  1  6  0  0  0
  8  9  1  0  0  0  0
  8 16  1  0  0  0  0
  9 10  1  0  0  0  0
 11 10  1  6  0  0  0
 11 12  1  0  0  0  0
 11 16  1  0  0  0  0
 12 13  1  0  0  0  0
 13 14  2  0  0  0  0
 13 15  1  0  0  0  0
 16 15  1  6  0  0  0
M  CHG  1   2  -1
M  END
>  <CHROM.1>
75.83965333,173.99853674,-59.51421885,162.53552281,-172.72134739,17.46182714
0.92206564,12.94018940,0.47239632,-0.38035750,2.50193345

>  <Name>
1f27 biotin aptamer (Xray 1.3A)

>  <RI>
0

>  <Rbt.Current_Directory>
/home/itssahil/PROJECTS/Mol_Feturizer/New_Systems/rnas/1f27

>  <Rbt.Executable>
rbdock ($Id: //depot/dev/client3/rdock/2013.1/src/exe/rbdock.cxx#4 $)

>  <Rbt.Library>
libRbt.so (2013.1, Build901 2013/11/27)

>  <Rbt.Parameter_File>
/export/apps/rDock/src/rDock_2013.1_src/data/scripts/dock_solv.prm

>  <Rbt.Receptor>
prm/pocket_docking_4.prm

>  <SCORE>
-24.2931

>  <SCORE.INTER>
-22.8623

>  <SCORE.INTER.CONST>
1

>  <SCORE.INTER.POLAR>
-0.735834

>  <SCORE.INTER.ROT>
5

>  <SCORE.INTER.SOLV>
9.97804

>  <SCORE.INTER.VDW>
-23.0481

>  <SCORE.INTER.norm>
-1.42889

>  <SCORE.INTRA>
-1.43086

>  <SCORE.INTRA.DIHEDRAL>
-3.88956

>  <SCORE.INTRA.DIHEDRAL.0>
6.87082

>  <SCORE.INTRA.POLAR>
0

>  <SCORE.INTRA.POLAR.0>
0

>  <SCORE.INTRA.REPUL>
0

>  <SCORE.INTRA.REPUL.0>
0

>  <SCORE.INTRA.SOLV>
-0.738669

>  <SCORE.INTRA.SOLV.lig_0>
-42.5944

>  <SCORE.INTRA.VDW>
0.883255

>  <SCORE.INTRA.VDW.0>
-1.067

>  <SCORE.INTRA.norm>
-0.0894289

>  <SCORE.RESTR>
0

>  <SCORE.RESTR.CAVITY>
0

>  <SCORE.RESTR.norm>
0

>  <SCORE.SYSTEM>
0

>  <SCORE.SYSTEM.CONST>
0

>  <SCORE.SYSTEM.DIHEDRAL>
0

>  <SCORE.SYSTEM.SOLV>
0

>  <SCORE.SYSTEM.norm>
0

>  <SCORE.heavy>
16

>  <SCORE.norm>
-1.51832

>  <RMSD>
0.858

$$$$
1f27 biotin aptamer (Xray 1.3A)
 OpenBabel11021811393D
libRbt.so/2013.1/901 2013/11/27
 16 17  0  0  0  0  0  0  0  0999 V2000
   20.6009   -2.9760   14.2922 C   0  0  0  0  0  0  0  0  0  0  0  0
   21.7009   -2.6442   14.7226 O   0  5  0  0  0  0  0  0  0  0  0  0
   20.5250   -3.7122   13.3100 O   0  0  0  0  0  0  0  0  0  0  0  0
   19.3332   -2.5343   15.0123 C   0  0  0  0  0  0  0  0  0  0  0  0
   18.9984   -1.0369   14.8318 C   0  0  0  0  0  0  0  0  0  0  0  0
   18.6910   -0.7019   13.3839 C   0  0  0  0  0  0  0  0  0  0  0  0
   18.2720    0.7380   13.1725 C   0  0  0  0  0  0  0  0  0  0  0  0
   16.9492    1.1288   13.8445 C   0  0  2  0  0  0  0  0  0  0  0  0
   15.4672   -0.0378   13.5152 S   0  0  0  0  0  0  0  0  0  0  0  0
   14.3592    1.3529   14.2104 C   0  0  0  0  0  0  0  0  0  0  0  0
   15.0318    2.6763   13.7419 C   0  0  2  0  0  0  0  0  0  0  0  0
   14.3842    3.0128   12.3720 N   0  0  0  0  0  0  0  0  0  0  0  0
   15.2177    3.0730   11.4261 C   0  0  0  0  0  0  0  0  0  0  0  0
   15.0317    3.1635   10.1608 O   0  0  0  0  0  0  0  0  0  0  0  0
   16.5507    2.6597   11.8000 N   0  0  0  0  0  0  0  0  0  0  0  0
   16.4775    2.4856   13.3167 C   0  0  2  0  0  0  0  0  0  0  0  0
  1  2  1  0  0  0  0
  1  3  2  0  0  0  0
  1  4  1  0  0  0  0
  4  5  1  0  0  0  0
  5  6  1  0  0  0  0
  6  7  1  0  0  0  0
  8  7  1  6  0  0  0
  8  9  1  0  0  0  0
  8 16  1  0  0  0  0
  9 10  1  0  0  0  0
 11 10  1  6  0  0  0
 11 12  1  0  0  0  0
 11 16  1  0  0  0  0
 12 13  1  0  0  0  0
 13 14  2  0  0  0  0
 13 15  1  0  0  0  0
 16 15  1  6  0  0  0
M  CHG  1   2  -1
M  END
>  <CHROM.1>
73.02696725,64.29365355,176.37512574,-64.79678805,-50.04192139,17.24128553
0.35087712,13.31022925,-0.70137366,0.45560180,-0.85383374

>  <Name>
1f27 biotin aptamer (Xray 1.3A)

>  <RI>
0

>  <Rbt.Current_Directory>
/home/itssahil/PROJECTS/Mol_Feturizer/New_Systems/rnas/1f27

>  <Rbt.Executable>
rbdock ($Id: //depot/dev/client3/rdock/2013.1/src/exe/rbdock.cxx#4 $)

>  <Rbt.Library>
libRbt.so (2013.1, Build901 2013/11/27)

>  <Rbt.Parameter_File>
/export/apps/rDock/src/rDock_2013.1_src/data/scripts/dock_solv.prm

>  <Rbt.Receptor>
prm/pocket_docking_6.prm

>  <SCORE>
-24.5161

>  <SCORE.INTER>
-22.3349

>  <SCORE.INTER.CONST>
1

>  <SCORE.INTER.POLAR>
-1.1401

>  <SCORE.INTER.ROT>
5

>  <SCORE.INTER.SOLV>
7.26019

>  <SCORE.INTER.VDW>
-20.443

>  <SCORE.INTER.norm>
-1.39593

>  <SCORE.INTRA>
-2.1812

>  <SCORE.INTRA.DIHEDRAL>
-4.82679

>  <SCORE.INTRA.DIHEDRAL.0>
6.87082

>  <SCORE.INTRA.POLAR>
0

>  <SCORE.INTRA.POLAR.0>
0

>  <SCORE.INTRA.REPUL>
0

>  <SCORE.INTRA.REPUL.0>
0

>  <SCORE.INTRA.SOLV>
0.10411

>  <SCORE.INTRA.SOLV.lig_0>
-42.5944

>  <SCORE.INTRA.VDW>
0.180138

>  <SCORE.INTRA.VDW.0>
-1.067

>  <SCORE.INTRA.norm>
-0.136325

>  <SCORE.RESTR>
0

>  <SCORE.RESTR.CAVITY>
0

>  <SCORE.RESTR.norm>
0

>  <SCORE.SYSTEM>
0

>  <SCORE.SYSTEM.CONST>
0

>  <SCORE.SYSTEM.DIHEDRAL>
0

>  <SCORE.SYSTEM.SOLV>
0

>  <SCORE.SYSTEM.norm>
0

>  <SCORE.heavy>
16

>  <SCORE.norm>
-1.53226

>  <RMSD>
0.900

$$$$
1f27 biotin aptamer (Xray 1.3A)
 OpenBabel11021811393D
libRbt.so/2013.1/901 2013/11/27
 16 17  0  0  0  0  0  0  0  0999 V2000
   20.7122   -1.9182   13.5451 C   0  0  0  0  0  0  0  0  0  0  0  0
   21.7392   -1.4288   14.0046 O   0  5  0  0  0  0  0  0  0  0  0  0
   20.7460   -2.5122   12.4687 O   0  0  0  0  0  0  0  0  0  0  0  0
   19.4125   -1.8506   14.3367 C   0  0  0  0  0  0  0  0  0  0  0  0
   18.8899   -0.4145   14.5637 C   0  0  0  0  0  0  0  0  0  0  0  0
   18.5599    0.2755   13.2530 C   0  0  0  0  0  0  0  0  0  0  0  0
   17.9233    1.6382   13.4308 C   0  0  0  0  0  0  0  0  0  0  0  0
   16.4635    1.6101   13.9024 C   0  0  2  0  0  0  0  0  0  0  0  0
   15.5078   -0.0149   13.5682 S   0  0  0  0  0  0  0  0  0  0  0  0
   13.9185    0.9685   13.9582 C   0  0  0  0  0  0  0  0  0  0  0  0
   14.1813    2.3974   13.3993 C   0  0  2  0  0  0  0  0  0  0  0  0
   13.6627    2.3765   11.9365 N   0  0  0  0  0  0  0  0  0  0  0  0
   14.5573    2.6371   11.0850 C   0  0  0  0  0  0  0  0  0  0  0  0
   14.5353    2.5521    9.8059 O   0  0  0  0  0  0  0  0  0  0  0  0
   15.8840    2.7357   11.6487 N   0  0  0  0  0  0  0  0  0  0  0  0
   15.6550    2.6755   13.1586 C   0  0  2  0  0  0  0  0  0  0  0  0
  1  2  1  0  0  0  0
  1  3  2  0  0  0  0
  1  4  1  0  0  0  0
  4  5  1  0  0  0  0
  5  6  1  0  0  0  0
  6  7  1  0  0  0  0
  8  7  1  6  0  0  0
  8  9  1  0  0  0  0
  8 16  1  0  0  0  0
  9 10  1  0  0  0  0
 11 10  1  6  0  0  0
 11 12  1  0  0  0  0
 11 16  1  0  0  0  0
 12 13  1  0  0  0  0
 13 14  2  0  0  0  0
 13 15  1  0  0  0  0
 16 15  1  6  0  0  0
M  CHG  1   2  -1
M  END
>  <CHROM.1>
63.99663921,62.42538348,174.63815834,-73.64627140,-21.91450952,16.94847967
0.65034574,13.01601881,-0.46114100,0.41355837,-1.07630392

>  <Name>
1f27 biotin aptamer (Xray 1.3A)

>  <RI>
0

>  <Rbt.Current_Directory>
/home/itssahil/PROJECTS/Mol_Feturizer/New_Systems/rnas/1f27

>  <Rbt.Executable>
rbdock ($Id: //depot/dev/client3/rdock/2013.1/src/exe/rbdock.cxx#4 $)

>  <Rbt.Library>
libRbt.so (2013.1, Build901 2013/11/27)

>  <Rbt.Parameter_File>
/export/apps/rDock/src/rDock_2013.1_src/data/scripts/dock_solv.prm

>  <Rbt.Receptor>
prm/pocket_docking_2.prm

>  <SCORE>
-24.3646

>  <SCORE.INTER>
-24.8254

>  <SCORE.INTER.CONST>
1

>  <SCORE.INTER.POLAR>
-1.46487

>  <SCORE.INTER.ROT>
5

>  <SCORE.INTER.SOLV>
8.50211

>  <SCORE.INTER.VDW>
-21.4347

>  <SCORE.INTER.norm>
-1.55159

>  <SCORE.INTRA>
0.460784

>  <SCORE.INTRA.DIHEDRAL>
-0.457386

>  <SCORE.INTRA.DIHEDRAL.0>
6.87082

>  <SCORE.INTRA.POLAR>
0

>  <SCORE.INTRA.POLAR.0>
0

>  <SCORE.INTRA.REPUL>
0

>  <SCORE.INTRA.REPUL.0>
0

>  <SCORE.INTRA.SOLV>
0.240942

>  <SCORE.INTRA.SOLV.lig_0>
-42.5944

>  <SCORE.INTRA.VDW>
0.569006

>  <SCORE.INTRA.VDW.0>
-1.067

>  <SCORE.INTRA.norm>
0.028799

>  <SCORE.RESTR>
0

>  <SCORE.RESTR.CAVITY>
0

>  <SCORE.RESTR.norm>
0

>  <SCORE.SYSTEM>
0

>  <SCORE.SYSTEM.CONST>
0

>  <SCORE.SYSTEM.DIHEDRAL>
0

>  <SCORE.SYSTEM.SOLV>
0

>  <SCORE.SYSTEM.norm>
0

>  <SCORE.heavy>
16

>  <SCORE.norm>
-1.52279

>  <RMSD>
0.935

$$$$
1f27 biotin aptamer (Xray 1.3A)
 OpenBabel11021811393D
libRbt.so/2013.1/901 2013/11/27
 16 17  0  0  0  0  0  0  0  0999 V2000
   20.6643   -2.2027   13.2129 C   0  0  0  0  0  0  0  0  0  0  0  0
   21.7561   -2.7612   13.2513 O   0  5  0  0  0  0  0  0  0  0  0  0
   19.6762   -2.8177   12.8156 O   0  0  0  0  0  0  0  0  0  0  0  0
   20.5183   -0.7736   13.7198 C   0  0  0  0  0  0  0  0  0  0  0  0
   19.0656   -0.2479   13.7051 C   0  0  0  0  0  0  0  0  0  0  0  0
   18.9325    1.0529   14.4752 C   0  0  0  0  0  0  0  0  0  0  0  0
   17.9333    2.0154   13.8678 C   0  0  0  0  0  0  0  0  0  0  0  0
   16.4625    1.6716   14.1377 C   0  0  2  0  0  0  0  0  0  0  0  0
   15.8552   -0.0067   13.4448 S   0  0  0  0  0  0  0  0  0  0  0  0
   14.0831    0.6257   13.7685 C   0  0  0  0  0  0  0  0  0  0  0  0
   14.1384    2.1519   13.4673 C   0  0  2  0  0  0  0  0  0  0  0  0
   13.7830    2.2948   11.9632 N   0  0  0  0  0  0  0  0  0  0  0  0
   14.6972    2.8372   11.2826 C   0  0  0  0  0  0  0  0  0  0  0  0
   14.8207    2.9672   10.0131 O   0  0  0  0  0  0  0  0  0  0  0  0
   15.9202    3.0529   12.0211 N   0  0  0  0  0  0  0  0  0  0  0  0
   15.5542    2.7020   13.4629 C   0  0  2  0  0  0  0  0  0  0  0  0
  1  2  1  0  0  0  0
  1  3  2  0  0  0  0
  1  4  1  0  0  0  0
  4  5  1  0  0  0  0
  5  6  1  0  0  0  0
  6  7  1  0  0  0  0
  8  7  1  6  0  0  0
  8  9  1  0  0  0  0
  8 16  1  0  0  0  0
  9 10  1  0  0  0  0
 11 10  1  6  0  0  0
 11 12  1  0  0  0  0
 11 16  1  0  0  0  0
 12 13  1  0  0  0  0
 13 14  2  0  0  0  0
 13 15  1  0  0  0  0
 16 15  1  6  0  0  0
M  CHG  1   2  -1
M  END
>  <CHROM.1>
-175.59207486,168.26185826,144.42464753,77.07492989,-61.79956818,17.05611310
0.69191688,13.03670146,-0.59346544,0.26639188,-0.65177550

>  <Name>
1f27 biotin aptamer (Xray 1.3A)

>  <RI>
0

>  <Rbt.Current_Directory>
/home/itssahil/PROJECTS/Mol_Feturizer/New_Systems/rnas/1f27

>  <Rbt.Executable>
rbdock ($Id: //depot/dev/client3/rdock/2013.1/src/exe/rbdock.cxx#4 $)

>  <Rbt.Library>
libRbt.so (2013.1, Build901 2013/11/27)

>  <Rbt.Parameter_File>
/export/apps/rDock/src/rDock_2013.1_src/data/scripts/dock_solv.prm

>  <Rbt.Receptor>
prm/pocket_docking_2.prm

>  <SCORE>
-26.4214

>  <SCORE.INTER>
-26.8553

>  <SCORE.INTER.CONST>
1

>  <SCORE.INTER.POLAR>
-1.74758

>  <SCORE.INTER.ROT>
5

>  <SCORE.INTER.SOLV>
8.51474

>  <SCORE.INTER.VDW>
-21.8499

>  <SCORE.INTER.norm>
-1.67846

>  <SCORE.INTRA>
0.426264

>  <SCORE.INTRA.DIHEDRAL>
0.0972714

>  <SCORE.INTRA.DIHEDRAL.0>
6.87082

>  <SCORE.INTRA.POLAR>
0

>  <SCORE.INTRA.POLAR.0>
0

>  <SCORE.INTRA.REPUL>
0

>  <SCORE.INTRA.REPUL.0>
0

>  <SCORE.INTRA.SOLV>
-0.678283

>  <SCORE.INTRA.SOLV.lig_0>
-42.5944

>  <SCORE.INTRA.VDW>
0.71677

>  <SCORE.INTRA.VDW.0>
-1.067

>  <SCORE.INTRA.norm>
0.0266415

>  <SCORE.RESTR>
0.00767426

>  <SCORE.RESTR.CAVITY>
0.00767426

>  <SCORE.RESTR.norm>
0.000479641

>  <SCORE.SYSTEM>
0

>  <SCORE.SYSTEM.CONST>
0

>  <SCORE.SYSTEM.DIHEDRAL>
0

>  <SCORE.SYSTEM.SOLV>
0

>  <SCORE.SYSTEM.norm>
0

>  <SCORE.heavy>
16

>  <SCORE.norm>
-1.65134

>  <RMSD>
1.050

$$$$
1f27 biotin aptamer (Xray 1.3A)
 OpenBabel11021811393D
libRbt.so/2013.1/901 2013/11/27
 16 17  0  0  0  0  0  0  0  0999 V2000
   21.2643   -1.8604   15.2755 C   0  0  0  0  0  0  0  0  0  0  0  0
   22.3881   -1.3714   15.3319 O   0  5  0  0  0  0  0  0  0  0  0  0
   21.0861   -2.9159   14.6697 O   0  0  0  0  0  0  0  0  0  0  0  0
   20.1051   -1.1997   16.0105 C   0  0  0  0  0  0  0  0  0  0  0  0
   19.5813    0.0848   15.3302 C   0  0  0  0  0  0  0  0  0  0  0  0
   18.9748   -0.2087   13.9704 C   0  0  0  0  0  0  0  0  0  0  0  0
   18.2473    0.9737   13.3651 C   0  0  0  0  0  0  0  0  0  0  0  0
   16.8626    1.2530   13.9641 C   0  0  2  0  0  0  0  0  0  0  0  0
   15.5045   -0.0372   13.5680 S   0  0  0  0  0  0  0  0  0  0  0  0
   14.2473    1.2567   14.1929 C   0  0  0  0  0  0  0  0  0  0  0  0
   14.8287    2.6307   13.7489 C   0  0  2  0  0  0  0  0  0  0  0  0
   14.2277    2.9053   12.3444 N   0  0  0  0  0  0  0  0  0  0  0  0
   15.1016    3.0326   11.4426 C   0  0  0  0  0  0  0  0  0  0  0  0
   14.9753    3.1019   10.1686 O   0  0  0  0  0  0  0  0  0  0  0  0
   16.4434    2.7361   11.8888 N   0  0  0  0  0  0  0  0  0  0  0  0
   16.3057    2.5624   13.4011 C   0  0  2  0  0  0  0  0  0  0  0  0
  1  2  1  0  0  0  0
  1  3  2  0  0  0  0
  1  4  1  0  0  0  0
  4  5  1  0  0  0  0
  5  6  1  0  0  0  0
  6  7  1  0  0  0  0
  8  7  1  6  0  0  0
  8  9  1  0  0  0  0
  8 16  1  0  0  0  0
  9 10  1  0  0  0  0
 11 10  1  6  0  0  0
 11 12  1  0  0  0  0
 11 16  1  0  0  0  0
 12 13  1  0  0  0  0
 13 14  2  0  0  0  0
 13 15  1  0  0  0  0
 16 15  1  6  0  0  0
M  CHG  1   2  -1
M  END
>  <CHROM.1>
75.01527634,64.75825256,170.55004540,-76.67865685,-69.50398220,17.39737160
0.72043807,13.64176354,-0.67486216,0.16468916,-0.83033079

>  <Name>
1f27 biotin aptamer (Xray 1.3A)

>  <RI>
0

>  <Rbt.Current_Directory>
/home/itssahil/PROJECTS/Mol_Feturizer/New_Systems/rnas/1f27

>  <Rbt.Executable>
rbdock ($Id: //depot/dev/client3/rdock/2013.1/src/exe/rbdock.cxx#4 $)

>  <Rbt.Library>
libRbt.so (2013.1, Build901 2013/11/27)

>  <Rbt.Parameter_File>
/export/apps/rDock/src/rDock_2013.1_src/data/scripts/dock_solv.prm

>  <Rbt.Receptor>
prm/pocket_docking_3.prm

>  <SCORE>
-24.6293

>  <SCORE.INTER>
-22.8806

>  <SCORE.INTER.CONST>
1

>  <SCORE.INTER.POLAR>
-1.20231

>  <SCORE.INTER.ROT>
5

>  <SCORE.INTER.SOLV>
7.41331

>  <SCORE.INTER.VDW>
-20.6505

>  <SCORE.INTER.norm>
-1.43004

>  <SCORE.INTRA>
-1.74867

>  <SCORE.INTRA.DIHEDRAL>
-3.54858

>  <SCORE.INTRA.DIHEDRAL.0>
6.87082

>  <SCORE.INTRA.POLAR>
0

>  <SCORE.INTRA.POLAR.0>
0

>  <SCORE.INTRA.REPUL>
0

>  <SCORE.INTRA.REPUL.0>
0

>  <SCORE.INTRA.SOLV>
0.0340373

>  <SCORE.INTRA.SOLV.lig_0>
-42.5944

>  <SCORE.INTRA.VDW>
0.00860167

>  <SCORE.INTRA.VDW.0>
-1.067

>  <SCORE.INTRA.norm>
-0.109292

>  <SCORE.RESTR>
0

>  <SCORE.RESTR.CAVITY>
0

>  <SCORE.RESTR.norm>
0

>  <SCORE.SYSTEM>
0

>  <SCORE.SYSTEM.CONST>
0

>  <SCORE.SYSTEM.DIHEDRAL>
0

>  <SCORE.SYSTEM.SOLV>
0

>  <SCORE.SYSTEM.norm>
0

>  <SCORE.heavy>
16

>  <SCORE.norm>
-1.53933

>  <RMSD>
1.084

$$$$
1f27 biotin aptamer (Xray 1.3A)
 OpenBabel11021811393D
libRbt.so/2013.1/901 2013/11/27
 16 17  0  0  0  0  0  0  0  0999 V2000
   21.3889   -1.6504   12.7734 C   0  0  0  0  0  0  0  0  0  0  0  0
   22.5053   -1.2397   12.4728 O   0  5  0  0  0  0  0  0  0  0  0  0
   20.9623   -2.6877   12.2689 O   0  0  0  0  0  0  0  0  0  0  0  0
   20.5603   -0.9159   13.8196 C   0  0  0  0  0  0  0  0  0  0  0  0
   19.8113    0.3197   13.2726 C   0  0  0  0  0  0  0  0  0  0  0  0
   18.6097    0.6717   14.1300 C   0  0  0  0  0  0  0  0  0  0  0  0
   17.7795    1.8078   13.5700 C   0  0  0  0  0  0  0  0  0  0  0  0
   16.3170    1.8257   14.0336 C   0  0  2  0  0  0  0  0  0  0  0  0
   15.3503    0.1876   13.8150 S   0  0  0  0  0  0  0  0  0  0  0  0
   13.7667    1.2091   14.1214 C   0  0  0  0  0  0  0  0  0  0  0  0
   14.0439    2.5906   13.4598 C   0  0  2  0  0  0  0  0  0  0  0  0
   13.5331    2.4652   11.9994 N   0  0  0  0  0  0  0  0  0  0  0  0
   14.4343    2.6553   11.1364 C   0  0  0  0  0  0  0  0  0  0  0  0
   14.4188    2.4758    9.8670 O   0  0  0  0  0  0  0  0  0  0  0  0
   15.7587    2.7855   11.6992 N   0  0  0  0  0  0  0  0  0  0  0  0
   15.5210    2.8391   13.2081 C   0  0  2  0  0  0  0  0  0  0  0  0
  1  2  1  0  0  0  0
  1  3  2  0  0  0  0
  1  4  1  0  0  0  0
  4  5  1  0  0  0  0
  5  6  1  0  0  0  0
  6  7  1  0  0  0  0
  8  7  1  6  0  0  0
  8  9  1  0  0  0  0
  8 16  1  0  0  0  0
  9 10  1  0  0  0  0
 11 10  1  1  0  0  0
 11 12  1  0  0  0  0
 11 16  1  0  0  0  0
 12 13  1  0  0  0  0
 13 14  2  0  0  0  0
 13 15  1  0  0  0  0
 16 15  1  6  0  0  0
M  CHG  1   2  -1
M  END
>  <CHROM.1>
81.47898021,156.80735969,-175.32427536,156.06484305,-51.69629561,17.07905061
0.86867410,12.88681480,-0.22621040,0.43376894,-1.22334381

>  <Name>
1f27 biotin aptamer (Xray 1.3A)

>  <RI>
0

>  <Rbt.Current_Directory>
/home/itssahil/PROJECTS/Mol_Feturizer/New_Systems/rnas/1f27

>  <Rbt.Executable>
rbdock ($Id: //depot/dev/client3/rdock/2013.1/src/exe/rbdock.cxx#4 $)

>  <Rbt.Library>
libRbt.so (2013.1, Build901 2013/11/27)

>  <Rbt.Parameter_File>
/export/apps/rDock/src/rDock_2013.1_src/data/scripts/dock_solv.prm

>  <Rbt.Receptor>
prm/pocket_docking_2.prm

>  <SCORE>
-29.1835

>  <SCORE.INTER>
-28.3549

>  <SCORE.INTER.CONST>
1

>  <SCORE.INTER.POLAR>
-2.22173

>  <SCORE.INTER.ROT>
5

>  <SCORE.INTER.SOLV>
10.9376

>  <SCORE.INTER.VDW>
-22.0767

>  <SCORE.INTER.norm>
-1.77218

>  <SCORE.INTRA>
-1.01285

>  <SCORE.INTRA.DIHEDRAL>
-1.18741

>  <SCORE.INTRA.DIHEDRAL.0>
6.87082

>  <SCORE.INTRA.POLAR>
0

>  <SCORE.INTRA.POLAR.0>
0

>  <SCORE.INTRA.REPUL>
0

>  <SCORE.INTRA.REPUL.0>
0

>  <SCORE.INTRA.SOLV>
-0.803626

>  <SCORE.INTRA.SOLV.lig_0>
-42.5944

>  <SCORE.INTRA.VDW>
-0.0173299

>  <SCORE.INTRA.VDW.0>
-1.067

>  <SCORE.INTRA.norm>
-0.063303

>  <SCORE.RESTR>
0.184241

>  <SCORE.RESTR.CAVITY>
0.184241

>  <SCORE.RESTR.norm>
0.0115151

>  <SCORE.SYSTEM>
0

>  <SCORE.SYSTEM.CONST>
0

>  <SCORE.SYSTEM.DIHEDRAL>
0

>  <SCORE.SYSTEM.SOLV>
0

>  <SCORE.SYSTEM.norm>
0

>  <SCORE.heavy>
16

>  <SCORE.norm>
-1.82397

>  <RMSD>
1.116

$$$$
1f27 biotin aptamer (Xray 1.3A)
 OpenBabel11021811393D
libRbt.so/2013.1/901 2013/11/27
 16 17  0  0  0  0  0  0  0  0999 V2000
   21.7020   -1.3960   15.2161 C   0  0  0  0  0  0  0  0  0  0  0  0
   22.6589   -0.7298   15.5980 O   0  5  0  0  0  0  0  0  0  0  0  0
   21.8712   -2.2932   14.3922 O   0  0  0  0  0  0  0  0  0  0  0  0
   20.3197   -1.1593   15.8107 C   0  0  0  0  0  0  0  0  0  0  0  0
   19.6711    0.1749   15.3793 C   0  0  0  0  0  0  0  0  0  0  0  0
   19.4434    0.2284   13.8799 C   0  0  0  0  0  0  0  0  0  0  0  0
   18.5494    1.3707   13.4445 C   0  0  0  0  0  0  0  0  0  0  0  0
   17.1130    1.3039   13.9797 C   0  0  2  0  0  0  0  0  0  0  0  0
   16.0961   -0.2316   13.4564 S   0  0  0  0  0  0  0  0  0  0  0  0
   14.5558    0.7164   14.0677 C   0  0  0  0  0  0  0  0  0  0  0  0
   14.8336    2.2068   13.7148 C   0  0  2  0  0  0  0  0  0  0  0  0
   14.2470    2.4167   12.2932 N   0  0  0  0  0  0  0  0  0  0  0  0
   15.1080    2.7825   11.4459 C   0  0  0  0  0  0  0  0  0  0  0  0
   15.0241    2.8905   10.1711 O   0  0  0  0  0  0  0  0  0  0  0  0
   16.4618    2.7667   11.9503 N   0  0  0  0  0  0  0  0  0  0  0  0
   16.3019    2.4859   13.4442 C   0  0  2  0  0  0  0  0  0  0  0  0
  1  2  1  0  0  0  0
  1  3  2  0  0  0  0
  1  4  1  0  0  0  0
  4  5  1  0  0  0  0
  5  6  1  0  0  0  0
  6  7  1  0  0  0  0
  8  7  1  6  0  0  0
  8  9  1  0  0  0  0
  8 16  1  0  0  0  0
  9 10  1  0  0  0  0
 11 10  1  6  0  0  0
 11 12  1  0  0  0  0
 11 16  1  0  0  0  0
 12 13  1  0  0  0  0
 13 14  2  0  0  0  0
 13 15  1  0  0  0  0
 16 15  1  6  0  0  0
M  CHG  1   2  -1
M  END
>  <CHROM.1>
70.91411957,62.35382892,167.55347157,-63.35963288,-60.98572547,17.66561289
0.74669993,13.60906096,-0.61061223,0.06125861,-0.80878447

>  <Name>
1f27 biotin aptamer (Xray 1.3A)

>  <RI>
0

>  <Rbt.Current_Directory>
/home/itssahil/PROJECTS/Mol_Feturizer/New_Systems/rnas/1f27

>  <Rbt.Executable>
rbdock ($Id: //depot/dev/client3/rdock/2013.1/src/exe/rbdock.cxx#4 $)

>  <Rbt.Library>
libRbt.so (2013.1, Build901 2013/11/27)

>  <Rbt.Parameter_File>
/export/apps/rDock/src/rDock_2013.1_src/data/scripts/dock_solv.prm

>  <Rbt.Receptor>
prm/pocket_docking_4.prm

>  <SCORE>
-24.9736

>  <SCORE.INTER>
-22.8028

>  <SCORE.INTER.CONST>
1

>  <SCORE.INTER.POLAR>
-1.20259

>  <SCORE.INTER.ROT>
5

>  <SCORE.INTER.SOLV>
8.10195

>  <SCORE.INTER.VDW>
-20.8272

>  <SCORE.INTER.norm>
-1.42517

>  <SCORE.INTRA>
-2.1708

>  <SCORE.INTRA.DIHEDRAL>
-4.7578

>  <SCORE.INTRA.DIHEDRAL.0>
6.87082

>  <SCORE.INTRA.POLAR>
0

>  <SCORE.INTRA.POLAR.0>
0

>  <SCORE.INTRA.REPUL>
0

>  <SCORE.INTRA.REPUL.0>
0

>  <SCORE.INTRA.SOLV>
0.0898722

>  <SCORE.INTRA.SOLV.lig_0>
-42.5944

>  <SCORE.INTRA.VDW>
0.163167

>  <SCORE.INTRA.VDW.0>
-1.067

>  <SCORE.INTRA.norm>
-0.135675

>  <SCORE.RESTR>
0

>  <SCORE.RESTR.CAVITY>
0

>  <SCORE.RESTR.norm>
0

>  <SCORE.SYSTEM>
0

>  <SCORE.SYSTEM.CONST>
0

>  <SCORE.SYSTEM.DIHEDRAL>
0

>  <SCORE.SYSTEM.SOLV>
0

>  <SCORE.SYSTEM.norm>
0

>  <SCORE.heavy>
16

>  <SCORE.norm>
-1.56085

>  <RMSD>
1.141

$$$$
1f27 biotin aptamer (Xray 1.3A)
 OpenBabel11021811393D
libRbt.so/2013.1/901 2013/11/27
 16 17  0  0  0  0  0  0  0  0999 V2000
   20.7721   -1.5549   13.5537 C   0  0  0  0  0  0  0  0  0  0  0  0
   21.3920   -1.9213   14.5471 O   0  5  0  0  0  0  0  0  0  0  0  0
   21.3825   -1.1339   12.5726 O   0  0  0  0  0  0  0  0  0  0  0  0
   19.2550   -1.6845   13.5084 C   0  0  0  0  0  0  0  0  0  0  0  0
   18.5267   -0.3879   13.0893 C   0  0  0  0  0  0  0  0  0  0  0  0
   18.6327    0.6847   14.1575 C   0  0  0  0  0  0  0  0  0  0  0  0
   17.7602    1.8932   13.8893 C   0  0  0  0  0  0  0  0  0  0  0  0
   16.2625    1.6745   14.1407 C   0  0  2  0  0  0  0  0  0  0  0  0
   15.5340    0.0330   13.4767 S   0  0  0  0  0  0  0  0  0  0  0  0
   13.8133    0.8123   13.7535 C   0  0  0  0  0  0  0  0  0  0  0  0
   13.9954    2.3213   13.4173 C   0  0  2  0  0  0  0  0  0  0  0  0
   13.6767    2.4544   11.9041 N   0  0  0  0  0  0  0  0  0  0  0  0
   14.6422    2.9051   11.2275 C   0  0  0  0  0  0  0  0  0  0  0  0
   14.7961    2.9931    9.9577 O   0  0  0  0  0  0  0  0  0  0  0  0
   15.8665    3.0412   11.9825 N   0  0  0  0  0  0  0  0  0  0  0  0
   15.4505    2.7567   13.4254 C   0  0  2  0  0  0  0  0  0  0  0  0
  1  2  1  0  0  0  0
  1  3  2  0  0  0  0
  1  4  1  0  0  0  0
  4  5  1  0  0  0  0
  5  6  1  0  0  0  0
  6  7  1  0  0  0  0
  8  7  1  6  0  0  0
  8  9  1  0  0  0  0
  8 16  1  0  0  0  0
  9 10  1  0  0  0  0
 11 10  1  6  0  0  0
 11 12  1  0  0  0  0
 11 16  1  0  0  0  0
 12 13  1  0  0  0  0
 13 14  2  0  0  0  0
 13 15  1  0  0  0  0
 16 15  1  6  0  0  0
M  CHG  1   2  -1
M  END
>  <CHROM.1>
129.67026657,-69.26822620,-171.10908576,74.59972224,-44.06313316,16.92261558
0.84324978,13.04441456,-0.49844324,0.31419396,-0.89727739

>  <Name>
1f27 biotin aptamer (Xray 1.3A)

>  <RI>
0

>  <Rbt.Current_Directory>
/home/itssahil/PROJECTS/Mol_Feturizer/New_Systems/rnas/1f27

>  <Rbt.Executable>
rbdock ($Id: //depot/dev/client3/rdock/2013.1/src/exe/rbdock.cxx#4 $)

>  <Rbt.Library>
libRbt.so (2013.1, Build901 2013/11/27)

>  <Rbt.Parameter_File>
/export/apps/rDock/src/rDock_2013.1_src/data/scripts/dock_solv.prm

>  <Rbt.Receptor>
prm/pocket_docking_2.prm

>  <SCORE>
-28.2972

>  <SCORE.INTER>
-27.7884

>  <SCORE.INTER.CONST>
1

>  <SCORE.INTER.POLAR>
-1.76808

>  <SCORE.INTER.ROT>
5

>  <SCORE.INTER.SOLV>
9.34175

>  <SCORE.INTER.VDW>
-22.6792

>  <SCORE.INTER.norm>
-1.73677

>  <SCORE.INTRA>
-0.524516

>  <SCORE.INTRA.DIHEDRAL>
-3.08529

>  <SCORE.INTRA.DIHEDRAL.0>
6.87082

>  <SCORE.INTRA.POLAR>
0

>  <SCORE.INTRA.POLAR.0>
0

>  <SCORE.INTRA.REPUL>
0

>  <SCORE.INTRA.REPUL.0>
0

>  <SCORE.INTRA.SOLV>
0.177892

>  <SCORE.INTRA.SOLV.lig_0>
-42.5944

>  <SCORE.INTRA.VDW>
0.929181

>  <SCORE.INTRA.VDW.0>
-1.067

>  <SCORE.INTRA.norm>
-0.0327823

>  <SCORE.RESTR>
0.0157196

>  <SCORE.RESTR.CAVITY>
0.0157196

>  <SCORE.RESTR.norm>
0.000982476

>  <SCORE.SYSTEM>
0

>  <SCORE.SYSTEM.CONST>
0

>  <SCORE.SYSTEM.DIHEDRAL>
0

>  <SCORE.SYSTEM.SOLV>
0

>  <SCORE.SYSTEM.norm>
0

>  <SCORE.heavy>
16

>  <SCORE.norm>
-1.76857

>  <RMSD>
1.175

$$$$
1f27 biotin aptamer (Xray 1.3A)
 OpenBabel11021811393D
libRbt.so/2013.1/901 2013/11/27
 16 17  0  0  0  0  0  0  0  0999 V2000
   21.0573   -1.3560   13.9797 C   0  0  0  0  0  0  0  0  0  0  0  0
   21.9636   -1.8792   13.3392 O   0  5  0  0  0  0  0  0  0  0  0  0
   19.9994   -1.9601   14.1482 O   0  0  0  0  0  0  0  0  0  0  0  0
   21.2651    0.0092   14.6229 C   0  0  0  0  0  0  0  0  0  0  0  0
   20.3352    1.1118   14.0693 C   0  0  0  0  0  0  0  0  0  0  0  0
   18.8784    0.8267   14.3845 C   0  0  0  0  0  0  0  0  0  0  0  0
   17.9310    1.8972   13.8843 C   0  0  0  0  0  0  0  0  0  0  0  0
   16.4462    1.6201   14.1544 C   0  0  2  0  0  0  0  0  0  0  0  0
   15.7675   -0.0363   13.4751 S   0  0  0  0  0  0  0  0  0  0  0  0
   14.0241    0.6754   13.7900 C   0  0  0  0  0  0  0  0  0  0  0  0
   14.1463    2.1950   13.4755 C   0  0  2  0  0  0  0  0  0  0  0  0
   13.7996    2.3399   11.9695 N   0  0  0  0  0  0  0  0  0  0  0  0
   14.7375    2.8360   11.2859 C   0  0  0  0  0  0  0  0  0  0  0  0
   14.8684    2.9493   10.0156 O   0  0  0  0  0  0  0  0  0  0  0  0
   15.9677    3.0049   12.0247 N   0  0  0  0  0  0  0  0  0  0  0  0
   15.5846    2.6830   13.4689 C   0  0  2  0  0  0  0  0  0  0  0  0
  1  2  1  0  0  0  0
  1  3  2  0  0  0  0
  1  4  1  0  0  0  0
  4  5  1  0  0  0  0
  5  6  1  0  0  0  0
  6  7  1  0  0  0  0
  8  7  1  6  0  0  0
  8  9  1  0  0  0  0
  8 16  1  0  0  0  0
  9 10  1  0  0  0  0
 11 10  1  6  0  0  0
 11 12  1  0  0  0  0
 11 16  1  0  0  0  0
 12 13  1  0  0  0  0
 13 14  2  0  0  0  0
 13 15  1  0  0  0  0
 16 15  1  6  0  0  0
M  CHG  1   2  -1
M  END
>  <CHROM.1>
116.93807243,64.80073314,178.83865259,178.44475561,-56.07215765,17.21872688
0.94782989,13.24459104,0.52635647,-0.05697937,2.51413223

>  <Name>
1f27 biotin aptamer (Xray 1.3A)

>  <RI>
0

>  <Rbt.Current_Directory>
/home/itssahil/PROJECTS/Mol_Feturizer/New_Systems/rnas/1f27

>  <Rbt.Executable>
rbdock ($Id: //depot/dev/client3/rdock/2013.1/src/exe/rbdock.cxx#4 $)

>  <Rbt.Library>
libRbt.so (2013.1, Build901 2013/11/27)

>  <Rbt.Parameter_File>
/export/apps/rDock/src/rDock_2013.1_src/data/scripts/dock_solv.prm

>  <Rbt.Receptor>
prm/pocket_docking_2.prm

>  <SCORE>
-30.5975

>  <SCORE.INTER>
-28.3139

>  <SCORE.INTER.CONST>
1

>  <SCORE.INTER.POLAR>
-1.76588

>  <SCORE.INTER.ROT>
5

>  <SCORE.INTER.SOLV>
8.47731

>  <SCORE.INTER.VDW>
-22.7487

>  <SCORE.INTER.norm>
-1.76962

>  <SCORE.INTRA>
-2.29032

>  <SCORE.INTRA.DIHEDRAL>
-5.31376

>  <SCORE.INTRA.DIHEDRAL.0>
6.87082

>  <SCORE.INTRA.POLAR>
0

>  <SCORE.INTRA.POLAR.0>
0

>  <SCORE.INTRA.REPUL>
0

>  <SCORE.INTRA.REPUL.0>
0

>  <SCORE.INTRA.SOLV>
0.268013

>  <SCORE.INTRA.SOLV.lig_0>
-42.5944

>  <SCORE.INTRA.VDW>
0.232556

>  <SCORE.INTRA.VDW.0>
-1.067

>  <SCORE.INTRA.norm>
-0.143145

>  <SCORE.RESTR>
0.00667209

>  <SCORE.RESTR.CAVITY>
0.00667209

>  <SCORE.RESTR.norm>
0.000417006

>  <SCORE.SYSTEM>
0

>  <SCORE.SYSTEM.CONST>
0

>  <SCORE.SYSTEM.DIHEDRAL>
0

>  <SCORE.SYSTEM.SOLV>
0

>  <SCORE.SYSTEM.norm>
0

>  <SCORE.heavy>
16

>  <SCORE.norm>
-1.91234

>  <RMSD>
1.182

$$$$
1f27 biotin aptamer (Xray 1.3A)
 OpenBabel11021811393D
libRbt.so/2013.1/901 2013/11/27
 16 17  0  0  0  0  0  0  0  0999 V2000
   20.3442   -2.3901   13.8587 C   0  0  0  0  0  0  0  0  0  0  0  0
   21.3209   -2.2896   13.1230 O   0  5  0  0  0  0  0  0  0  0  0  0
   19.7764   -3.4746   13.9770 O   0  0  0  0  0  0  0  0  0  0  0  0
   19.8767   -1.1930   14.6765 C   0  0  0  0  0  0  0  0  0  0  0  0
   18.9583   -0.2229   13.9003 C   0  0  0  0  0  0  0  0  0  0  0  0
   18.8322    1.1148   14.6057 C   0  0  0  0  0  0  0  0  0  0  0  0
   17.8622    2.0637   13.9332 C   0  0  0  0  0  0  0  0  0  0  0  0
   16.3803    1.7455   14.1721 C   0  0  2  0  0  0  0  0  0  0  0  0
   15.7736    0.0501   13.5216 S   0  0  0  0  0  0  0  0  0  0  0  0
   14.0004    0.7125   13.7709 C   0  0  0  0  0  0  0  0  0  0  0  0
   14.0823    2.2263   13.4175 C   0  0  2  0  0  0  0  0  0  0  0  0
   13.7720    2.3191   11.8995 N   0  0  0  0  0  0  0  0  0  0  0  0
   14.7118    2.8270   11.2271 C   0  0  0  0  0  0  0  0  0  0  0  0
   14.8733    2.9102    9.9580 O   0  0  0  0  0  0  0  0  0  0  0  0
   15.9154    3.0560   11.9929 N   0  0  0  0  0  0  0  0  0  0  0  0
   15.5040    2.7608   13.4350 C   0  0  2  0  0  0  0  0  0  0  0  0
  1  2  1  0  0  0  0
  1  3  2  0  0  0  0
  1  4  1  0  0  0  0
  4  5  1  0  0  0  0
  5  6  1  0  0  0  0
  6  7  1  0  0  0  0
  8  7  1  6  0  0  0
  8  9  1  0  0  0  0
  8 16  1  0  0  0  0
  9 10  1  0  0  0  0
 11 10  1  6  0  0  0
 11 12  1  0  0  0  0
 11 16  1  0  0  0  0
 12 13  1  0  0  0  0
 13 14  2  0  0  0  0
 13 15  1  0  0  0  0
 16 15  1  6  0  0  0
M  CHG  1   2  -1
M  END
>  <CHROM.1>
83.95414750,-164.36767088,-175.84519905,76.26407819,-61.92749132,16.94292680
0.67497647,13.21014082,-0.69037129,0.20080519,-0.62808667

>  <Name>
1f27 biotin aptamer (Xray 1.3A)

>  <RI>
0

>  <Rbt.Current_Directory>
/home/itssahil/PROJECTS/Mol_Feturizer/New_Systems/rnas/1f27

>  <Rbt.Executable>
rbdock ($Id: //depot/dev/client3/rdock/2013.1/src/exe/rbdock.cxx#4 $)

>  <Rbt.Library>
libRbt.so (2013.1, Build901 2013/11/27)

>  <Rbt.Parameter_File>
/export/apps/rDock/src/rDock_2013.1_src/data/scripts/dock_solv.prm

>  <Rbt.Receptor>
prm/pocket_docking_3.prm

>  <SCORE>
-29.2168

>  <SCORE.INTER>
-27.2012

>  <SCORE.INTER.CONST>
1

>  <SCORE.INTER.POLAR>
-1.8061

>  <SCORE.INTER.ROT>
5

>  <SCORE.INTER.SOLV>
7.49885

>  <SCORE.INTER.VDW>
-21.5468

>  <SCORE.INTER.norm>
-1.70008

>  <SCORE.INTRA>
-2.01559

>  <SCORE.INTRA.DIHEDRAL>
-3.42812

>  <SCORE.INTRA.DIHEDRAL.0>
6.87082

>  <SCORE.INTRA.POLAR>
0

>  <SCORE.INTRA.POLAR.0>
0

>  <SCORE.INTRA.REPUL>
0

>  <SCORE.INTRA.REPUL.0>
0

>  <SCORE.INTRA.SOLV>
-0.759516

>  <SCORE.INTRA.SOLV.lig_0>
-42.5944

>  <SCORE.INTRA.VDW>
0.0782339

>  <SCORE.INTRA.VDW.0>
-1.067

>  <SCORE.INTRA.norm>
-0.125974

>  <SCORE.RESTR>
0

>  <SCORE.RESTR.CAVITY>
0

>  <SCORE.RESTR.norm>
0

>  <SCORE.SYSTEM>
0

>  <SCORE.SYSTEM.CONST>
0

>  <SCORE.SYSTEM.DIHEDRAL>
0

>  <SCORE.SYSTEM.SOLV>
0

>  <SCORE.SYSTEM.norm>
0

>  <SCORE.heavy>
16

>  <SCORE.norm>
-1.82605

>  <RMSD>
1.186

$$$$
1f27 biotin aptamer (Xray 1.3A)
 OpenBabel11021811393D
libRbt.so/2013.1/901 2013/11/27
 16 17  0  0  0  0  0  0  0  0999 V2000
   21.0006   -1.3776   13.8496 C   0  0  0  0  0  0  0  0  0  0  0  0
   20.2481   -2.1943   14.3712 O   0  5  0  0  0  0  0  0  0  0  0  0
   21.5060   -1.6229   12.7557 O   0  0  0  0  0  0  0  0  0  0  0  0
   21.2549   -0.0343   14.5217 C   0  0  0  0  0  0  0  0  0  0  0  0
   20.3273    1.0990   14.0298 C   0  0  0  0  0  0  0  0  0  0  0  0
   18.8719    0.8100   14.3480 C   0  0  0  0  0  0  0  0  0  0  0  0
   17.9253    1.9009   13.8925 C   0  0  0  0  0  0  0  0  0  0  0  0
   16.4403    1.6136   14.1503 C   0  0  2  0  0  0  0  0  0  0  0  0
   15.7801   -0.0502   13.4706 S   0  0  0  0  0  0  0  0  0  0  0  0
   14.0287    0.6494   13.7674 C   0  0  0  0  0  0  0  0  0  0  0  0
   14.1423    2.1689   13.4487 C   0  0  2  0  0  0  0  0  0  0  0  0
   13.8082    2.3060   11.9392 N   0  0  0  0  0  0  0  0  0  0  0  0
   14.7485    2.8068   11.2623 C   0  0  0  0  0  0  0  0  0  0  0  0
   14.8899    2.9166    9.9928 O   0  0  0  0  0  0  0  0  0  0  0  0
   15.9706    2.9874   12.0115 N   0  0  0  0  0  0  0  0  0  0  0  0
   15.5770    2.6676   13.4533 C   0  0  2  0  0  0  0  0  0  0  0  0
  1  2  1  0  0  0  0
  1  3  2  0  0  0  0
  1  4  1  0  0  0  0
  4  5  1  0  0  0  0
  5  6  1  0  0  0  0
  6  7  1  0  0  0  0
  8  7  1  6  0  0  0
  8  9  1  0  0  0  0
  8 16  1  0  0  0  0
  9 10  1  0  0  0  0
 11 10  1  6  0  0  0
 11 12  1  0  0  0  0
 11 16  1  0  0  0  0
 12 13  1  0  0  0  0
 13 14  2  0  0  0  0
 13 15  1  0  0  0  0
 16 15  1  6  0  0  0
M  CHG  1   2  -1
M  END
>  <CHROM.1>
-93.74087084,62.99759361,179.57283383,177.71023805,-53.39915424,17.20412924
0.93155047,13.19496455,-0.51963775,0.10607481,-0.69379583

>  <Name>
1f27 biotin aptamer (Xray 1.3A)

>  <RI>
0

>  <Rbt.Current_Directory>
/home/itssahil/PROJECTS/Mol_Feturizer/New_Systems/rnas/1f27

>  <Rbt.Executable>
rbdock ($Id: //depot/dev/client3/rdock/2013.1/src/exe/rbdock.cxx#4 $)

>  <Rbt.Library>
libRbt.so (2013.1, Build901 2013/11/27)

>  <Rbt.Parameter_File>
/export/apps/rDock/src/rDock_2013.1_src/data/scripts/dock_solv.prm

>  <Rbt.Receptor>
prm/pocket_docking_2.prm

>  <SCORE>
-30.6331

>  <SCORE.INTER>
-28.1351

>  <SCORE.INTER.CONST>
1

>  <SCORE.INTER.POLAR>
-1.77763

>  <SCORE.INTER.ROT>
5

>  <SCORE.INTER.SOLV>
8.98471

>  <SCORE.INTER.VDW>
-22.7596

>  <SCORE.INTER.norm>
-1.75844

>  <SCORE.INTRA>
-2.49801

>  <SCORE.INTRA.DIHEDRAL>
-5.37108

>  <SCORE.INTRA.DIHEDRAL.0>
6.87082

>  <SCORE.INTRA.POLAR>
0

>  <SCORE.INTRA.POLAR.0>
0

>  <SCORE.INTRA.REPUL>
0

>  <SCORE.INTRA.REPUL.0>
0

>  <SCORE.INTRA.SOLV>
0.160801

>  <SCORE.INTRA.SOLV.lig_0>
-42.5944

>  <SCORE.INTRA.VDW>
0.10713

>  <SCORE.INTRA.VDW.0>
-1.067

>  <SCORE.INTRA.norm>
-0.156126

>  <SCORE.RESTR>
0

>  <SCORE.RESTR.CAVITY>
0

>  <SCORE.RESTR.norm>
0

>  <SCORE.SYSTEM>
0

>  <SCORE.SYSTEM.CONST>
0

>  <SCORE.SYSTEM.DIHEDRAL>
0

>  <SCORE.SYSTEM.SOLV>
0

>  <SCORE.SYSTEM.norm>
0

>  <SCORE.heavy>
16

>  <SCORE.norm>
-1.91457

>  <RMSD>
1.200

$$$$
1f27 biotin aptamer (Xray 1.3A)
 OpenBabel11021811393D
libRbt.so/2013.1/901 2013/11/27
 16 17  0  0  0  0  0  0  0  0999 V2000
   21.0883   -1.3613   14.0191 C   0  0  0  0  0  0  0  0  0  0  0  0
   21.8315   -1.6918   13.1005 O   0  5  0  0  0  0  0  0  0  0  0  0
   20.2512   -2.1554   14.4446 O   0  0  0  0  0  0  0  0  0  0  0  0
   21.2466    0.0034   14.6772 C   0  0  0  0  0  0  0  0  0  0  0  0
   20.3263    1.0951   14.0871 C   0  0  0  0  0  0  0  0  0  0  0  0
   18.8672    0.8342   14.4124 C   0  0  0  0  0  0  0  0  0  0  0  0
   17.9317    1.9084   13.8982 C   0  0  0  0  0  0  0  0  0  0  0  0
   16.4434    1.6479   14.1657 C   0  0  2  0  0  0  0  0  0  0  0  0
   15.7561   -0.0172   13.5171 S   0  0  0  0  0  0  0  0  0  0  0  0
   14.0164    0.7136   13.8073 C   0  0  0  0  0  0  0  0  0  0  0  0
   14.1516    2.2255   13.4621 C   0  0  2  0  0  0  0  0  0  0  0  0
   13.8143    2.3416   11.9515 N   0  0  0  0  0  0  0  0  0  0  0  0
   14.7596    2.8164   11.2630 C   0  0  0  0  0  0  0  0  0  0  0  0
   14.8983    2.9022    9.9913 O   0  0  0  0  0  0  0  0  0  0  0  0
   15.9869    2.9916   12.0050 N   0  0  0  0  0  0  0  0  0  0  0  0
   15.5936    2.7026   13.4534 C   0  0  2  0  0  0  0  0  0  0  0  0
  1  2  1  0  0  0  0
  1  3  2  0  0  0  0
  1  4  1  0  0  0  0
  4  5  1  0  0  0  0
  5  6  1  0  0  0  0
  6  7  1  0  0  0  0
  8  7  1  6  0  0  0
  8  9  1  0  0  0  0
  8 16  1  0  0  0  0
  9 10  1  0  0  0  0
 11 10  1  6  0  0  0
 11 12  1  0  0  0  0
 11 16  1  0  0  0  0
 12 13  1  0  0  0  0
 13 14  2  0  0  0  0
 13 15  1  0  0  0  0
 16 15  1  6  0  0  0
M  CHG  1   2  -1
M  END
>  <CHROM.1>
94.45656425,68.49441074,177.80834082,177.84095839,-55.43057049,17.22977293
0.95087517,13.25742040,-0.52542993,0.09536502,-0.70110946

>  <Name>
1f27 biotin aptamer (Xray 1.3A)

>  <RI>
0

>  <Rbt.Current_Directory>
/home/itssahil/PROJECTS/Mol_Feturizer/New_Systems/rnas/1f27

>  <Rbt.Executable>
rbdock ($Id: //depot/dev/client3/rdock/2013.1/src/exe/rbdock.cxx#4 $)

>  <Rbt.Library>
libRbt.so (2013.1, Build901 2013/11/27)

>  <Rbt.Parameter_File>
/export/apps/rDock/src/rDock_2013.1_src/data/scripts/dock_solv.prm

>  <Rbt.Receptor>
prm/pocket_docking_2.prm

>  <SCORE>
-30.738

>  <SCORE.INTER>
-28.2956

>  <SCORE.INTER.CONST>
1

>  <SCORE.INTER.POLAR>
-1.77163

>  <SCORE.INTER.ROT>
5

>  <SCORE.INTER.SOLV>
8.69477

>  <SCORE.INTER.VDW>
-22.7899

>  <SCORE.INTER.norm>
-1.76847

>  <SCORE.INTRA>
-2.45201

>  <SCORE.INTRA.DIHEDRAL>
-5.01088

>  <SCORE.INTRA.DIHEDRAL.0>
6.87082

>  <SCORE.INTRA.POLAR>
0

>  <SCORE.INTRA.POLAR.0>
0

>  <SCORE.INTRA.REPUL>
0

>  <SCORE.INTRA.REPUL.0>
0

>  <SCORE.INTRA.SOLV>
0.0568728

>  <SCORE.INTRA.SOLV.lig_0>
-42.5944

>  <SCORE.INTRA.VDW>
0.0249995

>  <SCORE.INTRA.VDW.0>
-1.067

>  <SCORE.INTRA.norm>
-0.15325

>  <SCORE.RESTR>
0.00954377

>  <SCORE.RESTR.CAVITY>
0.00954377

>  <SCORE.RESTR.norm>
0.000596485

>  <SCORE.SYSTEM>
0

>  <SCORE.SYSTEM.CONST>
0

>  <SCORE.SYSTEM.DIHEDRAL>
0

>  <SCORE.SYSTEM.SOLV>
0

>  <SCORE.SYSTEM.norm>
0

>  <SCORE.heavy>
16

>  <SCORE.norm>
-1.92113

>  <RMSD>
1.216

$$$$
1f27 biotin aptamer (Xray 1.3A)
 OpenBabel11021811393D
libRbt.so/2013.1/901 2013/11/27
 16 17  0  0  0  0  0  0  0  0999 V2000
   20.6498   -1.8866   13.5195 C   0  0  0  0  0  0  0  0  0  0  0  0
   21.2884   -2.9282   13.6315 O   0  5  0  0  0  0  0  0  0  0  0  0
   21.2417   -0.8204   13.3600 O   0  0  0  0  0  0  0  0  0  0  0  0
   19.1269   -1.9207   13.5092 C   0  0  0  0  0  0  0  0  0  0  0  0
   18.4723   -0.5883   13.0814 C   0  0  0  0  0  0  0  0  0  0  0  0
   18.6392    0.4841   14.1420 C   0  0  0  0  0  0  0  0  0  0  0  0
   17.8072    1.7232   13.8849 C   0  0  0  0  0  0  0  0  0  0  0  0
   16.3031    1.5521   14.1356 C   0  0  2  0  0  0  0  0  0  0  0  0
   15.5252   -0.0698   13.4799 S   0  0  0  0  0  0  0  0  0  0  0  0
   13.8289    0.7637   13.7501 C   0  0  0  0  0  0  0  0  0  0  0  0
   14.0579    2.2644   13.4058 C   0  0  2  0  0  0  0  0  0  0  0  0
   13.7451    2.3987   11.8914 N   0  0  0  0  0  0  0  0  0  0  0  0
   14.7248    2.8157   11.2135 C   0  0  0  0  0  0  0  0  0  0  0  0
   14.8827    2.8917    9.9434 O   0  0  0  0  0  0  0  0  0  0  0  0
   15.9519    2.9182   11.9693 N   0  0  0  0  0  0  0  0  0  0  0  0
   15.5257    2.6548   13.4133 C   0  0  2  0  0  0  0  0  0  0  0  0
  1  2  1  0  0  0  0
  1  3  2  0  0  0  0
  1  4  1  0  0  0  0
  4  5  1  0  0  0  0
  5  6  1  0  0  0  0
  6  7  1  0  0  0  0
  8  7  1  6  0  0  0
  8  9  1  0  0  0  0
  8 16  1  0  0  0  0
  9 10  1  0  0  0  0
 11 10  1  6  0  0  0
 11 12  1  0  0  0  0
 11 16  1  0  0  0  0
 12 13  1  0  0  0  0
 13 14  2  0  0  0  0
 13 15  1  0  0  0  0
 16 15  1  6  0  0  0
M  CHG  1   2  -1
M  END
>  <CHROM.1>
-168.37055822,-70.71215776,-169.56442039,73.25146484,-43.22681588,16.92160493
0.68122291,13.02820780,-0.56310680,0.28365347,-0.75850642

>  <Name>
1f27 biotin aptamer (Xray 1.3A)

>  <RI>
0

>  <Rbt.Current_Directory>
/home/itssahil/PROJECTS/Mol_Feturizer/New_Systems/rnas/1f27

>  <Rbt.Executable>
rbdock ($Id: //depot/dev/client3/rdock/2013.1/src/exe/rbdock.cxx#4 $)

>  <Rbt.Library>
libRbt.so (2013.1, Build901 2013/11/27)

>  <Rbt.Parameter_File>
/export/apps/rDock/src/rDock_2013.1_src/data/scripts/dock_solv.prm

>  <Rbt.Receptor>
prm/pocket_docking_2.prm

>  <SCORE>
-26.9779

>  <SCORE.INTER>
-27.4852

>  <SCORE.INTER.CONST>
1

>  <SCORE.INTER.POLAR>
-1.77583

>  <SCORE.INTER.ROT>
5

>  <SCORE.INTER.SOLV>
8.51938

>  <SCORE.INTER.VDW>
-22.1772

>  <SCORE.INTER.norm>
-1.71783

>  <SCORE.INTRA>
0.507304

>  <SCORE.INTRA.DIHEDRAL>
-2.81288

>  <SCORE.INTRA.DIHEDRAL.0>
6.87082

>  <SCORE.INTRA.POLAR>
0

>  <SCORE.INTRA.POLAR.0>
0

>  <SCORE.INTRA.REPUL>
0

>  <SCORE.INTRA.REPUL.0>
0

>  <SCORE.INTRA.SOLV>
0.455673

>  <SCORE.INTRA.SOLV.lig_0>
-42.5944

>  <SCORE.INTRA.VDW>
1.68591

>  <SCORE.INTRA.VDW.0>
-1.067

>  <SCORE.INTRA.norm>
0.0317065

>  <SCORE.RESTR>
0

>  <SCORE.RESTR.CAVITY>
0

>  <SCORE.RESTR.norm>
0

>  <SCORE.SYSTEM>
0

>  <SCORE.SYSTEM.CONST>
0

>  <SCORE.SYSTEM.DIHEDRAL>
0

>  <SCORE.SYSTEM.SOLV>
0

>  <SCORE.SYSTEM.norm>
0

>  <SCORE.heavy>
16

>  <SCORE.norm>
-1.68612

>  <RMSD>
1.217

$$$$
1f27 biotin aptamer (Xray 1.3A)
 OpenBabel11021811393D
libRbt.so/2013.1/901 2013/11/27
 16 17  0  0  0  0  0  0  0  0999 V2000
   21.2856   -1.0057   13.2351 C   0  0  0  0  0  0  0  0  0  0  0  0
   21.9865   -1.3672   14.1750 O   0  5  0  0  0  0  0  0  0  0  0  0
   21.7923   -0.4026   12.2906 O   0  0  0  0  0  0  0  0  0  0  0  0
   19.8048   -1.3617   13.2045 C   0  0  0  0  0  0  0  0  0  0  0  0
   18.8767   -0.1615   12.9127 C   0  0  0  0  0  0  0  0  0  0  0  0
   18.8043    0.7907   14.0921 C   0  0  0  0  0  0  0  0  0  0  0  0
   17.8712    1.9621   13.8669 C   0  0  0  0  0  0  0  0  0  0  0  0
   16.3887    1.6633   14.1262 C   0  0  2  0  0  0  0  0  0  0  0  0
   15.7369    0.0017   13.4333 S   0  0  0  0  0  0  0  0  0  0  0  0
   13.9821    0.6877   13.7413 C   0  0  0  0  0  0  0  0  0  0  0  0
   14.0854    2.2106   13.4362 C   0  0  2  0  0  0  0  0  0  0  0  0
   13.7460    2.3595   11.9289 N   0  0  0  0  0  0  0  0  0  0  0  0
   14.6813    2.8722   11.2540 C   0  0  0  0  0  0  0  0  0  0  0  0
   14.8184    2.9945    9.9851 O   0  0  0  0  0  0  0  0  0  0  0  0
   15.9044    3.0536   12.0014 N   0  0  0  0  0  0  0  0  0  0  0  0
   15.5169    2.7182   13.4413 C   0  0  2  0  0  0  0  0  0  0  0  0
  1  2  1  0  0  0  0
  1  3  2  0  0  0  0
  1  4  1  0  0  0  0
  4  5  1  0  0  0  0
  5  6  1  0  0  0  0
  6  7  1  0  0  0  0
  8  7  1  6  0  0  0
  8  9  1  0  0  0  0
  8 16  1  0  0  0  0
  9 10  1  0  0  0  0
 11 10  1  6  0  0  0
 11 12  1  0  0  0  0
 11 16  1  0  0  0  0
 12 13  1  0  0  0  0
 13 14  2  0  0  0  0
 13 15  1  0  0  0  0
 16 15  1  6  0  0  0
M  CHG  1   2  -1
M  END
>  <CHROM.1>
130.46667590,-71.74989022,-178.22222850,82.24905007,-43.64590947,17.14374336
0.97017219,12.95338244,-0.39769813,0.26033901,-0.89998394

>  <Name>
1f27 biotin aptamer (Xray 1.3A)

>  <RI>
0

>  <Rbt.Current_Directory>
/home/itssahil/PROJECTS/Mol_Feturizer/New_Systems/rnas/1f27

>  <Rbt.Executable>
rbdock ($Id: //depot/dev/client3/rdock/2013.1/src/exe/rbdock.cxx#4 $)

>  <Rbt.Library>
libRbt.so (2013.1, Build901 2013/11/27)

>  <Rbt.Parameter_File>
/export/apps/rDock/src/rDock_2013.1_src/data/scripts/dock_solv.prm

>  <Rbt.Receptor>
prm/pocket_docking_7.prm

>  <SCORE>
-32.1282

>  <SCORE.INTER>
-31.4971

>  <SCORE.INTER.CONST>
1

>  <SCORE.INTER.POLAR>
-2.68832

>  <SCORE.INTER.ROT>
5

>  <SCORE.INTER.SOLV>
12.1559

>  <SCORE.INTER.VDW>
-23.0223

>  <SCORE.INTER.norm>
-1.96857

>  <SCORE.INTRA>
-0.631035

>  <SCORE.INTRA.DIHEDRAL>
-2.17061

>  <SCORE.INTRA.DIHEDRAL.0>
6.87082

>  <SCORE.INTRA.POLAR>
0

>  <SCORE.INTRA.POLAR.0>
0

>  <SCORE.INTRA.REPUL>
0

>  <SCORE.INTRA.REPUL.0>
0

>  <SCORE.INTRA.SOLV>
0.138941

>  <SCORE.INTRA.SOLV.lig_0>
-42.5944

>  <SCORE.INTRA.VDW>
0.3848

>  <SCORE.INTRA.VDW.0>
-1.067

>  <SCORE.INTRA.norm>
-0.0394397

>  <SCORE.RESTR>
0

>  <SCORE.RESTR.CAVITY>
0

>  <SCORE.RESTR.norm>
0

>  <SCORE.SYSTEM>
0

>  <SCORE.SYSTEM.CONST>
0

>  <SCORE.SYSTEM.DIHEDRAL>
0

>  <SCORE.SYSTEM.SOLV>
0

>  <SCORE.SYSTEM.norm>
0

>  <SCORE.heavy>
16

>  <SCORE.norm>
-2.00801

>  <RMSD>
1.218

$$$$
1f27 biotin aptamer (Xray 1.3A)
 OpenBabel11021811393D
libRbt.so/2013.1/901 2013/11/27
 16 17  0  0  0  0  0  0  0  0999 V2000
   21.0632   -1.3653   14.1088 C   0  0  0  0  0  0  0  0  0  0  0  0
   21.8980   -1.8589   13.3574 O   0  5  0  0  0  0  0  0  0  0  0  0
   20.0890   -2.0282   14.4608 O   0  0  0  0  0  0  0  0  0  0  0  0
   21.2666    0.0404   14.6596 C   0  0  0  0  0  0  0  0  0  0  0  0
   20.3292    1.0996   14.0381 C   0  0  0  0  0  0  0  0  0  0  0  0
   18.8839    0.8756   14.4429 C   0  0  0  0  0  0  0  0  0  0  0  0
   17.9321    1.9129   13.8846 C   0  0  0  0  0  0  0  0  0  0  0  0
   16.4474    1.6365   14.1562 C   0  0  2  0  0  0  0  0  0  0  0  0
   15.7700   -0.0247   13.4876 S   0  0  0  0  0  0  0  0  0  0  0  0
   14.0261    0.6878   13.7973 C   0  0  0  0  0  0  0  0  0  0  0  0
   14.1473    2.2054   13.4729 C   0  0  2  0  0  0  0  0  0  0  0  0
   13.8009    2.3401   11.9659 N   0  0  0  0  0  0  0  0  0  0  0  0
   14.7387    2.8323   11.2792 C   0  0  0  0  0  0  0  0  0  0  0  0
   14.8698    2.9373   10.0082 O   0  0  0  0  0  0  0  0  0  0  0  0
   15.9685    3.0069   12.0172 N   0  0  0  0  0  0  0  0  0  0  0  0
   15.5853    2.6943   13.4634 C   0  0  2  0  0  0  0  0  0  0  0  0
  1  2  1  0  0  0  0
  1  3  2  0  0  0  0
  1  4  1  0  0  0  0
  4  5  1  0  0  0  0
  5  6  1  0  0  0  0
  6  7  1  0  0  0  0
  8  7  1  6  0  0  0
  8  9  1  0  0  0  0
  8 16  1  0  0  0  0
  9 10  1  0  0  0  0
 11 10  1  6  0  0  0
 11 12  1  0  0  0  0
 11 16  1  0  0  0  0
 12 13  1  0  0  0  0
 13 14  2  0  0  0  0
 13 15  1  0  0  0  0
 16 15  1  6  0  0  0
M  CHG  1   2  -1
M  END
>  <CHROM.1>
107.55782502,68.09033812,178.52647000,174.09136868,-58.52051361,17.22158631
0.95246788,13.27663472,0.53610224,-0.05450834,2.49729052

>  <Name>
1f27 biotin aptamer (Xray 1.3A)

>  <RI>
0

>  <Rbt.Current_Directory>
/home/itssahil/PROJECTS/Mol_Feturizer/New_Systems/rnas/1f27

>  <Rbt.Executable>
rbdock ($Id: //depot/dev/client3/rdock/2013.1/src/exe/rbdock.cxx#4 $)

>  <Rbt.Library>
libRbt.so (2013.1, Build901 2013/11/27)

>  <Rbt.Parameter_File>
/export/apps/rDock/src/rDock_2013.1_src/data/scripts/dock_solv.prm

>  <Rbt.Receptor>
prm/pocket_docking_2.prm

>  <SCORE>
-30.7618

>  <SCORE.INTER>
-28.3535

>  <SCORE.INTER.CONST>
1

>  <SCORE.INTER.POLAR>
-1.76654

>  <SCORE.INTER.ROT>
5

>  <SCORE.INTER.SOLV>
8.39247

>  <SCORE.INTER.VDW>
-22.7447

>  <SCORE.INTER.norm>
-1.77209

>  <SCORE.INTRA>
-2.41116

>  <SCORE.INTRA.DIHEDRAL>
-5.0323

>  <SCORE.INTRA.DIHEDRAL.0>
6.87082

>  <SCORE.INTRA.POLAR>
0

>  <SCORE.INTRA.POLAR.0>
0

>  <SCORE.INTRA.REPUL>
0

>  <SCORE.INTRA.REPUL.0>
0

>  <SCORE.INTRA.SOLV>
0.149435

>  <SCORE.INTRA.SOLV.lig_0>
-42.5944

>  <SCORE.INTRA.VDW>
0.030275

>  <SCORE.INTRA.VDW.0>
-1.067

>  <SCORE.INTRA.norm>
-0.150697

>  <SCORE.RESTR>
0.00283808

>  <SCORE.RESTR.CAVITY>
0.00283808

>  <SCORE.RESTR.norm>
0.00017738

>  <SCORE.SYSTEM>
0

>  <SCORE.SYSTEM.CONST>
0

>  <SCORE.SYSTEM.DIHEDRAL>
0

>  <SCORE.SYSTEM.SOLV>
0

>  <SCORE.SYSTEM.norm>
0

>  <SCORE.heavy>
16

>  <SCORE.norm>
-1.92261

>  <RMSD>
1.220

$$$$
1f27 biotin aptamer (Xray 1.3A)
 OpenBabel11021811393D
libRbt.so/2013.1/901 2013/11/27
 16 17  0  0  0  0  0  0  0  0999 V2000
   20.4616   -2.2581   13.2065 C   0  0  0  0  0  0  0  0  0  0  0  0
   21.0966   -2.6306   12.2250 O   0  5  0  0  0  0  0  0  0  0  0  0
   19.9868   -3.0888   13.9792 O   0  0  0  0  0  0  0  0  0  0  0  0
   20.3192   -0.7713   13.5058 C   0  0  0  0  0  0  0  0  0  0  0  0
   18.9672   -0.3870   14.1473 C   0  0  0  0  0  0  0  0  0  0  0  0
   18.9555    1.0595   14.6059 C   0  0  0  0  0  0  0  0  0  0  0  0
   17.9673    1.9247   13.8519 C   0  0  0  0  0  0  0  0  0  0  0  0
   16.4919    1.5949   14.1141 C   0  0  2  0  0  0  0  0  0  0  0  0
   15.8733   -0.0792   13.4209 S   0  0  0  0  0  0  0  0  0  0  0  0
   14.1053    0.5698   13.7334 C   0  0  0  0  0  0  0  0  0  0  0  0
   14.1762    2.0948   13.4296 C   0  0  2  0  0  0  0  0  0  0  0  0
   13.8306    2.2380   11.9232 N   0  0  0  0  0  0  0  0  0  0  0  0
   14.7535    2.7707   11.2468 C   0  0  0  0  0  0  0  0  0  0  0  0
   14.8854    2.8971    9.9778 O   0  0  0  0  0  0  0  0  0  0  0  0
   15.9742    2.9768   11.9918 N   0  0  0  0  0  0  0  0  0  0  0  0
   15.5969    2.6321   13.4322 C   0  0  2  0  0  0  0  0  0  0  0  0
  1  2  1  0  0  0  0
  1  3  2  0  0  0  0
  1  4  1  0  0  0  0
  4  5  1  0  0  0  0
  5  6  1  0  0  0  0
  6  7  1  0  0  0  0
  8  7  1  6  0  0  0
  8  9  1  0  0  0  0
  8 16  1  0  0  0  0
  9 10  1  0  0  0  0
 11 10  1  6  0  0  0
 11 12  1  0  0  0  0
 11 16  1  0  0  0  0
 12 13  1  0  0  0  0
 13 14  2  0  0  0  0
 13 15  1  0  0  0  0
 16 15  1  6  0  0  0
M  CHG  1   2  -1
M  END
>  <CHROM.1>
146.18832489,171.77734975,114.91785336,67.88529432,-69.06979822,17.03217703
0.62743065,13.04673471,-0.47734861,0.49372482,-1.03959959

>  <Name>
1f27 biotin aptamer (Xray 1.3A)

>  <RI>
0

>  <Rbt.Current_Directory>
/home/itssahil/PROJECTS/Mol_Feturizer/New_Systems/rnas/1f27

>  <Rbt.Executable>
rbdock ($Id: //depot/dev/client3/rdock/2013.1/src/exe/rbdock.cxx#4 $)

>  <Rbt.Library>
libRbt.so (2013.1, Build901 2013/11/27)

>  <Rbt.Parameter_File>
/export/apps/rDock/src/rDock_2013.1_src/data/scripts/dock_solv.prm

>  <Rbt.Receptor>
prm/pocket_docking_2.prm

>  <SCORE>
-26.424

>  <SCORE.INTER>
-27.2123

>  <SCORE.INTER.CONST>
1

>  <SCORE.INTER.POLAR>
-1.75284

>  <SCORE.INTER.ROT>
5

>  <SCORE.INTER.SOLV>
8.14028

>  <SCORE.INTER.VDW>
-21.9455

>  <SCORE.INTER.norm>
-1.70077

>  <SCORE.INTRA>
0.788233

>  <SCORE.INTRA.DIHEDRAL>
1.21999

>  <SCORE.INTRA.DIHEDRAL.0>
6.87082

>  <SCORE.INTRA.POLAR>
0

>  <SCORE.INTRA.POLAR.0>
0

>  <SCORE.INTRA.REPUL>
0

>  <SCORE.INTRA.REPUL.0>
0

>  <SCORE.INTRA.SOLV>
-0.717124

>  <SCORE.INTRA.SOLV.lig_0>
-42.5944

>  <SCORE.INTRA.VDW>
0.536802

>  <SCORE.INTRA.VDW.0>
-1.067

>  <SCORE.INTRA.norm>
0.0492646

>  <SCORE.RESTR>
0

>  <SCORE.RESTR.CAVITY>
0

>  <SCORE.RESTR.norm>
0

>  <SCORE.SYSTEM>
0

>  <SCORE.SYSTEM.CONST>
0

>  <SCORE.SYSTEM.DIHEDRAL>
0

>  <SCORE.SYSTEM.SOLV>
0

>  <SCORE.SYSTEM.norm>
0

>  <SCORE.heavy>
16

>  <SCORE.norm>
-1.6515

>  <RMSD>
1.232

$$$$
1f27 biotin aptamer (Xray 1.3A)
 OpenBabel11021811393D
libRbt.so/2013.1/901 2013/11/27
 16 17  0  0  0  0  0  0  0  0999 V2000
   20.2413   -1.8478   14.1525 C   0  0  0  0  0  0  0  0  0  0  0  0
   20.8289   -1.9107   13.0773 O   0  5  0  0  0  0  0  0  0  0  0  0
   19.5006   -2.7662   14.4995 O   0  0  0  0  0  0  0  0  0  0  0  0
   20.4804   -0.6684   15.0866 C   0  0  0  0  0  0  0  0  0  0  0  0
   19.3211    0.3525   15.1177 C   0  0  0  0  0  0  0  0  0  0  0  0
   19.0754    0.9634   13.7505 C   0  0  0  0  0  0  0  0  0  0  0  0
   18.0413    2.0698   13.7598 C   0  0  0  0  0  0  0  0  0  0  0  0
   16.6040    1.6052   14.0294 C   0  0  2  0  0  0  0  0  0  0  0  0
   16.0999   -0.0605   13.2313 S   0  0  0  0  0  0  0  0  0  0  0  0
   14.2955    0.4213   13.6278 C   0  0  0  0  0  0  0  0  0  0  0  0
   14.2384    1.9647   13.4329 C   0  0  2  0  0  0  0  0  0  0  0  0
   13.8416    2.1847   11.9485 N   0  0  0  0  0  0  0  0  0  0  0  0
   14.7012    2.8357   11.2923 C   0  0  0  0  0  0  0  0  0  0  0  0
   14.7880    3.0606   10.0331 O   0  0  0  0  0  0  0  0  0  0  0  0
   15.9218    3.0863   12.0236 N   0  0  0  0  0  0  0  0  0  0  0  0
   15.6121    2.6125   13.4434 C   0  0  2  0  0  0  0  0  0  0  0  0
  1  2  1  0  0  0  0
  1  3  2  0  0  0  0
  1  4  1  0  0  0  0
  4  5  1  0  0  0  0
  5  6  1  0  0  0  0
  6  7  1  0  0  0  0
  8  7  1  6  0  0  0
  8  9  1  0  0  0  0
  8 16  1  0  0  0  0
  9 10  1  0  0  0  0
 11 10  1  6  0  0  0
 11 12  1  0  0  0  0
 11 16  1  0  0  0  0
 12 13  1  0  0  0  0
 13 14  2  0  0  0  0
 13 15  1  0  0  0  0
 16 15  1  6  0  0  0
M  CHG  1   2  -1
M  END
>  <CHROM.1>
105.19203497,-60.65822984,-174.24910303,-69.16206847,-38.21930250,17.05193005
0.77172343,13.25074399,0.68099799,0.11554822,2.73336928

>  <Name>
1f27 biotin aptamer (Xray 1.3A)

>  <RI>
0

>  <Rbt.Current_Directory>
/home/itssahil/PROJECTS/Mol_Feturizer/New_Systems/rnas/1f27

>  <Rbt.Executable>
rbdock ($Id: //depot/dev/client3/rdock/2013.1/src/exe/rbdock.cxx#4 $)

>  <Rbt.Library>
libRbt.so (2013.1, Build901 2013/11/27)

>  <Rbt.Parameter_File>
/export/apps/rDock/src/rDock_2013.1_src/data/scripts/dock_solv.prm

>  <Rbt.Receptor>
prm/pocket_docking_2.prm

>  <SCORE>
-27.0901

>  <SCORE.INTER>
-25.7947

>  <SCORE.INTER.CONST>
1

>  <SCORE.INTER.POLAR>
-1.66959

>  <SCORE.INTER.ROT>
5

>  <SCORE.INTER.SOLV>
7.79984

>  <SCORE.INTER.VDW>
-21.1644

>  <SCORE.INTER.norm>
-1.61217

>  <SCORE.INTRA>
-1.29547

>  <SCORE.INTRA.DIHEDRAL>
-3.21643

>  <SCORE.INTRA.DIHEDRAL.0>
6.87082

>  <SCORE.INTRA.POLAR>
0

>  <SCORE.INTRA.POLAR.0>
0

>  <SCORE.INTRA.REPUL>
0

>  <SCORE.INTRA.REPUL.0>
0

>  <SCORE.INTRA.SOLV>
0.278703

>  <SCORE.INTRA.SOLV.lig_0>
-42.5944

>  <SCORE.INTRA.VDW>
0.173395

>  <SCORE.INTRA.VDW.0>
-1.067

>  <SCORE.INTRA.norm>
-0.0809668

>  <SCORE.RESTR>
0

>  <SCORE.RESTR.CAVITY>
0

>  <SCORE.RESTR.norm>
0

>  <SCORE.SYSTEM>
0

>  <SCORE.SYSTEM.CONST>
0

>  <SCORE.SYSTEM.DIHEDRAL>
0

>  <SCORE.SYSTEM.SOLV>
0

>  <SCORE.SYSTEM.norm>
0

>  <SCORE.heavy>
16

>  <SCORE.norm>
-1.69313

>  <RMSD>
1.234

$$$$
1f27 biotin aptamer (Xray 1.3A)
 OpenBabel11021811393D
libRbt.so/2013.1/901 2013/11/27
 16 17  0  0  0  0  0  0  0  0999 V2000
   21.0270   -1.3771   14.0535 C   0  0  0  0  0  0  0  0  0  0  0  0
   20.1163   -2.0926   14.4584 O   0  5  0  0  0  0  0  0  0  0  0  0
   21.7280   -1.7515   13.1149 O   0  0  0  0  0  0  0  0  0  0  0  0
   21.2467    0.0005   14.6654 C   0  0  0  0  0  0  0  0  0  0  0  0
   20.3236    1.0974   14.0894 C   0  0  0  0  0  0  0  0  0  0  0  0
   18.8669    0.8376   14.4259 C   0  0  0  0  0  0  0  0  0  0  0  0
   17.9254    1.8988   13.8956 C   0  0  0  0  0  0  0  0  0  0  0  0
   16.4387    1.6343   14.1674 C   0  0  2  0  0  0  0  0  0  0  0  0
   15.7503   -0.0257   13.5071 S   0  0  0  0  0  0  0  0  0  0  0  0
   14.0111    0.7006   13.8115 C   0  0  0  0  0  0  0  0  0  0  0  0
   14.1431    2.2156   13.4790 C   0  0  2  0  0  0  0  0  0  0  0  0
   13.7990    2.3447   11.9710 N   0  0  0  0  0  0  0  0  0  0  0  0
   14.7408    2.8266   11.2826 C   0  0  0  0  0  0  0  0  0  0  0  0
   14.8737    2.9238   10.0111 O   0  0  0  0  0  0  0  0  0  0  0  0
   15.9712    2.9966   12.0207 N   0  0  0  0  0  0  0  0  0  0  0  0
   15.5845    2.6943   13.4682 C   0  0  2  0  0  0  0  0  0  0  0  0
  1  2  1  0  0  0  0
  1  3  2  0  0  0  0
  1  4  1  0  0  0  0
  4  5  1  0  0  0  0
  5  6  1  0  0  0  0
  6  7  1  0  0  0  0
  8  7  1  6  0  0  0
  8  9  1  0  0  0  0
  8 16  1  0  0  0  0
  9 10  1  0  0  0  0
 11 10  1  6  0  0  0
 11 12  1  0  0  0  0
 11 16  1  0  0  0  0
 12 13  1  0  0  0  0
 13 14  2  0  0  0  0
 13 15  1  0  0  0  0
 16 15  1  6  0  0  0
M  CHG  1   2  -1
M  END
>  <CHROM.1>
-81.97876904,65.35483917,179.26053310,177.50503832,-56.84974133,17.20380207
0.94878558,13.26621480,0.53176724,-0.08024963,2.46601842

>  <Name>
1f27 biotin aptamer (Xray 1.3A)

>  <RI>
0

>  <Rbt.Current_Directory>
/home/itssahil/PROJECTS/Mol_Feturizer/New_Systems/rnas/1f27

>  <Rbt.Executable>
rbdock ($Id: //depot/dev/client3/rdock/2013.1/src/exe/rbdock.cxx#4 $)

>  <Rbt.Library>
libRbt.so (2013.1, Build901 2013/11/27)

>  <Rbt.Parameter_File>
/export/apps/rDock/src/rDock_2013.1_src/data/scripts/dock_solv.prm

>  <Rbt.Receptor>
prm/pocket_docking_2.prm

>  <SCORE>
-30.9395

>  <SCORE.INTER>
-28.3963

>  <SCORE.INTER.CONST>
1

>  <SCORE.INTER.POLAR>
-1.76617

>  <SCORE.INTER.ROT>
5

>  <SCORE.INTER.SOLV>
8.54255

>  <SCORE.INTER.VDW>
-22.8245

>  <SCORE.INTER.norm>
-1.77477

>  <SCORE.INTRA>
-2.55656

>  <SCORE.INTRA.DIHEDRAL>
-5.42863

>  <SCORE.INTRA.DIHEDRAL.0>
6.87082

>  <SCORE.INTRA.POLAR>
0

>  <SCORE.INTRA.POLAR.0>
0

>  <SCORE.INTRA.REPUL>
0

>  <SCORE.INTRA.REPUL.0>
0

>  <SCORE.INTRA.SOLV>
0.193176

>  <SCORE.INTRA.SOLV.lig_0>
-42.5944

>  <SCORE.INTRA.VDW>
0.0611736

>  <SCORE.INTRA.VDW.0>
-1.067

>  <SCORE.INTRA.norm>
-0.159785

>  <SCORE.RESTR>
0.0134074

>  <SCORE.RESTR.CAVITY>
0.0134074

>  <SCORE.RESTR.norm>
0.00083796

>  <SCORE.SYSTEM>
0

>  <SCORE.SYSTEM.CONST>
0

>  <SCORE.SYSTEM.DIHEDRAL>
0

>  <SCORE.SYSTEM.SOLV>
0

>  <SCORE.SYSTEM.norm>
0

>  <SCORE.heavy>
16

>  <SCORE.norm>
-1.93372

>  <RMSD>
1.236

$$$$
1f27 biotin aptamer (Xray 1.3A)
 OpenBabel11021811393D
libRbt.so/2013.1/901 2013/11/27
 16 17  0  0  0  0  0  0  0  0999 V2000
   21.2268   -1.5209   12.0911 C   0  0  0  0  0  0  0  0  0  0  0  0
   22.2638   -0.9640   11.7450 O   0  5  0  0  0  0  0  0  0  0  0  0
   20.8629   -2.5467   11.5187 O   0  0  0  0  0  0  0  0  0  0  0  0
   20.4273   -0.9831   13.2710 C   0  0  0  0  0  0  0  0  0  0  0  0
   19.5725    0.2594   12.9356 C   0  0  0  0  0  0  0  0  0  0  0  0
   18.8137    0.7620   14.1500 C   0  0  0  0  0  0  0  0  0  0  0  0
   17.8906    1.9239   13.8476 C   0  0  0  0  0  0  0  0  0  0  0  0
   16.4048    1.6529   14.1181 C   0  0  2  0  0  0  0  0  0  0  0  0
   15.7223   -0.0066   13.4503 S   0  0  0  0  0  0  0  0  0  0  0  0
   13.9805    0.7120   13.7580 C   0  0  0  0  0  0  0  0  0  0  0  0
   14.1071    2.2290   13.4323 C   0  0  2  0  0  0  0  0  0  0  0  0
   13.7625    2.3637   11.9249 N   0  0  0  0  0  0  0  0  0  0  0  0
   14.7026    2.8521   11.2387 C   0  0  0  0  0  0  0  0  0  0  0  0
   14.8352    2.9555    9.9677 O   0  0  0  0  0  0  0  0  0  0  0  0
   15.9324    3.0231   11.9777 N   0  0  0  0  0  0  0  0  0  0  0  0
   15.5468    2.7130   13.4238 C   0  0  2  0  0  0  0  0  0  0  0  0
  1  2  1  0  0  0  0
  1  3  2  0  0  0  0
  1  4  1  0  0  0  0
  4  5  1  0  0  0  0
  5  6  1  0  0  0  0
  6  7  1  0  0  0  0
  8  7  1  6  0  0  0
  8  9  1  0  0  0  0
  8 16  1  0  0  0  0
  9 10  1  0  0  0  0
 11 10  1  6  0  0  0
 11 12  1  0  0  0  0
 11 16  1  0  0  0  0
 12 13  1  0  0  0  0
 13 14  2  0  0  0  0
 13 15  1  0  0  0  0
 16 15  1  6  0  0  0
M  CHG  1   2  -1
M  END
>  <CHROM.1>
78.13952410,-179.23139233,-176.17464931,118.66804683,-46.57406056,17.18210474
0.86772986,12.69174810,-0.20165156,0.45464161,-1.11842671

>  <Name>
1f27 biotin aptamer (Xray 1.3A)

>  <RI>
0

>  <Rbt.Current_Directory>
/home/itssahil/PROJECTS/Mol_Feturizer/New_Systems/rnas/1f27

>  <Rbt.Executable>
rbdock ($Id: //depot/dev/client3/rdock/2013.1/src/exe/rbdock.cxx#4 $)

>  <Rbt.Library>
libRbt.so (2013.1, Build901 2013/11/27)

>  <Rbt.Parameter_File>
/export/apps/rDock/src/rDock_2013.1_src/data/scripts/dock_solv.prm

>  <Rbt.Receptor>
prm/blind_docking_40.prm

>  <SCORE>
-30.7694

>  <SCORE.INTER>
-31.3478

>  <SCORE.INTER.CONST>
1

>  <SCORE.INTER.POLAR>
-2.86995

>  <SCORE.INTER.ROT>
5

>  <SCORE.INTER.SOLV>
14.5231

>  <SCORE.INTER.VDW>
-23.1064

>  <SCORE.INTER.norm>
-1.95923

>  <SCORE.INTRA>
0.23252

>  <SCORE.INTRA.DIHEDRAL>
1.4595

>  <SCORE.INTRA.DIHEDRAL.0>
6.87082

>  <SCORE.INTRA.POLAR>
0

>  <SCORE.INTRA.POLAR.0>
0

>  <SCORE.INTRA.REPUL>
0

>  <SCORE.INTRA.REPUL.0>
0

>  <SCORE.INTRA.SOLV>
-0.800723

>  <SCORE.INTRA.SOLV.lig_0>
-42.5944

>  <SCORE.INTRA.VDW>
-0.0968702

>  <SCORE.INTRA.VDW.0>
-1.067

>  <SCORE.INTRA.norm>
0.0145325

>  <SCORE.RESTR>
0.345788

>  <SCORE.RESTR.CAVITY>
0.345788

>  <SCORE.RESTR.norm>
0.0216118

>  <SCORE.SYSTEM>
0

>  <SCORE.SYSTEM.CONST>
0

>  <SCORE.SYSTEM.DIHEDRAL>
0

>  <SCORE.SYSTEM.SOLV>
0

>  <SCORE.SYSTEM.norm>
0

>  <SCORE.heavy>
16

>  <SCORE.norm>
-1.92309

>  <RMSD>
1.251

$$$$
1f27 biotin aptamer (Xray 1.3A)
 OpenBabel11021811393D
libRbt.so/2013.1/901 2013/11/27
 16 17  0  0  0  0  0  0  0  0999 V2000
   21.4036   -1.7231   12.6961 C   0  0  0  0  0  0  0  0  0  0  0  0
   20.9961   -2.7376   12.1394 O   0  5  0  0  0  0  0  0  0  0  0  0
   22.4987   -1.2548   12.3894 O   0  0  0  0  0  0  0  0  0  0  0  0
   20.5274   -1.0057   13.7151 C   0  0  0  0  0  0  0  0  0  0  0  0
   19.7055    0.1617   13.1246 C   0  0  0  0  0  0  0  0  0  0  0  0
   18.6479    0.6506   14.0969 C   0  0  0  0  0  0  0  0  0  0  0  0
   17.8078    1.7880   13.5546 C   0  0  0  0  0  0  0  0  0  0  0  0
   16.3499    1.7963   14.0328 C   0  0  2  0  0  0  0  0  0  0  0  0
   15.3879    0.1558   13.8114 S   0  0  0  0  0  0  0  0  0  0  0  0
   13.8032    1.1682   14.1411 C   0  0  0  0  0  0  0  0  0  0  0  0
   14.0681    2.5558   13.4872 C   0  0  2  0  0  0  0  0  0  0  0  0
   13.5434    2.4393   12.0310 N   0  0  0  0  0  0  0  0  0  0  0  0
   14.4352    2.6396   11.1606 C   0  0  0  0  0  0  0  0  0  0  0  0
   14.4078    2.4695    9.8901 O   0  0  0  0  0  0  0  0  0  0  0  0
   15.7645    2.7711   11.7113 N   0  0  0  0  0  0  0  0  0  0  0  0
   15.5416    2.8124   13.2228 C   0  0  2  0  0  0  0  0  0  0  0  0
  1  2  1  0  0  0  0
  1  3  2  0  0  0  0
  1  4  1  0  0  0  0
  4  5  1  0  0  0  0
  5  6  1  0  0  0  0
  6  7  1  0  0  0  0
  8  7  1  6  0  0  0
  8  9  1  0  0  0  0
  8 16  1  0  0  0  0
  9 10  1  0  0  0  0
 11 10  1  1  0  0  0
 11 12  1  0  0  0  0
 11 16  1  0  0  0  0
 12 13  1  0  0  0  0
 13 14  2  0  0  0  0
 13 15  1  0  0  0  0
 16 15  1  6  0  0  0
M  CHG  1   2  -1
M  END
>  <CHROM.1>
-95.14347862,168.15832633,-179.46311041,146.76489841,-51.65057728,17.08891765
0.82910388,12.85993968,-0.21190854,0.44592907,-1.22486011

>  <Name>
1f27 biotin aptamer (Xray 1.3A)

>  <RI>
0

>  <Rbt.Current_Directory>
/home/itssahil/PROJECTS/Mol_Feturizer/New_Systems/rnas/1f27

>  <Rbt.Executable>
rbdock ($Id: //depot/dev/client3/rdock/2013.1/src/exe/rbdock.cxx#4 $)

>  <Rbt.Library>
libRbt.so (2013.1, Build901 2013/11/27)

>  <Rbt.Parameter_File>
/export/apps/rDock/src/rDock_2013.1_src/data/scripts/dock_solv.prm

>  <Rbt.Receptor>
prm/pocket_docking_2.prm

>  <SCORE>
-29.2694

>  <SCORE.INTER>
-28.4422

>  <SCORE.INTER.CONST>
1

>  <SCORE.INTER.POLAR>
-2.25305

>  <SCORE.INTER.ROT>
5

>  <SCORE.INTER.SOLV>
11.1268

>  <SCORE.INTER.VDW>
-22.0936

>  <SCORE.INTER.norm>
-1.77764

>  <SCORE.INTRA>
-1.05117

>  <SCORE.INTRA.DIHEDRAL>
-1.24342

>  <SCORE.INTRA.DIHEDRAL.0>
6.87082

>  <SCORE.INTRA.POLAR>
0

>  <SCORE.INTRA.POLAR.0>
0

>  <SCORE.INTRA.REPUL>
0

>  <SCORE.INTRA.REPUL.0>
0

>  <SCORE.INTRA.SOLV>
-0.794783

>  <SCORE.INTRA.SOLV.lig_0>
-42.5944

>  <SCORE.INTRA.VDW>
-0.0320736

>  <SCORE.INTRA.VDW.0>
-1.067

>  <SCORE.INTRA.norm>
-0.0656983

>  <SCORE.RESTR>
0.223993

>  <SCORE.RESTR.CAVITY>
0.223993

>  <SCORE.RESTR.norm>
0.0139996

>  <SCORE.SYSTEM>
0

>  <SCORE.SYSTEM.CONST>
0

>  <SCORE.SYSTEM.DIHEDRAL>
0

>  <SCORE.SYSTEM.SOLV>
0

>  <SCORE.SYSTEM.norm>
0

>  <SCORE.heavy>
16

>  <SCORE.norm>
-1.82933

>  <RMSD>
1.253

$$$$
1f27 biotin aptamer (Xray 1.3A)
 OpenBabel11021811393D
libRbt.so/2013.1/901 2013/11/27
 16 17  0  0  0  0  0  0  0  0999 V2000
   21.2410   -0.9344   13.2577 C   0  0  0  0  0  0  0  0  0  0  0  0
   21.8590   -1.1949   14.2851 O   0  5  0  0  0  0  0  0  0  0  0  0
   21.8325   -0.4502   12.2942 O   0  0  0  0  0  0  0  0  0  0  0  0
   19.7596   -1.2725   13.1500 C   0  0  0  0  0  0  0  0  0  0  0  0
   18.8544   -0.0490   12.8844 C   0  0  0  0  0  0  0  0  0  0  0  0
   18.7882    0.8713   14.0892 C   0  0  0  0  0  0  0  0  0  0  0  0
   17.8517    2.0466   13.9014 C   0  0  0  0  0  0  0  0  0  0  0  0
   16.3706    1.7365   14.1557 C   0  0  2  0  0  0  0  0  0  0  0  0
   15.7392    0.0602   13.4798 S   0  0  0  0  0  0  0  0  0  0  0  0
   13.9759    0.7327   13.7688 C   0  0  0  0  0  0  0  0  0  0  0  0
   14.0663    2.2527   13.4453 C   0  0  2  0  0  0  0  0  0  0  0  0
   13.7346    2.3794   11.9343 N   0  0  0  0  0  0  0  0  0  0  0  0
   14.6689    2.8928   11.2585 C   0  0  0  0  0  0  0  0  0  0  0  0
   14.8125    3.0006    9.9891 O   0  0  0  0  0  0  0  0  0  0  0  0
   15.8857    3.0954   12.0108 N   0  0  0  0  0  0  0  0  0  0  0  0
   15.4928    2.7742   13.4525 C   0  0  2  0  0  0  0  0  0  0  0  0
  1  2  1  0  0  0  0
  1  3  2  0  0  0  0
  1  4  1  0  0  0  0
  4  5  1  0  0  0  0
  5  6  1  0  0  0  0
  6  7  1  0  0  0  0
  8  7  1  6  0  0  0
  8  9  1  0  0  0  0
  8 16  1  0  0  0  0
  9 10  1  0  0  0  0
 11 10  1  6  0  0  0
 11 12  1  0  0  0  0
 11 16  1  0  0  0  0
 12 13  1  0  0  0  0
 13 14  2  0  0  0  0
 13 15  1  0  0  0  0
 16 15  1  6  0  0  0
M  CHG  1   2  -1
M  END
>  <CHROM.1>
120.68731214,-69.43419081,-176.85601174,81.96559148,-41.14096071,17.12366829
1.02769946,12.97079441,-0.38645679,0.26983910,-0.93538660

>  <Name>
1f27 biotin aptamer (Xray 1.3A)

>  <RI>
0

>  <Rbt.Current_Directory>
/home/itssahil/PROJECTS/Mol_Feturizer/New_Systems/rnas/1f27

>  <Rbt.Executable>
rbdock ($Id: //depot/dev/client3/rdock/2013.1/src/exe/rbdock.cxx#4 $)

>  <Rbt.Library>
libRbt.so (2013.1, Build901 2013/11/27)

>  <Rbt.Parameter_File>
/export/apps/rDock/src/rDock_2013.1_src/data/scripts/dock_solv.prm

>  <Rbt.Receptor>
prm/pocket_docking_4.prm

>  <SCORE>
-32.386

>  <SCORE.INTER>
-31.8343

>  <SCORE.INTER.CONST>
1

>  <SCORE.INTER.POLAR>
-2.69339

>  <SCORE.INTER.ROT>
5

>  <SCORE.INTER.SOLV>
12.0871

>  <SCORE.INTER.VDW>
-23.2073

>  <SCORE.INTER.norm>
-1.98964

>  <SCORE.INTRA>
-0.551743

>  <SCORE.INTRA.DIHEDRAL>
-1.99596

>  <SCORE.INTRA.DIHEDRAL.0>
6.87082

>  <SCORE.INTRA.POLAR>
0

>  <SCORE.INTRA.POLAR.0>
0

>  <SCORE.INTRA.REPUL>
0

>  <SCORE.INTRA.REPUL.0>
0

>  <SCORE.INTRA.SOLV>
0.179907

>  <SCORE.INTRA.SOLV.lig_0>
-42.5944

>  <SCORE.INTRA.VDW>
0.356281

>  <SCORE.INTRA.VDW.0>
-1.067

>  <SCORE.INTRA.norm>
-0.034484

>  <SCORE.RESTR>
0

>  <SCORE.RESTR.CAVITY>
0

>  <SCORE.RESTR.norm>
0

>  <SCORE.SYSTEM>
0

>  <SCORE.SYSTEM.CONST>
0

>  <SCORE.SYSTEM.DIHEDRAL>
0

>  <SCORE.SYSTEM.SOLV>
0

>  <SCORE.SYSTEM.norm>
0

>  <SCORE.heavy>
16

>  <SCORE.norm>
-2.02413

>  <RMSD>
1.253

$$$$
1f27 biotin aptamer (Xray 1.3A)
 OpenBabel11021811393D
libRbt.so/2013.1/901 2013/11/27
 16 17  0  0  0  0  0  0  0  0999 V2000
   21.3907   -1.1975   12.3843 C   0  0  0  0  0  0  0  0  0  0  0  0
   22.5059   -0.9821   12.8484 O   0  5  0  0  0  0  0  0  0  0  0  0
   21.2768   -1.6001   11.2278 O   0  0  0  0  0  0  0  0  0  0  0  0
   20.1540   -1.0328   13.2583 C   0  0  0  0  0  0  0  0  0  0  0  0
   19.6732    0.4290   13.3963 C   0  0  0  0  0  0  0  0  0  0  0  0
   18.4161    0.5282   14.2404 C   0  0  0  0  0  0  0  0  0  0  0  0
   17.6130    1.7862   13.9834 C   0  0  0  0  0  0  0  0  0  0  0  0
   16.0995    1.6364   14.1859 C   0  0  2  0  0  0  0  0  0  0  0  0
   15.3246    0.0133   13.5295 S   0  0  0  0  0  0  0  0  0  0  0  0
   13.6303    0.8704   13.7294 C   0  0  0  0  0  0  0  0  0  0  0  0
   13.8887    2.3628   13.3698 C   0  0  2  0  0  0  0  0  0  0  0  0
   13.6286    2.4766   11.8438 N   0  0  0  0  0  0  0  0  0  0  0  0
   14.6353    2.8715   11.1930 C   0  0  0  0  0  0  0  0  0  0  0  0
   14.8366    2.9255    9.9280 O   0  0  0  0  0  0  0  0  0  0  0  0
   15.8375    2.9719   11.9881 N   0  0  0  0  0  0  0  0  0  0  0  0
   15.3600    2.7363   13.4208 C   0  0  2  0  0  0  0  0  0  0  0  0
  1  2  1  0  0  0  0
  1  3  2  0  0  0  0
  1  4  1  0  0  0  0
  4  5  1  0  0  0  0
  5  6  1  0  0  0  0
  6  7  1  0  0  0  0
  8  7  1  6  0  0  0
  8  9  1  0  0  0  0
  8 16  1  0  0  0  0
  9 10  1  0  0  0  0
 11 10  1  6  0  0  0
 11 12  1  0  0  0  0
 11 16  1  0  0  0  0
 12 13  1  0  0  0  0
 13 14  2  0  0  0  0
 13 15  1  0  0  0  0
 16 15  1  6  0  0  0
M  CHG  1   2  -1
M  END
>  <CHROM.1>
81.20278890,178.23120645,-157.71012447,149.44931549,-41.17067526,17.05665954
0.95224794,12.79819240,-0.21239197,0.38298294,-1.12614705

>  <Name>
1f27 biotin aptamer (Xray 1.3A)

>  <RI>
0

>  <Rbt.Current_Directory>
/home/itssahil/PROJECTS/Mol_Feturizer/New_Systems/rnas/1f27

>  <Rbt.Executable>
rbdock ($Id: //depot/dev/client3/rdock/2013.1/src/exe/rbdock.cxx#4 $)

>  <Rbt.Library>
libRbt.so (2013.1, Build901 2013/11/27)

>  <Rbt.Parameter_File>
/export/apps/rDock/src/rDock_2013.1_src/data/scripts/dock_solv.prm

>  <Rbt.Receptor>
prm/pocket_docking_7.prm

>  <SCORE>
-26.5507

>  <SCORE.INTER>
-26.6725

>  <SCORE.INTER.CONST>
1

>  <SCORE.INTER.POLAR>
-1.8738

>  <SCORE.INTER.ROT>
5

>  <SCORE.INTER.SOLV>
15.1259

>  <SCORE.INTER.VDW>
-23.511

>  <SCORE.INTER.norm>
-1.66703

>  <SCORE.INTRA>
0.121797

>  <SCORE.INTRA.DIHEDRAL>
0.931578

>  <SCORE.INTRA.DIHEDRAL.0>
6.87082

>  <SCORE.INTRA.POLAR>
0

>  <SCORE.INTRA.POLAR.0>
0

>  <SCORE.INTRA.REPUL>
0

>  <SCORE.INTRA.REPUL.0>
0

>  <SCORE.INTRA.SOLV>
-0.818714

>  <SCORE.INTRA.SOLV.lig_0>
-42.5944

>  <SCORE.INTRA.VDW>
0.0653652

>  <SCORE.INTRA.VDW.0>
-1.067

>  <SCORE.INTRA.norm>
0.00761234

>  <SCORE.RESTR>
0

>  <SCORE.RESTR.CAVITY>
0

>  <SCORE.RESTR.norm>
0

>  <SCORE.SYSTEM>
0

>  <SCORE.SYSTEM.CONST>
0

>  <SCORE.SYSTEM.DIHEDRAL>
0

>  <SCORE.SYSTEM.SOLV>
0

>  <SCORE.SYSTEM.norm>
0

>  <SCORE.heavy>
16

>  <SCORE.norm>
-1.65942

>  <RMSD>
1.262

$$$$
1f27 biotin aptamer (Xray 1.3A)
 OpenBabel11021811393D
libRbt.so/2013.1/901 2013/11/27
 16 17  0  0  0  0  0  0  0  0999 V2000
   21.2033   -1.1728   12.8661 C   0  0  0  0  0  0  0  0  0  0  0  0
   22.3159   -1.0817   12.3570 O   0  5  0  0  0  0  0  0  0  0  0  0
   20.5118   -2.1669   12.6513 O   0  0  0  0  0  0  0  0  0  0  0  0
   20.7064   -0.0909   13.8164 C   0  0  0  0  0  0  0  0  0  0  0  0
   19.4165    0.6158   13.3432 C   0  0  0  0  0  0  0  0  0  0  0  0
   18.9628    1.6745   14.3313 C   0  0  0  0  0  0  0  0  0  0  0  0
   17.8428    2.5493   13.8079 C   0  0  0  0  0  0  0  0  0  0  0  0
   16.4305    2.0019   14.0526 C   0  0  2  0  0  0  0  0  0  0  0  0
   16.0513    0.2913   13.2809 S   0  0  0  0  0  0  0  0  0  0  0  0
   14.2109    0.6680   13.6214 C   0  0  0  0  0  0  0  0  0  0  0  0
   14.0636    2.2002   13.3895 C   0  0  2  0  0  0  0  0  0  0  0  0
   13.6929    2.3631   11.8911 N   0  0  0  0  0  0  0  0  0  0  0  0
   14.5275    3.0521   11.2415 C   0  0  0  0  0  0  0  0  0  0  0  0
   14.6331    3.2549    9.9800 O   0  0  0  0  0  0  0  0  0  0  0  0
   15.7107    3.3941   11.9968 N   0  0  0  0  0  0  0  0  0  0  0  0
   15.3939    2.9326   13.4190 C   0  0  2  0  0  0  0  0  0  0  0  0
  1  2  1  0  0  0  0
  1  3  2  0  0  0  0
  1  4  1  0  0  0  0
  4  5  1  0  0  0  0
  5  6  1  0  0  0  0
  6  7  1  0  0  0  0
  8  7  1  6  0  0  0
  8  9  1  0  0  0  0
  8 16  1  0  0  0  0
  9 10  1  0  0  0  0
 11 10  1  6  0  0  0
 11 12  1  0  0  0  0
 11 16  1  0  0  0  0
 12 13  1  0  0  0  0
 13 14  2  0  0  0  0
 13 15  1  0  0  0  0
 16 15  1  6  0  0  0
M  CHG  1   2  -1
M  END
>  <CHROM.1>
119.74921003,179.57740905,170.35848731,87.42915651,-59.56482088,17.18182031
1.18097594,12.87162455,-0.38844813,0.31339307,-0.89920546

>  <Name>
1f27 biotin aptamer (Xray 1.3A)

>  <RI>
0

>  <Rbt.Current_Directory>
/home/itssahil/PROJECTS/Mol_Feturizer/New_Systems/rnas/1f27

>  <Rbt.Executable>
rbdock ($Id: //depot/dev/client3/rdock/2013.1/src/exe/rbdock.cxx#4 $)

>  <Rbt.Library>
libRbt.so (2013.1, Build901 2013/11/27)

>  <Rbt.Parameter_File>
/export/apps/rDock/src/rDock_2013.1_src/data/scripts/dock_solv.prm

>  <Rbt.Receptor>
prm/pocket_docking_3.prm

>  <SCORE>
-31.7797

>  <SCORE.INTER>
-30.1399

>  <SCORE.INTER.CONST>
1

>  <SCORE.INTER.POLAR>
-2.47026

>  <SCORE.INTER.ROT>
5

>  <SCORE.INTER.SOLV>
11.5987

>  <SCORE.INTER.VDW>
-22.6586

>  <SCORE.INTER.norm>
-1.88374

>  <SCORE.INTRA>
-1.65948

>  <SCORE.INTRA.DIHEDRAL>
-2.46267

>  <SCORE.INTRA.DIHEDRAL.0>
6.87082

>  <SCORE.INTRA.POLAR>
0

>  <SCORE.INTRA.POLAR.0>
0

>  <SCORE.INTRA.REPUL>
0

>  <SCORE.INTRA.REPUL.0>
0

>  <SCORE.INTRA.SOLV>
-0.786196

>  <SCORE.INTRA.SOLV.lig_0>
-42.5944

>  <SCORE.INTRA.VDW>
-0.0350432

>  <SCORE.INTRA.VDW.0>
-1.067

>  <SCORE.INTRA.norm>
-0.103717

>  <SCORE.RESTR>
0.019663

>  <SCORE.RESTR.CAVITY>
0.019663

>  <SCORE.RESTR.norm>
0.00122894

>  <SCORE.SYSTEM>
0

>  <SCORE.SYSTEM.CONST>
0

>  <SCORE.SYSTEM.DIHEDRAL>
0

>  <SCORE.SYSTEM.SOLV>
0

>  <SCORE.SYSTEM.norm>
0

>  <SCORE.heavy>
16

>  <SCORE.norm>
-1.98623

>  <RMSD>
1.268

$$$$
1f27 biotin aptamer (Xray 1.3A)
 OpenBabel11021811393D
libRbt.so/2013.1/901 2013/11/27
 16 17  0  0  0  0  0  0  0  0999 V2000
   19.9154   -1.9074   14.3012 C   0  0  0  0  0  0  0  0  0  0  0  0
   19.7190   -2.9516   14.9147 O   0  5  0  0  0  0  0  0  0  0  0  0
   19.6916   -1.8563   13.0930 O   0  0  0  0  0  0  0  0  0  0  0  0
   20.3695   -0.6578   15.0448 C   0  0  0  0  0  0  0  0  0  0  0  0
   19.3087    0.4645   15.0922 C   0  0  0  0  0  0  0  0  0  0  0  0
   19.1230    1.1179   13.7352 C   0  0  0  0  0  0  0  0  0  0  0  0
   18.0556    2.1922   13.7226 C   0  0  0  0  0  0  0  0  0  0  0  0
   16.6330    1.6895   14.0012 C   0  0  2  0  0  0  0  0  0  0  0  0
   16.1642    0.0171   13.1954 S   0  0  0  0  0  0  0  0  0  0  0  0
   14.3518    0.4502   13.6107 C   0  0  0  0  0  0  0  0  0  0  0  0
   14.2539    1.9930   13.4273 C   0  0  2  0  0  0  0  0  0  0  0  0
   13.8389    2.2131   11.9480 N   0  0  0  0  0  0  0  0  0  0  0  0
   14.6760    2.8902   11.2892 C   0  0  0  0  0  0  0  0  0  0  0  0
   14.7462    3.1260   10.0310 O   0  0  0  0  0  0  0  0  0  0  0  0
   15.8962    3.1667   12.0119 N   0  0  0  0  0  0  0  0  0  0  0  0
   15.6109    2.6753   13.4308 C   0  0  2  0  0  0  0  0  0  0  0  0
  1  2  1  0  0  0  0
  1  3  2  0  0  0  0
  1  4  1  0  0  0  0
  4  5  1  0  0  0  0
  5  6  1  0  0  0  0
  6  7  1  0  0  0  0
  8  7  1  6  0  0  0
  8  9  1  0  0  0  0
  8 16  1  0  0  0  0
  9 10  1  0  0  0  0
 11 10  1  6  0  0  0
 11 12  1  0  0  0  0
 11 16  1  0  0  0  0
 12 13  1  0  0  0  0
 13 14  2  0  0  0  0
 13 15  1  0  0  0  0
 16 15  1  6  0  0  0
M  CHG  1   2  -1
M  END
>  <CHROM.1>
-111.45836857,-71.47948337,177.93987915,-64.57080151,-39.85990991,16.98013750
0.81819403,13.27026971,0.70028127,0.27647334,2.87718221

>  <Name>
1f27 biotin aptamer (Xray 1.3A)

>  <RI>
0

>  <Rbt.Current_Directory>
/home/itssahil/PROJECTS/Mol_Feturizer/New_Systems/rnas/1f27

>  <Rbt.Executable>
rbdock ($Id: //depot/dev/client3/rdock/2013.1/src/exe/rbdock.cxx#4 $)

>  <Rbt.Library>
libRbt.so (2013.1, Build901 2013/11/27)

>  <Rbt.Parameter_File>
/export/apps/rDock/src/rDock_2013.1_src/data/scripts/dock_solv.prm

>  <Rbt.Receptor>
prm/pocket_docking_4.prm

>  <SCORE>
-26.5941

>  <SCORE.INTER>
-25.2561

>  <SCORE.INTER.CONST>
1

>  <SCORE.INTER.POLAR>
-1.66647

>  <SCORE.INTER.ROT>
5

>  <SCORE.INTER.SOLV>
8.60999

>  <SCORE.INTER.VDW>
-21.0858

>  <SCORE.INTER.norm>
-1.57851

>  <SCORE.INTRA>
-1.338

>  <SCORE.INTRA.DIHEDRAL>
-3.46782

>  <SCORE.INTRA.DIHEDRAL.0>
6.87082

>  <SCORE.INTRA.POLAR>
0

>  <SCORE.INTRA.POLAR.0>
0

>  <SCORE.INTRA.REPUL>
0

>  <SCORE.INTRA.REPUL.0>
0

>  <SCORE.INTRA.SOLV>
0.666036

>  <SCORE.INTRA.SOLV.lig_0>
-42.5944

>  <SCORE.INTRA.VDW>
0.0628972

>  <SCORE.INTRA.VDW.0>
-1.067

>  <SCORE.INTRA.norm>
-0.0836248

>  <SCORE.RESTR>
0

>  <SCORE.RESTR.CAVITY>
0

>  <SCORE.RESTR.norm>
0

>  <SCORE.SYSTEM>
0

>  <SCORE.SYSTEM.CONST>
0

>  <SCORE.SYSTEM.DIHEDRAL>
0

>  <SCORE.SYSTEM.SOLV>
0

>  <SCORE.SYSTEM.norm>
0

>  <SCORE.heavy>
16

>  <SCORE.norm>
-1.66213

>  <RMSD>
1.280

$$$$
1f27 biotin aptamer (Xray 1.3A)
 OpenBabel11021811393D
libRbt.so/2013.1/901 2013/11/27
 16 17  0  0  0  0  0  0  0  0999 V2000
   21.8659   -1.4132   13.2612 C   0  0  0  0  0  0  0  0  0  0  0  0
   21.6019   -1.8247   12.1359 O   0  5  0  0  0  0  0  0  0  0  0  0
   23.0277   -1.4355   13.6638 O   0  0  0  0  0  0  0  0  0  0  0  0
   20.7698   -0.8129   14.1324 C   0  0  0  0  0  0  0  0  0  0  0  0
   19.9426    0.2873   13.4307 C   0  0  0  0  0  0  0  0  0  0  0  0
   18.6893    0.6316   14.2140 C   0  0  0  0  0  0  0  0  0  0  0  0
   17.8146    1.6630   13.5323 C   0  0  0  0  0  0  0  0  0  0  0  0
   16.3562    1.6860   14.0084 C   0  0  2  0  0  0  0  0  0  0  0  0
   15.3639    0.0704   13.7419 S   0  0  0  0  0  0  0  0  0  0  0  0
   13.7979    1.1034   14.0962 C   0  0  0  0  0  0  0  0  0  0  0  0
   14.0901    2.5027   13.4799 C   0  0  2  0  0  0  0  0  0  0  0  0
   13.5662    2.4349   12.0204 N   0  0  0  0  0  0  0  0  0  0  0  0
   14.4634    2.6415   11.1569 C   0  0  0  0  0  0  0  0  0  0  0  0
   14.4353    2.5059    9.8823 O   0  0  0  0  0  0  0  0  0  0  0  0
   15.7938    2.7332   11.7129 N   0  0  0  0  0  0  0  0  0  0  0  0
   15.5687    2.7384   13.2246 C   0  0  2  0  0  0  0  0  0  0  0  0
  1  2  1  0  0  0  0
  1  3  2  0  0  0  0
  1  4  1  0  0  0  0
  4  5  1  0  0  0  0
  5  6  1  0  0  0  0
  6  7  1  0  0  0  0
  8  7  1  6  0  0  0
  8  9  1  0  0  0  0
  8 16  1  0  0  0  0
  9 10  1  0  0  0  0
 11 10  1  6  0  0  0
 11 12  1  0  0  0  0
 11 16  1  0  0  0  0
 12 13  1  0  0  0  0
 13 14  2  0  0  0  0
 13 15  1  0  0  0  0
 16 15  1  6  0  0  0
M  CHG  1   2  -1
M  END
>  <CHROM.1>
-51.05884310,167.41998844,-177.43504632,159.80270250,-60.99365461,17.22267964
0.87489370,13.00396345,-0.27708688,0.35171165,-1.19076938

>  <Name>
1f27 biotin aptamer (Xray 1.3A)

>  <RI>
0

>  <Rbt.Current_Directory>
/home/itssahil/PROJECTS/Mol_Feturizer/New_Systems/rnas/1f27

>  <Rbt.Executable>
rbdock ($Id: //depot/dev/client3/rdock/2013.1/src/exe/rbdock.cxx#4 $)

>  <Rbt.Library>
libRbt.so (2013.1, Build901 2013/11/27)

>  <Rbt.Parameter_File>
/export/apps/rDock/src/rDock_2013.1_src/data/scripts/dock_solv.prm

>  <Rbt.Receptor>
prm/pocket_docking_2.prm

>  <SCORE>
-26.7092

>  <SCORE.INTER>
-24.7851

>  <SCORE.INTER.CONST>
1

>  <SCORE.INTER.POLAR>
-1.58138

>  <SCORE.INTER.ROT>
5

>  <SCORE.INTER.SOLV>
11.0084

>  <SCORE.INTER.VDW>
-21.855

>  <SCORE.INTER.norm>
-1.54907

>  <SCORE.INTRA>
-1.95705

>  <SCORE.INTRA.DIHEDRAL>
-3.31545

>  <SCORE.INTRA.DIHEDRAL.0>
6.87082

>  <SCORE.INTRA.POLAR>
0

>  <SCORE.INTRA.POLAR.0>
0

>  <SCORE.INTRA.REPUL>
0

>  <SCORE.INTRA.REPUL.0>
0

>  <SCORE.INTRA.SOLV>
-0.794944

>  <SCORE.INTRA.SOLV.lig_0>
-42.5944

>  <SCORE.INTRA.VDW>
0.0981488

>  <SCORE.INTRA.VDW.0>
-1.067

>  <SCORE.INTRA.norm>
-0.122315

>  <SCORE.RESTR>
0.0330065

>  <SCORE.RESTR.CAVITY>
0.0330065

>  <SCORE.RESTR.norm>
0.0020629

>  <SCORE.SYSTEM>
0

>  <SCORE.SYSTEM.CONST>
0

>  <SCORE.SYSTEM.DIHEDRAL>
0

>  <SCORE.SYSTEM.SOLV>
0

>  <SCORE.SYSTEM.norm>
0

>  <SCORE.heavy>
16

>  <SCORE.norm>
-1.66932

>  <RMSD>
1.282

$$$$
1f27 biotin aptamer (Xray 1.3A)
 OpenBabel11021811393D
libRbt.so/2013.1/901 2013/11/27
 16 17  0  0  0  0  0  0  0  0999 V2000
   20.4761   -1.8184   14.2321 C   0  0  0  0  0  0  0  0  0  0  0  0
   20.8723   -1.2072   15.2193 O   0  5  0  0  0  0  0  0  0  0  0  0
   21.2521   -2.5384   13.6061 O   0  0  0  0  0  0  0  0  0  0  0  0
   19.0111   -1.7407   13.8218 C   0  0  0  0  0  0  0  0  0  0  0  0
   18.6056   -0.3874   13.1963 C   0  0  0  0  0  0  0  0  0  0  0  0
   18.6524    0.7370   14.2144 C   0  0  0  0  0  0  0  0  0  0  0  0
   17.7454    1.9006   13.8721 C   0  0  0  0  0  0  0  0  0  0  0  0
   16.2531    1.6498   14.1257 C   0  0  2  0  0  0  0  0  0  0  0  0
   15.5534    0.0043   13.4411 S   0  0  0  0  0  0  0  0  0  0  0  0
   13.8192    0.7467   13.7352 C   0  0  0  0  0  0  0  0  0  0  0  0
   13.9713    2.2634   13.4199 C   0  0  2  0  0  0  0  0  0  0  0  0
   13.6443    2.4119   11.9099 N   0  0  0  0  0  0  0  0  0  0  0  0
   14.5984    2.8905   11.2363 C   0  0  0  0  0  0  0  0  0  0  0  0
   14.7456    2.9994    9.9673 O   0  0  0  0  0  0  0  0  0  0  0  0
   15.8229    3.0392   11.9888 N   0  0  0  0  0  0  0  0  0  0  0  0
   15.4179    2.7263   13.4290 C   0  0  2  0  0  0  0  0  0  0  0  0
  1  2  1  0  0  0  0
  1  3  2  0  0  0  0
  1  4  1  0  0  0  0
  4  5  1  0  0  0  0
  5  6  1  0  0  0  0
  6  7  1  0  0  0  0
  8  7  1  6  0  0  0
  8  9  1  0  0  0  0
  8 16  1  0  0  0  0
  9 10  1  0  0  0  0
 11 10  1  6  0  0  0
 11 12  1  0  0  0  0
 11 16  1  0  0  0  0
 12 13  1  0  0  0  0
 13 14  2  0  0  0  0
 13 15  1  0  0  0  0
 16 15  1  6  0  0  0
M  CHG  1   2  -1
M  END
>  <CHROM.1>
73.10774165,-67.68062587,-155.31673277,75.55278946,-48.24334606,16.84518929
0.76845634,13.21219397,-0.62021265,0.23274566,-0.80421063

>  <Name>
1f27 biotin aptamer (Xray 1.3A)

>  <RI>
0

>  <Rbt.Current_Directory>
/home/itssahil/PROJECTS/Mol_Feturizer/New_Systems/rnas/1f27

>  <Rbt.Executable>
rbdock ($Id: //depot/dev/client3/rdock/2013.1/src/exe/rbdock.cxx#4 $)

>  <Rbt.Library>
libRbt.so (2013.1, Build901 2013/11/27)

>  <Rbt.Parameter_File>
/export/apps/rDock/src/rDock_2013.1_src/data/scripts/dock_solv.prm

>  <Rbt.Receptor>
prm/pocket_docking_2.prm

>  <SCORE>
-27.9091

>  <SCORE.INTER>
-27.9673

>  <SCORE.INTER.CONST>
1

>  <SCORE.INTER.POLAR>
-1.75992

>  <SCORE.INTER.ROT>
5

>  <SCORE.INTER.SOLV>
7.29133

>  <SCORE.INTER.VDW>
-22.1423

>  <SCORE.INTER.norm>
-1.74796

>  <SCORE.INTRA>
0.00917061

>  <SCORE.INTRA.DIHEDRAL>
-1.50184

>  <SCORE.INTRA.DIHEDRAL.0>
6.87082

>  <SCORE.INTRA.POLAR>
0

>  <SCORE.INTRA.POLAR.0>
0

>  <SCORE.INTRA.REPUL>
0

>  <SCORE.INTRA.REPUL.0>
0

>  <SCORE.INTRA.SOLV>
0.279038

>  <SCORE.INTRA.SOLV.lig_0>
-42.5944

>  <SCORE.INTRA.VDW>
0.620573

>  <SCORE.INTRA.VDW.0>
-1.067

>  <SCORE.INTRA.norm>
0.000573163

>  <SCORE.RESTR>
0.0490383

>  <SCORE.RESTR.CAVITY>
0.0490383

>  <SCORE.RESTR.norm>
0.0030649

>  <SCORE.SYSTEM>
0

>  <SCORE.SYSTEM.CONST>
0

>  <SCORE.SYSTEM.DIHEDRAL>
0

>  <SCORE.SYSTEM.SOLV>
0

>  <SCORE.SYSTEM.norm>
0

>  <SCORE.heavy>
16

>  <SCORE.norm>
-1.74432

>  <RMSD>
1.282

$$$$
1f27 biotin aptamer (Xray 1.3A)
 OpenBabel11021811393D
libRbt.so/2013.1/901 2013/11/27
 16 17  0  0  0  0  0  0  0  0999 V2000
   20.1705   -1.7505   12.9388 C   0  0  0  0  0  0  0  0  0  0  0  0
   20.1657   -2.4823   13.9235 O   0  5  0  0  0  0  0  0  0  0  0  0
   20.8377   -2.0568   11.9522 O   0  0  0  0  0  0  0  0  0  0  0  0
   19.2994   -0.5011   12.9105 C   0  0  0  0  0  0  0  0  0  0  0  0
   19.9414    0.7270   13.5936 C   0  0  0  0  0  0  0  0  0  0  0  0
   18.9651    1.4263   14.5215 C   0  0  0  0  0  0  0  0  0  0  0  0
   17.9013    2.2203   13.7924 C   0  0  0  0  0  0  0  0  0  0  0  0
   16.4616    1.7576   14.0521 C   0  0  2  0  0  0  0  0  0  0  0  0
   15.9751    0.0701   13.2896 S   0  0  0  0  0  0  0  0  0  0  0  0
   14.1634    0.5554   13.6461 C   0  0  0  0  0  0  0  0  0  0  0  0
   14.1042    2.0930   13.4107 C   0  0  2  0  0  0  0  0  0  0  0  0
   13.7295    2.2732   11.9153 N   0  0  0  0  0  0  0  0  0  0  0  0
   14.5968    2.9102   11.2556 C   0  0  0  0  0  0  0  0  0  0  0  0
   14.7022    3.1030    9.9925 O   0  0  0  0  0  0  0  0  0  0  0  0
   15.8054    3.1840   11.9986 N   0  0  0  0  0  0  0  0  0  0  0  0
   15.4756    2.7459   13.4252 C   0  0  2  0  0  0  0  0  0  0  0  0
  1  2  1  0  0  0  0
  1  3  2  0  0  0  0
  1  4  1  0  0  0  0
  4  5  1  0  0  0  0
  5  6  1  0  0  0  0
  6  7  1  0  0  0  0
  8  7  1  6  0  0  0
  8  9  1  0  0  0  0
  8 16  1  0  0  0  0
  9 10  1  0  0  0  0
 11 10  1  6  0  0  0
 11 12  1  0  0  0  0
 11 16  1  0  0  0  0
 12 13  1  0  0  0  0
 13 14  2  0  0  0  0
 13 15  1  0  0  0  0
 16 15  1  6  0  0  0
M  CHG  1   2  -1
M  END
>  <CHROM.1>
83.97232108,-133.49298111,-73.95910610,118.77893372,-70.31307064,16.97498410
0.91715177,12.91167086,-0.54689140,0.29714114,-0.73430649

>  <Name>
1f27 biotin aptamer (Xray 1.3A)

>  <RI>
0

>  <Rbt.Current_Directory>
/home/itssahil/PROJECTS/Mol_Feturizer/New_Systems/rnas/1f27

>  <Rbt.Executable>
rbdock ($Id: //depot/dev/client3/rdock/2013.1/src/exe/rbdock.cxx#4 $)

>  <Rbt.Library>
libRbt.so (2013.1, Build901 2013/11/27)

>  <Rbt.Parameter_File>
/export/apps/rDock/src/rDock_2013.1_src/data/scripts/dock_solv.prm

>  <Rbt.Receptor>
prm/pocket_docking_4.prm

>  <SCORE>
-24.3819

>  <SCORE.INTER>
-27.2145

>  <SCORE.INTER.CONST>
1

>  <SCORE.INTER.POLAR>
-1.71424

>  <SCORE.INTER.ROT>
5

>  <SCORE.INTER.SOLV>
9.78293

>  <SCORE.INTER.VDW>
-22.6232

>  <SCORE.INTER.norm>
-1.70091

>  <SCORE.INTRA>
2.83261

>  <SCORE.INTRA.DIHEDRAL>
6.62092

>  <SCORE.INTRA.DIHEDRAL.0>
6.87082

>  <SCORE.INTRA.POLAR>
0

>  <SCORE.INTRA.POLAR.0>
0

>  <SCORE.INTRA.REPUL>
0

>  <SCORE.INTRA.REPUL.0>
0

>  <SCORE.INTRA.SOLV>
-0.577556

>  <SCORE.INTRA.SOLV.lig_0>
-42.5944

>  <SCORE.INTRA.VDW>
-0.18907

>  <SCORE.INTRA.VDW.0>
-1.067

>  <SCORE.INTRA.norm>
0.177038

>  <SCORE.RESTR>
0

>  <SCORE.RESTR.CAVITY>
0

>  <SCORE.RESTR.norm>
0

>  <SCORE.SYSTEM>
0

>  <SCORE.SYSTEM.CONST>
0

>  <SCORE.SYSTEM.DIHEDRAL>
0

>  <SCORE.SYSTEM.SOLV>
0

>  <SCORE.SYSTEM.norm>
0

>  <SCORE.heavy>
16

>  <SCORE.norm>
-1.52387

>  <RMSD>
1.292

$$$$
1f27 biotin aptamer (Xray 1.3A)
 OpenBabel11021811393D
libRbt.so/2013.1/901 2013/11/27
 16 17  0  0  0  0  0  0  0  0999 V2000
   21.1336   -0.9797   12.5121 C   0  0  0  0  0  0  0  0  0  0  0  0
   21.8925   -1.4875   13.3316 O   0  5  0  0  0  0  0  0  0  0  0  0
   20.9954   -1.4959   11.4044 O   0  0  0  0  0  0  0  0  0  0  0  0
   20.3126    0.2472   12.8879 C   0  0  0  0  0  0  0  0  0  0  0  0
   19.2365   -0.0231   13.9631 C   0  0  0  0  0  0  0  0  0  0  0  0
   18.8350    1.2490   14.6865 C   0  0  0  0  0  0  0  0  0  0  0  0
   17.8473    2.0980   13.9135 C   0  0  0  0  0  0  0  0  0  0  0  0
   16.3730    1.7416   14.1449 C   0  0  2  0  0  0  0  0  0  0  0  0
   15.8058    0.0447   13.4633 S   0  0  0  0  0  0  0  0  0  0  0  0
   14.0177    0.6617   13.7224 C   0  0  0  0  0  0  0  0  0  0  0  0
   14.0651    2.1831   13.3964 C   0  0  2  0  0  0  0  0  0  0  0  0
   13.7540    2.2961   11.8799 N   0  0  0  0  0  0  0  0  0  0  0  0
   14.6823    2.8374   11.2179 C   0  0  0  0  0  0  0  0  0  0  0  0
   14.8428    2.9471    9.9506 O   0  0  0  0  0  0  0  0  0  0  0  0
   15.8798    3.0801   11.9890 N   0  0  0  0  0  0  0  0  0  0  0  0
   15.4742    2.7496   13.4251 C   0  0  2  0  0  0  0  0  0  0  0  0
  1  2  1  0  0  0  0
  1  3  2  0  0  0  0
  1  4  1  0  0  0  0
  4  5  1  0  0  0  0
  5  6  1  0  0  0  0
  6  7  1  0  0  0  0
  8  7  1  6  0  0  0
  8  9  1  0  0  0  0
  8 16  1  0  0  0  0
  9 10  1  0  0  0  0
 11 10  1  6  0  0  0
 11 12  1  0  0  0  0
 11 16  1  0  0  0  0
 12 13  1  0  0  0  0
 13 14  2  0  0  0  0
 13 15  1  0  0  0  0
 16 15  1  6  0  0  0
M  CHG  1   2  -1
M  END
>  <CHROM.1>
-66.88695433,157.64235295,80.10399279,87.51971422,-68.05452770,17.13568204
1.02805736,12.87622193,-0.21617325,0.41159462,-1.27839330

>  <Name>
1f27 biotin aptamer (Xray 1.3A)

>  <RI>
0

>  <Rbt.Current_Directory>
/home/itssahil/PROJECTS/Mol_Feturizer/New_Systems/rnas/1f27

>  <Rbt.Executable>
rbdock ($Id: //depot/dev/client3/rdock/2013.1/src/exe/rbdock.cxx#4 $)

>  <Rbt.Library>
libRbt.so (2013.1, Build901 2013/11/27)

>  <Rbt.Parameter_File>
/export/apps/rDock/src/rDock_2013.1_src/data/scripts/dock_solv.prm

>  <Rbt.Receptor>
prm/blind_docking_60.prm

>  <SCORE>
-27.855

>  <SCORE.INTER>
-27.7993

>  <SCORE.INTER.CONST>
1

>  <SCORE.INTER.POLAR>
-1.78974

>  <SCORE.INTER.ROT>
5

>  <SCORE.INTER.SOLV>
13.248

>  <SCORE.INTER.VDW>
-23.9164

>  <SCORE.INTER.norm>
-1.73745

>  <SCORE.INTRA>
-0.0557412

>  <SCORE.INTRA.DIHEDRAL>
0.543904

>  <SCORE.INTRA.DIHEDRAL.0>
6.87082

>  <SCORE.INTRA.POLAR>
0

>  <SCORE.INTRA.POLAR.0>
0

>  <SCORE.INTRA.REPUL>
0

>  <SCORE.INTRA.REPUL.0>
0

>  <SCORE.INTRA.SOLV>
-0.723038

>  <SCORE.INTRA.SOLV.lig_0>
-42.5944

>  <SCORE.INTRA.VDW>
0.0338256

>  <SCORE.INTRA.VDW.0>
-1.067

>  <SCORE.INTRA.norm>
-0.00348382

>  <SCORE.RESTR>
0

>  <SCORE.RESTR.CAVITY>
0

>  <SCORE.RESTR.norm>
0

>  <SCORE.SYSTEM>
0

>  <SCORE.SYSTEM.CONST>
0

>  <SCORE.SYSTEM.DIHEDRAL>
0

>  <SCORE.SYSTEM.SOLV>
0

>  <SCORE.SYSTEM.norm>
0

>  <SCORE.heavy>
16

>  <SCORE.norm>
-1.74094

>  <RMSD>
1.295

$$$$
1f27 biotin aptamer (Xray 1.3A)
 OpenBabel11021811393D
libRbt.so/2013.1/901 2013/11/27
 16 17  0  0  0  0  0  0  0  0999 V2000
   20.9926   -1.3871   14.0281 C   0  0  0  0  0  0  0  0  0  0  0  0
   21.0460   -1.5847   12.8183 O   0  5  0  0  0  0  0  0  0  0  0  0
   20.7819   -2.3271   14.7927 O   0  0  0  0  0  0  0  0  0  0  0  0
   21.2541    0.0054   14.5876 C   0  0  0  0  0  0  0  0  0  0  0  0
   20.3209    1.0964   14.0168 C   0  0  0  0  0  0  0  0  0  0  0  0
   18.8730    0.8520   14.3998 C   0  0  0  0  0  0  0  0  0  0  0  0
   17.9245    1.9162   13.8883 C   0  0  0  0  0  0  0  0  0  0  0  0
   16.4397    1.6379   14.1569 C   0  0  2  0  0  0  0  0  0  0  0  0
   15.7657   -0.0240   13.4864 S   0  0  0  0  0  0  0  0  0  0  0  0
   14.0202    0.6863   13.7929 C   0  0  0  0  0  0  0  0  0  0  0  0
   14.1402    2.2042   13.4692 C   0  0  2  0  0  0  0  0  0  0  0  0
   13.7967    2.3390   11.9616 N   0  0  0  0  0  0  0  0  0  0  0  0
   14.7352    2.8326   11.2770 C   0  0  0  0  0  0  0  0  0  0  0  0
   14.8688    2.9381   10.0062 O   0  0  0  0  0  0  0  0  0  0  0  0
   15.9633    3.0084   12.0175 N   0  0  0  0  0  0  0  0  0  0  0  0
   15.5776    2.6948   13.4628 C   0  0  2  0  0  0  0  0  0  0  0  0
  1  2  1  0  0  0  0
  1  3  2  0  0  0  0
  1  4  1  0  0  0  0
  4  5  1  0  0  0  0
  5  6  1  0  0  0  0
  6  7  1  0  0  0  0
  8  7  1  6  0  0  0
  8  9  1  0  0  0  0
  8 16  1  0  0  0  0
  9 10  1  0  0  0  0
 11 10  1  6  0  0  0
 11 12  1  0  0  0  0
 11 16  1  0  0  0  0
 12 13  1  0  0  0  0
 13 14  2  0  0  0  0
 13 15  1  0  0  0  0
 16 15  1  6  0  0  0
M  CHG  1   2  -1
M  END
>  <CHROM.1>
57.21160758,64.29067097,178.65183464,175.10374351,-56.18521953,17.20246120
0.94654079,13.25028532,-0.54368236,0.08553223,-0.68701697

>  <Name>
1f27 biotin aptamer (Xray 1.3A)

>  <RI>
0

>  <Rbt.Current_Directory>
/home/itssahil/PROJECTS/Mol_Feturizer/New_Systems/rnas/1f27

>  <Rbt.Executable>
rbdock ($Id: //depot/dev/client3/rdock/2013.1/src/exe/rbdock.cxx#4 $)

>  <Rbt.Library>
libRbt.so (2013.1, Build901 2013/11/27)

>  <Rbt.Parameter_File>
/export/apps/rDock/src/rDock_2013.1_src/data/scripts/dock_solv.prm

>  <Rbt.Receptor>
prm/pocket_docking_2.prm

>  <SCORE>
-30.7097

>  <SCORE.INTER>
-28.2583

>  <SCORE.INTER.CONST>
1

>  <SCORE.INTER.POLAR>
-1.77068

>  <SCORE.INTER.ROT>
5

>  <SCORE.INTER.SOLV>
8.56458

>  <SCORE.INTER.VDW>
-22.7248

>  <SCORE.INTER.norm>
-1.76614

>  <SCORE.INTRA>
-2.45292

>  <SCORE.INTRA.DIHEDRAL>
-5.29121

>  <SCORE.INTRA.DIHEDRAL.0>
6.87082

>  <SCORE.INTRA.POLAR>
0

>  <SCORE.INTRA.POLAR.0>
0

>  <SCORE.INTRA.REPUL>
0

>  <SCORE.INTRA.REPUL.0>
0

>  <SCORE.INTRA.SOLV>
0.0572807

>  <SCORE.INTRA.SOLV.lig_0>
-42.5944

>  <SCORE.INTRA.VDW>
0.164044

>  <SCORE.INTRA.VDW.0>
-1.067

>  <SCORE.INTRA.norm>
-0.153308

>  <SCORE.RESTR>
0.00153806

>  <SCORE.RESTR.CAVITY>
0.00153806

>  <SCORE.RESTR.norm>
9.61285e-05

>  <SCORE.SYSTEM>
0

>  <SCORE.SYSTEM.CONST>
0

>  <SCORE.SYSTEM.DIHEDRAL>
0

>  <SCORE.SYSTEM.SOLV>
0

>  <SCORE.SYSTEM.norm>
0

>  <SCORE.heavy>
16

>  <SCORE.norm>
-1.91935

>  <RMSD>
1.300

$$$$
1f27 biotin aptamer (Xray 1.3A)
 OpenBabel11021811393D
libRbt.so/2013.1/901 2013/11/27
 16 17  0  0  0  0  0  0  0  0999 V2000
   19.8371   -2.6637   14.0761 C   0  0  0  0  0  0  0  0  0  0  0  0
   20.9340   -3.1482   13.8164 O   0  5  0  0  0  0  0  0  0  0  0  0
   18.8161   -3.3203   13.8787 O   0  0  0  0  0  0  0  0  0  0  0  0
   19.7423   -1.2796   14.7052 C   0  0  0  0  0  0  0  0  0  0  0  0
   18.8376   -0.2976   13.9278 C   0  0  0  0  0  0  0  0  0  0  0  0
   18.8279    1.0796   14.5650 C   0  0  0  0  0  0  0  0  0  0  0  0
   17.8578    2.0414   13.9110 C   0  0  0  0  0  0  0  0  0  0  0  0
   16.3761    1.7260   14.1544 C   0  0  2  0  0  0  0  0  0  0  0  0
   15.7603    0.0388   13.4912 S   0  0  0  0  0  0  0  0  0  0  0  0
   13.9907    0.7048   13.7555 C   0  0  0  0  0  0  0  0  0  0  0  0
   14.0760    2.2215   13.4159 C   0  0  2  0  0  0  0  0  0  0  0  0
   13.7584    2.3296   11.9004 N   0  0  0  0  0  0  0  0  0  0  0  0
   14.6965    2.8405   11.2280 C   0  0  0  0  0  0  0  0  0  0  0  0
   14.8519    2.9350    9.9589 O   0  0  0  0  0  0  0  0  0  0  0  0
   15.9048    3.0582   11.9898 N   0  0  0  0  0  0  0  0  0  0  0  0
   15.4996    2.7510   13.4311 C   0  0  2  0  0  0  0  0  0  0  0  0
  1  2  1  0  0  0  0
  1  3  2  0  0  0  0
  1  4  1  0  0  0  0
  4  5  1  0  0  0  0
  5  6  1  0  0  0  0
  6  7  1  0  0  0  0
  8  7  1  6  0  0  0
  8  9  1  0  0  0  0
  8 16  1  0  0  0  0
  9 10  1  0  0  0  0
 11 10  1  6  0  0  0
 11 12  1  0  0  0  0
 11 16  1  0  0  0  0
 12 13  1  0  0  0  0
 13 14  2  0  0  0  0
 13 15  1  0  0  0  0
 16 15  1  6  0  0  0
M  CHG  1   2  -1
M  END
>  <CHROM.1>
125.95864479,-177.53614839,-174.78160695,70.25175411,-61.68659025,16.80730424
0.60189224,13.25344457,0.76256378,0.22940167,2.95969528

>  <Name>
1f27 biotin aptamer (Xray 1.3A)

>  <RI>
0

>  <Rbt.Current_Directory>
/home/itssahil/PROJECTS/Mol_Feturizer/New_Systems/rnas/1f27

>  <Rbt.Executable>
rbdock ($Id: //depot/dev/client3/rdock/2013.1/src/exe/rbdock.cxx#4 $)

>  <Rbt.Library>
libRbt.so (2013.1, Build901 2013/11/27)

>  <Rbt.Parameter_File>
/export/apps/rDock/src/rDock_2013.1_src/data/scripts/dock_solv.prm

>  <Rbt.Receptor>
prm/pocket_docking_7.prm

>  <SCORE>
-29.6331

>  <SCORE.INTER>
-27.2456

>  <SCORE.INTER.CONST>
1

>  <SCORE.INTER.POLAR>
-1.80115

>  <SCORE.INTER.ROT>
5

>  <SCORE.INTER.SOLV>
8.58568

>  <SCORE.INTER.VDW>
-21.9551

>  <SCORE.INTER.norm>
-1.70285

>  <SCORE.INTRA>
-2.38755

>  <SCORE.INTRA.DIHEDRAL>
-4.95437

>  <SCORE.INTRA.DIHEDRAL.0>
6.87082

>  <SCORE.INTRA.POLAR>
0

>  <SCORE.INTRA.POLAR.0>
0

>  <SCORE.INTRA.REPUL>
0

>  <SCORE.INTRA.REPUL.0>
0

>  <SCORE.INTRA.SOLV>
-0.69159

>  <SCORE.INTRA.SOLV.lig_0>
-42.5944

>  <SCORE.INTRA.VDW>
0.435429

>  <SCORE.INTRA.VDW.0>
-1.067

>  <SCORE.INTRA.norm>
-0.149222

>  <SCORE.RESTR>
0

>  <SCORE.RESTR.CAVITY>
0

>  <SCORE.RESTR.norm>
0

>  <SCORE.SYSTEM>
0

>  <SCORE.SYSTEM.CONST>
0

>  <SCORE.SYSTEM.DIHEDRAL>
0

>  <SCORE.SYSTEM.SOLV>
0

>  <SCORE.SYSTEM.norm>
0

>  <SCORE.heavy>
16

>  <SCORE.norm>
-1.85207

>  <RMSD>
1.319

$$$$
1f27 biotin aptamer (Xray 1.3A)
 OpenBabel11021811393D
libRbt.so/2013.1/901 2013/11/27
 16 17  0  0  0  0  0  0  0  0999 V2000
   21.0431   -1.1611   12.7588 C   0  0  0  0  0  0  0  0  0  0  0  0
   22.1969   -0.9501   12.3990 O   0  5  0  0  0  0  0  0  0  0  0  0
   20.4105   -2.0950   12.2687 O   0  0  0  0  0  0  0  0  0  0  0  0
   20.4179   -0.3122   13.8584 C   0  0  0  0  0  0  0  0  0  0  0  0
   19.2079    0.5274   13.3916 C   0  0  0  0  0  0  0  0  0  0  0  0
   18.6820    1.4182   14.5019 C   0  0  0  0  0  0  0  0  0  0  0  0
   17.6543    2.4266   14.0323 C   0  0  0  0  0  0  0  0  0  0  0  0
   16.1945    1.9896   14.2125 C   0  0  2  0  0  0  0  0  0  0  0  0
   15.7575    0.2439   13.5589 S   0  0  0  0  0  0  0  0  0  0  0  0
   13.9269    0.7601   13.7247 C   0  0  0  0  0  0  0  0  0  0  0  0
   13.8995    2.2721   13.3556 C   0  0  2  0  0  0  0  0  0  0  0  0
   13.6484    2.3249   11.8248 N   0  0  0  0  0  0  0  0  0  0  0  0
   14.5714    2.9022   11.1862 C   0  0  0  0  0  0  0  0  0  0  0  0
   14.7800    2.9866    9.9240 O   0  0  0  0  0  0  0  0  0  0  0  0
   15.7181    3.2368   11.9990 N   0  0  0  0  0  0  0  0  0  0  0  0
   15.2705    2.9221   13.4261 C   0  0  2  0  0  0  0  0  0  0  0  0
  1  2  1  0  0  0  0
  1  3  2  0  0  0  0
  1  4  1  0  0  0  0
  4  5  1  0  0  0  0
  5  6  1  0  0  0  0
  6  7  1  0  0  0  0
  8  7  1  6  0  0  0
  8  9  1  0  0  0  0
  8 16  1  0  0  0  0
  9 10  1  0  0  0  0
 11 10  1  6  0  0  0
 11 12  1  0  0  0  0
 11 16  1  0  0  0  0
 12 13  1  0  0  0  0
 13 14  2  0  0  0  0
 13 15  1  0  0  0  0
 16 15  1  6  0  0  0
M  CHG  1   2  -1
M  END
>  <CHROM.1>
116.33726727,-176.33743838,170.18924875,95.58250215,-49.57005169,17.03039063
1.11955225,12.91125336,-0.22858561,0.42484199,-1.26817026

>  <Name>
1f27 biotin aptamer (Xray 1.3A)

>  <RI>
0

>  <Rbt.Current_Directory>
/home/itssahil/PROJECTS/Mol_Feturizer/New_Systems/rnas/1f27

>  <Rbt.Executable>
rbdock ($Id: //depot/dev/client3/rdock/2013.1/src/exe/rbdock.cxx#4 $)

>  <Rbt.Library>
libRbt.so (2013.1, Build901 2013/11/27)

>  <Rbt.Parameter_File>
/export/apps/rDock/src/rDock_2013.1_src/data/scripts/dock_solv.prm

>  <Rbt.Receptor>
prm/pocket_docking_3.prm

>  <SCORE>
-31.5218

>  <SCORE.INTER>
-30.7511

>  <SCORE.INTER.CONST>
1

>  <SCORE.INTER.POLAR>
-2.56353

>  <SCORE.INTER.ROT>
5

>  <SCORE.INTER.SOLV>
12.6262

>  <SCORE.INTER.VDW>
-23.0977

>  <SCORE.INTER.norm>
-1.92195

>  <SCORE.INTRA>
-0.771732

>  <SCORE.INTRA.DIHEDRAL>
-0.654023

>  <SCORE.INTRA.DIHEDRAL.0>
6.87082

>  <SCORE.INTRA.POLAR>
0

>  <SCORE.INTRA.POLAR.0>
0

>  <SCORE.INTRA.REPUL>
0

>  <SCORE.INTRA.REPUL.0>
0

>  <SCORE.INTRA.SOLV>
-0.769451

>  <SCORE.INTRA.SOLV.lig_0>
-42.5944

>  <SCORE.INTRA.VDW>
-0.0599949

>  <SCORE.INTRA.VDW.0>
-1.067

>  <SCORE.INTRA.norm>
-0.0482332

>  <SCORE.RESTR>
0.00102214

>  <SCORE.RESTR.CAVITY>
0.00102214

>  <SCORE.RESTR.norm>
6.38836e-05

>  <SCORE.SYSTEM>
0

>  <SCORE.SYSTEM.CONST>
0

>  <SCORE.SYSTEM.DIHEDRAL>
0

>  <SCORE.SYSTEM.SOLV>
0

>  <SCORE.SYSTEM.norm>
0

>  <SCORE.heavy>
16

>  <SCORE.norm>
-1.97011

>  <RMSD>
1.322

$$$$
1f27 biotin aptamer (Xray 1.3A)
 OpenBabel11021811393D
libRbt.so/2013.1/901 2013/11/27
 16 17  0  0  0  0  0  0  0  0999 V2000
   21.1053   -0.6985   13.3023 C   0  0  0  0  0  0  0  0  0  0  0  0
   21.9350   -0.6381   12.4005 O   0  5  0  0  0  0  0  0  0  0  0  0
   20.2821   -1.6121   13.3161 O   0  0  0  0  0  0  0  0  0  0  0  0
   21.1368    0.3149   14.4392 C   0  0  0  0  0  0  0  0  0  0  0  0
   19.8067    1.0750   14.6393 C   0  0  0  0  0  0  0  0  0  0  0  0
   19.4016    1.8344   13.3895 C   0  0  0  0  0  0  0  0  0  0  0  0
   18.2106    2.7469   13.5959 C   0  0  0  0  0  0  0  0  0  0  0  0
   16.8917    2.0248   13.9012 C   0  0  2  0  0  0  0  0  0  0  0  0
   16.6443    0.3344   13.0369 S   0  0  0  0  0  0  0  0  0  0  0  0
   14.8064    0.4725   13.5351 C   0  0  0  0  0  0  0  0  0  0  0  0
   14.4721    1.9889   13.4261 C   0  0  2  0  0  0  0  0  0  0  0  0
   13.9676    2.2029   11.9739 N   0  0  0  0  0  0  0  0  0  0  0  0
   14.6662    3.0241   11.3176 C   0  0  0  0  0  0  0  0  0  0  0  0
   14.6479    3.3178   10.0698 O   0  0  0  0  0  0  0  0  0  0  0  0
   15.8606    3.4522   12.0087 N   0  0  0  0  0  0  0  0  0  0  0  0
   15.7112    2.8673   13.4128 C   0  0  2  0  0  0  0  0  0  0  0  0
  1  2  1  0  0  0  0
  1  3  2  0  0  0  0
  1  4  1  0  0  0  0
  4  5  1  0  0  0  0
  5  6  1  0  0  0  0
  6  7  1  0  0  0  0
  8  7  1  6  0  0  0
  8  9  1  0  0  0  0
  8 16  1  0  0  0  0
  9 10  1  0  0  0  0
 11 10  1  6  0  0  0
 11 12  1  0  0  0  0
 11 16  1  0  0  0  0
 12 13  1  0  0  0  0
 13 14  2  0  0  0  0
 13 15  1  0  0  0  0
 16 15  1  6  0  0  0
M  CHG  1   2  -1
M  END
>  <CHROM.1>
124.64752449,-59.00537718,-171.95105154,-66.08886287,-34.22947113,17.44036279
1.31802146,12.95579429,0.47907346,0.05841105,2.76697684

>  <Name>
1f27 biotin aptamer (Xray 1.3A)

>  <RI>
0

>  <Rbt.Current_Directory>
/home/itssahil/PROJECTS/Mol_Feturizer/New_Systems/rnas/1f27

>  <Rbt.Executable>
rbdock ($Id: //depot/dev/client3/rdock/2013.1/src/exe/rbdock.cxx#4 $)

>  <Rbt.Library>
libRbt.so (2013.1, Build901 2013/11/27)

>  <Rbt.Parameter_File>
/export/apps/rDock/src/rDock_2013.1_src/data/scripts/dock_solv.prm

>  <Rbt.Receptor>
prm/pocket_docking_3.prm

>  <SCORE>
-29.7858

>  <SCORE.INTER>
-29.0051

>  <SCORE.INTER.CONST>
1

>  <SCORE.INTER.POLAR>
-2.19244

>  <SCORE.INTER.ROT>
5

>  <SCORE.INTER.SOLV>
11.5038

>  <SCORE.INTER.VDW>
-22.7965

>  <SCORE.INTER.norm>
-1.81282

>  <SCORE.INTRA>
-0.780744

>  <SCORE.INTRA.DIHEDRAL>
-2.79398

>  <SCORE.INTRA.DIHEDRAL.0>
6.87082

>  <SCORE.INTRA.POLAR>
0

>  <SCORE.INTRA.POLAR.0>
0

>  <SCORE.INTRA.REPUL>
0

>  <SCORE.INTRA.REPUL.0>
0

>  <SCORE.INTRA.SOLV>
0.500112

>  <SCORE.INTRA.SOLV.lig_0>
-42.5944

>  <SCORE.INTRA.VDW>
0.366188

>  <SCORE.INTRA.VDW.0>
-1.067

>  <SCORE.INTRA.norm>
-0.0487965

>  <SCORE.RESTR>
0

>  <SCORE.RESTR.CAVITY>
0

>  <SCORE.RESTR.norm>
0

>  <SCORE.SYSTEM>
0

>  <SCORE.SYSTEM.CONST>
0

>  <SCORE.SYSTEM.DIHEDRAL>
0

>  <SCORE.SYSTEM.SOLV>
0

>  <SCORE.SYSTEM.norm>
0

>  <SCORE.heavy>
16

>  <SCORE.norm>
-1.86161

>  <RMSD>
1.330

$$$$
1f27 biotin aptamer (Xray 1.3A)
 OpenBabel11021811393D
libRbt.so/2013.1/901 2013/11/27
 16 17  0  0  0  0  0  0  0  0999 V2000
   21.4439   -1.2008   12.8580 C   0  0  0  0  0  0  0  0  0  0  0  0
   22.0655   -0.2160   12.4717 O   0  5  0  0  0  0  0  0  0  0  0  0
   21.9114   -2.3253   12.6867 O   0  0  0  0  0  0  0  0  0  0  0  0
   20.1296   -1.0292   13.6089 C   0  0  0  0  0  0  0  0  0  0  0  0
   19.5493    0.4010   13.5393 C   0  0  0  0  0  0  0  0  0  0  0  0
   18.2662    0.5248   14.3400 C   0  0  0  0  0  0  0  0  0  0  0  0
   17.5014    1.8023   14.0627 C   0  0  0  0  0  0  0  0  0  0  0  0
   15.9814    1.6943   14.2419 C   0  0  2  0  0  0  0  0  0  0  0  0
   15.1763    0.0799   13.6008 S   0  0  0  0  0  0  0  0  0  0  0  0
   13.5014    0.9829   13.7569 C   0  0  0  0  0  0  0  0  0  0  0  0
   13.8037    2.4616   13.3758 C   0  0  2  0  0  0  0  0  0  0  0  0
   13.5719    2.5548   11.8439 N   0  0  0  0  0  0  0  0  0  0  0  0
   14.5991    2.9125   11.2035 C   0  0  0  0  0  0  0  0  0  0  0  0
   14.8226    2.9389    9.9414 O   0  0  0  0  0  0  0  0  0  0  0  0
   15.7901    2.9967   12.0172 N   0  0  0  0  0  0  0  0  0  0  0  0
   15.2831    2.7988   13.4454 C   0  0  2  0  0  0  0  0  0  0  0  0
  1  2  1  0  0  0  0
  1  3  2  0  0  0  0
  1  4  1  0  0  0  0
  4  5  1  0  0  0  0
  5  6  1  0  0  0  0
  6  7  1  0  0  0  0
  8  7  1  6  0  0  0
  8  9  1  0  0  0  0
  8 16  1  0  0  0  0
  9 10  1  0  0  0  0
 11 10  1  6  0  0  0
 11 12  1  0  0  0  0
 11 16  1  0  0  0  0
 12 13  1  0  0  0  0
 13 14  2  0  0  0  0
 13 15  1  0  0  0  0
 16 15  1  6  0  0  0
M  CHG  1   2  -1
M  END
>  <CHROM.1>
12.81512939,-178.15662070,-167.32563866,150.73681074,-40.51251010,16.99739398
0.99028487,12.95033502,-0.32086189,0.32239784,-0.95647123

>  <Name>
1f27 biotin aptamer (Xray 1.3A)

>  <RI>
0

>  <Rbt.Current_Directory>
/home/itssahil/PROJECTS/Mol_Feturizer/New_Systems/rnas/1f27

>  <Rbt.Executable>
rbdock ($Id: //depot/dev/client3/rdock/2013.1/src/exe/rbdock.cxx#4 $)

>  <Rbt.Library>
libRbt.so (2013.1, Build901 2013/11/27)

>  <Rbt.Parameter_File>
/export/apps/rDock/src/rDock_2013.1_src/data/scripts/dock_solv.prm

>  <Rbt.Receptor>
prm/pocket_docking_7.prm

>  <SCORE>
-28.9883

>  <SCORE.INTER>
-29.0246

>  <SCORE.INTER.CONST>
1

>  <SCORE.INTER.POLAR>
-2.52496

>  <SCORE.INTER.ROT>
5

>  <SCORE.INTER.SOLV>
12.267

>  <SCORE.INTER.VDW>
-21.9555

>  <SCORE.INTER.norm>
-1.81403

>  <SCORE.INTRA>
0.0362102

>  <SCORE.INTRA.DIHEDRAL>
-0.547061

>  <SCORE.INTRA.DIHEDRAL.0>
6.87082

>  <SCORE.INTRA.POLAR>
0

>  <SCORE.INTRA.POLAR.0>
0

>  <SCORE.INTRA.REPUL>
0

>  <SCORE.INTRA.REPUL.0>
0

>  <SCORE.INTRA.SOLV>
-0.717203

>  <SCORE.INTRA.SOLV.lig_0>
-42.5944

>  <SCORE.INTRA.VDW>
0.668342

>  <SCORE.INTRA.VDW.0>
-1.067

>  <SCORE.INTRA.norm>
0.00226314

>  <SCORE.RESTR>
0

>  <SCORE.RESTR.CAVITY>
0

>  <SCORE.RESTR.norm>
0

>  <SCORE.SYSTEM>
0

>  <SCORE.SYSTEM.CONST>
0

>  <SCORE.SYSTEM.DIHEDRAL>
0

>  <SCORE.SYSTEM.SOLV>
0

>  <SCORE.SYSTEM.norm>
0

>  <SCORE.heavy>
16

>  <SCORE.norm>
-1.81177

>  <RMSD>
1.334

$$$$
1f27 biotin aptamer (Xray 1.3A)
 OpenBabel11021811393D
libRbt.so/2013.1/901 2013/11/27
 16 17  0  0  0  0  0  0  0  0999 V2000
   20.3660   -2.3446   14.1839 C   0  0  0  0  0  0  0  0  0  0  0  0
   19.7973   -2.9451   13.2777 O   0  5  0  0  0  0  0  0  0  0  0  0
   21.5658   -2.5293   14.3816 O   0  0  0  0  0  0  0  0  0  0  0  0
   19.6057   -1.3220   15.0186 C   0  0  0  0  0  0  0  0  0  0  0  0
   18.6856   -0.3964   14.1917 C   0  0  0  0  0  0  0  0  0  0  0  0
   18.7977    1.0495   14.6384 C   0  0  0  0  0  0  0  0  0  0  0  0
   17.8460    1.9807   13.9167 C   0  0  0  0  0  0  0  0  0  0  0  0
   16.3583    1.7049   14.1718 C   0  0  2  0  0  0  0  0  0  0  0  0
   15.6951    0.0299   13.5236 S   0  0  0  0  0  0  0  0  0  0  0  0
   13.9449    0.7427   13.7954 C   0  0  0  0  0  0  0  0  0  0  0  0
   14.0667    2.2546   13.4454 C   0  0  2  0  0  0  0  0  0  0  0  0
   13.7418    2.3612   11.9314 N   0  0  0  0  0  0  0  0  0  0  0  0
   14.6880    2.8438   11.2496 C   0  0  0  0  0  0  0  0  0  0  0  0
   14.8372    2.9262    9.9789 O   0  0  0  0  0  0  0  0  0  0  0  0
   15.9066    3.0352   12.0019 N   0  0  0  0  0  0  0  0  0  0  0  0
   15.5034    2.7475   13.4478 C   0  0  2  0  0  0  0  0  0  0  0  0
  1  2  1  0  0  0  0
  1  3  2  0  0  0  0
  1  4  1  0  0  0  0
  4  5  1  0  0  0  0
  5  6  1  0  0  0  0
  6  7  1  0  0  0  0
  8  7  1  6  0  0  0
  8  9  1  0  0  0  0
  8 16  1  0  0  0  0
  9 10  1  0  0  0  0
 11 10  1  6  0  0  0
 11 12  1  0  0  0  0
 11 16  1  0  0  0  0
 12 13  1  0  0  0  0
 13 14  2  0  0  0  0
 13 15  1  0  0  0  0
 16 15  1  6  0  0  0
M  CHG  1   2  -1
M  END
>  <CHROM.1>
-42.57757747,-136.31114756,-176.21004932,64.26950920,-65.23282732,16.90561587
0.67121528,13.30927631,-0.68174873,0.23912111,-0.74207544

>  <Name>
1f27 biotin aptamer (Xray 1.3A)

>  <RI>
0

>  <Rbt.Current_Directory>
/home/itssahil/PROJECTS/Mol_Feturizer/New_Systems/rnas/1f27

>  <Rbt.Executable>
rbdock ($Id: //depot/dev/client3/rdock/2013.1/src/exe/rbdock.cxx#4 $)

>  <Rbt.Library>
libRbt.so (2013.1, Build901 2013/11/27)

>  <Rbt.Parameter_File>
/export/apps/rDock/src/rDock_2013.1_src/data/scripts/dock_solv.prm

>  <Rbt.Receptor>
prm/pocket_docking_6.prm

>  <SCORE>
-27.0334

>  <SCORE.INTER>
-27.2134

>  <SCORE.INTER.CONST>
1

>  <SCORE.INTER.POLAR>
-1.79458

>  <SCORE.INTER.ROT>
5

>  <SCORE.INTER.SOLV>
7.90033

>  <SCORE.INTER.VDW>
-21.7271

>  <SCORE.INTER.norm>
-1.70084

>  <SCORE.INTRA>
0.179956

>  <SCORE.INTRA.DIHEDRAL>
-0.737399

>  <SCORE.INTRA.DIHEDRAL.0>
6.87082

>  <SCORE.INTRA.POLAR>
0

>  <SCORE.INTRA.POLAR.0>
0

>  <SCORE.INTRA.REPUL>
0

>  <SCORE.INTRA.REPUL.0>
0

>  <SCORE.INTRA.SOLV>
-0.570628

>  <SCORE.INTRA.SOLV.lig_0>
-42.5944

>  <SCORE.INTRA.VDW>
0.833969

>  <SCORE.INTRA.VDW.0>
-1.067

>  <SCORE.INTRA.norm>
0.0112472

>  <SCORE.RESTR>
0

>  <SCORE.RESTR.CAVITY>
0

>  <SCORE.RESTR.norm>
0

>  <SCORE.SYSTEM>
0

>  <SCORE.SYSTEM.CONST>
0

>  <SCORE.SYSTEM.DIHEDRAL>
0

>  <SCORE.SYSTEM.SOLV>
0

>  <SCORE.SYSTEM.norm>
0

>  <SCORE.heavy>
16

>  <SCORE.norm>
-1.68959

>  <RMSD>
1.337

$$$$
1f27 biotin aptamer (Xray 1.3A)
 OpenBabel11021811393D
libRbt.so/2013.1/901 2013/11/27
 16 17  0  0  0  0  0  0  0  0999 V2000
   20.8964   -1.4067   14.3060 C   0  0  0  0  0  0  0  0  0  0  0  0
   21.0267   -1.7930   13.1488 O   0  5  0  0  0  0  0  0  0  0  0  0
   20.5291   -2.1945   15.1762 O   0  0  0  0  0  0  0  0  0  0  0  0
   21.2538    0.0265   14.6785 C   0  0  0  0  0  0  0  0  0  0  0  0
   20.3210    1.0882   14.0542 C   0  0  0  0  0  0  0  0  0  0  0  0
   18.8762    0.8777   14.4678 C   0  0  0  0  0  0  0  0  0  0  0  0
   17.9269    1.9090   13.8945 C   0  0  0  0  0  0  0  0  0  0  0  0
   16.4411    1.6356   14.1625 C   0  0  2  0  0  0  0  0  0  0  0  0
   15.7636   -0.0274   13.4981 S   0  0  0  0  0  0  0  0  0  0  0  0
   14.0196    0.6885   13.7997 C   0  0  0  0  0  0  0  0  0  0  0  0
   14.1438    2.2047   13.4698 C   0  0  2  0  0  0  0  0  0  0  0  0
   13.8023    2.3341   11.9612 N   0  0  0  0  0  0  0  0  0  0  0  0
   14.7428    2.8225   11.2756 C   0  0  0  0  0  0  0  0  0  0  0  0
   14.8781    2.9224   10.0046 O   0  0  0  0  0  0  0  0  0  0  0  0
   15.9706    2.9984   12.0168 N   0  0  0  0  0  0  0  0  0  0  0  0
   15.5824    2.6918   13.4630 C   0  0  2  0  0  0  0  0  0  0  0  0
  1  2  1  0  0  0  0
  1  3  2  0  0  0  0
  1  4  1  0  0  0  0
  4  5  1  0  0  0  0
  5  6  1  0  0  0  0
  6  7  1  0  0  0  0
  8  7  1  6  0  0  0
  8  9  1  0  0  0  0
  8 16  1  0  0  0  0
  9 10  1  0  0  0  0
 11 10  1  6  0  0  0
 11 12  1  0  0  0  0
 11 16  1  0  0  0  0
 12 13  1  0  0  0  0
 13 14  2  0  0  0  0
 13 15  1  0  0  0  0
 16 15  1  6  0  0  0
M  CHG  1   2  -1
M  END
>  <CHROM.1>
67.34529849,59.00918727,179.17132997,173.43882761,-58.91670341,17.18212577
0.93938348,13.32467532,0.57153759,-0.04078971,2.47876523

>  <Name>
1f27 biotin aptamer (Xray 1.3A)

>  <RI>
0

>  <Rbt.Current_Directory>
/home/itssahil/PROJECTS/Mol_Feturizer/New_Systems/rnas/1f27

>  <Rbt.Executable>
rbdock ($Id: //depot/dev/client3/rdock/2013.1/src/exe/rbdock.cxx#4 $)

>  <Rbt.Library>
libRbt.so (2013.1, Build901 2013/11/27)

>  <Rbt.Parameter_File>
/export/apps/rDock/src/rDock_2013.1_src/data/scripts/dock_solv.prm

>  <Rbt.Receptor>
prm/pocket_docking_2.prm

>  <SCORE>
-30.8752

>  <SCORE.INTER>
-28.438

>  <SCORE.INTER.CONST>
1

>  <SCORE.INTER.POLAR>
-1.77104

>  <SCORE.INTER.ROT>
5

>  <SCORE.INTER.SOLV>
8.02338

>  <SCORE.INTER.VDW>
-22.663

>  <SCORE.INTER.norm>
-1.77737

>  <SCORE.INTRA>
-2.45311

>  <SCORE.INTRA.DIHEDRAL>
-5.28215

>  <SCORE.INTRA.DIHEDRAL.0>
6.87082

>  <SCORE.INTRA.POLAR>
0

>  <SCORE.INTRA.POLAR.0>
0

>  <SCORE.INTRA.REPUL>
0

>  <SCORE.INTRA.REPUL.0>
0

>  <SCORE.INTRA.SOLV>
0.109228

>  <SCORE.INTRA.SOLV.lig_0>
-42.5944

>  <SCORE.INTRA.VDW>
0.133356

>  <SCORE.INTRA.VDW.0>
-1.067

>  <SCORE.INTRA.norm>
-0.153319

>  <SCORE.RESTR>
0.0158308

>  <SCORE.RESTR.CAVITY>
0.0158308

>  <SCORE.RESTR.norm>
0.000989422

>  <SCORE.SYSTEM>
0

>  <SCORE.SYSTEM.CONST>
0

>  <SCORE.SYSTEM.DIHEDRAL>
0

>  <SCORE.SYSTEM.SOLV>
0

>  <SCORE.SYSTEM.norm>
0

>  <SCORE.heavy>
16

>  <SCORE.norm>
-1.9297

>  <RMSD>
1.347

$$$$
1f27 biotin aptamer (Xray 1.3A)
 OpenBabel11021811393D
libRbt.so/2013.1/901 2013/11/27
 16 17  0  0  0  0  0  0  0  0999 V2000
   21.3139   -1.6437   12.3843 C   0  0  0  0  0  0  0  0  0  0  0  0
   21.1447   -2.8306   12.1233 O   0  5  0  0  0  0  0  0  0  0  0  0
   22.2946   -1.0525   11.9357 O   0  0  0  0  0  0  0  0  0  0  0  0
   20.2777   -0.8860   13.2044 C   0  0  0  0  0  0  0  0  0  0  0  0
   18.8861   -1.5567   13.2315 C   0  0  0  0  0  0  0  0  0  0  0  0
   17.8932   -0.7546   14.0522 C   0  0  0  0  0  0  0  0  0  0  0  0
   17.6330    0.6316   13.5004 C   0  0  0  0  0  0  0  0  0  0  0  0
   16.3740    1.3166   14.0481 C   0  0  2  0  0  0  0  0  0  0  0  0
   14.7252    0.3855   13.7653 S   0  0  0  0  0  0  0  0  0  0  0  0
   13.8506    2.0155   14.2377 C   0  0  0  0  0  0  0  0  0  0  0  0
   14.7602    3.1415   13.6651 C   0  0  2  0  0  0  0  0  0  0  0  0
   14.2329    3.4172   12.2316 N   0  0  0  0  0  0  0  0  0  0  0  0
   15.0990    3.2233   11.3342 C   0  0  0  0  0  0  0  0  0  0  0  0
   14.9793    3.1930   10.0581 O   0  0  0  0  0  0  0  0  0  0  0  0
   16.3249    2.6389   11.8274 N   0  0  0  0  0  0  0  0  0  0  0  0
   16.1656    2.6610   13.3473 C   0  0  2  0  0  0  0  0  0  0  0  0
  1  2  1  0  0  0  0
  1  3  2  0  0  0  0
  1  4  1  0  0  0  0
  4  5  1  0  0  0  0
  5  6  1  0  0  0  0
  6  7  1  0  0  0  0
  8  7  1  6  0  0  0
  8  9  1  0  0  0  0
  8 16  1  0  0  0  0
  9 10  1  0  0  0  0
 11 10  1  6  0  0  0
 11 12  1  0  0  0  0
 11 16  1  0  0  0  0
 12 13  1  0  0  0  0
 13 14  2  0  0  0  0
 13 15  1  0  0  0  0
 16 15  1  6  0  0  0
M  CHG  1   2  -1
M  END
>  <CHROM.1>
-19.66882761,-179.55137805,62.27286774,163.60473199,-58.50092388,17.09990989
0.80632310,12.84031235,-0.38179196,0.47303920,-0.82829401

>  <Name>
1f27 biotin aptamer (Xray 1.3A)

>  <RI>
0

>  <Rbt.Current_Directory>
/home/itssahil/PROJECTS/Mol_Feturizer/New_Systems/rnas/1f27

>  <Rbt.Executable>
rbdock ($Id: //depot/dev/client3/rdock/2013.1/src/exe/rbdock.cxx#4 $)

>  <Rbt.Library>
libRbt.so (2013.1, Build901 2013/11/27)

>  <Rbt.Parameter_File>
/export/apps/rDock/src/rDock_2013.1_src/data/scripts/dock_solv.prm

>  <Rbt.Receptor>
prm/pocket_docking_7.prm

>  <SCORE>
-28.7027

>  <SCORE.INTER>
-27.3392

>  <SCORE.INTER.CONST>
1

>  <SCORE.INTER.POLAR>
-2.15688

>  <SCORE.INTER.ROT>
5

>  <SCORE.INTER.SOLV>
12.9697

>  <SCORE.INTER.VDW>
-22.2931

>  <SCORE.INTER.norm>
-1.7087

>  <SCORE.INTRA>
-1.36342

>  <SCORE.INTRA.DIHEDRAL>
-4.3173

>  <SCORE.INTRA.DIHEDRAL.0>
6.87082

>  <SCORE.INTRA.POLAR>
0

>  <SCORE.INTRA.POLAR.0>
0

>  <SCORE.INTRA.REPUL>
0

>  <SCORE.INTRA.REPUL.0>
0

>  <SCORE.INTRA.SOLV>
-0.749403

>  <SCORE.INTRA.SOLV.lig_0>
-42.5944

>  <SCORE.INTRA.VDW>
1.16993

>  <SCORE.INTRA.VDW.0>
-1.067

>  <SCORE.INTRA.norm>
-0.085214

>  <SCORE.RESTR>
0

>  <SCORE.RESTR.CAVITY>
0

>  <SCORE.RESTR.norm>
0

>  <SCORE.SYSTEM>
0

>  <SCORE.SYSTEM.CONST>
0

>  <SCORE.SYSTEM.DIHEDRAL>
0

>  <SCORE.SYSTEM.SOLV>
0

>  <SCORE.SYSTEM.norm>
0

>  <SCORE.heavy>
16

>  <SCORE.norm>
-1.79392

>  <RMSD>
1.348

$$$$
1f27 biotin aptamer (Xray 1.3A)
 OpenBabel11021811393D
libRbt.so/2013.1/901 2013/11/27
 16 17  0  0  0  0  0  0  0  0999 V2000
   20.9849   -1.0813   12.2468 C   0  0  0  0  0  0  0  0  0  0  0  0
   21.7091   -0.1093   12.4368 O   0  5  0  0  0  0  0  0  0  0  0  0
   21.2777   -1.9020   11.3789 O   0  0  0  0  0  0  0  0  0  0  0  0
   19.7634   -1.3086   13.1283 C   0  0  0  0  0  0  0  0  0  0  0  0
   18.6801   -0.2153   12.9934 C   0  0  0  0  0  0  0  0  0  0  0  0
   18.7773    0.8105   14.1075 C   0  0  0  0  0  0  0  0  0  0  0  0
   17.8631    2.0021   13.9134 C   0  0  0  0  0  0  0  0  0  0  0  0
   16.3766    1.7216   14.1703 C   0  0  2  0  0  0  0  0  0  0  0  0
   15.7165    0.0473   13.5172 S   0  0  0  0  0  0  0  0  0  0  0  0
   13.9650    0.7546   13.7947 C   0  0  0  0  0  0  0  0  0  0  0  0
   14.0823    2.2680   13.4500 C   0  0  2  0  0  0  0  0  0  0  0  0
   13.7543    2.3793   11.9370 N   0  0  0  0  0  0  0  0  0  0  0  0
   14.6981    2.8668   11.2552 C   0  0  0  0  0  0  0  0  0  0  0  0
   14.8448    2.9542    9.9845 O   0  0  0  0  0  0  0  0  0  0  0  0
   15.9175    3.0586   12.0060 N   0  0  0  0  0  0  0  0  0  0  0  0
   15.5177    2.7646   13.4516 C   0  0  2  0  0  0  0  0  0  0  0  0
  1  2  1  0  0  0  0
  1  3  2  0  0  0  0
  1  4  1  0  0  0  0
  4  5  1  0  0  0  0
  5  6  1  0  0  0  0
  6  7  1  0  0  0  0
  8  7  1  6  0  0  0
  8  9  1  0  0  0  0
  8 16  1  0  0  0  0
  9 10  1  0  0  0  0
 11 10  1  6  0  0  0
 11 12  1  0  0  0  0
 11 16  1  0  0  0  0
 12 13  1  0  0  0  0
 13 14  2  0  0  0  0
 13 15  1  0  0  0  0
 16 15  1  6  0  0  0
M  CHG  1   2  -1
M  END
>  <CHROM.1>
64.76077642,-98.29832718,172.04092379,73.94207693,-40.65046958,17.06053565
0.97103118,12.75275057,-0.23785793,0.41480996,-1.05669530

>  <Name>
1f27 biotin aptamer (Xray 1.3A)

>  <RI>
0

>  <Rbt.Current_Directory>
/home/itssahil/PROJECTS/Mol_Feturizer/New_Systems/rnas/1f27

>  <Rbt.Executable>
rbdock ($Id: //depot/dev/client3/rdock/2013.1/src/exe/rbdock.cxx#4 $)

>  <Rbt.Library>
libRbt.so (2013.1, Build901 2013/11/27)

>  <Rbt.Parameter_File>
/export/apps/rDock/src/rDock_2013.1_src/data/scripts/dock_solv.prm

>  <Rbt.Receptor>
prm/pocket_docking_5.prm

>  <SCORE>
-30.3817

>  <SCORE.INTER>
-31.663

>  <SCORE.INTER.CONST>
1

>  <SCORE.INTER.POLAR>
-2.60257

>  <SCORE.INTER.ROT>
5

>  <SCORE.INTER.SOLV>
15.1752

>  <SCORE.INTER.VDW>
-24.4252

>  <SCORE.INTER.norm>
-1.97894

>  <SCORE.INTRA>
1.28131

>  <SCORE.INTRA.DIHEDRAL>
0.766538

>  <SCORE.INTRA.DIHEDRAL.0>
6.87082

>  <SCORE.INTRA.POLAR>
0

>  <SCORE.INTRA.POLAR.0>
0

>  <SCORE.INTRA.REPUL>
0

>  <SCORE.INTRA.REPUL.0>
0

>  <SCORE.INTRA.SOLV>
-0.0464556

>  <SCORE.INTRA.SOLV.lig_0>
-42.5944

>  <SCORE.INTRA.VDW>
0.921266

>  <SCORE.INTRA.VDW.0>
-1.067

>  <SCORE.INTRA.norm>
0.0800817

>  <SCORE.RESTR>
0

>  <SCORE.RESTR.CAVITY>
0

>  <SCORE.RESTR.norm>
0

>  <SCORE.SYSTEM>
0

>  <SCORE.SYSTEM.CONST>
0

>  <SCORE.SYSTEM.DIHEDRAL>
0

>  <SCORE.SYSTEM.SOLV>
0

>  <SCORE.SYSTEM.norm>
0

>  <SCORE.heavy>
16

>  <SCORE.norm>
-1.89886

>  <RMSD>
1.357

$$$$
1f27 biotin aptamer (Xray 1.3A)
 OpenBabel11021811393D
libRbt.so/2013.1/901 2013/11/27
 16 17  0  0  0  0  0  0  0  0999 V2000
   21.1454   -1.1732   12.7582 C   0  0  0  0  0  0  0  0  0  0  0  0
   20.5987   -2.2580   12.5866 O   0  5  0  0  0  0  0  0  0  0  0  0
   22.1012   -0.8516   12.0542 O   0  0  0  0  0  0  0  0  0  0  0  0
   20.6003   -0.1977   13.7935 C   0  0  0  0  0  0  0  0  0  0  0  0
   19.3947    0.6328   13.2996 C   0  0  0  0  0  0  0  0  0  0  0  0
   18.9917    1.6912   14.3096 C   0  0  0  0  0  0  0  0  0  0  0  0
   17.8606    2.5796   13.8355 C   0  0  0  0  0  0  0  0  0  0  0  0
   16.4542    2.0165   14.0792 C   0  0  2  0  0  0  0  0  0  0  0  0
   16.0924    0.3050   13.3010 S   0  0  0  0  0  0  0  0  0  0  0  0
   14.2484    0.6610   13.6445 C   0  0  0  0  0  0  0  0  0  0  0  0
   14.0848    2.1925   13.4188 C   0  0  2  0  0  0  0  0  0  0  0  0
   13.7112    2.3573   11.9213 N   0  0  0  0  0  0  0  0  0  0  0  0
   14.5379    3.0577   11.2738 C   0  0  0  0  0  0  0  0  0  0  0  0
   14.6404    3.2665   10.0130 O   0  0  0  0  0  0  0  0  0  0  0  0
   15.7182    3.4091   12.0295 N   0  0  0  0  0  0  0  0  0  0  0  0
   15.4074    2.9386   13.4501 C   0  0  2  0  0  0  0  0  0  0  0  0
  1  2  1  0  0  0  0
  1  3  2  0  0  0  0
  1  4  1  0  0  0  0
  4  5  1  0  0  0  0
  5  6  1  0  0  0  0
  6  7  1  0  0  0  0
  8  7  1  6  0  0  0
  8  9  1  0  0  0  0
  8 16  1  0  0  0  0
  9 10  1  0  0  0  0
 11 10  1  6  0  0  0
 11 12  1  0  0  0  0
 11 16  1  0  0  0  0
 12 13  1  0  0  0  0
 13 14  2  0  0  0  0
 13 15  1  0  0  0  0
 16 15  1  6  0  0  0
M  CHG  1   2  -1
M  END
>  <CHROM.1>
-81.19467124,-173.66524633,176.87597388,84.87620795,-57.45719934,17.17915051
1.19134682,12.85492097,-0.34845092,0.36089972,-0.98170439

>  <Name>
1f27 biotin aptamer (Xray 1.3A)

>  <RI>
0

>  <Rbt.Current_Directory>
/home/itssahil/PROJECTS/Mol_Feturizer/New_Systems/rnas/1f27

>  <Rbt.Executable>
rbdock ($Id: //depot/dev/client3/rdock/2013.1/src/exe/rbdock.cxx#4 $)

>  <Rbt.Library>
libRbt.so (2013.1, Build901 2013/11/27)

>  <Rbt.Parameter_File>
/export/apps/rDock/src/rDock_2013.1_src/data/scripts/dock_solv.prm

>  <Rbt.Receptor>
prm/pocket_docking_4.prm

>  <SCORE>
-32.8577

>  <SCORE.INTER>
-30.866

>  <SCORE.INTER.CONST>
1

>  <SCORE.INTER.POLAR>
-2.69933

>  <SCORE.INTER.ROT>
5

>  <SCORE.INTER.SOLV>
12.2967

>  <SCORE.INTER.VDW>
-22.6118

>  <SCORE.INTER.norm>
-1.92912

>  <SCORE.INTRA>
-1.99179

>  <SCORE.INTRA.DIHEDRAL>
-3.13876

>  <SCORE.INTRA.DIHEDRAL.0>
6.87082

>  <SCORE.INTRA.POLAR>
0

>  <SCORE.INTRA.POLAR.0>
0

>  <SCORE.INTRA.REPUL>
0

>  <SCORE.INTRA.REPUL.0>
0

>  <SCORE.INTRA.SOLV>
-0.744462

>  <SCORE.INTRA.SOLV.lig_0>
-42.5944

>  <SCORE.INTRA.VDW>
-0.0501823

>  <SCORE.INTRA.VDW.0>
-1.067

>  <SCORE.INTRA.norm>
-0.124487

>  <SCORE.RESTR>
0

>  <SCORE.RESTR.CAVITY>
0

>  <SCORE.RESTR.norm>
0

>  <SCORE.SYSTEM>
0

>  <SCORE.SYSTEM.CONST>
0

>  <SCORE.SYSTEM.DIHEDRAL>
0

>  <SCORE.SYSTEM.SOLV>
0

>  <SCORE.SYSTEM.norm>
0

>  <SCORE.heavy>
16

>  <SCORE.norm>
-2.05361

>  <RMSD>
1.365

$$$$
1f27 biotin aptamer (Xray 1.3A)
 OpenBabel11021811393D
libRbt.so/2013.1/901 2013/11/27
 16 17  0  0  0  0  0  0  0  0999 V2000
   20.8930   -1.2507   14.4696 C   0  0  0  0  0  0  0  0  0  0  0  0
   20.5302   -1.8571   15.4726 O   0  5  0  0  0  0  0  0  0  0  0  0
   20.9780   -1.8419   13.3946 O   0  0  0  0  0  0  0  0  0  0  0  0
   21.1717    0.2453   14.5397 C   0  0  0  0  0  0  0  0  0  0  0  0
   20.2021    1.1043   13.6977 C   0  0  0  0  0  0  0  0  0  0  0  0
   18.7745    0.9934   14.2001 C   0  0  0  0  0  0  0  0  0  0  0  0
   17.8014    1.8857   13.4581 C   0  0  0  0  0  0  0  0  0  0  0  0
   16.3398    1.7576   13.9069 C   0  0  2  0  0  0  0  0  0  0  0  0
   15.5092    0.0643   13.5773 S   0  0  0  0  0  0  0  0  0  0  0  0
   13.8470    0.9346   13.9301 C   0  0  0  0  0  0  0  0  0  0  0  0
   14.0156    2.3726   13.3582 C   0  0  2  0  0  0  0  0  0  0  0  0
   13.5243    2.2985   11.8877 N   0  0  0  0  0  0  0  0  0  0  0  0
   14.4118    2.6136   11.0474 C   0  0  0  0  0  0  0  0  0  0  0  0
   14.4174    2.5133    9.7693 O   0  0  0  0  0  0  0  0  0  0  0  0
   15.7184    2.8138   11.6308 N   0  0  0  0  0  0  0  0  0  0  0  0
   15.4692    2.7537   13.1376 C   0  0  2  0  0  0  0  0  0  0  0  0
  1  2  1  0  0  0  0
  1  3  2  0  0  0  0
  1  4  1  0  0  0  0
  4  5  1  0  0  0  0
  5  6  1  0  0  0  0
  6  7  1  0  0  0  0
  8  7  1  6  0  0  0
  8  9  1  0  0  0  0
  8 16  1  0  0  0  0
  9 10  1  0  0  0  0
 11 10  1  6  0  0  0
 11 12  1  0  0  0  0
 11 16  1  0  0  0  0
 12 13  1  0  0  0  0
 13 14  2  0  0  0  0
 13 15  1  0  0  0  0
 16 15  1  6  0  0  0
M  CHG  1   2  -1
M  END
>  <CHROM.1>
-114.75111993,63.52048900,176.42921456,177.78573330,-65.29881020,17.01261018
0.97871358,13.22514281,0.54294145,-0.09539886,2.30735232

>  <Name>
1f27 biotin aptamer (Xray 1.3A)

>  <RI>
0

>  <Rbt.Current_Directory>
/home/itssahil/PROJECTS/Mol_Feturizer/New_Systems/rnas/1f27

>  <Rbt.Executable>
rbdock ($Id: //depot/dev/client3/rdock/2013.1/src/exe/rbdock.cxx#4 $)

>  <Rbt.Library>
libRbt.so (2013.1, Build901 2013/11/27)

>  <Rbt.Parameter_File>
/export/apps/rDock/src/rDock_2013.1_src/data/scripts/dock_solv.prm

>  <Rbt.Receptor>
prm/pocket_docking_2.prm

>  <SCORE>
-28.9808

>  <SCORE.INTER>
-26.4596

>  <SCORE.INTER.CONST>
1

>  <SCORE.INTER.POLAR>
-1.42044

>  <SCORE.INTER.ROT>
5

>  <SCORE.INTER.SOLV>
8.13664

>  <SCORE.INTER.VDW>
-22.5505

>  <SCORE.INTER.norm>
-1.65373

>  <SCORE.INTRA>
-2.52555

>  <SCORE.INTRA.DIHEDRAL>
-5.30126

>  <SCORE.INTRA.DIHEDRAL.0>
6.87082

>  <SCORE.INTRA.POLAR>
0

>  <SCORE.INTRA.POLAR.0>
0

>  <SCORE.INTRA.REPUL>
0

>  <SCORE.INTRA.REPUL.0>
0

>  <SCORE.INTRA.SOLV>
0.0954519

>  <SCORE.INTRA.SOLV.lig_0>
-42.5944

>  <SCORE.INTRA.VDW>
0.0773547

>  <SCORE.INTRA.VDW.0>
-1.067

>  <SCORE.INTRA.norm>
-0.157847

>  <SCORE.RESTR>
0.00433022

>  <SCORE.RESTR.CAVITY>
0.00433022

>  <SCORE.RESTR.norm>
0.000270639

>  <SCORE.SYSTEM>
0

>  <SCORE.SYSTEM.CONST>
0

>  <SCORE.SYSTEM.DIHEDRAL>
0

>  <SCORE.SYSTEM.SOLV>
0

>  <SCORE.SYSTEM.norm>
0

>  <SCORE.heavy>
16

>  <SCORE.norm>
-1.8113

>  <RMSD>
1.371

$$$$
1f27 biotin aptamer (Xray 1.3A)
 OpenBabel11021811393D
libRbt.so/2013.1/901 2013/11/27
 16 17  0  0  0  0  0  0  0  0999 V2000
   20.6435   -0.8148   13.5673 C   0  0  0  0  0  0  0  0  0  0  0  0
   20.1958   -1.4539   14.5141 O   0  5  0  0  0  0  0  0  0  0  0  0
   20.5403   -1.2598   12.4254 O   0  0  0  0  0  0  0  0  0  0  0  0
   21.2644    0.5573   13.7963 C   0  0  0  0  0  0  0  0  0  0  0  0
   20.4808    1.7176   13.1431 C   0  0  0  0  0  0  0  0  0  0  0  0
   19.1481    1.9507   13.8304 C   0  0  0  0  0  0  0  0  0  0  0  0
   18.0893    0.9342   13.4568 C   0  0  0  0  0  0  0  0  0  0  0  0
   16.6902    1.2276   14.0142 C   0  0  2  0  0  0  0  0  0  0  0  0
   15.3349   -0.0565   13.5899 S   0  0  0  0  0  0  0  0  0  0  0  0
   14.0696    1.2508   14.1689 C   0  0  0  0  0  0  0  0  0  0  0  0
   14.6729    2.6173   13.7307 C   0  0  2  0  0  0  0  0  0  0  0  0
   14.1137    2.8847   12.3077 N   0  0  0  0  0  0  0  0  0  0  0  0
   15.0135    2.9989   11.4300 C   0  0  0  0  0  0  0  0  0  0  0  0
   14.9238    3.0588   10.1525 O   0  0  0  0  0  0  0  0  0  0  0  0
   16.3401    2.6968   11.9163 N   0  0  0  0  0  0  0  0  0  0  0  0
   16.1586    2.5362   13.4254 C   0  0  2  0  0  0  0  0  0  0  0  0
  1  2  1  0  0  0  0
  1  3  2  0  0  0  0
  1  4  1  0  0  0  0
  4  5  1  0  0  0  0
  5  6  1  0  0  0  0
  6  7  1  0  0  0  0
  8  7  1  6  0  0  0
  8  9  1  0  0  0  0
  8 16  1  0  0  0  0
  9 10  1  0  0  0  0
 11 10  1  6  0  0  0
 11 12  1  0  0  0  0
 11 16  1  0  0  0  0
 12 13  1  0  0  0  0
 13 14  2  0  0  0  0
 13 15  1  0  0  0  0
 16 15  1  6  0  0  0
M  CHG  1   2  -1
M  END
>  <CHROM.1>
-114.56067756,69.20403231,-76.93641693,-173.69397791,-178.82543884,17.22715813
1.17859762,13.10174934,0.44340553,-0.12002671,2.47395727

>  <Name>
1f27 biotin aptamer (Xray 1.3A)

>  <RI>
0

>  <Rbt.Current_Directory>
/home/itssahil/PROJECTS/Mol_Feturizer/New_Systems/rnas/1f27

>  <Rbt.Executable>
rbdock ($Id: //depot/dev/client3/rdock/2013.1/src/exe/rbdock.cxx#4 $)

>  <Rbt.Library>
libRbt.so (2013.1, Build901 2013/11/27)

>  <Rbt.Parameter_File>
/export/apps/rDock/src/rDock_2013.1_src/data/scripts/dock_solv.prm

>  <Rbt.Receptor>
prm/pocket_docking_5.prm

>  <SCORE>
-26.824

>  <SCORE.INTER>
-26.1008

>  <SCORE.INTER.CONST>
1

>  <SCORE.INTER.POLAR>
-1.25001

>  <SCORE.INTER.ROT>
5

>  <SCORE.INTER.SOLV>
9.85287

>  <SCORE.INTER.VDW>
-23.4515

>  <SCORE.INTER.norm>
-1.6313

>  <SCORE.INTRA>
-0.723118

>  <SCORE.INTRA.DIHEDRAL>
-3.92257

>  <SCORE.INTRA.DIHEDRAL.0>
6.87082

>  <SCORE.INTRA.POLAR>
0

>  <SCORE.INTRA.POLAR.0>
0

>  <SCORE.INTRA.REPUL>
0

>  <SCORE.INTRA.REPUL.0>
0

>  <SCORE.INTRA.SOLV>
1.61219

>  <SCORE.INTRA.SOLV.lig_0>
-42.5944

>  <SCORE.INTRA.VDW>
0.432072

>  <SCORE.INTRA.VDW.0>
-1.067

>  <SCORE.INTRA.norm>
-0.0451948

>  <SCORE.RESTR>
0

>  <SCORE.RESTR.CAVITY>
0

>  <SCORE.RESTR.norm>
0

>  <SCORE.SYSTEM>
0

>  <SCORE.SYSTEM.CONST>
0

>  <SCORE.SYSTEM.DIHEDRAL>
0

>  <SCORE.SYSTEM.SOLV>
0

>  <SCORE.SYSTEM.norm>
0

>  <SCORE.heavy>
16

>  <SCORE.norm>
-1.6765

>  <RMSD>
1.371

$$$$
1f27 biotin aptamer (Xray 1.3A)
 OpenBabel11021811393D
libRbt.so/2013.1/901 2013/11/27
 16 17  0  0  0  0  0  0  0  0999 V2000
   20.2726   -1.1439   13.0462 C   0  0  0  0  0  0  0  0  0  0  0  0
   21.1903   -1.8805   13.3935 O   0  5  0  0  0  0  0  0  0  0  0  0
   19.1321   -1.5930   12.9462 O   0  0  0  0  0  0  0  0  0  0  0  0
   20.5309    0.3380   12.8057 C   0  0  0  0  0  0  0  0  0  0  0  0
   20.3389    1.2201   14.0595 C   0  0  0  0  0  0  0  0  0  0  0  0
   18.9219    1.1315   14.5953 C   0  0  0  0  0  0  0  0  0  0  0  0
   17.9345    1.9957   13.8390 C   0  0  0  0  0  0  0  0  0  0  0  0
   16.4587    1.6777   14.1133 C   0  0  2  0  0  0  0  0  0  0  0  0
   15.8231    0.0051   13.4321 S   0  0  0  0  0  0  0  0  0  0  0  0
   14.0620    0.6683   13.7543 C   0  0  0  0  0  0  0  0  0  0  0  0
   14.1418    2.1914   13.4431 C   0  0  2  0  0  0  0  0  0  0  0  0
   13.7863    2.3304   11.9386 N   0  0  0  0  0  0  0  0  0  0  0  0
   14.7082    2.8534   11.2532 C   0  0  0  0  0  0  0  0  0  0  0  0
   14.8318    2.9731    9.9827 O   0  0  0  0  0  0  0  0  0  0  0  0
   15.9357    3.0539   11.9885 N   0  0  0  0  0  0  0  0  0  0  0  0
   15.5663    2.7183   13.4331 C   0  0  2  0  0  0  0  0  0  0  0  0
  1  2  1  0  0  0  0
  1  3  2  0  0  0  0
  1  4  1  0  0  0  0
  4  5  1  0  0  0  0
  5  6  1  0  0  0  0
  6  7  1  0  0  0  0
  8  7  1  6  0  0  0
  8  9  1  0  0  0  0
  8 16  1  0  0  0  0
  9 10  1  0  0  0  0
 11 10  1  6  0  0  0
 11 12  1  0  0  0  0
 11 16  1  0  0  0  0
 12 13  1  0  0  0  0
 13 14  2  0  0  0  0
 13 15  1  0  0  0  0
 16 15  1  6  0  0  0
M  CHG  1   2  -1
M  END
>  <CHROM.1>
-90.15947066,-60.29188719,-80.13999450,165.52254818,-69.37980910,17.03498578
1.04550928,13.00574739,0.50732549,-0.09009288,2.56820270

>  <Name>
1f27 biotin aptamer (Xray 1.3A)

>  <RI>
0

>  <Rbt.Current_Directory>
/home/itssahil/PROJECTS/Mol_Feturizer/New_Systems/rnas/1f27

>  <Rbt.Executable>
rbdock ($Id: //depot/dev/client3/rdock/2013.1/src/exe/rbdock.cxx#4 $)

>  <Rbt.Library>
libRbt.so (2013.1, Build901 2013/11/27)

>  <Rbt.Parameter_File>
/export/apps/rDock/src/rDock_2013.1_src/data/scripts/dock_solv.prm

>  <Rbt.Receptor>
prm/pocket_docking_3.prm

>  <SCORE>
-30.2327

>  <SCORE.INTER>
-29.196

>  <SCORE.INTER.CONST>
1

>  <SCORE.INTER.POLAR>
-1.76129

>  <SCORE.INTER.ROT>
5

>  <SCORE.INTER.SOLV>
10.1681

>  <SCORE.INTER.VDW>
-23.9158

>  <SCORE.INTER.norm>
-1.82475

>  <SCORE.INTRA>
-1.03666

>  <SCORE.INTRA.DIHEDRAL>
-2.88889

>  <SCORE.INTRA.DIHEDRAL.0>
6.87082

>  <SCORE.INTRA.POLAR>
0

>  <SCORE.INTRA.POLAR.0>
0

>  <SCORE.INTRA.REPUL>
0

>  <SCORE.INTRA.REPUL.0>
0

>  <SCORE.INTRA.SOLV>
1.12398

>  <SCORE.INTRA.SOLV.lig_0>
-42.5944

>  <SCORE.INTRA.VDW>
-0.154211

>  <SCORE.INTRA.VDW.0>
-1.067

>  <SCORE.INTRA.norm>
-0.0647916

>  <SCORE.RESTR>
0

>  <SCORE.RESTR.CAVITY>
0

>  <SCORE.RESTR.norm>
0

>  <SCORE.SYSTEM>
0

>  <SCORE.SYSTEM.CONST>
0

>  <SCORE.SYSTEM.DIHEDRAL>
0

>  <SCORE.SYSTEM.SOLV>
0

>  <SCORE.SYSTEM.norm>
0

>  <SCORE.heavy>
16

>  <SCORE.norm>
-1.88954

>  <RMSD>
1.375

$$$$
1f27 biotin aptamer (Xray 1.3A)
 OpenBabel11021811393D
libRbt.so/2013.1/901 2013/11/27
 16 17  0  0  0  0  0  0  0  0999 V2000
   20.8727   -0.6132   13.1180 C   0  0  0  0  0  0  0  0  0  0  0  0
   21.8356   -0.4893   12.3679 O   0  5  0  0  0  0  0  0  0  0  0  0
   20.0146   -1.4607   12.8769 O   0  0  0  0  0  0  0  0  0  0  0  0
   20.7738    0.2322   14.3813 C   0  0  0  0  0  0  0  0  0  0  0  0
   19.3737    0.8396   14.6219 C   0  0  0  0  0  0  0  0  0  0  0  0
   18.9124    1.6705   13.4388 C   0  0  0  0  0  0  0  0  0  0  0  0
   17.8484    2.6883   13.7931 C   0  0  0  0  0  0  0  0  0  0  0  0
   16.4535    2.1004   14.0442 C   0  0  2  0  0  0  0  0  0  0  0  0
   16.1088    0.3946   13.2460 S   0  0  0  0  0  0  0  0  0  0  0  0
   14.2636    0.7177   13.6146 C   0  0  0  0  0  0  0  0  0  0  0  0
   14.0745    2.2495   13.4124 C   0  0  2  0  0  0  0  0  0  0  0  0
   13.6817    2.4295   11.9216 N   0  0  0  0  0  0  0  0  0  0  0  0
   14.4904    3.1513   11.2750 C   0  0  0  0  0  0  0  0  0  0  0  0
   14.5757    3.3792   10.0162 O   0  0  0  0  0  0  0  0  0  0  0  0
   15.6737    3.5101   12.0225 N   0  0  0  0  0  0  0  0  0  0  0  0
   15.3860    3.0152   13.4397 C   0  0  2  0  0  0  0  0  0  0  0  0
  1  2  1  0  0  0  0
  1  3  2  0  0  0  0
  1  4  1  0  0  0  0
  4  5  1  0  0  0  0
  5  6  1  0  0  0  0
  6  7  1  0  0  0  0
  8  7  1  6  0  0  0
  8  9  1  0  0  0  0
  8 16  1  0  0  0  0
  9 10  1  0  0  0  0
 11 10  1  6  0  0  0
 11 12  1  0  0  0  0
 11 16  1  0  0  0  0
 12 13  1  0  0  0  0
 13 14  2  0  0  0  0
 13 15  1  0  0  0  0
 16 15  1  6  0  0  0
M  CHG  1   2  -1
M  END
>  <CHROM.1>
135.41115237,-56.15749321,-157.98037092,-74.06643432,-22.75310955,17.10343489
1.38653822,12.95798380,-0.41749171,0.23370096,-0.89439051

>  <Name>
1f27 biotin aptamer (Xray 1.3A)

>  <RI>
0

>  <Rbt.Current_Directory>
/home/itssahil/PROJECTS/Mol_Feturizer/New_Systems/rnas/1f27

>  <Rbt.Executable>
rbdock ($Id: //depot/dev/client3/rdock/2013.1/src/exe/rbdock.cxx#4 $)

>  <Rbt.Library>
libRbt.so (2013.1, Build901 2013/11/27)

>  <Rbt.Parameter_File>
/export/apps/rDock/src/rDock_2013.1_src/data/scripts/dock_solv.prm

>  <Rbt.Receptor>
prm/pocket_docking_3.prm

>  <SCORE>
-29.015

>  <SCORE.INTER>
-30.5472

>  <SCORE.INTER.CONST>
1

>  <SCORE.INTER.POLAR>
-2.54731

>  <SCORE.INTER.ROT>
5

>  <SCORE.INTER.SOLV>
12.0526

>  <SCORE.INTER.VDW>
-22.8246

>  <SCORE.INTER.norm>
-1.9092

>  <SCORE.INTRA>
1.53217

>  <SCORE.INTRA.DIHEDRAL>
1.11618

>  <SCORE.INTRA.DIHEDRAL.0>
6.87082

>  <SCORE.INTRA.POLAR>
0

>  <SCORE.INTRA.POLAR.0>
0

>  <SCORE.INTRA.REPUL>
0

>  <SCORE.INTRA.REPUL.0>
0

>  <SCORE.INTRA.SOLV>
0.474823

>  <SCORE.INTRA.SOLV.lig_0>
-42.5944

>  <SCORE.INTRA.VDW>
0.736668

>  <SCORE.INTRA.VDW.0>
-1.067

>  <SCORE.INTRA.norm>
0.0957605

>  <SCORE.RESTR>
0

>  <SCORE.RESTR.CAVITY>
0

>  <SCORE.RESTR.norm>
0

>  <SCORE.SYSTEM>
0

>  <SCORE.SYSTEM.CONST>
0

>  <SCORE.SYSTEM.DIHEDRAL>
0

>  <SCORE.SYSTEM.SOLV>
0

>  <SCORE.SYSTEM.norm>
0

>  <SCORE.heavy>
16

>  <SCORE.norm>
-1.81344

>  <RMSD>
1.385

$$$$
1f27 biotin aptamer (Xray 1.3A)
 OpenBabel11021811393D
libRbt.so/2013.1/901 2013/11/27
 16 17  0  0  0  0  0  0  0  0999 V2000
   21.1883   -1.2674   12.5267 C   0  0  0  0  0  0  0  0  0  0  0  0
   21.6847   -2.3792   12.6785 O   0  5  0  0  0  0  0  0  0  0  0  0
   21.8997   -0.3195   12.1983 O   0  0  0  0  0  0  0  0  0  0  0  0
   19.6848   -1.0744   12.6773 C   0  0  0  0  0  0  0  0  0  0  0  0
   19.2232   -0.8549   14.1353 C   0  0  0  0  0  0  0  0  0  0  0  0
   17.7425   -0.5317   14.2117 C   0  0  0  0  0  0  0  0  0  0  0  0
   17.4043    0.8682   13.7433 C   0  0  0  0  0  0  0  0  0  0  0  0
   16.0062    1.3599   14.1409 C   0  0  2  0  0  0  0  0  0  0  0  0
   14.5499    0.2100   13.6692 S   0  0  0  0  0  0  0  0  0  0  0  0
   13.4043    1.6925   14.0362 C   0  0  0  0  0  0  0  0  0  0  0  0
   14.2044    2.9447   13.5724 C   0  0  2  0  0  0  0  0  0  0  0  0
   13.8115    3.1660   12.0872 N   0  0  0  0  0  0  0  0  0  0  0  0
   14.7937    3.1107   11.2965 C   0  0  0  0  0  0  0  0  0  0  0  0
   14.8269    3.0842   10.0151 O   0  0  0  0  0  0  0  0  0  0  0  0
   16.0253    2.6973   11.9288 N   0  0  0  0  0  0  0  0  0  0  0  0
   15.6909    2.6724   13.4200 C   0  0  2  0  0  0  0  0  0  0  0  0
  1  2  1  0  0  0  0
  1  3  2  0  0  0  0
  1  4  1  0  0  0  0
  4  5  1  0  0  0  0
  5  6  1  0  0  0  0
  6  7  1  0  0  0  0
  8  7  1  6  0  0  0
  8  9  1  0  0  0  0
  8 16  1  0  0  0  0
  9 10  1  0  0  0  0
 11 10  1  6  0  0  0
 11 12  1  0  0  0  0
 11 16  1  0  0  0  0
 12 13  1  0  0  0  0
 13 14  2  0  0  0  0
 13 15  1  0  0  0  0
 16 15  1  6  0  0  0
M  CHG  1   2  -1
M  END
>  <CHROM.1>
84.84918681,174.32935166,-73.55819901,-164.72552004,-52.91855953,16.87378133
0.88483060,12.91822264,-0.35158601,0.38372526,-0.87025146

>  <Name>
1f27 biotin aptamer (Xray 1.3A)

>  <RI>
0

>  <Rbt.Current_Directory>
/home/itssahil/PROJECTS/Mol_Feturizer/New_Systems/rnas/1f27

>  <Rbt.Executable>
rbdock ($Id: //depot/dev/client3/rdock/2013.1/src/exe/rbdock.cxx#4 $)

>  <Rbt.Library>
libRbt.so (2013.1, Build901 2013/11/27)

>  <Rbt.Parameter_File>
/export/apps/rDock/src/rDock_2013.1_src/data/scripts/dock_solv.prm

>  <Rbt.Receptor>
prm/pocket_docking_4.prm

>  <SCORE>
-27.9106

>  <SCORE.INTER>
-26.1251

>  <SCORE.INTER.CONST>
1

>  <SCORE.INTER.POLAR>
-2.27397

>  <SCORE.INTER.ROT>
5

>  <SCORE.INTER.SOLV>
12.8388

>  <SCORE.INTER.VDW>
-21.0498

>  <SCORE.INTER.norm>
-1.63282

>  <SCORE.INTRA>
-1.78549

>  <SCORE.INTRA.DIHEDRAL>
-3.41439

>  <SCORE.INTRA.DIHEDRAL.0>
6.87082

>  <SCORE.INTRA.POLAR>
0

>  <SCORE.INTRA.POLAR.0>
0

>  <SCORE.INTRA.REPUL>
0

>  <SCORE.INTRA.REPUL.0>
0

>  <SCORE.INTRA.SOLV>
-0.847069

>  <SCORE.INTRA.SOLV.lig_0>
-42.5944

>  <SCORE.INTRA.VDW>
0.345233

>  <SCORE.INTRA.VDW.0>
-1.067

>  <SCORE.INTRA.norm>
-0.111593

>  <SCORE.RESTR>
0

>  <SCORE.RESTR.CAVITY>
0

>  <SCORE.RESTR.norm>
0

>  <SCORE.SYSTEM>
0

>  <SCORE.SYSTEM.CONST>
0

>  <SCORE.SYSTEM.DIHEDRAL>
0

>  <SCORE.SYSTEM.SOLV>
0

>  <SCORE.SYSTEM.norm>
0

>  <SCORE.heavy>
16

>  <SCORE.norm>
-1.74441

>  <RMSD>
1.391

$$$$
1f27 biotin aptamer (Xray 1.3A)
 OpenBabel11021811393D
libRbt.so/2013.1/901 2013/11/27
 16 17  0  0  0  0  0  0  0  0999 V2000
   21.2516   -1.3708   12.6454 C   0  0  0  0  0  0  0  0  0  0  0  0
   20.8544   -2.3878   13.2051 O   0  5  0  0  0  0  0  0  0  0  0  0
   22.4547   -1.2127   12.4456 O   0  0  0  0  0  0  0  0  0  0  0  0
   20.2535   -0.3381   12.1376 C   0  0  0  0  0  0  0  0  0  0  0  0
   19.7054    0.5985   13.2374 C   0  0  0  0  0  0  0  0  0  0  0  0
   18.2914    1.0560   12.9306 C   0  0  0  0  0  0  0  0  0  0  0  0
   17.6646    1.8701   14.0432 C   0  0  0  0  0  0  0  0  0  0  0  0
   16.1538    1.6663   14.2173 C   0  0  2  0  0  0  0  0  0  0  0  0
   15.4556    0.0012   13.5805 S   0  0  0  0  0  0  0  0  0  0  0  0
   13.7261    0.7963   13.7264 C   0  0  0  0  0  0  0  0  0  0  0  0
   13.9351    2.2896   13.3398 C   0  0  2  0  0  0  0  0  0  0  0  0
   13.7039    2.3613   11.8067 N   0  0  0  0  0  0  0  0  0  0  0  0
   14.7088    2.7810   11.1684 C   0  0  0  0  0  0  0  0  0  0  0  0
   14.9352    2.8161    9.9070 O   0  0  0  0  0  0  0  0  0  0  0  0
   15.8888    2.9443   11.9860 N   0  0  0  0  0  0  0  0  0  0  0  0
   15.3897    2.7206   13.4132 C   0  0  2  0  0  0  0  0  0  0  0  0
  1  2  1  0  0  0  0
  1  3  2  0  0  0  0
  1  4  1  0  0  0  0
  4  5  1  0  0  0  0
  5  6  1  0  0  0  0
  6  7  1  0  0  0  0
  8  7  1  6  0  0  0
  8  9  1  0  0  0  0
  8 16  1  0  0  0  0
  9 10  1  0  0  0  0
 11 10  1  6  0  0  0
 11 12  1  0  0  0  0
 11 16  1  0  0  0  0
 12 13  1  0  0  0  0
 13 14  2  0  0  0  0
 13 15  1  0  0  0  0
 16 15  1  6  0  0  0
M  CHG  1   2  -1
M  END
>  <CHROM.1>
79.73207485,-149.57571317,174.55324025,-145.63798973,24.30679075,17.06979134
0.93223179,12.77000182,-0.32960292,0.33182093,-0.88755023

>  <Name>
1f27 biotin aptamer (Xray 1.3A)

>  <RI>
0

>  <Rbt.Current_Directory>
/home/itssahil/PROJECTS/Mol_Feturizer/New_Systems/rnas/1f27

>  <Rbt.Executable>
rbdock ($Id: //depot/dev/client3/rdock/2013.1/src/exe/rbdock.cxx#4 $)

>  <Rbt.Library>
libRbt.so (2013.1, Build901 2013/11/27)

>  <Rbt.Parameter_File>
/export/apps/rDock/src/rDock_2013.1_src/data/scripts/dock_solv.prm

>  <Rbt.Receptor>
prm/pocket_docking_2.prm

>  <SCORE>
-29.5109

>  <SCORE.INTER>
-32.2566

>  <SCORE.INTER.CONST>
1

>  <SCORE.INTER.POLAR>
-2.48003

>  <SCORE.INTER.ROT>
5

>  <SCORE.INTER.SOLV>
11.529

>  <SCORE.INTER.VDW>
-24.0139

>  <SCORE.INTER.norm>
-2.01603

>  <SCORE.INTRA>
2.52223

>  <SCORE.INTRA.DIHEDRAL>
4.96207

>  <SCORE.INTRA.DIHEDRAL.0>
6.87082

>  <SCORE.INTRA.POLAR>
0

>  <SCORE.INTRA.POLAR.0>
0

>  <SCORE.INTRA.REPUL>
0

>  <SCORE.INTRA.REPUL.0>
0

>  <SCORE.INTRA.SOLV>
-0.464465

>  <SCORE.INTRA.SOLV.lig_0>
-42.5944

>  <SCORE.INTRA.VDW>
0.273431

>  <SCORE.INTRA.VDW.0>
-1.067

>  <SCORE.INTRA.norm>
0.15764

>  <SCORE.RESTR>
0.223422

>  <SCORE.RESTR.CAVITY>
0.223422

>  <SCORE.RESTR.norm>
0.0139638

>  <SCORE.SYSTEM>
0

>  <SCORE.SYSTEM.CONST>
0

>  <SCORE.SYSTEM.DIHEDRAL>
0

>  <SCORE.SYSTEM.SOLV>
0

>  <SCORE.SYSTEM.norm>
0

>  <SCORE.heavy>
16

>  <SCORE.norm>
-1.84443

>  <RMSD>
1.392

$$$$
1f27 biotin aptamer (Xray 1.3A)
 OpenBabel11021811393D
libRbt.so/2013.1/901 2013/11/27
 16 17  0  0  0  0  0  0  0  0999 V2000
   19.7154   -2.6278   14.2458 C   0  0  0  0  0  0  0  0  0  0  0  0
   20.8108   -3.1528   14.0730 O   0  5  0  0  0  0  0  0  0  0  0  0
   18.6893   -3.2530   13.9837 O   0  0  0  0  0  0  0  0  0  0  0  0
   19.6232   -1.2314   14.8475 C   0  0  0  0  0  0  0  0  0  0  0  0
   18.7923   -0.2385   14.0045 C   0  0  0  0  0  0  0  0  0  0  0  0
   18.7789    1.1473   14.6229 C   0  0  0  0  0  0  0  0  0  0  0  0
   17.8069    2.0977   13.9552 C   0  0  0  0  0  0  0  0  0  0  0  0
   16.3257    1.7680   14.1820 C   0  0  2  0  0  0  0  0  0  0  0  0
   15.7371    0.0688   13.5247 S   0  0  0  0  0  0  0  0  0  0  0  0
   13.9570    0.7173   13.7607 C   0  0  0  0  0  0  0  0  0  0  0  0
   14.0301    2.2322   13.4099 C   0  0  2  0  0  0  0  0  0  0  0  0
   13.7311    2.3246   11.8896 N   0  0  0  0  0  0  0  0  0  0  0  0
   14.6722    2.8405   11.2253 C   0  0  0  0  0  0  0  0  0  0  0  0
   14.8431    2.9265    9.9575 O   0  0  0  0  0  0  0  0  0  0  0  0
   15.8680    3.0776   12.0008 N   0  0  0  0  0  0  0  0  0  0  0  0
   15.4475    2.7774   13.4392 C   0  0  2  0  0  0  0  0  0  0  0  0
  1  2  1  0  0  0  0
  1  3  2  0  0  0  0
  1  4  1  0  0  0  0
  4  5  1  0  0  0  0
  5  6  1  0  0  0  0
  6  7  1  0  0  0  0
  8  7  1  6  0  0  0
  8  9  1  0  0  0  0
  8 16  1  0  0  0  0
  9 10  1  0  0  0  0
 11 10  1  6  0  0  0
 11 12  1  0  0  0  0
 11 16  1  0  0  0  0
 12 13  1  0  0  0  0
 13 14  2  0  0  0  0
 13 15  1  0  0  0  0
 16 15  1  6  0  0  0
M  CHG  1   2  -1
M  END
>  <CHROM.1>
126.88993878,-177.81000408,-171.00246778,69.24388359,-61.34771073,16.75098155
0.63032355,13.31020223,0.76387215,0.27648262,2.97139802

>  <Name>
1f27 biotin aptamer (Xray 1.3A)

>  <RI>
0

>  <Rbt.Current_Directory>
/home/itssahil/PROJECTS/Mol_Feturizer/New_Systems/rnas/1f27

>  <Rbt.Executable>
rbdock ($Id: //depot/dev/client3/rdock/2013.1/src/exe/rbdock.cxx#4 $)

>  <Rbt.Library>
libRbt.so (2013.1, Build901 2013/11/27)

>  <Rbt.Parameter_File>
/export/apps/rDock/src/rDock_2013.1_src/data/scripts/dock_solv.prm

>  <Rbt.Receptor>
prm/pocket_docking_7.prm

>  <SCORE>
-29.6598

>  <SCORE.INTER>
-27.4266

>  <SCORE.INTER.CONST>
1

>  <SCORE.INTER.POLAR>
-1.8159

>  <SCORE.INTER.ROT>
5

>  <SCORE.INTER.SOLV>
8.80069

>  <SCORE.INTER.VDW>
-22.0983

>  <SCORE.INTER.norm>
-1.71416

>  <SCORE.INTRA>
-2.2332

>  <SCORE.INTRA.DIHEDRAL>
-4.82681

>  <SCORE.INTRA.DIHEDRAL.0>
6.87082

>  <SCORE.INTRA.POLAR>
0

>  <SCORE.INTRA.POLAR.0>
0

>  <SCORE.INTRA.REPUL>
0

>  <SCORE.INTRA.REPUL.0>
0

>  <SCORE.INTRA.SOLV>
-0.645536

>  <SCORE.INTRA.SOLV.lig_0>
-42.5944

>  <SCORE.INTRA.VDW>
0.502971

>  <SCORE.INTRA.VDW.0>
-1.067

>  <SCORE.INTRA.norm>
-0.139575

>  <SCORE.RESTR>
0

>  <SCORE.RESTR.CAVITY>
0

>  <SCORE.RESTR.norm>
0

>  <SCORE.SYSTEM>
0

>  <SCORE.SYSTEM.CONST>
0

>  <SCORE.SYSTEM.DIHEDRAL>
0

>  <SCORE.SYSTEM.SOLV>
0

>  <SCORE.SYSTEM.norm>
0

>  <SCORE.heavy>
16

>  <SCORE.norm>
-1.85374

>  <RMSD>
1.392

$$$$
1f27 biotin aptamer (Xray 1.3A)
 OpenBabel11021811393D
libRbt.so/2013.1/901 2013/11/27
 16 17  0  0  0  0  0  0  0  0999 V2000
   21.0734   -1.0934   15.0975 C   0  0  0  0  0  0  0  0  0  0  0  0
   21.6602   -1.1325   16.1743 O   0  5  0  0  0  0  0  0  0  0  0  0
   21.6999   -0.8487   14.0679 O   0  0  0  0  0  0  0  0  0  0  0  0
   19.5860   -1.4144   15.0253 C   0  0  0  0  0  0  0  0  0  0  0  0
   18.7823   -0.4626   14.1115 C   0  0  0  0  0  0  0  0  0  0  0  0
   18.8478    0.9724   14.6009 C   0  0  0  0  0  0  0  0  0  0  0  0
   17.9018    1.9036   13.8717 C   0  0  0  0  0  0  0  0  0  0  0  0
   16.4130    1.6509   14.1434 C   0  0  2  0  0  0  0  0  0  0  0  0
   15.7141   -0.0086   13.4928 S   0  0  0  0  0  0  0  0  0  0  0  0
   13.9795    0.7314   13.7907 C   0  0  0  0  0  0  0  0  0  0  0  0
   14.1222    2.2433   13.4489 C   0  0  2  0  0  0  0  0  0  0  0  0
   13.7806    2.3653   11.9397 N   0  0  0  0  0  0  0  0  0  0  0  0
   14.7263    2.8365   11.2493 C   0  0  0  0  0  0  0  0  0  0  0  0
   14.8613    2.9248    9.9774 O   0  0  0  0  0  0  0  0  0  0  0  0
   15.9571    3.0027   11.9878 N   0  0  0  0  0  0  0  0  0  0  0  0
   15.5669    2.7122   13.4367 C   0  0  2  0  0  0  0  0  0  0  0  0
  1  2  1  0  0  0  0
  1  3  2  0  0  0  0
  1  4  1  0  0  0  0
  4  5  1  0  0  0  0
  5  6  1  0  0  0  0
  6  7  1  0  0  0  0
  8  7  1  6  0  0  0
  8  9  1  0  0  0  0
  8 16  1  0  0  0  0
  9 10  1  0  0  0  0
 11 10  1  6  0  0  0
 11 12  1  0  0  0  0
 11 16  1  0  0  0  0
 12 13  1  0  0  0  0
 13 14  2  0  0  0  0
 13 15  1  0  0  0  0
 16 15  1  6  0  0  0
M  CHG  1   2  -1
M  END
>  <CHROM.1>
137.60418413,-61.38916388,-170.79167489,68.28515507,-66.58449481,17.10514286
0.93138937,13.50850823,-0.61536349,0.04678632,-0.81625590

>  <Name>
1f27 biotin aptamer (Xray 1.3A)

>  <RI>
0

>  <Rbt.Current_Directory>
/home/itssahil/PROJECTS/Mol_Feturizer/New_Systems/rnas/1f27

>  <Rbt.Executable>
rbdock ($Id: //depot/dev/client3/rdock/2013.1/src/exe/rbdock.cxx#4 $)

>  <Rbt.Library>
libRbt.so (2013.1, Build901 2013/11/27)

>  <Rbt.Parameter_File>
/export/apps/rDock/src/rDock_2013.1_src/data/scripts/dock_solv.prm

>  <Rbt.Receptor>
prm/pocket_docking_8.prm

>  <SCORE>
-29.0051

>  <SCORE.INTER>
-27.3318

>  <SCORE.INTER.CONST>
1

>  <SCORE.INTER.POLAR>
-1.77226

>  <SCORE.INTER.ROT>
5

>  <SCORE.INTER.SOLV>
8.35161

>  <SCORE.INTER.VDW>
-22.0309

>  <SCORE.INTER.norm>
-1.70824

>  <SCORE.INTRA>
-1.67331

>  <SCORE.INTRA.DIHEDRAL>
-4.78105

>  <SCORE.INTRA.DIHEDRAL.0>
6.87082

>  <SCORE.INTRA.POLAR>
0

>  <SCORE.INTRA.POLAR.0>
0

>  <SCORE.INTRA.REPUL>
0

>  <SCORE.INTRA.REPUL.0>
0

>  <SCORE.INTRA.SOLV>
0.229236

>  <SCORE.INTRA.SOLV.lig_0>
-42.5944

>  <SCORE.INTRA.VDW>
0.602596

>  <SCORE.INTRA.VDW.0>
-1.067

>  <SCORE.INTRA.norm>
-0.104582

>  <SCORE.RESTR>
0

>  <SCORE.RESTR.CAVITY>
0

>  <SCORE.RESTR.norm>
0

>  <SCORE.SYSTEM>
0

>  <SCORE.SYSTEM.CONST>
0

>  <SCORE.SYSTEM.DIHEDRAL>
0

>  <SCORE.SYSTEM.SOLV>
0

>  <SCORE.SYSTEM.norm>
0

>  <SCORE.heavy>
16

>  <SCORE.norm>
-1.81282

>  <RMSD>
1.394

$$$$
1f27 biotin aptamer (Xray 1.3A)
 OpenBabel11021811393D
libRbt.so/2013.1/901 2013/11/27
 16 17  0  0  0  0  0  0  0  0999 V2000
   20.6826   -1.5034   12.6066 C   0  0  0  0  0  0  0  0  0  0  0  0
   20.8776   -1.2266   11.4273 O   0  5  0  0  0  0  0  0  0  0  0  0
   20.7875   -2.6683   12.9870 O   0  0  0  0  0  0  0  0  0  0  0  0
   20.3788   -0.3992   13.6110 C   0  0  0  0  0  0  0  0  0  0  0  0
   19.1966    0.5095   13.2061 C   0  0  0  0  0  0  0  0  0  0  0  0
   18.9367    1.5865   14.2431 C   0  0  0  0  0  0  0  0  0  0  0  0
   17.8343    2.5485   13.8523 C   0  0  0  0  0  0  0  0  0  0  0  0
   16.4112    2.0351   14.1081 C   0  0  2  0  0  0  0  0  0  0  0  0
   16.0021    0.3099   13.3858 S   0  0  0  0  0  0  0  0  0  0  0  0
   14.1681    0.7309   13.7088 C   0  0  0  0  0  0  0  0  0  0  0  0
   14.0503    2.2581   13.4315 C   0  0  2  0  0  0  0  0  0  0  0  0
   13.6871    2.3837   11.9277 N   0  0  0  0  0  0  0  0  0  0  0  0
   14.5362    3.0375   11.2610 C   0  0  0  0  0  0  0  0  0  0  0  0
   14.6493    3.2010    9.9944 O   0  0  0  0  0  0  0  0  0  0  0  0
   15.7236    3.3793   12.0099 N   0  0  0  0  0  0  0  0  0  0  0  0
   15.3941    2.9659   13.4440 C   0  0  2  0  0  0  0  0  0  0  0  0
  1  2  1  0  0  0  0
  1  3  2  0  0  0  0
  1  4  1  0  0  0  0
  4  5  1  0  0  0  0
  5  6  1  0  0  0  0
  6  7  1  0  0  0  0
  8  7  1  6  0  0  0
  8  9  1  0  0  0  0
  8 16  1  0  0  0  0
  9 10  1  0  0  0  0
 11 10  1  6  0  0  0
 11 12  1  0  0  0  0
 11 16  1  0  0  0  0
 12 13  1  0  0  0  0
 13 14  2  0  0  0  0
 13 15  1  0  0  0  0
 16 15  1  6  0  0  0
M  CHG  1   2  -1
M  END
>  <CHROM.1>
53.79750257,179.81906537,176.84463951,80.86630604,-51.99859696,17.03735561
1.10187932,12.82787419,-0.22251073,0.53071510,-1.31566014

>  <Name>
1f27 biotin aptamer (Xray 1.3A)

>  <RI>
0

>  <Rbt.Current_Directory>
/home/itssahil/PROJECTS/Mol_Feturizer/New_Systems/rnas/1f27

>  <Rbt.Executable>
rbdock ($Id: //depot/dev/client3/rdock/2013.1/src/exe/rbdock.cxx#4 $)

>  <Rbt.Library>
libRbt.so (2013.1, Build901 2013/11/27)

>  <Rbt.Parameter_File>
/export/apps/rDock/src/rDock_2013.1_src/data/scripts/dock_solv.prm

>  <Rbt.Receptor>
prm/pocket_docking_3.prm

>  <SCORE>
-28.7054

>  <SCORE.INTER>
-26.812

>  <SCORE.INTER.CONST>
1

>  <SCORE.INTER.POLAR>
-1.72314

>  <SCORE.INTER.ROT>
5

>  <SCORE.INTER.SOLV>
11.8813

>  <SCORE.INTER.VDW>
-23.0246

>  <SCORE.INTER.norm>
-1.67575

>  <SCORE.INTRA>
-1.89339

>  <SCORE.INTRA.DIHEDRAL>
-3.59135

>  <SCORE.INTRA.DIHEDRAL.0>
6.87082

>  <SCORE.INTRA.POLAR>
0

>  <SCORE.INTRA.POLAR.0>
0

>  <SCORE.INTRA.REPUL>
0

>  <SCORE.INTRA.REPUL.0>
0

>  <SCORE.INTRA.SOLV>
-0.741463

>  <SCORE.INTRA.SOLV.lig_0>
-42.5944

>  <SCORE.INTRA.VDW>
0.273016

>  <SCORE.INTRA.VDW.0>
-1.067

>  <SCORE.INTRA.norm>
-0.118337

>  <SCORE.RESTR>
0

>  <SCORE.RESTR.CAVITY>
0

>  <SCORE.RESTR.norm>
0

>  <SCORE.SYSTEM>
0

>  <SCORE.SYSTEM.CONST>
0

>  <SCORE.SYSTEM.DIHEDRAL>
0

>  <SCORE.SYSTEM.SOLV>
0

>  <SCORE.SYSTEM.norm>
0

>  <SCORE.heavy>
16

>  <SCORE.norm>
-1.79409

>  <RMSD>
1.395

$$$$
1f27 biotin aptamer (Xray 1.3A)
 OpenBabel11021811393D
libRbt.so/2013.1/901 2013/11/27
 16 17  0  0  0  0  0  0  0  0999 V2000
   20.4928   -0.9905   12.6906 C   0  0  0  0  0  0  0  0  0  0  0  0
   21.5191   -1.6414   12.5218 O   0  5  0  0  0  0  0  0  0  0  0  0
   19.4215   -1.5704   12.8597 O   0  0  0  0  0  0  0  0  0  0  0  0
   20.5544    0.5300   12.7593 C   0  0  0  0  0  0  0  0  0  0  0  0
   20.3313    1.1037   14.1764 C   0  0  0  0  0  0  0  0  0  0  0  0
   18.8859    0.9629   14.6168 C   0  0  0  0  0  0  0  0  0  0  0  0
   17.9412    1.9052   13.9004 C   0  0  0  0  0  0  0  0  0  0  0  0
   16.4521    1.6529   14.1713 C   0  0  2  0  0  0  0  0  0  0  0  0
   15.7564   -0.0126   13.5326 S   0  0  0  0  0  0  0  0  0  0  0  0
   14.0204    0.7276   13.8213 C   0  0  0  0  0  0  0  0  0  0  0  0
   14.1620    2.2369   13.4676 C   0  0  2  0  0  0  0  0  0  0  0  0
   13.8231    2.3464   11.9569 N   0  0  0  0  0  0  0  0  0  0  0  0
   14.7696    2.8132   11.2645 C   0  0  0  0  0  0  0  0  0  0  0  0
   14.9069    2.8915    9.9922 O   0  0  0  0  0  0  0  0  0  0  0  0
   15.9987    2.9868   12.0040 N   0  0  0  0  0  0  0  0  0  0  0  0
   15.6061    2.7075   13.4544 C   0  0  2  0  0  0  0  0  0  0  0  0
  1  2  1  0  0  0  0
  1  3  2  0  0  0  0
  1  4  1  0  0  0  0
  4  5  1  0  0  0  0
  5  6  1  0  0  0  0
  6  7  1  0  0  0  0
  8  7  1  6  0  0  0
  8  9  1  0  0  0  0
  8 16  1  0  0  0  0
  9 10  1  0  0  0  0
 11 10  1  6  0  0  0
 11 12  1  0  0  0  0
 11 16  1  0  0  0  0
 12 13  1  0  0  0  0
 13 14  2  0  0  0  0
 13 15  1  0  0  0  0
 16 15  1  6  0  0  0
M  CHG  1   2  -1
M  END
>  <CHROM.1>
-107.68741274,-71.60271341,-72.21963673,171.59489275,-65.39582705,17.09156040
1.05072885,12.95995396,-0.36210221,0.29601847,-0.95522425

>  <Name>
1f27 biotin aptamer (Xray 1.3A)

>  <RI>
0

>  <Rbt.Current_Directory>
/home/itssahil/PROJECTS/Mol_Feturizer/New_Systems/rnas/1f27

>  <Rbt.Executable>
rbdock ($Id: //depot/dev/client3/rdock/2013.1/src/exe/rbdock.cxx#4 $)

>  <Rbt.Library>
libRbt.so (2013.1, Build901 2013/11/27)

>  <Rbt.Parameter_File>
/export/apps/rDock/src/rDock_2013.1_src/data/scripts/dock_solv.prm

>  <Rbt.Receptor>
prm/pocket_docking_2.prm

>  <SCORE>
-30.8447

>  <SCORE.INTER>
-29.2808

>  <SCORE.INTER.CONST>
1

>  <SCORE.INTER.POLAR>
-1.76523

>  <SCORE.INTER.ROT>
5

>  <SCORE.INTER.SOLV>
11.6203

>  <SCORE.INTER.VDW>
-24.4432

>  <SCORE.INTER.norm>
-1.83005

>  <SCORE.INTRA>
-1.57798

>  <SCORE.INTRA.DIHEDRAL>
-4.07541

>  <SCORE.INTRA.DIHEDRAL.0>
6.87082

>  <SCORE.INTRA.POLAR>
0

>  <SCORE.INTRA.POLAR.0>
0

>  <SCORE.INTRA.REPUL>
0

>  <SCORE.INTRA.REPUL.0>
0

>  <SCORE.INTRA.SOLV>
0.757316

>  <SCORE.INTRA.SOLV.lig_0>
-42.5944

>  <SCORE.INTRA.VDW>
0.0810703

>  <SCORE.INTRA.VDW.0>
-1.067

>  <SCORE.INTRA.norm>
-0.0986236

>  <SCORE.RESTR>
0.0140996

>  <SCORE.RESTR.CAVITY>
0.0140996

>  <SCORE.RESTR.norm>
0.000881224

>  <SCORE.SYSTEM>
0

>  <SCORE.SYSTEM.CONST>
0

>  <SCORE.SYSTEM.DIHEDRAL>
0

>  <SCORE.SYSTEM.SOLV>
0

>  <SCORE.SYSTEM.norm>
0

>  <SCORE.heavy>
16

>  <SCORE.norm>
-1.92779

>  <RMSD>
1.396

$$$$
1f27 biotin aptamer (Xray 1.3A)
 OpenBabel11021811393D
libRbt.so/2013.1/901 2013/11/27
 16 17  0  0  0  0  0  0  0  0999 V2000
   20.9482   -0.9498   12.2671 C   0  0  0  0  0  0  0  0  0  0  0  0
   22.1396   -0.8990   11.9783 O   0  5  0  0  0  0  0  0  0  0  0  0
   20.3429   -2.0168   12.1809 O   0  0  0  0  0  0  0  0  0  0  0  0
   20.2364    0.2887   12.7962 C   0  0  0  0  0  0  0  0  0  0  0  0
   19.2676    0.0041   13.9655 C   0  0  0  0  0  0  0  0  0  0  0  0
   18.8714    1.2784   14.6880 C   0  0  0  0  0  0  0  0  0  0  0  0
   17.8767    2.1241   13.9204 C   0  0  0  0  0  0  0  0  0  0  0  0
   16.4045    1.7673   14.1650 C   0  0  2  0  0  0  0  0  0  0  0  0
   15.8347    0.0653   13.4985 S   0  0  0  0  0  0  0  0  0  0  0  0
   14.0478    0.6815   13.7669 C   0  0  0  0  0  0  0  0  0  0  0  0
   14.0906    2.2009   13.4308 C   0  0  2  0  0  0  0  0  0  0  0  0
   13.7681    2.3037   11.9160 N   0  0  0  0  0  0  0  0  0  0  0  0
   14.6907    2.8420   11.2436 C   0  0  0  0  0  0  0  0  0  0  0  0
   14.8417    2.9438    9.9745 O   0  0  0  0  0  0  0  0  0  0  0  0
   15.8936    3.0912   12.0043 N   0  0  0  0  0  0  0  0  0  0  0  0
   15.4990    2.7694   13.4454 C   0  0  2  0  0  0  0  0  0  0  0  0
  1  2  1  0  0  0  0
  1  3  2  0  0  0  0
  1  4  1  0  0  0  0
  4  5  1  0  0  0  0
  5  6  1  0  0  0  0
  6  7  1  0  0  0  0
  8  7  1  6  0  0  0
  8  9  1  0  0  0  0
  8 16  1  0  0  0  0
  9 10  1  0  0  0  0
 11 10  1  6  0  0  0
 11 12  1  0  0  0  0
 11 16  1  0  0  0  0
 12 13  1  0  0  0  0
 13 14  2  0  0  0  0
 13 15  1  0  0  0  0
 16 15  1  6  0  0  0
M  CHG  1   2  -1
M  END
>  <CHROM.1>
-138.37457584,164.95643974,74.89759909,87.49645527,-67.85978780,17.11303187
1.04951260,12.83876883,-0.20622525,0.40861313,-1.20262348

>  <Name>
1f27 biotin aptamer (Xray 1.3A)

>  <RI>
0

>  <Rbt.Current_Directory>
/home/itssahil/PROJECTS/Mol_Feturizer/New_Systems/rnas/1f27

>  <Rbt.Executable>
rbdock ($Id: //depot/dev/client3/rdock/2013.1/src/exe/rbdock.cxx#4 $)

>  <Rbt.Library>
libRbt.so (2013.1, Build901 2013/11/27)

>  <Rbt.Parameter_File>
/export/apps/rDock/src/rDock_2013.1_src/data/scripts/dock_solv.prm

>  <Rbt.Receptor>
prm/pocket_docking_7.prm

>  <SCORE>
-32.7117

>  <SCORE.INTER>
-32.2794

>  <SCORE.INTER.CONST>
1

>  <SCORE.INTER.POLAR>
-2.80293

>  <SCORE.INTER.ROT>
5

>  <SCORE.INTER.SOLV>
14.4218

>  <SCORE.INTER.VDW>
-23.9171

>  <SCORE.INTER.norm>
-2.01746

>  <SCORE.INTRA>
-0.432338

>  <SCORE.INTRA.DIHEDRAL>
-0.843359

>  <SCORE.INTRA.DIHEDRAL.0>
6.87082

>  <SCORE.INTRA.POLAR>
0

>  <SCORE.INTRA.POLAR.0>
0

>  <SCORE.INTRA.REPUL>
0

>  <SCORE.INTRA.REPUL.0>
0

>  <SCORE.INTRA.SOLV>
-0.724582

>  <SCORE.INTRA.SOLV.lig_0>
-42.5944

>  <SCORE.INTRA.VDW>
0.351633

>  <SCORE.INTRA.VDW.0>
-1.067

>  <SCORE.INTRA.norm>
-0.0270211

>  <SCORE.RESTR>
0

>  <SCORE.RESTR.CAVITY>
0

>  <SCORE.RESTR.norm>
0

>  <SCORE.SYSTEM>
0

>  <SCORE.SYSTEM.CONST>
0

>  <SCORE.SYSTEM.DIHEDRAL>
0

>  <SCORE.SYSTEM.SOLV>
0

>  <SCORE.SYSTEM.norm>
0

>  <SCORE.heavy>
16

>  <SCORE.norm>
-2.04448

>  <RMSD>
1.399

$$$$
1f27 biotin aptamer (Xray 1.3A)
 OpenBabel11021811393D
libRbt.so/2013.1/901 2013/11/27
 16 17  0  0  0  0  0  0  0  0999 V2000
   20.8493   -0.9872   12.2311 C   0  0  0  0  0  0  0  0  0  0  0  0
   22.0476   -0.7944   12.0514 O   0  5  0  0  0  0  0  0  0  0  0  0
   20.3954   -2.1278   12.1572 O   0  0  0  0  0  0  0  0  0  0  0  0
   19.9372    0.1718   12.6122 C   0  0  0  0  0  0  0  0  0  0  0  0
   19.1911   -0.0305   13.9499 C   0  0  0  0  0  0  0  0  0  0  0  0
   18.9044    1.2917   14.6373 C   0  0  0  0  0  0  0  0  0  0  0  0
   17.8900    2.1458   13.9058 C   0  0  0  0  0  0  0  0  0  0  0  0
   16.4256    1.7610   14.1544 C   0  0  2  0  0  0  0  0  0  0  0  0
   15.8848    0.0512   13.4837 S   0  0  0  0  0  0  0  0  0  0  0  0
   14.0878    0.6333   13.7609 C   0  0  0  0  0  0  0  0  0  0  0  0
   14.1014    2.1544   13.4304 C   0  0  2  0  0  0  0  0  0  0  0  0
   13.7713    2.2569   11.9172 N   0  0  0  0  0  0  0  0  0  0  0  0
   14.6813    2.8146   11.2435 C   0  0  0  0  0  0  0  0  0  0  0  0
   14.8256    2.9238    9.9742 O   0  0  0  0  0  0  0  0  0  0  0  0
   15.8822    3.0832   12.0006 N   0  0  0  0  0  0  0  0  0  0  0  0
   15.4990    2.7488   13.4420 C   0  0  2  0  0  0  0  0  0  0  0  0
  1  2  1  0  0  0  0
  1  3  2  0  0  0  0
  1  4  1  0  0  0  0
  4  5  1  0  0  0  0
  5  6  1  0  0  0  0
  6  7  1  0  0  0  0
  8  7  1  6  0  0  0
  8  9  1  0  0  0  0
  8 16  1  0  0  0  0
  9 10  1  0  0  0  0
 11 10  1  6  0  0  0
 11 12  1  0  0  0  0
 11 16  1  0  0  0  0
 12 13  1  0  0  0  0
 13 14  2  0  0  0  0
 13 15  1  0  0  0  0
 16 15  1  6  0  0  0
M  CHG  1   2  -1
M  END
>  <CHROM.1>
-121.69237419,150.53376139,68.23277258,80.85505917,-66.27975219,17.09512661
1.02593225,12.82172380,-0.20890752,0.41817866,-1.20467975

>  <Name>
1f27 biotin aptamer (Xray 1.3A)

>  <RI>
0

>  <Rbt.Current_Directory>
/home/itssahil/PROJECTS/Mol_Feturizer/New_Systems/rnas/1f27

>  <Rbt.Executable>
rbdock ($Id: //depot/dev/client3/rdock/2013.1/src/exe/rbdock.cxx#4 $)

>  <Rbt.Library>
libRbt.so (2013.1, Build901 2013/11/27)

>  <Rbt.Parameter_File>
/export/apps/rDock/src/rDock_2013.1_src/data/scripts/dock_solv.prm

>  <Rbt.Receptor>
prm/pocket_docking_4.prm

>  <SCORE>
-32.8005

>  <SCORE.INTER>
-32.4627

>  <SCORE.INTER.CONST>
1

>  <SCORE.INTER.POLAR>
-2.76691

>  <SCORE.INTER.ROT>
5

>  <SCORE.INTER.SOLV>
14.3007

>  <SCORE.INTER.VDW>
-24.119

>  <SCORE.INTER.norm>
-2.02892

>  <SCORE.INTRA>
-0.337807

>  <SCORE.INTRA.DIHEDRAL>
-0.797623

>  <SCORE.INTRA.DIHEDRAL.0>
6.87082

>  <SCORE.INTRA.POLAR>
0

>  <SCORE.INTRA.POLAR.0>
0

>  <SCORE.INTRA.REPUL>
0

>  <SCORE.INTRA.REPUL.0>
0

>  <SCORE.INTRA.SOLV>
-0.65447

>  <SCORE.INTRA.SOLV.lig_0>
-42.5944

>  <SCORE.INTRA.VDW>
0.38824

>  <SCORE.INTRA.VDW.0>
-1.067

>  <SCORE.INTRA.norm>
-0.0211129

>  <SCORE.RESTR>
0

>  <SCORE.RESTR.CAVITY>
0

>  <SCORE.RESTR.norm>
0

>  <SCORE.SYSTEM>
0

>  <SCORE.SYSTEM.CONST>
0

>  <SCORE.SYSTEM.DIHEDRAL>
0

>  <SCORE.SYSTEM.SOLV>
0

>  <SCORE.SYSTEM.norm>
0

>  <SCORE.heavy>
16

>  <SCORE.norm>
-2.05003

>  <RMSD>
1.409

$$$$
1f27 biotin aptamer (Xray 1.3A)
 OpenBabel11021811393D
libRbt.so/2013.1/901 2013/11/27
 16 17  0  0  0  0  0  0  0  0999 V2000
   21.2134   -1.3776   12.5029 C   0  0  0  0  0  0  0  0  0  0  0  0
   20.8492   -2.4394   12.9982 O   0  5  0  0  0  0  0  0  0  0  0  0
   22.4112   -1.1666   12.3207 O   0  0  0  0  0  0  0  0  0  0  0  0
   20.1823   -0.3512   12.0514 C   0  0  0  0  0  0  0  0  0  0  0  0
   19.6831    0.5759   13.1820 C   0  0  0  0  0  0  0  0  0  0  0  0
   18.2925    1.1114   12.8948 C   0  0  0  0  0  0  0  0  0  0  0  0
   17.6829    1.8653   14.0582 C   0  0  0  0  0  0  0  0  0  0  0  0
   16.1725    1.6620   14.2364 C   0  0  2  0  0  0  0  0  0  0  0  0
   15.4710    0.0001   13.5950 S   0  0  0  0  0  0  0  0  0  0  0  0
   13.7425    0.7959   13.7497 C   0  0  0  0  0  0  0  0  0  0  0  0
   13.9515    2.2907   13.3686 C   0  0  2  0  0  0  0  0  0  0  0  0
   13.7154    2.3688   11.8365 N   0  0  0  0  0  0  0  0  0  0  0  0
   14.7185    2.7903   11.1967 C   0  0  0  0  0  0  0  0  0  0  0  0
   14.9409    2.8305    9.9347 O   0  0  0  0  0  0  0  0  0  0  0  0
   15.9013    2.9494   12.0112 N   0  0  0  0  0  0  0  0  0  0  0  0
   15.4066    2.7202   13.4391 C   0  0  2  0  0  0  0  0  0  0  0  0
  1  2  1  0  0  0  0
  1  3  2  0  0  0  0
  1  4  1  0  0  0  0
  4  5  1  0  0  0  0
  5  6  1  0  0  0  0
  6  7  1  0  0  0  0
  8  7  1  6  0  0  0
  8  9  1  0  0  0  0
  8 16  1  0  0  0  0
  9 10  1  0  0  0  0
 11 10  1  6  0  0  0
 11 12  1  0  0  0  0
 11 16  1  0  0  0  0
 12 13  1  0  0  0  0
 13 14  2  0  0  0  0
 13 15  1  0  0  0  0
 16 15  1  6  0  0  0
M  CHG  1   2  -1
M  END
>  <CHROM.1>
84.49425119,-154.12630079,171.88882175,-143.12730776,27.36319947,17.06850588
0.93423436,12.74558261,-0.31354530,0.34947013,-0.88725186

>  <Name>
1f27 biotin aptamer (Xray 1.3A)

>  <RI>
0

>  <Rbt.Current_Directory>
/home/itssahil/PROJECTS/Mol_Feturizer/New_Systems/rnas/1f27

>  <Rbt.Executable>
rbdock ($Id: //depot/dev/client3/rdock/2013.1/src/exe/rbdock.cxx#4 $)

>  <Rbt.Library>
libRbt.so (2013.1, Build901 2013/11/27)

>  <Rbt.Parameter_File>
/export/apps/rDock/src/rDock_2013.1_src/data/scripts/dock_solv.prm

>  <Rbt.Receptor>
prm/pocket_docking_2.prm

>  <SCORE>
-29.9113

>  <SCORE.INTER>
-32.4658

>  <SCORE.INTER.CONST>
1

>  <SCORE.INTER.POLAR>
-2.56066

>  <SCORE.INTER.ROT>
5

>  <SCORE.INTER.SOLV>
11.9246

>  <SCORE.INTER.VDW>
-24.0165

>  <SCORE.INTER.norm>
-2.02911

>  <SCORE.INTRA>
2.21177

>  <SCORE.INTRA.DIHEDRAL>
4.41506

>  <SCORE.INTRA.DIHEDRAL.0>
6.87082

>  <SCORE.INTRA.POLAR>
0

>  <SCORE.INTRA.POLAR.0>
0

>  <SCORE.INTRA.REPUL>
0

>  <SCORE.INTRA.REPUL.0>
0

>  <SCORE.INTRA.SOLV>
-0.464263

>  <SCORE.INTRA.SOLV.lig_0>
-42.5944

>  <SCORE.INTRA.VDW>
0.236374

>  <SCORE.INTRA.VDW.0>
-1.067

>  <SCORE.INTRA.norm>
0.138236

>  <SCORE.RESTR>
0.342675

>  <SCORE.RESTR.CAVITY>
0.342675

>  <SCORE.RESTR.norm>
0.0214172

>  <SCORE.SYSTEM>
0

>  <SCORE.SYSTEM.CONST>
0

>  <SCORE.SYSTEM.DIHEDRAL>
0

>  <SCORE.SYSTEM.SOLV>
0

>  <SCORE.SYSTEM.norm>
0

>  <SCORE.heavy>
16

>  <SCORE.norm>
-1.86946

>  <RMSD>
1.412

$$$$
1f27 biotin aptamer (Xray 1.3A)
 OpenBabel11021811393D
libRbt.so/2013.1/901 2013/11/27
 16 17  0  0  0  0  0  0  0  0999 V2000
   20.5019   -0.9745   12.5980 C   0  0  0  0  0  0  0  0  0  0  0  0
   21.5214   -1.5985   12.3214 O   0  5  0  0  0  0  0  0  0  0  0  0
   19.4668   -1.5820   12.8666 O   0  0  0  0  0  0  0  0  0  0  0  0
   20.5338    0.5465   12.6760 C   0  0  0  0  0  0  0  0  0  0  0  0
   20.3381    1.1059   14.1028 C   0  0  0  0  0  0  0  0  0  0  0  0
   18.9013    0.9612   14.5693 C   0  0  0  0  0  0  0  0  0  0  0  0
   17.9550    1.9555   13.9295 C   0  0  0  0  0  0  0  0  0  0  0  0
   16.4673    1.6925   14.1975 C   0  0  2  0  0  0  0  0  0  0  0  0
   15.7890    0.0144   13.5732 S   0  0  0  0  0  0  0  0  0  0  0  0
   14.0453    0.7417   13.8479 C   0  0  0  0  0  0  0  0  0  0  0  0
   14.1746    2.2486   13.4795 C   0  0  2  0  0  0  0  0  0  0  0  0
   13.8404    2.3397   11.9665 N   0  0  0  0  0  0  0  0  0  0  0  0
   14.7853    2.8080   11.2729 C   0  0  0  0  0  0  0  0  0  0  0  0
   14.9267    2.8747   10.0004 O   0  0  0  0  0  0  0  0  0  0  0  0
   16.0100    3.0003   12.0151 N   0  0  0  0  0  0  0  0  0  0  0  0
   15.6144    2.7321   13.4669 C   0  0  2  0  0  0  0  0  0  0  0  0
  1  2  1  0  0  0  0
  1  3  2  0  0  0  0
  1  4  1  0  0  0  0
  4  5  1  0  0  0  0
  5  6  1  0  0  0  0
  6  7  1  0  0  0  0
  8  7  1  6  0  0  0
  8  9  1  0  0  0  0
  8 16  1  0  0  0  0
  9 10  1  0  0  0  0
 11 10  1  6  0  0  0
 11 12  1  0  0  0  0
 11 16  1  0  0  0  0
 12 13  1  0  0  0  0
 13 14  2  0  0  0  0
 13 15  1  0  0  0  0
 16 15  1  6  0  0  0
M  CHG  1   2  -1
M  END
>  <CHROM.1>
-111.82201454,-72.92356882,-74.99275262,170.37476709,-60.70199545,17.10754526
1.06491735,12.94436569,-0.32725077,0.32691104,-1.01304094

>  <Name>
1f27 biotin aptamer (Xray 1.3A)

>  <RI>
0

>  <Rbt.Current_Directory>
/home/itssahil/PROJECTS/Mol_Feturizer/New_Systems/rnas/1f27

>  <Rbt.Executable>
rbdock ($Id: //depot/dev/client3/rdock/2013.1/src/exe/rbdock.cxx#4 $)

>  <Rbt.Library>
libRbt.so (2013.1, Build901 2013/11/27)

>  <Rbt.Parameter_File>
/export/apps/rDock/src/rDock_2013.1_src/data/scripts/dock_solv.prm

>  <Rbt.Receptor>
prm/pocket_docking_2.prm

>  <SCORE>
-30.5794

>  <SCORE.INTER>
-29.1433

>  <SCORE.INTER.CONST>
1

>  <SCORE.INTER.POLAR>
-1.75738

>  <SCORE.INTER.ROT>
5

>  <SCORE.INTER.SOLV>
12.0366

>  <SCORE.INTER.VDW>
-24.5165

>  <SCORE.INTER.norm>
-1.82146

>  <SCORE.INTRA>
-1.4361

>  <SCORE.INTRA.DIHEDRAL>
-3.67287

>  <SCORE.INTRA.DIHEDRAL.0>
6.87082

>  <SCORE.INTRA.POLAR>
0

>  <SCORE.INTRA.POLAR.0>
0

>  <SCORE.INTRA.REPUL>
0

>  <SCORE.INTRA.REPUL.0>
0

>  <SCORE.INTRA.SOLV>
0.685788

>  <SCORE.INTRA.SOLV.lig_0>
-42.5944

>  <SCORE.INTRA.VDW>
0.0574389

>  <SCORE.INTRA.VDW.0>
-1.067

>  <SCORE.INTRA.norm>
-0.0897563

>  <SCORE.RESTR>
0

>  <SCORE.RESTR.CAVITY>
0

>  <SCORE.RESTR.norm>
0

>  <SCORE.SYSTEM>
0

>  <SCORE.SYSTEM.CONST>
0

>  <SCORE.SYSTEM.DIHEDRAL>
0

>  <SCORE.SYSTEM.SOLV>
0

>  <SCORE.SYSTEM.norm>
0

>  <SCORE.heavy>
16

>  <SCORE.norm>
-1.91121

>  <RMSD>
1.415

$$$$
1f27 biotin aptamer (Xray 1.3A)
 OpenBabel11021811393D
libRbt.so/2013.1/901 2013/11/27
 16 17  0  0  0  0  0  0  0  0999 V2000
   21.3578   -0.7771   14.4332 C   0  0  0  0  0  0  0  0  0  0  0  0
   22.4185   -1.2208   14.0050 O   0  5  0  0  0  0  0  0  0  0  0  0
   20.3488   -1.4801   14.4152 O   0  0  0  0  0  0  0  0  0  0  0  0
   21.3044    0.6154   15.0485 C   0  0  0  0  0  0  0  0  0  0  0  0
   20.3293    1.5792   14.3363 C   0  0  0  0  0  0  0  0  0  0  0  0
   18.8830    1.1721   14.5498 C   0  0  0  0  0  0  0  0  0  0  0  0
   17.8872    2.1385   13.9431 C   0  0  0  0  0  0  0  0  0  0  0  0
   16.4146    1.7829   14.1870 C   0  0  2  0  0  0  0  0  0  0  0  0
   15.8472    0.0753   13.5328 S   0  0  0  0  0  0  0  0  0  0  0  0
   14.0593    0.6928   13.7919 C   0  0  0  0  0  0  0  0  0  0  0  0
   14.1023    2.2094   13.4437 C   0  0  2  0  0  0  0  0  0  0  0  0
   13.7834    2.2999   11.9274 N   0  0  0  0  0  0  0  0  0  0  0  0
   14.7074    2.8333   11.2530 C   0  0  0  0  0  0  0  0  0  0  0  0
   14.8614    2.9249    9.9835 O   0  0  0  0  0  0  0  0  0  0  0  0
   15.9083    3.0892   12.0145 N   0  0  0  0  0  0  0  0  0  0  0  0
   15.5104    2.7788   13.4572 C   0  0  2  0  0  0  0  0  0  0  0  0
  1  2  1  0  0  0  0
  1  3  2  0  0  0  0
  1  4  1  0  0  0  0
  4  5  1  0  0  0  0
  5  6  1  0  0  0  0
  6  7  1  0  0  0  0
  8  7  1  6  0  0  0
  8  9  1  0  0  0  0
  8 16  1  0  0  0  0
  9 10  1  0  0  0  0
 11 10  1  6  0  0  0
 11 12  1  0  0  0  0
 11 16  1  0  0  0  0
 12 13  1  0  0  0  0
 13 14  2  0  0  0  0
 13 15  1  0  0  0  0
 16 15  1  6  0  0  0
M  CHG  1   2  -1
M  END
>  <CHROM.1>
120.95335595,68.95494533,176.32506246,-177.81650774,-58.99860522,17.28410033
1.17822144,13.38133310,0.48817396,0.03765847,2.49232880

>  <Name>
1f27 biotin aptamer (Xray 1.3A)

>  <RI>
0

>  <Rbt.Current_Directory>
/home/itssahil/PROJECTS/Mol_Feturizer/New_Systems/rnas/1f27

>  <Rbt.Executable>
rbdock ($Id: //depot/dev/client3/rdock/2013.1/src/exe/rbdock.cxx#4 $)

>  <Rbt.Library>
libRbt.so (2013.1, Build901 2013/11/27)

>  <Rbt.Parameter_File>
/export/apps/rDock/src/rDock_2013.1_src/data/scripts/dock_solv.prm

>  <Rbt.Receptor>
prm/pocket_docking_8.prm

>  <SCORE>
-31.7584

>  <SCORE.INTER>
-29.4752

>  <SCORE.INTER.CONST>
1

>  <SCORE.INTER.POLAR>
-1.79151

>  <SCORE.INTER.ROT>
5

>  <SCORE.INTER.SOLV>
9.49489

>  <SCORE.INTER.VDW>
-23.7767

>  <SCORE.INTER.norm>
-1.8422

>  <SCORE.INTRA>
-2.28326

>  <SCORE.INTRA.DIHEDRAL>
-5.13077

>  <SCORE.INTRA.DIHEDRAL.0>
6.87082

>  <SCORE.INTRA.POLAR>
0

>  <SCORE.INTRA.POLAR.0>
0

>  <SCORE.INTRA.REPUL>
0

>  <SCORE.INTRA.REPUL.0>
0

>  <SCORE.INTRA.SOLV>
0.207123

>  <SCORE.INTRA.SOLV.lig_0>
-42.5944

>  <SCORE.INTRA.VDW>
0.178566

>  <SCORE.INTRA.VDW.0>
-1.067

>  <SCORE.INTRA.norm>
-0.142704

>  <SCORE.RESTR>
0

>  <SCORE.RESTR.CAVITY>
0

>  <SCORE.RESTR.norm>
0

>  <SCORE.SYSTEM>
0

>  <SCORE.SYSTEM.CONST>
0

>  <SCORE.SYSTEM.DIHEDRAL>
0

>  <SCORE.SYSTEM.SOLV>
0

>  <SCORE.SYSTEM.norm>
0

>  <SCORE.heavy>
16

>  <SCORE.norm>
-1.9849

>  <RMSD>
1.416

$$$$
1f27 biotin aptamer (Xray 1.3A)
 OpenBabel11021811393D
libRbt.so/2013.1/901 2013/11/27
 16 17  0  0  0  0  0  0  0  0999 V2000
   21.0105   -0.6643   13.1146 C   0  0  0  0  0  0  0  0  0  0  0  0
   20.1448   -1.5281   13.0162 O   0  5  0  0  0  0  0  0  0  0  0  0
   21.8710   -0.5584   12.2423 O   0  0  0  0  0  0  0  0  0  0  0  0
   20.9808    0.3188   14.2779 C   0  0  0  0  0  0  0  0  0  0  0  0
   19.5870    0.9274   14.5497 C   0  0  0  0  0  0  0  0  0  0  0  0
   19.0844    1.7288   13.3630 C   0  0  0  0  0  0  0  0  0  0  0  0
   17.9788    2.7020   13.7155 C   0  0  0  0  0  0  0  0  0  0  0  0
   16.6124    2.0558   13.9797 C   0  0  2  0  0  0  0  0  0  0  0  0
   16.3187    0.3535   13.1540 S   0  0  0  0  0  0  0  0  0  0  0  0
   14.4697    0.5977   13.5618 C   0  0  0  0  0  0  0  0  0  0  0  0
   14.2181    2.1246   13.3936 C   0  0  2  0  0  0  0  0  0  0  0  0
   13.7910    2.3179   11.9139 N   0  0  0  0  0  0  0  0  0  0  0  0
   14.5593    3.0828   11.2674 C   0  0  0  0  0  0  0  0  0  0  0  0
   14.6123    3.3380   10.0121 O   0  0  0  0  0  0  0  0  0  0  0  0
   15.7416    3.4727   12.0008 N   0  0  0  0  0  0  0  0  0  0  0  0
   15.4995    2.9399   13.4127 C   0  0  2  0  0  0  0  0  0  0  0  0
  1  2  1  0  0  0  0
  1  3  2  0  0  0  0
  1  4  1  0  0  0  0
  4  5  1  0  0  0  0
  5  6  1  0  0  0  0
  6  7  1  0  0  0  0
  8  7  1  6  0  0  0
  8  9  1  0  0  0  0
  8 16  1  0  0  0  0
  9 10  1  0  0  0  0
 11 10  1  6  0  0  0
 11 12  1  0  0  0  0
 11 16  1  0  0  0  0
 12 13  1  0  0  0  0
 13 14  2  0  0  0  0
 13 15  1  0  0  0  0
 16 15  1  6  0  0  0
M  CHG  1   2  -1
M  END
>  <CHROM.1>
-46.01215144,-61.91018901,-160.91955555,-73.99163260,-24.51908701,17.24125329
1.34855954,12.91624577,-0.44359144,0.15693682,-0.74036172

>  <Name>
1f27 biotin aptamer (Xray 1.3A)

>  <RI>
0

>  <Rbt.Current_Directory>
/home/itssahil/PROJECTS/Mol_Feturizer/New_Systems/rnas/1f27

>  <Rbt.Executable>
rbdock ($Id: //depot/dev/client3/rdock/2013.1/src/exe/rbdock.cxx#4 $)

>  <Rbt.Library>
libRbt.so (2013.1, Build901 2013/11/27)

>  <Rbt.Parameter_File>
/export/apps/rDock/src/rDock_2013.1_src/data/scripts/dock_solv.prm

>  <Rbt.Receptor>
prm/pocket_docking_7.prm

>  <SCORE>
-29.2081

>  <SCORE.INTER>
-30.2879

>  <SCORE.INTER.CONST>
1

>  <SCORE.INTER.POLAR>
-2.54414

>  <SCORE.INTER.ROT>
5

>  <SCORE.INTER.SOLV>
12.2181

>  <SCORE.INTER.VDW>
-22.7175

>  <SCORE.INTER.norm>
-1.893

>  <SCORE.INTRA>
1.07984

>  <SCORE.INTRA.DIHEDRAL>
0.533859

>  <SCORE.INTRA.DIHEDRAL.0>
6.87082

>  <SCORE.INTRA.POLAR>
0

>  <SCORE.INTRA.POLAR.0>
0

>  <SCORE.INTRA.REPUL>
0

>  <SCORE.INTRA.REPUL.0>
0

>  <SCORE.INTRA.SOLV>
0.46744

>  <SCORE.INTRA.SOLV.lig_0>
-42.5944

>  <SCORE.INTRA.VDW>
0.579186

>  <SCORE.INTRA.VDW.0>
-1.067

>  <SCORE.INTRA.norm>
0.0674897

>  <SCORE.RESTR>
0

>  <SCORE.RESTR.CAVITY>
0

>  <SCORE.RESTR.norm>
0

>  <SCORE.SYSTEM>
0

>  <SCORE.SYSTEM.CONST>
0

>  <SCORE.SYSTEM.DIHEDRAL>
0

>  <SCORE.SYSTEM.SOLV>
0

>  <SCORE.SYSTEM.norm>
0

>  <SCORE.heavy>
16

>  <SCORE.norm>
-1.82551

>  <RMSD>
1.421

$$$$
1f27 biotin aptamer (Xray 1.3A)
 OpenBabel11021811393D
libRbt.so/2013.1/901 2013/11/27
 16 17  0  0  0  0  0  0  0  0999 V2000
   20.4907   -1.4559   12.7948 C   0  0  0  0  0  0  0  0  0  0  0  0
   20.8669   -1.6081   13.9527 O   0  5  0  0  0  0  0  0  0  0  0  0
   20.6046   -2.3776   11.9885 O   0  0  0  0  0  0  0  0  0  0  0  0
   19.8219   -0.1539   12.3730 C   0  0  0  0  0  0  0  0  0  0  0  0
   18.9227    0.4714   13.4627 C   0  0  0  0  0  0  0  0  0  0  0  0
   18.3483    1.8040   13.0188 C   0  0  0  0  0  0  0  0  0  0  0  0
   17.5721    2.5195   14.1047 C   0  0  0  0  0  0  0  0  0  0  0  0
   16.1126    2.0707   14.2549 C   0  0  2  0  0  0  0  0  0  0  0  0
   15.7109    0.3075   13.6262 S   0  0  0  0  0  0  0  0  0  0  0  0
   13.8714    0.8074   13.7322 C   0  0  0  0  0  0  0  0  0  0  0  0
   13.8388    2.3112   13.3312 C   0  0  2  0  0  0  0  0  0  0  0  0
   13.6284    2.3298   11.7935 N   0  0  0  0  0  0  0  0  0  0  0  0
   14.5624    2.9038   11.1679 C   0  0  0  0  0  0  0  0  0  0  0  0
   14.8041    2.9644    9.9103 O   0  0  0  0  0  0  0  0  0  0  0  0
   15.6834    3.2672   12.0039 N   0  0  0  0  0  0  0  0  0  0  0  0
   15.2007    2.9771   13.4248 C   0  0  2  0  0  0  0  0  0  0  0  0
  1  2  1  0  0  0  0
  1  3  2  0  0  0  0
  1  4  1  0  0  0  0
  4  5  1  0  0  0  0
  5  6  1  0  0  0  0
  6  7  1  0  0  0  0
  8  7  1  6  0  0  0
  8  9  1  0  0  0  0
  8 16  1  0  0  0  0
  9 10  1  0  0  0  0
 11 10  1  6  0  0  0
 11 12  1  0  0  0  0
 11 16  1  0  0  0  0
 12 13  1  0  0  0  0
 13 14  2  0  0  0  0
 13 15  1  0  0  0  0
 16 15  1  6  0  0  0
M  CHG  1   2  -1
M  END
>  <CHROM.1>
-35.82199728,176.67222163,-174.26950833,-83.59074079,23.94551951,16.83080104
1.09783786,12.84068215,-0.32700934,0.47904033,-1.12973932

>  <Name>
1f27 biotin aptamer (Xray 1.3A)

>  <RI>
0

>  <Rbt.Current_Directory>
/home/itssahil/PROJECTS/Mol_Feturizer/New_Systems/rnas/1f27

>  <Rbt.Executable>
rbdock ($Id: //depot/dev/client3/rdock/2013.1/src/exe/rbdock.cxx#4 $)

>  <Rbt.Library>
libRbt.so (2013.1, Build901 2013/11/27)

>  <Rbt.Parameter_File>
/export/apps/rDock/src/rDock_2013.1_src/data/scripts/dock_solv.prm

>  <Rbt.Receptor>
prm/pocket_docking_2.prm

>  <SCORE>
-27.869

>  <SCORE.INTER>
-28.7615

>  <SCORE.INTER.CONST>
1

>  <SCORE.INTER.POLAR>
-1.82539

>  <SCORE.INTER.ROT>
5

>  <SCORE.INTER.SOLV>
9.39736

>  <SCORE.INTER.VDW>
-23.1555

>  <SCORE.INTER.norm>
-1.79759

>  <SCORE.INTRA>
0.892495

>  <SCORE.INTRA.DIHEDRAL>
0.634262

>  <SCORE.INTRA.DIHEDRAL.0>
6.87082

>  <SCORE.INTRA.POLAR>
0

>  <SCORE.INTRA.POLAR.0>
0

>  <SCORE.INTRA.REPUL>
0

>  <SCORE.INTRA.REPUL.0>
0

>  <SCORE.INTRA.SOLV>
-0.363691

>  <SCORE.INTRA.SOLV.lig_0>
-42.5944

>  <SCORE.INTRA.VDW>
0.75721

>  <SCORE.INTRA.VDW.0>
-1.067

>  <SCORE.INTRA.norm>
0.0557809

>  <SCORE.RESTR>
0

>  <SCORE.RESTR.CAVITY>
0

>  <SCORE.RESTR.norm>
0

>  <SCORE.SYSTEM>
0

>  <SCORE.SYSTEM.CONST>
0

>  <SCORE.SYSTEM.DIHEDRAL>
0

>  <SCORE.SYSTEM.SOLV>
0

>  <SCORE.SYSTEM.norm>
0

>  <SCORE.heavy>
16

>  <SCORE.norm>
-1.74181

>  <RMSD>
1.422

$$$$
1f27 biotin aptamer (Xray 1.3A)
 OpenBabel11021811393D
libRbt.so/2013.1/901 2013/11/27
 16 17  0  0  0  0  0  0  0  0999 V2000
   21.2975   -0.8217   13.4336 C   0  0  0  0  0  0  0  0  0  0  0  0
   21.8954   -0.5612   12.3944 O   0  5  0  0  0  0  0  0  0  0  0  0
   21.8546   -0.6569   14.5176 O   0  0  0  0  0  0  0  0  0  0  0  0
   19.8464   -1.2827   13.3859 C   0  0  0  0  0  0  0  0  0  0  0  0
   18.8394   -0.1537   13.0719 C   0  0  0  0  0  0  0  0  0  0  0  0
   18.8127    0.8945   14.1689 C   0  0  0  0  0  0  0  0  0  0  0  0
   17.8592    2.0376   13.8897 C   0  0  0  0  0  0  0  0  0  0  0  0
   16.3799    1.7180   14.1420 C   0  0  2  0  0  0  0  0  0  0  0  0
   15.7604    0.0369   13.4668 S   0  0  0  0  0  0  0  0  0  0  0  0
   13.9924    0.6982   13.7524 C   0  0  0  0  0  0  0  0  0  0  0  0
   14.0733    2.2185   13.4275 C   0  0  2  0  0  0  0  0  0  0  0  0
   13.7432    2.3415   11.9159 N   0  0  0  0  0  0  0  0  0  0  0  0
   14.6751    2.8604   11.2411 C   0  0  0  0  0  0  0  0  0  0  0  0
   14.8200    2.9679    9.9717 O   0  0  0  0  0  0  0  0  0  0  0  0
   15.8894    3.0717   11.9950 N   0  0  0  0  0  0  0  0  0  0  0  0
   15.4964    2.7493   13.4365 C   0  0  2  0  0  0  0  0  0  0  0  0
  1  2  1  0  0  0  0
  1  3  2  0  0  0  0
  1  4  1  0  0  0  0
  4  5  1  0  0  0  0
  5  6  1  0  0  0  0
  6  7  1  0  0  0  0
  8  7  1  6  0  0  0
  8  9  1  0  0  0  0
  8 16  1  0  0  0  0
  9 10  1  0  0  0  0
 11 10  1  6  0  0  0
 11 12  1  0  0  0  0
 11 16  1  0  0  0  0
 12 13  1  0  0  0  0
 13 14  2  0  0  0  0
 13 15  1  0  0  0  0
 16 15  1  6  0  0  0
M  CHG  1   2  -1
M  END
>  <CHROM.1>
-74.33139963,-64.54859539,178.78783222,77.82784921,-45.01701082,17.14266624
1.03876713,13.02037210,-0.39482755,0.23530843,-0.94270581

>  <Name>
1f27 biotin aptamer (Xray 1.3A)

>  <RI>
0

>  <Rbt.Current_Directory>
/home/itssahil/PROJECTS/Mol_Feturizer/New_Systems/rnas/1f27

>  <Rbt.Executable>
rbdock ($Id: //depot/dev/client3/rdock/2013.1/src/exe/rbdock.cxx#4 $)

>  <Rbt.Library>
libRbt.so (2013.1, Build901 2013/11/27)

>  <Rbt.Parameter_File>
/export/apps/rDock/src/rDock_2013.1_src/data/scripts/dock_solv.prm

>  <Rbt.Receptor>
prm/pocket_docking_3.prm

>  <SCORE>
-32.396

>  <SCORE.INTER>
-31.3768

>  <SCORE.INTER.CONST>
1

>  <SCORE.INTER.POLAR>
-2.62846

>  <SCORE.INTER.ROT>
5

>  <SCORE.INTER.SOLV>
11.9299

>  <SCORE.INTER.VDW>
-23.0663

>  <SCORE.INTER.norm>
-1.96105

>  <SCORE.INTRA>
-1.01921

>  <SCORE.INTRA.DIHEDRAL>
-3.39199

>  <SCORE.INTRA.DIHEDRAL.0>
6.87082

>  <SCORE.INTRA.POLAR>
0

>  <SCORE.INTRA.POLAR.0>
0

>  <SCORE.INTRA.REPUL>
0

>  <SCORE.INTRA.REPUL.0>
0

>  <SCORE.INTRA.SOLV>
0.268405

>  <SCORE.INTRA.SOLV.lig_0>
-42.5944

>  <SCORE.INTRA.VDW>
0.542582

>  <SCORE.INTRA.VDW.0>
-1.067

>  <SCORE.INTRA.norm>
-0.0637005

>  <SCORE.RESTR>
0

>  <SCORE.RESTR.CAVITY>
0

>  <SCORE.RESTR.norm>
0

>  <SCORE.SYSTEM>
0

>  <SCORE.SYSTEM.CONST>
0

>  <SCORE.SYSTEM.DIHEDRAL>
0

>  <SCORE.SYSTEM.SOLV>
0

>  <SCORE.SYSTEM.norm>
0

>  <SCORE.heavy>
16

>  <SCORE.norm>
-2.02475

>  <RMSD>
1.428

$$$$
1f27 biotin aptamer (Xray 1.3A)
 OpenBabel11021811393D
libRbt.so/2013.1/901 2013/11/27
 16 17  0  0  0  0  0  0  0  0999 V2000
   20.5901   -1.4628   12.7298 C   0  0  0  0  0  0  0  0  0  0  0  0
   21.1154   -1.5671   13.8337 O   0  5  0  0  0  0  0  0  0  0  0  0
   20.5707   -2.4281   11.9680 O   0  0  0  0  0  0  0  0  0  0  0  0
   19.9032   -0.1634   12.3296 C   0  0  0  0  0  0  0  0  0  0  0  0
   18.6850    0.1989   13.2081 C   0  0  0  0  0  0  0  0  0  0  0  0
   18.2090    1.6164   12.9493 C   0  0  0  0  0  0  0  0  0  0  0  0
   17.5187    2.2491   14.1395 C   0  0  0  0  0  0  0  0  0  0  0  0
   16.0247    1.9231   14.2653 C   0  0  2  0  0  0  0  0  0  0  0  0
   15.4916    0.1913   13.6470 S   0  0  0  0  0  0  0  0  0  0  0  0
   13.6977    0.8414   13.7113 C   0  0  0  0  0  0  0  0  0  0  0  0
   13.7962    2.3380   13.2943 C   0  0  2  0  0  0  0  0  0  0  0  0
   13.6172    2.3555   11.7526 N   0  0  0  0  0  0  0  0  0  0  0  0
   14.6068    2.8436   11.1398 C   0  0  0  0  0  0  0  0  0  0  0  0
   14.8765    2.8694    9.8867 O   0  0  0  0  0  0  0  0  0  0  0  0
   15.7378    3.1239   11.9942 N   0  0  0  0  0  0  0  0  0  0  0  0
   15.2061    2.8912   13.4081 C   0  0  2  0  0  0  0  0  0  0  0  0
  1  2  1  0  0  0  0
  1  3  2  0  0  0  0
  1  4  1  0  0  0  0
  4  5  1  0  0  0  0
  5  6  1  0  0  0  0
  6  7  1  0  0  0  0
  8  7  1  6  0  0  0
  8  9  1  0  0  0  0
  8 16  1  0  0  0  0
  9 10  1  0  0  0  0
 11 10  1  6  0  0  0
 11 12  1  0  0  0  0
 11 16  1  0  0  0  0
 12 13  1  0  0  0  0
 13 14  2  0  0  0  0
 13 15  1  0  0  0  0
 16 15  1  6  0  0  0
M  CHG  1   2  -1
M  END
>  <CHROM.1>
-63.07483542,168.80913667,-152.65262939,-84.86651767,32.58173214,16.79375038
1.01327980,12.80228571,-0.32578569,0.45568021,-1.08067786

>  <Name>
1f27 biotin aptamer (Xray 1.3A)

>  <RI>
0

>  <Rbt.Current_Directory>
/home/itssahil/PROJECTS/Mol_Feturizer/New_Systems/rnas/1f27

>  <Rbt.Executable>
rbdock ($Id: //depot/dev/client3/rdock/2013.1/src/exe/rbdock.cxx#4 $)

>  <Rbt.Library>
libRbt.so (2013.1, Build901 2013/11/27)

>  <Rbt.Parameter_File>
/export/apps/rDock/src/rDock_2013.1_src/data/scripts/dock_solv.prm

>  <Rbt.Receptor>
prm/pocket_docking_2.prm

>  <SCORE>
-28.0976

>  <SCORE.INTER>
-29.5952

>  <SCORE.INTER.CONST>
1

>  <SCORE.INTER.POLAR>
-1.86534

>  <SCORE.INTER.ROT>
5

>  <SCORE.INTER.SOLV>
9.82734

>  <SCORE.INTER.VDW>
-23.7215

>  <SCORE.INTER.norm>
-1.8497

>  <SCORE.INTRA>
1.49766

>  <SCORE.INTRA.DIHEDRAL>
2.30699

>  <SCORE.INTRA.DIHEDRAL.0>
6.87082

>  <SCORE.INTRA.POLAR>
0

>  <SCORE.INTRA.POLAR.0>
0

>  <SCORE.INTRA.REPUL>
0

>  <SCORE.INTRA.REPUL.0>
0

>  <SCORE.INTRA.SOLV>
-0.32451

>  <SCORE.INTRA.SOLV.lig_0>
-42.5944

>  <SCORE.INTRA.VDW>
0.506415

>  <SCORE.INTRA.VDW.0>
-1.067

>  <SCORE.INTRA.norm>
0.0936034

>  <SCORE.RESTR>
0

>  <SCORE.RESTR.CAVITY>
0

>  <SCORE.RESTR.norm>
0

>  <SCORE.SYSTEM>
0

>  <SCORE.SYSTEM.CONST>
0

>  <SCORE.SYSTEM.DIHEDRAL>
0

>  <SCORE.SYSTEM.SOLV>
0

>  <SCORE.SYSTEM.norm>
0

>  <SCORE.heavy>
16

>  <SCORE.norm>
-1.7561

>  <RMSD>
1.432

$$$$
1f27 biotin aptamer (Xray 1.3A)
 OpenBabel11021811393D
libRbt.so/2013.1/901 2013/11/27
 16 17  0  0  0  0  0  0  0  0999 V2000
   21.9276   -0.5411   13.8686 C   0  0  0  0  0  0  0  0  0  0  0  0
   22.8630   -0.9998   14.5166 O   0  5  0  0  0  0  0  0  0  0  0  0
   22.1001   -0.2076   12.6975 O   0  0  0  0  0  0  0  0  0  0  0  0
   20.5399   -0.4481   14.4900 C   0  0  0  0  0  0  0  0  0  0  0  0
   19.7489    0.8119   14.0733 C   0  0  0  0  0  0  0  0  0  0  0  0
   18.2968    0.7307   14.5065 C   0  0  0  0  0  0  0  0  0  0  0  0
   17.4735    1.9316   14.0896 C   0  0  0  0  0  0  0  0  0  0  0  0
   15.9564    1.7534   14.2337 C   0  0  2  0  0  0  0  0  0  0  0  0
   15.2442    0.0963   13.5915 S   0  0  0  0  0  0  0  0  0  0  0  0
   13.5253    0.9202   13.6976 C   0  0  0  0  0  0  0  0  0  0  0  0
   13.7666    2.4077   13.3074 C   0  0  2  0  0  0  0  0  0  0  0  0
   13.5681    2.4746   11.7695 N   0  0  0  0  0  0  0  0  0  0  0  0
   14.5925    2.8742   11.1498 C   0  0  0  0  0  0  0  0  0  0  0  0
   14.8453    2.8986    9.8932 O   0  0  0  0  0  0  0  0  0  0  0  0
   15.7581    3.0230   11.9907 N   0  0  0  0  0  0  0  0  0  0  0  0
   15.2263    2.8154   13.4085 C   0  0  2  0  0  0  0  0  0  0  0  0
  1  2  1  0  0  0  0
  1  3  2  0  0  0  0
  1  4  1  0  0  0  0
  4  5  1  0  0  0  0
  5  6  1  0  0  0  0
  6  7  1  0  0  0  0
  8  7  1  6  0  0  0
  8  9  1  0  0  0  0
  8 16  1  0  0  0  0
  9 10  1  0  0  0  0
 11 10  1  6  0  0  0
 11 12  1  0  0  0  0
 11 16  1  0  0  0  0
 12 13  1  0  0  0  0
 13 14  2  0  0  0  0
 13 15  1  0  0  0  0
 16 15  1  6  0  0  0
M  CHG  1   2  -1
M  END
>  <CHROM.1>
143.32366307,169.46558793,-178.61961168,167.23664453,-45.23391236,17.12445624
1.17889424,13.20537374,-0.36598620,0.17181627,-1.00590048

>  <Name>
1f27 biotin aptamer (Xray 1.3A)

>  <RI>
0

>  <Rbt.Current_Directory>
/home/itssahil/PROJECTS/Mol_Feturizer/New_Systems/rnas/1f27

>  <Rbt.Executable>
rbdock ($Id: //depot/dev/client3/rdock/2013.1/src/exe/rbdock.cxx#4 $)

>  <Rbt.Library>
libRbt.so (2013.1, Build901 2013/11/27)

>  <Rbt.Parameter_File>
/export/apps/rDock/src/rDock_2013.1_src/data/scripts/dock_solv.prm

>  <Rbt.Receptor>
prm/pocket_docking_4.prm

>  <SCORE>
-29.3031

>  <SCORE.INTER>
-27.4475

>  <SCORE.INTER.CONST>
1

>  <SCORE.INTER.POLAR>
-2.26988

>  <SCORE.INTER.ROT>
5

>  <SCORE.INTER.SOLV>
13.0252

>  <SCORE.INTER.VDW>
-22.0071

>  <SCORE.INTER.norm>
-1.71547

>  <SCORE.INTRA>
-1.85559

>  <SCORE.INTRA.DIHEDRAL>
-3.69029

>  <SCORE.INTRA.DIHEDRAL.0>
6.87082

>  <SCORE.INTRA.POLAR>
0

>  <SCORE.INTRA.POLAR.0>
0

>  <SCORE.INTRA.REPUL>
0

>  <SCORE.INTRA.REPUL.0>
0

>  <SCORE.INTRA.SOLV>
-0.759808

>  <SCORE.INTRA.SOLV.lig_0>
-42.5944

>  <SCORE.INTRA.VDW>
0.369461

>  <SCORE.INTRA.VDW.0>
-1.067

>  <SCORE.INTRA.norm>
-0.115974

>  <SCORE.RESTR>
0

>  <SCORE.RESTR.CAVITY>
0

>  <SCORE.RESTR.norm>
0

>  <SCORE.SYSTEM>
0

>  <SCORE.SYSTEM.CONST>
0

>  <SCORE.SYSTEM.DIHEDRAL>
0

>  <SCORE.SYSTEM.SOLV>
0

>  <SCORE.SYSTEM.norm>
0

>  <SCORE.heavy>
16

>  <SCORE.norm>
-1.83145

>  <RMSD>
1.432

$$$$
1f27 biotin aptamer (Xray 1.3A)
 OpenBabel11021811393D
libRbt.so/2013.1/901 2013/11/27
 16 17  0  0  0  0  0  0  0  0999 V2000
   21.3088   -0.7546   14.3369 C   0  0  0  0  0  0  0  0  0  0  0  0
   22.3031   -1.1341   13.7265 O   0  5  0  0  0  0  0  0  0  0  0  0
   20.3527   -1.5145   14.4814 O   0  0  0  0  0  0  0  0  0  0  0  0
   21.2842    0.6292   14.9734 C   0  0  0  0  0  0  0  0  0  0  0  0
   20.3025    1.6129   14.2985 C   0  0  0  0  0  0  0  0  0  0  0  0
   18.8575    1.2218   14.5474 C   0  0  0  0  0  0  0  0  0  0  0  0
   17.8577    2.1752   13.9268 C   0  0  0  0  0  0  0  0  0  0  0  0
   16.3866    1.8102   14.1652 C   0  0  2  0  0  0  0  0  0  0  0  0
   15.8307    0.1021   13.5026 S   0  0  0  0  0  0  0  0  0  0  0  0
   14.0386    0.7083   13.7594 C   0  0  0  0  0  0  0  0  0  0  0  0
   14.0738    2.2265   13.4175 C   0  0  2  0  0  0  0  0  0  0  0  0
   13.7584    2.3214   11.9007 N   0  0  0  0  0  0  0  0  0  0  0  0
   14.6811    2.8628   11.2309 C   0  0  0  0  0  0  0  0  0  0  0  0
   14.8380    2.9605    9.9622 O   0  0  0  0  0  0  0  0  0  0  0  0
   15.8785    3.1224   11.9968 N   0  0  0  0  0  0  0  0  0  0  0  0
   15.4786    2.8038   13.4371 C   0  0  2  0  0  0  0  0  0  0  0  0
  1  2  1  0  0  0  0
  1  3  2  0  0  0  0
  1  4  1  0  0  0  0
  4  5  1  0  0  0  0
  5  6  1  0  0  0  0
  6  7  1  0  0  0  0
  8  7  1  6  0  0  0
  8  9  1  0  0  0  0
  8 16  1  0  0  0  0
  9 10  1  0  0  0  0
 11 10  1  6  0  0  0
 11 12  1  0  0  0  0
 11 16  1  0  0  0  0
 12 13  1  0  0  0  0
 13 14  2  0  0  0  0
 13 15  1  0  0  0  0
 16 15  1  6  0  0  0
M  CHG  1   2  -1
M  END
>  <CHROM.1>
111.58581774,69.29463283,178.84185065,-179.77189735,-59.75044678,17.25416438
1.20581033,13.34029595,0.48533781,0.02279813,2.47884408

>  <Name>
1f27 biotin aptamer (Xray 1.3A)

>  <RI>
0

>  <Rbt.Current_Directory>
/home/itssahil/PROJECTS/Mol_Feturizer/New_Systems/rnas/1f27

>  <Rbt.Executable>
rbdock ($Id: //depot/dev/client3/rdock/2013.1/src/exe/rbdock.cxx#4 $)

>  <Rbt.Library>
libRbt.so (2013.1, Build901 2013/11/27)

>  <Rbt.Parameter_File>
/export/apps/rDock/src/rDock_2013.1_src/data/scripts/dock_solv.prm

>  <Rbt.Receptor>
prm/pocket_docking_6.prm

>  <SCORE>
-31.9011

>  <SCORE.INTER>
-29.4702

>  <SCORE.INTER.CONST>
1

>  <SCORE.INTER.POLAR>
-1.79094

>  <SCORE.INTER.ROT>
5

>  <SCORE.INTER.SOLV>
9.68434

>  <SCORE.INTER.VDW>
-23.8384

>  <SCORE.INTER.norm>
-1.84188

>  <SCORE.INTRA>
-2.43097

>  <SCORE.INTRA.DIHEDRAL>
-5.13451

>  <SCORE.INTRA.DIHEDRAL.0>
6.87082

>  <SCORE.INTRA.POLAR>
0

>  <SCORE.INTRA.POLAR.0>
0

>  <SCORE.INTRA.REPUL>
0

>  <SCORE.INTRA.REPUL.0>
0

>  <SCORE.INTRA.SOLV>
0.152931

>  <SCORE.INTRA.SOLV.lig_0>
-42.5944

>  <SCORE.INTRA.VDW>
0.0598149

>  <SCORE.INTRA.VDW.0>
-1.067

>  <SCORE.INTRA.norm>
-0.151936

>  <SCORE.RESTR>
0

>  <SCORE.RESTR.CAVITY>
0

>  <SCORE.RESTR.norm>
0

>  <SCORE.SYSTEM>
0

>  <SCORE.SYSTEM.CONST>
0

>  <SCORE.SYSTEM.DIHEDRAL>
0

>  <SCORE.SYSTEM.SOLV>
0

>  <SCORE.SYSTEM.norm>
0

>  <SCORE.heavy>
16

>  <SCORE.norm>
-1.99382

>  <RMSD>
1.436

$$$$
1f27 biotin aptamer (Xray 1.3A)
 OpenBabel11021811393D
libRbt.so/2013.1/901 2013/11/27
 16 17  0  0  0  0  0  0  0  0999 V2000
   20.7328   -1.4817   14.0871 C   0  0  0  0  0  0  0  0  0  0  0  0
   19.6803   -2.0885   14.2587 O   0  5  0  0  0  0  0  0  0  0  0  0
   21.7708   -1.9013   14.5960 O   0  0  0  0  0  0  0  0  0  0  0  0
   20.7681   -0.2507   13.1905 C   0  0  0  0  0  0  0  0  0  0  0  0
   20.0357    0.9756   13.7793 C   0  0  0  0  0  0  0  0  0  0  0  0
   18.5600    0.6962   13.9963 C   0  0  0  0  0  0  0  0  0  0  0  0
   17.6991    1.9420   13.9727 C   0  0  0  0  0  0  0  0  0  0  0  0
   16.1996    1.6922   14.1814 C   0  0  2  0  0  0  0  0  0  0  0  0
   15.5286    0.0271   13.5157 S   0  0  0  0  0  0  0  0  0  0  0  0
   13.7832    0.7703   13.7308 C   0  0  0  0  0  0  0  0  0  0  0  0
   13.9418    2.2790   13.3819 C   0  0  2  0  0  0  0  0  0  0  0  0
   13.6666    2.3874   11.8582 N   0  0  0  0  0  0  0  0  0  0  0  0
   14.6420    2.8521   11.2057 C   0  0  0  0  0  0  0  0  0  0  0  0
   14.8325    2.9289    9.9402 O   0  0  0  0  0  0  0  0  0  0  0  0
   15.8393    3.0247   11.9957 N   0  0  0  0  0  0  0  0  0  0  0  0
   15.3859    2.7474   13.4287 C   0  0  2  0  0  0  0  0  0  0  0  0
  1  2  1  0  0  0  0
  1  3  2  0  0  0  0
  1  4  1  0  0  0  0
  4  5  1  0  0  0  0
  5  6  1  0  0  0  0
  6  7  1  0  0  0  0
  8  7  1  6  0  0  0
  8  9  1  0  0  0  0
  8 16  1  0  0  0  0
  9 10  1  0  0  0  0
 11 10  1  6  0  0  0
 11 12  1  0  0  0  0
 11 16  1  0  0  0  0
 12 13  1  0  0  0  0
 13 14  2  0  0  0  0
 13 15  1  0  0  0  0
 16 15  1  6  0  0  0
M  CHG  1   2  -1
M  END
>  <CHROM.1>
69.93473777,-61.47646087,-154.49496731,179.66380601,-31.80945630,16.98821081
0.93309829,13.20186356,0.56199851,-0.10912830,2.44155111

>  <Name>
1f27 biotin aptamer (Xray 1.3A)

>  <RI>
0

>  <Rbt.Current_Directory>
/home/itssahil/PROJECTS/Mol_Feturizer/New_Systems/rnas/1f27

>  <Rbt.Executable>
rbdock ($Id: //depot/dev/client3/rdock/2013.1/src/exe/rbdock.cxx#4 $)

>  <Rbt.Library>
libRbt.so (2013.1, Build901 2013/11/27)

>  <Rbt.Parameter_File>
/export/apps/rDock/src/rDock_2013.1_src/data/scripts/dock_solv.prm

>  <Rbt.Receptor>
prm/pocket_docking_2.prm

>  <SCORE>
-28.0394

>  <SCORE.INTER>
-28.4926

>  <SCORE.INTER.CONST>
1

>  <SCORE.INTER.POLAR>
-1.81993

>  <SCORE.INTER.ROT>
5

>  <SCORE.INTER.SOLV>
7.84413

>  <SCORE.INTER.VDW>
-22.4767

>  <SCORE.INTER.norm>
-1.78079

>  <SCORE.INTRA>
0.453188

>  <SCORE.INTRA.DIHEDRAL>
-0.436013

>  <SCORE.INTRA.DIHEDRAL.0>
6.87082

>  <SCORE.INTRA.POLAR>
0

>  <SCORE.INTRA.POLAR.0>
0

>  <SCORE.INTRA.REPUL>
0

>  <SCORE.INTRA.REPUL.0>
0

>  <SCORE.INTRA.SOLV>
0.306722

>  <SCORE.INTRA.SOLV.lig_0>
-42.5944

>  <SCORE.INTRA.VDW>
0.517833

>  <SCORE.INTRA.VDW.0>
-1.067

>  <SCORE.INTRA.norm>
0.0283242

>  <SCORE.RESTR>
0

>  <SCORE.RESTR.CAVITY>
0

>  <SCORE.RESTR.norm>
0

>  <SCORE.SYSTEM>
0

>  <SCORE.SYSTEM.CONST>
0

>  <SCORE.SYSTEM.DIHEDRAL>
0

>  <SCORE.SYSTEM.SOLV>
0

>  <SCORE.SYSTEM.norm>
0

>  <SCORE.heavy>
16

>  <SCORE.norm>
-1.75246

>  <RMSD>
1.439

$$$$
1f27 biotin aptamer (Xray 1.3A)
 OpenBabel11021811393D
libRbt.so/2013.1/901 2013/11/27
 16 17  0  0  0  0  0  0  0  0999 V2000
   19.6546   -2.5652   14.0730 C   0  0  0  0  0  0  0  0  0  0  0  0
   20.7865   -2.9958   13.8762 O   0  5  0  0  0  0  0  0  0  0  0  0
   18.6786   -3.2459   13.7624 O   0  0  0  0  0  0  0  0  0  0  0  0
   19.4570   -1.2214   14.7627 C   0  0  0  0  0  0  0  0  0  0  0  0
   18.6257   -0.2108   13.9413 C   0  0  0  0  0  0  0  0  0  0  0  0
   18.5846    1.1526   14.6063 C   0  0  0  0  0  0  0  0  0  0  0  0
   17.6331    2.1228   13.9378 C   0  0  0  0  0  0  0  0  0  0  0  0
   16.1451    1.8091   14.1422 C   0  0  2  0  0  0  0  0  0  0  0  0
   15.5429    0.1269   13.4543 S   0  0  0  0  0  0  0  0  0  0  0  0
   13.7685    0.7950   13.6781 C   0  0  0  0  0  0  0  0  0  0  0  0
   13.8652    2.3134   13.3492 C   0  0  2  0  0  0  0  0  0  0  0  0
   13.5858    2.4306   11.8269 N   0  0  0  0  0  0  0  0  0  0  0  0
   14.5414    2.9434   11.1811 C   0  0  0  0  0  0  0  0  0  0  0  0
   14.7287    3.0446    9.9168 O   0  0  0  0  0  0  0  0  0  0  0  0
   15.7307    3.1544   11.9741 N   0  0  0  0  0  0  0  0  0  0  0  0
   15.2889    2.8399   13.4031 C   0  0  2  0  0  0  0  0  0  0  0  0
  1  2  1  0  0  0  0
  1  3  2  0  0  0  0
  1  4  1  0  0  0  0
  4  5  1  0  0  0  0
  5  6  1  0  0  0  0
  6  7  1  0  0  0  0
  8  7  1  6  0  0  0
  8  9  1  0  0  0  0
  8 16  1  0  0  0  0
  9 10  1  0  0  0  0
 11 10  1  6  0  0  0
 11 12  1  0  0  0  0
 11 16  1  0  0  0  0
 12 13  1  0  0  0  0
 13 14  2  0  0  0  0
 13 15  1  0  0  0  0
 16 15  1  6  0  0  0
M  CHG  1   2  -1
M  END
>  <CHROM.1>
123.54656799,-173.96448755,-172.28571200,71.32498898,-61.48012695,16.61048231
0.69433389,13.23196391,0.75769630,0.25752517,2.98030970

>  <Name>
1f27 biotin aptamer (Xray 1.3A)

>  <RI>
0

>  <Rbt.Current_Directory>
/home/itssahil/PROJECTS/Mol_Feturizer/New_Systems/rnas/1f27

>  <Rbt.Executable>
rbdock ($Id: //depot/dev/client3/rdock/2013.1/src/exe/rbdock.cxx#4 $)

>  <Rbt.Library>
libRbt.so (2013.1, Build901 2013/11/27)

>  <Rbt.Parameter_File>
/export/apps/rDock/src/rDock_2013.1_src/data/scripts/dock_solv.prm

>  <Rbt.Receptor>
prm/pocket_docking_5.prm

>  <SCORE>
-29.411

>  <SCORE.INTER>
-27.1124

>  <SCORE.INTER.CONST>
1

>  <SCORE.INTER.POLAR>
-1.76709

>  <SCORE.INTER.ROT>
5

>  <SCORE.INTER.SOLV>
8.97588

>  <SCORE.INTER.VDW>
-22.1099

>  <SCORE.INTER.norm>
-1.69452

>  <SCORE.INTRA>
-2.29861

>  <SCORE.INTRA.DIHEDRAL>
-4.60809

>  <SCORE.INTRA.DIHEDRAL.0>
6.87082

>  <SCORE.INTRA.POLAR>
0

>  <SCORE.INTRA.POLAR.0>
0

>  <SCORE.INTRA.REPUL>
0

>  <SCORE.INTRA.REPUL.0>
0

>  <SCORE.INTRA.SOLV>
-0.717506

>  <SCORE.INTRA.SOLV.lig_0>
-42.5944

>  <SCORE.INTRA.VDW>
0.364182

>  <SCORE.INTRA.VDW.0>
-1.067

>  <SCORE.INTRA.norm>
-0.143663

>  <SCORE.RESTR>
0

>  <SCORE.RESTR.CAVITY>
0

>  <SCORE.RESTR.norm>
0

>  <SCORE.SYSTEM>
0

>  <SCORE.SYSTEM.CONST>
0

>  <SCORE.SYSTEM.DIHEDRAL>
0

>  <SCORE.SYSTEM.SOLV>
0

>  <SCORE.SYSTEM.norm>
0

>  <SCORE.heavy>
16

>  <SCORE.norm>
-1.83819

>  <RMSD>
1.444

$$$$
1f27 biotin aptamer (Xray 1.3A)
 OpenBabel11021811393D
libRbt.so/2013.1/901 2013/11/27
 16 17  0  0  0  0  0  0  0  0999 V2000
   21.2835   -0.9733   12.6286 C   0  0  0  0  0  0  0  0  0  0  0  0
   22.0731   -0.5441   13.4638 O   0  5  0  0  0  0  0  0  0  0  0  0
   21.4160   -2.1153   12.1917 O   0  0  0  0  0  0  0  0  0  0  0  0
   20.1023   -0.1204   12.1838 C   0  0  0  0  0  0  0  0  0  0  0  0
   19.6046    0.8715   13.2587 C   0  0  0  0  0  0  0  0  0  0  0  0
   18.1801    1.3207   12.9902 C   0  0  0  0  0  0  0  0  0  0  0  0
   17.5271    2.0006   14.1755 C   0  0  0  0  0  0  0  0  0  0  0  0
   16.0145    1.7728   14.2953 C   0  0  2  0  0  0  0  0  0  0  0  0
   15.3707    0.0834   13.6650 S   0  0  0  0  0  0  0  0  0  0  0  0
   13.6232    0.8497   13.7284 C   0  0  0  0  0  0  0  0  0  0  0  0
   13.8211    2.3389   13.3207 C   0  0  2  0  0  0  0  0  0  0  0  0
   13.6485    2.3772   11.7787 N   0  0  0  0  0  0  0  0  0  0  0  0
   14.6700    2.8028   11.1715 C   0  0  0  0  0  0  0  0  0  0  0  0
   14.9447    2.8180    9.9193 O   0  0  0  0  0  0  0  0  0  0  0  0
   15.8143    3.0030   12.0306 N   0  0  0  0  0  0  0  0  0  0  0  0
   15.2641    2.7975   13.4417 C   0  0  2  0  0  0  0  0  0  0  0  0
  1  2  1  0  0  0  0
  1  3  2  0  0  0  0
  1  4  1  0  0  0  0
  4  5  1  0  0  0  0
  5  6  1  0  0  0  0
  6  7  1  0  0  0  0
  8  7  1  6  0  0  0
  8  9  1  0  0  0  0
  8 16  1  0  0  0  0
  9 10  1  0  0  0  0
 11 10  1  6  0  0  0
 11 12  1  0  0  0  0
 11 16  1  0  0  0  0
 12 13  1  0  0  0  0
 13 14  2  0  0  0  0
 13 15  1  0  0  0  0
 16 15  1  6  0  0  0
M  CHG  1   2  -1
M  END
>  <CHROM.1>
-28.47308681,-159.46549472,165.31294860,-147.27197229,32.06492497,17.00776480
1.09692520,12.80235853,-0.25690056,0.33015530,-1.02195324

>  <Name>
1f27 biotin aptamer (Xray 1.3A)

>  <RI>
0

>  <Rbt.Current_Directory>
/home/itssahil/PROJECTS/Mol_Feturizer/New_Systems/rnas/1f27

>  <Rbt.Executable>
rbdock ($Id: //depot/dev/client3/rdock/2013.1/src/exe/rbdock.cxx#4 $)

>  <Rbt.Library>
libRbt.so (2013.1, Build901 2013/11/27)

>  <Rbt.Parameter_File>
/export/apps/rDock/src/rDock_2013.1_src/data/scripts/dock_solv.prm

>  <Rbt.Receptor>
prm/pocket_docking_4.prm

>  <SCORE>
-27.3932

>  <SCORE.INTER>
-29.349

>  <SCORE.INTER.CONST>
1

>  <SCORE.INTER.POLAR>
-1.8639

>  <SCORE.INTER.ROT>
5

>  <SCORE.INTER.SOLV>
11.9498

>  <SCORE.INTER.VDW>
-24.2696

>  <SCORE.INTER.norm>
-1.83431

>  <SCORE.INTRA>
1.9558

>  <SCORE.INTRA.DIHEDRAL>
2.95019

>  <SCORE.INTRA.DIHEDRAL.0>
6.87082

>  <SCORE.INTRA.POLAR>
0

>  <SCORE.INTRA.POLAR.0>
0

>  <SCORE.INTRA.REPUL>
0

>  <SCORE.INTRA.REPUL.0>
0

>  <SCORE.INTRA.SOLV>
-0.390376

>  <SCORE.INTRA.SOLV.lig_0>
-42.5944

>  <SCORE.INTRA.VDW>
0.675888

>  <SCORE.INTRA.VDW.0>
-1.067

>  <SCORE.INTRA.norm>
0.122237

>  <SCORE.RESTR>
0

>  <SCORE.RESTR.CAVITY>
0

>  <SCORE.RESTR.norm>
0

>  <SCORE.SYSTEM>
0

>  <SCORE.SYSTEM.CONST>
0

>  <SCORE.SYSTEM.DIHEDRAL>
0

>  <SCORE.SYSTEM.SOLV>
0

>  <SCORE.SYSTEM.norm>
0

>  <SCORE.heavy>
16

>  <SCORE.norm>
-1.71207

>  <RMSD>
1.446

$$$$
1f27 biotin aptamer (Xray 1.3A)
 OpenBabel11021811393D
libRbt.so/2013.1/901 2013/11/27
 16 17  0  0  0  0  0  0  0  0999 V2000
   21.2657   -1.3423   12.7906 C   0  0  0  0  0  0  0  0  0  0  0  0
   21.9006   -0.4017   12.3243 O   0  5  0  0  0  0  0  0  0  0  0  0
   21.8181   -2.4274   12.9635 O   0  0  0  0  0  0  0  0  0  0  0  0
   19.8165   -1.1492   13.2185 C   0  0  0  0  0  0  0  0  0  0  0  0
   19.3676    0.3284   13.2653 C   0  0  0  0  0  0  0  0  0  0  0  0
   17.9641    0.4703   13.8247 C   0  0  0  0  0  0  0  0  0  0  0  0
   17.4264    1.8845   13.7568 C   0  0  0  0  0  0  0  0  0  0  0  0
   15.9403    2.0258   14.1114 C   0  0  2  0  0  0  0  0  0  0  0  0
   14.8865    0.4356   13.9478 S   0  0  0  0  0  0  0  0  0  0  0  0
   13.3553    1.5702   14.0619 C   0  0  0  0  0  0  0  0  0  0  0  0
   13.7650    2.8758   13.3197 C   0  0  2  0  0  0  0  0  0  0  0  0
   13.3463    2.6651   11.8400 N   0  0  0  0  0  0  0  0  0  0  0  0
   14.3138    2.7322   11.0321 C   0  0  0  0  0  0  0  0  0  0  0  0
   14.3718    2.4534    9.7821 O   0  0  0  0  0  0  0  0  0  0  0  0
   15.6030    2.8281   11.6773 N   0  0  0  0  0  0  0  0  0  0  0  0
   15.2686    3.0156   13.1569 C   0  0  2  0  0  0  0  0  0  0  0  0
  1  2  1  0  0  0  0
  1  3  2  0  0  0  0
  1  4  1  0  0  0  0
  4  5  1  0  0  0  0
  5  6  1  0  0  0  0
  6  7  1  0  0  0  0
  8  7  1  6  0  0  0
  8  9  1  0  0  0  0
  8 16  1  0  0  0  0
  9 10  1  0  0  0  0
 11 10  1  1  0  0  0
 11 12  1  0  0  0  0
 11 16  1  0  0  0  0
 12 13  1  0  0  0  0
 13 14  2  0  0  0  0
 13 15  1  0  0  0  0
 16 15  1  6  0  0  0
M  CHG  1   2  -1
M  END
>  <CHROM.1>
-11.26147181,-174.46695105,-174.02004890,171.03794364,-21.53511159,16.80001440
1.04195751,12.86778683,-0.25343901,0.40114674,-1.13599290

>  <Name>
1f27 biotin aptamer (Xray 1.3A)

>  <RI>
0

>  <Rbt.Current_Directory>
/home/itssahil/PROJECTS/Mol_Feturizer/New_Systems/rnas/1f27

>  <Rbt.Executable>
rbdock ($Id: //depot/dev/client3/rdock/2013.1/src/exe/rbdock.cxx#4 $)

>  <Rbt.Library>
libRbt.so (2013.1, Build901 2013/11/27)

>  <Rbt.Parameter_File>
/export/apps/rDock/src/rDock_2013.1_src/data/scripts/dock_solv.prm

>  <Rbt.Receptor>
prm/pocket_docking_4.prm

>  <SCORE>
-29.071

>  <SCORE.INTER>
-29.4771

>  <SCORE.INTER.CONST>
1

>  <SCORE.INTER.POLAR>
-2.43191

>  <SCORE.INTER.ROT>
5

>  <SCORE.INTER.SOLV>
11.5832

>  <SCORE.INTER.VDW>
-22.3394

>  <SCORE.INTER.norm>
-1.84232

>  <SCORE.INTRA>
0.406082

>  <SCORE.INTRA.DIHEDRAL>
-0.651354

>  <SCORE.INTRA.DIHEDRAL.0>
6.87082

>  <SCORE.INTRA.POLAR>
0

>  <SCORE.INTRA.POLAR.0>
0

>  <SCORE.INTRA.REPUL>
0

>  <SCORE.INTRA.REPUL.0>
0

>  <SCORE.INTRA.SOLV>
-0.667513

>  <SCORE.INTRA.SOLV.lig_0>
-42.5944

>  <SCORE.INTRA.VDW>
1.06552

>  <SCORE.INTRA.VDW.0>
-1.067

>  <SCORE.INTRA.norm>
0.0253801

>  <SCORE.RESTR>
0

>  <SCORE.RESTR.CAVITY>
0

>  <SCORE.RESTR.norm>
0

>  <SCORE.SYSTEM>
0

>  <SCORE.SYSTEM.CONST>
0

>  <SCORE.SYSTEM.DIHEDRAL>
0

>  <SCORE.SYSTEM.SOLV>
0

>  <SCORE.SYSTEM.norm>
0

>  <SCORE.heavy>
16

>  <SCORE.norm>
-1.81694

>  <RMSD>
1.447

$$$$
1f27 biotin aptamer (Xray 1.3A)
 OpenBabel11021811393D
libRbt.so/2013.1/901 2013/11/27
 16 17  0  0  0  0  0  0  0  0999 V2000
   20.3967   -1.4404   12.9483 C   0  0  0  0  0  0  0  0  0  0  0  0
   20.6770   -1.5244   14.1398 O   0  5  0  0  0  0  0  0  0  0  0  0
   20.1505   -2.4590   12.3046 O   0  0  0  0  0  0  0  0  0  0  0  0
   20.2864   -0.0744   12.2833 C   0  0  0  0  0  0  0  0  0  0  0  0
   19.6451    1.0093   13.1785 C   0  0  0  0  0  0  0  0  0  0  0  0
   18.1315    0.9002   13.1936 C   0  0  0  0  0  0  0  0  0  0  0  0
   17.4633    1.8902   14.1247 C   0  0  0  0  0  0  0  0  0  0  0  0
   15.9431    1.7273   14.2540 C   0  0  2  0  0  0  0  0  0  0  0  0
   15.2221    0.0725   13.6158 S   0  0  0  0  0  0  0  0  0  0  0  0
   13.5100    0.9133   13.6980 C   0  0  0  0  0  0  0  0  0  0  0  0
   13.7695    2.3957   13.3001 C   0  0  2  0  0  0  0  0  0  0  0  0
   13.5878    2.4535   11.7597 N   0  0  0  0  0  0  0  0  0  0  0  0
   14.6225    2.8391   11.1482 C   0  0  0  0  0  0  0  0  0  0  0  0
   14.8886    2.8523    9.8941 O   0  0  0  0  0  0  0  0  0  0  0  0
   15.7804    2.9828   12.0002 N   0  0  0  0  0  0  0  0  0  0  0  0
   15.2318    2.7903   13.4137 C   0  0  2  0  0  0  0  0  0  0  0  0
  1  2  1  0  0  0  0
  1  3  2  0  0  0  0
  1  4  1  0  0  0  0
  4  5  1  0  0  0  0
  5  6  1  0  0  0  0
  6  7  1  0  0  0  0
  8  7  1  6  0  0  0
  8  9  1  0  0  0  0
  8 16  1  0  0  0  0
  9 10  1  0  0  0  0
 11 10  1  6  0  0  0
 11 12  1  0  0  0  0
 11 16  1  0  0  0  0
 12 13  1  0  0  0  0
 13 14  2  0  0  0  0
 13 15  1  0  0  0  0
 16 15  1  6  0  0  0
M  CHG  1   2  -1
M  END
>  <CHROM.1>
-37.90470930,-80.05677069,176.50528523,-175.03935523,15.45119764,16.74911574
0.97675732,12.86101695,-0.41358839,0.34617410,-0.89408204

>  <Name>
1f27 biotin aptamer (Xray 1.3A)

>  <RI>
0

>  <Rbt.Current_Directory>
/home/itssahil/PROJECTS/Mol_Feturizer/New_Systems/rnas/1f27

>  <Rbt.Executable>
rbdock ($Id: //depot/dev/client3/rdock/2013.1/src/exe/rbdock.cxx#4 $)

>  <Rbt.Library>
libRbt.so (2013.1, Build901 2013/11/27)

>  <Rbt.Parameter_File>
/export/apps/rDock/src/rDock_2013.1_src/data/scripts/dock_solv.prm

>  <Rbt.Receptor>
prm/pocket_docking_2.prm

>  <SCORE>
-27.9351

>  <SCORE.INTER>
-29.2417

>  <SCORE.INTER.CONST>
1

>  <SCORE.INTER.POLAR>
-1.81879

>  <SCORE.INTER.ROT>
5

>  <SCORE.INTER.SOLV>
9.47468

>  <SCORE.INTER.VDW>
-23.5234

>  <SCORE.INTER.norm>
-1.82761

>  <SCORE.INTRA>
1.28747

>  <SCORE.INTRA.DIHEDRAL>
1.01472

>  <SCORE.INTRA.DIHEDRAL.0>
6.87082

>  <SCORE.INTRA.POLAR>
0

>  <SCORE.INTRA.POLAR.0>
0

>  <SCORE.INTRA.REPUL>
0

>  <SCORE.INTRA.REPUL.0>
0

>  <SCORE.INTRA.SOLV>
0.263493

>  <SCORE.INTRA.SOLV.lig_0>
-42.5944

>  <SCORE.INTRA.VDW>
0.648362

>  <SCORE.INTRA.VDW.0>
-1.067

>  <SCORE.INTRA.norm>
0.0804669

>  <SCORE.RESTR>
0.0191854

>  <SCORE.RESTR.CAVITY>
0.0191854

>  <SCORE.RESTR.norm>
0.00119909

>  <SCORE.SYSTEM>
0

>  <SCORE.SYSTEM.CONST>
0

>  <SCORE.SYSTEM.DIHEDRAL>
0

>  <SCORE.SYSTEM.SOLV>
0

>  <SCORE.SYSTEM.norm>
0

>  <SCORE.heavy>
16

>  <SCORE.norm>
-1.74594

>  <RMSD>
1.451

$$$$
1f27 biotin aptamer (Xray 1.3A)
 OpenBabel11021811393D
libRbt.so/2013.1/901 2013/11/27
 16 17  0  0  0  0  0  0  0  0999 V2000
   21.1209   -0.5922   13.2119 C   0  0  0  0  0  0  0  0  0  0  0  0
   21.8739   -0.5444   12.2444 O   0  5  0  0  0  0  0  0  0  0  0  0
   20.3064   -1.5086   13.3084 O   0  0  0  0  0  0  0  0  0  0  0  0
   21.2396    0.4410   14.3250 C   0  0  0  0  0  0  0  0  0  0  0  0
   20.2622    1.6293   14.1850 C   0  0  0  0  0  0  0  0  0  0  0  0
   18.8231    1.1999   14.4030 C   0  0  0  0  0  0  0  0  0  0  0  0
   17.8100    2.2385   13.9687 C   0  0  0  0  0  0  0  0  0  0  0  0
   16.3450    1.8433   14.1964 C   0  0  2  0  0  0  0  0  0  0  0  0
   15.8205    0.1391   13.4993 S   0  0  0  0  0  0  0  0  0  0  0  0
   14.0175    0.7087   13.7634 C   0  0  0  0  0  0  0  0  0  0  0  0
   14.0269    2.2337   13.4513 C   0  0  2  0  0  0  0  0  0  0  0  0
   13.7130    2.3527   11.9359 N   0  0  0  0  0  0  0  0  0  0  0  0
   14.6275    2.9231   11.2790 C   0  0  0  0  0  0  0  0  0  0  0  0
   14.7853    3.0482   10.0128 O   0  0  0  0  0  0  0  0  0  0  0  0
   15.8186    3.1886   12.0526 N   0  0  0  0  0  0  0  0  0  0  0  0
   15.4213    2.8350   13.4855 C   0  0  2  0  0  0  0  0  0  0  0  0
  1  2  1  0  0  0  0
  1  3  2  0  0  0  0
  1  4  1  0  0  0  0
  4  5  1  0  0  0  0
  5  6  1  0  0  0  0
  6  7  1  0  0  0  0
  8  7  1  6  0  0  0
  8  9  1  0  0  0  0
  8 16  1  0  0  0  0
  9 10  1  0  0  0  0
 11 10  1  6  0  0  0
 11 12  1  0  0  0  0
 11 16  1  0  0  0  0
 12 13  1  0  0  0  0
 13 14  2  0  0  0  0
 13 15  1  0  0  0  0
 16 15  1  6  0  0  0
M  CHG  1   2  -1
M  END
>  <CHROM.1>
96.02928297,68.52633311,-166.70059628,-179.08739040,-51.70728524,17.18102519
1.26902757,13.07749213,-0.36072653,0.18862882,-0.91998578

>  <Name>
1f27 biotin aptamer (Xray 1.3A)

>  <RI>
0

>  <Rbt.Current_Directory>
/home/itssahil/PROJECTS/Mol_Feturizer/New_Systems/rnas/1f27

>  <Rbt.Executable>
rbdock ($Id: //depot/dev/client3/rdock/2013.1/src/exe/rbdock.cxx#4 $)

>  <Rbt.Library>
libRbt.so (2013.1, Build901 2013/11/27)

>  <Rbt.Parameter_File>
/export/apps/rDock/src/rDock_2013.1_src/data/scripts/dock_solv.prm

>  <Rbt.Receptor>
prm/pocket_docking_6.prm

>  <SCORE>
-35.3723

>  <SCORE.INTER>
-33.3509

>  <SCORE.INTER.CONST>
1

>  <SCORE.INTER.POLAR>
-2.71687

>  <SCORE.INTER.ROT>
5

>  <SCORE.INTER.SOLV>
12.5388

>  <SCORE.INTER.VDW>
-24.2906

>  <SCORE.INTER.norm>
-2.08443

>  <SCORE.INTRA>
-2.02141

>  <SCORE.INTRA.DIHEDRAL>
-4.1422

>  <SCORE.INTRA.DIHEDRAL.0>
6.87082

>  <SCORE.INTRA.POLAR>
0

>  <SCORE.INTRA.POLAR.0>
0

>  <SCORE.INTRA.REPUL>
0

>  <SCORE.INTRA.REPUL.0>
0

>  <SCORE.INTRA.SOLV>
0.141021

>  <SCORE.INTRA.SOLV.lig_0>
-42.5944

>  <SCORE.INTRA.VDW>
-0.020826

>  <SCORE.INTRA.VDW.0>
-1.067

>  <SCORE.INTRA.norm>
-0.126338

>  <SCORE.RESTR>
0

>  <SCORE.RESTR.CAVITY>
0

>  <SCORE.RESTR.norm>
0

>  <SCORE.SYSTEM>
0

>  <SCORE.SYSTEM.CONST>
0

>  <SCORE.SYSTEM.DIHEDRAL>
0

>  <SCORE.SYSTEM.SOLV>
0

>  <SCORE.SYSTEM.norm>
0

>  <SCORE.heavy>
16

>  <SCORE.norm>
-2.21077

>  <RMSD>
1.453

$$$$
1f27 biotin aptamer (Xray 1.3A)
 OpenBabel11021811393D
libRbt.so/2013.1/901 2013/11/27
 16 17  0  0  0  0  0  0  0  0999 V2000
   20.4252   -1.6811   13.4780 C   0  0  0  0  0  0  0  0  0  0  0  0
   21.1183   -2.1469   12.5791 O   0  5  0  0  0  0  0  0  0  0  0  0
   19.8199   -2.4358   14.2373 O   0  0  0  0  0  0  0  0  0  0  0  0
   20.3681   -0.1747   13.6969 C   0  0  0  0  0  0  0  0  0  0  0  0
   19.0327    0.4719   13.2657 C   0  0  0  0  0  0  0  0  0  0  0  0
   19.0049    1.9579   13.5719 C   0  0  0  0  0  0  0  0  0  0  0  0
   17.7357    2.6458   13.1142 C   0  0  0  0  0  0  0  0  0  0  0  0
   16.4736    2.2525   13.8932 C   0  0  2  0  0  0  0  0  0  0  0  0
   15.8080    0.4865   13.5706 S   0  0  0  0  0  0  0  0  0  0  0  0
   14.2017    1.0530   14.4330 C   0  0  0  0  0  0  0  0  0  0  0  0
   14.0283    2.5446   14.0227 C   0  0  2  0  0  0  0  0  0  0  0  0
   13.1790    2.5253   12.7237 N   0  0  0  0  0  0  0  0  0  0  0  0
   13.7648    3.0478   11.7353 C   0  0  0  0  0  0  0  0  0  0  0  0
   13.4446    3.0630   10.4939 O   0  0  0  0  0  0  0  0  0  0  0  0
   15.1427    3.3964   11.9952 N   0  0  0  0  0  0  0  0  0  0  0  0
   15.3109    3.1652   13.4966 C   0  0  2  0  0  0  0  0  0  0  0  0
  1  2  1  0  0  0  0
  1  3  2  0  0  0  0
  1  4  1  0  0  0  0
  4  5  1  0  0  0  0
  5  6  1  0  0  0  0
  6  7  1  0  0  0  0
  8  7  1  6  0  0  0
  8  9  1  0  0  0  0
  8 16  1  0  0  0  0
  9 10  1  0  0  0  0
 11 10  1  6  0  0  0
 11 12  1  0  0  0  0
 11 16  1  0  0  0  0
 12 13  1  0  0  0  0
 13 14  2  0  0  0  0
 13 15  1  0  0  0  0
 16 15  1  6  0  0  0
M  CHG  1   2  -1
M  END
>  <CHROM.1>
107.58541567,177.05824308,177.63519481,68.80805655,-71.43952214,16.75345023
1.16601016,13.14984532,0.56792814,-0.15621000,2.66015653

>  <Name>
1f27 biotin aptamer (Xray 1.3A)

>  <RI>
0

>  <Rbt.Current_Directory>
/home/itssahil/PROJECTS/Mol_Feturizer/New_Systems/rnas/1f27

>  <Rbt.Executable>
rbdock ($Id: //depot/dev/client3/rdock/2013.1/src/exe/rbdock.cxx#4 $)

>  <Rbt.Library>
libRbt.so (2013.1, Build901 2013/11/27)

>  <Rbt.Parameter_File>
/export/apps/rDock/src/rDock_2013.1_src/data/scripts/dock_solv.prm

>  <Rbt.Receptor>
prm/pocket_docking_2.prm

>  <SCORE>
-25.5189

>  <SCORE.INTER>
-22.964

>  <SCORE.INTER.CONST>
1

>  <SCORE.INTER.POLAR>
-0.848528

>  <SCORE.INTER.ROT>
5

>  <SCORE.INTER.SOLV>
6.62772

>  <SCORE.INTER.VDW>
-21.6235

>  <SCORE.INTER.norm>
-1.43525

>  <SCORE.INTRA>
-2.55483

>  <SCORE.INTRA.DIHEDRAL>
-4.5641

>  <SCORE.INTRA.DIHEDRAL.0>
6.87082

>  <SCORE.INTRA.POLAR>
0

>  <SCORE.INTRA.POLAR.0>
0

>  <SCORE.INTRA.REPUL>
0

>  <SCORE.INTRA.REPUL.0>
0

>  <SCORE.INTRA.SOLV>
-0.799772

>  <SCORE.INTRA.SOLV.lig_0>
-42.5944

>  <SCORE.INTRA.VDW>
0.127105

>  <SCORE.INTRA.VDW.0>
-1.067

>  <SCORE.INTRA.norm>
-0.159677

>  <SCORE.RESTR>
0

>  <SCORE.RESTR.CAVITY>
0

>  <SCORE.RESTR.norm>
0

>  <SCORE.SYSTEM>
0

>  <SCORE.SYSTEM.CONST>
0

>  <SCORE.SYSTEM.DIHEDRAL>
0

>  <SCORE.SYSTEM.SOLV>
0

>  <SCORE.SYSTEM.norm>
0

>  <SCORE.heavy>
16

>  <SCORE.norm>
-1.59493

>  <RMSD>
1.454

$$$$
1f27 biotin aptamer (Xray 1.3A)
 OpenBabel11021811393D
libRbt.so/2013.1/901 2013/11/27
 16 17  0  0  0  0  0  0  0  0999 V2000
   21.0007   -0.7890   12.9611 C   0  0  0  0  0  0  0  0  0  0  0  0
   21.5996   -1.6403   13.6108 O   0  5  0  0  0  0  0  0  0  0  0  0
   21.6254    0.1297   12.4337 O   0  0  0  0  0  0  0  0  0  0  0  0
   19.4966   -0.9064   12.7502 C   0  0  0  0  0  0  0  0  0  0  0  0
   18.6569   -0.0687   13.7402 C   0  0  0  0  0  0  0  0  0  0  0  0
   18.3074    1.2922   13.1668 C   0  0  0  0  0  0  0  0  0  0  0  0
   17.5529    2.1801   14.1343 C   0  0  0  0  0  0  0  0  0  0  0  0
   16.0579    1.8619   14.2681 C   0  0  2  0  0  0  0  0  0  0  0  0
   15.5080    0.1435   13.6274 S   0  0  0  0  0  0  0  0  0  0  0  0
   13.7191    0.8042   13.7177 C   0  0  0  0  0  0  0  0  0  0  0  0
   13.8238    2.3064   13.3235 C   0  0  2  0  0  0  0  0  0  0  0  0
   13.6315    2.3494   11.7839 N   0  0  0  0  0  0  0  0  0  0  0  0
   14.6190    2.8407   11.1701 C   0  0  0  0  0  0  0  0  0  0  0  0
   14.8778    2.8845    9.9152 O   0  0  0  0  0  0  0  0  0  0  0  0
   15.7592    3.1001   12.0187 N   0  0  0  0  0  0  0  0  0  0  0  0
   15.2383    2.8486   13.4335 C   0  0  2  0  0  0  0  0  0  0  0  0
  1  2  1  0  0  0  0
  1  3  2  0  0  0  0
  1  4  1  0  0  0  0
  4  5  1  0  0  0  0
  5  6  1  0  0  0  0
  6  7  1  0  0  0  0
  8  7  1  6  0  0  0
  8  9  1  0  0  0  0
  8 16  1  0  0  0  0
  9 10  1  0  0  0  0
 11 10  1  6  0  0  0
 11 12  1  0  0  0  0
 11 16  1  0  0  0  0
 12 13  1  0  0  0  0
 13 14  2  0  0  0  0
 13 15  1  0  0  0  0
 16 15  1  6  0  0  0
M  CHG  1   2  -1
M  END
>  <CHROM.1>
97.14640924,94.09833638,-176.62288335,-78.77800280,17.17541880,16.90903685
1.11237946,12.90450285,-0.35463292,0.27608798,-0.91562973

>  <Name>
1f27 biotin aptamer (Xray 1.3A)

>  <RI>
0

>  <Rbt.Current_Directory>
/home/itssahil/PROJECTS/Mol_Feturizer/New_Systems/rnas/1f27

>  <Rbt.Executable>
rbdock ($Id: //depot/dev/client3/rdock/2013.1/src/exe/rbdock.cxx#4 $)

>  <Rbt.Library>
libRbt.so (2013.1, Build901 2013/11/27)

>  <Rbt.Parameter_File>
/export/apps/rDock/src/rDock_2013.1_src/data/scripts/dock_solv.prm

>  <Rbt.Receptor>
prm/pocket_docking_8.prm

>  <SCORE>
-28.4747

>  <SCORE.INTER>
-31.1296

>  <SCORE.INTER.CONST>
1

>  <SCORE.INTER.POLAR>
-2.64059

>  <SCORE.INTER.ROT>
5

>  <SCORE.INTER.SOLV>
12.4403

>  <SCORE.INTER.VDW>
-23.0312

>  <SCORE.INTER.norm>
-1.9456

>  <SCORE.INTRA>
2.65489

>  <SCORE.INTRA.DIHEDRAL>
3.98822

>  <SCORE.INTRA.DIHEDRAL.0>
6.87082

>  <SCORE.INTRA.POLAR>
0

>  <SCORE.INTRA.POLAR.0>
0

>  <SCORE.INTRA.REPUL>
0

>  <SCORE.INTRA.REPUL.0>
0

>  <SCORE.INTRA.SOLV>
0.0910915

>  <SCORE.INTRA.SOLV.lig_0>
-42.5944

>  <SCORE.INTRA.VDW>
0.615235

>  <SCORE.INTRA.VDW.0>
-1.067

>  <SCORE.INTRA.norm>
0.165931

>  <SCORE.RESTR>
0

>  <SCORE.RESTR.CAVITY>
0

>  <SCORE.RESTR.norm>
0

>  <SCORE.SYSTEM>
0

>  <SCORE.SYSTEM.CONST>
0

>  <SCORE.SYSTEM.DIHEDRAL>
0

>  <SCORE.SYSTEM.SOLV>
0

>  <SCORE.SYSTEM.norm>
0

>  <SCORE.heavy>
16

>  <SCORE.norm>
-1.77967

>  <RMSD>
1.454

$$$$
1f27 biotin aptamer (Xray 1.3A)
 OpenBabel11021811393D
libRbt.so/2013.1/901 2013/11/27
 16 17  0  0  0  0  0  0  0  0999 V2000
   21.1640   -0.5899   13.2597 C   0  0  0  0  0  0  0  0  0  0  0  0
   21.8965   -0.5936   12.2755 O   0  5  0  0  0  0  0  0  0  0  0  0
   20.3744   -1.5158   13.4382 O   0  0  0  0  0  0  0  0  0  0  0  0
   21.2789    0.5226   14.2940 C   0  0  0  0  0  0  0  0  0  0  0  0
   20.2793    1.6815   14.0827 C   0  0  0  0  0  0  0  0  0  0  0  0
   18.8453    1.2291   14.2871 C   0  0  0  0  0  0  0  0  0  0  0  0
   17.8218    2.2934   13.9499 C   0  0  0  0  0  0  0  0  0  0  0  0
   16.3627    1.8799   14.1828 C   0  0  2  0  0  0  0  0  0  0  0  0
   15.8594    0.1653   13.4954 S   0  0  0  0  0  0  0  0  0  0  0  0
   14.0496    0.7123   13.7606 C   0  0  0  0  0  0  0  0  0  0  0  0
   14.0380    2.2356   13.4406 C   0  0  2  0  0  0  0  0  0  0  0  0
   13.7195    2.3427   11.9253 N   0  0  0  0  0  0  0  0  0  0  0  0
   14.6250    2.9218   11.2636 C   0  0  0  0  0  0  0  0  0  0  0  0
   14.7785    3.0425    9.9965 O   0  0  0  0  0  0  0  0  0  0  0  0
   15.8140    3.2070   12.0333 N   0  0  0  0  0  0  0  0  0  0  0  0
   15.4244    2.8556   13.4688 C   0  0  2  0  0  0  0  0  0  0  0  0
  1  2  1  0  0  0  0
  1  3  2  0  0  0  0
  1  4  1  0  0  0  0
  4  5  1  0  0  0  0
  5  6  1  0  0  0  0
  6  7  1  0  0  0  0
  8  7  1  6  0  0  0
  8  9  1  0  0  0  0
  8 16  1  0  0  0  0
  9 10  1  0  0  0  0
 11 10  1  6  0  0  0
 11 12  1  0  0  0  0
 11 16  1  0  0  0  0
 12 13  1  0  0  0  0
 13 14  2  0  0  0  0
 13 15  1  0  0  0  0
 16 15  1  6  0  0  0
M  CHG  1   2  -1
M  END
>  <CHROM.1>
95.44776038,65.84147188,-173.97733032,-178.39795844,-47.17995236,17.20256542
1.28487275,13.06844417,-0.37207605,0.16726227,-0.86860609

>  <Name>
1f27 biotin aptamer (Xray 1.3A)

>  <RI>
0

>  <Rbt.Current_Directory>
/home/itssahil/PROJECTS/Mol_Feturizer/New_Systems/rnas/1f27

>  <Rbt.Executable>
rbdock ($Id: //depot/dev/client3/rdock/2013.1/src/exe/rbdock.cxx#4 $)

>  <Rbt.Library>
libRbt.so (2013.1, Build901 2013/11/27)

>  <Rbt.Parameter_File>
/export/apps/rDock/src/rDock_2013.1_src/data/scripts/dock_solv.prm

>  <Rbt.Receptor>
prm/pocket_docking_6.prm

>  <SCORE>
-35.3872

>  <SCORE.INTER>
-33.3022

>  <SCORE.INTER.CONST>
1

>  <SCORE.INTER.POLAR>
-2.6761

>  <SCORE.INTER.ROT>
5

>  <SCORE.INTER.SOLV>
12.248

>  <SCORE.INTER.VDW>
-24.2972

>  <SCORE.INTER.norm>
-2.08139

>  <SCORE.INTRA>
-2.08492

>  <SCORE.INTRA.DIHEDRAL>
-4.4668

>  <SCORE.INTRA.DIHEDRAL.0>
6.87082

>  <SCORE.INTRA.POLAR>
0

>  <SCORE.INTRA.POLAR.0>
0

>  <SCORE.INTRA.REPUL>
0

>  <SCORE.INTRA.REPUL.0>
0

>  <SCORE.INTRA.SOLV>
0.152015

>  <SCORE.INTRA.SOLV.lig_0>
-42.5944

>  <SCORE.INTRA.VDW>
0.0724689

>  <SCORE.INTRA.VDW.0>
-1.067

>  <SCORE.INTRA.norm>
-0.130308

>  <SCORE.RESTR>
0

>  <SCORE.RESTR.CAVITY>
0

>  <SCORE.RESTR.norm>
0

>  <SCORE.SYSTEM>
0

>  <SCORE.SYSTEM.CONST>
0

>  <SCORE.SYSTEM.DIHEDRAL>
0

>  <SCORE.SYSTEM.SOLV>
0

>  <SCORE.SYSTEM.norm>
0

>  <SCORE.heavy>
16

>  <SCORE.norm>
-2.2117

>  <RMSD>
1.457

$$$$
1f27 biotin aptamer (Xray 1.3A)
 OpenBabel11021811393D
libRbt.so/2013.1/901 2013/11/27
 16 17  0  0  0  0  0  0  0  0999 V2000
   21.1627   -0.6081   13.1128 C   0  0  0  0  0  0  0  0  0  0  0  0
   21.9391   -0.6231   12.1629 O   0  5  0  0  0  0  0  0  0  0  0  0
   20.3414   -1.5138   13.2459 O   0  0  0  0  0  0  0  0  0  0  0  0
   21.2599    0.4916   14.1624 C   0  0  0  0  0  0  0  0  0  0  0  0
   20.2654    1.6542   13.9471 C   0  0  0  0  0  0  0  0  0  0  0  0
   18.8424    1.2429   14.2769 C   0  0  0  0  0  0  0  0  0  0  0  0
   17.8140    2.3037   13.9442 C   0  0  0  0  0  0  0  0  0  0  0  0
   16.3572    1.8855   14.1834 C   0  0  2  0  0  0  0  0  0  0  0  0
   15.8582    0.1667   13.5034 S   0  0  0  0  0  0  0  0  0  0  0  0
   14.0472    0.7077   13.7730 C   0  0  0  0  0  0  0  0  0  0  0  0
   14.0287    2.2299   13.4481 C   0  0  2  0  0  0  0  0  0  0  0  0
   13.7046    2.3308   11.9335 N   0  0  0  0  0  0  0  0  0  0  0  0
   14.6056    2.9111   11.2668 C   0  0  0  0  0  0  0  0  0  0  0  0
   14.7543    3.0283    9.9988 O   0  0  0  0  0  0  0  0  0  0  0  0
   15.7961    3.2035   12.0315 N   0  0  0  0  0  0  0  0  0  0  0  0
   15.4128    2.8552   13.4695 C   0  0  2  0  0  0  0  0  0  0  0  0
  1  2  1  0  0  0  0
  1  3  2  0  0  0  0
  1  4  1  0  0  0  0
  4  5  1  0  0  0  0
  5  6  1  0  0  0  0
  6  7  1  0  0  0  0
  8  7  1  6  0  0  0
  8  9  1  0  0  0  0
  8 16  1  0  0  0  0
  9 10  1  0  0  0  0
 11 10  1  6  0  0  0
 11 12  1  0  0  0  0
 11 16  1  0  0  0  0
 12 13  1  0  0  0  0
 13 14  2  0  0  0  0
 13 15  1  0  0  0  0
 16 15  1  6  0  0  0
M  CHG  1   2  -1
M  END
>  <CHROM.1>
97.61605665,72.47356569,-173.99127605,176.32965643,-46.98477213,17.19430792
1.27767523,13.02777164,-0.34713393,0.19780960,-0.90766401

>  <Name>
1f27 biotin aptamer (Xray 1.3A)

>  <RI>
0

>  <Rbt.Current_Directory>
/home/itssahil/PROJECTS/Mol_Feturizer/New_Systems/rnas/1f27

>  <Rbt.Executable>
rbdock ($Id: //depot/dev/client3/rdock/2013.1/src/exe/rbdock.cxx#4 $)

>  <Rbt.Library>
libRbt.so (2013.1, Build901 2013/11/27)

>  <Rbt.Parameter_File>
/export/apps/rDock/src/rDock_2013.1_src/data/scripts/dock_solv.prm

>  <Rbt.Receptor>
prm/pocket_docking_6.prm

>  <SCORE>
-35.2395

>  <SCORE.INTER>
-33.2859

>  <SCORE.INTER.CONST>
1

>  <SCORE.INTER.POLAR>
-2.73448

>  <SCORE.INTER.ROT>
5

>  <SCORE.INTER.SOLV>
12.6819

>  <SCORE.INTER.VDW>
-24.2363

>  <SCORE.INTER.norm>
-2.08037

>  <SCORE.INTRA>
-1.95359

>  <SCORE.INTRA.DIHEDRAL>
-3.97804

>  <SCORE.INTRA.DIHEDRAL.0>
6.87082

>  <SCORE.INTRA.POLAR>
0

>  <SCORE.INTRA.POLAR.0>
0

>  <SCORE.INTRA.REPUL>
0

>  <SCORE.INTRA.REPUL.0>
0

>  <SCORE.INTRA.SOLV>
0.070838

>  <SCORE.INTRA.SOLV.lig_0>
-42.5944

>  <SCORE.INTRA.VDW>
1.42268e-05

>  <SCORE.INTRA.VDW.0>
-1.067

>  <SCORE.INTRA.norm>
-0.122099

>  <SCORE.RESTR>
0

>  <SCORE.RESTR.CAVITY>
0

>  <SCORE.RESTR.norm>
0

>  <SCORE.SYSTEM>
0

>  <SCORE.SYSTEM.CONST>
0

>  <SCORE.SYSTEM.DIHEDRAL>
0

>  <SCORE.SYSTEM.SOLV>
0

>  <SCORE.SYSTEM.norm>
0

>  <SCORE.heavy>
16

>  <SCORE.norm>
-2.20247

>  <RMSD>
1.458

$$$$
1f27 biotin aptamer (Xray 1.3A)
 OpenBabel11021811393D
libRbt.so/2013.1/901 2013/11/27
 16 17  0  0  0  0  0  0  0  0999 V2000
   21.1243   -0.5757   13.3187 C   0  0  0  0  0  0  0  0  0  0  0  0
   21.9011   -0.5723   12.3690 O   0  5  0  0  0  0  0  0  0  0  0  0
   20.2834   -1.4676   13.4181 O   0  0  0  0  0  0  0  0  0  0  0  0
   21.2444    0.4821   14.4083 C   0  0  0  0  0  0  0  0  0  0  0  0
   20.2533    1.6573   14.2539 C   0  0  0  0  0  0  0  0  0  0  0  0
   18.8135    1.1981   14.3925 C   0  0  0  0  0  0  0  0  0  0  0  0
   17.8022    2.2456   13.9759 C   0  0  0  0  0  0  0  0  0  0  0  0
   16.3367    1.8508   14.2009 C   0  0  2  0  0  0  0  0  0  0  0  0
   15.8203    0.1340   13.5287 S   0  0  0  0  0  0  0  0  0  0  0  0
   14.0145    0.7038   13.7722 C   0  0  0  0  0  0  0  0  0  0  0  0
   14.0224    2.2235   13.4350 C   0  0  2  0  0  0  0  0  0  0  0  0
   13.7179    2.3167   11.9159 N   0  0  0  0  0  0  0  0  0  0  0  0
   14.6352    2.8783   11.2554 C   0  0  0  0  0  0  0  0  0  0  0  0
   14.8007    2.9829    9.9884 O   0  0  0  0  0  0  0  0  0  0  0  0
   15.8208    3.1593   12.0320 N   0  0  0  0  0  0  0  0  0  0  0  0
   15.4152    2.8285   13.4680 C   0  0  2  0  0  0  0  0  0  0  0  0
  1  2  1  0  0  0  0
  1  3  2  0  0  0  0
  1  4  1  0  0  0  0
  4  5  1  0  0  0  0
  5  6  1  0  0  0  0
  6  7  1  0  0  0  0
  8  7  1  6  0  0  0
  8  9  1  0  0  0  0
  8 16  1  0  0  0  0
  9 10  1  0  0  0  0
 11 10  1  6  0  0  0
 11 12  1  0  0  0  0
 11 16  1  0  0  0  0
 12 13  1  0  0  0  0
 13 14  2  0  0  0  0
 13 15  1  0  0  0  0
 16 15  1  6  0  0  0
M  CHG  1   2  -1
M  END
>  <CHROM.1>
98.94331368,64.20245597,-168.35236013,-175.71108249,-49.82717951,17.18088196
1.26294433,13.10430320,-0.36874109,0.17443660,-0.92462659

>  <Name>
1f27 biotin aptamer (Xray 1.3A)

>  <RI>
0

>  <Rbt.Current_Directory>
/home/itssahil/PROJECTS/Mol_Feturizer/New_Systems/rnas/1f27

>  <Rbt.Executable>
rbdock ($Id: //depot/dev/client3/rdock/2013.1/src/exe/rbdock.cxx#4 $)

>  <Rbt.Library>
libRbt.so (2013.1, Build901 2013/11/27)

>  <Rbt.Parameter_File>
/export/apps/rDock/src/rDock_2013.1_src/data/scripts/dock_solv.prm

>  <Rbt.Receptor>
prm/pocket_docking_3.prm

>  <SCORE>
-35.1458

>  <SCORE.INTER>
-33.2005

>  <SCORE.INTER.CONST>
1

>  <SCORE.INTER.POLAR>
-2.6512

>  <SCORE.INTER.ROT>
5

>  <SCORE.INTER.SOLV>
12.2255

>  <SCORE.INTER.VDW>
-24.3048

>  <SCORE.INTER.norm>
-2.07503

>  <SCORE.INTRA>
-1.95042

>  <SCORE.INTRA.DIHEDRAL>
-4.2974

>  <SCORE.INTRA.DIHEDRAL.0>
6.87082

>  <SCORE.INTRA.POLAR>
0

>  <SCORE.INTRA.POLAR.0>
0

>  <SCORE.INTRA.REPUL>
0

>  <SCORE.INTRA.REPUL.0>
0

>  <SCORE.INTRA.SOLV>
0.218285

>  <SCORE.INTRA.SOLV.lig_0>
-42.5944

>  <SCORE.INTRA.VDW>
0.0891397

>  <SCORE.INTRA.VDW.0>
-1.067

>  <SCORE.INTRA.norm>
-0.121901

>  <SCORE.RESTR>
0.00508277

>  <SCORE.RESTR.CAVITY>
0.00508277

>  <SCORE.RESTR.norm>
0.000317673

>  <SCORE.SYSTEM>
0

>  <SCORE.SYSTEM.CONST>
0

>  <SCORE.SYSTEM.DIHEDRAL>
0

>  <SCORE.SYSTEM.SOLV>
0

>  <SCORE.SYSTEM.norm>
0

>  <SCORE.heavy>
16

>  <SCORE.norm>
-2.19662

>  <RMSD>
1.460

$$$$
1f27 biotin aptamer (Xray 1.3A)
 OpenBabel11021811393D
libRbt.so/2013.1/901 2013/11/27
 16 17  0  0  0  0  0  0  0  0999 V2000
   21.1841   -0.8416   14.5225 C   0  0  0  0  0  0  0  0  0  0  0  0
   20.5589   -1.6635   15.1850 O   0  5  0  0  0  0  0  0  0  0  0  0
   21.6802   -1.1728   13.4469 O   0  0  0  0  0  0  0  0  0  0  0  0
   21.2882    0.6024   14.9963 C   0  0  0  0  0  0  0  0  0  0  0  0
   20.3077    1.5662   14.2916 C   0  0  0  0  0  0  0  0  0  0  0  0
   18.8622    1.1873   14.5557 C   0  0  0  0  0  0  0  0  0  0  0  0
   17.8638    2.1388   13.9300 C   0  0  0  0  0  0  0  0  0  0  0  0
   16.3921    1.7734   14.1646 C   0  0  2  0  0  0  0  0  0  0  0  0
   15.8383    0.0655   13.4997 S   0  0  0  0  0  0  0  0  0  0  0  0
   14.0454    0.6712   13.7522 C   0  0  0  0  0  0  0  0  0  0  0  0
   14.0812    2.1896   13.4112 C   0  0  2  0  0  0  0  0  0  0  0  0
   13.7696    2.2852   11.8937 N   0  0  0  0  0  0  0  0  0  0  0  0
   14.6939    2.8271   11.2265 C   0  0  0  0  0  0  0  0  0  0  0  0
   14.8539    2.9255    9.9583 O   0  0  0  0  0  0  0  0  0  0  0  0
   15.8893    3.0866   11.9955 N   0  0  0  0  0  0  0  0  0  0  0  0
   15.4858    2.7672   13.4347 C   0  0  2  0  0  0  0  0  0  0  0  0
  1  2  1  0  0  0  0
  1  3  2  0  0  0  0
  1  4  1  0  0  0  0
  4  5  1  0  0  0  0
  5  6  1  0  0  0  0
  6  7  1  0  0  0  0
  8  7  1  6  0  0  0
  8  9  1  0  0  0  0
  8 16  1  0  0  0  0
  9 10  1  0  0  0  0
 11 10  1  6  0  0  0
 11 12  1  0  0  0  0
 11 16  1  0  0  0  0
 12 13  1  0  0  0  0
 13 14  2  0  0  0  0
 13 15  1  0  0  0  0
 16 15  1  6  0  0  0
M  CHG  1   2  -1
M  END
>  <CHROM.1>
-99.98020896,62.07738793,177.65077198,179.28955044,-59.89993420,17.22726279
1.15946611,13.37663105,0.51684956,0.02814710,2.45584334

>  <Name>
1f27 biotin aptamer (Xray 1.3A)

>  <RI>
0

>  <Rbt.Current_Directory>
/home/itssahil/PROJECTS/Mol_Feturizer/New_Systems/rnas/1f27

>  <Rbt.Executable>
rbdock ($Id: //depot/dev/client3/rdock/2013.1/src/exe/rbdock.cxx#4 $)

>  <Rbt.Library>
libRbt.so (2013.1, Build901 2013/11/27)

>  <Rbt.Parameter_File>
/export/apps/rDock/src/rDock_2013.1_src/data/scripts/dock_solv.prm

>  <Rbt.Receptor>
prm/pocket_docking_4.prm

>  <SCORE>
-32.0783

>  <SCORE.INTER>
-29.4355

>  <SCORE.INTER.CONST>
1

>  <SCORE.INTER.POLAR>
-1.79145

>  <SCORE.INTER.ROT>
5

>  <SCORE.INTER.SOLV>
9.46213

>  <SCORE.INTER.VDW>
-23.7396

>  <SCORE.INTER.norm>
-1.83972

>  <SCORE.INTRA>
-2.64279

>  <SCORE.INTRA.DIHEDRAL>
-5.55159

>  <SCORE.INTRA.DIHEDRAL.0>
6.87082

>  <SCORE.INTRA.POLAR>
0

>  <SCORE.INTRA.POLAR.0>
0

>  <SCORE.INTRA.REPUL>
0

>  <SCORE.INTRA.REPUL.0>
0

>  <SCORE.INTRA.SOLV>
0.124815

>  <SCORE.INTRA.SOLV.lig_0>
-42.5944

>  <SCORE.INTRA.VDW>
0.0705948

>  <SCORE.INTRA.VDW.0>
-1.067

>  <SCORE.INTRA.norm>
-0.165175

>  <SCORE.RESTR>
0

>  <SCORE.RESTR.CAVITY>
0

>  <SCORE.RESTR.norm>
0

>  <SCORE.SYSTEM>
0

>  <SCORE.SYSTEM.CONST>
0

>  <SCORE.SYSTEM.DIHEDRAL>
0

>  <SCORE.SYSTEM.SOLV>
0

>  <SCORE.SYSTEM.norm>
0

>  <SCORE.heavy>
16

>  <SCORE.norm>
-2.00489

>  <RMSD>
1.462

$$$$
1f27 biotin aptamer (Xray 1.3A)
 OpenBabel11021811393D
libRbt.so/2013.1/901 2013/11/27
 16 17  0  0  0  0  0  0  0  0999 V2000
   21.1927   -0.6043   13.2679 C   0  0  0  0  0  0  0  0  0  0  0  0
   20.3804   -1.5120   13.4143 O   0  5  0  0  0  0  0  0  0  0  0  0
   21.8894   -0.5643   12.2552 O   0  0  0  0  0  0  0  0  0  0  0  0
   21.2909    0.5083   14.3038 C   0  0  0  0  0  0  0  0  0  0  0  0
   20.2913    1.6647   14.0793 C   0  0  0  0  0  0  0  0  0  0  0  0
   18.8569    1.2134   14.2839 C   0  0  0  0  0  0  0  0  0  0  0  0
   17.8335    2.2698   13.9233 C   0  0  0  0  0  0  0  0  0  0  0  0
   16.3741    1.8600   14.1611 C   0  0  2  0  0  0  0  0  0  0  0  0
   15.8615    0.1511   13.4663 S   0  0  0  0  0  0  0  0  0  0  0  0
   14.0549    0.7028   13.7439 C   0  0  0  0  0  0  0  0  0  0  0  0
   14.0470    2.2280   13.4330 C   0  0  2  0  0  0  0  0  0  0  0  0
   13.7211    2.3450   11.9199 N   0  0  0  0  0  0  0  0  0  0  0  0
   14.6252    2.9249   11.2570 C   0  0  0  0  0  0  0  0  0  0  0  0
   14.7727    3.0526    9.9898 O   0  0  0  0  0  0  0  0  0  0  0  0
   15.8191    3.2016   12.0223 N   0  0  0  0  0  0  0  0  0  0  0  0
   15.4356    2.8430   13.4577 C   0  0  2  0  0  0  0  0  0  0  0  0
  1  2  1  0  0  0  0
  1  3  2  0  0  0  0
  1  4  1  0  0  0  0
  4  5  1  0  0  0  0
  5  6  1  0  0  0  0
  6  7  1  0  0  0  0
  8  7  1  6  0  0  0
  8  9  1  0  0  0  0
  8 16  1  0  0  0  0
  9 10  1  0  0  0  0
 11 10  1  6  0  0  0
 11 12  1  0  0  0  0
 11 16  1  0  0  0  0
 12 13  1  0  0  0  0
 13 14  2  0  0  0  0
 13 15  1  0  0  0  0
 16 15  1  6  0  0  0
M  CHG  1   2  -1
M  END
>  <CHROM.1>
-85.57036952,66.65918539,-173.48795276,-178.15432117,-48.74114486,17.20890985
1.27837421,13.05585877,-0.37370023,0.16265345,-0.86115946

>  <Name>
1f27 biotin aptamer (Xray 1.3A)

>  <RI>
0

>  <Rbt.Current_Directory>
/home/itssahil/PROJECTS/Mol_Feturizer/New_Systems/rnas/1f27

>  <Rbt.Executable>
rbdock ($Id: //depot/dev/client3/rdock/2013.1/src/exe/rbdock.cxx#4 $)

>  <Rbt.Library>
libRbt.so (2013.1, Build901 2013/11/27)

>  <Rbt.Parameter_File>
/export/apps/rDock/src/rDock_2013.1_src/data/scripts/dock_solv.prm

>  <Rbt.Receptor>
prm/pocket_docking_8.prm

>  <SCORE>
-35.4633

>  <SCORE.INTER>
-33.235

>  <SCORE.INTER.CONST>
1

>  <SCORE.INTER.POLAR>
-2.68755

>  <SCORE.INTER.ROT>
5

>  <SCORE.INTER.SOLV>
12.3242

>  <SCORE.INTER.VDW>
-24.2395

>  <SCORE.INTER.norm>
-2.07719

>  <SCORE.INTRA>
-2.2283

>  <SCORE.INTRA.DIHEDRAL>
-4.752

>  <SCORE.INTRA.DIHEDRAL.0>
6.87082

>  <SCORE.INTRA.POLAR>
0

>  <SCORE.INTRA.POLAR.0>
0

>  <SCORE.INTRA.REPUL>
0

>  <SCORE.INTRA.REPUL.0>
0

>  <SCORE.INTRA.SOLV>
0.195868

>  <SCORE.INTRA.SOLV.lig_0>
-42.5944

>  <SCORE.INTRA.VDW>
0.0497686

>  <SCORE.INTRA.VDW.0>
-1.067

>  <SCORE.INTRA.norm>
-0.139269

>  <SCORE.RESTR>
0

>  <SCORE.RESTR.CAVITY>
0

>  <SCORE.RESTR.norm>
0

>  <SCORE.SYSTEM>
0

>  <SCORE.SYSTEM.CONST>
0

>  <SCORE.SYSTEM.DIHEDRAL>
0

>  <SCORE.SYSTEM.SOLV>
0

>  <SCORE.SYSTEM.norm>
0

>  <SCORE.heavy>
16

>  <SCORE.norm>
-2.21645

>  <RMSD>
1.466

$$$$
1f27 biotin aptamer (Xray 1.3A)
 OpenBabel11021811393D
libRbt.so/2013.1/901 2013/11/27
 16 17  0  0  0  0  0  0  0  0999 V2000
   21.1828   -0.6178   13.2808 C   0  0  0  0  0  0  0  0  0  0  0  0
   20.3697   -1.5280   13.4066 O   0  5  0  0  0  0  0  0  0  0  0  0
   21.8911   -0.5647   12.2769 O   0  0  0  0  0  0  0  0  0  0  0  0
   21.2681    0.4818   14.3316 C   0  0  0  0  0  0  0  0  0  0  0  0
   20.2823    1.6487   14.1001 C   0  0  0  0  0  0  0  0  0  0  0  0
   18.8471    1.2299   14.3598 C   0  0  0  0  0  0  0  0  0  0  0  0
   17.8297    2.2778   13.9591 C   0  0  0  0  0  0  0  0  0  0  0  0
   16.3671    1.8782   14.1948 C   0  0  2  0  0  0  0  0  0  0  0  0
   15.8541    0.1556   13.5351 S   0  0  0  0  0  0  0  0  0  0  0  0
   14.0473    0.7192   13.7858 C   0  0  0  0  0  0  0  0  0  0  0  0
   14.0470    2.2370   13.4401 C   0  0  2  0  0  0  0  0  0  0  0  0
   13.7333    2.3204   11.9223 N   0  0  0  0  0  0  0  0  0  0  0  0
   14.6445    2.8822   11.2535 C   0  0  0  0  0  0  0  0  0  0  0  0
   14.8023    2.9804    9.9849 O   0  0  0  0  0  0  0  0  0  0  0  0
   15.8333    3.1724   12.0216 N   0  0  0  0  0  0  0  0  0  0  0  0
   15.4374    2.8479   13.4618 C   0  0  2  0  0  0  0  0  0  0  0  0
  1  2  1  0  0  0  0
  1  3  2  0  0  0  0
  1  4  1  0  0  0  0
  4  5  1  0  0  0  0
  5  6  1  0  0  0  0
  6  7  1  0  0  0  0
  8  7  1  6  0  0  0
  8  9  1  0  0  0  0
  8 16  1  0  0  0  0
  9 10  1  0  0  0  0
 11 10  1  6  0  0  0
 11 12  1  0  0  0  0
 11 16  1  0  0  0  0
 12 13  1  0  0  0  0
 13 14  2  0  0  0  0
 13 15  1  0  0  0  0
 16 15  1  6  0  0  0
M  CHG  1   2  -1
M  END
>  <CHROM.1>
-86.30242703,70.45529308,-171.83606978,179.35396011,-49.10243628,17.20809165
1.26858327,13.08013666,-0.36282236,0.18466280,-0.92179474

>  <Name>
1f27 biotin aptamer (Xray 1.3A)

>  <RI>
0

>  <Rbt.Current_Directory>
/home/itssahil/PROJECTS/Mol_Feturizer/New_Systems/rnas/1f27

>  <Rbt.Executable>
rbdock ($Id: //depot/dev/client3/rdock/2013.1/src/exe/rbdock.cxx#4 $)

>  <Rbt.Library>
libRbt.so (2013.1, Build901 2013/11/27)

>  <Rbt.Parameter_File>
/export/apps/rDock/src/rDock_2013.1_src/data/scripts/dock_solv.prm

>  <Rbt.Receptor>
prm/pocket_docking_4.prm

>  <SCORE>
-35.4558

>  <SCORE.INTER>
-33.2893

>  <SCORE.INTER.CONST>
1

>  <SCORE.INTER.POLAR>
-2.69887

>  <SCORE.INTER.ROT>
5

>  <SCORE.INTER.SOLV>
12.3751

>  <SCORE.INTER.VDW>
-24.255

>  <SCORE.INTER.norm>
-2.08058

>  <SCORE.INTRA>
-2.16652

>  <SCORE.INTRA.DIHEDRAL>
-4.46566

>  <SCORE.INTRA.DIHEDRAL.0>
6.87082

>  <SCORE.INTRA.POLAR>
0

>  <SCORE.INTRA.POLAR.0>
0

>  <SCORE.INTRA.REPUL>
0

>  <SCORE.INTRA.REPUL.0>
0

>  <SCORE.INTRA.SOLV>
0.141873

>  <SCORE.INTRA.SOLV.lig_0>
-42.5944

>  <SCORE.INTRA.VDW>
-0.00462765

>  <SCORE.INTRA.VDW.0>
-1.067

>  <SCORE.INTRA.norm>
-0.135408

>  <SCORE.RESTR>
0

>  <SCORE.RESTR.CAVITY>
0

>  <SCORE.RESTR.norm>
0

>  <SCORE.SYSTEM>
0

>  <SCORE.SYSTEM.CONST>
0

>  <SCORE.SYSTEM.DIHEDRAL>
0

>  <SCORE.SYSTEM.SOLV>
0

>  <SCORE.SYSTEM.norm>
0

>  <SCORE.heavy>
16

>  <SCORE.norm>
-2.21599

>  <RMSD>
1.468

$$$$
1f27 biotin aptamer (Xray 1.3A)
 OpenBabel11021811393D
libRbt.so/2013.1/901 2013/11/27
 16 17  0  0  0  0  0  0  0  0999 V2000
   21.0855   -1.3172   13.2002 C   0  0  0  0  0  0  0  0  0  0  0  0
   21.0876   -2.0735   12.2341 O   0  5  0  0  0  0  0  0  0  0  0  0
   22.1504   -0.9734   13.7104 O   0  0  0  0  0  0  0  0  0  0  0  0
   19.7723   -0.7504   13.7245 C   0  0  0  0  0  0  0  0  0  0  0  0
   19.5970    0.7637   13.4718 C   0  0  0  0  0  0  0  0  0  0  0  0
   18.3567    1.3064   14.1575 C   0  0  0  0  0  0  0  0  0  0  0  0
   17.0699    0.6772   13.6658 C   0  0  0  0  0  0  0  0  0  0  0  0
   15.7888    1.3215   14.2116 C   0  0  2  0  0  0  0  0  0  0  0  0
   14.1469    0.4751   13.7078 S   0  0  0  0  0  0  0  0  0  0  0  0
   13.2709    2.0562   14.3222 C   0  0  0  0  0  0  0  0  0  0  0  0
   14.2367    3.2206   13.9553 C   0  0  2  0  0  0  0  0  0  0  0  0
   13.8126    3.6846   12.5361 N   0  0  0  0  0  0  0  0  0  0  0  0
   14.7342    3.5809   11.6799 C   0  0  0  0  0  0  0  0  0  0  0  0
   14.7008    3.7115   10.4049 O   0  0  0  0  0  0  0  0  0  0  0  0
   15.9134    2.9087   12.1750 N   0  0  0  0  0  0  0  0  0  0  0  0
   15.6518    2.7470   13.6722 C   0  0  2  0  0  0  0  0  0  0  0  0
  1  2  1  0  0  0  0
  1  3  2  0  0  0  0
  1  4  1  0  0  0  0
  4  5  1  0  0  0  0
  5  6  1  0  0  0  0
  6  7  1  0  0  0  0
  8  7  1  6  0  0  0
  8  9  1  0  0  0  0
  8 16  1  0  0  0  0
  9 10  1  0  0  0  0
 11 10  1  6  0  0  0
 11 12  1  0  0  0  0
 11 16  1  0  0  0  0
 12 13  1  0  0  0  0
 13 14  2  0  0  0  0
 13 15  1  0  0  0  0
 16 15  1  6  0  0  0
M  CHG  1   2  -1
M  END
>  <CHROM.1>
-110.10453702,-173.12552036,-61.61830906,-172.85250102,-175.89323858,16.79763841
1.24905754,13.18306709,-0.40581620,0.32350883,-0.75465078

>  <Name>
1f27 biotin aptamer (Xray 1.3A)

>  <RI>
0

>  <Rbt.Current_Directory>
/home/itssahil/PROJECTS/Mol_Feturizer/New_Systems/rnas/1f27

>  <Rbt.Executable>
rbdock ($Id: //depot/dev/client3/rdock/2013.1/src/exe/rbdock.cxx#4 $)

>  <Rbt.Library>
libRbt.so (2013.1, Build901 2013/11/27)

>  <Rbt.Parameter_File>
/export/apps/rDock/src/rDock_2013.1_src/data/scripts/dock_solv.prm

>  <Rbt.Receptor>
prm/pocket_docking_8.prm

>  <SCORE>
-24.6457

>  <SCORE.INTER>
-22.6825

>  <SCORE.INTER.CONST>
1

>  <SCORE.INTER.POLAR>
-0.812356

>  <SCORE.INTER.ROT>
5

>  <SCORE.INTER.SOLV>
10.6688

>  <SCORE.INTER.VDW>
-22.9034

>  <SCORE.INTER.norm>
-1.41766

>  <SCORE.INTRA>
-1.96318

>  <SCORE.INTRA.DIHEDRAL>
-5.08337

>  <SCORE.INTRA.DIHEDRAL.0>
6.87082

>  <SCORE.INTRA.POLAR>
0

>  <SCORE.INTRA.POLAR.0>
0

>  <SCORE.INTRA.REPUL>
0

>  <SCORE.INTRA.REPUL.0>
0

>  <SCORE.INTRA.SOLV>
-0.65597

>  <SCORE.INTRA.SOLV.lig_0>
-42.5944

>  <SCORE.INTRA.VDW>
0.906491

>  <SCORE.INTRA.VDW.0>
-1.067

>  <SCORE.INTRA.norm>
-0.122699

>  <SCORE.RESTR>
0

>  <SCORE.RESTR.CAVITY>
0

>  <SCORE.RESTR.norm>
0

>  <SCORE.SYSTEM>
0

>  <SCORE.SYSTEM.CONST>
0

>  <SCORE.SYSTEM.DIHEDRAL>
0

>  <SCORE.SYSTEM.SOLV>
0

>  <SCORE.SYSTEM.norm>
0

>  <SCORE.heavy>
16

>  <SCORE.norm>
-1.54036

>  <RMSD>
1.468

$$$$
1f27 biotin aptamer (Xray 1.3A)
 OpenBabel11021811393D
libRbt.so/2013.1/901 2013/11/27
 16 17  0  0  0  0  0  0  0  0999 V2000
   20.2514   -1.4026   12.8734 C   0  0  0  0  0  0  0  0  0  0  0  0
   19.1670   -1.9625   12.9999 O   0  5  0  0  0  0  0  0  0  0  0  0
   21.2908   -2.0514   12.9791 O   0  0  0  0  0  0  0  0  0  0  0  0
   20.3108    0.0776   12.5187 C   0  0  0  0  0  0  0  0  0  0  0  0
   20.2435    1.0192   13.7418 C   0  0  0  0  0  0  0  0  0  0  0  0
   18.8843    0.9677   14.4146 C   0  0  0  0  0  0  0  0  0  0  0  0
   17.9193    2.0198   13.9090 C   0  0  0  0  0  0  0  0  0  0  0  0
   16.4387    1.7151   14.1722 C   0  0  2  0  0  0  0  0  0  0  0  0
   15.8010    0.0341   13.5138 S   0  0  0  0  0  0  0  0  0  0  0  0
   14.0404    0.7129   13.8044 C   0  0  0  0  0  0  0  0  0  0  0  0
   14.1324    2.2297   13.4671 C   0  0  2  0  0  0  0  0  0  0  0  0
   13.7946    2.3439   11.9564 N   0  0  0  0  0  0  0  0  0  0  0  0
   14.7271    2.8494   11.2722 C   0  0  0  0  0  0  0  0  0  0  0  0
   14.8655    2.9457   10.0013 O   0  0  0  0  0  0  0  0  0  0  0  0
   15.9474    3.0561   12.0176 N   0  0  0  0  0  0  0  0  0  0  0  0
   15.5600    2.7484   13.4637 C   0  0  2  0  0  0  0  0  0  0  0  0
  1  2  1  0  0  0  0
  1  3  2  0  0  0  0
  1  4  1  0  0  0  0
  4  5  1  0  0  0  0
  5  6  1  0  0  0  0
  6  7  1  0  0  0  0
  8  7  1  6  0  0  0
  8  9  1  0  0  0  0
  8 16  1  0  0  0  0
  9 10  1  0  0  0  0
 11 10  1  6  0  0  0
 11 12  1  0  0  0  0
 11 16  1  0  0  0  0
 12 13  1  0  0  0  0
 13 14  2  0  0  0  0
 13 15  1  0  0  0  0
 16 15  1  6  0  0  0
M  CHG  1   2  -1
M  END
>  <CHROM.1>
86.67491217,-67.78264567,-92.65227724,159.51292451,-55.19224676,17.01999003
0.97351442,12.95702336,-0.49688705,0.22452171,-0.67520793

>  <Name>
1f27 biotin aptamer (Xray 1.3A)

>  <RI>
0

>  <Rbt.Current_Directory>
/home/itssahil/PROJECTS/Mol_Feturizer/New_Systems/rnas/1f27

>  <Rbt.Executable>
rbdock ($Id: //depot/dev/client3/rdock/2013.1/src/exe/rbdock.cxx#4 $)

>  <Rbt.Library>
libRbt.so (2013.1, Build901 2013/11/27)

>  <Rbt.Parameter_File>
/export/apps/rDock/src/rDock_2013.1_src/data/scripts/dock_solv.prm

>  <Rbt.Receptor>
prm/pocket_docking_2.prm

>  <SCORE>
-29.4606

>  <SCORE.INTER>
-29.5172

>  <SCORE.INTER.CONST>
1

>  <SCORE.INTER.POLAR>
-1.77945

>  <SCORE.INTER.ROT>
5

>  <SCORE.INTER.SOLV>
10.08

>  <SCORE.INTER.VDW>
-24.0399

>  <SCORE.INTER.norm>
-1.84482

>  <SCORE.INTRA>
0.0565642

>  <SCORE.INTRA.DIHEDRAL>
-0.00322056

>  <SCORE.INTRA.DIHEDRAL.0>
6.87082

>  <SCORE.INTRA.POLAR>
0

>  <SCORE.INTRA.POLAR.0>
0

>  <SCORE.INTRA.REPUL>
0

>  <SCORE.INTRA.REPUL.0>
0

>  <SCORE.INTRA.SOLV>
0.618438

>  <SCORE.INTRA.SOLV.lig_0>
-42.5944

>  <SCORE.INTRA.VDW>
-0.251045

>  <SCORE.INTRA.VDW.0>
-1.067

>  <SCORE.INTRA.norm>
0.00353526

>  <SCORE.RESTR>
0

>  <SCORE.RESTR.CAVITY>
0

>  <SCORE.RESTR.norm>
0

>  <SCORE.SYSTEM>
0

>  <SCORE.SYSTEM.CONST>
0

>  <SCORE.SYSTEM.DIHEDRAL>
0

>  <SCORE.SYSTEM.SOLV>
0

>  <SCORE.SYSTEM.norm>
0

>  <SCORE.heavy>
16

>  <SCORE.norm>
-1.84129

>  <RMSD>
1.469

$$$$
1f27 biotin aptamer (Xray 1.3A)
 OpenBabel11021811393D
libRbt.so/2013.1/901 2013/11/27
 16 17  0  0  0  0  0  0  0  0999 V2000
   21.1629   -0.6037   13.2611 C   0  0  0  0  0  0  0  0  0  0  0  0
   20.3308   -1.4978   13.3779 O   0  5  0  0  0  0  0  0  0  0  0  0
   21.8832   -0.5647   12.2651 O   0  0  0  0  0  0  0  0  0  0  0  0
   21.2578    0.4945   14.3126 C   0  0  0  0  0  0  0  0  0  0  0  0
   20.2709    1.6623   14.0912 C   0  0  0  0  0  0  0  0  0  0  0  0
   18.8357    1.2388   14.3440 C   0  0  0  0  0  0  0  0  0  0  0  0
   17.8177    2.2908   13.9559 C   0  0  0  0  0  0  0  0  0  0  0  0
   16.3553    1.8866   14.1841 C   0  0  2  0  0  0  0  0  0  0  0  0
   15.8505    0.1634   13.5196 S   0  0  0  0  0  0  0  0  0  0  0  0
   14.0409    0.7213   13.7626 C   0  0  0  0  0  0  0  0  0  0  0  0
   14.0377    2.2395   13.4191 C   0  0  2  0  0  0  0  0  0  0  0  0
   13.7309    2.3242   11.8999 N   0  0  0  0  0  0  0  0  0  0  0  0
   14.6435    2.8896   11.2361 C   0  0  0  0  0  0  0  0  0  0  0  0
   14.8070    2.9901    9.9685 O   0  0  0  0  0  0  0  0  0  0  0  0
   15.8279    3.1823   12.0103 N   0  0  0  0  0  0  0  0  0  0  0  0
   15.4262    2.8546   13.4481 C   0  0  2  0  0  0  0  0  0  0  0  0
  1  2  1  0  0  0  0
  1  3  2  0  0  0  0
  1  4  1  0  0  0  0
  4  5  1  0  0  0  0
  5  6  1  0  0  0  0
  6  7  1  0  0  0  0
  8  7  1  6  0  0  0
  8  9  1  0  0  0  0
  8 16  1  0  0  0  0
  9 10  1  0  0  0  0
 11 10  1  6  0  0  0
 11 12  1  0  0  0  0
 11 16  1  0  0  0  0
 12 13  1  0  0  0  0
 13 14  2  0  0  0  0
 13 15  1  0  0  0  0
 16 15  1  6  0  0  0
M  CHG  1   2  -1
M  END
>  <CHROM.1>
-84.73420932,69.66425700,-172.00019882,179.32054327,-48.38709423,17.19865156
1.27799219,13.06397348,-0.36213161,0.18498057,-0.92462952

>  <Name>
1f27 biotin aptamer (Xray 1.3A)

>  <RI>
0

>  <Rbt.Current_Directory>
/home/itssahil/PROJECTS/Mol_Feturizer/New_Systems/rnas/1f27

>  <Rbt.Executable>
rbdock ($Id: //depot/dev/client3/rdock/2013.1/src/exe/rbdock.cxx#4 $)

>  <Rbt.Library>
libRbt.so (2013.1, Build901 2013/11/27)

>  <Rbt.Parameter_File>
/export/apps/rDock/src/rDock_2013.1_src/data/scripts/dock_solv.prm

>  <Rbt.Receptor>
prm/pocket_docking_4.prm

>  <SCORE>
-35.5069

>  <SCORE.INTER>
-33.3688

>  <SCORE.INTER.CONST>
1

>  <SCORE.INTER.POLAR>
-2.7081

>  <SCORE.INTER.ROT>
5

>  <SCORE.INTER.SOLV>
12.4374

>  <SCORE.INTER.VDW>
-24.298

>  <SCORE.INTER.norm>
-2.08555

>  <SCORE.INTRA>
-2.13806

>  <SCORE.INTRA.DIHEDRAL>
-4.46929

>  <SCORE.INTRA.DIHEDRAL.0>
6.87082

>  <SCORE.INTRA.POLAR>
0

>  <SCORE.INTRA.POLAR.0>
0

>  <SCORE.INTRA.REPUL>
0

>  <SCORE.INTRA.REPUL.0>
0

>  <SCORE.INTRA.SOLV>
0.164948

>  <SCORE.INTRA.SOLV.lig_0>
-42.5944

>  <SCORE.INTRA.VDW>
0.0141121

>  <SCORE.INTRA.VDW.0>
-1.067

>  <SCORE.INTRA.norm>
-0.133629

>  <SCORE.RESTR>
0

>  <SCORE.RESTR.CAVITY>
0

>  <SCORE.RESTR.norm>
0

>  <SCORE.SYSTEM>
0

>  <SCORE.SYSTEM.CONST>
0

>  <SCORE.SYSTEM.DIHEDRAL>
0

>  <SCORE.SYSTEM.SOLV>
0

>  <SCORE.SYSTEM.norm>
0

>  <SCORE.heavy>
16

>  <SCORE.norm>
-2.21918

>  <RMSD>
1.480

$$$$
1f27 biotin aptamer (Xray 1.3A)
 OpenBabel11021811393D
libRbt.so/2013.1/901 2013/11/27
 16 17  0  0  0  0  0  0  0  0999 V2000
   20.9353   -1.0721   12.1228 C   0  0  0  0  0  0  0  0  0  0  0  0
   20.4659   -2.2001   12.0101 O   0  5  0  0  0  0  0  0  0  0  0  0
   22.1428   -0.8942   11.9719 O   0  0  0  0  0  0  0  0  0  0  0  0
   20.0172    0.1157   12.3810 C   0  0  0  0  0  0  0  0  0  0  0  0
   20.1806    0.7417   13.7841 C   0  0  0  0  0  0  0  0  0  0  0  0
   18.8500    0.8572   14.5046 C   0  0  0  0  0  0  0  0  0  0  0  0
   17.9135    1.8737   13.8853 C   0  0  0  0  0  0  0  0  0  0  0  0
   16.4241    1.6277   14.1597 C   0  0  2  0  0  0  0  0  0  0  0  0
   15.7177   -0.0307   13.5145 S   0  0  0  0  0  0  0  0  0  0  0  0
   13.9865    0.7170   13.8125 C   0  0  0  0  0  0  0  0  0  0  0  0
   14.1348    2.2274   13.4663 C   0  0  2  0  0  0  0  0  0  0  0  0
   13.7917    2.3466   11.9573 N   0  0  0  0  0  0  0  0  0  0  0  0
   14.7385    2.8122   11.2644 C   0  0  0  0  0  0  0  0  0  0  0  0
   14.8722    2.8965    9.9921 O   0  0  0  0  0  0  0  0  0  0  0  0
   15.9708    2.9755   12.0009 N   0  0  0  0  0  0  0  0  0  0  0  0
   15.5813    2.6905   13.4511 C   0  0  2  0  0  0  0  0  0  0  0  0
  1  2  1  0  0  0  0
  1  3  2  0  0  0  0
  1  4  1  0  0  0  0
  4  5  1  0  0  0  0
  5  6  1  0  0  0  0
  6  7  1  0  0  0  0
  8  7  1  6  0  0  0
  8  9  1  0  0  0  0
  8 16  1  0  0  0  0
  9 10  1  0  0  0  0
 11 10  1  6  0  0  0
 11 12  1  0  0  0  0
 11 16  1  0  0  0  0
 12 13  1  0  0  0  0
 13 14  2  0  0  0  0
 13 15  1  0  0  0  0
 16 15  1  6  0  0  0
M  CHG  1   2  -1
M  END
>  <CHROM.1>
111.72238258,-127.61378225,-68.51068054,155.33577822,-60.77242163,17.16096095
0.99561700,12.78417282,-0.19353545,0.39740334,-1.15208687

>  <Name>
1f27 biotin aptamer (Xray 1.3A)

>  <RI>
0

>  <Rbt.Current_Directory>
/home/itssahil/PROJECTS/Mol_Feturizer/New_Systems/rnas/1f27

>  <Rbt.Executable>
rbdock ($Id: //depot/dev/client3/rdock/2013.1/src/exe/rbdock.cxx#4 $)

>  <Rbt.Library>
libRbt.so (2013.1, Build901 2013/11/27)

>  <Rbt.Parameter_File>
/export/apps/rDock/src/rDock_2013.1_src/data/scripts/dock_solv.prm

>  <Rbt.Receptor>
prm/pocket_docking_8.prm

>  <SCORE>
-32.2967

>  <SCORE.INTER>
-33.3724

>  <SCORE.INTER.CONST>
1

>  <SCORE.INTER.POLAR>
-2.78416

>  <SCORE.INTER.ROT>
5

>  <SCORE.INTER.SOLV>
14.6096

>  <SCORE.INTER.VDW>
-24.7709

>  <SCORE.INTER.norm>
-2.08577

>  <SCORE.INTRA>
1.07568

>  <SCORE.INTRA.DIHEDRAL>
2.22441

>  <SCORE.INTRA.DIHEDRAL.0>
6.87082

>  <SCORE.INTRA.POLAR>
0

>  <SCORE.INTRA.POLAR.0>
0

>  <SCORE.INTRA.REPUL>
0

>  <SCORE.INTRA.REPUL.0>
0

>  <SCORE.INTRA.SOLV>
-0.609104

>  <SCORE.INTRA.SOLV.lig_0>
-42.5944

>  <SCORE.INTRA.VDW>
0.268027

>  <SCORE.INTRA.VDW.0>
-1.067

>  <SCORE.INTRA.norm>
0.0672301

>  <SCORE.RESTR>
0

>  <SCORE.RESTR.CAVITY>
0

>  <SCORE.RESTR.norm>
0

>  <SCORE.SYSTEM>
0

>  <SCORE.SYSTEM.CONST>
0

>  <SCORE.SYSTEM.DIHEDRAL>
0

>  <SCORE.SYSTEM.SOLV>
0

>  <SCORE.SYSTEM.norm>
0

>  <SCORE.heavy>
16

>  <SCORE.norm>
-2.01854

>  <RMSD>
1.482

$$$$
1f27 biotin aptamer (Xray 1.3A)
 OpenBabel11021811393D
libRbt.so/2013.1/901 2013/11/27
 16 17  0  0  0  0  0  0  0  0999 V2000
   20.7891   -1.8680   14.4819 C   0  0  0  0  0  0  0  0  0  0  0  0
   21.1096   -2.8789   15.0988 O   0  5  0  0  0  0  0  0  0  0  0  0
   21.5558   -1.3927   13.6460 O   0  0  0  0  0  0  0  0  0  0  0  0
   19.4178   -1.2416   14.7002 C   0  0  0  0  0  0  0  0  0  0  0  0
   18.4107   -1.5242   13.5631 C   0  0  0  0  0  0  0  0  0  0  0  0
   17.0811   -0.8349   13.8079 C   0  0  0  0  0  0  0  0  0  0  0  0
   17.1602    0.6756   13.7319 C   0  0  0  0  0  0  0  0  0  0  0  0
   15.8778    1.4090   14.1465 C   0  0  2  0  0  0  0  0  0  0  0  0
   14.2355    0.4987   13.7722 S   0  0  0  0  0  0  0  0  0  0  0  0
   13.3642    2.1650   14.1023 C   0  0  0  0  0  0  0  0  0  0  0  0
   14.3422    3.2462   13.5568 C   0  0  2  0  0  0  0  0  0  0  0  0
   13.9370    3.4678   12.0750 N   0  0  0  0  0  0  0  0  0  0  0  0
   14.8671    3.2171   11.2593 C   0  0  0  0  0  0  0  0  0  0  0  0
   14.8485    3.1321    9.9802 O   0  0  0  0  0  0  0  0  0  0  0  0
   16.0360    2.6313   11.8742 N   0  0  0  0  0  0  0  0  0  0  0  0
   15.7569    2.7245   13.3741 C   0  0  2  0  0  0  0  0  0  0  0  0
  1  2  1  0  0  0  0
  1  3  2  0  0  0  0
  1  4  1  0  0  0  0
  4  5  1  0  0  0  0
  5  6  1  0  0  0  0
  6  7  1  0  0  0  0
  8  7  1  6  0  0  0
  8  9  1  0  0  0  0
  8 16  1  0  0  0  0
  9 10  1  0  0  0  0
 11 10  1  6  0  0  0
 11 12  1  0  0  0  0
 11 16  1  0  0  0  0
 12 13  1  0  0  0  0
 13 14  2  0  0  0  0
 13 15  1  0  0  0  0
 16 15  1  6  0  0  0
M  CHG  1   2  -1
M  END
>  <CHROM.1>
-103.59611449,-177.88372474,67.44019274,-172.68149706,-32.00842658,16.65282361
0.78468900,13.33497054,-0.61600756,0.34011865,-0.84910860

>  <Name>
1f27 biotin aptamer (Xray 1.3A)

>  <RI>
0

>  <Rbt.Current_Directory>
/home/itssahil/PROJECTS/Mol_Feturizer/New_Systems/rnas/1f27

>  <Rbt.Executable>
rbdock ($Id: //depot/dev/client3/rdock/2013.1/src/exe/rbdock.cxx#4 $)

>  <Rbt.Library>
libRbt.so (2013.1, Build901 2013/11/27)

>  <Rbt.Parameter_File>
/export/apps/rDock/src/rDock_2013.1_src/data/scripts/dock_solv.prm

>  <Rbt.Receptor>
prm/pocket_docking_6.prm

>  <SCORE>
-25.0927

>  <SCORE.INTER>
-24.3029

>  <SCORE.INTER.CONST>
1

>  <SCORE.INTER.POLAR>
-1.26533

>  <SCORE.INTER.ROT>
5

>  <SCORE.INTER.SOLV>
8.43343

>  <SCORE.INTER.VDW>
-21.7287

>  <SCORE.INTER.norm>
-1.51893

>  <SCORE.INTRA>
-0.789773

>  <SCORE.INTRA.DIHEDRAL>
-2.47352

>  <SCORE.INTRA.DIHEDRAL.0>
6.87082

>  <SCORE.INTRA.POLAR>
0

>  <SCORE.INTRA.POLAR.0>
0

>  <SCORE.INTRA.REPUL>
0

>  <SCORE.INTRA.REPUL.0>
0

>  <SCORE.INTRA.SOLV>
-0.752108

>  <SCORE.INTRA.SOLV.lig_0>
-42.5944

>  <SCORE.INTRA.VDW>
0.823039

>  <SCORE.INTRA.VDW.0>
-1.067

>  <SCORE.INTRA.norm>
-0.0493608

>  <SCORE.RESTR>
0

>  <SCORE.RESTR.CAVITY>
0

>  <SCORE.RESTR.norm>
0

>  <SCORE.SYSTEM>
0

>  <SCORE.SYSTEM.CONST>
0

>  <SCORE.SYSTEM.DIHEDRAL>
0

>  <SCORE.SYSTEM.SOLV>
0

>  <SCORE.SYSTEM.norm>
0

>  <SCORE.heavy>
16

>  <SCORE.norm>
-1.56829

>  <RMSD>
1.483

$$$$
1f27 biotin aptamer (Xray 1.3A)
 OpenBabel11021811393D
libRbt.so/2013.1/901 2013/11/27
 16 17  0  0  0  0  0  0  0  0999 V2000
   20.9521   -0.9366   12.2607 C   0  0  0  0  0  0  0  0  0  0  0  0
   21.6489    0.0507   12.4729 O   0  5  0  0  0  0  0  0  0  0  0  0
   21.2909   -1.7520   11.4047 O   0  0  0  0  0  0  0  0  0  0  0  0
   19.7069   -1.1884   13.1013 C   0  0  0  0  0  0  0  0  0  0  0  0
   18.5883   -0.1429   12.8947 C   0  0  0  0  0  0  0  0  0  0  0  0
   18.8068    1.0889   13.7537 C   0  0  0  0  0  0  0  0  0  0  0  0
   17.7367    2.1460   13.5780 C   0  0  0  0  0  0  0  0  0  0  0  0
   16.3622    1.7715   14.1479 C   0  0  2  0  0  0  0  0  0  0  0  0
   15.5459    0.2079   13.4031 S   0  0  0  0  0  0  0  0  0  0  0  0
   13.9274    0.7931   14.2296 C   0  0  0  0  0  0  0  0  0  0  0  0
   13.9642    2.3463   14.1327 C   0  0  2  0  0  0  0  0  0  0  0  0
   13.2635    2.6988   12.7933 N   0  0  0  0  0  0  0  0  0  0  0  0
   14.0067    3.3288   11.9908 C   0  0  0  0  0  0  0  0  0  0  0  0
   13.8265    3.6345   10.7588 O   0  0  0  0  0  0  0  0  0  0  0  0
   15.3781    3.4362   12.4325 N   0  0  0  0  0  0  0  0  0  0  0  0
   15.3565    2.8882   13.8591 C   0  0  2  0  0  0  0  0  0  0  0  0
  1  2  1  0  0  0  0
  1  3  2  0  0  0  0
  1  4  1  0  0  0  0
  4  5  1  0  0  0  0
  5  6  1  0  0  0  0
  6  7  1  0  0  0  0
  8  7  1  6  0  0  0
  8  9  1  0  0  0  0
  8 16  1  0  0  0  0
  9 10  1  0  0  0  0
 11 10  1  6  0  0  0
 11 12  1  0  0  0  0
 11 16  1  0  0  0  0
 12 13  1  0  0  0  0
 13 14  2  0  0  0  0
 13 15  1  0  0  0  0
 16 15  1  6  0  0  0
M  CHG  1   2  -1
M  END
>  <CHROM.1>
66.59313539,-83.94562683,179.68254432,70.02131547,-60.11488606,16.83578176
1.18200041,12.94427902,-0.33046743,0.35531015,-0.67943585

>  <Name>
1f27 biotin aptamer (Xray 1.3A)

>  <RI>
0

>  <Rbt.Current_Directory>
/home/itssahil/PROJECTS/Mol_Feturizer/New_Systems/rnas/1f27

>  <Rbt.Executable>
rbdock ($Id: //depot/dev/client3/rdock/2013.1/src/exe/rbdock.cxx#4 $)

>  <Rbt.Library>
libRbt.so (2013.1, Build901 2013/11/27)

>  <Rbt.Parameter_File>
/export/apps/rDock/src/rDock_2013.1_src/data/scripts/dock_solv.prm

>  <Rbt.Receptor>
prm/pocket_docking_4.prm

>  <SCORE>
-27.9151

>  <SCORE.INTER>
-26.8

>  <SCORE.INTER.CONST>
1

>  <SCORE.INTER.POLAR>
-1.60001

>  <SCORE.INTER.ROT>
5

>  <SCORE.INTER.SOLV>
14.2899

>  <SCORE.INTER.VDW>
-24.2299

>  <SCORE.INTER.norm>
-1.675

>  <SCORE.INTRA>
-1.11511

>  <SCORE.INTRA.DIHEDRAL>
-3.21675

>  <SCORE.INTRA.DIHEDRAL.0>
6.87082

>  <SCORE.INTRA.POLAR>
0

>  <SCORE.INTRA.POLAR.0>
0

>  <SCORE.INTRA.REPUL>
0

>  <SCORE.INTRA.REPUL.0>
0

>  <SCORE.INTRA.SOLV>
0.049209

>  <SCORE.INTRA.SOLV.lig_0>
-42.5944

>  <SCORE.INTRA.VDW>
0.468658

>  <SCORE.INTRA.VDW.0>
-1.067

>  <SCORE.INTRA.norm>
-0.0696946

>  <SCORE.RESTR>
0

>  <SCORE.RESTR.CAVITY>
0

>  <SCORE.RESTR.norm>
0

>  <SCORE.SYSTEM>
0

>  <SCORE.SYSTEM.CONST>
0

>  <SCORE.SYSTEM.DIHEDRAL>
0

>  <SCORE.SYSTEM.SOLV>
0

>  <SCORE.SYSTEM.norm>
0

>  <SCORE.heavy>
16

>  <SCORE.norm>
-1.74469

>  <RMSD>
1.486

$$$$
1f27 biotin aptamer (Xray 1.3A)
 OpenBabel11021811393D
libRbt.so/2013.1/901 2013/11/27
 16 17  0  0  0  0  0  0  0  0999 V2000
   21.1643   -0.5753   13.2426 C   0  0  0  0  0  0  0  0  0  0  0  0
   20.3307   -1.4655   13.3771 O   0  5  0  0  0  0  0  0  0  0  0  0
   21.8777   -0.5513   12.2411 O   0  0  0  0  0  0  0  0  0  0  0  0
   21.2696    0.5363   14.2789 C   0  0  0  0  0  0  0  0  0  0  0  0
   20.2728    1.6960   14.0586 C   0  0  0  0  0  0  0  0  0  0  0  0
   18.8415    1.2608   14.3132 C   0  0  0  0  0  0  0  0  0  0  0  0
   17.8135    2.2961   13.9071 C   0  0  0  0  0  0  0  0  0  0  0  0
   16.3554    1.8869   14.1540 C   0  0  2  0  0  0  0  0  0  0  0  0
   15.8403    0.1741   13.4707 S   0  0  0  0  0  0  0  0  0  0  0  0
   14.0348    0.7264   13.7540 C   0  0  0  0  0  0  0  0  0  0  0  0
   14.0247    2.2500   13.4351 C   0  0  2  0  0  0  0  0  0  0  0  0
   13.6915    2.3589   11.9230 N   0  0  0  0  0  0  0  0  0  0  0  0
   14.5922    2.9357   11.2528 C   0  0  0  0  0  0  0  0  0  0  0  0
   14.7335    3.0568    9.9843 O   0  0  0  0  0  0  0  0  0  0  0  0
   15.7896    3.2169   12.0109 N   0  0  0  0  0  0  0  0  0  0  0  0
   15.4131    2.8657   13.4500 C   0  0  2  0  0  0  0  0  0  0  0  0
  1  2  1  0  0  0  0
  1  3  2  0  0  0  0
  1  4  1  0  0  0  0
  4  5  1  0  0  0  0
  5  6  1  0  0  0  0
  6  7  1  0  0  0  0
  8  7  1  6  0  0  0
  8  9  1  0  0  0  0
  8 16  1  0  0  0  0
  9 10  1  0  0  0  0
 11 10  1  6  0  0  0
 11 12  1  0  0  0  0
 11 16  1  0  0  0  0
 12 13  1  0  0  0  0
 13 14  2  0  0  0  0
 13 15  1  0  0  0  0
 16 15  1  6  0  0  0
M  CHG  1   2  -1
M  END
>  <CHROM.1>
-84.05078403,68.56516193,-171.13527265,-179.90437502,-50.77123400,17.18392021
1.30220574,13.04876387,-0.36731057,0.16821509,-0.87631552

>  <Name>
1f27 biotin aptamer (Xray 1.3A)

>  <RI>
0

>  <Rbt.Current_Directory>
/home/itssahil/PROJECTS/Mol_Feturizer/New_Systems/rnas/1f27

>  <Rbt.Executable>
rbdock ($Id: //depot/dev/client3/rdock/2013.1/src/exe/rbdock.cxx#4 $)

>  <Rbt.Library>
libRbt.so (2013.1, Build901 2013/11/27)

>  <Rbt.Parameter_File>
/export/apps/rDock/src/rDock_2013.1_src/data/scripts/dock_solv.prm

>  <Rbt.Receptor>
prm/pocket_docking_8.prm

>  <SCORE>
-35.4499

>  <SCORE.INTER>
-33.2075

>  <SCORE.INTER.CONST>
1

>  <SCORE.INTER.POLAR>
-2.68269

>  <SCORE.INTER.ROT>
5

>  <SCORE.INTER.SOLV>
12.4048

>  <SCORE.INTER.VDW>
-24.2643

>  <SCORE.INTER.norm>
-2.07547

>  <SCORE.INTRA>
-2.24242

>  <SCORE.INTRA.DIHEDRAL>
-4.67384

>  <SCORE.INTRA.DIHEDRAL.0>
6.87082

>  <SCORE.INTRA.POLAR>
0

>  <SCORE.INTRA.POLAR.0>
0

>  <SCORE.INTRA.REPUL>
0

>  <SCORE.INTRA.REPUL.0>
0

>  <SCORE.INTRA.SOLV>
0.183905

>  <SCORE.INTRA.SOLV.lig_0>
-42.5944

>  <SCORE.INTRA.VDW>
0.0025452

>  <SCORE.INTRA.VDW.0>
-1.067

>  <SCORE.INTRA.norm>
-0.140151

>  <SCORE.RESTR>
0

>  <SCORE.RESTR.CAVITY>
0

>  <SCORE.RESTR.norm>
0

>  <SCORE.SYSTEM>
0

>  <SCORE.SYSTEM.CONST>
0

>  <SCORE.SYSTEM.DIHEDRAL>
0

>  <SCORE.SYSTEM.SOLV>
0

>  <SCORE.SYSTEM.norm>
0

>  <SCORE.heavy>
16

>  <SCORE.norm>
-2.21562

>  <RMSD>
1.491

$$$$
1f27 biotin aptamer (Xray 1.3A)
 OpenBabel11021811393D
libRbt.so/2013.1/901 2013/11/27
 16 17  0  0  0  0  0  0  0  0999 V2000
   20.7657   -1.9489   14.5110 C   0  0  0  0  0  0  0  0  0  0  0  0
   21.7907   -1.2834   14.4013 O   0  5  0  0  0  0  0  0  0  0  0  0
   20.8338   -3.1764   14.5432 O   0  0  0  0  0  0  0  0  0  0  0  0
   19.4188   -1.2566   14.6758 C   0  0  0  0  0  0  0  0  0  0  0  0
   18.4303   -1.5235   13.5188 C   0  0  0  0  0  0  0  0  0  0  0  0
   17.0945   -0.8433   13.7548 C   0  0  0  0  0  0  0  0  0  0  0  0
   17.1675    0.6684   13.6985 C   0  0  0  0  0  0  0  0  0  0  0  0
   15.8795    1.3910   14.1148 C   0  0  2  0  0  0  0  0  0  0  0  0
   14.2434    0.4796   13.7172 S   0  0  0  0  0  0  0  0  0  0  0  0
   13.3633    2.1378   14.0644 C   0  0  0  0  0  0  0  0  0  0  0  0
   14.3406    3.2303   13.5404 C   0  0  2  0  0  0  0  0  0  0  0  0
   13.9442    3.4707   12.0591 N   0  0  0  0  0  0  0  0  0  0  0  0
   14.8805    3.2349   11.2462 C   0  0  0  0  0  0  0  0  0  0  0  0
   14.8706    3.1675    9.9660 O   0  0  0  0  0  0  0  0  0  0  0  0
   16.0477    2.6452   11.8607 N   0  0  0  0  0  0  0  0  0  0  0  0
   15.7585    2.7166   13.3598 C   0  0  2  0  0  0  0  0  0  0  0  0
  1  2  1  0  0  0  0
  1  3  2  0  0  0  0
  1  4  1  0  0  0  0
  4  5  1  0  0  0  0
  5  6  1  0  0  0  0
  6  7  1  0  0  0  0
  8  7  1  6  0  0  0
  8  9  1  0  0  0  0
  8 16  1  0  0  0  0
  9 10  1  0  0  0  0
 11 10  1  6  0  0  0
 11 12  1  0  0  0  0
 11 16  1  0  0  0  0
 12 13  1  0  0  0  0
 13 14  2  0  0  0  0
 13 15  1  0  0  0  0
 16 15  1  6  0  0  0
M  CHG  1   2  -1
M  END
>  <CHROM.1>
116.87872054,178.36243862,67.73626008,-172.27785591,-32.07969163,16.65575247
0.76455987,13.32441793,-0.64329063,0.30265445,-0.79113853

>  <Name>
1f27 biotin aptamer (Xray 1.3A)

>  <RI>
0

>  <Rbt.Current_Directory>
/home/itssahil/PROJECTS/Mol_Feturizer/New_Systems/rnas/1f27

>  <Rbt.Executable>
rbdock ($Id: //depot/dev/client3/rdock/2013.1/src/exe/rbdock.cxx#4 $)

>  <Rbt.Library>
libRbt.so (2013.1, Build901 2013/11/27)

>  <Rbt.Parameter_File>
/export/apps/rDock/src/rDock_2013.1_src/data/scripts/dock_solv.prm

>  <Rbt.Receptor>
prm/pocket_docking_7.prm

>  <SCORE>
-24.929

>  <SCORE.INTER>
-24.2151

>  <SCORE.INTER.CONST>
1

>  <SCORE.INTER.POLAR>
-1.26385

>  <SCORE.INTER.ROT>
5

>  <SCORE.INTER.SOLV>
8.36434

>  <SCORE.INTER.VDW>
-21.652

>  <SCORE.INTER.norm>
-1.51345

>  <SCORE.INTRA>
-0.713825

>  <SCORE.INTRA.DIHEDRAL>
-2.34776

>  <SCORE.INTRA.DIHEDRAL.0>
6.87082

>  <SCORE.INTRA.POLAR>
0

>  <SCORE.INTRA.POLAR.0>
0

>  <SCORE.INTRA.REPUL>
0

>  <SCORE.INTRA.REPUL.0>
0

>  <SCORE.INTRA.SOLV>
-0.783959

>  <SCORE.INTRA.SOLV.lig_0>
-42.5944

>  <SCORE.INTRA.VDW>
0.852034

>  <SCORE.INTRA.VDW.0>
-1.067

>  <SCORE.INTRA.norm>
-0.0446141

>  <SCORE.RESTR>
0

>  <SCORE.RESTR.CAVITY>
0

>  <SCORE.RESTR.norm>
0

>  <SCORE.SYSTEM>
0

>  <SCORE.SYSTEM.CONST>
0

>  <SCORE.SYSTEM.DIHEDRAL>
0

>  <SCORE.SYSTEM.SOLV>
0

>  <SCORE.SYSTEM.norm>
0

>  <SCORE.heavy>
16

>  <SCORE.norm>
-1.55806

>  <RMSD>
1.494

$$$$
1f27 biotin aptamer (Xray 1.3A)
 OpenBabel11021811393D
libRbt.so/2013.1/901 2013/11/27
 16 17  0  0  0  0  0  0  0  0999 V2000
   20.4067   -1.4567   12.6190 C   0  0  0  0  0  0  0  0  0  0  0  0
   21.6249   -1.5986   12.6534 O   0  5  0  0  0  0  0  0  0  0  0  0
   19.6724   -2.4037   12.8955 O   0  0  0  0  0  0  0  0  0  0  0  0
   19.8044   -0.0939   12.3018 C   0  0  0  0  0  0  0  0  0  0  0  0
   18.9014    0.4692   13.4219 C   0  0  0  0  0  0  0  0  0  0  0  0
   18.2977    1.8068   13.0358 C   0  0  0  0  0  0  0  0  0  0  0  0
   17.5422    2.4774   14.1642 C   0  0  0  0  0  0  0  0  0  0  0  0
   16.0721    2.0574   14.2934 C   0  0  2  0  0  0  0  0  0  0  0  0
   15.6517    0.2887   13.6929 S   0  0  0  0  0  0  0  0  0  0  0  0
   13.8197    0.8229   13.7507 C   0  0  0  0  0  0  0  0  0  0  0  0
   13.8221    2.3183   13.3184 C   0  0  2  0  0  0  0  0  0  0  0  0
   13.6433    2.3085   11.7766 N   0  0  0  0  0  0  0  0  0  0  0  0
   14.5999    2.8529   11.1587 C   0  0  0  0  0  0  0  0  0  0  0  0
   14.8681    2.8830    9.9054 O   0  0  0  0  0  0  0  0  0  0  0  0
   15.7101    3.2139   12.0101 N   0  0  0  0  0  0  0  0  0  0  0  0
   15.1936    2.9620   13.4263 C   0  0  2  0  0  0  0  0  0  0  0  0
  1  2  1  0  0  0  0
  1  3  2  0  0  0  0
  1  4  1  0  0  0  0
  4  5  1  0  0  0  0
  5  6  1  0  0  0  0
  6  7  1  0  0  0  0
  8  7  1  6  0  0  0
  8  9  1  0  0  0  0
  8 16  1  0  0  0  0
  9 10  1  0  0  0  0
 11 10  1  6  0  0  0
 11 12  1  0  0  0  0
 11 16  1  0  0  0  0
 12 13  1  0  0  0  0
 13 14  2  0  0  0  0
 13 15  1  0  0  0  0
 16 15  1  6  0  0  0
M  CHG  1   2  -1
M  END
>  <CHROM.1>
-120.25796721,-178.33724658,-172.96746525,-86.62793306,28.67652500,16.80278369
1.08251048,12.81403334,-0.39013222,0.40896564,-0.90806371

>  <Name>
1f27 biotin aptamer (Xray 1.3A)

>  <RI>
0

>  <Rbt.Current_Directory>
/home/itssahil/PROJECTS/Mol_Feturizer/New_Systems/rnas/1f27

>  <Rbt.Executable>
rbdock ($Id: //depot/dev/client3/rdock/2013.1/src/exe/rbdock.cxx#4 $)

>  <Rbt.Library>
libRbt.so (2013.1, Build901 2013/11/27)

>  <Rbt.Parameter_File>
/export/apps/rDock/src/rDock_2013.1_src/data/scripts/dock_solv.prm

>  <Rbt.Receptor>
prm/pocket_docking_2.prm

>  <SCORE>
-28.1712

>  <SCORE.INTER>
-28.5474

>  <SCORE.INTER.CONST>
1

>  <SCORE.INTER.POLAR>
-1.85989

>  <SCORE.INTER.ROT>
5

>  <SCORE.INTER.SOLV>
10.945

>  <SCORE.INTER.VDW>
-23.4136

>  <SCORE.INTER.norm>
-1.78421

>  <SCORE.INTRA>
0.376164

>  <SCORE.INTRA.DIHEDRAL>
0.344052

>  <SCORE.INTRA.DIHEDRAL.0>
6.87082

>  <SCORE.INTRA.POLAR>
0

>  <SCORE.INTRA.POLAR.0>
0

>  <SCORE.INTRA.REPUL>
0

>  <SCORE.INTRA.REPUL.0>
0

>  <SCORE.INTRA.SOLV>
-0.364653

>  <SCORE.INTRA.SOLV.lig_0>
-42.5944

>  <SCORE.INTRA.VDW>
0.386464

>  <SCORE.INTRA.VDW.0>
-1.067

>  <SCORE.INTRA.norm>
0.0235102

>  <SCORE.RESTR>
0

>  <SCORE.RESTR.CAVITY>
0

>  <SCORE.RESTR.norm>
0

>  <SCORE.SYSTEM>
0

>  <SCORE.SYSTEM.CONST>
0

>  <SCORE.SYSTEM.DIHEDRAL>
0

>  <SCORE.SYSTEM.SOLV>
0

>  <SCORE.SYSTEM.norm>
0

>  <SCORE.heavy>
16

>  <SCORE.norm>
-1.7607

>  <RMSD>
1.495

$$$$
1f27 biotin aptamer (Xray 1.3A)
 OpenBabel11021811393D
libRbt.so/2013.1/901 2013/11/27
 16 17  0  0  0  0  0  0  0  0999 V2000
   21.1746   -0.8343   14.4292 C   0  0  0  0  0  0  0  0  0  0  0  0
   21.7341   -1.1814   13.3939 O   0  5  0  0  0  0  0  0  0  0  0  0
   20.5698   -1.6645   15.1057 O   0  0  0  0  0  0  0  0  0  0  0  0
   21.2855    0.6061   14.9122 C   0  0  0  0  0  0  0  0  0  0  0  0
   20.2996    1.5764   14.2242 C   0  0  0  0  0  0  0  0  0  0  0  0
   18.8566    1.2181   14.5282 C   0  0  0  0  0  0  0  0  0  0  0  0
   17.8545    2.1762   13.9186 C   0  0  0  0  0  0  0  0  0  0  0  0
   16.3843    1.8106   14.1617 C   0  0  2  0  0  0  0  0  0  0  0  0
   15.8267    0.1028   13.4997 S   0  0  0  0  0  0  0  0  0  0  0  0
   14.0353    0.7083   13.7629 C   0  0  0  0  0  0  0  0  0  0  0  0
   14.0690    2.2268   13.4220 C   0  0  2  0  0  0  0  0  0  0  0  0
   13.7484    2.3227   11.9064 N   0  0  0  0  0  0  0  0  0  0  0  0
   14.6688    2.8649   11.2339 C   0  0  0  0  0  0  0  0  0  0  0  0
   14.8214    2.9635    9.9647 O   0  0  0  0  0  0  0  0  0  0  0  0
   15.8687    3.1243   11.9959 N   0  0  0  0  0  0  0  0  0  0  0  0
   15.4736    2.8045   13.4373 C   0  0  2  0  0  0  0  0  0  0  0  0
  1  2  1  0  0  0  0
  1  3  2  0  0  0  0
  1  4  1  0  0  0  0
  4  5  1  0  0  0  0
  5  6  1  0  0  0  0
  6  7  1  0  0  0  0
  8  7  1  6  0  0  0
  8  9  1  0  0  0  0
  8 16  1  0  0  0  0
  9 10  1  0  0  0  0
 11 10  1  6  0  0  0
 11 12  1  0  0  0  0
 11 16  1  0  0  0  0
 12 13  1  0  0  0  0
 13 14  2  0  0  0  0
 13 15  1  0  0  0  0
 16 15  1  6  0  0  0
M  CHG  1   2  -1
M  END
>  <CHROM.1>
81.93168284,63.49484363,177.70962545,177.72158970,-59.40504633,17.21977206
1.18598698,13.35513832,0.51169032,0.01247418,2.45456759

>  <Name>
1f27 biotin aptamer (Xray 1.3A)

>  <RI>
0

>  <Rbt.Current_Directory>
/home/itssahil/PROJECTS/Mol_Feturizer/New_Systems/rnas/1f27

>  <Rbt.Executable>
rbdock ($Id: //depot/dev/client3/rdock/2013.1/src/exe/rbdock.cxx#4 $)

>  <Rbt.Library>
libRbt.so (2013.1, Build901 2013/11/27)

>  <Rbt.Parameter_File>
/export/apps/rDock/src/rDock_2013.1_src/data/scripts/dock_solv.prm

>  <Rbt.Receptor>
prm/pocket_docking_5.prm

>  <SCORE>
-32.0726

>  <SCORE.INTER>
-29.5063

>  <SCORE.INTER.CONST>
1

>  <SCORE.INTER.POLAR>
-1.79055

>  <SCORE.INTER.ROT>
5

>  <SCORE.INTER.SOLV>
9.43633

>  <SCORE.INTER.VDW>
-23.7811

>  <SCORE.INTER.norm>
-1.84414

>  <SCORE.INTRA>
-2.56633

>  <SCORE.INTRA.DIHEDRAL>
-5.32166

>  <SCORE.INTRA.DIHEDRAL.0>
6.87082

>  <SCORE.INTRA.POLAR>
0

>  <SCORE.INTRA.POLAR.0>
0

>  <SCORE.INTRA.REPUL>
0

>  <SCORE.INTRA.REPUL.0>
0

>  <SCORE.INTRA.SOLV>
0.0582803

>  <SCORE.INTRA.SOLV.lig_0>
-42.5944

>  <SCORE.INTRA.VDW>
0.0653597

>  <SCORE.INTRA.VDW.0>
-1.067

>  <SCORE.INTRA.norm>
-0.160396

>  <SCORE.RESTR>
0

>  <SCORE.RESTR.CAVITY>
0

>  <SCORE.RESTR.norm>
0

>  <SCORE.SYSTEM>
0

>  <SCORE.SYSTEM.CONST>
0

>  <SCORE.SYSTEM.DIHEDRAL>
0

>  <SCORE.SYSTEM.SOLV>
0

>  <SCORE.SYSTEM.norm>
0

>  <SCORE.heavy>
16

>  <SCORE.norm>
-2.00454

>  <RMSD>
1.495

$$$$
1f27 biotin aptamer (Xray 1.3A)
 OpenBabel11021811393D
libRbt.so/2013.1/901 2013/11/27
 16 17  0  0  0  0  0  0  0  0999 V2000
   21.1806   -0.8069   14.4404 C   0  0  0  0  0  0  0  0  0  0  0  0
   21.7447   -1.1389   13.4027 O   0  5  0  0  0  0  0  0  0  0  0  0
   20.5719   -1.6465   15.1014 O   0  0  0  0  0  0  0  0  0  0  0  0
   21.2904    0.6261   14.9456 C   0  0  0  0  0  0  0  0  0  0  0  0
   20.3068    1.6069   14.2692 C   0  0  0  0  0  0  0  0  0  0  0  0
   18.8625    1.2285   14.5406 C   0  0  0  0  0  0  0  0  0  0  0  0
   17.8613    2.1785   13.9170 C   0  0  0  0  0  0  0  0  0  0  0  0
   16.3907    1.8146   14.1605 C   0  0  2  0  0  0  0  0  0  0  0  0
   15.8312    0.1071   13.4995 S   0  0  0  0  0  0  0  0  0  0  0  0
   14.0405    0.7146   13.7626 C   0  0  0  0  0  0  0  0  0  0  0  0
   14.0757    2.2329   13.4208 C   0  0  2  0  0  0  0  0  0  0  0  0
   13.7551    2.3283   11.9051 N   0  0  0  0  0  0  0  0  0  0  0  0
   14.6760    2.8690   11.2323 C   0  0  0  0  0  0  0  0  0  0  0  0
   14.8285    2.9668    9.9631 O   0  0  0  0  0  0  0  0  0  0  0  0
   15.8762    3.1276   11.9940 N   0  0  0  0  0  0  0  0  0  0  0  0
   15.4810    2.8091   13.4357 C   0  0  2  0  0  0  0  0  0  0  0  0
  1  2  1  0  0  0  0
  1  3  2  0  0  0  0
  1  4  1  0  0  0  0
  4  5  1  0  0  0  0
  5  6  1  0  0  0  0
  6  7  1  0  0  0  0
  8  7  1  6  0  0  0
  8  9  1  0  0  0  0
  8 16  1  0  0  0  0
  9 10  1  0  0  0  0
 11 10  1  6  0  0  0
 11 12  1  0  0  0  0
 11 16  1  0  0  0  0
 12 13  1  0  0  0  0
 13 14  2  0  0  0  0
 13 15  1  0  0  0  0
 16 15  1  6  0  0  0
M  CHG  1   2  -1
M  END
>  <CHROM.1>
82.03330310,62.36433368,178.94152768,179.36975398,-60.07525294,17.22601534
1.19763125,13.36048919,0.51056701,0.01781531,2.45539737

>  <Name>
1f27 biotin aptamer (Xray 1.3A)

>  <RI>
0

>  <Rbt.Current_Directory>
/home/itssahil/PROJECTS/Mol_Feturizer/New_Systems/rnas/1f27

>  <Rbt.Executable>
rbdock ($Id: //depot/dev/client3/rdock/2013.1/src/exe/rbdock.cxx#4 $)

>  <Rbt.Library>
libRbt.so (2013.1, Build901 2013/11/27)

>  <Rbt.Parameter_File>
/export/apps/rDock/src/rDock_2013.1_src/data/scripts/dock_solv.prm

>  <Rbt.Receptor>
prm/pocket_docking_3.prm

>  <SCORE>
-32.0781

>  <SCORE.INTER>
-29.4971

>  <SCORE.INTER.CONST>
1

>  <SCORE.INTER.POLAR>
-1.79172

>  <SCORE.INTER.ROT>
5

>  <SCORE.INTER.SOLV>
9.52151

>  <SCORE.INTER.VDW>
-23.7995

>  <SCORE.INTER.norm>
-1.84357

>  <SCORE.INTRA>
-2.58097

>  <SCORE.INTRA.DIHEDRAL>
-5.38525

>  <SCORE.INTRA.DIHEDRAL.0>
6.87082

>  <SCORE.INTRA.POLAR>
0

>  <SCORE.INTRA.POLAR.0>
0

>  <SCORE.INTRA.REPUL>
0

>  <SCORE.INTRA.REPUL.0>
0

>  <SCORE.INTRA.SOLV>
0.0699836

>  <SCORE.INTRA.SOLV.lig_0>
-42.5944

>  <SCORE.INTRA.VDW>
0.0766658

>  <SCORE.INTRA.VDW.0>
-1.067

>  <SCORE.INTRA.norm>
-0.161311

>  <SCORE.RESTR>
0

>  <SCORE.RESTR.CAVITY>
0

>  <SCORE.RESTR.norm>
0

>  <SCORE.SYSTEM>
0

>  <SCORE.SYSTEM.CONST>
0

>  <SCORE.SYSTEM.DIHEDRAL>
0

>  <SCORE.SYSTEM.SOLV>
0

>  <SCORE.SYSTEM.norm>
0

>  <SCORE.heavy>
16

>  <SCORE.norm>
-2.00488

>  <RMSD>
1.503

$$$$
1f27 biotin aptamer (Xray 1.3A)
 OpenBabel11021811393D
libRbt.so/2013.1/901 2013/11/27
 16 17  0  0  0  0  0  0  0  0999 V2000
   21.2651   -0.5119   13.4451 C   0  0  0  0  0  0  0  0  0  0  0  0
   20.4912   -1.4361   13.6737 O   0  5  0  0  0  0  0  0  0  0  0  0
   21.9538   -0.5284   12.4263 O   0  0  0  0  0  0  0  0  0  0  0  0
   21.3241    0.6860   14.3844 C   0  0  0  0  0  0  0  0  0  0  0  0
   20.2943    1.7905   14.0580 C   0  0  0  0  0  0  0  0  0  0  0  0
   18.8769    1.3438   14.3653 C   0  0  0  0  0  0  0  0  0  0  0  0
   17.8205    2.3284   13.9091 C   0  0  0  0  0  0  0  0  0  0  0  0
   16.3736    1.8753   14.1446 C   0  0  2  0  0  0  0  0  0  0  0  0
   15.8926    0.1848   13.3851 S   0  0  0  0  0  0  0  0  0  0  0  0
   14.0771    0.6823   13.7034 C   0  0  0  0  0  0  0  0  0  0  0  0
   14.0307    2.2184   13.4558 C   0  0  2  0  0  0  0  0  0  0  0  0
   13.6856    2.3898   11.9522 N   0  0  0  0  0  0  0  0  0  0  0  0
   14.5688    3.0173   11.3047 C   0  0  0  0  0  0  0  0  0  0  0  0
   14.6992    3.2003   10.0425 O   0  0  0  0  0  0  0  0  0  0  0  0
   15.7644    3.2902   12.0687 N   0  0  0  0  0  0  0  0  0  0  0  0
   15.4051    2.8641   13.4919 C   0  0  2  0  0  0  0  0  0  0  0  0
  1  2  1  0  0  0  0
  1  3  2  0  0  0  0
  1  4  1  0  0  0  0
  4  5  1  0  0  0  0
  5  6  1  0  0  0  0
  6  7  1  0  0  0  0
  8  7  1  6  0  0  0
  8  9  1  0  0  0  0
  8 16  1  0  0  0  0
  9 10  1  0  0  0  0
 11 10  1  6  0  0  0
 11 12  1  0  0  0  0
 11 16  1  0  0  0  0
 12 13  1  0  0  0  0
 13 14  2  0  0  0  0
 13 15  1  0  0  0  0
 16 15  1  6  0  0  0
M  CHG  1   2  -1
M  END
>  <CHROM.1>
-86.63565034,69.83291759,-173.13556870,177.20354137,-55.49911030,17.21613290
1.34601330,13.10000818,-0.39926258,0.08722429,-0.72245096

>  <Name>
1f27 biotin aptamer (Xray 1.3A)

>  <RI>
0

>  <Rbt.Current_Directory>
/home/itssahil/PROJECTS/Mol_Feturizer/New_Systems/rnas/1f27

>  <Rbt.Executable>
rbdock ($Id: //depot/dev/client3/rdock/2013.1/src/exe/rbdock.cxx#4 $)

>  <Rbt.Library>
libRbt.so (2013.1, Build901 2013/11/27)

>  <Rbt.Parameter_File>
/export/apps/rDock/src/rDock_2013.1_src/data/scripts/dock_solv.prm

>  <Rbt.Receptor>
prm/pocket_docking_3.prm

>  <SCORE>
-35.0128

>  <SCORE.INTER>
-32.5447

>  <SCORE.INTER.CONST>
1

>  <SCORE.INTER.POLAR>
-2.55871

>  <SCORE.INTER.ROT>
5

>  <SCORE.INTER.SOLV>
11.847

>  <SCORE.INTER.VDW>
-24.0498

>  <SCORE.INTER.norm>
-2.03405

>  <SCORE.INTRA>
-2.46802

>  <SCORE.INTRA.DIHEDRAL>
-4.94831

>  <SCORE.INTRA.DIHEDRAL.0>
6.87082

>  <SCORE.INTRA.POLAR>
0

>  <SCORE.INTRA.POLAR.0>
0

>  <SCORE.INTRA.REPUL>
0

>  <SCORE.INTRA.REPUL.0>
0

>  <SCORE.INTRA.SOLV>
0.128993

>  <SCORE.INTRA.SOLV.lig_0>
-42.5944

>  <SCORE.INTRA.VDW>
-0.0583641

>  <SCORE.INTRA.VDW.0>
-1.067

>  <SCORE.INTRA.norm>
-0.154251

>  <SCORE.RESTR>
0

>  <SCORE.RESTR.CAVITY>
0

>  <SCORE.RESTR.norm>
0

>  <SCORE.SYSTEM>
0

>  <SCORE.SYSTEM.CONST>
0

>  <SCORE.SYSTEM.DIHEDRAL>
0

>  <SCORE.SYSTEM.SOLV>
0

>  <SCORE.SYSTEM.norm>
0

>  <SCORE.heavy>
16

>  <SCORE.norm>
-2.1883

>  <RMSD>
1.505

$$$$
1f27 biotin aptamer (Xray 1.3A)
 OpenBabel11021811393D
libRbt.so/2013.1/901 2013/11/27
 16 17  0  0  0  0  0  0  0  0999 V2000
   21.1688   -0.9451   12.5952 C   0  0  0  0  0  0  0  0  0  0  0  0
   20.3246   -1.8129   12.3964 O   0  5  0  0  0  0  0  0  0  0  0  0
   22.2678   -1.0242   12.0489 O   0  0  0  0  0  0  0  0  0  0  0  0
   20.8345    0.2626   13.4613 C   0  0  0  0  0  0  0  0  0  0  0  0
   19.4175    0.8313   13.2249 C   0  0  0  0  0  0  0  0  0  0  0  0
   19.0735    1.9148   14.2302 C   0  0  0  0  0  0  0  0  0  0  0  0
   17.8855    2.7615   13.8237 C   0  0  0  0  0  0  0  0  0  0  0  0
   16.5184    2.1013   14.0460 C   0  0  2  0  0  0  0  0  0  0  0  0
   16.2491    0.4203   13.1700 S   0  0  0  0  0  0  0  0  0  0  0  0
   14.3917    0.6439   13.5510 C   0  0  0  0  0  0  0  0  0  0  0  0
   14.1345    2.1734   13.4191 C   0  0  2  0  0  0  0  0  0  0  0  0
   13.7327    2.4040   11.9377 N   0  0  0  0  0  0  0  0  0  0  0  0
   14.5080    3.1900   11.3258 C   0  0  0  0  0  0  0  0  0  0  0  0
   14.5818    3.4790   10.0789 O   0  0  0  0  0  0  0  0  0  0  0  0
   15.6748    3.5662   12.0903 N   0  0  0  0  0  0  0  0  0  0  0  0
   15.4107    2.9946   13.4830 C   0  0  2  0  0  0  0  0  0  0  0  0
  1  2  1  0  0  0  0
  1  3  2  0  0  0  0
  1  4  1  0  0  0  0
  4  5  1  0  0  0  0
  5  6  1  0  0  0  0
  6  7  1  0  0  0  0
  8  7  1  6  0  0  0
  8  9  1  0  0  0  0
  8 16  1  0  0  0  0
  9 10  1  0  0  0  0
 11 10  1  6  0  0  0
 11 12  1  0  0  0  0
 11 16  1  0  0  0  0
 12 13  1  0  0  0  0
 13 14  2  0  0  0  0
 13 15  1  0  0  0  0
 16 15  1  6  0  0  0
M  CHG  1   2  -1
M  END
>  <CHROM.1>
-40.69007164,172.77077144,163.96160676,77.74457451,-57.31631487,17.22265237
1.33587598,12.79432908,-0.42534978,0.22172934,-0.62834881

>  <Name>
1f27 biotin aptamer (Xray 1.3A)

>  <RI>
0

>  <Rbt.Current_Directory>
/home/itssahil/PROJECTS/Mol_Feturizer/New_Systems/rnas/1f27

>  <Rbt.Executable>
rbdock ($Id: //depot/dev/client3/rdock/2013.1/src/exe/rbdock.cxx#4 $)

>  <Rbt.Library>
libRbt.so (2013.1, Build901 2013/11/27)

>  <Rbt.Parameter_File>
/export/apps/rDock/src/rDock_2013.1_src/data/scripts/dock_solv.prm

>  <Rbt.Receptor>
prm/pocket_docking_5.prm

>  <SCORE>
-31.9194

>  <SCORE.INTER>
-30.4872

>  <SCORE.INTER.CONST>
1

>  <SCORE.INTER.POLAR>
-2.54508

>  <SCORE.INTER.ROT>
5

>  <SCORE.INTER.SOLV>
13.2389

>  <SCORE.INTER.VDW>
-23.1875

>  <SCORE.INTER.norm>
-1.90545

>  <SCORE.INTRA>
-1.43223

>  <SCORE.INTRA.DIHEDRAL>
-2.95258

>  <SCORE.INTRA.DIHEDRAL.0>
6.87082

>  <SCORE.INTRA.POLAR>
0

>  <SCORE.INTRA.POLAR.0>
0

>  <SCORE.INTRA.REPUL>
0

>  <SCORE.INTRA.REPUL.0>
0

>  <SCORE.INTRA.SOLV>
-0.698238

>  <SCORE.INTRA.SOLV.lig_0>
-42.5944

>  <SCORE.INTRA.VDW>
0.393179

>  <SCORE.INTRA.VDW.0>
-1.067

>  <SCORE.INTRA.norm>
-0.0895142

>  <SCORE.RESTR>
0

>  <SCORE.RESTR.CAVITY>
0

>  <SCORE.RESTR.norm>
0

>  <SCORE.SYSTEM>
0

>  <SCORE.SYSTEM.CONST>
0

>  <SCORE.SYSTEM.DIHEDRAL>
0

>  <SCORE.SYSTEM.SOLV>
0

>  <SCORE.SYSTEM.norm>
0

>  <SCORE.heavy>
16

>  <SCORE.norm>
-1.99496

>  <RMSD>
1.506

$$$$
1f27 biotin aptamer (Xray 1.3A)
 OpenBabel11021811393D
libRbt.so/2013.1/901 2013/11/27
 16 17  0  0  0  0  0  0  0  0999 V2000
   21.0978   -0.8174   14.6706 C   0  0  0  0  0  0  0  0  0  0  0  0
   20.4872   -1.5320   15.4592 O   0  5  0  0  0  0  0  0  0  0  0  0
   21.5264   -1.2923   13.6202 O   0  0  0  0  0  0  0  0  0  0  0  0
   21.2657    0.6691   14.9582 C   0  0  0  0  0  0  0  0  0  0  0  0
   20.2736    1.5724   14.1921 C   0  0  0  0  0  0  0  0  0  0  0  0
   18.8332    1.2391   14.5342 C   0  0  0  0  0  0  0  0  0  0  0  0
   17.8315    2.2090   13.9429 C   0  0  0  0  0  0  0  0  0  0  0  0
   16.3611    1.8378   14.1763 C   0  0  2  0  0  0  0  0  0  0  0  0
   15.8168    0.1239   13.5189 S   0  0  0  0  0  0  0  0  0  0  0  0
   14.0205    0.7223   13.7647 C   0  0  0  0  0  0  0  0  0  0  0  0
   14.0498    2.2392   13.4161 C   0  0  2  0  0  0  0  0  0  0  0  0
   13.7409    2.3256   11.8974 N   0  0  0  0  0  0  0  0  0  0  0  0
   14.6640    2.8685   11.2294 C   0  0  0  0  0  0  0  0  0  0  0  0
   14.8262    2.9611    9.9610 O   0  0  0  0  0  0  0  0  0  0  0  0
   15.8565    3.1376   11.9995 N   0  0  0  0  0  0  0  0  0  0  0  0
   15.4516    2.8236   13.4394 C   0  0  2  0  0  0  0  0  0  0  0  0
  1  2  1  0  0  0  0
  1  3  2  0  0  0  0
  1  4  1  0  0  0  0
  4  5  1  0  0  0  0
  5  6  1  0  0  0  0
  6  7  1  0  0  0  0
  8  7  1  6  0  0  0
  8  9  1  0  0  0  0
  8 16  1  0  0  0  0
  9 10  1  0  0  0  0
 11 10  1  6  0  0  0
 11 12  1  0  0  0  0
 11 16  1  0  0  0  0
 12 13  1  0  0  0  0
 13 14  2  0  0  0  0
 13 15  1  0  0  0  0
 16 15  1  6  0  0  0
M  CHG  1   2  -1
M  END
>  <CHROM.1>
-99.89750656,59.86195076,172.77544454,175.35836302,-57.86293013,17.18486256
1.20246317,13.41014626,0.53265244,0.03791091,2.45505578

>  <Name>
1f27 biotin aptamer (Xray 1.3A)

>  <RI>
0

>  <Rbt.Current_Directory>
/home/itssahil/PROJECTS/Mol_Feturizer/New_Systems/rnas/1f27

>  <Rbt.Executable>
rbdock ($Id: //depot/dev/client3/rdock/2013.1/src/exe/rbdock.cxx#4 $)

>  <Rbt.Library>
libRbt.so (2013.1, Build901 2013/11/27)

>  <Rbt.Parameter_File>
/export/apps/rDock/src/rDock_2013.1_src/data/scripts/dock_solv.prm

>  <Rbt.Receptor>
prm/pocket_docking_3.prm

>  <SCORE>
-32.019

>  <SCORE.INTER>
-29.5641

>  <SCORE.INTER.CONST>
1

>  <SCORE.INTER.POLAR>
-1.80089

>  <SCORE.INTER.ROT>
5

>  <SCORE.INTER.SOLV>
9.18989

>  <SCORE.INTER.VDW>
-23.7031

>  <SCORE.INTER.norm>
-1.84776

>  <SCORE.INTRA>
-2.45488

>  <SCORE.INTRA.DIHEDRAL>
-5.26593

>  <SCORE.INTRA.DIHEDRAL.0>
6.87082

>  <SCORE.INTRA.POLAR>
0

>  <SCORE.INTRA.POLAR.0>
0

>  <SCORE.INTRA.REPUL>
0

>  <SCORE.INTRA.REPUL.0>
0

>  <SCORE.INTRA.SOLV>
0.154259

>  <SCORE.INTRA.SOLV.lig_0>
-42.5944

>  <SCORE.INTRA.VDW>
0.100958

>  <SCORE.INTRA.VDW.0>
-1.067

>  <SCORE.INTRA.norm>
-0.15343

>  <SCORE.RESTR>
0

>  <SCORE.RESTR.CAVITY>
0

>  <SCORE.RESTR.norm>
0

>  <SCORE.SYSTEM>
0

>  <SCORE.SYSTEM.CONST>
0

>  <SCORE.SYSTEM.DIHEDRAL>
0

>  <SCORE.SYSTEM.SOLV>
0

>  <SCORE.SYSTEM.norm>
0

>  <SCORE.heavy>
16

>  <SCORE.norm>
-2.00119

>  <RMSD>
1.508

$$$$
1f27 biotin aptamer (Xray 1.3A)
 OpenBabel11021811393D
libRbt.so/2013.1/901 2013/11/27
 16 17  0  0  0  0  0  0  0  0999 V2000
   20.9680   -1.1704   14.4223 C   0  0  0  0  0  0  0  0  0  0  0  0
   20.0272   -1.5403   15.1177 O   0  5  0  0  0  0  0  0  0  0  0  0
   22.0866   -1.6489   14.6018 O   0  0  0  0  0  0  0  0  0  0  0  0
   20.7390   -0.1724   13.2945 C   0  0  0  0  0  0  0  0  0  0  0  0
   19.9876    1.1054   13.7302 C   0  0  0  0  0  0  0  0  0  0  0  0
   18.5355    0.8159   14.0624 C   0  0  0  0  0  0  0  0  0  0  0  0
   17.6490    2.0430   14.0184 C   0  0  0  0  0  0  0  0  0  0  0  0
   16.1516    1.7622   14.2004 C   0  0  2  0  0  0  0  0  0  0  0  0
   15.5302    0.0768   13.5379 S   0  0  0  0  0  0  0  0  0  0  0  0
   13.7651    0.7834   13.7120 C   0  0  0  0  0  0  0  0  0  0  0  0
   13.8976    2.2920   13.3519 C   0  0  2  0  0  0  0  0  0  0  0  0
   13.6499    2.3804   11.8222 N   0  0  0  0  0  0  0  0  0  0  0  0
   14.6275    2.8604   11.1842 C   0  0  0  0  0  0  0  0  0  0  0  0
   14.8410    2.9298    9.9219 O   0  0  0  0  0  0  0  0  0  0  0  0
   15.8051    3.0664   11.9956 N   0  0  0  0  0  0  0  0  0  0  0  0
   15.3300    2.7924   13.4221 C   0  0  2  0  0  0  0  0  0  0  0  0
  1  2  1  0  0  0  0
  1  3  2  0  0  0  0
  1  4  1  0  0  0  0
  4  5  1  0  0  0  0
  5  6  1  0  0  0  0
  6  7  1  0  0  0  0
  8  7  1  6  0  0  0
  8  9  1  0  0  0  0
  8 16  1  0  0  0  0
  9 10  1  0  0  0  0
 11 10  1  6  0  0  0
 11 12  1  0  0  0  0
 11 16  1  0  0  0  0
 12 13  1  0  0  0  0
 13 14  2  0  0  0  0
 13 15  1  0  0  0  0
 16 15  1  6  0  0  0
M  CHG  1   2  -1
M  END
>  <CHROM.1>
51.94203411,-69.79880394,-159.70158016,173.71945616,-31.46584170,17.02265550
1.04257329,13.28129015,-0.53936252,0.10919280,-0.80151183

>  <Name>
1f27 biotin aptamer (Xray 1.3A)

>  <RI>
0

>  <Rbt.Current_Directory>
/home/itssahil/PROJECTS/Mol_Feturizer/New_Systems/rnas/1f27

>  <Rbt.Executable>
rbdock ($Id: //depot/dev/client3/rdock/2013.1/src/exe/rbdock.cxx#4 $)

>  <Rbt.Library>
libRbt.so (2013.1, Build901 2013/11/27)

>  <Rbt.Parameter_File>
/export/apps/rDock/src/rDock_2013.1_src/data/scripts/dock_solv.prm

>  <Rbt.Receptor>
prm/pocket_docking_2.prm

>  <SCORE>
-28.0512

>  <SCORE.INTER>
-28.4306

>  <SCORE.INTER.CONST>
1

>  <SCORE.INTER.POLAR>
-1.83856

>  <SCORE.INTER.ROT>
5

>  <SCORE.INTER.SOLV>
8.52222

>  <SCORE.INTER.VDW>
-22.5993

>  <SCORE.INTER.norm>
-1.77691

>  <SCORE.INTRA>
0.372193

>  <SCORE.INTRA.DIHEDRAL>
-0.753359

>  <SCORE.INTRA.DIHEDRAL.0>
6.87082

>  <SCORE.INTRA.POLAR>
0

>  <SCORE.INTRA.POLAR.0>
0

>  <SCORE.INTRA.REPUL>
0

>  <SCORE.INTRA.REPUL.0>
0

>  <SCORE.INTRA.SOLV>
0.263022

>  <SCORE.INTRA.SOLV.lig_0>
-42.5944

>  <SCORE.INTRA.VDW>
0.617362

>  <SCORE.INTRA.VDW.0>
-1.067

>  <SCORE.INTRA.norm>
0.0232621

>  <SCORE.RESTR>
0.00713946

>  <SCORE.RESTR.CAVITY>
0.00713946

>  <SCORE.RESTR.norm>
0.000446216

>  <SCORE.SYSTEM>
0

>  <SCORE.SYSTEM.CONST>
0

>  <SCORE.SYSTEM.DIHEDRAL>
0

>  <SCORE.SYSTEM.SOLV>
0

>  <SCORE.SYSTEM.norm>
0

>  <SCORE.heavy>
16

>  <SCORE.norm>
-1.7532

>  <RMSD>
1.511

$$$$
1f27 biotin aptamer (Xray 1.3A)
 OpenBabel11021811393D
libRbt.so/2013.1/901 2013/11/27
 16 17  0  0  0  0  0  0  0  0999 V2000
   20.0815   -1.2123   13.3678 C   0  0  0  0  0  0  0  0  0  0  0  0
   20.9947   -1.7745   13.9639 O   0  5  0  0  0  0  0  0  0  0  0  0
   18.9912   -1.7696   13.2534 O   0  0  0  0  0  0  0  0  0  0  0  0
   20.2747    0.1999   12.8301 C   0  0  0  0  0  0  0  0  0  0  0  0
   20.1337    1.3040   13.9016 C   0  0  0  0  0  0  0  0  0  0  0  0
   18.7255    1.3625   14.4641 C   0  0  0  0  0  0  0  0  0  0  0  0
   17.7134    1.9462   13.5005 C   0  0  0  0  0  0  0  0  0  0  0  0
   16.2492    1.7889   13.9314 C   0  0  2  0  0  0  0  0  0  0  0  0
   15.4601    0.0758   13.6025 S   0  0  0  0  0  0  0  0  0  0  0  0
   13.7748    0.9117   13.9282 C   0  0  0  0  0  0  0  0  0  0  0  0
   13.9194    2.3493   13.3488 C   0  0  2  0  0  0  0  0  0  0  0  0
   13.4489    2.2549   11.8727 N   0  0  0  0  0  0  0  0  0  0  0  0
   14.3402    2.5840   11.0417 C   0  0  0  0  0  0  0  0  0  0  0  0
   14.3645    2.4756    9.7645 O   0  0  0  0  0  0  0  0  0  0  0  0
   15.6344    2.8166   11.6405 N   0  0  0  0  0  0  0  0  0  0  0  0
   15.3671    2.7607   13.1443 C   0  0  2  0  0  0  0  0  0  0  0  0
  1  2  1  0  0  0  0
  1  3  2  0  0  0  0
  1  4  1  0  0  0  0
  4  5  1  0  0  0  0
  5  6  1  0  0  0  0
  6  7  1  0  0  0  0
  8  7  1  6  0  0  0
  8  9  1  0  0  0  0
  8 16  1  0  0  0  0
  9 10  1  0  0  0  0
 11 10  1  6  0  0  0
 11 12  1  0  0  0  0
 11 16  1  0  0  0  0
 12 13  1  0  0  0  0
 13 14  2  0  0  0  0
 13 15  1  0  0  0  0
 16 15  1  6  0  0  0
M  CHG  1   2  -1
M  END
>  <CHROM.1>
-79.40402790,-64.70859123,-72.78669320,169.44570884,-79.88100613,16.76600548
1.01895050,12.99656252,0.49930781,-0.11953667,2.40027650

>  <Name>
1f27 biotin aptamer (Xray 1.3A)

>  <RI>
0

>  <Rbt.Current_Directory>
/home/itssahil/PROJECTS/Mol_Feturizer/New_Systems/rnas/1f27

>  <Rbt.Executable>
rbdock ($Id: //depot/dev/client3/rdock/2013.1/src/exe/rbdock.cxx#4 $)

>  <Rbt.Library>
libRbt.so (2013.1, Build901 2013/11/27)

>  <Rbt.Parameter_File>
/export/apps/rDock/src/rDock_2013.1_src/data/scripts/dock_solv.prm

>  <Rbt.Receptor>
prm/pocket_docking_3.prm

>  <SCORE>
-28.7638

>  <SCORE.INTER>
-27.6486

>  <SCORE.INTER.CONST>
1

>  <SCORE.INTER.POLAR>
-1.43114

>  <SCORE.INTER.ROT>
5

>  <SCORE.INTER.SOLV>
9.75208

>  <SCORE.INTER.VDW>
-23.846

>  <SCORE.INTER.norm>
-1.72804

>  <SCORE.INTRA>
-1.1152

>  <SCORE.INTRA.DIHEDRAL>
-2.97682

>  <SCORE.INTRA.DIHEDRAL.0>
6.87082

>  <SCORE.INTRA.POLAR>
0

>  <SCORE.INTRA.POLAR.0>
0

>  <SCORE.INTRA.REPUL>
0

>  <SCORE.INTRA.REPUL.0>
0

>  <SCORE.INTRA.SOLV>
0.830005

>  <SCORE.INTRA.SOLV.lig_0>
-42.5944

>  <SCORE.INTRA.VDW>
-0.0417858

>  <SCORE.INTRA.VDW.0>
-1.067

>  <SCORE.INTRA.norm>
-0.0696997

>  <SCORE.RESTR>
0

>  <SCORE.RESTR.CAVITY>
0

>  <SCORE.RESTR.norm>
0

>  <SCORE.SYSTEM>
0

>  <SCORE.SYSTEM.CONST>
0

>  <SCORE.SYSTEM.DIHEDRAL>
0

>  <SCORE.SYSTEM.SOLV>
0

>  <SCORE.SYSTEM.norm>
0

>  <SCORE.heavy>
16

>  <SCORE.norm>
-1.79774

>  <RMSD>
1.511

$$$$
1f27 biotin aptamer (Xray 1.3A)
 OpenBabel11021811393D
libRbt.so/2013.1/901 2013/11/27
 16 17  0  0  0  0  0  0  0  0999 V2000
   21.1356   -0.5525   13.1955 C   0  0  0  0  0  0  0  0  0  0  0  0
   20.2627   -1.4098   13.2864 O   0  5  0  0  0  0  0  0  0  0  0  0
   21.8744   -0.5335   12.2124 O   0  0  0  0  0  0  0  0  0  0  0  0
   21.2608    0.5273   14.2627 C   0  0  0  0  0  0  0  0  0  0  0  0
   20.2731    1.7020   14.0858 C   0  0  0  0  0  0  0  0  0  0  0  0
   18.8429    1.2788   14.3662 C   0  0  0  0  0  0  0  0  0  0  0  0
   17.8149    2.3112   13.9528 C   0  0  0  0  0  0  0  0  0  0  0  0
   16.3561    1.8953   14.1833 C   0  0  2  0  0  0  0  0  0  0  0  0
   15.8631    0.1698   13.5159 S   0  0  0  0  0  0  0  0  0  0  0  0
   14.0498    0.7133   13.7643 C   0  0  0  0  0  0  0  0  0  0  0  0
   14.0342    2.2323   13.4243 C   0  0  2  0  0  0  0  0  0  0  0  0
   13.7233    2.3182   11.9061 N   0  0  0  0  0  0  0  0  0  0  0  0
   14.6301    2.8921   11.2416 C   0  0  0  0  0  0  0  0  0  0  0  0
   14.7899    2.9968    9.9738 O   0  0  0  0  0  0  0  0  0  0  0  0
   15.8139    3.1920   12.0138 N   0  0  0  0  0  0  0  0  0  0  0  0
   15.4180    2.8578   13.4517 C   0  0  2  0  0  0  0  0  0  0  0  0
  1  2  1  0  0  0  0
  1  3  2  0  0  0  0
  1  4  1  0  0  0  0
  4  5  1  0  0  0  0
  5  6  1  0  0  0  0
  6  7  1  0  0  0  0
  8  7  1  6  0  0  0
  8  9  1  0  0  0  0
  8 16  1  0  0  0  0
  9 10  1  0  0  0  0
 11 10  1  6  0  0  0
 11 12  1  0  0  0  0
 11 16  1  0  0  0  0
 12 13  1  0  0  0  0
 13 14  2  0  0  0  0
 13 15  1  0  0  0  0
 16 15  1  6  0  0  0
M  CHG  1   2  -1
M  END
>  <CHROM.1>
-81.34706385,69.62175057,-168.91413895,178.20193171,-49.74501135,17.19126620
1.29745537,13.05044342,-0.34796648,0.19133641,-0.94750787

>  <Name>
1f27 biotin aptamer (Xray 1.3A)

>  <RI>
0

>  <Rbt.Current_Directory>
/home/itssahil/PROJECTS/Mol_Feturizer/New_Systems/rnas/1f27

>  <Rbt.Executable>
rbdock ($Id: //depot/dev/client3/rdock/2013.1/src/exe/rbdock.cxx#4 $)

>  <Rbt.Library>
libRbt.so (2013.1, Build901 2013/11/27)

>  <Rbt.Parameter_File>
/export/apps/rDock/src/rDock_2013.1_src/data/scripts/dock_solv.prm

>  <Rbt.Receptor>
prm/pocket_docking_6.prm

>  <SCORE>
-35.3529

>  <SCORE.INTER>
-33.2919

>  <SCORE.INTER.CONST>
1

>  <SCORE.INTER.POLAR>
-2.73102

>  <SCORE.INTER.ROT>
5

>  <SCORE.INTER.SOLV>
12.7668

>  <SCORE.INTER.VDW>
-24.2801

>  <SCORE.INTER.norm>
-2.08074

>  <SCORE.INTRA>
-2.06099

>  <SCORE.INTRA.DIHEDRAL>
-4.33255

>  <SCORE.INTRA.DIHEDRAL.0>
6.87082

>  <SCORE.INTRA.POLAR>
0

>  <SCORE.INTRA.POLAR.0>
0

>  <SCORE.INTRA.REPUL>
0

>  <SCORE.INTRA.REPUL.0>
0

>  <SCORE.INTRA.SOLV>
0.208688

>  <SCORE.INTRA.SOLV.lig_0>
-42.5944

>  <SCORE.INTRA.VDW>
0.000943433

>  <SCORE.INTRA.VDW.0>
-1.067

>  <SCORE.INTRA.norm>
-0.128812

>  <SCORE.RESTR>
0

>  <SCORE.RESTR.CAVITY>
0

>  <SCORE.RESTR.norm>
0

>  <SCORE.SYSTEM>
0

>  <SCORE.SYSTEM.CONST>
0

>  <SCORE.SYSTEM.DIHEDRAL>
0

>  <SCORE.SYSTEM.SOLV>
0

>  <SCORE.SYSTEM.norm>
0

>  <SCORE.heavy>
16

>  <SCORE.norm>
-2.20956

>  <RMSD>
1.512

$$$$
1f27 biotin aptamer (Xray 1.3A)
 OpenBabel11021811393D
libRbt.so/2013.1/901 2013/11/27
 16 17  0  0  0  0  0  0  0  0999 V2000
   19.7305   -1.7514   13.9653 C   0  0  0  0  0  0  0  0  0  0  0  0
   20.5647   -2.1932   14.7490 O   0  5  0  0  0  0  0  0  0  0  0  0
   19.0026   -2.5255   13.3460 O   0  0  0  0  0  0  0  0  0  0  0  0
   19.5488   -0.2469   13.8100 C   0  0  0  0  0  0  0  0  0  0  0  0
   18.4982    0.1521   12.7497 C   0  0  0  0  0  0  0  0  0  0  0  0
   18.2025    1.6401   12.7861 C   0  0  0  0  0  0  0  0  0  0  0  0
   17.6057    2.1059   14.0978 C   0  0  0  0  0  0  0  0  0  0  0  0
   16.1052    1.8274   14.2572 C   0  0  2  0  0  0  0  0  0  0  0  0
   15.4987    0.1251   13.6247 S   0  0  0  0  0  0  0  0  0  0  0  0
   13.7299    0.8331   13.7465 C   0  0  0  0  0  0  0  0  0  0  0  0
   13.8678    2.3325   13.3517 C   0  0  2  0  0  0  0  0  0  0  0  0
   13.6502    2.3825   11.8157 N   0  0  0  0  0  0  0  0  0  0  0  0
   14.6397    2.8481   11.1853 C   0  0  0  0  0  0  0  0  0  0  0  0
   14.8779    2.8864    9.9261 O   0  0  0  0  0  0  0  0  0  0  0  0
   15.8009    3.0760   12.0143 N   0  0  0  0  0  0  0  0  0  0  0  0
   15.2980    2.8367   13.4376 C   0  0  2  0  0  0  0  0  0  0  0  0
  1  2  1  0  0  0  0
  1  3  2  0  0  0  0
  1  4  1  0  0  0  0
  4  5  1  0  0  0  0
  5  6  1  0  0  0  0
  6  7  1  0  0  0  0
  8  7  1  6  0  0  0
  8  9  1  0  0  0  0
  8 16  1  0  0  0  0
  9 10  1  0  0  0  0
 11 10  1  6  0  0  0
 11 12  1  0  0  0  0
 11 16  1  0  0  0  0
 12 13  1  0  0  0  0
 13 14  2  0  0  0  0
 13 15  1  0  0  0  0
 16 15  1  6  0  0  0
M  CHG  1   2  -1
M  END
>  <CHROM.1>
177.88645150,171.18952789,-62.43037608,-79.45584962,40.81636397,16.60882182
0.91962373,13.07446873,-0.68167923,0.21356396,-0.69950295

>  <Name>
1f27 biotin aptamer (Xray 1.3A)

>  <RI>
0

>  <Rbt.Current_Directory>
/home/itssahil/PROJECTS/Mol_Feturizer/New_Systems/rnas/1f27

>  <Rbt.Executable>
rbdock ($Id: //depot/dev/client3/rdock/2013.1/src/exe/rbdock.cxx#4 $)

>  <Rbt.Library>
libRbt.so (2013.1, Build901 2013/11/27)

>  <Rbt.Parameter_File>
/export/apps/rDock/src/rDock_2013.1_src/data/scripts/dock_solv.prm

>  <Rbt.Receptor>
prm/pocket_docking_6.prm

>  <SCORE>
-28.4031

>  <SCORE.INTER>
-29.2511

>  <SCORE.INTER.CONST>
1

>  <SCORE.INTER.POLAR>
-1.8674

>  <SCORE.INTER.ROT>
5

>  <SCORE.INTER.SOLV>
9.01768

>  <SCORE.INTER.VDW>
-23.2153

>  <SCORE.INTER.norm>
-1.8282

>  <SCORE.INTRA>
0.847993

>  <SCORE.INTRA.DIHEDRAL>
-2.42978

>  <SCORE.INTRA.DIHEDRAL.0>
6.87082

>  <SCORE.INTRA.POLAR>
0

>  <SCORE.INTRA.POLAR.0>
0

>  <SCORE.INTRA.REPUL>
0

>  <SCORE.INTRA.REPUL.0>
0

>  <SCORE.INTRA.SOLV>
0.0374821

>  <SCORE.INTRA.SOLV.lig_0>
-42.5944

>  <SCORE.INTRA.VDW>
2.04414

>  <SCORE.INTRA.VDW.0>
-1.067

>  <SCORE.INTRA.norm>
0.0529995

>  <SCORE.RESTR>
0

>  <SCORE.RESTR.CAVITY>
0

>  <SCORE.RESTR.norm>
0

>  <SCORE.SYSTEM>
0

>  <SCORE.SYSTEM.CONST>
0

>  <SCORE.SYSTEM.DIHEDRAL>
0

>  <SCORE.SYSTEM.SOLV>
0

>  <SCORE.SYSTEM.norm>
0

>  <SCORE.heavy>
16

>  <SCORE.norm>
-1.7752

>  <RMSD>
1.513

$$$$
1f27 biotin aptamer (Xray 1.3A)
 OpenBabel11021811393D
libRbt.so/2013.1/901 2013/11/27
 16 17  0  0  0  0  0  0  0  0999 V2000
   21.1808   -0.4837   13.2505 C   0  0  0  0  0  0  0  0  0  0  0  0
   21.9444   -0.5430   12.2920 O   0  5  0  0  0  0  0  0  0  0  0  0
   20.3742   -1.3910   13.4471 O   0  0  0  0  0  0  0  0  0  0  0  0
   21.2768    0.6758   14.2338 C   0  0  0  0  0  0  0  0  0  0  0  0
   20.2480    1.8003   13.9803 C   0  0  0  0  0  0  0  0  0  0  0  0
   18.8339    1.3469   14.2927 C   0  0  0  0  0  0  0  0  0  0  0  0
   17.7777    2.3719   13.9355 C   0  0  0  0  0  0  0  0  0  0  0  0
   16.3315    1.9117   14.1618 C   0  0  2  0  0  0  0  0  0  0  0  0
   15.8656    0.2157   13.4053 S   0  0  0  0  0  0  0  0  0  0  0  0
   14.0450    0.7045   13.7078 C   0  0  0  0  0  0  0  0  0  0  0  0
   13.9922    2.2393   13.4538 C   0  0  2  0  0  0  0  0  0  0  0  0
   13.6576    2.4029   11.9469 N   0  0  0  0  0  0  0  0  0  0  0  0
   14.5423    3.0328   11.3037 C   0  0  0  0  0  0  0  0  0  0  0  0
   14.6814    3.2115   10.0418 O   0  0  0  0  0  0  0  0  0  0  0  0
   15.7305    3.3151   12.0757 N   0  0  0  0  0  0  0  0  0  0  0  0
   15.3627    2.8927   13.4978 C   0  0  2  0  0  0  0  0  0  0  0  0
  1  2  1  0  0  0  0
  1  3  2  0  0  0  0
  1  4  1  0  0  0  0
  4  5  1  0  0  0  0
  5  6  1  0  0  0  0
  6  7  1  0  0  0  0
  8  7  1  6  0  0  0
  8  9  1  0  0  0  0
  8 16  1  0  0  0  0
  9 10  1  0  0  0  0
 11 10  1  6  0  0  0
 11 12  1  0  0  0  0
 11 16  1  0  0  0  0
 12 13  1  0  0  0  0
 13 14  2  0  0  0  0
 13 15  1  0  0  0  0
 16 15  1  6  0  0  0
M  CHG  1   2  -1
M  END
>  <CHROM.1>
98.55511119,69.08247158,-174.54992748,176.54450218,-50.45887326,17.17506520
1.36586136,13.05490409,-0.37957305,0.12456305,-0.76246120

>  <Name>
1f27 biotin aptamer (Xray 1.3A)

>  <RI>
0

>  <Rbt.Current_Directory>
/home/itssahil/PROJECTS/Mol_Feturizer/New_Systems/rnas/1f27

>  <Rbt.Executable>
rbdock ($Id: //depot/dev/client3/rdock/2013.1/src/exe/rbdock.cxx#4 $)

>  <Rbt.Library>
libRbt.so (2013.1, Build901 2013/11/27)

>  <Rbt.Parameter_File>
/export/apps/rDock/src/rDock_2013.1_src/data/scripts/dock_solv.prm

>  <Rbt.Receptor>
prm/pocket_docking_6.prm

>  <SCORE>
-35.2159

>  <SCORE.INTER>
-32.99

>  <SCORE.INTER.CONST>
1

>  <SCORE.INTER.POLAR>
-2.6482

>  <SCORE.INTER.ROT>
5

>  <SCORE.INTER.SOLV>
12.1767

>  <SCORE.INTER.VDW>
-24.1583

>  <SCORE.INTER.norm>
-2.06188

>  <SCORE.INTRA>
-2.22587

>  <SCORE.INTRA.DIHEDRAL>
-4.56647

>  <SCORE.INTRA.DIHEDRAL.0>
6.87082

>  <SCORE.INTRA.POLAR>
0

>  <SCORE.INTRA.POLAR.0>
0

>  <SCORE.INTRA.REPUL>
0

>  <SCORE.INTRA.REPUL.0>
0

>  <SCORE.INTRA.SOLV>
0.117573

>  <SCORE.INTRA.SOLV.lig_0>
-42.5944

>  <SCORE.INTRA.VDW>
-0.00142504

>  <SCORE.INTRA.VDW.0>
-1.067

>  <SCORE.INTRA.norm>
-0.139117

>  <SCORE.RESTR>
0

>  <SCORE.RESTR.CAVITY>
0

>  <SCORE.RESTR.norm>
0

>  <SCORE.SYSTEM>
0

>  <SCORE.SYSTEM.CONST>
0

>  <SCORE.SYSTEM.DIHEDRAL>
0

>  <SCORE.SYSTEM.SOLV>
0

>  <SCORE.SYSTEM.norm>
0

>  <SCORE.heavy>
16

>  <SCORE.norm>
-2.201

>  <RMSD>
1.516

$$$$
1f27 biotin aptamer (Xray 1.3A)
 OpenBabel11021811393D
libRbt.so/2013.1/901 2013/11/27
 16 17  0  0  0  0  0  0  0  0999 V2000
   20.3254   -1.2367   13.0505 C   0  0  0  0  0  0  0  0  0  0  0  0
   21.2759   -1.5702   13.7510 O   0  5  0  0  0  0  0  0  0  0  0  0
   19.3333   -1.9602   12.9808 O   0  0  0  0  0  0  0  0  0  0  0  0
   20.3443    0.1014   12.3227 C   0  0  0  0  0  0  0  0  0  0  0  0
   19.6491    1.2452   13.0944 C   0  0  0  0  0  0  0  0  0  0  0  0
   18.1466    1.0434   13.1619 C   0  0  0  0  0  0  0  0  0  0  0  0
   17.4591    1.9506   14.1609 C   0  0  0  0  0  0  0  0  0  0  0  0
   15.9420    1.7510   14.2741 C   0  0  2  0  0  0  0  0  0  0  0  0
   15.2692    0.0756   13.6368 S   0  0  0  0  0  0  0  0  0  0  0  0
   13.5361    0.8743   13.6954 C   0  0  0  0  0  0  0  0  0  0  0  0
   13.7635    2.3606   13.2925 C   0  0  2  0  0  0  0  0  0  0  0  0
   13.5978    2.4062   11.7499 N   0  0  0  0  0  0  0  0  0  0  0  0
   14.6295    2.8141   11.1479 C   0  0  0  0  0  0  0  0  0  0  0  0
   14.9094    2.8275    9.8968 O   0  0  0  0  0  0  0  0  0  0  0  0
   15.7739    2.9907   12.0120 N   0  0  0  0  0  0  0  0  0  0  0  0
   15.2143    2.7918   13.4203 C   0  0  2  0  0  0  0  0  0  0  0  0
  1  2  1  0  0  0  0
  1  3  2  0  0  0  0
  1  4  1  0  0  0  0
  4  5  1  0  0  0  0
  5  6  1  0  0  0  0
  6  7  1  0  0  0  0
  8  7  1  6  0  0  0
  8  9  1  0  0  0  0
  8 16  1  0  0  0  0
  9 10  1  0  0  0  0
 11 10  1  6  0  0  0
 11 12  1  0  0  0  0
 11 16  1  0  0  0  0
 12 13  1  0  0  0  0
 13 14  2  0  0  0  0
 13 15  1  0  0  0  0
 16 15  1  6  0  0  0
M  CHG  1   2  -1
M  END
>  <CHROM.1>
-94.40824279,-69.28786515,166.86245363,-178.79439754,19.97039261,16.74379665
1.04440433,12.88659862,-0.43469385,0.25850670,-0.79453142

>  <Name>
1f27 biotin aptamer (Xray 1.3A)

>  <RI>
0

>  <Rbt.Current_Directory>
/home/itssahil/PROJECTS/Mol_Feturizer/New_Systems/rnas/1f27

>  <Rbt.Executable>
rbdock ($Id: //depot/dev/client3/rdock/2013.1/src/exe/rbdock.cxx#4 $)

>  <Rbt.Library>
libRbt.so (2013.1, Build901 2013/11/27)

>  <Rbt.Parameter_File>
/export/apps/rDock/src/rDock_2013.1_src/data/scripts/dock_solv.prm

>  <Rbt.Receptor>
prm/pocket_docking_6.prm

>  <SCORE>
-28.9161

>  <SCORE.INTER>
-29.3904

>  <SCORE.INTER.CONST>
1

>  <SCORE.INTER.POLAR>
-1.84643

>  <SCORE.INTER.ROT>
5

>  <SCORE.INTER.SOLV>
9.91845

>  <SCORE.INTER.VDW>
-23.6783

>  <SCORE.INTER.norm>
-1.8369

>  <SCORE.INTRA>
0.4743

>  <SCORE.INTRA.DIHEDRAL>
-0.22529

>  <SCORE.INTRA.DIHEDRAL.0>
6.87082

>  <SCORE.INTRA.POLAR>
0

>  <SCORE.INTRA.POLAR.0>
0

>  <SCORE.INTRA.REPUL>
0

>  <SCORE.INTRA.REPUL.0>
0

>  <SCORE.INTRA.SOLV>
0.580232

>  <SCORE.INTRA.SOLV.lig_0>
-42.5944

>  <SCORE.INTRA.VDW>
0.296829

>  <SCORE.INTRA.VDW.0>
-1.067

>  <SCORE.INTRA.norm>
0.0296437

>  <SCORE.RESTR>
0

>  <SCORE.RESTR.CAVITY>
0

>  <SCORE.RESTR.norm>
0

>  <SCORE.SYSTEM>
0

>  <SCORE.SYSTEM.CONST>
0

>  <SCORE.SYSTEM.DIHEDRAL>
0

>  <SCORE.SYSTEM.SOLV>
0

>  <SCORE.SYSTEM.norm>
0

>  <SCORE.heavy>
16

>  <SCORE.norm>
-1.80726

>  <RMSD>
1.516

$$$$
1f27 biotin aptamer (Xray 1.3A)
 OpenBabel11021811393D
libRbt.so/2013.1/901 2013/11/27
 16 17  0  0  0  0  0  0  0  0999 V2000
   20.8010   -1.2142   14.4296 C   0  0  0  0  0  0  0  0  0  0  0  0
   21.2290   -2.3330   14.1643 O   0  5  0  0  0  0  0  0  0  0  0  0
   20.4926   -0.9358   15.5871 O   0  0  0  0  0  0  0  0  0  0  0  0
   20.7159   -0.1506   13.3424 C   0  0  0  0  0  0  0  0  0  0  0  0
   19.9358    1.1151   13.7625 C   0  0  0  0  0  0  0  0  0  0  0  0
   18.4588    0.8248   13.9554 C   0  0  0  0  0  0  0  0  0  0  0  0
   17.6072    2.0721   14.0680 C   0  0  0  0  0  0  0  0  0  0  0  0
   16.1050    1.8124   14.2418 C   0  0  2  0  0  0  0  0  0  0  0  0
   15.4708    0.1189   13.6127 S   0  0  0  0  0  0  0  0  0  0  0  0
   13.7123    0.8490   13.7530 C   0  0  0  0  0  0  0  0  0  0  0  0
   13.8654    2.3472   13.3590 C   0  0  2  0  0  0  0  0  0  0  0  0
   13.6333    2.4025   11.8253 N   0  0  0  0  0  0  0  0  0  0  0  0
   14.6224    2.8565   11.1859 C   0  0  0  0  0  0  0  0  0  0  0  0
   14.8487    2.8938    9.9245 O   0  0  0  0  0  0  0  0  0  0  0  0
   15.7945    3.0683   12.0038 N   0  0  0  0  0  0  0  0  0  0  0  0
   15.3026    2.8331   13.4316 C   0  0  2  0  0  0  0  0  0  0  0  0
  1  2  1  0  0  0  0
  1  3  2  0  0  0  0
  1  4  1  0  0  0  0
  4  5  1  0  0  0  0
  5  6  1  0  0  0  0
  6  7  1  0  0  0  0
  8  7  1  6  0  0  0
  8  9  1  0  0  0  0
  8 16  1  0  0  0  0
  9 10  1  0  0  0  0
 11 10  1  6  0  0  0
 11 12  1  0  0  0  0
 11 16  1  0  0  0  0
 12 13  1  0  0  0  0
 13 14  2  0  0  0  0
 13 15  1  0  0  0  0
 16 15  1  6  0  0  0
M  CHG  1   2  -1
M  END
>  <CHROM.1>
169.89738629,-67.86793649,-167.36110650,179.08348929,-23.31642893,16.95953758
1.05516200,13.30134136,-0.55131642,0.14569831,-0.84049328

>  <Name>
1f27 biotin aptamer (Xray 1.3A)

>  <RI>
0

>  <Rbt.Current_Directory>
/home/itssahil/PROJECTS/Mol_Feturizer/New_Systems/rnas/1f27

>  <Rbt.Executable>
rbdock ($Id: //depot/dev/client3/rdock/2013.1/src/exe/rbdock.cxx#4 $)

>  <Rbt.Library>
libRbt.so (2013.1, Build901 2013/11/27)

>  <Rbt.Parameter_File>
/export/apps/rDock/src/rDock_2013.1_src/data/scripts/dock_solv.prm

>  <Rbt.Receptor>
prm/pocket_docking_2.prm

>  <SCORE>
-28.038

>  <SCORE.INTER>
-28.9225

>  <SCORE.INTER.CONST>
1

>  <SCORE.INTER.POLAR>
-1.84857

>  <SCORE.INTER.ROT>
5

>  <SCORE.INTER.SOLV>
8.1171

>  <SCORE.INTER.VDW>
-22.7588

>  <SCORE.INTER.norm>
-1.80766

>  <SCORE.INTRA>
0.869399

>  <SCORE.INTRA.DIHEDRAL>
-0.745448

>  <SCORE.INTRA.DIHEDRAL.0>
6.87082

>  <SCORE.INTRA.POLAR>
0

>  <SCORE.INTRA.POLAR.0>
0

>  <SCORE.INTRA.REPUL>
0

>  <SCORE.INTRA.REPUL.0>
0

>  <SCORE.INTRA.SOLV>
0.310247

>  <SCORE.INTRA.SOLV.lig_0>
-42.5944

>  <SCORE.INTRA.VDW>
1.087

>  <SCORE.INTRA.VDW.0>
-1.067

>  <SCORE.INTRA.norm>
0.0543375

>  <SCORE.RESTR>
0.0150858

>  <SCORE.RESTR.CAVITY>
0.0150858

>  <SCORE.RESTR.norm>
0.000942864

>  <SCORE.SYSTEM>
0

>  <SCORE.SYSTEM.CONST>
0

>  <SCORE.SYSTEM.DIHEDRAL>
0

>  <SCORE.SYSTEM.SOLV>
0

>  <SCORE.SYSTEM.norm>
0

>  <SCORE.heavy>
16

>  <SCORE.norm>
-1.75238

>  <RMSD>
1.518

$$$$
1f27 biotin aptamer (Xray 1.3A)
 OpenBabel11021811393D
libRbt.so/2013.1/901 2013/11/27
 16 17  0  0  0  0  0  0  0  0999 V2000
   21.1980   -0.8464   14.5678 C   0  0  0  0  0  0  0  0  0  0  0  0
   21.6656   -1.2124   13.4942 O   0  5  0  0  0  0  0  0  0  0  0  0
   20.6818   -1.6689   15.3225 O   0  0  0  0  0  0  0  0  0  0  0  0
   21.3168    0.6106   14.9965 C   0  0  0  0  0  0  0  0  0  0  0  0
   20.3317    1.5587   14.2769 C   0  0  0  0  0  0  0  0  0  0  0  0
   18.8880    1.1850   14.5576 C   0  0  0  0  0  0  0  0  0  0  0  0
   17.8856    2.1253   13.9215 C   0  0  0  0  0  0  0  0  0  0  0  0
   16.4154    1.7594   14.1647 C   0  0  2  0  0  0  0  0  0  0  0  0
   15.8559    0.0554   13.4947 S   0  0  0  0  0  0  0  0  0  0  0  0
   14.0652    0.6606   13.7634 C   0  0  0  0  0  0  0  0  0  0  0  0
   14.0994    2.1808   13.4302 C   0  0  2  0  0  0  0  0  0  0  0  0
   13.7769    2.2846   11.9155 N   0  0  0  0  0  0  0  0  0  0  0  0
   14.6967    2.8296   11.2446 C   0  0  0  0  0  0  0  0  0  0  0  0
   14.8476    2.9347    9.9758 O   0  0  0  0  0  0  0  0  0  0  0  0
   15.8977    3.0844   12.0063 N   0  0  0  0  0  0  0  0  0  0  0  0
   15.5044    2.7576   13.4466 C   0  0  2  0  0  0  0  0  0  0  0  0
  1  2  1  0  0  0  0
  1  3  2  0  0  0  0
  1  4  1  0  0  0  0
  4  5  1  0  0  0  0
  5  6  1  0  0  0  0
  6  7  1  0  0  0  0
  8  7  1  6  0  0  0
  8  9  1  0  0  0  0
  8 16  1  0  0  0  0
  9 10  1  0  0  0  0
 11 10  1  6  0  0  0
 11 12  1  0  0  0  0
 11 16  1  0  0  0  0
 12 13  1  0  0  0  0
 13 14  2  0  0  0  0
 13 15  1  0  0  0  0
 16 15  1  6  0  0  0
M  CHG  1   2  -1
M  END
>  <CHROM.1>
76.44325285,61.31272033,177.44709795,178.90177284,-61.03442742,17.24820267
1.15232003,13.39552360,0.52005351,0.03528882,2.46260788

>  <Name>
1f27 biotin aptamer (Xray 1.3A)

>  <RI>
0

>  <Rbt.Current_Directory>
/home/itssahil/PROJECTS/Mol_Feturizer/New_Systems/rnas/1f27

>  <Rbt.Executable>
rbdock ($Id: //depot/dev/client3/rdock/2013.1/src/exe/rbdock.cxx#4 $)

>  <Rbt.Library>
libRbt.so (2013.1, Build901 2013/11/27)

>  <Rbt.Parameter_File>
/export/apps/rDock/src/rDock_2013.1_src/data/scripts/dock_solv.prm

>  <Rbt.Receptor>
prm/pocket_docking_3.prm

>  <SCORE>
-32.0077

>  <SCORE.INTER>
-29.4275

>  <SCORE.INTER.CONST>
1

>  <SCORE.INTER.POLAR>
-1.78262

>  <SCORE.INTER.ROT>
5

>  <SCORE.INTER.SOLV>
9.28149

>  <SCORE.INTER.VDW>
-23.7034

>  <SCORE.INTER.norm>
-1.83922

>  <SCORE.INTRA>
-2.58023

>  <SCORE.INTRA.DIHEDRAL>
-5.38891

>  <SCORE.INTRA.DIHEDRAL.0>
6.87082

>  <SCORE.INTRA.POLAR>
0

>  <SCORE.INTRA.POLAR.0>
0

>  <SCORE.INTRA.REPUL>
0

>  <SCORE.INTRA.REPUL.0>
0

>  <SCORE.INTRA.SOLV>
0.0763481

>  <SCORE.INTRA.SOLV.lig_0>
-42.5944

>  <SCORE.INTRA.VDW>
0.0760457

>  <SCORE.INTRA.VDW.0>
-1.067

>  <SCORE.INTRA.norm>
-0.161265

>  <SCORE.RESTR>
0

>  <SCORE.RESTR.CAVITY>
0

>  <SCORE.RESTR.norm>
0

>  <SCORE.SYSTEM>
0

>  <SCORE.SYSTEM.CONST>
0

>  <SCORE.SYSTEM.DIHEDRAL>
0

>  <SCORE.SYSTEM.SOLV>
0

>  <SCORE.SYSTEM.norm>
0

>  <SCORE.heavy>
16

>  <SCORE.norm>
-2.00048

>  <RMSD>
1.518

$$$$
1f27 biotin aptamer (Xray 1.3A)
 OpenBabel11021811393D
libRbt.so/2013.1/901 2013/11/27
 16 17  0  0  0  0  0  0  0  0999 V2000
   21.1233   -0.4841   13.2472 C   0  0  0  0  0  0  0  0  0  0  0  0
   21.8720   -0.5264   12.2760 O   0  5  0  0  0  0  0  0  0  0  0  0
   20.2981   -1.3789   13.4229 O   0  0  0  0  0  0  0  0  0  0  0  0
   21.2604    0.6366   14.2698 C   0  0  0  0  0  0  0  0  0  0  0  0
   20.2463    1.7867   14.0800 C   0  0  0  0  0  0  0  0  0  0  0  0
   18.8211    1.3219   14.3159 C   0  0  0  0  0  0  0  0  0  0  0  0
   17.7797    2.3652   13.9682 C   0  0  0  0  0  0  0  0  0  0  0  0
   16.3272    1.9245   14.1927 C   0  0  2  0  0  0  0  0  0  0  0  0
   15.8614    0.1987   13.5069 S   0  0  0  0  0  0  0  0  0  0  0  0
   14.0397    0.7117   13.7587 C   0  0  0  0  0  0  0  0  0  0  0  0
   14.0012    2.2337   13.4344 C   0  0  2  0  0  0  0  0  0  0  0  0
   13.6906    2.3306   11.9167 N   0  0  0  0  0  0  0  0  0  0  0  0
   14.5892    2.9252   11.2593 C   0  0  0  0  0  0  0  0  0  0  0  0
   14.7487    3.0454    9.9929 O   0  0  0  0  0  0  0  0  0  0  0  0
   15.7675    3.2352   12.0360 N   0  0  0  0  0  0  0  0  0  0  0  0
   15.3752    2.8801   13.4700 C   0  0  2  0  0  0  0  0  0  0  0  0
  1  2  1  0  0  0  0
  1  3  2  0  0  0  0
  1  4  1  0  0  0  0
  4  5  1  0  0  0  0
  5  6  1  0  0  0  0
  6  7  1  0  0  0  0
  8  7  1  6  0  0  0
  8  9  1  0  0  0  0
  8 16  1  0  0  0  0
  9 10  1  0  0  0  0
 11 10  1  6  0  0  0
 11 12  1  0  0  0  0
 11 16  1  0  0  0  0
 12 13  1  0  0  0  0
 13 14  2  0  0  0  0
 13 15  1  0  0  0  0
 16 15  1  6  0  0  0
M  CHG  1   2  -1
M  END
>  <CHROM.1>
99.11163274,65.25218770,-172.54285269,179.86783350,-47.21860685,17.17196103
1.33496782,13.06888155,-0.36134033,0.16075207,-0.88181937

>  <Name>
1f27 biotin aptamer (Xray 1.3A)

>  <RI>
0

>  <Rbt.Current_Directory>
/home/itssahil/PROJECTS/Mol_Feturizer/New_Systems/rnas/1f27

>  <Rbt.Executable>
rbdock ($Id: //depot/dev/client3/rdock/2013.1/src/exe/rbdock.cxx#4 $)

>  <Rbt.Library>
libRbt.so (2013.1, Build901 2013/11/27)

>  <Rbt.Parameter_File>
/export/apps/rDock/src/rDock_2013.1_src/data/scripts/dock_solv.prm

>  <Rbt.Receptor>
prm/pocket_docking_8.prm

>  <SCORE>
-35.4318

>  <SCORE.INTER>
-33.399

>  <SCORE.INTER.CONST>
1

>  <SCORE.INTER.POLAR>
-2.67442

>  <SCORE.INTER.ROT>
5

>  <SCORE.INTER.SOLV>
12.4083

>  <SCORE.INTER.VDW>
-24.4207

>  <SCORE.INTER.norm>
-2.08744

>  <SCORE.INTRA>
-2.03279

>  <SCORE.INTRA.DIHEDRAL>
-4.43156

>  <SCORE.INTRA.DIHEDRAL.0>
6.87082

>  <SCORE.INTRA.POLAR>
0

>  <SCORE.INTRA.POLAR.0>
0

>  <SCORE.INTRA.REPUL>
0

>  <SCORE.INTRA.REPUL.0>
0

>  <SCORE.INTRA.SOLV>
0.193191

>  <SCORE.INTRA.SOLV.lig_0>
-42.5944

>  <SCORE.INTRA.VDW>
0.0863943

>  <SCORE.INTRA.VDW.0>
-1.067

>  <SCORE.INTRA.norm>
-0.127049

>  <SCORE.RESTR>
0

>  <SCORE.RESTR.CAVITY>
0

>  <SCORE.RESTR.norm>
0

>  <SCORE.SYSTEM>
0

>  <SCORE.SYSTEM.CONST>
0

>  <SCORE.SYSTEM.DIHEDRAL>
0

>  <SCORE.SYSTEM.SOLV>
0

>  <SCORE.SYSTEM.norm>
0

>  <SCORE.heavy>
16

>  <SCORE.norm>
-2.21449

>  <RMSD>
1.519

$$$$
1f27 biotin aptamer (Xray 1.3A)
 OpenBabel11021811393D
libRbt.so/2013.1/901 2013/11/27
 16 17  0  0  0  0  0  0  0  0999 V2000
   20.6285   -1.2934   14.3868 C   0  0  0  0  0  0  0  0  0  0  0  0
   20.6728   -2.4653   14.0260 O   0  5  0  0  0  0  0  0  0  0  0  0
   20.5095   -1.0251   15.5811 O   0  0  0  0  0  0  0  0  0  0  0  0
   20.7890   -0.1730   13.3672 C   0  0  0  0  0  0  0  0  0  0  0  0
   19.9877    1.1036   13.7064 C   0  0  0  0  0  0  0  0  0  0  0  0
   18.5136    0.8035   13.9061 C   0  0  0  0  0  0  0  0  0  0  0  0
   17.6551    2.0451   14.0289 C   0  0  0  0  0  0  0  0  0  0  0  0
   16.1583    1.7754   14.2317 C   0  0  2  0  0  0  0  0  0  0  0  0
   15.5146    0.0962   13.5746 S   0  0  0  0  0  0  0  0  0  0  0  0
   13.7577    0.8158   13.7756 C   0  0  0  0  0  0  0  0  0  0  0  0
   13.8965    2.3242   13.4168 C   0  0  2  0  0  0  0  0  0  0  0  0
   13.6276    2.4180   11.8910 N   0  0  0  0  0  0  0  0  0  0  0  0
   14.5995    2.8920   11.2401 C   0  0  0  0  0  0  0  0  0  0  0  0
   14.7955    2.9627    9.9751 O   0  0  0  0  0  0  0  0  0  0  0  0
   15.7902    3.0872   12.0350 N   0  0  0  0  0  0  0  0  0  0  0  0
   15.3335    2.8135   13.4676 C   0  0  2  0  0  0  0  0  0  0  0  0
  1  2  1  0  0  0  0
  1  3  2  0  0  0  0
  1  4  1  0  0  0  0
  4  5  1  0  0  0  0
  5  6  1  0  0  0  0
  6  7  1  0  0  0  0
  8  7  1  6  0  0  0
  8  9  1  0  0  0  0
  8 16  1  0  0  0  0
  9 10  1  0  0  0  0
 11 10  1  6  0  0  0
 11 12  1  0  0  0  0
 11 16  1  0  0  0  0
 12 13  1  0  0  0  0
 13 14  2  0  0  0  0
 13 15  1  0  0  0  0
 16 15  1  6  0  0  0
M  CHG  1   2  -1
M  END
>  <CHROM.1>
147.77753736,-55.09797278,-171.10621047,179.99814228,-25.09411209,16.93789985
1.03127465,13.29558266,0.57382343,-0.11338598,2.38109028

>  <Name>
1f27 biotin aptamer (Xray 1.3A)

>  <RI>
0

>  <Rbt.Current_Directory>
/home/itssahil/PROJECTS/Mol_Feturizer/New_Systems/rnas/1f27

>  <Rbt.Executable>
rbdock ($Id: //depot/dev/client3/rdock/2013.1/src/exe/rbdock.cxx#4 $)

>  <Rbt.Library>
libRbt.so (2013.1, Build901 2013/11/27)

>  <Rbt.Parameter_File>
/export/apps/rDock/src/rDock_2013.1_src/data/scripts/dock_solv.prm

>  <Rbt.Receptor>
prm/pocket_docking_2.prm

>  <SCORE>
-28.1233

>  <SCORE.INTER>
-28.5561

>  <SCORE.INTER.CONST>
1

>  <SCORE.INTER.POLAR>
-1.82449

>  <SCORE.INTER.ROT>
5

>  <SCORE.INTER.SOLV>
7.88362

>  <SCORE.INTER.VDW>
-22.5169

>  <SCORE.INTER.norm>
-1.78475

>  <SCORE.INTRA>
0.429153

>  <SCORE.INTRA.DIHEDRAL>
-1.50817

>  <SCORE.INTRA.DIHEDRAL.0>
6.87082

>  <SCORE.INTRA.POLAR>
0

>  <SCORE.INTRA.POLAR.0>
0

>  <SCORE.INTRA.REPUL>
0

>  <SCORE.INTRA.REPUL.0>
0

>  <SCORE.INTRA.SOLV>
0.409233

>  <SCORE.INTRA.SOLV.lig_0>
-42.5944

>  <SCORE.INTRA.VDW>
0.978623

>  <SCORE.INTRA.VDW.0>
-1.067

>  <SCORE.INTRA.norm>
0.0268221

>  <SCORE.RESTR>
0.00362447

>  <SCORE.RESTR.CAVITY>
0.00362447

>  <SCORE.RESTR.norm>
0.00022653

>  <SCORE.SYSTEM>
0

>  <SCORE.SYSTEM.CONST>
0

>  <SCORE.SYSTEM.DIHEDRAL>
0

>  <SCORE.SYSTEM.SOLV>
0

>  <SCORE.SYSTEM.norm>
0

>  <SCORE.heavy>
16

>  <SCORE.norm>
-1.75771

>  <RMSD>
1.521

$$$$
1f27 biotin aptamer (Xray 1.3A)
 OpenBabel11021811393D
libRbt.so/2013.1/901 2013/11/27
 16 17  0  0  0  0  0  0  0  0999 V2000
   21.1465   -0.5026   13.2881 C   0  0  0  0  0  0  0  0  0  0  0  0
   21.8990   -0.5935   12.3232 O   0  5  0  0  0  0  0  0  0  0  0  0
   20.3497   -1.4077   13.5298 O   0  0  0  0  0  0  0  0  0  0  0  0
   21.2449    0.6951   14.2241 C   0  0  0  0  0  0  0  0  0  0  0  0
   20.2103    1.8052   13.9336 C   0  0  0  0  0  0  0  0  0  0  0  0
   18.7949    1.3424   14.2256 C   0  0  0  0  0  0  0  0  0  0  0  0
   17.7429    2.3909   13.9293 C   0  0  0  0  0  0  0  0  0  0  0  0
   16.2955    1.9292   14.1444 C   0  0  2  0  0  0  0  0  0  0  0  0
   15.8335    0.2388   13.3731 S   0  0  0  0  0  0  0  0  0  0  0  0
   14.0114    0.7256   13.6693 C   0  0  0  0  0  0  0  0  0  0  0  0
   13.9600    2.2623   13.4262 C   0  0  2  0  0  0  0  0  0  0  0  0
   13.6336    2.4368   11.9188 N   0  0  0  0  0  0  0  0  0  0  0  0
   14.5218    3.0712   11.2849 C   0  0  0  0  0  0  0  0  0  0  0  0
   14.6677    3.2590   10.0251 O   0  0  0  0  0  0  0  0  0  0  0  0
   15.7059    3.3478   12.0653 N   0  0  0  0  0  0  0  0  0  0  0  0
   15.3303    2.9151   13.4823 C   0  0  2  0  0  0  0  0  0  0  0  0
  1  2  1  0  0  0  0
  1  3  2  0  0  0  0
  1  4  1  0  0  0  0
  4  5  1  0  0  0  0
  5  6  1  0  0  0  0
  6  7  1  0  0  0  0
  8  7  1  6  0  0  0
  8  9  1  0  0  0  0
  8 16  1  0  0  0  0
  9 10  1  0  0  0  0
 11 10  1  6  0  0  0
 11 12  1  0  0  0  0
 11 16  1  0  0  0  0
 12 13  1  0  0  0  0
 13 14  2  0  0  0  0
 13 15  1  0  0  0  0
 16 15  1  6  0  0  0
M  CHG  1   2  -1
M  END
>  <CHROM.1>
98.16072929,67.00097089,-178.88014332,176.95265452,-47.84554622,17.14406666
1.37950624,13.04266993,-0.39410518,0.11054804,-0.72461404

>  <Name>
1f27 biotin aptamer (Xray 1.3A)

>  <RI>
0

>  <Rbt.Current_Directory>
/home/itssahil/PROJECTS/Mol_Feturizer/New_Systems/rnas/1f27

>  <Rbt.Executable>
rbdock ($Id: //depot/dev/client3/rdock/2013.1/src/exe/rbdock.cxx#4 $)

>  <Rbt.Library>
libRbt.so (2013.1, Build901 2013/11/27)

>  <Rbt.Parameter_File>
/export/apps/rDock/src/rDock_2013.1_src/data/scripts/dock_solv.prm

>  <Rbt.Receptor>
prm/pocket_docking_6.prm

>  <SCORE>
-35.1008

>  <SCORE.INTER>
-32.9279

>  <SCORE.INTER.CONST>
1

>  <SCORE.INTER.POLAR>
-2.62446

>  <SCORE.INTER.ROT>
5

>  <SCORE.INTER.SOLV>
11.8788

>  <SCORE.INTER.VDW>
-24.0966

>  <SCORE.INTER.norm>
-2.05799

>  <SCORE.INTRA>
-2.17296

>  <SCORE.INTRA.DIHEDRAL>
-4.59724

>  <SCORE.INTRA.DIHEDRAL.0>
6.87082

>  <SCORE.INTRA.POLAR>
0

>  <SCORE.INTRA.POLAR.0>
0

>  <SCORE.INTRA.REPUL>
0

>  <SCORE.INTRA.REPUL.0>
0

>  <SCORE.INTRA.SOLV>
0.134656

>  <SCORE.INTRA.SOLV.lig_0>
-42.5944

>  <SCORE.INTRA.VDW>
0.0583327

>  <SCORE.INTRA.VDW.0>
-1.067

>  <SCORE.INTRA.norm>
-0.13581

>  <SCORE.RESTR>
0

>  <SCORE.RESTR.CAVITY>
0

>  <SCORE.RESTR.norm>
0

>  <SCORE.SYSTEM>
0

>  <SCORE.SYSTEM.CONST>
0

>  <SCORE.SYSTEM.DIHEDRAL>
0

>  <SCORE.SYSTEM.SOLV>
0

>  <SCORE.SYSTEM.norm>
0

>  <SCORE.heavy>
16

>  <SCORE.norm>
-2.1938

>  <RMSD>
1.521

$$$$
1f27 biotin aptamer (Xray 1.3A)
 OpenBabel11021811393D
libRbt.so/2013.1/901 2013/11/27
 16 17  0  0  0  0  0  0  0  0999 V2000
   21.0855   -1.0434   12.7678 C   0  0  0  0  0  0  0  0  0  0  0  0
   20.9733   -1.9888   11.9938 O   0  5  0  0  0  0  0  0  0  0  0  0
   22.0441   -0.9926   13.5365 O   0  0  0  0  0  0  0  0  0  0  0  0
   20.0783    0.0989   12.7304 C   0  0  0  0  0  0  0  0  0  0  0  0
   19.7719    0.7108   14.1156 C   0  0  0  0  0  0  0  0  0  0  0  0
   18.5238    1.5735   14.0835 C   0  0  0  0  0  0  0  0  0  0  0  0
   17.2705    0.8098   13.7097 C   0  0  0  0  0  0  0  0  0  0  0  0
   15.9664    1.4066   14.2550 C   0  0  2  0  0  0  0  0  0  0  0  0
   14.3608    0.4734   13.7895 S   0  0  0  0  0  0  0  0  0  0  0  0
   13.4182    2.0262   14.3771 C   0  0  0  0  0  0  0  0  0  0  0  0
   14.3249    3.2251   13.9726 C   0  0  2  0  0  0  0  0  0  0  0  0
   13.8652    3.6355   12.5480 N   0  0  0  0  0  0  0  0  0  0  0  0
   14.7818    3.5545   11.6840 C   0  0  0  0  0  0  0  0  0  0  0  0
   14.7293    3.6533   10.4068 O   0  0  0  0  0  0  0  0  0  0  0  0
   15.9960    2.9495   12.1811 N   0  0  0  0  0  0  0  0  0  0  0  0
   15.7576    2.8112   13.6845 C   0  0  2  0  0  0  0  0  0  0  0  0
  1  2  1  0  0  0  0
  1  3  2  0  0  0  0
  1  4  1  0  0  0  0
  4  5  1  0  0  0  0
  5  6  1  0  0  0  0
  6  7  1  0  0  0  0
  8  7  1  6  0  0  0
  8  9  1  0  0  0  0
  8 16  1  0  0  0  0
  9 10  1  0  0  0  0
 11 10  1  6  0  0  0
 11 12  1  0  0  0  0
 11 16  1  0  0  0  0
 12 13  1  0  0  0  0
 13 14  2  0  0  0  0
 13 15  1  0  0  0  0
 16 15  1  6  0  0  0
M  CHG  1   2  -1
M  END
>  <CHROM.1>
145.16948676,-165.07304681,61.67815482,153.55068703,179.53290164,16.90112710
1.33635867,13.13182921,-0.33461991,0.36554665,-0.84254141

>  <Name>
1f27 biotin aptamer (Xray 1.3A)

>  <RI>
0

>  <Rbt.Current_Directory>
/home/itssahil/PROJECTS/Mol_Feturizer/New_Systems/rnas/1f27

>  <Rbt.Executable>
rbdock ($Id: //depot/dev/client3/rdock/2013.1/src/exe/rbdock.cxx#4 $)

>  <Rbt.Library>
libRbt.so (2013.1, Build901 2013/11/27)

>  <Rbt.Parameter_File>
/export/apps/rDock/src/rDock_2013.1_src/data/scripts/dock_solv.prm

>  <Rbt.Receptor>
prm/pocket_docking_2.prm

>  <SCORE>
-23.9649

>  <SCORE.INTER>
-23.7012

>  <SCORE.INTER.CONST>
1

>  <SCORE.INTER.POLAR>
-0.821317

>  <SCORE.INTER.ROT>
5

>  <SCORE.INTER.SOLV>
11.8184

>  <SCORE.INTER.VDW>
-23.9358

>  <SCORE.INTER.norm>
-1.48132

>  <SCORE.INTRA>
-0.263772

>  <SCORE.INTRA.DIHEDRAL>
-2.31974

>  <SCORE.INTRA.DIHEDRAL.0>
6.87082

>  <SCORE.INTRA.POLAR>
0

>  <SCORE.INTRA.POLAR.0>
0

>  <SCORE.INTRA.REPUL>
0

>  <SCORE.INTRA.REPUL.0>
0

>  <SCORE.INTRA.SOLV>
-0.65565

>  <SCORE.INTRA.SOLV.lig_0>
-42.5944

>  <SCORE.INTRA.VDW>
1.22392

>  <SCORE.INTRA.VDW.0>
-1.067

>  <SCORE.INTRA.norm>
-0.0164857

>  <SCORE.RESTR>
0

>  <SCORE.RESTR.CAVITY>
0

>  <SCORE.RESTR.norm>
0

>  <SCORE.SYSTEM>
0

>  <SCORE.SYSTEM.CONST>
0

>  <SCORE.SYSTEM.DIHEDRAL>
0

>  <SCORE.SYSTEM.SOLV>
0

>  <SCORE.SYSTEM.norm>
0

>  <SCORE.heavy>
16

>  <SCORE.norm>
-1.49781

>  <RMSD>
1.523

$$$$
1f27 biotin aptamer (Xray 1.3A)
 OpenBabel11021811393D
libRbt.so/2013.1/901 2013/11/27
 16 17  0  0  0  0  0  0  0  0999 V2000
   21.1397   -0.4833   13.2669 C   0  0  0  0  0  0  0  0  0  0  0  0
   21.8937   -0.5372   12.3005 O   0  5  0  0  0  0  0  0  0  0  0  0
   20.3228   -1.3830   13.4563 O   0  0  0  0  0  0  0  0  0  0  0  0
   21.2600    0.6587   14.2678 C   0  0  0  0  0  0  0  0  0  0  0  0
   20.2457    1.8018   14.0405 C   0  0  0  0  0  0  0  0  0  0  0  0
   18.8260    1.3597   14.3437 C   0  0  0  0  0  0  0  0  0  0  0  0
   17.7783    2.3807   13.9518 C   0  0  0  0  0  0  0  0  0  0  0  0
   16.3279    1.9341   14.1783 C   0  0  2  0  0  0  0  0  0  0  0  0
   15.8640    0.2129   13.4797 S   0  0  0  0  0  0  0  0  0  0  0  0
   14.0420    0.7187   13.7431 C   0  0  0  0  0  0  0  0  0  0  0  0
   13.9980    2.2433   13.4319 C   0  0  2  0  0  0  0  0  0  0  0  0
   13.6811    2.3522   11.9164 N   0  0  0  0  0  0  0  0  0  0  0  0
   14.5754    2.9548   11.2605 C   0  0  0  0  0  0  0  0  0  0  0  0
   14.7295    3.0863    9.9945 O   0  0  0  0  0  0  0  0  0  0  0  0
   15.7559    3.2615   12.0351 N   0  0  0  0  0  0  0  0  0  0  0  0
   15.3703    2.8932   13.4675 C   0  0  2  0  0  0  0  0  0  0  0  0
  1  2  1  0  0  0  0
  1  3  2  0  0  0  0
  1  4  1  0  0  0  0
  4  5  1  0  0  0  0
  5  6  1  0  0  0  0
  6  7  1  0  0  0  0
  8  7  1  6  0  0  0
  8  9  1  0  0  0  0
  8 16  1  0  0  0  0
  9 10  1  0  0  0  0
 11 10  1  6  0  0  0
 11 12  1  0  0  0  0
 11 16  1  0  0  0  0
 12 13  1  0  0  0  0
 13 14  2  0  0  0  0
 13 15  1  0  0  0  0
 16 15  1  6  0  0  0
M  CHG  1   2  -1
M  END
>  <CHROM.1>
98.45538773,68.51943863,-171.90129627,176.97436261,-49.78507710,17.17277360
1.35038062,13.06647361,-0.36957102,0.14872137,-0.84897663

>  <Name>
1f27 biotin aptamer (Xray 1.3A)

>  <RI>
0

>  <Rbt.Current_Directory>
/home/itssahil/PROJECTS/Mol_Feturizer/New_Systems/rnas/1f27

>  <Rbt.Executable>
rbdock ($Id: //depot/dev/client3/rdock/2013.1/src/exe/rbdock.cxx#4 $)

>  <Rbt.Library>
libRbt.so (2013.1, Build901 2013/11/27)

>  <Rbt.Parameter_File>
/export/apps/rDock/src/rDock_2013.1_src/data/scripts/dock_solv.prm

>  <Rbt.Receptor>
prm/pocket_docking_6.prm

>  <SCORE>
-35.3225

>  <SCORE.INTER>
-33.1917

>  <SCORE.INTER.CONST>
1

>  <SCORE.INTER.POLAR>
-2.64332

>  <SCORE.INTER.ROT>
5

>  <SCORE.INTER.SOLV>
12.285

>  <SCORE.INTER.VDW>
-24.3451

>  <SCORE.INTER.norm>
-2.07448

>  <SCORE.INTRA>
-2.13072

>  <SCORE.INTRA.DIHEDRAL>
-4.41415

>  <SCORE.INTRA.DIHEDRAL.0>
6.87082

>  <SCORE.INTRA.POLAR>
0

>  <SCORE.INTRA.POLAR.0>
0

>  <SCORE.INTRA.REPUL>
0

>  <SCORE.INTRA.REPUL.0>
0

>  <SCORE.INTRA.SOLV>
0.138659

>  <SCORE.INTRA.SOLV.lig_0>
-42.5944

>  <SCORE.INTRA.VDW>
0.00702352

>  <SCORE.INTRA.VDW.0>
-1.067

>  <SCORE.INTRA.norm>
-0.13317

>  <SCORE.RESTR>
0

>  <SCORE.RESTR.CAVITY>
0

>  <SCORE.RESTR.norm>
0

>  <SCORE.SYSTEM>
0

>  <SCORE.SYSTEM.CONST>
0

>  <SCORE.SYSTEM.DIHEDRAL>
0

>  <SCORE.SYSTEM.SOLV>
0

>  <SCORE.SYSTEM.norm>
0

>  <SCORE.heavy>
16

>  <SCORE.norm>
-2.20765

>  <RMSD>
1.523

$$$$
1f27 biotin aptamer (Xray 1.3A)
 OpenBabel11021811393D
libRbt.so/2013.1/901 2013/11/27
 16 17  0  0  0  0  0  0  0  0999 V2000
   20.5136   -1.0175   13.2314 C   0  0  0  0  0  0  0  0  0  0  0  0
   19.3989   -1.5226   13.1445 O   0  5  0  0  0  0  0  0  0  0  0  0
   21.4902   -1.7273   13.4657 O   0  0  0  0  0  0  0  0  0  0  0  0
   20.6987    0.4739   12.9824 C   0  0  0  0  0  0  0  0  0  0  0  0
   20.3716    1.3596   14.2053 C   0  0  0  0  0  0  0  0  0  0  0  0
   18.9373    1.1733   14.6646 C   0  0  0  0  0  0  0  0  0  0  0  0
   17.9403    2.0067   13.8867 C   0  0  0  0  0  0  0  0  0  0  0  0
   16.4695    1.6427   14.1285 C   0  0  2  0  0  0  0  0  0  0  0  0
   15.9007   -0.0474   13.4313 S   0  0  0  0  0  0  0  0  0  0  0  0
   14.1135    0.5605   13.7163 C   0  0  0  0  0  0  0  0  0  0  0  0
   14.1528    2.0860   13.4091 C   0  0  2  0  0  0  0  0  0  0  0  0
   13.8258    2.2171   11.8975 N   0  0  0  0  0  0  0  0  0  0  0  0
   14.7456    2.7697   11.2329 C   0  0  0  0  0  0  0  0  0  0  0  0
   14.8928    2.8959    9.9656 O   0  0  0  0  0  0  0  0  0  0  0  0
   15.9502    3.0065   11.9948 N   0  0  0  0  0  0  0  0  0  0  0  0
   15.5602    2.6567   13.4307 C   0  0  2  0  0  0  0  0  0  0  0  0
  1  2  1  0  0  0  0
  1  3  2  0  0  0  0
  1  4  1  0  0  0  0
  4  5  1  0  0  0  0
  5  6  1  0  0  0  0
  6  7  1  0  0  0  0
  8  7  1  6  0  0  0
  8  9  1  0  0  0  0
  8 16  1  0  0  0  0
  9 10  1  0  0  0  0
 11 10  1  6  0  0  0
 11 12  1  0  0  0  0
 11 16  1  0  0  0  0
 12 13  1  0  0  0  0
 13 14  2  0  0  0  0
 13 15  1  0  0  0  0
 16 15  1  6  0  0  0
M  CHG  1   2  -1
M  END
>  <CHROM.1>
82.43261078,-59.22585032,-83.31649170,168.42709738,-69.47082432,17.12023651
1.04229275,13.05029916,0.48331098,-0.05482353,2.55421196

>  <Name>
1f27 biotin aptamer (Xray 1.3A)

>  <RI>
0

>  <Rbt.Current_Directory>
/home/itssahil/PROJECTS/Mol_Feturizer/New_Systems/rnas/1f27

>  <Rbt.Executable>
rbdock ($Id: //depot/dev/client3/rdock/2013.1/src/exe/rbdock.cxx#4 $)

>  <Rbt.Library>
libRbt.so (2013.1, Build901 2013/11/27)

>  <Rbt.Parameter_File>
/export/apps/rDock/src/rDock_2013.1_src/data/scripts/dock_solv.prm

>  <Rbt.Receptor>
prm/pocket_docking_5.prm

>  <SCORE>
-30.1222

>  <SCORE.INTER>
-29.2985

>  <SCORE.INTER.CONST>
1

>  <SCORE.INTER.POLAR>
-1.7554

>  <SCORE.INTER.ROT>
5

>  <SCORE.INTER.SOLV>
9.97105

>  <SCORE.INTER.VDW>
-23.938

>  <SCORE.INTER.norm>
-1.83116

>  <SCORE.INTRA>
-0.823717

>  <SCORE.INTRA.DIHEDRAL>
-2.51214

>  <SCORE.INTRA.DIHEDRAL.0>
6.87082

>  <SCORE.INTRA.POLAR>
0

>  <SCORE.INTRA.POLAR.0>
0

>  <SCORE.INTRA.REPUL>
0

>  <SCORE.INTRA.REPUL.0>
0

>  <SCORE.INTRA.SOLV>
1.00701

>  <SCORE.INTRA.SOLV.lig_0>
-42.5944

>  <SCORE.INTRA.VDW>
-0.0711502

>  <SCORE.INTRA.VDW.0>
-1.067

>  <SCORE.INTRA.norm>
-0.0514823

>  <SCORE.RESTR>
0

>  <SCORE.RESTR.CAVITY>
0

>  <SCORE.RESTR.norm>
0

>  <SCORE.SYSTEM>
0

>  <SCORE.SYSTEM.CONST>
0

>  <SCORE.SYSTEM.DIHEDRAL>
0

>  <SCORE.SYSTEM.SOLV>
0

>  <SCORE.SYSTEM.norm>
0

>  <SCORE.heavy>
16

>  <SCORE.norm>
-1.88264

>  <RMSD>
1.524

$$$$
1f27 biotin aptamer (Xray 1.3A)
 OpenBabel11021811393D
libRbt.so/2013.1/901 2013/11/27
 16 17  0  0  0  0  0  0  0  0999 V2000
   20.2571   -1.4159   13.3856 C   0  0  0  0  0  0  0  0  0  0  0  0
   21.0806   -1.8439   12.5831 O   0  5  0  0  0  0  0  0  0  0  0  0
   19.7744   -2.1706   14.2281 O   0  0  0  0  0  0  0  0  0  0  0  0
   19.8840    0.0611   13.3838 C   0  0  0  0  0  0  0  0  0  0  0  0
   18.6149    0.3866   12.5650 C   0  0  0  0  0  0  0  0  0  0  0  0
   18.2394    1.8530   12.6726 C   0  0  0  0  0  0  0  0  0  0  0  0
   17.6564    2.2305   14.0184 C   0  0  0  0  0  0  0  0  0  0  0  0
   16.1768    1.8685   14.2033 C   0  0  2  0  0  0  0  0  0  0  0  0
   15.6456    0.1542   13.5365 S   0  0  0  0  0  0  0  0  0  0  0  0
   13.8454    0.7636   13.7178 C   0  0  0  0  0  0  0  0  0  0  0  0
   13.8951    2.2784   13.3626 C   0  0  2  0  0  0  0  0  0  0  0  0
   13.6386    2.3585   11.8339 N   0  0  0  0  0  0  0  0  0  0  0  0
   14.5870    2.8929   11.1950 C   0  0  0  0  0  0  0  0  0  0  0  0
   14.7929    2.9781    9.9325 O   0  0  0  0  0  0  0  0  0  0  0  0
   15.7541    3.1596   12.0040 N   0  0  0  0  0  0  0  0  0  0  0  0
   15.2985    2.8553   13.4309 C   0  0  2  0  0  0  0  0  0  0  0  0
  1  2  1  0  0  0  0
  1  3  2  0  0  0  0
  1  4  1  0  0  0  0
  4  5  1  0  0  0  0
  5  6  1  0  0  0  0
  6  7  1  0  0  0  0
  8  7  1  6  0  0  0
  8  9  1  0  0  0  0
  8 16  1  0  0  0  0
  9 10  1  0  0  0  0
 11 10  1  6  0  0  0
 11 12  1  0  0  0  0
 11 16  1  0  0  0  0
 12 13  1  0  0  0  0
 13 14  2  0  0  0  0
 13 15  1  0  0  0  0
 16 15  1  6  0  0  0
M  CHG  1   2  -1
M  END
>  <CHROM.1>
95.39502142,176.25848234,-72.96499323,-79.73912622,41.75962390,16.77006838
1.04537752,12.90052973,-0.52240772,0.30470513,-0.79636297

>  <Name>
1f27 biotin aptamer (Xray 1.3A)

>  <RI>
0

>  <Rbt.Current_Directory>
/home/itssahil/PROJECTS/Mol_Feturizer/New_Systems/rnas/1f27

>  <Rbt.Executable>
rbdock ($Id: //depot/dev/client3/rdock/2013.1/src/exe/rbdock.cxx#4 $)

>  <Rbt.Library>
libRbt.so (2013.1, Build901 2013/11/27)

>  <Rbt.Parameter_File>
/export/apps/rDock/src/rDock_2013.1_src/data/scripts/dock_solv.prm

>  <Rbt.Receptor>
prm/pocket_docking_5.prm

>  <SCORE>
-29.3009

>  <SCORE.INTER>
-29.4224

>  <SCORE.INTER.CONST>
1

>  <SCORE.INTER.POLAR>
-1.82431

>  <SCORE.INTER.ROT>
5

>  <SCORE.INTER.SOLV>
8.63412

>  <SCORE.INTER.VDW>
-23.3453

>  <SCORE.INTER.norm>
-1.8389

>  <SCORE.INTRA>
0.121474

>  <SCORE.INTRA.DIHEDRAL>
-1.96205

>  <SCORE.INTRA.DIHEDRAL.0>
6.87082

>  <SCORE.INTRA.POLAR>
0

>  <SCORE.INTRA.POLAR.0>
0

>  <SCORE.INTRA.REPUL>
0

>  <SCORE.INTRA.REPUL.0>
0

>  <SCORE.INTRA.SOLV>
-0.228438

>  <SCORE.INTRA.SOLV.lig_0>
-42.5944

>  <SCORE.INTRA.VDW>
1.21672

>  <SCORE.INTRA.VDW.0>
-1.067

>  <SCORE.INTRA.norm>
0.00759215

>  <SCORE.RESTR>
0

>  <SCORE.RESTR.CAVITY>
0

>  <SCORE.RESTR.norm>
0

>  <SCORE.SYSTEM>
0

>  <SCORE.SYSTEM.CONST>
0

>  <SCORE.SYSTEM.DIHEDRAL>
0

>  <SCORE.SYSTEM.SOLV>
0

>  <SCORE.SYSTEM.norm>
0

>  <SCORE.heavy>
16

>  <SCORE.norm>
-1.83131

>  <RMSD>
1.527

$$$$
1f27 biotin aptamer (Xray 1.3A)
 OpenBabel11021811393D
libRbt.so/2013.1/901 2013/11/27
 16 17  0  0  0  0  0  0  0  0999 V2000
   21.1873   -0.5054   13.2776 C   0  0  0  0  0  0  0  0  0  0  0  0
   20.3472   -1.3833   13.4475 O   0  5  0  0  0  0  0  0  0  0  0  0
   21.9187   -0.5416   12.2896 O   0  0  0  0  0  0  0  0  0  0  0  0
   21.2792    0.6634   14.2502 C   0  0  0  0  0  0  0  0  0  0  0  0
   20.2510    1.7851   13.9823 C   0  0  0  0  0  0  0  0  0  0  0  0
   18.8325    1.3233   14.2608 C   0  0  0  0  0  0  0  0  0  0  0  0
   17.7812    2.3562   13.9123 C   0  0  0  0  0  0  0  0  0  0  0  0
   16.3334    1.9054   14.1467 C   0  0  2  0  0  0  0  0  0  0  0  0
   15.8570    0.2046   13.4079 S   0  0  0  0  0  0  0  0  0  0  0  0
   14.0397    0.7052   13.7104 C   0  0  0  0  0  0  0  0  0  0  0  0
   13.9938    2.2378   13.4417 C   0  0  2  0  0  0  0  0  0  0  0  0
   13.6561    2.3885   11.9342 N   0  0  0  0  0  0  0  0  0  0  0  0
   14.5422    3.0077   11.2826 C   0  0  0  0  0  0  0  0  0  0  0  0
   14.6789    3.1736   10.0187 O   0  0  0  0  0  0  0  0  0  0  0  0
   15.7338    3.2916   12.0488 N   0  0  0  0  0  0  0  0  0  0  0  0
   15.3676    2.8848   13.4758 C   0  0  2  0  0  0  0  0  0  0  0  0
  1  2  1  0  0  0  0
  1  3  2  0  0  0  0
  1  4  1  0  0  0  0
  4  5  1  0  0  0  0
  5  6  1  0  0  0  0
  6  7  1  0  0  0  0
  8  7  1  6  0  0  0
  8  9  1  0  0  0  0
  8 16  1  0  0  0  0
  9 10  1  0  0  0  0
 11 10  1  6  0  0  0
 11 12  1  0  0  0  0
 11 16  1  0  0  0  0
 12 13  1  0  0  0  0
 13 14  2  0  0  0  0
 13 15  1  0  0  0  0
 16 15  1  6  0  0  0
M  CHG  1   2  -1
M  END
>  <CHROM.1>
-81.55881919,67.66787508,-175.64391076,178.41698380,-49.74719515,17.17128012
1.35315419,13.04685527,-0.37916636,0.12632441,-0.77695130

>  <Name>
1f27 biotin aptamer (Xray 1.3A)

>  <RI>
0

>  <Rbt.Current_Directory>
/home/itssahil/PROJECTS/Mol_Feturizer/New_Systems/rnas/1f27

>  <Rbt.Executable>
rbdock ($Id: //depot/dev/client3/rdock/2013.1/src/exe/rbdock.cxx#4 $)

>  <Rbt.Library>
libRbt.so (2013.1, Build901 2013/11/27)

>  <Rbt.Parameter_File>
/export/apps/rDock/src/rDock_2013.1_src/data/scripts/dock_solv.prm

>  <Rbt.Receptor>
prm/pocket_docking_8.prm

>  <SCORE>
-35.3862

>  <SCORE.INTER>
-33.0829

>  <SCORE.INTER.CONST>
1

>  <SCORE.INTER.POLAR>
-2.6425

>  <SCORE.INTER.ROT>
5

>  <SCORE.INTER.SOLV>
12.1749

>  <SCORE.INTER.VDW>
-24.2386

>  <SCORE.INTER.norm>
-2.06768

>  <SCORE.INTRA>
-2.30325

>  <SCORE.INTRA.DIHEDRAL>
-4.87826

>  <SCORE.INTRA.DIHEDRAL.0>
6.87082

>  <SCORE.INTRA.POLAR>
0

>  <SCORE.INTRA.POLAR.0>
0

>  <SCORE.INTRA.REPUL>
0

>  <SCORE.INTRA.REPUL.0>
0

>  <SCORE.INTRA.SOLV>
0.196292

>  <SCORE.INTRA.SOLV.lig_0>
-42.5944

>  <SCORE.INTRA.VDW>
0.0377354

>  <SCORE.INTRA.VDW.0>
-1.067

>  <SCORE.INTRA.norm>
-0.143953

>  <SCORE.RESTR>
0

>  <SCORE.RESTR.CAVITY>
0

>  <SCORE.RESTR.norm>
0

>  <SCORE.SYSTEM>
0

>  <SCORE.SYSTEM.CONST>
0

>  <SCORE.SYSTEM.DIHEDRAL>
0

>  <SCORE.SYSTEM.SOLV>
0

>  <SCORE.SYSTEM.norm>
0

>  <SCORE.heavy>
16

>  <SCORE.norm>
-2.21164

>  <RMSD>
1.527

$$$$
1f27 biotin aptamer (Xray 1.3A)
 OpenBabel11021811393D
libRbt.so/2013.1/901 2013/11/27
 16 17  0  0  0  0  0  0  0  0999 V2000
   20.5084   -1.3617   12.6807 C   0  0  0  0  0  0  0  0  0  0  0  0
   21.0673   -1.4116   13.7718 O   0  5  0  0  0  0  0  0  0  0  0  0
   20.4306   -2.3737   11.9863 O   0  0  0  0  0  0  0  0  0  0  0  0
   19.8525   -0.0676   12.2163 C   0  0  0  0  0  0  0  0  0  0  0  0
   18.7973    0.4886   13.1982 C   0  0  0  0  0  0  0  0  0  0  0  0
   18.2025    1.7935   12.7019 C   0  0  0  0  0  0  0  0  0  0  0  0
   17.5883    2.6347   13.8012 C   0  0  0  0  0  0  0  0  0  0  0  0
   16.1201    2.3152   14.1122 C   0  0  2  0  0  0  0  0  0  0  0  0
   15.5911    0.4915   13.8673 S   0  0  0  0  0  0  0  0  0  0  0  0
   13.7896    1.1156   13.9662 C   0  0  0  0  0  0  0  0  0  0  0  0
   13.8081    2.5112   13.2770 C   0  0  2  0  0  0  0  0  0  0  0  0
   13.5033    2.2424   11.7790 N   0  0  0  0  0  0  0  0  0  0  0  0
   14.4242    2.6241   11.0049 C   0  0  0  0  0  0  0  0  0  0  0  0
   14.5896    2.4230    9.7495 O   0  0  0  0  0  0  0  0  0  0  0  0
   15.6122    3.0735   11.6936 N   0  0  0  0  0  0  0  0  0  0  0  0
   15.2052    3.0968   13.1667 C   0  0  2  0  0  0  0  0  0  0  0  0
  1  2  1  0  0  0  0
  1  3  2  0  0  0  0
  1  4  1  0  0  0  0
  4  5  1  0  0  0  0
  5  6  1  0  0  0  0
  6  7  1  0  0  0  0
  8  7  1  6  0  0  0
  8  9  1  0  0  0  0
  8 16  1  0  0  0  0
  9 10  1  0  0  0  0
 11 10  1  1  0  0  0
 11 12  1  0  0  0  0
 11 16  1  0  0  0  0
 12 13  1  0  0  0  0
 13 14  2  0  0  0  0
 13 15  1  0  0  0  0
 16 15  1  6  0  0  0
M  CHG  1   2  -1
M  END
>  <CHROM.1>
-55.88492678,178.60211439,-158.16373353,-87.39806637,31.91783743,16.76569865
1.13244926,12.74532909,-0.19187726,0.50401487,-1.35572537

>  <Name>
1f27 biotin aptamer (Xray 1.3A)

>  <RI>
0

>  <Rbt.Current_Directory>
/home/itssahil/PROJECTS/Mol_Feturizer/New_Systems/rnas/1f27

>  <Rbt.Executable>
rbdock ($Id: //depot/dev/client3/rdock/2013.1/src/exe/rbdock.cxx#4 $)

>  <Rbt.Library>
libRbt.so (2013.1, Build901 2013/11/27)

>  <Rbt.Parameter_File>
/export/apps/rDock/src/rDock_2013.1_src/data/scripts/dock_solv.prm

>  <Rbt.Receptor>
prm/pocket_docking_2.prm

>  <SCORE>
-25.2466

>  <SCORE.INTER>
-26.3091

>  <SCORE.INTER.CONST>
1

>  <SCORE.INTER.POLAR>
-1.40219

>  <SCORE.INTER.ROT>
5

>  <SCORE.INTER.SOLV>
10.1484

>  <SCORE.INTER.VDW>
-23.1816

>  <SCORE.INTER.norm>
-1.64432

>  <SCORE.INTRA>
1.06251

>  <SCORE.INTRA.DIHEDRAL>
1.55869

>  <SCORE.INTRA.DIHEDRAL.0>
6.87082

>  <SCORE.INTRA.POLAR>
0

>  <SCORE.INTRA.POLAR.0>
0

>  <SCORE.INTRA.REPUL>
0

>  <SCORE.INTRA.REPUL.0>
0

>  <SCORE.INTRA.SOLV>
-0.346031

>  <SCORE.INTRA.SOLV.lig_0>
-42.5944

>  <SCORE.INTRA.VDW>
0.456177

>  <SCORE.INTRA.VDW.0>
-1.067

>  <SCORE.INTRA.norm>
0.0664067

>  <SCORE.RESTR>
0

>  <SCORE.RESTR.CAVITY>
0

>  <SCORE.RESTR.norm>
0

>  <SCORE.SYSTEM>
0

>  <SCORE.SYSTEM.CONST>
0

>  <SCORE.SYSTEM.DIHEDRAL>
0

>  <SCORE.SYSTEM.SOLV>
0

>  <SCORE.SYSTEM.norm>
0

>  <SCORE.heavy>
16

>  <SCORE.norm>
-1.57791

>  <RMSD>
1.529

$$$$
1f27 biotin aptamer (Xray 1.3A)
 OpenBabel11021811393D
libRbt.so/2013.1/901 2013/11/27
 16 17  0  0  0  0  0  0  0  0999 V2000
   20.9343   -1.1010   12.4948 C   0  0  0  0  0  0  0  0  0  0  0  0
   22.1431   -0.9348   12.3662 O   0  5  0  0  0  0  0  0  0  0  0  0
   20.5081   -2.1565   12.9603 O   0  0  0  0  0  0  0  0  0  0  0  0
   19.9666    0.0218   12.1434 C   0  0  0  0  0  0  0  0  0  0  0  0
   19.0243    0.4230   13.3002 C   0  0  0  0  0  0  0  0  0  0  0  0
   18.1916    1.6417   12.9478 C   0  0  0  0  0  0  0  0  0  0  0  0
   17.4907    2.2601   14.1394 C   0  0  0  0  0  0  0  0  0  0  0  0
   15.9997    1.9180   14.2581 C   0  0  2  0  0  0  0  0  0  0  0  0
   15.4856    0.1871   13.6214 S   0  0  0  0  0  0  0  0  0  0  0  0
   13.6851    0.8185   13.6873 C   0  0  0  0  0  0  0  0  0  0  0  0
   13.7696    2.3200   13.2852 C   0  0  2  0  0  0  0  0  0  0  0  0
   13.5945    2.3508   11.7432 N   0  0  0  0  0  0  0  0  0  0  0  0
   14.5807    2.8547   11.1379 C   0  0  0  0  0  0  0  0  0  0  0  0
   14.8534    2.8954    9.8858 O   0  0  0  0  0  0  0  0  0  0  0  0
   15.7067    3.1379   11.9979 N   0  0  0  0  0  0  0  0  0  0  0  0
   15.1737    2.8861   13.4081 C   0  0  2  0  0  0  0  0  0  0  0  0
  1  2  1  0  0  0  0
  1  3  2  0  0  0  0
  1  4  1  0  0  0  0
  4  5  1  0  0  0  0
  5  6  1  0  0  0  0
  6  7  1  0  0  0  0
  8  7  1  6  0  0  0
  8  9  1  0  0  0  0
  8 16  1  0  0  0  0
  9 10  1  0  0  0  0
 11 10  1  6  0  0  0
 11 12  1  0  0  0  0
 11 16  1  0  0  0  0
 12 13  1  0  0  0  0
 13 14  2  0  0  0  0
 13 15  1  0  0  0  0
 16 15  1  6  0  0  0
M  CHG  1   2  -1
M  END
>  <CHROM.1>
-123.85625935,173.69707365,-166.93315783,-101.69804121,32.36149856,16.88265776
1.11576074,12.74777720,-0.30842790,0.35187985,-0.92962483

>  <Name>
1f27 biotin aptamer (Xray 1.3A)

>  <RI>
0

>  <Rbt.Current_Directory>
/home/itssahil/PROJECTS/Mol_Feturizer/New_Systems/rnas/1f27

>  <Rbt.Executable>
rbdock ($Id: //depot/dev/client3/rdock/2013.1/src/exe/rbdock.cxx#4 $)

>  <Rbt.Library>
libRbt.so (2013.1, Build901 2013/11/27)

>  <Rbt.Parameter_File>
/export/apps/rDock/src/rDock_2013.1_src/data/scripts/dock_solv.prm

>  <Rbt.Receptor>
prm/pocket_docking_2.prm

>  <SCORE>
-31.1043

>  <SCORE.INTER>
-33.0802

>  <SCORE.INTER.CONST>
1

>  <SCORE.INTER.POLAR>
-2.64286

>  <SCORE.INTER.ROT>
5

>  <SCORE.INTER.SOLV>
12.2724

>  <SCORE.INTER.VDW>
-24.2681

>  <SCORE.INTER.norm>
-2.06751

>  <SCORE.INTRA>
1.48455

>  <SCORE.INTRA.DIHEDRAL>
2.71605

>  <SCORE.INTRA.DIHEDRAL.0>
6.87082

>  <SCORE.INTRA.POLAR>
0

>  <SCORE.INTRA.POLAR.0>
0

>  <SCORE.INTRA.REPUL>
0

>  <SCORE.INTRA.REPUL.0>
0

>  <SCORE.INTRA.SOLV>
-0.377548

>  <SCORE.INTRA.SOLV.lig_0>
-42.5944

>  <SCORE.INTRA.VDW>
0.315299

>  <SCORE.INTRA.VDW.0>
-1.067

>  <SCORE.INTRA.norm>
0.0927843

>  <SCORE.RESTR>
0.491303

>  <SCORE.RESTR.CAVITY>
0.491303

>  <SCORE.RESTR.norm>
0.0307064

>  <SCORE.SYSTEM>
0

>  <SCORE.SYSTEM.CONST>
0

>  <SCORE.SYSTEM.DIHEDRAL>
0

>  <SCORE.SYSTEM.SOLV>
0

>  <SCORE.SYSTEM.norm>
0

>  <SCORE.heavy>
16

>  <SCORE.norm>
-1.94402

>  <RMSD>
1.530

$$$$
1f27 biotin aptamer (Xray 1.3A)
 OpenBabel11021811393D
libRbt.so/2013.1/901 2013/11/27
 16 17  0  0  0  0  0  0  0  0999 V2000
   21.0403   -0.4699   13.2593 C   0  0  0  0  0  0  0  0  0  0  0  0
   21.8741   -0.4921   12.3595 O   0  5  0  0  0  0  0  0  0  0  0  0
   20.1590   -1.3267   13.2979 O   0  0  0  0  0  0  0  0  0  0  0  0
   21.1358    0.5742   14.3645 C   0  0  0  0  0  0  0  0  0  0  0  0
   20.1604    1.7601   14.1933 C   0  0  0  0  0  0  0  0  0  0  0  0
   18.7227    1.3439   14.4438 C   0  0  0  0  0  0  0  0  0  0  0  0
   17.7097    2.3931   14.0356 C   0  0  0  0  0  0  0  0  0  0  0  0
   16.2442    1.9861   14.2379 C   0  0  2  0  0  0  0  0  0  0  0  0
   15.7607    0.2513   13.5882 S   0  0  0  0  0  0  0  0  0  0  0  0
   13.9441    0.8051   13.7835 C   0  0  0  0  0  0  0  0  0  0  0  0
   13.9425    2.3181   13.4175 C   0  0  2  0  0  0  0  0  0  0  0  0
   13.6686    2.3792   11.8910 N   0  0  0  0  0  0  0  0  0  0  0  0
   14.5933    2.9385   11.2389 C   0  0  0  0  0  0  0  0  0  0  0  0
   14.7839    3.0210    9.9738 O   0  0  0  0  0  0  0  0  0  0  0  0
   15.7593    3.2475   12.0342 N   0  0  0  0  0  0  0  0  0  0  0  0
   15.3276    2.9393   13.4677 C   0  0  2  0  0  0  0  0  0  0  0  0
  1  2  1  0  0  0  0
  1  3  2  0  0  0  0
  1  4  1  0  0  0  0
  4  5  1  0  0  0  0
  5  6  1  0  0  0  0
  6  7  1  0  0  0  0
  8  7  1  6  0  0  0
  8  9  1  0  0  0  0
  8 16  1  0  0  0  0
  9 10  1  0  0  0  0
 11 10  1  6  0  0  0
 11 12  1  0  0  0  0
 11 16  1  0  0  0  0
 12 13  1  0  0  0  0
 13 14  2  0  0  0  0
 13 15  1  0  0  0  0
 16 15  1  6  0  0  0
M  CHG  1   2  -1
M  END
>  <CHROM.1>
101.51999480,70.91865663,-169.02733119,178.28752275,-47.59630014,17.10884215
1.36509894,13.09955980,-0.34441836,0.20616395,-1.00383233

>  <Name>
1f27 biotin aptamer (Xray 1.3A)

>  <RI>
0

>  <Rbt.Current_Directory>
/home/itssahil/PROJECTS/Mol_Feturizer/New_Systems/rnas/1f27

>  <Rbt.Executable>
rbdock ($Id: //depot/dev/client3/rdock/2013.1/src/exe/rbdock.cxx#4 $)

>  <Rbt.Library>
libRbt.so (2013.1, Build901 2013/11/27)

>  <Rbt.Parameter_File>
/export/apps/rDock/src/rDock_2013.1_src/data/scripts/dock_solv.prm

>  <Rbt.Receptor>
prm/pocket_docking_3.prm

>  <SCORE>
-35.1261

>  <SCORE.INTER>
-33.2884

>  <SCORE.INTER.CONST>
1

>  <SCORE.INTER.POLAR>
-2.69059

>  <SCORE.INTER.ROT>
5

>  <SCORE.INTER.SOLV>
12.5141

>  <SCORE.INTER.VDW>
-24.3283

>  <SCORE.INTER.norm>
-2.08053

>  <SCORE.INTRA>
-1.8498

>  <SCORE.INTRA.DIHEDRAL>
-3.87389

>  <SCORE.INTRA.DIHEDRAL.0>
6.87082

>  <SCORE.INTRA.POLAR>
0

>  <SCORE.INTRA.POLAR.0>
0

>  <SCORE.INTRA.REPUL>
0

>  <SCORE.INTRA.REPUL.0>
0

>  <SCORE.INTRA.SOLV>
0.151749

>  <SCORE.INTRA.SOLV.lig_0>
-42.5944

>  <SCORE.INTRA.VDW>
0.0112761

>  <SCORE.INTRA.VDW.0>
-1.067

>  <SCORE.INTRA.norm>
-0.115612

>  <SCORE.RESTR>
0.0120867

>  <SCORE.RESTR.CAVITY>
0.0120867

>  <SCORE.RESTR.norm>
0.000755421

>  <SCORE.SYSTEM>
0

>  <SCORE.SYSTEM.CONST>
0

>  <SCORE.SYSTEM.DIHEDRAL>
0

>  <SCORE.SYSTEM.SOLV>
0

>  <SCORE.SYSTEM.norm>
0

>  <SCORE.heavy>
16

>  <SCORE.norm>
-2.19538

>  <RMSD>
1.534

$$$$
1f27 biotin aptamer (Xray 1.3A)
 OpenBabel11021811393D
libRbt.so/2013.1/901 2013/11/27
 16 17  0  0  0  0  0  0  0  0999 V2000
   21.1793   -0.8647   13.1409 C   0  0  0  0  0  0  0  0  0  0  0  0
   22.1560   -0.9074   12.3995 O   0  5  0  0  0  0  0  0  0  0  0  0
   20.5688   -1.8983   13.4085 O   0  0  0  0  0  0  0  0  0  0  0  0
   20.7642    0.4526   13.7835 C   0  0  0  0  0  0  0  0  0  0  0  0
   19.4197    1.0082   13.2633 C   0  0  0  0  0  0  0  0  0  0  0  0
   18.9796    2.2327   14.0442 C   0  0  0  0  0  0  0  0  0  0  0  0
   17.6975    2.8510   13.5269 C   0  0  0  0  0  0  0  0  0  0  0  0
   16.4113    2.1902   14.0401 C   0  0  2  0  0  0  0  0  0  0  0  0
   15.9722    0.4975   13.2606 S   0  0  0  0  0  0  0  0  0  0  0  0
   14.2357    0.7212   14.0218 C   0  0  0  0  0  0  0  0  0  0  0  0
   13.9485    2.2483   13.9289 C   0  0  2  0  0  0  0  0  0  0  0  0
   13.2425    2.4590   12.5628 N   0  0  0  0  0  0  0  0  0  0  0  0
   13.8673    3.2390   11.7919 C   0  0  0  0  0  0  0  0  0  0  0  0
   13.6753    3.5123   10.5541 O   0  0  0  0  0  0  0  0  0  0  0  0
   15.1671    3.6280   12.2888 N   0  0  0  0  0  0  0  0  0  0  0  0
   15.2053    3.0734   13.7126 C   0  0  2  0  0  0  0  0  0  0  0  0
  1  2  1  0  0  0  0
  1  3  2  0  0  0  0
  1  4  1  0  0  0  0
  4  5  1  0  0  0  0
  5  6  1  0  0  0  0
  6  7  1  0  0  0  0
  8  7  1  6  0  0  0
  8  9  1  0  0  0  0
  8 16  1  0  0  0  0
  9 10  1  0  0  0  0
 11 10  1  6  0  0  0
 11 12  1  0  0  0  0
 11 16  1  0  0  0  0
 12 13  1  0  0  0  0
 13 14  2  0  0  0  0
 13 15  1  0  0  0  0
 16 15  1  6  0  0  0
M  CHG  1   2  -1
M  END
>  <CHROM.1>
112.14533197,173.57465831,177.28940241,83.12009493,-75.02947446,16.98603218
1.42594105,13.08739075,0.44820830,-0.05248817,2.81942949

>  <Name>
1f27 biotin aptamer (Xray 1.3A)

>  <RI>
0

>  <Rbt.Current_Directory>
/home/itssahil/PROJECTS/Mol_Feturizer/New_Systems/rnas/1f27

>  <Rbt.Executable>
rbdock ($Id: //depot/dev/client3/rdock/2013.1/src/exe/rbdock.cxx#4 $)

>  <Rbt.Library>
libRbt.so (2013.1, Build901 2013/11/27)

>  <Rbt.Parameter_File>
/export/apps/rDock/src/rDock_2013.1_src/data/scripts/dock_solv.prm

>  <Rbt.Receptor>
prm/pocket_docking_3.prm

>  <SCORE>
-28.7543

>  <SCORE.INTER>
-26.9611

>  <SCORE.INTER.CONST>
1

>  <SCORE.INTER.POLAR>
-1.62407

>  <SCORE.INTER.ROT>
5

>  <SCORE.INTER.SOLV>
10.4038

>  <SCORE.INTER.VDW>
-22.9618

>  <SCORE.INTER.norm>
-1.68507

>  <SCORE.INTRA>
-1.79367

>  <SCORE.INTRA.DIHEDRAL>
-2.44994

>  <SCORE.INTRA.DIHEDRAL.0>
6.87082

>  <SCORE.INTRA.POLAR>
0

>  <SCORE.INTRA.POLAR.0>
0

>  <SCORE.INTRA.REPUL>
0

>  <SCORE.INTRA.REPUL.0>
0

>  <SCORE.INTRA.SOLV>
-0.820663

>  <SCORE.INTRA.SOLV.lig_0>
-42.5944

>  <SCORE.INTRA.VDW>
-0.158372

>  <SCORE.INTRA.VDW.0>
-1.067

>  <SCORE.INTRA.norm>
-0.112105

>  <SCORE.RESTR>
0.000486863

>  <SCORE.RESTR.CAVITY>
0.000486863

>  <SCORE.RESTR.norm>
3.0429e-05

>  <SCORE.SYSTEM>
0

>  <SCORE.SYSTEM.CONST>
0

>  <SCORE.SYSTEM.DIHEDRAL>
0

>  <SCORE.SYSTEM.SOLV>
0

>  <SCORE.SYSTEM.norm>
0

>  <SCORE.heavy>
16

>  <SCORE.norm>
-1.79714

>  <RMSD>
1.534

$$$$
1f27 biotin aptamer (Xray 1.3A)
 OpenBabel11021811393D
libRbt.so/2013.1/901 2013/11/27
 16 17  0  0  0  0  0  0  0  0999 V2000
   19.7118   -1.4987   13.5587 C   0  0  0  0  0  0  0  0  0  0  0  0
   19.9875   -2.6874   13.6866 O   0  5  0  0  0  0  0  0  0  0  0  0
   19.9002   -0.9398   12.4795 O   0  0  0  0  0  0  0  0  0  0  0  0
   19.0741   -0.7334   14.7112 C   0  0  0  0  0  0  0  0  0  0  0  0
   19.7035    0.6540   14.9675 C   0  0  0  0  0  0  0  0  0  0  0  0
   19.3347    1.6464   13.8802 C   0  0  0  0  0  0  0  0  0  0  0  0
   18.0690    2.4238   14.1755 C   0  0  0  0  0  0  0  0  0  0  0  0
   16.8054    1.5655   14.3206 C   0  0  2  0  0  0  0  0  0  0  0  0
   16.4476    0.3540   12.8818 S   0  0  0  0  0  0  0  0  0  0  0  0
   14.6939    0.1745   13.6147 C   0  0  0  0  0  0  0  0  0  0  0  0
   14.3439    1.5849   14.1727 C   0  0  2  0  0  0  0  0  0  0  0  0
   13.6467    2.3353   13.0065 N   0  0  0  0  0  0  0  0  0  0  0  0
   14.2478    3.3896   12.6599 C   0  0  0  0  0  0  0  0  0  0  0  0
   14.0599    4.1586   11.6514 O   0  0  0  0  0  0  0  0  0  0  0  0
   15.5238    3.5716   13.3130 N   0  0  0  0  0  0  0  0  0  0  0  0
   15.5675    2.4641   14.3653 C   0  0  2  0  0  0  0  0  0  0  0  0
  1  2  1  0  0  0  0
  1  3  2  0  0  0  0
  1  4  1  0  0  0  0
  4  5  1  0  0  0  0
  5  6  1  0  0  0  0
  6  7  1  0  0  0  0
  8  7  1  6  0  0  0
  8  9  1  0  0  0  0
  8 16  1  0  0  0  0
  9 10  1  0  0  0  0
 11 10  1  6  0  0  0
 11 12  1  0  0  0  0
 11 16  1  0  0  0  0
 12 13  1  0  0  0  0
 13 14  2  0  0  0  0
 13 15  1  0  0  0  0
 16 15  1  6  0  0  0
M  CHG  1   2  -1
M  END
>  <CHROM.1>
134.84203486,72.04300189,90.36582842,-61.21052469,-52.38869867,16.92956944
1.08159641,13.50680903,0.61574186,0.23931794,-3.02608415

>  <Name>
1f27 biotin aptamer (Xray 1.3A)

>  <RI>
0

>  <Rbt.Current_Directory>
/home/itssahil/PROJECTS/Mol_Feturizer/New_Systems/rnas/1f27

>  <Rbt.Executable>
rbdock ($Id: //depot/dev/client3/rdock/2013.1/src/exe/rbdock.cxx#4 $)

>  <Rbt.Library>
libRbt.so (2013.1, Build901 2013/11/27)

>  <Rbt.Parameter_File>
/export/apps/rDock/src/rDock_2013.1_src/data/scripts/dock_solv.prm

>  <Rbt.Receptor>
prm/pocket_docking_4.prm

>  <SCORE>
-25.9037

>  <SCORE.INTER>
-25.7027

>  <SCORE.INTER.CONST>
1

>  <SCORE.INTER.POLAR>
-1.815

>  <SCORE.INTER.ROT>
5

>  <SCORE.INTER.SOLV>
9.89581

>  <SCORE.INTER.VDW>
-21.317

>  <SCORE.INTER.norm>
-1.60642

>  <SCORE.INTRA>
-0.201006

>  <SCORE.INTRA.DIHEDRAL>
-1.69429

>  <SCORE.INTRA.DIHEDRAL.0>
6.87082

>  <SCORE.INTRA.POLAR>
0

>  <SCORE.INTRA.POLAR.0>
0

>  <SCORE.INTRA.REPUL>
0

>  <SCORE.INTRA.REPUL.0>
0

>  <SCORE.INTRA.SOLV>
1.10685

>  <SCORE.INTRA.SOLV.lig_0>
-42.5944

>  <SCORE.INTRA.VDW>
0.0927161

>  <SCORE.INTRA.VDW.0>
-1.067

>  <SCORE.INTRA.norm>
-0.0125629

>  <SCORE.RESTR>
0

>  <SCORE.RESTR.CAVITY>
0

>  <SCORE.RESTR.norm>
0

>  <SCORE.SYSTEM>
0

>  <SCORE.SYSTEM.CONST>
0

>  <SCORE.SYSTEM.DIHEDRAL>
0

>  <SCORE.SYSTEM.SOLV>
0

>  <SCORE.SYSTEM.norm>
0

>  <SCORE.heavy>
16

>  <SCORE.norm>
-1.61898

>  <RMSD>
1.536

$$$$
1f27 biotin aptamer (Xray 1.3A)
 OpenBabel11021811393D
libRbt.so/2013.1/901 2013/11/27
 16 17  0  0  0  0  0  0  0  0999 V2000
   20.9681   -1.2082   14.0105 C   0  0  0  0  0  0  0  0  0  0  0  0
   20.3656   -2.2617   14.1902 O   0  5  0  0  0  0  0  0  0  0  0  0
   22.0323   -1.2095   13.3941 O   0  0  0  0  0  0  0  0  0  0  0  0
   20.3673    0.1073   14.4892 C   0  0  0  0  0  0  0  0  0  0  0  0
   18.8354    0.0632   14.6847 C   0  0  0  0  0  0  0  0  0  0  0  0
   18.1066   -0.1079   13.3646 C   0  0  0  0  0  0  0  0  0  0  0  0
   16.6177   -0.3361   13.5212 C   0  0  0  0  0  0  0  0  0  0  0  0
   15.8506    0.8320   14.1549 C   0  0  2  0  0  0  0  0  0  0  0  0
   13.9510    0.8126   13.9161 S   0  0  0  0  0  0  0  0  0  0  0  0
   13.9702    2.6326   14.4926 C   0  0  0  0  0  0  0  0  0  0  0  0
   15.2924    3.2225   13.9208 C   0  0  2  0  0  0  0  0  0  0  0  0
   14.9258    3.7965   12.5260 N   0  0  0  0  0  0  0  0  0  0  0  0
   15.5732    3.2662   11.5811 C   0  0  0  0  0  0  0  0  0  0  0  0
   15.4230    3.3689   10.3120 O   0  0  0  0  0  0  0  0  0  0  0  0
   16.3841    2.1430   11.9918 N   0  0  0  0  0  0  0  0  0  0  0  0
   16.2911    2.1516   13.5174 C   0  0  2  0  0  0  0  0  0  0  0  0
  1  2  1  0  0  0  0
  1  3  2  0  0  0  0
  1  4  1  0  0  0  0
  4  5  1  0  0  0  0
  5  6  1  0  0  0  0
  6  7  1  0  0  0  0
  8  7  1  6  0  0  0
  8  9  1  0  0  0  0
  8 16  1  0  0  0  0
  9 10  1  0  0  0  0
 11 10  1  6  0  0  0
 11 12  1  0  0  0  0
 11 16  1  0  0  0  0
 12 13  1  0  0  0  0
 13 14  2  0  0  0  0
 13 15  1  0  0  0  0
 16 15  1  6  0  0  0
M  CHG  1   2  -1
M  END
>  <CHROM.1>
-21.81010537,-67.03966177,172.52821122,63.41826124,162.97821166,16.98147309
1.03722453,13.39215087,-0.51187626,0.29884899,-0.77784189

>  <Name>
1f27 biotin aptamer (Xray 1.3A)

>  <RI>
0

>  <Rbt.Current_Directory>
/home/itssahil/PROJECTS/Mol_Feturizer/New_Systems/rnas/1f27

>  <Rbt.Executable>
rbdock ($Id: //depot/dev/client3/rdock/2013.1/src/exe/rbdock.cxx#4 $)

>  <Rbt.Library>
libRbt.so (2013.1, Build901 2013/11/27)

>  <Rbt.Parameter_File>
/export/apps/rDock/src/rDock_2013.1_src/data/scripts/dock_solv.prm

>  <Rbt.Receptor>
prm/pocket_docking_2.prm

>  <SCORE>
-23.0307

>  <SCORE.INTER>
-22.9835

>  <SCORE.INTER.CONST>
1

>  <SCORE.INTER.POLAR>
-1.26796

>  <SCORE.INTER.ROT>
5

>  <SCORE.INTER.SOLV>
10.6509

>  <SCORE.INTER.VDW>
-21.5795

>  <SCORE.INTER.norm>
-1.43647

>  <SCORE.INTRA>
-0.0557497

>  <SCORE.INTRA.DIHEDRAL>
-3.87733

>  <SCORE.INTRA.DIHEDRAL.0>
6.87082

>  <SCORE.INTRA.POLAR>
0

>  <SCORE.INTRA.POLAR.0>
0

>  <SCORE.INTRA.REPUL>
0

>  <SCORE.INTRA.REPUL.0>
0

>  <SCORE.INTRA.SOLV>
0.630565

>  <SCORE.INTRA.SOLV.lig_0>
-42.5944

>  <SCORE.INTRA.VDW>
1.56764

>  <SCORE.INTRA.VDW.0>
-1.067

>  <SCORE.INTRA.norm>
-0.00348436

>  <SCORE.RESTR>
0.00861211

>  <SCORE.RESTR.CAVITY>
0.00861211

>  <SCORE.RESTR.norm>
0.000538257

>  <SCORE.SYSTEM>
0

>  <SCORE.SYSTEM.CONST>
0

>  <SCORE.SYSTEM.DIHEDRAL>
0

>  <SCORE.SYSTEM.SOLV>
0

>  <SCORE.SYSTEM.norm>
0

>  <SCORE.heavy>
16

>  <SCORE.norm>
-1.43942

>  <RMSD>
1.537

$$$$
1f27 biotin aptamer (Xray 1.3A)
 OpenBabel11021811393D
libRbt.so/2013.1/901 2013/11/27
 16 17  0  0  0  0  0  0  0  0999 V2000
   21.0387   -1.0852   12.8392 C   0  0  0  0  0  0  0  0  0  0  0  0
   21.7687   -0.2363   12.3374 O   0  5  0  0  0  0  0  0  0  0  0  0
   21.4784   -2.2099   13.0720 O   0  0  0  0  0  0  0  0  0  0  0  0
   19.6119   -0.7284   13.2363 C   0  0  0  0  0  0  0  0  0  0  0  0
   18.9795    0.3846   12.3713 C   0  0  0  0  0  0  0  0  0  0  0  0
   17.5116    0.5842   12.7003 C   0  0  0  0  0  0  0  0  0  0  0  0
   17.2783    1.2940   14.0176 C   0  0  0  0  0  0  0  0  0  0  0  0
   15.8199    1.6864   14.2879 C   0  0  2  0  0  0  0  0  0  0  0  0
   14.4994    0.3933   13.7879 S   0  0  0  0  0  0  0  0  0  0  0  0
   13.2143    1.7913   13.9851 C   0  0  0  0  0  0  0  0  0  0  0  0
   13.9428    3.0795   13.5025 C   0  0  2  0  0  0  0  0  0  0  0  0
   13.6432    3.1854   11.9832 N   0  0  0  0  0  0  0  0  0  0  0  0
   14.6821    3.1704   11.2664 C   0  0  0  0  0  0  0  0  0  0  0  0
   14.8112    3.0768    9.9943 O   0  0  0  0  0  0  0  0  0  0  0  0
   15.8932    2.8979   12.0055 N   0  0  0  0  0  0  0  0  0  0  0  0
   15.4535    2.9263   13.4691 C   0  0  2  0  0  0  0  0  0  0  0  0
  1  2  1  0  0  0  0
  1  3  2  0  0  0  0
  1  4  1  0  0  0  0
  4  5  1  0  0  0  0
  5  6  1  0  0  0  0
  6  7  1  0  0  0  0
  8  7  1  6  0  0  0
  8  9  1  0  0  0  0
  8 16  1  0  0  0  0
  9 10  1  0  0  0  0
 11 10  1  6  0  0  0
 11 12  1  0  0  0  0
 11 16  1  0  0  0  0
 12 13  1  0  0  0  0
 13 14  2  0  0  0  0
 13 15  1  0  0  0  0
 16 15  1  6  0  0  0
M  CHG  1   2  -1
M  END
>  <CHROM.1>
29.53503968,173.23255978,74.08021820,171.83291007,40.51919441,16.72629988
1.17465374,12.84276334,-0.31542920,0.37103135,-0.89815599

>  <Name>
1f27 biotin aptamer (Xray 1.3A)

>  <RI>
0

>  <Rbt.Current_Directory>
/home/itssahil/PROJECTS/Mol_Feturizer/New_Systems/rnas/1f27

>  <Rbt.Executable>
rbdock ($Id: //depot/dev/client3/rdock/2013.1/src/exe/rbdock.cxx#4 $)

>  <Rbt.Library>
libRbt.so (2013.1, Build901 2013/11/27)

>  <Rbt.Parameter_File>
/export/apps/rDock/src/rDock_2013.1_src/data/scripts/dock_solv.prm

>  <Rbt.Receptor>
prm/pocket_docking_5.prm

>  <SCORE>
-29.0939

>  <SCORE.INTER>
-28.7062

>  <SCORE.INTER.CONST>
1

>  <SCORE.INTER.POLAR>
-2.22416

>  <SCORE.INTER.ROT>
5

>  <SCORE.INTER.SOLV>
12.1391

>  <SCORE.INTER.VDW>
-22.7033

>  <SCORE.INTER.norm>
-1.79414

>  <SCORE.INTRA>
-0.387741

>  <SCORE.INTRA.DIHEDRAL>
-3.00058

>  <SCORE.INTRA.DIHEDRAL.0>
6.87082

>  <SCORE.INTRA.POLAR>
0

>  <SCORE.INTRA.POLAR.0>
0

>  <SCORE.INTRA.REPUL>
0

>  <SCORE.INTRA.REPUL.0>
0

>  <SCORE.INTRA.SOLV>
-0.274496

>  <SCORE.INTRA.SOLV.lig_0>
-42.5944

>  <SCORE.INTRA.VDW>
1.2498

>  <SCORE.INTRA.VDW.0>
-1.067

>  <SCORE.INTRA.norm>
-0.0242338

>  <SCORE.RESTR>
0

>  <SCORE.RESTR.CAVITY>
0

>  <SCORE.RESTR.norm>
0

>  <SCORE.SYSTEM>
0

>  <SCORE.SYSTEM.CONST>
0

>  <SCORE.SYSTEM.DIHEDRAL>
0

>  <SCORE.SYSTEM.SOLV>
0

>  <SCORE.SYSTEM.norm>
0

>  <SCORE.heavy>
16

>  <SCORE.norm>
-1.81837

>  <RMSD>
1.538

$$$$
1f27 biotin aptamer (Xray 1.3A)
 OpenBabel11021811393D
libRbt.so/2013.1/901 2013/11/27
 16 17  0  0  0  0  0  0  0  0999 V2000
   21.0365   -0.4708   13.2207 C   0  0  0  0  0  0  0  0  0  0  0  0
   21.8329   -0.4626   12.2874 O   0  5  0  0  0  0  0  0  0  0  0  0
   20.1907   -1.3604   13.2953 O   0  0  0  0  0  0  0  0  0  0  0  0
   21.1375    0.5778   14.3211 C   0  0  0  0  0  0  0  0  0  0  0  0
   20.1610    1.7628   14.1502 C   0  0  0  0  0  0  0  0  0  0  0  0
   18.7243    1.3465   14.4060 C   0  0  0  0  0  0  0  0  0  0  0  0
   17.7104    2.4009   14.0137 C   0  0  0  0  0  0  0  0  0  0  0  0
   16.2458    1.9972   14.2287 C   0  0  2  0  0  0  0  0  0  0  0  0
   15.7542    0.2613   13.5879 S   0  0  0  0  0  0  0  0  0  0  0  0
   13.9401    0.8189   13.7957 C   0  0  0  0  0  0  0  0  0  0  0  0
   13.9383    2.3309   13.4253 C   0  0  2  0  0  0  0  0  0  0  0  0
   13.6526    2.3879   11.9007 N   0  0  0  0  0  0  0  0  0  0  0  0
   14.5732    2.9437   11.2398 C   0  0  0  0  0  0  0  0  0  0  0  0
   14.7541    3.0221    9.9730 O   0  0  0  0  0  0  0  0  0  0  0  0
   15.7459    3.2529   12.0251 N   0  0  0  0  0  0  0  0  0  0  0  0
   15.3249    2.9497   13.4628 C   0  0  2  0  0  0  0  0  0  0  0  0
  1  2  1  0  0  0  0
  1  3  2  0  0  0  0
  1  4  1  0  0  0  0
  4  5  1  0  0  0  0
  5  6  1  0  0  0  0
  6  7  1  0  0  0  0
  8  7  1  6  0  0  0
  8  9  1  0  0  0  0
  8 16  1  0  0  0  0
  9 10  1  0  0  0  0
 11 10  1  6  0  0  0
 11 12  1  0  0  0  0
 11 16  1  0  0  0  0
 12 13  1  0  0  0  0
 13 14  2  0  0  0  0
 13 15  1  0  0  0  0
 16 15  1  6  0  0  0
M  CHG  1   2  -1
M  END
>  <CHROM.1>
98.52282058,70.76431930,-169.71545196,178.59855367,-47.09368001,17.10212348
1.37087862,13.08468414,-0.33985860,0.21013771,-1.00196281

>  <Name>
1f27 biotin aptamer (Xray 1.3A)

>  <RI>
0

>  <Rbt.Current_Directory>
/home/itssahil/PROJECTS/Mol_Feturizer/New_Systems/rnas/1f27

>  <Rbt.Executable>
rbdock ($Id: //depot/dev/client3/rdock/2013.1/src/exe/rbdock.cxx#4 $)

>  <Rbt.Library>
libRbt.so (2013.1, Build901 2013/11/27)

>  <Rbt.Parameter_File>
/export/apps/rDock/src/rDock_2013.1_src/data/scripts/dock_solv.prm

>  <Rbt.Receptor>
prm/pocket_docking_4.prm

>  <SCORE>
-35.2672

>  <SCORE.INTER>
-33.3942

>  <SCORE.INTER.CONST>
1

>  <SCORE.INTER.POLAR>
-2.72297

>  <SCORE.INTER.ROT>
5

>  <SCORE.INTER.SOLV>
12.6176

>  <SCORE.INTER.VDW>
-24.3254

>  <SCORE.INTER.norm>
-2.08714

>  <SCORE.INTRA>
-1.87303

>  <SCORE.INTRA.DIHEDRAL>
-3.89289

>  <SCORE.INTRA.DIHEDRAL.0>
6.87082

>  <SCORE.INTRA.POLAR>
0

>  <SCORE.INTRA.POLAR.0>
0

>  <SCORE.INTRA.REPUL>
0

>  <SCORE.INTRA.REPUL.0>
0

>  <SCORE.INTRA.SOLV>
0.122492

>  <SCORE.INTRA.SOLV.lig_0>
-42.5944

>  <SCORE.INTRA.VDW>
0.0121712

>  <SCORE.INTRA.VDW.0>
-1.067

>  <SCORE.INTRA.norm>
-0.117064

>  <SCORE.RESTR>
0

>  <SCORE.RESTR.CAVITY>
0

>  <SCORE.RESTR.norm>
0

>  <SCORE.SYSTEM>
0

>  <SCORE.SYSTEM.CONST>
0

>  <SCORE.SYSTEM.DIHEDRAL>
0

>  <SCORE.SYSTEM.SOLV>
0

>  <SCORE.SYSTEM.norm>
0

>  <SCORE.heavy>
16

>  <SCORE.norm>
-2.2042

>  <RMSD>
1.539

$$$$
1f27 biotin aptamer (Xray 1.3A)
 OpenBabel11021811393D
libRbt.so/2013.1/901 2013/11/27
 16 17  0  0  0  0  0  0  0  0999 V2000
   20.8964   -1.1782   14.9613 C   0  0  0  0  0  0  0  0  0  0  0  0
   21.5825   -1.6310   14.0505 O   0  5  0  0  0  0  0  0  0  0  0  0
   21.4144   -0.4716   15.8243 O   0  0  0  0  0  0  0  0  0  0  0  0
   19.3947   -1.4329   14.9865 C   0  0  0  0  0  0  0  0  0  0  0  0
   18.5775   -0.4544   14.1137 C   0  0  0  0  0  0  0  0  0  0  0  0
   18.6641    0.9680   14.6352 C   0  0  0  0  0  0  0  0  0  0  0  0
   17.7445    1.9326   13.9158 C   0  0  0  0  0  0  0  0  0  0  0  0
   16.2476    1.6920   14.1514 C   0  0  2  0  0  0  0  0  0  0  0  0
   15.5501    0.0404   13.4793 S   0  0  0  0  0  0  0  0  0  0  0  0
   13.8154    0.7945   13.7383 C   0  0  0  0  0  0  0  0  0  0  0  0
   13.9790    2.3061   13.4046 C   0  0  2  0  0  0  0  0  0  0  0  0
   13.6743    2.4353   11.8881 N   0  0  0  0  0  0  0  0  0  0  0  0
   14.6402    2.9003   11.2218 C   0  0  0  0  0  0  0  0  0  0  0  0
   14.8060    2.9911    9.9537 O   0  0  0  0  0  0  0  0  0  0  0  0
   15.8544    3.0539   11.9897 N   0  0  0  0  0  0  0  0  0  0  0  0
   15.4275    2.7626   13.4281 C   0  0  2  0  0  0  0  0  0  0  0  0
  1  2  1  0  0  0  0
  1  3  2  0  0  0  0
  1  4  1  0  0  0  0
  4  5  1  0  0  0  0
  5  6  1  0  0  0  0
  6  7  1  0  0  0  0
  8  7  1  6  0  0  0
  8  9  1  0  0  0  0
  8 16  1  0  0  0  0
  9 10  1  0  0  0  0
 11 10  1  6  0  0  0
 11 12  1  0  0  0  0
 11 16  1  0  0  0  0
 12 13  1  0  0  0  0
 13 14  2  0  0  0  0
 13 15  1  0  0  0  0
 16 15  1  6  0  0  0
M  CHG  1   2  -1
M  END
>  <CHROM.1>
-83.19479782,-65.12041390,-172.86924757,67.58732761,-65.02988214,16.95430458
0.95338946,13.46685411,-0.61677792,0.06138613,-0.79519139

>  <Name>
1f27 biotin aptamer (Xray 1.3A)

>  <RI>
0

>  <Rbt.Current_Directory>
/home/itssahil/PROJECTS/Mol_Feturizer/New_Systems/rnas/1f27

>  <Rbt.Executable>
rbdock ($Id: //depot/dev/client3/rdock/2013.1/src/exe/rbdock.cxx#4 $)

>  <Rbt.Library>
libRbt.so (2013.1, Build901 2013/11/27)

>  <Rbt.Parameter_File>
/export/apps/rDock/src/rDock_2013.1_src/data/scripts/dock_solv.prm

>  <Rbt.Receptor>
prm/pocket_docking_6.prm

>  <SCORE>
-29.1396

>  <SCORE.INTER>
-27.2016

>  <SCORE.INTER.CONST>
1

>  <SCORE.INTER.POLAR>
-1.79066

>  <SCORE.INTER.ROT>
5

>  <SCORE.INTER.SOLV>
8.6863

>  <SCORE.INTER.VDW>
-21.9943

>  <SCORE.INTER.norm>
-1.7001

>  <SCORE.INTRA>
-1.93797

>  <SCORE.INTRA.DIHEDRAL>
-4.96757

>  <SCORE.INTRA.DIHEDRAL.0>
6.87082

>  <SCORE.INTRA.POLAR>
0

>  <SCORE.INTRA.POLAR.0>
0

>  <SCORE.INTRA.REPUL>
0

>  <SCORE.INTRA.REPUL.0>
0

>  <SCORE.INTRA.SOLV>
0.196159

>  <SCORE.INTRA.SOLV.lig_0>
-42.5944

>  <SCORE.INTRA.VDW>
0.447738

>  <SCORE.INTRA.VDW.0>
-1.067

>  <SCORE.INTRA.norm>
-0.121123

>  <SCORE.RESTR>
0

>  <SCORE.RESTR.CAVITY>
0

>  <SCORE.RESTR.norm>
0

>  <SCORE.SYSTEM>
0

>  <SCORE.SYSTEM.CONST>
0

>  <SCORE.SYSTEM.DIHEDRAL>
0

>  <SCORE.SYSTEM.SOLV>
0

>  <SCORE.SYSTEM.norm>
0

>  <SCORE.heavy>
16

>  <SCORE.norm>
-1.82123

>  <RMSD>
1.539

$$$$
1f27 biotin aptamer (Xray 1.3A)
 OpenBabel11021811393D
libRbt.so/2013.1/901 2013/11/27
 16 17  0  0  0  0  0  0  0  0999 V2000
   21.0105   -0.4839   13.1498 C   0  0  0  0  0  0  0  0  0  0  0  0
   21.8787   -0.5213   12.2837 O   0  5  0  0  0  0  0  0  0  0  0  0
   20.1070   -1.3183   13.1468 O   0  0  0  0  0  0  0  0  0  0  0  0
   21.0879    0.5501   14.2658 C   0  0  0  0  0  0  0  0  0  0  0  0
   20.0991    1.7258   14.1016 C   0  0  0  0  0  0  0  0  0  0  0  0
   18.6604    1.2771   14.2798 C   0  0  0  0  0  0  0  0  0  0  0  0
   17.6482    2.3709   14.0098 C   0  0  0  0  0  0  0  0  0  0  0  0
   16.1836    1.9524   14.1945 C   0  0  2  0  0  0  0  0  0  0  0  0
   15.7164    0.2231   13.5186 S   0  0  0  0  0  0  0  0  0  0  0  0
   13.8948    0.7633   13.7055 C   0  0  0  0  0  0  0  0  0  0  0  0
   13.8868    2.2808   13.3590 C   0  0  2  0  0  0  0  0  0  0  0  0
   13.6253    2.3599   11.8311 N   0  0  0  0  0  0  0  0  0  0  0  0
   14.5520    2.9332   11.1941 C   0  0  0  0  0  0  0  0  0  0  0  0
   14.7527    3.0331    9.9318 O   0  0  0  0  0  0  0  0  0  0  0  0
   15.7094    3.2390   12.0032 N   0  0  0  0  0  0  0  0  0  0  0  0
   15.2676    2.9098   13.4288 C   0  0  2  0  0  0  0  0  0  0  0  0
  1  2  1  0  0  0  0
  1  3  2  0  0  0  0
  1  4  1  0  0  0  0
  4  5  1  0  0  0  0
  5  6  1  0  0  0  0
  6  7  1  0  0  0  0
  8  7  1  6  0  0  0
  8  9  1  0  0  0  0
  8 16  1  0  0  0  0
  9 10  1  0  0  0  0
 11 10  1  6  0  0  0
 11 12  1  0  0  0  0
 11 16  1  0  0  0  0
 12 13  1  0  0  0  0
 13 14  2  0  0  0  0
 13 15  1  0  0  0  0
 16 15  1  6  0  0  0
M  CHG  1   2  -1
M  END
>  <CHROM.1>
104.45747833,68.37985183,-175.01734557,-179.44306812,-41.71812197,17.06288250
1.34190266,13.02551809,-0.33827126,0.20703038,-0.98901689

>  <Name>
1f27 biotin aptamer (Xray 1.3A)

>  <RI>
0

>  <Rbt.Current_Directory>
/home/itssahil/PROJECTS/Mol_Feturizer/New_Systems/rnas/1f27

>  <Rbt.Executable>
rbdock ($Id: //depot/dev/client3/rdock/2013.1/src/exe/rbdock.cxx#4 $)

>  <Rbt.Library>
libRbt.so (2013.1, Build901 2013/11/27)

>  <Rbt.Parameter_File>
/export/apps/rDock/src/rDock_2013.1_src/data/scripts/dock_solv.prm

>  <Rbt.Receptor>
prm/blind_docking_60.prm

>  <SCORE>
-35.121

>  <SCORE.INTER>
-33.449

>  <SCORE.INTER.CONST>
1

>  <SCORE.INTER.POLAR>
-2.70281

>  <SCORE.INTER.ROT>
5

>  <SCORE.INTER.SOLV>
12.8232

>  <SCORE.INTER.VDW>
-24.4977

>  <SCORE.INTER.norm>
-2.09056

>  <SCORE.INTRA>
-1.67197

>  <SCORE.INTRA.DIHEDRAL>
-3.80479

>  <SCORE.INTRA.DIHEDRAL.0>
6.87082

>  <SCORE.INTRA.POLAR>
0

>  <SCORE.INTRA.POLAR.0>
0

>  <SCORE.INTRA.REPUL>
0

>  <SCORE.INTRA.REPUL.0>
0

>  <SCORE.INTRA.SOLV>
0.202548

>  <SCORE.INTRA.SOLV.lig_0>
-42.5944

>  <SCORE.INTRA.VDW>
0.129154

>  <SCORE.INTRA.VDW.0>
-1.067

>  <SCORE.INTRA.norm>
-0.104498

>  <SCORE.RESTR>
0

>  <SCORE.RESTR.CAVITY>
0

>  <SCORE.RESTR.norm>
0

>  <SCORE.SYSTEM>
0

>  <SCORE.SYSTEM.CONST>
0

>  <SCORE.SYSTEM.DIHEDRAL>
0

>  <SCORE.SYSTEM.SOLV>
0

>  <SCORE.SYSTEM.norm>
0

>  <SCORE.heavy>
16

>  <SCORE.norm>
-2.19506

>  <RMSD>
1.540

$$$$
1f27 biotin aptamer (Xray 1.3A)
 OpenBabel11021811393D
libRbt.so/2013.1/901 2013/11/27
 16 17  0  0  0  0  0  0  0  0999 V2000
   21.1529   -0.5166   13.3469 C   0  0  0  0  0  0  0  0  0  0  0  0
   20.2967   -1.3827   13.4954 O   0  5  0  0  0  0  0  0  0  0  0  0
   21.9088   -0.5634   12.3779 O   0  0  0  0  0  0  0  0  0  0  0  0
   21.2361    0.6513   14.3214 C   0  0  0  0  0  0  0  0  0  0  0  0
   20.2235    1.7821   14.0335 C   0  0  0  0  0  0  0  0  0  0  0  0
   18.8015    1.3543   14.3464 C   0  0  0  0  0  0  0  0  0  0  0  0
   17.7633    2.3955   13.9837 C   0  0  0  0  0  0  0  0  0  0  0  0
   16.3088    1.9555   14.1961 C   0  0  2  0  0  0  0  0  0  0  0  0
   15.8551    0.2184   13.5311 S   0  0  0  0  0  0  0  0  0  0  0  0
   14.0294    0.7315   13.7512 C   0  0  0  0  0  0  0  0  0  0  0  0
   13.9923    2.2483   13.4029 C   0  0  2  0  0  0  0  0  0  0  0  0
   13.7014    2.3210   11.8800 N   0  0  0  0  0  0  0  0  0  0  0  0
   14.6074    2.9071   11.2252 C   0  0  0  0  0  0  0  0  0  0  0  0
   14.7831    3.0081    9.9593 O   0  0  0  0  0  0  0  0  0  0  0  0
   15.7748    3.2315   12.0123 N   0  0  0  0  0  0  0  0  0  0  0  0
   15.3646    2.8979   13.4463 C   0  0  2  0  0  0  0  0  0  0  0  0
  1  2  1  0  0  0  0
  1  3  2  0  0  0  0
  1  4  1  0  0  0  0
  4  5  1  0  0  0  0
  5  6  1  0  0  0  0
  6  7  1  0  0  0  0
  8  7  1  6  0  0  0
  8  9  1  0  0  0  0
  8 16  1  0  0  0  0
  9 10  1  0  0  0  0
 11 10  1  6  0  0  0
 11 12  1  0  0  0  0
 11 16  1  0  0  0  0
 12 13  1  0  0  0  0
 13 14  2  0  0  0  0
 13 15  1  0  0  0  0
 16 15  1  6  0  0  0
M  CHG  1   2  -1
M  END
>  <CHROM.1>
-81.12805015,70.36273797,-175.76281548,175.91272958,-46.56588052,17.17183208
1.33776756,13.08056679,-0.36964698,0.15840711,-0.89098230

>  <Name>
1f27 biotin aptamer (Xray 1.3A)

>  <RI>
0

>  <Rbt.Current_Directory>
/home/itssahil/PROJECTS/Mol_Feturizer/New_Systems/rnas/1f27

>  <Rbt.Executable>
rbdock ($Id: //depot/dev/client3/rdock/2013.1/src/exe/rbdock.cxx#4 $)

>  <Rbt.Library>
libRbt.so (2013.1, Build901 2013/11/27)

>  <Rbt.Parameter_File>
/export/apps/rDock/src/rDock_2013.1_src/data/scripts/dock_solv.prm

>  <Rbt.Receptor>
prm/pocket_docking_3.prm

>  <SCORE>
-35.3103

>  <SCORE.INTER>
-33.2496

>  <SCORE.INTER.CONST>
1

>  <SCORE.INTER.POLAR>
-2.6318

>  <SCORE.INTER.ROT>
5

>  <SCORE.INTER.SOLV>
12.1444

>  <SCORE.INTER.VDW>
-24.3752

>  <SCORE.INTER.norm>
-2.0781

>  <SCORE.INTRA>
-2.0607

>  <SCORE.INTRA.DIHEDRAL>
-4.36442

>  <SCORE.INTRA.DIHEDRAL.0>
6.87082

>  <SCORE.INTRA.POLAR>
0

>  <SCORE.INTRA.POLAR.0>
0

>  <SCORE.INTRA.REPUL>
0

>  <SCORE.INTRA.REPUL.0>
0

>  <SCORE.INTRA.SOLV>
0.166019

>  <SCORE.INTRA.SOLV.lig_0>
-42.5944

>  <SCORE.INTRA.VDW>
0.0385025

>  <SCORE.INTRA.VDW.0>
-1.067

>  <SCORE.INTRA.norm>
-0.128794

>  <SCORE.RESTR>
0

>  <SCORE.RESTR.CAVITY>
0

>  <SCORE.RESTR.norm>
0

>  <SCORE.SYSTEM>
0

>  <SCORE.SYSTEM.CONST>
0

>  <SCORE.SYSTEM.DIHEDRAL>
0

>  <SCORE.SYSTEM.SOLV>
0

>  <SCORE.SYSTEM.norm>
0

>  <SCORE.heavy>
16

>  <SCORE.norm>
-2.20689

>  <RMSD>
1.540

$$$$
1f27 biotin aptamer (Xray 1.3A)
 OpenBabel11021811393D
libRbt.so/2013.1/901 2013/11/27
 16 17  0  0  0  0  0  0  0  0999 V2000
   21.4932   -0.2340   13.9075 C   0  0  0  0  0  0  0  0  0  0  0  0
   22.3339   -0.8325   14.5712 O   0  5  0  0  0  0  0  0  0  0  0  0
   21.7726    0.1571   12.7755 O   0  0  0  0  0  0  0  0  0  0  0  0
   20.0859   -0.0354   14.4558 C   0  0  0  0  0  0  0  0  0  0  0  0
   18.9941   -0.7987   13.6733 C   0  0  0  0  0  0  0  0  0  0  0  0
   17.6002   -0.3769   14.1000 C   0  0  0  0  0  0  0  0  0  0  0  0
   17.3118    1.0899   13.8572 C   0  0  0  0  0  0  0  0  0  0  0  0
   15.8754    1.5249   14.1767 C   0  0  2  0  0  0  0  0  0  0  0  0
   14.4967    0.3000   13.6624 S   0  0  0  0  0  0  0  0  0  0  0  0
   13.2693    1.7356   13.9409 C   0  0  0  0  0  0  0  0  0  0  0  0
   14.0341    3.0134   13.4875 C   0  0  2  0  0  0  0  0  0  0  0  0
   13.7041    3.1861   11.9807 N   0  0  0  0  0  0  0  0  0  0  0  0
   14.7250    3.1597   11.2390 C   0  0  0  0  0  0  0  0  0  0  0  0
   14.8215    3.1085    9.9615 O   0  0  0  0  0  0  0  0  0  0  0  0
   15.9418    2.8163   11.9383 N   0  0  0  0  0  0  0  0  0  0  0  0
   15.5369    2.8066   13.4121 C   0  0  2  0  0  0  0  0  0  0  0  0
  1  2  1  0  0  0  0
  1  3  2  0  0  0  0
  1  4  1  0  0  0  0
  4  5  1  0  0  0  0
  5  6  1  0  0  0  0
  6  7  1  0  0  0  0
  8  7  1  6  0  0  0
  8  9  1  0  0  0  0
  8 16  1  0  0  0  0
  9 10  1  0  0  0  0
 11 10  1  6  0  0  0
 11 12  1  0  0  0  0
 11 16  1  0  0  0  0
 12 13  1  0  0  0  0
 13 14  2  0  0  0  0
 13 15  1  0  0  0  0
 16 15  1  6  0  0  0
M  CHG  1   2  -1
M  END
>  <CHROM.1>
-113.35570867,-169.87964645,61.23033237,175.48339142,-40.31496692,16.86504708
1.20028515,13.20303228,-0.40478152,0.17646943,-0.87576387

>  <Name>
1f27 biotin aptamer (Xray 1.3A)

>  <RI>
0

>  <Rbt.Current_Directory>
/home/itssahil/PROJECTS/Mol_Feturizer/New_Systems/rnas/1f27

>  <Rbt.Executable>
rbdock ($Id: //depot/dev/client3/rdock/2013.1/src/exe/rbdock.cxx#4 $)

>  <Rbt.Library>
libRbt.so (2013.1, Build901 2013/11/27)

>  <Rbt.Parameter_File>
/export/apps/rDock/src/rDock_2013.1_src/data/scripts/dock_solv.prm

>  <Rbt.Receptor>
prm/pocket_docking_7.prm

>  <SCORE>
-26.8696

>  <SCORE.INTER>
-25.645

>  <SCORE.INTER.CONST>
1

>  <SCORE.INTER.POLAR>
-1.8606

>  <SCORE.INTER.ROT>
5

>  <SCORE.INTER.SOLV>
12.3703

>  <SCORE.INTER.VDW>
-21.9514

>  <SCORE.INTER.norm>
-1.60281

>  <SCORE.INTRA>
-1.22457

>  <SCORE.INTRA.DIHEDRAL>
-3.63413

>  <SCORE.INTRA.DIHEDRAL.0>
6.87082

>  <SCORE.INTRA.POLAR>
0

>  <SCORE.INTRA.POLAR.0>
0

>  <SCORE.INTRA.REPUL>
0

>  <SCORE.INTRA.REPUL.0>
0

>  <SCORE.INTRA.SOLV>
-0.702981

>  <SCORE.INTRA.SOLV.lig_0>
-42.5944

>  <SCORE.INTRA.VDW>
0.943981

>  <SCORE.INTRA.VDW.0>
-1.067

>  <SCORE.INTRA.norm>
-0.0765358

>  <SCORE.RESTR>
0

>  <SCORE.RESTR.CAVITY>
0

>  <SCORE.RESTR.norm>
0

>  <SCORE.SYSTEM>
0

>  <SCORE.SYSTEM.CONST>
0

>  <SCORE.SYSTEM.DIHEDRAL>
0

>  <SCORE.SYSTEM.SOLV>
0

>  <SCORE.SYSTEM.norm>
0

>  <SCORE.heavy>
16

>  <SCORE.norm>
-1.67935

>  <RMSD>
1.540

$$$$
1f27 biotin aptamer (Xray 1.3A)
 OpenBabel11021811393D
libRbt.so/2013.1/901 2013/11/27
 16 17  0  0  0  0  0  0  0  0999 V2000
   19.5760   -2.7192   14.2933 C   0  0  0  0  0  0  0  0  0  0  0  0
   20.0000   -3.1016   13.2073 O   0  5  0  0  0  0  0  0  0  0  0  0
   19.0775   -3.5278   15.0744 O   0  0  0  0  0  0  0  0  0  0  0  0
   19.7281   -1.2598   14.7025 C   0  0  0  0  0  0  0  0  0  0  0  0
   18.7835   -0.2956   13.9508 C   0  0  0  0  0  0  0  0  0  0  0  0
   18.8007    1.0942   14.5599 C   0  0  0  0  0  0  0  0  0  0  0  0
   17.8291    2.0535   13.9044 C   0  0  0  0  0  0  0  0  0  0  0  0
   16.3479    1.7358   14.1477 C   0  0  2  0  0  0  0  0  0  0  0  0
   15.7316    0.0535   13.4724 S   0  0  0  0  0  0  0  0  0  0  0  0
   13.9622    0.7169   13.7447 C   0  0  0  0  0  0  0  0  0  0  0  0
   14.0465    2.2362   13.4166 C   0  0  2  0  0  0  0  0  0  0  0  0
   13.7265    2.3559   11.9025 N   0  0  0  0  0  0  0  0  0  0  0  0
   14.6634    2.8724   11.2327 C   0  0  0  0  0  0  0  0  0  0  0  0
   14.8168    2.9767    9.9641 O   0  0  0  0  0  0  0  0  0  0  0  0
   15.8728    3.0846   11.9942 N   0  0  0  0  0  0  0  0  0  0  0  0
   15.4699    2.7660   13.4338 C   0  0  2  0  0  0  0  0  0  0  0  0
  1  2  1  0  0  0  0
  1  3  2  0  0  0  0
  1  4  1  0  0  0  0
  4  5  1  0  0  0  0
  5  6  1  0  0  0  0
  6  7  1  0  0  0  0
  8  7  1  6  0  0  0
  8  9  1  0  0  0  0
  8 16  1  0  0  0  0
  9 10  1  0  0  0  0
 11 10  1  6  0  0  0
 11 12  1  0  0  0  0
 11 16  1  0  0  0  0
 12 13  1  0  0  0  0
 13 14  2  0  0  0  0
 13 15  1  0  0  0  0
 16 15  1  6  0  0  0
M  CHG  1   2  -1
M  END
>  <CHROM.1>
73.17462367,170.03458157,-176.68825492,68.54449833,-62.21431886,16.72502313
0.60373104,13.30093201,0.82594716,0.15577020,2.83539311

>  <Name>
1f27 biotin aptamer (Xray 1.3A)

>  <RI>
0

>  <Rbt.Current_Directory>
/home/itssahil/PROJECTS/Mol_Feturizer/New_Systems/rnas/1f27

>  <Rbt.Executable>
rbdock ($Id: //depot/dev/client3/rdock/2013.1/src/exe/rbdock.cxx#4 $)

>  <Rbt.Library>
libRbt.so (2013.1, Build901 2013/11/27)

>  <Rbt.Parameter_File>
/export/apps/rDock/src/rDock_2013.1_src/data/scripts/dock_solv.prm

>  <Rbt.Receptor>
prm/pocket_docking_7.prm

>  <SCORE>
-29.5264

>  <SCORE.INTER>
-27.2581

>  <SCORE.INTER.CONST>
1

>  <SCORE.INTER.POLAR>
-1.79762

>  <SCORE.INTER.ROT>
5

>  <SCORE.INTER.SOLV>
8.47884

>  <SCORE.INTER.VDW>
-21.9396

>  <SCORE.INTER.norm>
-1.70363

>  <SCORE.INTRA>
-2.26836

>  <SCORE.INTRA.DIHEDRAL>
-4.72311

>  <SCORE.INTRA.DIHEDRAL.0>
6.87082

>  <SCORE.INTRA.POLAR>
0

>  <SCORE.INTRA.POLAR.0>
0

>  <SCORE.INTRA.REPUL>
0

>  <SCORE.INTRA.REPUL.0>
0

>  <SCORE.INTRA.SOLV>
-0.762975

>  <SCORE.INTRA.SOLV.lig_0>
-42.5944

>  <SCORE.INTRA.VDW>
0.474689

>  <SCORE.INTRA.VDW.0>
-1.067

>  <SCORE.INTRA.norm>
-0.141772

>  <SCORE.RESTR>
0

>  <SCORE.RESTR.CAVITY>
0

>  <SCORE.RESTR.norm>
0

>  <SCORE.SYSTEM>
0

>  <SCORE.SYSTEM.CONST>
0

>  <SCORE.SYSTEM.DIHEDRAL>
0

>  <SCORE.SYSTEM.SOLV>
0

>  <SCORE.SYSTEM.norm>
0

>  <SCORE.heavy>
16

>  <SCORE.norm>
-1.8454

>  <RMSD>
1.541

$$$$
1f27 biotin aptamer (Xray 1.3A)
 OpenBabel11021811393D
libRbt.so/2013.1/901 2013/11/27
 16 17  0  0  0  0  0  0  0  0999 V2000
   20.8205   -1.1858   13.9840 C   0  0  0  0  0  0  0  0  0  0  0  0
   20.8018   -1.8107   15.0396 O   0  5  0  0  0  0  0  0  0  0  0  0
   21.8847   -0.7461   13.5521 O   0  0  0  0  0  0  0  0  0  0  0  0
   19.5413   -1.0132   13.1750 C   0  0  0  0  0  0  0  0  0  0  0  0
   19.1217    0.4597   12.9709 C   0  0  0  0  0  0  0  0  0  0  0  0
   18.9231    1.1744   14.2948 C   0  0  0  0  0  0  0  0  0  0  0  0
   17.7660    2.1515   14.2866 C   0  0  0  0  0  0  0  0  0  0  0  0
   16.3793    1.5082   14.4199 C   0  0  2  0  0  0  0  0  0  0  0  0
   15.8904    0.2803   13.0346 S   0  0  0  0  0  0  0  0  0  0  0  0
   14.1041    0.4178   13.6943 C   0  0  0  0  0  0  0  0  0  0  0  0
   13.9583    1.8968   14.1575 C   0  0  2  0  0  0  0  0  0  0  0  0
   13.4308    2.6726   12.9209 N   0  0  0  0  0  0  0  0  0  0  0  0
   14.2017    3.5987   12.5453 C   0  0  0  0  0  0  0  0  0  0  0  0
   14.1739    4.3242   11.4886 O   0  0  0  0  0  0  0  0  0  0  0  0
   15.4652    3.6220   13.2457 N   0  0  0  0  0  0  0  0  0  0  0  0
   15.2961    2.5875   14.3580 C   0  0  2  0  0  0  0  0  0  0  0  0
  1  2  1  0  0  0  0
  1  3  2  0  0  0  0
  1  4  1  0  0  0  0
  4  5  1  0  0  0  0
  5  6  1  0  0  0  0
  6  7  1  0  0  0  0
  8  7  1  6  0  0  0
  8  9  1  0  0  0  0
  8 16  1  0  0  0  0
  9 10  1  0  0  0  0
 11 10  1  6  0  0  0
 11 12  1  0  0  0  0
 11 16  1  0  0  0  0
 12 13  1  0  0  0  0
 13 14  2  0  0  0  0
 13 15  1  0  0  0  0
 16 15  1  6  0  0  0
M  CHG  1   2  -1
M  END
>  <CHROM.1>
119.67024206,-58.00065439,-142.48075385,78.15819021,-60.83113962,16.94380885
1.16682385,13.51685665,0.54788459,-0.00704599,2.86382558

>  <Name>
1f27 biotin aptamer (Xray 1.3A)

>  <RI>
0

>  <Rbt.Current_Directory>
/home/itssahil/PROJECTS/Mol_Feturizer/New_Systems/rnas/1f27

>  <Rbt.Executable>
rbdock ($Id: //depot/dev/client3/rdock/2013.1/src/exe/rbdock.cxx#4 $)

>  <Rbt.Library>
libRbt.so (2013.1, Build901 2013/11/27)

>  <Rbt.Parameter_File>
/export/apps/rDock/src/rDock_2013.1_src/data/scripts/dock_solv.prm

>  <Rbt.Receptor>
prm/pocket_docking_6.prm

>  <SCORE>
-25.3642

>  <SCORE.INTER>
-25.5833

>  <SCORE.INTER.CONST>
1

>  <SCORE.INTER.POLAR>
-1.68531

>  <SCORE.INTER.ROT>
5

>  <SCORE.INTER.SOLV>
9.21366

>  <SCORE.INTER.VDW>
-21.4424

>  <SCORE.INTER.norm>
-1.59896

>  <SCORE.INTRA>
0.219181

>  <SCORE.INTRA.DIHEDRAL>
0.0370401

>  <SCORE.INTRA.DIHEDRAL.0>
6.87082

>  <SCORE.INTRA.POLAR>
0

>  <SCORE.INTRA.POLAR.0>
0

>  <SCORE.INTRA.REPUL>
0

>  <SCORE.INTRA.REPUL.0>
0

>  <SCORE.INTRA.SOLV>
0.234457

>  <SCORE.INTRA.SOLV.lig_0>
-42.5944

>  <SCORE.INTRA.VDW>
0.0834321

>  <SCORE.INTRA.VDW.0>
-1.067

>  <SCORE.INTRA.norm>
0.0136988

>  <SCORE.RESTR>
0

>  <SCORE.RESTR.CAVITY>
0

>  <SCORE.RESTR.norm>
0

>  <SCORE.SYSTEM>
0

>  <SCORE.SYSTEM.CONST>
0

>  <SCORE.SYSTEM.DIHEDRAL>
0

>  <SCORE.SYSTEM.SOLV>
0

>  <SCORE.SYSTEM.norm>
0

>  <SCORE.heavy>
16

>  <SCORE.norm>
-1.58526

>  <RMSD>
1.543

$$$$
1f27 biotin aptamer (Xray 1.3A)
 OpenBabel11021811393D
libRbt.so/2013.1/901 2013/11/27
 16 17  0  0  0  0  0  0  0  0999 V2000
   20.9231   -0.9963   12.2742 C   0  0  0  0  0  0  0  0  0  0  0  0
   21.0727   -1.5826   11.2068 O   0  5  0  0  0  0  0  0  0  0  0  0
   21.7152   -0.1153   12.6044 O   0  0  0  0  0  0  0  0  0  0  0  0
   19.7218   -1.3097   13.1568 C   0  0  0  0  0  0  0  0  0  0  0  0
   18.5733   -0.2828   13.0413 C   0  0  0  0  0  0  0  0  0  0  0  0
   18.6278    0.7466   14.1550 C   0  0  0  0  0  0  0  0  0  0  0  0
   17.7380    1.9478   13.9119 C   0  0  0  0  0  0  0  0  0  0  0  0
   16.2435    1.7021   14.1577 C   0  0  2  0  0  0  0  0  0  0  0  0
   15.5470    0.0484   13.4900 S   0  0  0  0  0  0  0  0  0  0  0  0
   13.8116    0.7966   13.7610 C   0  0  0  0  0  0  0  0  0  0  0  0
   13.9679    2.3089   13.4266 C   0  0  2  0  0  0  0  0  0  0  0  0
   13.6524    2.4374   11.9123 N   0  0  0  0  0  0  0  0  0  0  0  0
   14.6121    2.9059   11.2395 C   0  0  0  0  0  0  0  0  0  0  0  0
   14.7689    2.9975    9.9704 O   0  0  0  0  0  0  0  0  0  0  0  0
   15.8310    3.0632   11.9991 N   0  0  0  0  0  0  0  0  0  0  0  0
   15.4150    2.7702   13.4403 C   0  0  2  0  0  0  0  0  0  0  0  0
  1  2  1  0  0  0  0
  1  3  2  0  0  0  0
  1  4  1  0  0  0  0
  4  5  1  0  0  0  0
  5  6  1  0  0  0  0
  6  7  1  0  0  0  0
  8  7  1  6  0  0  0
  8  9  1  0  0  0  0
  8 16  1  0  0  0  0
  9 10  1  0  0  0  0
 11 10  1  6  0  0  0
 11 12  1  0  0  0  0
 11 16  1  0  0  0  0
 12 13  1  0  0  0  0
 13 14  2  0  0  0  0
 13 15  1  0  0  0  0
 16 15  1  6  0  0  0
M  CHG  1   2  -1
M  END
>  <CHROM.1>
-100.15371826,-97.26189375,166.49987138,76.55804534,-42.85947640,16.94925534
0.99777725,12.74915848,-0.23813029,0.39964404,-1.05678534

>  <Name>
1f27 biotin aptamer (Xray 1.3A)

>  <RI>
0

>  <Rbt.Current_Directory>
/home/itssahil/PROJECTS/Mol_Feturizer/New_Systems/rnas/1f27

>  <Rbt.Executable>
rbdock ($Id: //depot/dev/client3/rdock/2013.1/src/exe/rbdock.cxx#4 $)

>  <Rbt.Library>
libRbt.so (2013.1, Build901 2013/11/27)

>  <Rbt.Parameter_File>
/export/apps/rDock/src/rDock_2013.1_src/data/scripts/dock_solv.prm

>  <Rbt.Receptor>
prm/pocket_docking_5.prm

>  <SCORE>
-30.0011

>  <SCORE.INTER>
-31.0578

>  <SCORE.INTER.CONST>
1

>  <SCORE.INTER.POLAR>
-2.48591

>  <SCORE.INTER.ROT>
5

>  <SCORE.INTER.SOLV>
15.7746

>  <SCORE.INTER.VDW>
-24.6104

>  <SCORE.INTER.norm>
-1.94111

>  <SCORE.INTRA>
1.05673

>  <SCORE.INTRA.DIHEDRAL>
1.02169

>  <SCORE.INTRA.DIHEDRAL.0>
6.87082

>  <SCORE.INTRA.POLAR>
0

>  <SCORE.INTRA.POLAR.0>
0

>  <SCORE.INTRA.REPUL>
0

>  <SCORE.INTRA.REPUL.0>
0

>  <SCORE.INTRA.SOLV>
-0.0435092

>  <SCORE.INTRA.SOLV.lig_0>
-42.5944

>  <SCORE.INTRA.VDW>
0.567642

>  <SCORE.INTRA.VDW.0>
-1.067

>  <SCORE.INTRA.norm>
0.0660457

>  <SCORE.RESTR>
0

>  <SCORE.RESTR.CAVITY>
0

>  <SCORE.RESTR.norm>
0

>  <SCORE.SYSTEM>
0

>  <SCORE.SYSTEM.CONST>
0

>  <SCORE.SYSTEM.DIHEDRAL>
0

>  <SCORE.SYSTEM.SOLV>
0

>  <SCORE.SYSTEM.norm>
0

>  <SCORE.heavy>
16

>  <SCORE.norm>
-1.87507

>  <RMSD>
1.544

$$$$
1f27 biotin aptamer (Xray 1.3A)
 OpenBabel11021811393D
libRbt.so/2013.1/901 2013/11/27
 16 17  0  0  0  0  0  0  0  0999 V2000
   21.0505   -0.4542   13.0365 C   0  0  0  0  0  0  0  0  0  0  0  0
   21.9387   -0.5777   12.1991 O   0  5  0  0  0  0  0  0  0  0  0  0
   20.2078   -1.3400   13.1697 O   0  0  0  0  0  0  0  0  0  0  0  0
   21.0301    0.7603   13.9558 C   0  0  0  0  0  0  0  0  0  0  0  0
   19.6255    1.3717   14.1567 C   0  0  0  0  0  0  0  0  0  0  0  0
   18.9639    1.7033   12.8319 C   0  0  0  0  0  0  0  0  0  0  0  0
   17.8465    2.7186   12.9516 C   0  0  0  0  0  0  0  0  0  0  0  0
   16.6207    2.2368   13.7388 C   0  0  2  0  0  0  0  0  0  0  0  0
   15.9202    0.5284   13.2325 S   0  0  0  0  0  0  0  0  0  0  0  0
   14.3654    0.9900   14.2398 C   0  0  0  0  0  0  0  0  0  0  0  0
   14.1884    2.5220   14.0285 C   0  0  2  0  0  0  0  0  0  0  0  0
   13.2749    2.6698   12.7824 N   0  0  0  0  0  0  0  0  0  0  0  0
   13.8163    3.3093   11.8384 C   0  0  0  0  0  0  0  0  0  0  0  0
   13.4345    3.4816   10.6267 O   0  0  0  0  0  0  0  0  0  0  0  0
   15.2092    3.6160   12.0691 N   0  0  0  0  0  0  0  0  0  0  0  0
   15.4499    3.1976   13.5193 C   0  0  2  0  0  0  0  0  0  0  0  0
  1  2  1  0  0  0  0
  1  3  2  0  0  0  0
  1  4  1  0  0  0  0
  4  5  1  0  0  0  0
  5  6  1  0  0  0  0
  6  7  1  0  0  0  0
  8  7  1  6  0  0  0
  8  9  1  0  0  0  0
  8 16  1  0  0  0  0
  9 10  1  0  0  0  0
 11 10  1  6  0  0  0
 11 12  1  0  0  0  0
 11 16  1  0  0  0  0
 12 13  1  0  0  0  0
 13 14  2  0  0  0  0
 13 15  1  0  0  0  0
 16 15  1  6  0  0  0
M  CHG  1   2  -1
M  END
>  <CHROM.1>
137.51900469,-54.19299265,-159.65524254,-66.21657415,-49.31233789,16.99998892
1.56200691,13.00671675,-0.38414792,0.16153092,-0.59386627

>  <Name>
1f27 biotin aptamer (Xray 1.3A)

>  <RI>
0

>  <Rbt.Current_Directory>
/home/itssahil/PROJECTS/Mol_Feturizer/New_Systems/rnas/1f27

>  <Rbt.Executable>
rbdock ($Id: //depot/dev/client3/rdock/2013.1/src/exe/rbdock.cxx#4 $)

>  <Rbt.Library>
libRbt.so (2013.1, Build901 2013/11/27)

>  <Rbt.Parameter_File>
/export/apps/rDock/src/rDock_2013.1_src/data/scripts/dock_solv.prm

>  <Rbt.Receptor>
prm/pocket_docking_6.prm

>  <SCORE>
-29.358

>  <SCORE.INTER>
-28.3765

>  <SCORE.INTER.CONST>
1

>  <SCORE.INTER.POLAR>
-1.80154

>  <SCORE.INTER.ROT>
5

>  <SCORE.INTER.SOLV>
11.3834

>  <SCORE.INTER.VDW>
-23.6403

>  <SCORE.INTER.norm>
-1.77353

>  <SCORE.INTRA>
-0.981531

>  <SCORE.INTRA.DIHEDRAL>
-3.26424

>  <SCORE.INTRA.DIHEDRAL.0>
6.87082

>  <SCORE.INTRA.POLAR>
0

>  <SCORE.INTRA.POLAR.0>
0

>  <SCORE.INTRA.REPUL>
0

>  <SCORE.INTRA.REPUL.0>
0

>  <SCORE.INTRA.SOLV>
0.284562

>  <SCORE.INTRA.SOLV.lig_0>
-42.5944

>  <SCORE.INTRA.VDW>
0.508306

>  <SCORE.INTRA.VDW.0>
-1.067

>  <SCORE.INTRA.norm>
-0.0613457

>  <SCORE.RESTR>
0

>  <SCORE.RESTR.CAVITY>
0

>  <SCORE.RESTR.norm>
0

>  <SCORE.SYSTEM>
0

>  <SCORE.SYSTEM.CONST>
0

>  <SCORE.SYSTEM.DIHEDRAL>
0

>  <SCORE.SYSTEM.SOLV>
0

>  <SCORE.SYSTEM.norm>
0

>  <SCORE.heavy>
16

>  <SCORE.norm>
-1.83487

>  <RMSD>
1.550

$$$$
1f27 biotin aptamer (Xray 1.3A)
 OpenBabel11021811393D
libRbt.so/2013.1/901 2013/11/27
 16 17  0  0  0  0  0  0  0  0999 V2000
   21.1196   -0.4996   13.2678 C   0  0  0  0  0  0  0  0  0  0  0  0
   20.2870   -1.3859   13.4312 O   0  5  0  0  0  0  0  0  0  0  0  0
   21.8490   -0.5205   12.2778 O   0  0  0  0  0  0  0  0  0  0  0  0
   21.2044    0.6605   14.2514 C   0  0  0  0  0  0  0  0  0  0  0  0
   20.1824    1.7874   13.9821 C   0  0  0  0  0  0  0  0  0  0  0  0
   18.7593    1.3261   14.2370 C   0  0  0  0  0  0  0  0  0  0  0  0
   17.7165    2.3754   13.9127 C   0  0  0  0  0  0  0  0  0  0  0  0
   16.2645    1.9273   14.1256 C   0  0  2  0  0  0  0  0  0  0  0  0
   15.8026    0.2163   13.4010 S   0  0  0  0  0  0  0  0  0  0  0  0
   13.9797    0.7203   13.6620 C   0  0  0  0  0  0  0  0  0  0  0  0
   13.9388    2.2491   13.3716 C   0  0  2  0  0  0  0  0  0  0  0  0
   13.6298    2.3792   11.8561 N   0  0  0  0  0  0  0  0  0  0  0  0
   14.5281    2.9898   11.2132 C   0  0  0  0  0  0  0  0  0  0  0  0
   14.6888    3.1385    9.9499 O   0  0  0  0  0  0  0  0  0  0  0  0
   15.7049    3.2846   11.9980 N   0  0  0  0  0  0  0  0  0  0  0  0
   15.3116    2.8970   13.4231 C   0  0  2  0  0  0  0  0  0  0  0  0
  1  2  1  0  0  0  0
  1  3  2  0  0  0  0
  1  4  1  0  0  0  0
  4  5  1  0  0  0  0
  5  6  1  0  0  0  0
  6  7  1  0  0  0  0
  8  7  1  6  0  0  0
  8  9  1  0  0  0  0
  8 16  1  0  0  0  0
  9 10  1  0  0  0  0
 11 10  1  6  0  0  0
 11 12  1  0  0  0  0
 11 16  1  0  0  0  0
 12 13  1  0  0  0  0
 13 14  2  0  0  0  0
 13 15  1  0  0  0  0
 16 15  1  6  0  0  0
M  CHG  1   2  -1
M  END
>  <CHROM.1>
-82.54061703,67.48130509,-176.82702391,178.50096252,-47.16010392,17.11954185
1.35650272,13.01590340,-0.37941335,0.13574661,-0.81468998

>  <Name>
1f27 biotin aptamer (Xray 1.3A)

>  <RI>
0

>  <Rbt.Current_Directory>
/home/itssahil/PROJECTS/Mol_Feturizer/New_Systems/rnas/1f27

>  <Rbt.Executable>
rbdock ($Id: //depot/dev/client3/rdock/2013.1/src/exe/rbdock.cxx#4 $)

>  <Rbt.Library>
libRbt.so (2013.1, Build901 2013/11/27)

>  <Rbt.Parameter_File>
/export/apps/rDock/src/rDock_2013.1_src/data/scripts/dock_solv.prm

>  <Rbt.Receptor>
prm/pocket_docking_8.prm

>  <SCORE>
-35.5144

>  <SCORE.INTER>
-33.3281

>  <SCORE.INTER.CONST>
1

>  <SCORE.INTER.POLAR>
-2.65949

>  <SCORE.INTER.ROT>
5

>  <SCORE.INTER.SOLV>
12.2392

>  <SCORE.INTER.VDW>
-24.3668

>  <SCORE.INTER.norm>
-2.083

>  <SCORE.INTRA>
-2.18635

>  <SCORE.INTRA.DIHEDRAL>
-4.70097

>  <SCORE.INTRA.DIHEDRAL.0>
6.87082

>  <SCORE.INTRA.POLAR>
0

>  <SCORE.INTRA.POLAR.0>
0

>  <SCORE.INTRA.REPUL>
0

>  <SCORE.INTRA.REPUL.0>
0

>  <SCORE.INTRA.SOLV>
0.19427

>  <SCORE.INTRA.SOLV.lig_0>
-42.5944

>  <SCORE.INTRA.VDW>
0.0670031

>  <SCORE.INTRA.VDW.0>
-1.067

>  <SCORE.INTRA.norm>
-0.136647

>  <SCORE.RESTR>
0

>  <SCORE.RESTR.CAVITY>
0

>  <SCORE.RESTR.norm>
0

>  <SCORE.SYSTEM>
0

>  <SCORE.SYSTEM.CONST>
0

>  <SCORE.SYSTEM.DIHEDRAL>
0

>  <SCORE.SYSTEM.SOLV>
0

>  <SCORE.SYSTEM.norm>
0

>  <SCORE.heavy>
16

>  <SCORE.norm>
-2.21965

>  <RMSD>
1.552

$$$$
1f27 biotin aptamer (Xray 1.3A)
 OpenBabel11021811393D
libRbt.so/2013.1/901 2013/11/27
 16 17  0  0  0  0  0  0  0  0999 V2000
   21.1994   -0.8310   14.6549 C   0  0  0  0  0  0  0  0  0  0  0  0
   21.5219   -1.2112   13.5338 O   0  5  0  0  0  0  0  0  0  0  0  0
   20.8461   -1.6508   15.5007 O   0  0  0  0  0  0  0  0  0  0  0  0
   21.3014    0.6443   15.0206 C   0  0  0  0  0  0  0  0  0  0  0  0
   20.3159    1.5512   14.2504 C   0  0  0  0  0  0  0  0  0  0  0  0
   18.8723    1.1935   14.5521 C   0  0  0  0  0  0  0  0  0  0  0  0
   17.8704    2.1292   13.9083 C   0  0  0  0  0  0  0  0  0  0  0  0
   16.4001    1.7629   14.1497 C   0  0  2  0  0  0  0  0  0  0  0  0
   15.8412    0.0599   13.4766 S   0  0  0  0  0  0  0  0  0  0  0  0
   14.0503    0.6646   13.7447 C   0  0  0  0  0  0  0  0  0  0  0  0
   14.0847    2.1853   13.4139 C   0  0  2  0  0  0  0  0  0  0  0  0
   13.7635    2.2915   11.8990 N   0  0  0  0  0  0  0  0  0  0  0  0
   14.6838    2.8376   11.2298 C   0  0  0  0  0  0  0  0  0  0  0  0
   14.8358    2.9446    9.9612 O   0  0  0  0  0  0  0  0  0  0  0  0
   15.8842    3.0912   11.9929 N   0  0  0  0  0  0  0  0  0  0  0  0
   15.4897    2.7621   13.4324 C   0  0  2  0  0  0  0  0  0  0  0  0
  1  2  1  0  0  0  0
  1  3  2  0  0  0  0
  1  4  1  0  0  0  0
  4  5  1  0  0  0  0
  5  6  1  0  0  0  0
  6  7  1  0  0  0  0
  8  7  1  6  0  0  0
  8  9  1  0  0  0  0
  8 16  1  0  0  0  0
  9 10  1  0  0  0  0
 11 10  1  6  0  0  0
 11 12  1  0  0  0  0
 11 16  1  0  0  0  0
 12 13  1  0  0  0  0
 13 14  2  0  0  0  0
 13 15  1  0  0  0  0
 16 15  1  6  0  0  0
M  CHG  1   2  -1
M  END
>  <CHROM.1>
66.92991626,62.34107000,175.25101589,177.75136380,-61.45251762,17.23779742
1.15994510,13.40347907,0.52761360,0.04561811,2.45987559

>  <Name>
1f27 biotin aptamer (Xray 1.3A)

>  <RI>
0

>  <Rbt.Current_Directory>
/home/itssahil/PROJECTS/Mol_Feturizer/New_Systems/rnas/1f27

>  <Rbt.Executable>
rbdock ($Id: //depot/dev/client3/rdock/2013.1/src/exe/rbdock.cxx#4 $)

>  <Rbt.Library>
libRbt.so (2013.1, Build901 2013/11/27)

>  <Rbt.Parameter_File>
/export/apps/rDock/src/rDock_2013.1_src/data/scripts/dock_solv.prm

>  <Rbt.Receptor>
prm/pocket_docking_3.prm

>  <SCORE>
-32.0696

>  <SCORE.INTER>
-29.5286

>  <SCORE.INTER.CONST>
1

>  <SCORE.INTER.POLAR>
-1.78366

>  <SCORE.INTER.ROT>
5

>  <SCORE.INTER.SOLV>
9.0755

>  <SCORE.INTER.VDW>
-23.6987

>  <SCORE.INTER.norm>
-1.84554

>  <SCORE.INTRA>
-2.54091

>  <SCORE.INTRA.DIHEDRAL>
-5.33353

>  <SCORE.INTRA.DIHEDRAL.0>
6.87082

>  <SCORE.INTRA.POLAR>
0

>  <SCORE.INTRA.POLAR.0>
0

>  <SCORE.INTRA.REPUL>
0

>  <SCORE.INTRA.REPUL.0>
0

>  <SCORE.INTRA.SOLV>
0.0619815

>  <SCORE.INTRA.SOLV.lig_0>
-42.5944

>  <SCORE.INTRA.VDW>
0.0948673

>  <SCORE.INTRA.VDW.0>
-1.067

>  <SCORE.INTRA.norm>
-0.158807

>  <SCORE.RESTR>
0

>  <SCORE.RESTR.CAVITY>
0

>  <SCORE.RESTR.norm>
0

>  <SCORE.SYSTEM>
0

>  <SCORE.SYSTEM.CONST>
0

>  <SCORE.SYSTEM.DIHEDRAL>
0

>  <SCORE.SYSTEM.SOLV>
0

>  <SCORE.SYSTEM.norm>
0

>  <SCORE.heavy>
16

>  <SCORE.norm>
-2.00435

>  <RMSD>
1.554

$$$$
1f27 biotin aptamer (Xray 1.3A)
 OpenBabel11021811393D
libRbt.so/2013.1/901 2013/11/27
 16 17  0  0  0  0  0  0  0  0999 V2000
   21.1123   -0.5158   13.3041 C   0  0  0  0  0  0  0  0  0  0  0  0
   21.6171   -0.3346   14.4076 O   0  5  0  0  0  0  0  0  0  0  0  0
   21.8084   -0.4403   12.2930 O   0  0  0  0  0  0  0  0  0  0  0  0
   19.6428   -0.9005   13.1896 C   0  0  0  0  0  0  0  0  0  0  0  0
   18.7059    0.2870   12.8749 C   0  0  0  0  0  0  0  0  0  0  0  0
   18.6981    1.3076   13.9979 C   0  0  0  0  0  0  0  0  0  0  0  0
   17.6129    2.3544   13.8559 C   0  0  0  0  0  0  0  0  0  0  0  0
   16.2148    1.8952   14.2902 C   0  0  2  0  0  0  0  0  0  0  0  0
   15.5289    0.3460   13.3984 S   0  0  0  0  0  0  0  0  0  0  0  0
   13.8258    0.8202   14.1192 C   0  0  0  0  0  0  0  0  0  0  0  0
   13.8030    2.3767   14.1088 C   0  0  2  0  0  0  0  0  0  0  0  0
   13.1970    2.7772   12.7371 N   0  0  0  0  0  0  0  0  0  0  0  0
   13.9740    3.4800   12.0332 C   0  0  0  0  0  0  0  0  0  0  0  0
   13.8797    3.8479   10.8086 O   0  0  0  0  0  0  0  0  0  0  0  0
   15.2999    3.6152   12.5911 N   0  0  0  0  0  0  0  0  0  0  0  0
   15.1880    2.9867   13.9798 C   0  0  2  0  0  0  0  0  0  0  0  0
  1  2  1  0  0  0  0
  1  3  2  0  0  0  0
  1  4  1  0  0  0  0
  4  5  1  0  0  0  0
  5  6  1  0  0  0  0
  6  7  1  0  0  0  0
  8  7  1  6  0  0  0
  8  9  1  0  0  0  0
  8 16  1  0  0  0  0
  9 10  1  0  0  0  0
 11 10  1  6  0  0  0
 11 12  1  0  0  0  0
 11 16  1  0  0  0  0
 12 13  1  0  0  0  0
 13 14  2  0  0  0  0
 13 15  1  0  0  0  0
 16 15  1  6  0  0  0
M  CHG  1   2  -1
M  END
>  <CHROM.1>
98.39444136,-64.12736140,-169.38631226,79.29393890,-57.21523964,16.82488299
1.40050399,13.23294276,-0.37932710,0.21477760,-0.67990120

>  <Name>
1f27 biotin aptamer (Xray 1.3A)

>  <RI>
0

>  <Rbt.Current_Directory>
/home/itssahil/PROJECTS/Mol_Feturizer/New_Systems/rnas/1f27

>  <Rbt.Executable>
rbdock ($Id: //depot/dev/client3/rdock/2013.1/src/exe/rbdock.cxx#4 $)

>  <Rbt.Library>
libRbt.so (2013.1, Build901 2013/11/27)

>  <Rbt.Parameter_File>
/export/apps/rDock/src/rDock_2013.1_src/data/scripts/dock_solv.prm

>  <Rbt.Receptor>
prm/pocket_docking_4.prm

>  <SCORE>
-29.5544

>  <SCORE.INTER>
-28.0619

>  <SCORE.INTER.CONST>
1

>  <SCORE.INTER.POLAR>
-1.75477

>  <SCORE.INTER.ROT>
5

>  <SCORE.INTER.SOLV>
11.7552

>  <SCORE.INTER.VDW>
-23.7104

>  <SCORE.INTER.norm>
-1.75387

>  <SCORE.INTRA>
-1.49255

>  <SCORE.INTRA.DIHEDRAL>
-3.41572

>  <SCORE.INTRA.DIHEDRAL.0>
6.87082

>  <SCORE.INTRA.POLAR>
0

>  <SCORE.INTRA.POLAR.0>
0

>  <SCORE.INTRA.REPUL>
0

>  <SCORE.INTRA.REPUL.0>
0

>  <SCORE.INTRA.SOLV>
0.158883

>  <SCORE.INTRA.SOLV.lig_0>
-42.5944

>  <SCORE.INTRA.VDW>
0.135869

>  <SCORE.INTRA.VDW.0>
-1.067

>  <SCORE.INTRA.norm>
-0.0932844

>  <SCORE.RESTR>
0

>  <SCORE.RESTR.CAVITY>
0

>  <SCORE.RESTR.norm>
0

>  <SCORE.SYSTEM>
0

>  <SCORE.SYSTEM.CONST>
0

>  <SCORE.SYSTEM.DIHEDRAL>
0

>  <SCORE.SYSTEM.SOLV>
0

>  <SCORE.SYSTEM.norm>
0

>  <SCORE.heavy>
16

>  <SCORE.norm>
-1.84715

>  <RMSD>
1.556

$$$$
1f27 biotin aptamer (Xray 1.3A)
 OpenBabel11021811393D
libRbt.so/2013.1/901 2013/11/27
 16 17  0  0  0  0  0  0  0  0999 V2000
   21.2059   -0.7778   14.4418 C   0  0  0  0  0  0  0  0  0  0  0  0
   21.2993   -0.9883   13.2367 O   0  5  0  0  0  0  0  0  0  0  0  0
   21.1153   -1.7235   15.2228 O   0  0  0  0  0  0  0  0  0  0  0  0
   21.2708    0.6472   14.9763 C   0  0  0  0  0  0  0  0  0  0  0  0
   20.2812    1.6186   14.2950 C   0  0  0  0  0  0  0  0  0  0  0  0
   18.8393    1.2234   14.5549 C   0  0  0  0  0  0  0  0  0  0  0  0
   17.8321    2.1787   13.9494 C   0  0  0  0  0  0  0  0  0  0  0  0
   16.3639    1.7939   14.1743 C   0  0  2  0  0  0  0  0  0  0  0  0
   15.8343    0.0837   13.4959 S   0  0  0  0  0  0  0  0  0  0  0  0
   14.0329    0.6658   13.7434 C   0  0  0  0  0  0  0  0  0  0  0  0
   14.0518    2.1867   13.4122 C   0  0  2  0  0  0  0  0  0  0  0  0
   13.7464    2.2881   11.8937 N   0  0  0  0  0  0  0  0  0  0  0  0
   14.6673    2.8455   11.2346 C   0  0  0  0  0  0  0  0  0  0  0  0
   14.8323    2.9539    9.9678 O   0  0  0  0  0  0  0  0  0  0  0  0
   15.8556    3.1147   12.0111 N   0  0  0  0  0  0  0  0  0  0  0  0
   15.4490    2.7812   13.4462 C   0  0  2  0  0  0  0  0  0  0  0  0
  1  2  1  0  0  0  0
  1  3  2  0  0  0  0
  1  4  1  0  0  0  0
  4  5  1  0  0  0  0
  5  6  1  0  0  0  0
  6  7  1  0  0  0  0
  8  7  1  6  0  0  0
  8  9  1  0  0  0  0
  8 16  1  0  0  0  0
  9 10  1  0  0  0  0
 11 10  1  6  0  0  0
 11 12  1  0  0  0  0
 11 16  1  0  0  0  0
 12 13  1  0  0  0  0
 13 14  2  0  0  0  0
 13 15  1  0  0  0  0
 16 15  1  6  0  0  0
M  CHG  1   2  -1
M  END
>  <CHROM.1>
52.57340430,63.87349151,177.79896081,179.01152347,-58.95994310,17.22167894
1.18927558,13.36361255,-0.51002000,-0.02559693,-0.68941361

>  <Name>
1f27 biotin aptamer (Xray 1.3A)

>  <RI>
0

>  <Rbt.Current_Directory>
/home/itssahil/PROJECTS/Mol_Feturizer/New_Systems/rnas/1f27

>  <Rbt.Executable>
rbdock ($Id: //depot/dev/client3/rdock/2013.1/src/exe/rbdock.cxx#4 $)

>  <Rbt.Library>
libRbt.so (2013.1, Build901 2013/11/27)

>  <Rbt.Parameter_File>
/export/apps/rDock/src/rDock_2013.1_src/data/scripts/dock_solv.prm

>  <Rbt.Receptor>
prm/pocket_docking_4.prm

>  <SCORE>
-31.8777

>  <SCORE.INTER>
-29.3884

>  <SCORE.INTER.CONST>
1

>  <SCORE.INTER.POLAR>
-1.79257

>  <SCORE.INTER.ROT>
5

>  <SCORE.INTER.SOLV>
9.40728

>  <SCORE.INTER.VDW>
-23.6861

>  <SCORE.INTER.norm>
-1.83677

>  <SCORE.INTRA>
-2.48926

>  <SCORE.INTRA.DIHEDRAL>
-5.46817

>  <SCORE.INTRA.DIHEDRAL.0>
6.87082

>  <SCORE.INTRA.POLAR>
0

>  <SCORE.INTRA.POLAR.0>
0

>  <SCORE.INTRA.REPUL>
0

>  <SCORE.INTRA.REPUL.0>
0

>  <SCORE.INTRA.SOLV>
0.0782745

>  <SCORE.INTRA.SOLV.lig_0>
-42.5944

>  <SCORE.INTRA.VDW>
0.205688

>  <SCORE.INTRA.VDW.0>
-1.067

>  <SCORE.INTRA.norm>
-0.155579

>  <SCORE.RESTR>
0

>  <SCORE.RESTR.CAVITY>
0

>  <SCORE.RESTR.norm>
0

>  <SCORE.SYSTEM>
0

>  <SCORE.SYSTEM.CONST>
0

>  <SCORE.SYSTEM.DIHEDRAL>
0

>  <SCORE.SYSTEM.SOLV>
0

>  <SCORE.SYSTEM.norm>
0

>  <SCORE.heavy>
16

>  <SCORE.norm>
-1.99235

>  <RMSD>
1.556

$$$$
1f27 biotin aptamer (Xray 1.3A)
 OpenBabel11021811393D
libRbt.so/2013.1/901 2013/11/27
 16 17  0  0  0  0  0  0  0  0999 V2000
   21.0924   -0.4471   13.1290 C   0  0  0  0  0  0  0  0  0  0  0  0
   21.8740   -0.5233   12.1863 O   0  5  0  0  0  0  0  0  0  0  0  0
   20.2433   -1.3218   13.2919 O   0  0  0  0  0  0  0  0  0  0  0  0
   21.2161    0.6904   14.1346 C   0  0  0  0  0  0  0  0  0  0  0  0
   20.1886    1.8255   13.9276 C   0  0  0  0  0  0  0  0  0  0  0  0
   18.7738    1.3610   14.2201 C   0  0  0  0  0  0  0  0  0  0  0  0
   17.7200    2.4061   13.9186 C   0  0  0  0  0  0  0  0  0  0  0  0
   16.2730    1.9395   14.1257 C   0  0  2  0  0  0  0  0  0  0  0  0
   15.8338    0.2261   13.3928 S   0  0  0  0  0  0  0  0  0  0  0  0
   14.0042    0.7070   13.6508 C   0  0  0  0  0  0  0  0  0  0  0  0
   13.9455    2.2363   13.3667 C   0  0  2  0  0  0  0  0  0  0  0  0
   13.6391    2.3690   11.8508 N   0  0  0  0  0  0  0  0  0  0  0  0
   14.5317    2.9931   11.2129 C   0  0  0  0  0  0  0  0  0  0  0  0
   14.6940    3.1490    9.9507 O   0  0  0  0  0  0  0  0  0  0  0  0
   15.7027    3.2988   12.0022 N   0  0  0  0  0  0  0  0  0  0  0  0
   15.3103    2.9006   13.4246 C   0  0  2  0  0  0  0  0  0  0  0  0
  1  2  1  0  0  0  0
  1  3  2  0  0  0  0
  1  4  1  0  0  0  0
  4  5  1  0  0  0  0
  5  6  1  0  0  0  0
  6  7  1  0  0  0  0
  8  7  1  6  0  0  0
  8  9  1  0  0  0  0
  8 16  1  0  0  0  0
  9 10  1  0  0  0  0
 11 10  1  6  0  0  0
 11 12  1  0  0  0  0
 11 16  1  0  0  0  0
 12 13  1  0  0  0  0
 13 14  2  0  0  0  0
 13 15  1  0  0  0  0
 16 15  1  6  0  0  0
M  CHG  1   2  -1
M  END
>  <CHROM.1>
101.86292716,67.35296412,-175.13883177,176.57940038,-46.22391913,17.12626452
1.37260921,12.98145240,-0.36251191,0.14976498,-0.83180855

>  <Name>
1f27 biotin aptamer (Xray 1.3A)

>  <RI>
0

>  <Rbt.Current_Directory>
/home/itssahil/PROJECTS/Mol_Feturizer/New_Systems/rnas/1f27

>  <Rbt.Executable>
rbdock ($Id: //depot/dev/client3/rdock/2013.1/src/exe/rbdock.cxx#4 $)

>  <Rbt.Library>
libRbt.so (2013.1, Build901 2013/11/27)

>  <Rbt.Parameter_File>
/export/apps/rDock/src/rDock_2013.1_src/data/scripts/dock_solv.prm

>  <Rbt.Receptor>
prm/pocket_docking_6.prm

>  <SCORE>
-35.269

>  <SCORE.INTER>
-33.2782

>  <SCORE.INTER.CONST>
1

>  <SCORE.INTER.POLAR>
-2.72109

>  <SCORE.INTER.ROT>
5

>  <SCORE.INTER.SOLV>
12.6772

>  <SCORE.INTER.VDW>
-24.2742

>  <SCORE.INTER.norm>
-2.07989

>  <SCORE.INTRA>
-1.99081

>  <SCORE.INTRA.DIHEDRAL>
-4.32721

>  <SCORE.INTRA.DIHEDRAL.0>
6.87082

>  <SCORE.INTRA.POLAR>
0

>  <SCORE.INTRA.POLAR.0>
0

>  <SCORE.INTRA.REPUL>
0

>  <SCORE.INTRA.REPUL.0>
0

>  <SCORE.INTRA.SOLV>
0.185847

>  <SCORE.INTRA.SOLV.lig_0>
-42.5944

>  <SCORE.INTRA.VDW>
0.0798776

>  <SCORE.INTRA.VDW.0>
-1.067

>  <SCORE.INTRA.norm>
-0.124425

>  <SCORE.RESTR>
0

>  <SCORE.RESTR.CAVITY>
0

>  <SCORE.RESTR.norm>
0

>  <SCORE.SYSTEM>
0

>  <SCORE.SYSTEM.CONST>
0

>  <SCORE.SYSTEM.DIHEDRAL>
0

>  <SCORE.SYSTEM.SOLV>
0

>  <SCORE.SYSTEM.norm>
0

>  <SCORE.heavy>
16

>  <SCORE.norm>
-2.20431

>  <RMSD>
1.556

$$$$
1f27 biotin aptamer (Xray 1.3A)
 OpenBabel11021811393D
libRbt.so/2013.1/901 2013/11/27
 16 17  0  0  0  0  0  0  0  0999 V2000
   20.9694   -0.4037   13.1318 C   0  0  0  0  0  0  0  0  0  0  0  0
   21.8351   -0.4731   12.2651 O   0  5  0  0  0  0  0  0  0  0  0  0
   19.9962   -1.1541   13.0859 O   0  0  0  0  0  0  0  0  0  0  0  0
   21.1322    0.5611   14.2994 C   0  0  0  0  0  0  0  0  0  0  0  0
   20.1643    1.7647   14.2584 C   0  0  0  0  0  0  0  0  0  0  0  0
   18.7225    1.3312   14.4488 C   0  0  0  0  0  0  0  0  0  0  0  0
   17.7150    2.3780   14.0214 C   0  0  0  0  0  0  0  0  0  0  0  0
   16.2476    1.9854   14.2378 C   0  0  2  0  0  0  0  0  0  0  0  0
   15.7429    0.2520   13.6005 S   0  0  0  0  0  0  0  0  0  0  0  0
   13.9331    0.8234   13.8082 C   0  0  0  0  0  0  0  0  0  0  0  0
   13.9422    2.3346   13.4351 C   0  0  2  0  0  0  0  0  0  0  0  0
   13.6561    2.3910   11.9106 N   0  0  0  0  0  0  0  0  0  0  0  0
   14.5804    2.9388   11.2482 C   0  0  0  0  0  0  0  0  0  0  0  0
   14.7612    3.0136    9.9811 O   0  0  0  0  0  0  0  0  0  0  0  0
   15.7558    3.2408   12.0323 N   0  0  0  0  0  0  0  0  0  0  0  0
   15.3334    2.9433   13.4707 C   0  0  2  0  0  0  0  0  0  0  0  0
  1  2  1  0  0  0  0
  1  3  2  0  0  0  0
  1  4  1  0  0  0  0
  4  5  1  0  0  0  0
  5  6  1  0  0  0  0
  6  7  1  0  0  0  0
  8  7  1  6  0  0  0
  8  9  1  0  0  0  0
  8 16  1  0  0  0  0
  9 10  1  0  0  0  0
 11 10  1  6  0  0  0
 11 12  1  0  0  0  0
 11 16  1  0  0  0  0
 12 13  1  0  0  0  0
 13 14  2  0  0  0  0
 13 15  1  0  0  0  0
 16 15  1  6  0  0  0
M  CHG  1   2  -1
M  END
>  <CHROM.1>
109.47334579,66.67157020,-163.10448105,-178.36957191,-48.62377427,17.08673433
1.38090980,13.07876966,-0.31119947,0.23306457,-1.08704158

>  <Name>
1f27 biotin aptamer (Xray 1.3A)

>  <RI>
0

>  <Rbt.Current_Directory>
/home/itssahil/PROJECTS/Mol_Feturizer/New_Systems/rnas/1f27

>  <Rbt.Executable>
rbdock ($Id: //depot/dev/client3/rdock/2013.1/src/exe/rbdock.cxx#4 $)

>  <Rbt.Library>
libRbt.so (2013.1, Build901 2013/11/27)

>  <Rbt.Parameter_File>
/export/apps/rDock/src/rDock_2013.1_src/data/scripts/dock_solv.prm

>  <Rbt.Receptor>
prm/pocket_docking_6.prm

>  <SCORE>
-34.9927

>  <SCORE.INTER>
-33.4604

>  <SCORE.INTER.CONST>
1

>  <SCORE.INTER.POLAR>
-2.74294

>  <SCORE.INTER.ROT>
5

>  <SCORE.INTER.SOLV>
13.1079

>  <SCORE.INTER.VDW>
-24.4664

>  <SCORE.INTER.norm>
-2.09127

>  <SCORE.INTRA>
-1.53236

>  <SCORE.INTRA.DIHEDRAL>
-3.63194

>  <SCORE.INTRA.DIHEDRAL.0>
6.87082

>  <SCORE.INTRA.POLAR>
0

>  <SCORE.INTRA.POLAR.0>
0

>  <SCORE.INTRA.REPUL>
0

>  <SCORE.INTRA.REPUL.0>
0

>  <SCORE.INTRA.SOLV>
0.37561

>  <SCORE.INTRA.SOLV.lig_0>
-42.5944

>  <SCORE.INTRA.VDW>
0.0958015

>  <SCORE.INTRA.VDW.0>
-1.067

>  <SCORE.INTRA.norm>
-0.0957727

>  <SCORE.RESTR>
0

>  <SCORE.RESTR.CAVITY>
0

>  <SCORE.RESTR.norm>
0

>  <SCORE.SYSTEM>
0

>  <SCORE.SYSTEM.CONST>
0

>  <SCORE.SYSTEM.DIHEDRAL>
0

>  <SCORE.SYSTEM.SOLV>
0

>  <SCORE.SYSTEM.norm>
0

>  <SCORE.heavy>
16

>  <SCORE.norm>
-2.18704

>  <RMSD>
1.556

$$$$
1f27 biotin aptamer (Xray 1.3A)
 OpenBabel11021811393D
libRbt.so/2013.1/901 2013/11/27
 16 17  0  0  0  0  0  0  0  0999 V2000
   20.9844   -0.4639   13.2214 C   0  0  0  0  0  0  0  0  0  0  0  0
   21.8097   -0.4214   12.3146 O   0  5  0  0  0  0  0  0  0  0  0  0
   20.1323   -1.3507   13.2321 O   0  0  0  0  0  0  0  0  0  0  0  0
   21.0557    0.5369   14.3677 C   0  0  0  0  0  0  0  0  0  0  0  0
   20.0823    1.7279   14.2224 C   0  0  0  0  0  0  0  0  0  0  0  0
   18.6400    1.3005   14.4224 C   0  0  0  0  0  0  0  0  0  0  0  0
   17.6346    2.3602   14.0226 C   0  0  0  0  0  0  0  0  0  0  0  0
   16.1659    1.9557   14.2058 C   0  0  2  0  0  0  0  0  0  0  0  0
   15.6872    0.2230   13.5467 S   0  0  0  0  0  0  0  0  0  0  0  0
   13.8693    0.7801   13.7204 C   0  0  0  0  0  0  0  0  0  0  0  0
   13.8752    2.2938   13.3574 C   0  0  2  0  0  0  0  0  0  0  0  0
   13.6205    2.3584   11.8277 N   0  0  0  0  0  0  0  0  0  0  0  0
   14.5544    2.9172   11.1883 C   0  0  0  0  0  0  0  0  0  0  0  0
   14.7610    3.0019    9.9258 O   0  0  0  0  0  0  0  0  0  0  0  0
   15.7110    3.2223   11.9988 N   0  0  0  0  0  0  0  0  0  0  0  0
   15.2608    2.9122   13.4261 C   0  0  2  0  0  0  0  0  0  0  0  0
  1  2  1  0  0  0  0
  1  3  2  0  0  0  0
  1  4  1  0  0  0  0
  4  5  1  0  0  0  0
  5  6  1  0  0  0  0
  6  7  1  0  0  0  0
  8  7  1  6  0  0  0
  8  9  1  0  0  0  0
  8 16  1  0  0  0  0
  9 10  1  0  0  0  0
 11 10  1  6  0  0  0
 11 12  1  0  0  0  0
 11 16  1  0  0  0  0
 12 13  1  0  0  0  0
 13 14  2  0  0  0  0
 13 15  1  0  0  0  0
 16 15  1  6  0  0  0
M  CHG  1   2  -1
M  END
>  <CHROM.1>
99.01267107,70.72262515,-168.52733938,179.68189407,-46.74566158,17.04716875
1.34537794,13.06227901,-0.34138709,0.20837732,-1.02444264

>  <Name>
1f27 biotin aptamer (Xray 1.3A)

>  <RI>
0

>  <Rbt.Current_Directory>
/home/itssahil/PROJECTS/Mol_Feturizer/New_Systems/rnas/1f27

>  <Rbt.Executable>
rbdock ($Id: //depot/dev/client3/rdock/2013.1/src/exe/rbdock.cxx#4 $)

>  <Rbt.Library>
libRbt.so (2013.1, Build901 2013/11/27)

>  <Rbt.Parameter_File>
/export/apps/rDock/src/rDock_2013.1_src/data/scripts/dock_solv.prm

>  <Rbt.Receptor>
prm/blind_docking_40.prm

>  <SCORE>
-35.0965

>  <SCORE.INTER>
-33.2968

>  <SCORE.INTER.CONST>
1

>  <SCORE.INTER.POLAR>
-2.70027

>  <SCORE.INTER.ROT>
5

>  <SCORE.INTER.SOLV>
12.7591

>  <SCORE.INTER.VDW>
-24.3833

>  <SCORE.INTER.norm>
-2.08105

>  <SCORE.INTRA>
-1.79972

>  <SCORE.INTRA.DIHEDRAL>
-3.76818

>  <SCORE.INTRA.DIHEDRAL.0>
6.87082

>  <SCORE.INTRA.POLAR>
0

>  <SCORE.INTRA.POLAR.0>
0

>  <SCORE.INTRA.REPUL>
0

>  <SCORE.INTRA.REPUL.0>
0

>  <SCORE.INTRA.SOLV>
0.133175

>  <SCORE.INTRA.SOLV.lig_0>
-42.5944

>  <SCORE.INTRA.VDW>
0.0177841

>  <SCORE.INTRA.VDW.0>
-1.067

>  <SCORE.INTRA.norm>
-0.112482

>  <SCORE.RESTR>
0

>  <SCORE.RESTR.CAVITY>
0

>  <SCORE.RESTR.norm>
0

>  <SCORE.SYSTEM>
0

>  <SCORE.SYSTEM.CONST>
0

>  <SCORE.SYSTEM.DIHEDRAL>
0

>  <SCORE.SYSTEM.SOLV>
0

>  <SCORE.SYSTEM.norm>
0

>  <SCORE.heavy>
16

>  <SCORE.norm>
-2.19353

>  <RMSD>
1.558

$$$$
1f27 biotin aptamer (Xray 1.3A)
 OpenBabel11021811393D
libRbt.so/2013.1/901 2013/11/27
 16 17  0  0  0  0  0  0  0  0999 V2000
   19.5438   -1.9268   13.4497 C   0  0  0  0  0  0  0  0  0  0  0  0
   20.6669   -1.8490   12.9621 O   0  5  0  0  0  0  0  0  0  0  0  0
   19.2331   -2.9128   14.1159 O   0  0  0  0  0  0  0  0  0  0  0  0
   18.5591   -0.7757   13.2890 C   0  0  0  0  0  0  0  0  0  0  0  0
   19.2183    0.5624   12.8868 C   0  0  0  0  0  0  0  0  0  0  0  0
   18.1935    1.6734   12.7504 C   0  0  0  0  0  0  0  0  0  0  0  0
   17.6057    2.1191   14.0731 C   0  0  0  0  0  0  0  0  0  0  0  0
   16.1063    1.8385   14.2383 C   0  0  2  0  0  0  0  0  0  0  0  0
   15.4997    0.1356   13.6075 S   0  0  0  0  0  0  0  0  0  0  0  0
   13.7303    0.8411   13.7365 C   0  0  0  0  0  0  0  0  0  0  0  0
   13.8646    2.3408   13.3417 C   0  0  2  0  0  0  0  0  0  0  0  0
   13.6409    2.3911   11.8066 N   0  0  0  0  0  0  0  0  0  0  0  0
   14.6272    2.8583   11.1725 C   0  0  0  0  0  0  0  0  0  0  0  0
   14.8605    2.8974    9.9124 O   0  0  0  0  0  0  0  0  0  0  0  0
   15.7914    3.0875   11.9970 N   0  0  0  0  0  0  0  0  0  0  0  0
   15.2944    2.8470   13.4222 C   0  0  2  0  0  0  0  0  0  0  0  0
  1  2  1  0  0  0  0
  1  3  2  0  0  0  0
  1  4  1  0  0  0  0
  4  5  1  0  0  0  0
  5  6  1  0  0  0  0
  6  7  1  0  0  0  0
  8  7  1  6  0  0  0
  8  9  1  0  0  0  0
  8 16  1  0  0  0  0
  9 10  1  0  0  0  0
 11 10  1  6  0  0  0
 11 12  1  0  0  0  0
 11 16  1  0  0  0  0
 12 13  1  0  0  0  0
 13 14  2  0  0  0  0
 13 15  1  0  0  0  0
 16 15  1  6  0  0  0
M  CHG  1   2  -1
M  END
>  <CHROM.1>
-17.73006339,-179.61118937,70.42454696,-114.78521553,41.69247634,16.60232645
0.90988765,12.94814529,0.64956019,-0.28320525,2.47055250

>  <Name>
1f27 biotin aptamer (Xray 1.3A)

>  <RI>
0

>  <Rbt.Current_Directory>
/home/itssahil/PROJECTS/Mol_Feturizer/New_Systems/rnas/1f27

>  <Rbt.Executable>
rbdock ($Id: //depot/dev/client3/rdock/2013.1/src/exe/rbdock.cxx#4 $)

>  <Rbt.Library>
libRbt.so (2013.1, Build901 2013/11/27)

>  <Rbt.Parameter_File>
/export/apps/rDock/src/rDock_2013.1_src/data/scripts/dock_solv.prm

>  <Rbt.Receptor>
prm/pocket_docking_2.prm

>  <SCORE>
-27.6006

>  <SCORE.INTER>
-30.1223

>  <SCORE.INTER.CONST>
1

>  <SCORE.INTER.POLAR>
-1.8573

>  <SCORE.INTER.ROT>
5

>  <SCORE.INTER.SOLV>
8.83649

>  <SCORE.INTER.VDW>
-23.7693

>  <SCORE.INTER.norm>
-1.88264

>  <SCORE.INTRA>
2.52164

>  <SCORE.INTRA.DIHEDRAL>
2.26017

>  <SCORE.INTRA.DIHEDRAL.0>
6.87082

>  <SCORE.INTRA.POLAR>
0

>  <SCORE.INTRA.POLAR.0>
0

>  <SCORE.INTRA.REPUL>
0

>  <SCORE.INTRA.REPUL.0>
0

>  <SCORE.INTRA.SOLV>
-0.151295

>  <SCORE.INTRA.SOLV.lig_0>
-42.5944

>  <SCORE.INTRA.VDW>
1.4672

>  <SCORE.INTRA.VDW.0>
-1.067

>  <SCORE.INTRA.norm>
0.157603

>  <SCORE.RESTR>
0

>  <SCORE.RESTR.CAVITY>
0

>  <SCORE.RESTR.norm>
0

>  <SCORE.SYSTEM>
0

>  <SCORE.SYSTEM.CONST>
0

>  <SCORE.SYSTEM.DIHEDRAL>
0

>  <SCORE.SYSTEM.SOLV>
0

>  <SCORE.SYSTEM.norm>
0

>  <SCORE.heavy>
16

>  <SCORE.norm>
-1.72504

>  <RMSD>
1.566

$$$$
1f27 biotin aptamer (Xray 1.3A)
 OpenBabel11021811393D
libRbt.so/2013.1/901 2013/11/27
 16 17  0  0  0  0  0  0  0  0999 V2000
   19.4709   -2.8666   14.0976 C   0  0  0  0  0  0  0  0  0  0  0  0
   18.5993   -3.6663   14.4235 O   0  5  0  0  0  0  0  0  0  0  0  0
   20.2983   -3.1782   13.2428 O   0  0  0  0  0  0  0  0  0  0  0  0
   19.4880   -1.4672   14.6992 C   0  0  0  0  0  0  0  0  0  0  0  0
   18.5853   -0.4550   13.9592 C   0  0  0  0  0  0  0  0  0  0  0  0
   18.6403    0.9189   14.6012 C   0  0  0  0  0  0  0  0  0  0  0  0
   17.7292    1.9320   13.9401 C   0  0  0  0  0  0  0  0  0  0  0  0
   16.2304    1.6950   14.1678 C   0  0  2  0  0  0  0  0  0  0  0  0
   15.5369    0.0356   13.5111 S   0  0  0  0  0  0  0  0  0  0  0  0
   13.8008    0.7935   13.7482 C   0  0  0  0  0  0  0  0  0  0  0  0
   13.9677    2.3008   13.3970 C   0  0  2  0  0  0  0  0  0  0  0  0
   13.6740    2.4115   11.8769 N   0  0  0  0  0  0  0  0  0  0  0  0
   14.6449    2.8678   11.2119 C   0  0  0  0  0  0  0  0  0  0  0  0
   14.8200    2.9429    9.9441 O   0  0  0  0  0  0  0  0  0  0  0  0
   15.8537    3.0303   11.9866 N   0  0  0  0  0  0  0  0  0  0  0  0
   15.4162    2.7570   13.4254 C   0  0  2  0  0  0  0  0  0  0  0  0
  1  2  1  0  0  0  0
  1  3  2  0  0  0  0
  1  4  1  0  0  0  0
  4  5  1  0  0  0  0
  5  6  1  0  0  0  0
  6  7  1  0  0  0  0
  8  7  1  6  0  0  0
  8  9  1  0  0  0  0
  8 16  1  0  0  0  0
  9 10  1  0  0  0  0
 11 10  1  6  0  0  0
 11 12  1  0  0  0  0
 11 16  1  0  0  0  0
 12 13  1  0  0  0  0
 13 14  2  0  0  0  0
 13 15  1  0  0  0  0
 16 15  1  6  0  0  0
M  CHG  1   2  -1
M  END
>  <CHROM.1>
-85.31299244,179.94506646,-177.80315627,70.34501645,-61.04134495,16.61432527
0.54446494,13.25602241,0.83956035,0.07807135,2.81276611

>  <Name>
1f27 biotin aptamer (Xray 1.3A)

>  <RI>
0

>  <Rbt.Current_Directory>
/home/itssahil/PROJECTS/Mol_Feturizer/New_Systems/rnas/1f27

>  <Rbt.Executable>
rbdock ($Id: //depot/dev/client3/rdock/2013.1/src/exe/rbdock.cxx#4 $)

>  <Rbt.Library>
libRbt.so (2013.1, Build901 2013/11/27)

>  <Rbt.Parameter_File>
/export/apps/rDock/src/rDock_2013.1_src/data/scripts/dock_solv.prm

>  <Rbt.Receptor>
prm/pocket_docking_3.prm

>  <SCORE>
-29.9589

>  <SCORE.INTER>
-27.3815

>  <SCORE.INTER.CONST>
1

>  <SCORE.INTER.POLAR>
-1.80363

>  <SCORE.INTER.ROT>
5

>  <SCORE.INTER.SOLV>
9.14369

>  <SCORE.INTER.VDW>
-22.2235

>  <SCORE.INTER.norm>
-1.71134

>  <SCORE.INTRA>
-2.57742

>  <SCORE.INTRA.DIHEDRAL>
-5.14865

>  <SCORE.INTRA.DIHEDRAL.0>
6.87082

>  <SCORE.INTRA.POLAR>
0

>  <SCORE.INTRA.POLAR.0>
0

>  <SCORE.INTRA.REPUL>
0

>  <SCORE.INTRA.REPUL.0>
0

>  <SCORE.INTRA.SOLV>
-0.737295

>  <SCORE.INTRA.SOLV.lig_0>
-42.5944

>  <SCORE.INTRA.VDW>
0.365551

>  <SCORE.INTRA.VDW.0>
-1.067

>  <SCORE.INTRA.norm>
-0.161089

>  <SCORE.RESTR>
0

>  <SCORE.RESTR.CAVITY>
0

>  <SCORE.RESTR.norm>
0

>  <SCORE.SYSTEM>
0

>  <SCORE.SYSTEM.CONST>
0

>  <SCORE.SYSTEM.DIHEDRAL>
0

>  <SCORE.SYSTEM.SOLV>
0

>  <SCORE.SYSTEM.norm>
0

>  <SCORE.heavy>
16

>  <SCORE.norm>
-1.87243

>  <RMSD>
1.567

$$$$
1f27 biotin aptamer (Xray 1.3A)
 OpenBabel11021811393D
libRbt.so/2013.1/901 2013/11/27
 16 17  0  0  0  0  0  0  0  0999 V2000
   21.1115   -0.8499   14.6787 C   0  0  0  0  0  0  0  0  0  0  0  0
   21.3408   -1.2676   13.5481 O   0  5  0  0  0  0  0  0  0  0  0  0
   20.7965   -1.6371   15.5695 O   0  0  0  0  0  0  0  0  0  0  0  0
   21.2827    0.6301   14.9963 C   0  0  0  0  0  0  0  0  0  0  0  0
   20.3007    1.5520   14.2395 C   0  0  0  0  0  0  0  0  0  0  0  0
   18.8558    1.2066   14.5494 C   0  0  0  0  0  0  0  0  0  0  0  0
   17.8585    2.1542   13.9162 C   0  0  0  0  0  0  0  0  0  0  0  0
   16.3865    1.7959   14.1588 C   0  0  2  0  0  0  0  0  0  0  0  0
   15.8210    0.0904   13.4974 S   0  0  0  0  0  0  0  0  0  0  0  0
   14.0324    0.7046   13.7594 C   0  0  0  0  0  0  0  0  0  0  0  0
   14.0735    2.2228   13.4178 C   0  0  2  0  0  0  0  0  0  0  0  0
   13.7542    2.3195   11.9019 N   0  0  0  0  0  0  0  0  0  0  0  0
   14.6774    2.8568   11.2296 C   0  0  0  0  0  0  0  0  0  0  0  0
   14.8311    2.9541    9.9605 O   0  0  0  0  0  0  0  0  0  0  0  0
   15.8781    3.1109   11.9921 N   0  0  0  0  0  0  0  0  0  0  0  0
   15.4809    2.7938   13.4335 C   0  0  2  0  0  0  0  0  0  0  0  0
  1  2  1  0  0  0  0
  1  3  2  0  0  0  0
  1  4  1  0  0  0  0
  4  5  1  0  0  0  0
  5  6  1  0  0  0  0
  6  7  1  0  0  0  0
  8  7  1  6  0  0  0
  8  9  1  0  0  0  0
  8 16  1  0  0  0  0
  9 10  1  0  0  0  0
 11 10  1  6  0  0  0
 11 12  1  0  0  0  0
 11 16  1  0  0  0  0
 12 13  1  0  0  0  0
 13 14  2  0  0  0  0
 13 15  1  0  0  0  0
 16 15  1  6  0  0  0
M  CHG  1   2  -1
M  END
>  <CHROM.1>
65.05860147,59.14218260,175.40756721,177.39590489,-60.53292017,17.20761638
1.17393287,13.41282195,0.53792332,0.04611436,2.46155206

>  <Name>
1f27 biotin aptamer (Xray 1.3A)

>  <RI>
0

>  <Rbt.Current_Directory>
/home/itssahil/PROJECTS/Mol_Feturizer/New_Systems/rnas/1f27

>  <Rbt.Executable>
rbdock ($Id: //depot/dev/client3/rdock/2013.1/src/exe/rbdock.cxx#4 $)

>  <Rbt.Library>
libRbt.so (2013.1, Build901 2013/11/27)

>  <Rbt.Parameter_File>
/export/apps/rDock/src/rDock_2013.1_src/data/scripts/dock_solv.prm

>  <Rbt.Receptor>
prm/pocket_docking_5.prm

>  <SCORE>
-32.07

>  <SCORE.INTER>
-29.5927

>  <SCORE.INTER.CONST>
1

>  <SCORE.INTER.POLAR>
-1.79076

>  <SCORE.INTER.ROT>
5

>  <SCORE.INTER.SOLV>
8.85614

>  <SCORE.INTER.VDW>
-23.6447

>  <SCORE.INTER.norm>
-1.84955

>  <SCORE.INTRA>
-2.47722

>  <SCORE.INTRA.DIHEDRAL>
-5.36613

>  <SCORE.INTRA.DIHEDRAL.0>
6.87082

>  <SCORE.INTRA.POLAR>
0

>  <SCORE.INTRA.POLAR.0>
0

>  <SCORE.INTRA.REPUL>
0

>  <SCORE.INTRA.REPUL.0>
0

>  <SCORE.INTRA.SOLV>
0.101349

>  <SCORE.INTRA.SOLV.lig_0>
-42.5944

>  <SCORE.INTRA.VDW>
0.155175

>  <SCORE.INTRA.VDW.0>
-1.067

>  <SCORE.INTRA.norm>
-0.154826

>  <SCORE.RESTR>
0

>  <SCORE.RESTR.CAVITY>
0

>  <SCORE.RESTR.norm>
0

>  <SCORE.SYSTEM>
0

>  <SCORE.SYSTEM.CONST>
0

>  <SCORE.SYSTEM.DIHEDRAL>
0

>  <SCORE.SYSTEM.SOLV>
0

>  <SCORE.SYSTEM.norm>
0

>  <SCORE.heavy>
16

>  <SCORE.norm>
-2.00437

>  <RMSD>
1.568

$$$$
1f27 biotin aptamer (Xray 1.3A)
 OpenBabel11021811393D
libRbt.so/2013.1/901 2013/11/27
 16 17  0  0  0  0  0  0  0  0999 V2000
   21.1161   -0.7707   14.5649 C   0  0  0  0  0  0  0  0  0  0  0  0
   21.5896   -1.2247   13.5281 O   0  5  0  0  0  0  0  0  0  0  0  0
   20.5618   -1.5225   15.3650 O   0  0  0  0  0  0  0  0  0  0  0  0
   21.2738    0.7083   14.8939 C   0  0  0  0  0  0  0  0  0  0  0  0
   20.2650    1.6242   14.1655 C   0  0  0  0  0  0  0  0  0  0  0  0
   18.8325    1.2840   14.5328 C   0  0  0  0  0  0  0  0  0  0  0  0
   17.8149    2.2412   13.9482 C   0  0  0  0  0  0  0  0  0  0  0  0
   16.3508    1.8438   14.1783 C   0  0  2  0  0  0  0  0  0  0  0  0
   15.8331    0.1297   13.5003 S   0  0  0  0  0  0  0  0  0  0  0  0
   14.0278    0.6964   13.7551 C   0  0  0  0  0  0  0  0  0  0  0  0
   14.0326    2.2177   13.4251 C   0  0  2  0  0  0  0  0  0  0  0  0
   13.7207    2.3178   11.9079 N   0  0  0  0  0  0  0  0  0  0  0  0
   14.6343    2.8836   11.2458 C   0  0  0  0  0  0  0  0  0  0  0  0
   14.7937    2.9945    9.9785 O   0  0  0  0  0  0  0  0  0  0  0  0
   15.8233    3.1621   12.0181 N   0  0  0  0  0  0  0  0  0  0  0  0
   15.4249    2.8240   13.4545 C   0  0  2  0  0  0  0  0  0  0  0  0
  1  2  1  0  0  0  0
  1  3  2  0  0  0  0
  1  4  1  0  0  0  0
  4  5  1  0  0  0  0
  5  6  1  0  0  0  0
  6  7  1  0  0  0  0
  8  7  1  6  0  0  0
  8  9  1  0  0  0  0
  8 16  1  0  0  0  0
  9 10  1  0  0  0  0
 11 10  1  6  0  0  0
 11 12  1  0  0  0  0
 11 16  1  0  0  0  0
 12 13  1  0  0  0  0
 13 14  2  0  0  0  0
 13 15  1  0  0  0  0
 16 15  1  6  0  0  0
M  CHG  1   2  -1
M  END
>  <CHROM.1>
80.46606729,60.89250776,174.39013562,173.94116390,-58.16503354,17.18656515
1.22200010,13.38981298,0.51859205,0.03728707,2.46768786

>  <Name>
1f27 biotin aptamer (Xray 1.3A)

>  <RI>
0

>  <Rbt.Current_Directory>
/home/itssahil/PROJECTS/Mol_Feturizer/New_Systems/rnas/1f27

>  <Rbt.Executable>
rbdock ($Id: //depot/dev/client3/rdock/2013.1/src/exe/rbdock.cxx#4 $)

>  <Rbt.Library>
libRbt.so (2013.1, Build901 2013/11/27)

>  <Rbt.Parameter_File>
/export/apps/rDock/src/rDock_2013.1_src/data/scripts/dock_solv.prm

>  <Rbt.Receptor>
prm/pocket_docking_8.prm

>  <SCORE>
-31.7967

>  <SCORE.INTER>
-29.3784

>  <SCORE.INTER.CONST>
1

>  <SCORE.INTER.POLAR>
-1.78656

>  <SCORE.INTER.ROT>
5

>  <SCORE.INTER.SOLV>
9.23143

>  <SCORE.INTER.VDW>
-23.6409

>  <SCORE.INTER.norm>
-1.83615

>  <SCORE.INTRA>
-2.41828

>  <SCORE.INTRA.DIHEDRAL>
-5.11417

>  <SCORE.INTRA.DIHEDRAL.0>
6.87082

>  <SCORE.INTRA.POLAR>
0

>  <SCORE.INTRA.POLAR.0>
0

>  <SCORE.INTRA.REPUL>
0

>  <SCORE.INTRA.REPUL.0>
0

>  <SCORE.INTRA.SOLV>
0.089858

>  <SCORE.INTRA.SOLV.lig_0>
-42.5944

>  <SCORE.INTRA.VDW>
0.0938816

>  <SCORE.INTRA.VDW.0>
-1.067

>  <SCORE.INTRA.norm>
-0.151142

>  <SCORE.RESTR>
0

>  <SCORE.RESTR.CAVITY>
0

>  <SCORE.RESTR.norm>
0

>  <SCORE.SYSTEM>
0

>  <SCORE.SYSTEM.CONST>
0

>  <SCORE.SYSTEM.DIHEDRAL>
0

>  <SCORE.SYSTEM.SOLV>
0

>  <SCORE.SYSTEM.norm>
0

>  <SCORE.heavy>
16

>  <SCORE.norm>
-1.98729

>  <RMSD>
1.568

$$$$
1f27 biotin aptamer (Xray 1.3A)
 OpenBabel11021811393D
libRbt.so/2013.1/901 2013/11/27
 16 17  0  0  0  0  0  0  0  0999 V2000
   20.4299   -1.5444   12.7016 C   0  0  0  0  0  0  0  0  0  0  0  0
   21.2244   -2.0736   11.9309 O   0  5  0  0  0  0  0  0  0  0  0  0
   20.1788   -2.0762   13.7817 O   0  0  0  0  0  0  0  0  0  0  0  0
   19.8077   -0.1983   12.3531 C   0  0  0  0  0  0  0  0  0  0  0  0
   18.6651    0.2291   13.3011 C   0  0  0  0  0  0  0  0  0  0  0  0
   18.2012    1.6457   13.0166 C   0  0  0  0  0  0  0  0  0  0  0  0
   17.4729    2.2882   14.1786 C   0  0  0  0  0  0  0  0  0  0  0  0
   15.9853    1.9277   14.2846 C   0  0  2  0  0  0  0  0  0  0  0  0
   15.4982    0.1902   13.6444 S   0  0  0  0  0  0  0  0  0  0  0  0
   13.6895    0.7993   13.6944 C   0  0  0  0  0  0  0  0  0  0  0  0
   13.7589    2.3015   13.2922 C   0  0  2  0  0  0  0  0  0  0  0  0
   13.5967    2.3295   11.7488 N   0  0  0  0  0  0  0  0  0  0  0  0
   14.5819    2.8454   11.1517 C   0  0  0  0  0  0  0  0  0  0  0  0
   14.8648    2.8889    9.9020 O   0  0  0  0  0  0  0  0  0  0  0  0
   15.6967    3.1429   12.0213 N   0  0  0  0  0  0  0  0  0  0  0  0
   15.1547    2.8851   13.4270 C   0  0  2  0  0  0  0  0  0  0  0  0
  1  2  1  0  0  0  0
  1  3  2  0  0  0  0
  1  4  1  0  0  0  0
  4  5  1  0  0  0  0
  5  6  1  0  0  0  0
  6  7  1  0  0  0  0
  8  7  1  6  0  0  0
  8  9  1  0  0  0  0
  8 16  1  0  0  0  0
  9 10  1  0  0  0  0
 11 10  1  6  0  0  0
 11 12  1  0  0  0  0
 11 16  1  0  0  0  0
 12 13  1  0  0  0  0
 13 14  2  0  0  0  0
 13 15  1  0  0  0  0
 16 15  1  6  0  0  0
M  CHG  1   2  -1
M  END
>  <CHROM.1>
170.64610720,172.86584078,-159.18245299,-82.86735048,30.65870810,16.74527884
0.99912184,12.81152215,-0.35524544,0.45211169,-1.01092180

>  <Name>
1f27 biotin aptamer (Xray 1.3A)

>  <RI>
0

>  <Rbt.Current_Directory>
/home/itssahil/PROJECTS/Mol_Feturizer/New_Systems/rnas/1f27

>  <Rbt.Executable>
rbdock ($Id: //depot/dev/client3/rdock/2013.1/src/exe/rbdock.cxx#4 $)

>  <Rbt.Library>
libRbt.so (2013.1, Build901 2013/11/27)

>  <Rbt.Parameter_File>
/export/apps/rDock/src/rDock_2013.1_src/data/scripts/dock_solv.prm

>  <Rbt.Receptor>
prm/pocket_docking_2.prm

>  <SCORE>
-27.8164

>  <SCORE.INTER>
-29.2806

>  <SCORE.INTER.CONST>
1

>  <SCORE.INTER.POLAR>
-1.85908

>  <SCORE.INTER.ROT>
5

>  <SCORE.INTER.SOLV>
10.0584

>  <SCORE.INTER.VDW>
-23.6096

>  <SCORE.INTER.norm>
-1.83004

>  <SCORE.INTRA>
1.46421

>  <SCORE.INTRA.DIHEDRAL>
1.00978

>  <SCORE.INTRA.DIHEDRAL.0>
6.87082

>  <SCORE.INTRA.POLAR>
0

>  <SCORE.INTRA.POLAR.0>
0

>  <SCORE.INTRA.REPUL>
0

>  <SCORE.INTRA.REPUL.0>
0

>  <SCORE.INTRA.SOLV>
-0.275184

>  <SCORE.INTRA.SOLV.lig_0>
-42.5944

>  <SCORE.INTRA.VDW>
1.09691

>  <SCORE.INTRA.VDW.0>
-1.067

>  <SCORE.INTRA.norm>
0.091513

>  <SCORE.RESTR>
0

>  <SCORE.RESTR.CAVITY>
0

>  <SCORE.RESTR.norm>
0

>  <SCORE.SYSTEM>
0

>  <SCORE.SYSTEM.CONST>
0

>  <SCORE.SYSTEM.DIHEDRAL>
0

>  <SCORE.SYSTEM.SOLV>
0

>  <SCORE.SYSTEM.norm>
0

>  <SCORE.heavy>
16

>  <SCORE.norm>
-1.73852

>  <RMSD>
1.569

$$$$
1f27 biotin aptamer (Xray 1.3A)
 OpenBabel11021811393D
libRbt.so/2013.1/901 2013/11/27
 16 17  0  0  0  0  0  0  0  0999 V2000
   21.0630   -0.7646   13.1673 C   0  0  0  0  0  0  0  0  0  0  0  0
   20.1681   -1.5855   12.9924 O   0  5  0  0  0  0  0  0  0  0  0  0
   21.8577   -0.5234   12.2602 O   0  0  0  0  0  0  0  0  0  0  0  0
   21.1492    0.0045   14.4794 C   0  0  0  0  0  0  0  0  0  0  0  0
   19.8475    0.7447   14.8596 C   0  0  0  0  0  0  0  0  0  0  0  0
   19.4295    1.7314   13.7851 C   0  0  0  0  0  0  0  0  0  0  0  0
   18.1502    2.4737   14.1107 C   0  0  0  0  0  0  0  0  0  0  0  0
   16.9143    1.5810   14.2842 C   0  0  2  0  0  0  0  0  0  0  0  0
   16.5501    0.3686   12.8477 S   0  0  0  0  0  0  0  0  0  0  0  0
   14.8223    0.1379   13.6264 C   0  0  0  0  0  0  0  0  0  0  0  0
   14.4501    1.5352   14.2027 C   0  0  2  0  0  0  0  0  0  0  0  0
   13.7019    2.2733   13.0605 N   0  0  0  0  0  0  0  0  0  0  0  0
   14.2650    3.3454   12.7048 C   0  0  0  0  0  0  0  0  0  0  0  0
   14.0295    4.1149   11.7067 O   0  0  0  0  0  0  0  0  0  0  0  0
   15.5529    3.5578   13.3244 N   0  0  0  0  0  0  0  0  0  0  0  0
   15.6545    2.4458   14.3680 C   0  0  2  0  0  0  0  0  0  0  0  0
  1  2  1  0  0  0  0
  1  3  2  0  0  0  0
  1  4  1  0  0  0  0
  4  5  1  0  0  0  0
  5  6  1  0  0  0  0
  6  7  1  0  0  0  0
  8  7  1  6  0  0  0
  8  9  1  0  0  0  0
  8 16  1  0  0  0  0
  9 10  1  0  0  0  0
 11 10  1  6  0  0  0
 11 12  1  0  0  0  0
 11 16  1  0  0  0  0
 12 13  1  0  0  0  0
 13 14  2  0  0  0  0
 13 15  1  0  0  0  0
 16 15  1  6  0  0  0
M  CHG  1   2  -1
M  END
>  <CHROM.1>
-54.16428630,-58.22330703,179.55117382,-60.96573980,-52.75563661,17.31597539
1.26048448,13.40451070,0.43411696,0.12773607,-2.99849131

>  <Name>
1f27 biotin aptamer (Xray 1.3A)

>  <RI>
0

>  <Rbt.Current_Directory>
/home/itssahil/PROJECTS/Mol_Feturizer/New_Systems/rnas/1f27

>  <Rbt.Executable>
rbdock ($Id: //depot/dev/client3/rdock/2013.1/src/exe/rbdock.cxx#4 $)

>  <Rbt.Library>
libRbt.so (2013.1, Build901 2013/11/27)

>  <Rbt.Parameter_File>
/export/apps/rDock/src/rDock_2013.1_src/data/scripts/dock_solv.prm

>  <Rbt.Receptor>
prm/blind_docking_60.prm

>  <SCORE>
-31.511

>  <SCORE.INTER>
-29.3626

>  <SCORE.INTER.CONST>
1

>  <SCORE.INTER.POLAR>
-2.66136

>  <SCORE.INTER.ROT>
5

>  <SCORE.INTER.SOLV>
12.4733

>  <SCORE.INTER.VDW>
-21.795

>  <SCORE.INTER.norm>
-1.83516

>  <SCORE.INTRA>
-2.14838

>  <SCORE.INTRA.DIHEDRAL>
-5.24887

>  <SCORE.INTRA.DIHEDRAL.0>
6.87082

>  <SCORE.INTRA.POLAR>
0

>  <SCORE.INTRA.POLAR.0>
0

>  <SCORE.INTRA.REPUL>
0

>  <SCORE.INTRA.REPUL.0>
0

>  <SCORE.INTRA.SOLV>
0.548974

>  <SCORE.INTRA.SOLV.lig_0>
-42.5944

>  <SCORE.INTRA.VDW>
0.201567

>  <SCORE.INTRA.VDW.0>
-1.067

>  <SCORE.INTRA.norm>
-0.134274

>  <SCORE.RESTR>
0

>  <SCORE.RESTR.CAVITY>
0

>  <SCORE.RESTR.norm>
0

>  <SCORE.SYSTEM>
0

>  <SCORE.SYSTEM.CONST>
0

>  <SCORE.SYSTEM.DIHEDRAL>
0

>  <SCORE.SYSTEM.SOLV>
0

>  <SCORE.SYSTEM.norm>
0

>  <SCORE.heavy>
16

>  <SCORE.norm>
-1.96944

>  <RMSD>
1.576

$$$$
1f27 biotin aptamer (Xray 1.3A)
 OpenBabel11021811393D
libRbt.so/2013.1/901 2013/11/27
 16 17  0  0  0  0  0  0  0  0999 V2000
   21.0474   -0.5457   13.2013 C   0  0  0  0  0  0  0  0  0  0  0  0
   21.8129   -0.4303   12.2494 O   0  5  0  0  0  0  0  0  0  0  0  0
   21.4835   -0.4754   14.3490 O   0  0  0  0  0  0  0  0  0  0  0  0
   19.5514   -0.7072   12.9639 C   0  0  0  0  0  0  0  0  0  0  0  0
   18.6791   -0.3394   14.1850 C   0  0  0  0  0  0  0  0  0  0  0  0
   18.7095    1.1514   14.4668 C   0  0  0  0  0  0  0  0  0  0  0  0
   17.7564    1.9497   13.6020 C   0  0  0  0  0  0  0  0  0  0  0  0
   16.2786    1.8366   13.9990 C   0  0  2  0  0  0  0  0  0  0  0  0
   15.4563    0.1362   13.6858 S   0  0  0  0  0  0  0  0  0  0  0  0
   13.7844    1.0189   13.9516 C   0  0  0  0  0  0  0  0  0  0  0  0
   13.9783    2.4400   13.3466 C   0  0  2  0  0  0  0  0  0  0  0  0
   13.5422    2.3256   11.8613 N   0  0  0  0  0  0  0  0  0  0  0  0
   14.4615    2.6156   11.0464 C   0  0  0  0  0  0  0  0  0  0  0  0
   14.5147    2.4796    9.7727 O   0  0  0  0  0  0  0  0  0  0  0  0
   15.7459    2.8298   11.6727 N   0  0  0  0  0  0  0  0  0  0  0  0
   15.4402    2.8123   13.1701 C   0  0  2  0  0  0  0  0  0  0  0  0
  1  2  1  0  0  0  0
  1  3  2  0  0  0  0
  1  4  1  0  0  0  0
  4  5  1  0  0  0  0
  5  6  1  0  0  0  0
  6  7  1  0  0  0  0
  8  7  1  6  0  0  0
  8  9  1  0  0  0  0
  8 16  1  0  0  0  0
  9 10  1  0  0  0  0
 11 10  1  1  0  0  0
 11 12  1  0  0  0  0
 11 16  1  0  0  0  0
 12 13  1  0  0  0  0
 13 14  2  0  0  0  0
 13 15  1  0  0  0  0
 16 15  1  6  0  0  0
M  CHG  1   2  -1
M  END
>  <CHROM.1>
-159.25503727,69.11339889,82.04560630,75.30636700,-69.37240982,16.94464965
1.09760182,12.99696472,-0.32553644,0.26997626,-1.15714743

>  <Name>
1f27 biotin aptamer (Xray 1.3A)

>  <RI>
0

>  <Rbt.Current_Directory>
/home/itssahil/PROJECTS/Mol_Feturizer/New_Systems/rnas/1f27

>  <Rbt.Executable>
rbdock ($Id: //depot/dev/client3/rdock/2013.1/src/exe/rbdock.cxx#4 $)

>  <Rbt.Library>
libRbt.so (2013.1, Build901 2013/11/27)

>  <Rbt.Parameter_File>
/export/apps/rDock/src/rDock_2013.1_src/data/scripts/dock_solv.prm

>  <Rbt.Receptor>
prm/blind_docking_60.prm

>  <SCORE>
-30.2829

>  <SCORE.INTER>
-30.0526

>  <SCORE.INTER.CONST>
1

>  <SCORE.INTER.POLAR>
-2.40357

>  <SCORE.INTER.ROT>
5

>  <SCORE.INTER.SOLV>
12.6195

>  <SCORE.INTER.VDW>
-23.163

>  <SCORE.INTER.norm>
-1.87829

>  <SCORE.INTRA>
-0.230314

>  <SCORE.INTRA.DIHEDRAL>
-2.02837

>  <SCORE.INTRA.DIHEDRAL.0>
6.87082

>  <SCORE.INTRA.POLAR>
0

>  <SCORE.INTRA.POLAR.0>
0

>  <SCORE.INTRA.REPUL>
0

>  <SCORE.INTRA.REPUL.0>
0

>  <SCORE.INTRA.SOLV>
0.308627

>  <SCORE.INTRA.SOLV.lig_0>
-42.5944

>  <SCORE.INTRA.VDW>
0.629559

>  <SCORE.INTRA.VDW.0>
-1.067

>  <SCORE.INTRA.norm>
-0.0143946

>  <SCORE.RESTR>
0

>  <SCORE.RESTR.CAVITY>
0

>  <SCORE.RESTR.norm>
0

>  <SCORE.SYSTEM>
0

>  <SCORE.SYSTEM.CONST>
0

>  <SCORE.SYSTEM.DIHEDRAL>
0

>  <SCORE.SYSTEM.SOLV>
0

>  <SCORE.SYSTEM.norm>
0

>  <SCORE.heavy>
16

>  <SCORE.norm>
-1.89268

>  <RMSD>
1.579

$$$$
1f27 biotin aptamer (Xray 1.3A)
 OpenBabel11021811393D
libRbt.so/2013.1/901 2013/11/27
 16 17  0  0  0  0  0  0  0  0999 V2000
   21.1484   -0.4039   13.2348 C   0  0  0  0  0  0  0  0  0  0  0  0
   21.9548   -0.6399   12.3407 O   0  5  0  0  0  0  0  0  0  0  0  0
   20.3210   -1.2563   13.5531 O   0  0  0  0  0  0  0  0  0  0  0  0
   21.2147    0.9141   13.9957 C   0  0  0  0  0  0  0  0  0  0  0  0
   19.8465    1.6125   14.1613 C   0  0  0  0  0  0  0  0  0  0  0  0
   19.2068    1.9174   12.8193 C   0  0  0  0  0  0  0  0  0  0  0  0
   17.9796    2.7990   12.9210 C   0  0  0  0  0  0  0  0  0  0  0  0
   16.8051    2.1810   13.6910 C   0  0  2  0  0  0  0  0  0  0  0  0
   16.1583    0.5059   13.0264 S   0  0  0  0  0  0  0  0  0  0  0  0
   14.6241    0.7865   14.1275 C   0  0  0  0  0  0  0  0  0  0  0  0
   14.3754    2.3226   14.0884 C   0  0  2  0  0  0  0  0  0  0  0  0
   13.4109    2.5602   12.8958 N   0  0  0  0  0  0  0  0  0  0  0  0
   13.8897    3.3205   12.0092 C   0  0  0  0  0  0  0  0  0  0  0  0
   13.4564    3.6029   10.8361 O   0  0  0  0  0  0  0  0  0  0  0  0
   15.2762    3.6640   12.2263 N   0  0  0  0  0  0  0  0  0  0  0  0
   15.5878    3.1052   13.6144 C   0  0  2  0  0  0  0  0  0  0  0  0
  1  2  1  0  0  0  0
  1  3  2  0  0  0  0
  1  4  1  0  0  0  0
  4  5  1  0  0  0  0
  5  6  1  0  0  0  0
  6  7  1  0  0  0  0
  8  7  1  6  0  0  0
  8  9  1  0  0  0  0
  8 16  1  0  0  0  0
  9 10  1  0  0  0  0
 11 10  1  6  0  0  0
 11 12  1  0  0  0  0
 11 16  1  0  0  0  0
 12 13  1  0  0  0  0
 13 14  2  0  0  0  0
 13 15  1  0  0  0  0
 16 15  1  6  0  0  0
M  CHG  1   2  -1
M  END
>  <CHROM.1>
133.41820711,-59.09100229,-170.54917081,-63.64782664,-57.22115309,17.14941545
1.57731620,13.06219188,0.40360189,-0.05552275,2.75510050

>  <Name>
1f27 biotin aptamer (Xray 1.3A)

>  <RI>
0

>  <Rbt.Current_Directory>
/home/itssahil/PROJECTS/Mol_Feturizer/New_Systems/rnas/1f27

>  <Rbt.Executable>
rbdock ($Id: //depot/dev/client3/rdock/2013.1/src/exe/rbdock.cxx#4 $)

>  <Rbt.Library>
libRbt.so (2013.1, Build901 2013/11/27)

>  <Rbt.Parameter_File>
/export/apps/rDock/src/rDock_2013.1_src/data/scripts/dock_solv.prm

>  <Rbt.Receptor>
prm/pocket_docking_6.prm

>  <SCORE>
-30.2793

>  <SCORE.INTER>
-28.1293

>  <SCORE.INTER.CONST>
1

>  <SCORE.INTER.POLAR>
-1.70827

>  <SCORE.INTER.ROT>
5

>  <SCORE.INTER.SOLV>
10.7993

>  <SCORE.INTER.VDW>
-23.5917

>  <SCORE.INTER.norm>
-1.75808

>  <SCORE.INTRA>
-2.14996

>  <SCORE.INTRA.DIHEDRAL>
-5.10736

>  <SCORE.INTRA.DIHEDRAL.0>
6.87082

>  <SCORE.INTRA.POLAR>
0

>  <SCORE.INTRA.POLAR.0>
0

>  <SCORE.INTRA.REPUL>
0

>  <SCORE.INTRA.REPUL.0>
0

>  <SCORE.INTRA.SOLV>
0.250724

>  <SCORE.INTRA.SOLV.lig_0>
-42.5944

>  <SCORE.INTRA.VDW>
0.27836

>  <SCORE.INTRA.VDW.0>
-1.067

>  <SCORE.INTRA.norm>
-0.134373

>  <SCORE.RESTR>
0

>  <SCORE.RESTR.CAVITY>
0

>  <SCORE.RESTR.norm>
0

>  <SCORE.SYSTEM>
0

>  <SCORE.SYSTEM.CONST>
0

>  <SCORE.SYSTEM.DIHEDRAL>
0

>  <SCORE.SYSTEM.SOLV>
0

>  <SCORE.SYSTEM.norm>
0

>  <SCORE.heavy>
16

>  <SCORE.norm>
-1.89245

>  <RMSD>
1.581

$$$$
1f27 biotin aptamer (Xray 1.3A)
 OpenBabel11021811393D
libRbt.so/2013.1/901 2013/11/27
 16 17  0  0  0  0  0  0  0  0999 V2000
   20.9968   -1.0388   12.5603 C   0  0  0  0  0  0  0  0  0  0  0  0
   20.5978   -2.1033   13.0219 O   0  5  0  0  0  0  0  0  0  0  0  0
   22.2017   -0.8584   12.3921 O   0  0  0  0  0  0  0  0  0  0  0  0
   20.0000    0.0306   12.1325 C   0  0  0  0  0  0  0  0  0  0  0  0
   19.5146    0.9342   13.2879 C   0  0  0  0  0  0  0  0  0  0  0  0
   18.1269    1.4876   13.0216 C   0  0  0  0  0  0  0  0  0  0  0  0
   17.4696    2.0871   14.2473 C   0  0  0  0  0  0  0  0  0  0  0  0
   15.9571    1.8495   14.3478 C   0  0  2  0  0  0  0  0  0  0  0  0
   15.3354    0.1462   13.7328 S   0  0  0  0  0  0  0  0  0  0  0  0
   13.5815    0.8999   13.7590 C   0  0  0  0  0  0  0  0  0  0  0  0
   13.7744    2.3845   13.3326 C   0  0  2  0  0  0  0  0  0  0  0  0
   13.6246    2.3991   11.7877 N   0  0  0  0  0  0  0  0  0  0  0  0
   14.6519    2.8237   11.1897 C   0  0  0  0  0  0  0  0  0  0  0  0
   14.9452    2.8229    9.9416 O   0  0  0  0  0  0  0  0  0  0  0  0
   15.7817    3.0452   12.0627 N   0  0  0  0  0  0  0  0  0  0  0  0
   15.2119    2.8559   13.4683 C   0  0  2  0  0  0  0  0  0  0  0  0
  1  2  1  0  0  0  0
  1  3  2  0  0  0  0
  1  4  1  0  0  0  0
  4  5  1  0  0  0  0
  5  6  1  0  0  0  0
  6  7  1  0  0  0  0
  8  7  1  6  0  0  0
  8  9  1  0  0  0  0
  8 16  1  0  0  0  0
  9 10  1  0  0  0  0
 11 10  1  6  0  0  0
 11 12  1  0  0  0  0
 11 16  1  0  0  0  0
 12 13  1  0  0  0  0
 13 14  2  0  0  0  0
 13 15  1  0  0  0  0
 16 15  1  6  0  0  0
M  CHG  1   2  -1
M  END
>  <CHROM.1>
84.18871883,-152.57041097,165.70138089,-143.14699789,36.73078481,16.91108743
1.12682909,12.80824942,-0.27989408,0.33562688,-0.93592313

>  <Name>
1f27 biotin aptamer (Xray 1.3A)

>  <RI>
0

>  <Rbt.Current_Directory>
/home/itssahil/PROJECTS/Mol_Feturizer/New_Systems/rnas/1f27

>  <Rbt.Executable>
rbdock ($Id: //depot/dev/client3/rdock/2013.1/src/exe/rbdock.cxx#4 $)

>  <Rbt.Library>
libRbt.so (2013.1, Build901 2013/11/27)

>  <Rbt.Parameter_File>
/export/apps/rDock/src/rDock_2013.1_src/data/scripts/dock_solv.prm

>  <Rbt.Receptor>
prm/pocket_docking_3.prm

>  <SCORE>
-30.7756

>  <SCORE.INTER>
-32.8223

>  <SCORE.INTER.CONST>
1

>  <SCORE.INTER.POLAR>
-2.66678

>  <SCORE.INTER.ROT>
5

>  <SCORE.INTER.SOLV>
12.3042

>  <SCORE.INTER.VDW>
-24.027

>  <SCORE.INTER.norm>
-2.0514

>  <SCORE.INTRA>
2.03879

>  <SCORE.INTRA.DIHEDRAL>
3.7635

>  <SCORE.INTRA.DIHEDRAL.0>
6.87082

>  <SCORE.INTRA.POLAR>
0

>  <SCORE.INTRA.POLAR.0>
0

>  <SCORE.INTRA.REPUL>
0

>  <SCORE.INTRA.REPUL.0>
0

>  <SCORE.INTRA.SOLV>
-0.378583

>  <SCORE.INTRA.SOLV.lig_0>
-42.5944

>  <SCORE.INTRA.VDW>
0.346332

>  <SCORE.INTRA.VDW.0>
-1.067

>  <SCORE.INTRA.norm>
0.127424

>  <SCORE.RESTR>
0.00791036

>  <SCORE.RESTR.CAVITY>
0.00791036

>  <SCORE.RESTR.norm>
0.000494397

>  <SCORE.SYSTEM>
0

>  <SCORE.SYSTEM.CONST>
0

>  <SCORE.SYSTEM.DIHEDRAL>
0

>  <SCORE.SYSTEM.SOLV>
0

>  <SCORE.SYSTEM.norm>
0

>  <SCORE.heavy>
16

>  <SCORE.norm>
-1.92348

>  <RMSD>
1.583

$$$$
1f27 biotin aptamer (Xray 1.3A)
 OpenBabel11021811393D
libRbt.so/2013.1/901 2013/11/27
 16 17  0  0  0  0  0  0  0  0999 V2000
   20.8731   -1.0122   12.2908 C   0  0  0  0  0  0  0  0  0  0  0  0
   22.0879   -0.8622   12.2057 O   0  5  0  0  0  0  0  0  0  0  0  0
   20.4141   -2.0950   12.6501 O   0  0  0  0  0  0  0  0  0  0  0  0
   19.9374    0.1587   12.0188 C   0  0  0  0  0  0  0  0  0  0  0  0
   19.0442    0.5404   13.2202 C   0  0  0  0  0  0  0  0  0  0  0  0
   18.2750    1.8228   12.9617 C   0  0  0  0  0  0  0  0  0  0  0  0
   17.5453    2.3463   14.1812 C   0  0  0  0  0  0  0  0  0  0  0  0
   16.0780    1.9109   14.2895 C   0  0  2  0  0  0  0  0  0  0  0  0
   15.6734    0.1617   13.6244 S   0  0  0  0  0  0  0  0  0  0  0  0
   13.8372    0.6797   13.6940 C   0  0  0  0  0  0  0  0  0  0  0  0
   13.8297    2.1896   13.3155 C   0  0  2  0  0  0  0  0  0  0  0  0
   13.6566    2.2337   11.7737 N   0  0  0  0  0  0  0  0  0  0  0  0
   14.6113    2.8070   11.1795 C   0  0  0  0  0  0  0  0  0  0  0  0
   14.8839    2.8840    9.9291 O   0  0  0  0  0  0  0  0  0  0  0  0
   15.7155    3.1457   12.0476 N   0  0  0  0  0  0  0  0  0  0  0  0
   15.1958    2.8394   13.4519 C   0  0  2  0  0  0  0  0  0  0  0  0
  1  2  1  0  0  0  0
  1  3  2  0  0  0  0
  1  4  1  0  0  0  0
  4  5  1  0  0  0  0
  5  6  1  0  0  0  0
  6  7  1  0  0  0  0
  8  7  1  6  0  0  0
  8  9  1  0  0  0  0
  8 16  1  0  0  0  0
  9 10  1  0  0  0  0
 11 10  1  6  0  0  0
 11 12  1  0  0  0  0
 11 16  1  0  0  0  0
 12 13  1  0  0  0  0
 13 14  2  0  0  0  0
 13 15  1  0  0  0  0
 16 15  1  6  0  0  0
M  CHG  1   2  -1
M  END
>  <CHROM.1>
-119.75999972,172.16721048,-171.49860594,-94.50970999,34.00321383,16.92727567
1.12803256,12.71443503,-0.27557335,0.36186261,-0.93395231

>  <Name>
1f27 biotin aptamer (Xray 1.3A)

>  <RI>
0

>  <Rbt.Current_Directory>
/home/itssahil/PROJECTS/Mol_Feturizer/New_Systems/rnas/1f27

>  <Rbt.Executable>
rbdock ($Id: //depot/dev/client3/rdock/2013.1/src/exe/rbdock.cxx#4 $)

>  <Rbt.Library>
libRbt.so (2013.1, Build901 2013/11/27)

>  <Rbt.Parameter_File>
/export/apps/rDock/src/rDock_2013.1_src/data/scripts/dock_solv.prm

>  <Rbt.Receptor>
prm/pocket_docking_6.prm

>  <SCORE>
-32.0625

>  <SCORE.INTER>
-32.7369

>  <SCORE.INTER.CONST>
1

>  <SCORE.INTER.POLAR>
-2.72403

>  <SCORE.INTER.ROT>
5

>  <SCORE.INTER.SOLV>
13.3875

>  <SCORE.INTER.VDW>
-24.1403

>  <SCORE.INTER.norm>
-2.04606

>  <SCORE.INTRA>
0.674385

>  <SCORE.INTRA.DIHEDRAL>
1.09023

>  <SCORE.INTRA.DIHEDRAL.0>
6.87082

>  <SCORE.INTRA.POLAR>
0

>  <SCORE.INTRA.POLAR.0>
0

>  <SCORE.INTRA.REPUL>
0

>  <SCORE.INTRA.REPUL.0>
0

>  <SCORE.INTRA.SOLV>
-0.337167

>  <SCORE.INTRA.SOLV.lig_0>
-42.5944

>  <SCORE.INTRA.VDW>
0.297851

>  <SCORE.INTRA.VDW.0>
-1.067

>  <SCORE.INTRA.norm>
0.042149

>  <SCORE.RESTR>
0

>  <SCORE.RESTR.CAVITY>
0

>  <SCORE.RESTR.norm>
0

>  <SCORE.SYSTEM>
0

>  <SCORE.SYSTEM.CONST>
0

>  <SCORE.SYSTEM.DIHEDRAL>
0

>  <SCORE.SYSTEM.SOLV>
0

>  <SCORE.SYSTEM.norm>
0

>  <SCORE.heavy>
16

>  <SCORE.norm>
-2.00391

>  <RMSD>
1.584

$$$$
1f27 biotin aptamer (Xray 1.3A)
 OpenBabel11021811393D
libRbt.so/2013.1/901 2013/11/27
 16 17  0  0  0  0  0  0  0  0999 V2000
   20.4255   -1.5820   14.9285 C   0  0  0  0  0  0  0  0  0  0  0  0
   20.0566   -2.7427   15.0769 O   0  5  0  0  0  0  0  0  0  0  0  0
   20.9744   -0.9912   15.8570 O   0  0  0  0  0  0  0  0  0  0  0  0
   20.2669   -0.8961   13.5776 C   0  0  0  0  0  0  0  0  0  0  0  0
   18.9272   -0.1453   13.4086 C   0  0  0  0  0  0  0  0  0  0  0  0
   18.8074    1.0131   14.3815 C   0  0  0  0  0  0  0  0  0  0  0  0
   17.8363    2.0840   13.9298 C   0  0  0  0  0  0  0  0  0  0  0  0
   16.3573    1.7555   14.1726 C   0  0  2  0  0  0  0  0  0  0  0  0
   15.7566    0.0632   13.5086 S   0  0  0  0  0  0  0  0  0  0  0  0
   13.9811    0.7136   13.7727 C   0  0  0  0  0  0  0  0  0  0  0  0
   14.0532    2.2312   13.4336 C   0  0  2  0  0  0  0  0  0  0  0  0
   13.7352    2.3371   11.9181 N   0  0  0  0  0  0  0  0  0  0  0  0
   14.6689    2.8565   11.2462 C   0  0  0  0  0  0  0  0  0  0  0  0
   14.8239    2.9528    9.9772 O   0  0  0  0  0  0  0  0  0  0  0  0
   15.8750    3.0845   12.0085 N   0  0  0  0  0  0  0  0  0  0  0  0
   15.4721    2.7731   13.4495 C   0  0  2  0  0  0  0  0  0  0  0  0
  1  2  1  0  0  0  0
  1  3  2  0  0  0  0
  1  4  1  0  0  0  0
  4  5  1  0  0  0  0
  5  6  1  0  0  0  0
  6  7  1  0  0  0  0
  8  7  1  6  0  0  0
  8  9  1  0  0  0  0
  8 16  1  0  0  0  0
  9 10  1  0  0  0  0
 11 10  1  6  0  0  0
 11 12  1  0  0  0  0
 11 16  1  0  0  0  0
 12 13  1  0  0  0  0
 13 14  2  0  0  0  0
 13 15  1  0  0  0  0
 16 15  1  6  0  0  0
M  CHG  1   2  -1
M  END
>  <CHROM.1>
90.61029620,64.42286837,157.08327046,79.38594933,-51.92762913,16.94236996
0.87568767,13.41461155,-0.69229008,0.03701908,-0.69556758

>  <Name>
1f27 biotin aptamer (Xray 1.3A)

>  <RI>
0

>  <Rbt.Current_Directory>
/home/itssahil/PROJECTS/Mol_Feturizer/New_Systems/rnas/1f27

>  <Rbt.Executable>
rbdock ($Id: //depot/dev/client3/rdock/2013.1/src/exe/rbdock.cxx#4 $)

>  <Rbt.Library>
libRbt.so (2013.1, Build901 2013/11/27)

>  <Rbt.Parameter_File>
/export/apps/rDock/src/rDock_2013.1_src/data/scripts/dock_solv.prm

>  <Rbt.Receptor>
prm/pocket_docking_8.prm

>  <SCORE>
-27.9728

>  <SCORE.INTER>
-27.4901

>  <SCORE.INTER.CONST>
1

>  <SCORE.INTER.POLAR>
-1.80149

>  <SCORE.INTER.ROT>
5

>  <SCORE.INTER.SOLV>
7.98942

>  <SCORE.INTER.VDW>
-21.9182

>  <SCORE.INTER.norm>
-1.71813

>  <SCORE.INTRA>
-0.482783

>  <SCORE.INTRA.DIHEDRAL>
-1.6645

>  <SCORE.INTRA.DIHEDRAL.0>
6.87082

>  <SCORE.INTRA.POLAR>
0

>  <SCORE.INTRA.POLAR.0>
0

>  <SCORE.INTRA.REPUL>
0

>  <SCORE.INTRA.REPUL.0>
0

>  <SCORE.INTRA.SOLV>
0.15939

>  <SCORE.INTRA.SOLV.lig_0>
-42.5944

>  <SCORE.INTRA.VDW>
0.269774

>  <SCORE.INTRA.VDW.0>
-1.067

>  <SCORE.INTRA.norm>
-0.0301739

>  <SCORE.RESTR>
0

>  <SCORE.RESTR.CAVITY>
0

>  <SCORE.RESTR.norm>
0

>  <SCORE.SYSTEM>
0

>  <SCORE.SYSTEM.CONST>
0

>  <SCORE.SYSTEM.DIHEDRAL>
0

>  <SCORE.SYSTEM.SOLV>
0

>  <SCORE.SYSTEM.norm>
0

>  <SCORE.heavy>
16

>  <SCORE.norm>
-1.7483

>  <RMSD>
1.584

$$$$
1f27 biotin aptamer (Xray 1.3A)
 OpenBabel11021811393D
libRbt.so/2013.1/901 2013/11/27
 16 17  0  0  0  0  0  0  0  0999 V2000
   20.1858   -1.1124   13.2147 C   0  0  0  0  0  0  0  0  0  0  0  0
   19.1524   -1.7096   12.9304 O   0  5  0  0  0  0  0  0  0  0  0  0
   21.1060   -1.7115   13.7687 O   0  0  0  0  0  0  0  0  0  0  0  0
   20.3568    0.3494   12.8217 C   0  0  0  0  0  0  0  0  0  0  0  0
   20.2568    1.3339   14.0082 C   0  0  0  0  0  0  0  0  0  0  0  0
   18.8735    1.3214   14.6318 C   0  0  0  0  0  0  0  0  0  0  0  0
   17.8668    2.1730   13.8869 C   0  0  0  0  0  0  0  0  0  0  0  0
   16.3993    1.7994   14.1342 C   0  0  2  0  0  0  0  0  0  0  0  0
   15.8439    0.0973   13.4557 S   0  0  0  0  0  0  0  0  0  0  0  0
   14.0520    0.6932   13.7361 C   0  0  0  0  0  0  0  0  0  0  0  0
   14.0783    2.2157   13.4126 C   0  0  2  0  0  0  0  0  0  0  0  0
   13.7487    2.3278   11.9000 N   0  0  0  0  0  0  0  0  0  0  0  0
   14.6632    2.8810   11.2285 C   0  0  0  0  0  0  0  0  0  0  0  0
   14.8081    2.9948    9.9598 O   0  0  0  0  0  0  0  0  0  0  0  0
   15.8665    3.1360   11.9866 N   0  0  0  0  0  0  0  0  0  0  0  0
   15.4809    2.7982   13.4265 C   0  0  2  0  0  0  0  0  0  0  0  0
  1  2  1  0  0  0  0
  1  3  2  0  0  0  0
  1  4  1  0  0  0  0
  4  5  1  0  0  0  0
  5  6  1  0  0  0  0
  6  7  1  0  0  0  0
  8  7  1  6  0  0  0
  8  9  1  0  0  0  0
  8 16  1  0  0  0  0
  9 10  1  0  0  0  0
 11 10  1  6  0  0  0
 11 12  1  0  0  0  0
 11 16  1  0  0  0  0
 12 13  1  0  0  0  0
 13 14  2  0  0  0  0
 13 15  1  0  0  0  0
 16 15  1  6  0  0  0
M  CHG  1   2  -1
M  END
>  <CHROM.1>
106.89960497,-64.44887649,-81.64553571,158.17963349,-67.22954193,16.98575492
1.11221429,13.03648472,0.52863374,-0.02821098,2.63669726

>  <Name>
1f27 biotin aptamer (Xray 1.3A)

>  <RI>
0

>  <Rbt.Current_Directory>
/home/itssahil/PROJECTS/Mol_Feturizer/New_Systems/rnas/1f27

>  <Rbt.Executable>
rbdock ($Id: //depot/dev/client3/rdock/2013.1/src/exe/rbdock.cxx#4 $)

>  <Rbt.Library>
libRbt.so (2013.1, Build901 2013/11/27)

>  <Rbt.Parameter_File>
/export/apps/rDock/src/rDock_2013.1_src/data/scripts/dock_solv.prm

>  <Rbt.Receptor>
prm/pocket_docking_6.prm

>  <SCORE>
-29.5943

>  <SCORE.INTER>
-28.9261

>  <SCORE.INTER.CONST>
1

>  <SCORE.INTER.POLAR>
-1.77331

>  <SCORE.INTER.ROT>
5

>  <SCORE.INTER.SOLV>
10.0268

>  <SCORE.INTER.VDW>
-23.6486

>  <SCORE.INTER.norm>
-1.80788

>  <SCORE.INTRA>
-0.668164

>  <SCORE.INTRA.DIHEDRAL>
-1.6082

>  <SCORE.INTRA.DIHEDRAL.0>
6.87082

>  <SCORE.INTRA.POLAR>
0

>  <SCORE.INTRA.POLAR.0>
0

>  <SCORE.INTRA.REPUL>
0

>  <SCORE.INTRA.REPUL.0>
0

>  <SCORE.INTRA.SOLV>
0.790139

>  <SCORE.INTRA.SOLV.lig_0>
-42.5944

>  <SCORE.INTRA.VDW>
-0.259134

>  <SCORE.INTRA.VDW.0>
-1.067

>  <SCORE.INTRA.norm>
-0.0417602

>  <SCORE.RESTR>
0

>  <SCORE.RESTR.CAVITY>
0

>  <SCORE.RESTR.norm>
0

>  <SCORE.SYSTEM>
0

>  <SCORE.SYSTEM.CONST>
0

>  <SCORE.SYSTEM.DIHEDRAL>
0

>  <SCORE.SYSTEM.SOLV>
0

>  <SCORE.SYSTEM.norm>
0

>  <SCORE.heavy>
16

>  <SCORE.norm>
-1.84964

>  <RMSD>
1.586

$$$$
1f27 biotin aptamer (Xray 1.3A)
 OpenBabel11021811393D
libRbt.so/2013.1/901 2013/11/27
 16 17  0  0  0  0  0  0  0  0999 V2000
   20.9763   -0.3827   12.8717 C   0  0  0  0  0  0  0  0  0  0  0  0
   21.9483   -0.6301   12.1650 O   0  5  0  0  0  0  0  0  0  0  0  0
   19.9220   -0.9912   12.6966 O   0  0  0  0  0  0  0  0  0  0  0  0
   21.0937    0.6256   14.0075 C   0  0  0  0  0  0  0  0  0  0  0  0
   20.1022    1.8059   13.9038 C   0  0  0  0  0  0  0  0  0  0  0  0
   18.6791    1.3700   14.2000 C   0  0  0  0  0  0  0  0  0  0  0  0
   17.6559    2.4680   13.9969 C   0  0  0  0  0  0  0  0  0  0  0  0
   16.1977    2.0336   14.1946 C   0  0  2  0  0  0  0  0  0  0  0  0
   15.7464    0.2940   13.5342 S   0  0  0  0  0  0  0  0  0  0  0  0
   13.9199    0.8140   13.7298 C   0  0  0  0  0  0  0  0  0  0  0  0
   13.8915    2.3288   13.3726 C   0  0  2  0  0  0  0  0  0  0  0  0
   13.6188    2.3937   11.8459 N   0  0  0  0  0  0  0  0  0  0  0  0
   14.5343    2.9733   11.1986 C   0  0  0  0  0  0  0  0  0  0  0  0
   14.7253    3.0666    9.9342 O   0  0  0  0  0  0  0  0  0  0  0  0
   15.6934    3.2987   11.9975 N   0  0  0  0  0  0  0  0  0  0  0  0
   15.2652    2.9745   13.4284 C   0  0  2  0  0  0  0  0  0  0  0  0
  1  2  1  0  0  0  0
  1  3  2  0  0  0  0
  1  4  1  0  0  0  0
  4  5  1  0  0  0  0
  5  6  1  0  0  0  0
  6  7  1  0  0  0  0
  8  7  1  6  0  0  0
  8  9  1  0  0  0  0
  8 16  1  0  0  0  0
  9 10  1  0  0  0  0
 11 10  1  6  0  0  0
 11 12  1  0  0  0  0
 11 16  1  0  0  0  0
 12 13  1  0  0  0  0
 13 14  2  0  0  0  0
 13 15  1  0  0  0  0
 16 15  1  6  0  0  0
M  CHG  1   2  -1
M  END
>  <CHROM.1>
122.09202638,71.68751594,-175.15265511,175.98795398,-38.79021621,17.05783520
1.41374754,12.94787001,-0.27419720,0.25563569,-1.09940619

>  <Name>
1f27 biotin aptamer (Xray 1.3A)

>  <RI>
0

>  <Rbt.Current_Directory>
/home/itssahil/PROJECTS/Mol_Feturizer/New_Systems/rnas/1f27

>  <Rbt.Executable>
rbdock ($Id: //depot/dev/client3/rdock/2013.1/src/exe/rbdock.cxx#4 $)

>  <Rbt.Library>
libRbt.so (2013.1, Build901 2013/11/27)

>  <Rbt.Parameter_File>
/export/apps/rDock/src/rDock_2013.1_src/data/scripts/dock_solv.prm

>  <Rbt.Receptor>
prm/pocket_docking_5.prm

>  <SCORE>
-34.7013

>  <SCORE.INTER>
-33.547

>  <SCORE.INTER.CONST>
1

>  <SCORE.INTER.POLAR>
-2.74797

>  <SCORE.INTER.ROT>
5

>  <SCORE.INTER.SOLV>
13.9525

>  <SCORE.INTER.VDW>
-24.7889

>  <SCORE.INTER.norm>
-2.09669

>  <SCORE.INTRA>
-1.15431

>  <SCORE.INTRA.DIHEDRAL>
-3.21075

>  <SCORE.INTRA.DIHEDRAL.0>
6.87082

>  <SCORE.INTRA.POLAR>
0

>  <SCORE.INTRA.POLAR.0>
0

>  <SCORE.INTRA.REPUL>
0

>  <SCORE.INTRA.REPUL.0>
0

>  <SCORE.INTRA.SOLV>
0.369743

>  <SCORE.INTRA.SOLV.lig_0>
-42.5944

>  <SCORE.INTRA.VDW>
0.266195

>  <SCORE.INTRA.VDW.0>
-1.067

>  <SCORE.INTRA.norm>
-0.0721443

>  <SCORE.RESTR>
0

>  <SCORE.RESTR.CAVITY>
0

>  <SCORE.RESTR.norm>
0

>  <SCORE.SYSTEM>
0

>  <SCORE.SYSTEM.CONST>
0

>  <SCORE.SYSTEM.DIHEDRAL>
0

>  <SCORE.SYSTEM.SOLV>
0

>  <SCORE.SYSTEM.norm>
0

>  <SCORE.heavy>
16

>  <SCORE.norm>
-2.16883

>  <RMSD>
1.587

$$$$
1f27 biotin aptamer (Xray 1.3A)
 OpenBabel11021811393D
libRbt.so/2013.1/901 2013/11/27
 16 17  0  0  0  0  0  0  0  0999 V2000
   20.8661   -0.3248   12.6074 C   0  0  0  0  0  0  0  0  0  0  0  0
   21.9961   -0.7524   12.3942 O   0  5  0  0  0  0  0  0  0  0  0  0
   19.9168   -1.1048   12.6606 O   0  0  0  0  0  0  0  0  0  0  0  0
   20.6478    1.1592   12.8735 C   0  0  0  0  0  0  0  0  0  0  0  0
   20.2616    1.4846   14.3336 C   0  0  0  0  0  0  0  0  0  0  0  0
   18.8082    1.1520   14.6163 C   0  0  0  0  0  0  0  0  0  0  0  0
   17.8314    2.1085   13.9648 C   0  0  0  0  0  0  0  0  0  0  0  0
   16.3518    1.7754   14.1978 C   0  0  2  0  0  0  0  0  0  0  0  0
   15.7622    0.0788   13.5349 S   0  0  0  0  0  0  0  0  0  0  0  0
   13.9825    0.7235   13.7837 C   0  0  0  0  0  0  0  0  0  0  0  0
   14.0515    2.2402   13.4402 C   0  0  2  0  0  0  0  0  0  0  0  0
   13.7443    2.3398   11.9220 N   0  0  0  0  0  0  0  0  0  0  0  0
   14.6811    2.8605   11.2553 C   0  0  0  0  0  0  0  0  0  0  0  0
   14.8452    2.9532    9.9871 O   0  0  0  0  0  0  0  0  0  0  0  0
   15.8807    3.0954   12.0257 N   0  0  0  0  0  0  0  0  0  0  0  0
   15.4682    2.7873   13.4648 C   0  0  2  0  0  0  0  0  0  0  0  0
  1  2  1  0  0  0  0
  1  3  2  0  0  0  0
  1  4  1  0  0  0  0
  4  5  1  0  0  0  0
  5  6  1  0  0  0  0
  6  7  1  0  0  0  0
  8  7  1  6  0  0  0
  8  9  1  0  0  0  0
  8 16  1  0  0  0  0
  9 10  1  0  0  0  0
 11 10  1  6  0  0  0
 11 12  1  0  0  0  0
 11 16  1  0  0  0  0
 12 13  1  0  0  0  0
 13 14  2  0  0  0  0
 13 15  1  0  0  0  0
 16 15  1  6  0  0  0
M  CHG  1   2  -1
M  END
>  <CHROM.1>
-109.51510973,-76.81109897,-72.25866737,178.29463071,-61.03806323,17.12393758
1.28903132,12.95073475,-0.26586190,0.24078228,-1.05362941

>  <Name>
1f27 biotin aptamer (Xray 1.3A)

>  <RI>
0

>  <Rbt.Current_Directory>
/home/itssahil/PROJECTS/Mol_Feturizer/New_Systems/rnas/1f27

>  <Rbt.Executable>
rbdock ($Id: //depot/dev/client3/rdock/2013.1/src/exe/rbdock.cxx#4 $)

>  <Rbt.Library>
libRbt.so (2013.1, Build901 2013/11/27)

>  <Rbt.Parameter_File>
/export/apps/rDock/src/rDock_2013.1_src/data/scripts/dock_solv.prm

>  <Rbt.Receptor>
prm/pocket_docking_3.prm

>  <SCORE>
-35.8428

>  <SCORE.INTER>
-34.2334

>  <SCORE.INTER.CONST>
1

>  <SCORE.INTER.POLAR>
-2.62488

>  <SCORE.INTER.ROT>
5

>  <SCORE.INTER.SOLV>
13.8643

>  <SCORE.INTER.VDW>
-25.6274

>  <SCORE.INTER.norm>
-2.13959

>  <SCORE.INTRA>
-1.61515

>  <SCORE.INTRA.DIHEDRAL>
-3.95413

>  <SCORE.INTRA.DIHEDRAL.0>
6.87082

>  <SCORE.INTRA.POLAR>
0

>  <SCORE.INTRA.POLAR.0>
0

>  <SCORE.INTRA.REPUL>
0

>  <SCORE.INTRA.REPUL.0>
0

>  <SCORE.INTRA.SOLV>
0.436689

>  <SCORE.INTRA.SOLV.lig_0>
-42.5944

>  <SCORE.INTRA.VDW>
0.143568

>  <SCORE.INTRA.VDW.0>
-1.067

>  <SCORE.INTRA.norm>
-0.100947

>  <SCORE.RESTR>
0.00568439

>  <SCORE.RESTR.CAVITY>
0.00568439

>  <SCORE.RESTR.norm>
0.000355274

>  <SCORE.SYSTEM>
0

>  <SCORE.SYSTEM.CONST>
0

>  <SCORE.SYSTEM.DIHEDRAL>
0

>  <SCORE.SYSTEM.SOLV>
0

>  <SCORE.SYSTEM.norm>
0

>  <SCORE.heavy>
16

>  <SCORE.norm>
-2.24018

>  <RMSD>
1.588

$$$$
1f27 biotin aptamer (Xray 1.3A)
 OpenBabel11021811393D
libRbt.so/2013.1/901 2013/11/27
 16 17  0  0  0  0  0  0  0  0999 V2000
   21.4362   -0.2129   13.9035 C   0  0  0  0  0  0  0  0  0  0  0  0
   21.7841   -0.1018   12.7322 O   0  5  0  0  0  0  0  0  0  0  0  0
   22.2079    0.1123   14.8043 O   0  0  0  0  0  0  0  0  0  0  0  0
   20.0286   -0.6872   14.2413 C   0  0  0  0  0  0  0  0  0  0  0  0
   19.0651    0.4489   14.6513 C   0  0  0  0  0  0  0  0  0  0  0  0
   18.8524    1.4387   13.5208 C   0  0  0  0  0  0  0  0  0  0  0  0
   17.8418    2.5190   13.8453 C   0  0  0  0  0  0  0  0  0  0  0  0
   16.4163    2.0115   14.0996 C   0  0  2  0  0  0  0  0  0  0  0  0
   15.9991    0.2904   13.3719 S   0  0  0  0  0  0  0  0  0  0  0  0
   14.1672    0.7190   13.6962 C   0  0  0  0  0  0  0  0  0  0  0  0
   14.0565    2.2476   13.4237 C   0  0  2  0  0  0  0  0  0  0  0  0
   13.6939    2.3795   11.9202 N   0  0  0  0  0  0  0  0  0  0  0  0
   14.5462    3.0314   11.2555 C   0  0  0  0  0  0  0  0  0  0  0  0
   14.6600    3.1982    9.9895 O   0  0  0  0  0  0  0  0  0  0  0  0
   15.7351    3.3653   12.0055 N   0  0  0  0  0  0  0  0  0  0  0  0
   15.4036    2.9491   13.4383 C   0  0  2  0  0  0  0  0  0  0  0  0
  1  2  1  0  0  0  0
  1  3  2  0  0  0  0
  1  4  1  0  0  0  0
  4  5  1  0  0  0  0
  5  6  1  0  0  0  0
  6  7  1  0  0  0  0
  8  7  1  6  0  0  0
  8  9  1  0  0  0  0
  8 16  1  0  0  0  0
  9 10  1  0  0  0  0
 11 10  1  6  0  0  0
 11 12  1  0  0  0  0
 11 16  1  0  0  0  0
 12 13  1  0  0  0  0
 13 14  2  0  0  0  0
 13 15  1  0  0  0  0
 16 15  1  6  0  0  0
M  CHG  1   2  -1
M  END
>  <CHROM.1>
-101.66086072,62.75860444,176.09171240,-63.11151733,-21.35990922,17.19837995
1.38451107,13.16976686,-0.43073443,0.10147680,-0.87970092

>  <Name>
1f27 biotin aptamer (Xray 1.3A)

>  <RI>
0

>  <Rbt.Current_Directory>
/home/itssahil/PROJECTS/Mol_Feturizer/New_Systems/rnas/1f27

>  <Rbt.Executable>
rbdock ($Id: //depot/dev/client3/rdock/2013.1/src/exe/rbdock.cxx#4 $)

>  <Rbt.Library>
libRbt.so (2013.1, Build901 2013/11/27)

>  <Rbt.Parameter_File>
/export/apps/rDock/src/rDock_2013.1_src/data/scripts/dock_solv.prm

>  <Rbt.Receptor>
prm/blind_docking_60.prm

>  <SCORE>
-28.6288

>  <SCORE.INTER>
-28.913

>  <SCORE.INTER.CONST>
1

>  <SCORE.INTER.POLAR>
-2.35934

>  <SCORE.INTER.ROT>
5

>  <SCORE.INTER.SOLV>
12.6989

>  <SCORE.INTER.VDW>
-22.5772

>  <SCORE.INTER.norm>
-1.80707

>  <SCORE.INTRA>
0.284293

>  <SCORE.INTRA.DIHEDRAL>
-1.23401

>  <SCORE.INTRA.DIHEDRAL.0>
6.87082

>  <SCORE.INTRA.POLAR>
0

>  <SCORE.INTRA.POLAR.0>
0

>  <SCORE.INTRA.REPUL>
0

>  <SCORE.INTRA.REPUL.0>
0

>  <SCORE.INTRA.SOLV>
0.312456

>  <SCORE.INTRA.SOLV.lig_0>
-42.5944

>  <SCORE.INTRA.VDW>
0.745068

>  <SCORE.INTRA.VDW.0>
-1.067

>  <SCORE.INTRA.norm>
0.0177683

>  <SCORE.RESTR>
0

>  <SCORE.RESTR.CAVITY>
0

>  <SCORE.RESTR.norm>
0

>  <SCORE.SYSTEM>
0

>  <SCORE.SYSTEM.CONST>
0

>  <SCORE.SYSTEM.DIHEDRAL>
0

>  <SCORE.SYSTEM.SOLV>
0

>  <SCORE.SYSTEM.norm>
0

>  <SCORE.heavy>
16

>  <SCORE.norm>
-1.7893

>  <RMSD>
1.589

$$$$
1f27 biotin aptamer (Xray 1.3A)
 OpenBabel11021811393D
libRbt.so/2013.1/901 2013/11/27
 16 17  0  0  0  0  0  0  0  0999 V2000
   21.2182   -0.4648   13.3092 C   0  0  0  0  0  0  0  0  0  0  0  0
   21.5824   -1.2716   14.1588 O   0  5  0  0  0  0  0  0  0  0  0  0
   22.0258   -0.0358   12.4869 O   0  0  0  0  0  0  0  0  0  0  0  0
   19.7555   -0.0469   13.2290 C   0  0  0  0  0  0  0  0  0  0  0  0
   19.5408    1.3861   12.6930 C   0  0  0  0  0  0  0  0  0  0  0  0
   18.0721    1.7679   12.6866 C   0  0  0  0  0  0  0  0  0  0  0  0
   17.5225    2.0796   14.0629 C   0  0  0  0  0  0  0  0  0  0  0  0
   16.0193    1.8206   14.2296 C   0  0  2  0  0  0  0  0  0  0  0  0
   15.3831    0.1375   13.5755 S   0  0  0  0  0  0  0  0  0  0  0  0
   13.6258    0.8692   13.7219 C   0  0  0  0  0  0  0  0  0  0  0  0
   13.7828    2.3724   13.3494 C   0  0  2  0  0  0  0  0  0  0  0  0
   13.5545    2.4497   11.8161 N   0  0  0  0  0  0  0  0  0  0  0  0
   14.5459    2.9105   11.1853 C   0  0  0  0  0  0  0  0  0  0  0  0
   14.7752    2.9651    9.9251 O   0  0  0  0  0  0  0  0  0  0  0  0
   15.7166    3.1084   12.0088 N   0  0  0  0  0  0  0  0  0  0  0  0
   15.2209    2.8542   13.4321 C   0  0  2  0  0  0  0  0  0  0  0  0
  1  2  1  0  0  0  0
  1  3  2  0  0  0  0
  1  4  1  0  0  0  0
  4  5  1  0  0  0  0
  5  6  1  0  0  0  0
  6  7  1  0  0  0  0
  8  7  1  6  0  0  0
  8  9  1  0  0  0  0
  8 16  1  0  0  0  0
  9 10  1  0  0  0  0
 11 10  1  6  0  0  0
 11 12  1  0  0  0  0
 11 16  1  0  0  0  0
 12 13  1  0  0  0  0
 13 14  2  0  0  0  0
 13 15  1  0  0  0  0
 16 15  1  6  0  0  0
M  CHG  1   2  -1
M  END
>  <CHROM.1>
150.44974876,-177.73794890,74.93963887,-152.42718323,47.27108781,16.95066691
1.31687790,12.89207281,-0.32811899,0.19278181,-0.88545234

>  <Name>
1f27 biotin aptamer (Xray 1.3A)

>  <RI>
0

>  <Rbt.Current_Directory>
/home/itssahil/PROJECTS/Mol_Feturizer/New_Systems/rnas/1f27

>  <Rbt.Executable>
rbdock ($Id: //depot/dev/client3/rdock/2013.1/src/exe/rbdock.cxx#4 $)

>  <Rbt.Library>
libRbt.so (2013.1, Build901 2013/11/27)

>  <Rbt.Parameter_File>
/export/apps/rDock/src/rDock_2013.1_src/data/scripts/dock_solv.prm

>  <Rbt.Receptor>
prm/pocket_docking_4.prm

>  <SCORE>
-30.7568

>  <SCORE.INTER>
-31.8406

>  <SCORE.INTER.CONST>
1

>  <SCORE.INTER.POLAR>
-2.54128

>  <SCORE.INTER.ROT>
5

>  <SCORE.INTER.SOLV>
12.5364

>  <SCORE.INTER.VDW>
-23.8682

>  <SCORE.INTER.norm>
-1.99003

>  <SCORE.INTRA>
1.08376

>  <SCORE.INTRA.DIHEDRAL>
-1.41978

>  <SCORE.INTRA.DIHEDRAL.0>
6.87082

>  <SCORE.INTRA.POLAR>
0

>  <SCORE.INTRA.POLAR.0>
0

>  <SCORE.INTRA.REPUL>
0

>  <SCORE.INTRA.REPUL.0>
0

>  <SCORE.INTRA.SOLV>
-0.238178

>  <SCORE.INTRA.SOLV.lig_0>
-42.5944

>  <SCORE.INTRA.VDW>
1.91274

>  <SCORE.INTRA.VDW.0>
-1.067

>  <SCORE.INTRA.norm>
0.0677352

>  <SCORE.RESTR>
0

>  <SCORE.RESTR.CAVITY>
0

>  <SCORE.RESTR.norm>
0

>  <SCORE.SYSTEM>
0

>  <SCORE.SYSTEM.CONST>
0

>  <SCORE.SYSTEM.DIHEDRAL>
0

>  <SCORE.SYSTEM.SOLV>
0

>  <SCORE.SYSTEM.norm>
0

>  <SCORE.heavy>
16

>  <SCORE.norm>
-1.9223

>  <RMSD>
1.589

$$$$
1f27 biotin aptamer (Xray 1.3A)
 OpenBabel11021811393D
libRbt.so/2013.1/901 2013/11/27
 16 17  0  0  0  0  0  0  0  0999 V2000
   20.0158   -1.1147   12.9620 C   0  0  0  0  0  0  0  0  0  0  0  0
   18.8474   -1.4863   13.0102 O   0  5  0  0  0  0  0  0  0  0  0  0
   20.9238   -1.9416   13.0269 O   0  0  0  0  0  0  0  0  0  0  0  0
   20.3415    0.3587   12.7534 C   0  0  0  0  0  0  0  0  0  0  0  0
   20.2700    1.2059   14.0434 C   0  0  0  0  0  0  0  0  0  0  0  0
   18.8729    1.2077   14.6360 C   0  0  0  0  0  0  0  0  0  0  0  0
   17.8888    2.0591   13.8612 C   0  0  0  0  0  0  0  0  0  0  0  0
   16.4119    1.7425   14.1309 C   0  0  2  0  0  0  0  0  0  0  0  0
   15.7805    0.0639   13.4604 S   0  0  0  0  0  0  0  0  0  0  0  0
   14.0175    0.7287   13.7686 C   0  0  0  0  0  0  0  0  0  0  0  0
   14.0979    2.2493   13.4454 C   0  0  2  0  0  0  0  0  0  0  0  0
   13.7497    2.3757   11.9381 N   0  0  0  0  0  0  0  0  0  0  0  0
   14.6746    2.8936   11.2528 C   0  0  0  0  0  0  0  0  0  0  0  0
   14.8043    3.0030    9.9820 O   0  0  0  0  0  0  0  0  0  0  0  0
   15.8984    3.1009   11.9924 N   0  0  0  0  0  0  0  0  0  0  0  0
   15.5222    2.7769   13.4379 C   0  0  2  0  0  0  0  0  0  0  0  0
  1  2  1  0  0  0  0
  1  3  2  0  0  0  0
  1  4  1  0  0  0  0
  4  5  1  0  0  0  0
  5  6  1  0  0  0  0
  6  7  1  0  0  0  0
  8  7  1  6  0  0  0
  8  9  1  0  0  0  0
  8 16  1  0  0  0  0
  9 10  1  0  0  0  0
 11 10  1  6  0  0  0
 11 12  1  0  0  0  0
 11 16  1  0  0  0  0
 12 13  1  0  0  0  0
 13 14  2  0  0  0  0
 13 15  1  0  0  0  0
 16 15  1  6  0  0  0
M  CHG  1   2  -1
M  END
>  <CHROM.1>
81.65726957,-61.96640981,-73.90452469,161.02595885,-69.74800662,16.94230266
1.08891273,12.98737768,0.51373019,-0.11339112,2.56312834

>  <Name>
1f27 biotin aptamer (Xray 1.3A)

>  <RI>
0

>  <Rbt.Current_Directory>
/home/itssahil/PROJECTS/Mol_Feturizer/New_Systems/rnas/1f27

>  <Rbt.Executable>
rbdock ($Id: //depot/dev/client3/rdock/2013.1/src/exe/rbdock.cxx#4 $)

>  <Rbt.Library>
libRbt.so (2013.1, Build901 2013/11/27)

>  <Rbt.Parameter_File>
/export/apps/rDock/src/rDock_2013.1_src/data/scripts/dock_solv.prm

>  <Rbt.Receptor>
prm/pocket_docking_4.prm

>  <SCORE>
-30.3383

>  <SCORE.INTER>
-29.4261

>  <SCORE.INTER.CONST>
1

>  <SCORE.INTER.POLAR>
-1.76946

>  <SCORE.INTER.ROT>
5

>  <SCORE.INTER.SOLV>
10.4991

>  <SCORE.INTER.VDW>
-24.1522

>  <SCORE.INTER.norm>
-1.83913

>  <SCORE.INTRA>
-0.912209

>  <SCORE.INTRA.DIHEDRAL>
-2.87202

>  <SCORE.INTRA.DIHEDRAL.0>
6.87082

>  <SCORE.INTRA.POLAR>
0

>  <SCORE.INTRA.POLAR.0>
0

>  <SCORE.INTRA.REPUL>
0

>  <SCORE.INTRA.REPUL.0>
0

>  <SCORE.INTRA.SOLV>
1.31751

>  <SCORE.INTRA.SOLV.lig_0>
-42.5944

>  <SCORE.INTRA.VDW>
-0.134956

>  <SCORE.INTRA.VDW.0>
-1.067

>  <SCORE.INTRA.norm>
-0.057013

>  <SCORE.RESTR>
0

>  <SCORE.RESTR.CAVITY>
0

>  <SCORE.RESTR.norm>
0

>  <SCORE.SYSTEM>
0

>  <SCORE.SYSTEM.CONST>
0

>  <SCORE.SYSTEM.DIHEDRAL>
0

>  <SCORE.SYSTEM.SOLV>
0

>  <SCORE.SYSTEM.norm>
0

>  <SCORE.heavy>
16

>  <SCORE.norm>
-1.89614

>  <RMSD>
1.591

$$$$
1f27 biotin aptamer (Xray 1.3A)
 OpenBabel11021811393D
libRbt.so/2013.1/901 2013/11/27
 16 17  0  0  0  0  0  0  0  0999 V2000
   20.6237   -0.7732   13.0488 C   0  0  0  0  0  0  0  0  0  0  0  0
   19.6278   -1.3282   12.5954 O   0  5  0  0  0  0  0  0  0  0  0  0
   21.4987   -1.4401   13.5984 O   0  0  0  0  0  0  0  0  0  0  0  0
   20.8095    0.7283   12.8718 C   0  0  0  0  0  0  0  0  0  0  0  0
   20.4371    1.5582   14.1207 C   0  0  0  0  0  0  0  0  0  0  0  0
   19.0132    1.2869   14.5698 C   0  0  0  0  0  0  0  0  0  0  0  0
   17.9710    2.0186   13.7500 C   0  0  0  0  0  0  0  0  0  0  0  0
   16.5222    1.5937   14.0234 C   0  0  2  0  0  0  0  0  0  0  0  0
   15.9671   -0.0519   13.2175 S   0  0  0  0  0  0  0  0  0  0  0  0
   14.1790    0.4789   13.6251 C   0  0  0  0  0  0  0  0  0  0  0  0
   14.1652    2.0244   13.4399 C   0  0  2  0  0  0  0  0  0  0  0  0
   13.7685    2.2649   11.9587 N   0  0  0  0  0  0  0  0  0  0  0  0
   14.6434    2.8950   11.3025 C   0  0  0  0  0  0  0  0  0  0  0  0
   14.7312    3.1251   10.0443 O   0  0  0  0  0  0  0  0  0  0  0  0
   15.8739    3.1061   12.0297 N   0  0  0  0  0  0  0  0  0  0  0  0
   15.5570    2.6326   13.4480 C   0  0  2  0  0  0  0  0  0  0  0  0
  1  2  1  0  0  0  0
  1  3  2  0  0  0  0
  1  4  1  0  0  0  0
  4  5  1  0  0  0  0
  5  6  1  0  0  0  0
  6  7  1  0  0  0  0
  8  7  1  6  0  0  0
  8  9  1  0  0  0  0
  8 16  1  0  0  0  0
  9 10  1  0  0  0  0
 11 10  1  6  0  0  0
 11 12  1  0  0  0  0
 11 16  1  0  0  0  0
 12 13  1  0  0  0  0
 13 14  2  0  0  0  0
 13 15  1  0  0  0  0
 16 15  1  6  0  0  0
M  CHG  1   2  -1
M  END
>  <CHROM.1>
100.37003705,-55.98409330,-79.20700798,170.45788937,-77.90239265,17.14935732
1.13748358,12.96738256,0.44731633,0.00993115,2.68579141

>  <Name>
1f27 biotin aptamer (Xray 1.3A)

>  <RI>
0

>  <Rbt.Current_Directory>
/home/itssahil/PROJECTS/Mol_Feturizer/New_Systems/rnas/1f27

>  <Rbt.Executable>
rbdock ($Id: //depot/dev/client3/rdock/2013.1/src/exe/rbdock.cxx#4 $)

>  <Rbt.Library>
libRbt.so (2013.1, Build901 2013/11/27)

>  <Rbt.Parameter_File>
/export/apps/rDock/src/rDock_2013.1_src/data/scripts/dock_solv.prm

>  <Rbt.Receptor>
prm/blind_docking_60.prm

>  <SCORE>
-28.8896

>  <SCORE.INTER>
-28.1288

>  <SCORE.INTER.CONST>
1

>  <SCORE.INTER.POLAR>
-1.71562

>  <SCORE.INTER.ROT>
5

>  <SCORE.INTER.SOLV>
10.7965

>  <SCORE.INTER.VDW>
-23.566

>  <SCORE.INTER.norm>
-1.75805

>  <SCORE.INTRA>
-0.760806

>  <SCORE.INTRA.DIHEDRAL>
-2.38201

>  <SCORE.INTRA.DIHEDRAL.0>
6.87082

>  <SCORE.INTRA.POLAR>
0

>  <SCORE.INTRA.POLAR.0>
0

>  <SCORE.INTRA.REPUL>
0

>  <SCORE.INTRA.REPUL.0>
0

>  <SCORE.INTRA.SOLV>
0.936223

>  <SCORE.INTRA.SOLV.lig_0>
-42.5944

>  <SCORE.INTRA.VDW>
-0.0379141

>  <SCORE.INTRA.VDW.0>
-1.067

>  <SCORE.INTRA.norm>
-0.0475504

>  <SCORE.RESTR>
0

>  <SCORE.RESTR.CAVITY>
0

>  <SCORE.RESTR.norm>
0

>  <SCORE.SYSTEM>
0

>  <SCORE.SYSTEM.CONST>
0

>  <SCORE.SYSTEM.DIHEDRAL>
0

>  <SCORE.SYSTEM.SOLV>
0

>  <SCORE.SYSTEM.norm>
0

>  <SCORE.heavy>
16

>  <SCORE.norm>
-1.8056

>  <RMSD>
1.594

$$$$
1f27 biotin aptamer (Xray 1.3A)
 OpenBabel11021811393D
libRbt.so/2013.1/901 2013/11/27
 16 17  0  0  0  0  0  0  0  0999 V2000
   21.1150   -0.8132   14.7238 C   0  0  0  0  0  0  0  0  0  0  0  0
   21.2392   -1.2146   13.5710 O   0  5  0  0  0  0  0  0  0  0  0  0
   20.9063   -1.6158   15.6319 O   0  0  0  0  0  0  0  0  0  0  0  0
   21.2866    0.6670   15.0405 C   0  0  0  0  0  0  0  0  0  0  0  0
   20.3050    1.5887   14.2829 C   0  0  0  0  0  0  0  0  0  0  0  0
   18.8599    1.2263   14.5714 C   0  0  0  0  0  0  0  0  0  0  0  0
   17.8611    2.1645   13.9266 C   0  0  0  0  0  0  0  0  0  0  0  0
   16.3896    1.8052   14.1713 C   0  0  2  0  0  0  0  0  0  0  0  0
   15.8244    0.0994   13.5109 S   0  0  0  0  0  0  0  0  0  0  0  0
   14.0357    0.7124   13.7753 C   0  0  0  0  0  0  0  0  0  0  0  0
   14.0754    2.2306   13.4334 C   0  0  2  0  0  0  0  0  0  0  0  0
   13.7539    2.3268   11.9179 N   0  0  0  0  0  0  0  0  0  0  0  0
   14.6759    2.8647   11.2443 C   0  0  0  0  0  0  0  0  0  0  0  0
   14.8278    2.9619    9.9749 O   0  0  0  0  0  0  0  0  0  0  0  0
   15.8775    3.1196   12.0051 N   0  0  0  0  0  0  0  0  0  0  0  0
   15.4824    2.8025   13.4471 C   0  0  2  0  0  0  0  0  0  0  0  0
  1  2  1  0  0  0  0
  1  3  2  0  0  0  0
  1  4  1  0  0  0  0
  4  5  1  0  0  0  0
  5  6  1  0  0  0  0
  6  7  1  0  0  0  0
  8  7  1  6  0  0  0
  8  9  1  0  0  0  0
  8 16  1  0  0  0  0
  9 10  1  0  0  0  0
 11 10  1  6  0  0  0
 11 12  1  0  0  0  0
 11 16  1  0  0  0  0
 12 13  1  0  0  0  0
 13 14  2  0  0  0  0
 13 15  1  0  0  0  0
 16 15  1  6  0  0  0
M  CHG  1   2  -1
M  END
>  <CHROM.1>
59.17696187,58.01884014,175.95824239,178.58380521,-61.17832703,17.20984560
1.19150219,13.43595165,0.53776570,0.05745290,2.46735857

>  <Name>
1f27 biotin aptamer (Xray 1.3A)

>  <RI>
0

>  <Rbt.Current_Directory>
/home/itssahil/PROJECTS/Mol_Feturizer/New_Systems/rnas/1f27

>  <Rbt.Executable>
rbdock ($Id: //depot/dev/client3/rdock/2013.1/src/exe/rbdock.cxx#4 $)

>  <Rbt.Library>
libRbt.so (2013.1, Build901 2013/11/27)

>  <Rbt.Parameter_File>
/export/apps/rDock/src/rDock_2013.1_src/data/scripts/dock_solv.prm

>  <Rbt.Receptor>
prm/pocket_docking_5.prm

>  <SCORE>
-31.9563

>  <SCORE.INTER>
-29.5293

>  <SCORE.INTER.CONST>
1

>  <SCORE.INTER.POLAR>
-1.79315

>  <SCORE.INTER.ROT>
5

>  <SCORE.INTER.SOLV>
8.76409

>  <SCORE.INTER.VDW>
-23.5638

>  <SCORE.INTER.norm>
-1.84558

>  <SCORE.INTRA>
-2.42694

>  <SCORE.INTRA.DIHEDRAL>
-5.42305

>  <SCORE.INTRA.DIHEDRAL.0>
6.87082

>  <SCORE.INTRA.POLAR>
0

>  <SCORE.INTRA.POLAR.0>
0

>  <SCORE.INTRA.REPUL>
0

>  <SCORE.INTRA.REPUL.0>
0

>  <SCORE.INTRA.SOLV>
0.119114

>  <SCORE.INTRA.SOLV.lig_0>
-42.5944

>  <SCORE.INTRA.VDW>
0.225027

>  <SCORE.INTRA.VDW.0>
-1.067

>  <SCORE.INTRA.norm>
-0.151684

>  <SCORE.RESTR>
0

>  <SCORE.RESTR.CAVITY>
0

>  <SCORE.RESTR.norm>
0

>  <SCORE.SYSTEM>
0

>  <SCORE.SYSTEM.CONST>
0

>  <SCORE.SYSTEM.DIHEDRAL>
0

>  <SCORE.SYSTEM.SOLV>
0

>  <SCORE.SYSTEM.norm>
0

>  <SCORE.heavy>
16

>  <SCORE.norm>
-1.99727

>  <RMSD>
1.594

$$$$
1f27 biotin aptamer (Xray 1.3A)
 OpenBabel11021811393D
libRbt.so/2013.1/901 2013/11/27
 16 17  0  0  0  0  0  0  0  0999 V2000
   20.9284   -1.0811   12.3073 C   0  0  0  0  0  0  0  0  0  0  0  0
   20.5145   -2.1809   12.6600 O   0  5  0  0  0  0  0  0  0  0  0  0
   22.1329   -0.9095   12.1278 O   0  0  0  0  0  0  0  0  0  0  0  0
   19.9481    0.0505   12.0260 C   0  0  0  0  0  0  0  0  0  0  0  0
   19.1318    0.4950   13.2601 C   0  0  0  0  0  0  0  0  0  0  0  0
   18.2927    1.7242   12.9640 C   0  0  0  0  0  0  0  0  0  0  0  0
   17.5838    2.2799   14.1816 C   0  0  0  0  0  0  0  0  0  0  0  0
   16.1104    1.8717   14.3107 C   0  0  2  0  0  0  0  0  0  0  0  0
   15.6566    0.1462   13.6162 S   0  0  0  0  0  0  0  0  0  0  0  0
   13.8332    0.6993   13.7349 C   0  0  0  0  0  0  0  0  0  0  0  0
   13.8491    2.2170   13.3895 C   0  0  2  0  0  0  0  0  0  0  0  0
   13.6459    2.2987   11.8529 N   0  0  0  0  0  0  0  0  0  0  0  0
   14.6000    2.8658   11.2517 C   0  0  0  0  0  0  0  0  0  0  0  0
   14.8488    2.9650    9.9979 O   0  0  0  0  0  0  0  0  0  0  0  0
   15.7282    3.1629   12.1040 N   0  0  0  0  0  0  0  0  0  0  0  0
   15.2307    2.8361   13.5118 C   0  0  2  0  0  0  0  0  0  0  0  0
  1  2  1  0  0  0  0
  1  3  2  0  0  0  0
  1  4  1  0  0  0  0
  4  5  1  0  0  0  0
  5  6  1  0  0  0  0
  6  7  1  0  0  0  0
  8  7  1  6  0  0  0
  8  9  1  0  0  0  0
  8 16  1  0  0  0  0
  9 10  1  0  0  0  0
 11 10  1  6  0  0  0
 11 12  1  0  0  0  0
 11 16  1  0  0  0  0
 12 13  1  0  0  0  0
 13 14  2  0  0  0  0
 13 15  1  0  0  0  0
 16 15  1  6  0  0  0
M  CHG  1   2  -1
M  END
>  <CHROM.1>
63.40962624,173.40557043,-174.14583447,-99.10266775,31.72433536,16.94786220
1.10915016,12.73968093,-0.28374484,0.36879446,-0.90688074

>  <Name>
1f27 biotin aptamer (Xray 1.3A)

>  <RI>
0

>  <Rbt.Current_Directory>
/home/itssahil/PROJECTS/Mol_Feturizer/New_Systems/rnas/1f27

>  <Rbt.Executable>
rbdock ($Id: //depot/dev/client3/rdock/2013.1/src/exe/rbdock.cxx#4 $)

>  <Rbt.Library>
libRbt.so (2013.1, Build901 2013/11/27)

>  <Rbt.Parameter_File>
/export/apps/rDock/src/rDock_2013.1_src/data/scripts/dock_solv.prm

>  <Rbt.Receptor>
prm/pocket_docking_5.prm

>  <SCORE>
-32.0191

>  <SCORE.INTER>
-33.0044

>  <SCORE.INTER.CONST>
1

>  <SCORE.INTER.POLAR>
-2.7868

>  <SCORE.INTER.ROT>
5

>  <SCORE.INTER.SOLV>
13.1876

>  <SCORE.INTER.VDW>
-24.0428

>  <SCORE.INTER.norm>
-2.06277

>  <SCORE.INTRA>
0.985281

>  <SCORE.INTRA.DIHEDRAL>
1.9062

>  <SCORE.INTRA.DIHEDRAL.0>
6.87082

>  <SCORE.INTRA.POLAR>
0

>  <SCORE.INTRA.POLAR.0>
0

>  <SCORE.INTRA.REPUL>
0

>  <SCORE.INTRA.REPUL.0>
0

>  <SCORE.INTRA.SOLV>
-0.408541

>  <SCORE.INTRA.SOLV.lig_0>
-42.5944

>  <SCORE.INTRA.VDW>
0.236452

>  <SCORE.INTRA.VDW.0>
-1.067

>  <SCORE.INTRA.norm>
0.0615801

>  <SCORE.RESTR>
0

>  <SCORE.RESTR.CAVITY>
0

>  <SCORE.RESTR.norm>
0

>  <SCORE.SYSTEM>
0

>  <SCORE.SYSTEM.CONST>
0

>  <SCORE.SYSTEM.DIHEDRAL>
0

>  <SCORE.SYSTEM.SOLV>
0

>  <SCORE.SYSTEM.norm>
0

>  <SCORE.heavy>
16

>  <SCORE.norm>
-2.00119

>  <RMSD>
1.594

$$$$
1f27 biotin aptamer (Xray 1.3A)
 OpenBabel11021811393D
libRbt.so/2013.1/901 2013/11/27
 16 17  0  0  0  0  0  0  0  0999 V2000
   20.0133   -1.9092   13.6786 C   0  0  0  0  0  0  0  0  0  0  0  0
   20.6612   -2.1102   12.6562 O   0  5  0  0  0  0  0  0  0  0  0  0
   19.5103   -2.8566   14.2802 O   0  0  0  0  0  0  0  0  0  0  0  0
   19.8891   -0.4986   14.2400 C   0  0  0  0  0  0  0  0  0  0  0  0
   18.7128    0.3105   13.6494 C   0  0  0  0  0  0  0  0  0  0  0  0
   18.6644    1.7197   14.2104 C   0  0  0  0  0  0  0  0  0  0  0  0
   17.4773    2.5240   13.7227 C   0  0  0  0  0  0  0  0  0  0  0  0
   16.1142    2.0269   14.2218 C   0  0  2  0  0  0  0  0  0  0  0  0
   15.4701    0.4102   13.4235 S   0  0  0  0  0  0  0  0  0  0  0  0
   13.7704    0.8452   14.1762 C   0  0  0  0  0  0  0  0  0  0  0  0
   13.6794    2.3972   14.0962 C   0  0  2  0  0  0  0  0  0  0  0  0
   13.0156    2.7074   12.7279 N   0  0  0  0  0  0  0  0  0  0  0  0
   13.7397    3.4088   11.9683 C   0  0  0  0  0  0  0  0  0  0  0  0
   13.5927    3.7150   10.7320 O   0  0  0  0  0  0  0  0  0  0  0  0
   15.0746    3.6258   12.4769 N   0  0  0  0  0  0  0  0  0  0  0  0
   15.0320    3.0584   13.8954 C   0  0  2  0  0  0  0  0  0  0  0  0
  1  2  1  0  0  0  0
  1  3  2  0  0  0  0
  1  4  1  0  0  0  0
  4  5  1  0  0  0  0
  5  6  1  0  0  0  0
  6  7  1  0  0  0  0
  8  7  1  6  0  0  0
  8  9  1  0  0  0  0
  8 16  1  0  0  0  0
  9 10  1  0  0  0  0
 11 10  1  6  0  0  0
 11 12  1  0  0  0  0
 11 16  1  0  0  0  0
 12 13  1  0  0  0  0
 13 14  2  0  0  0  0
 13 15  1  0  0  0  0
 16 15  1  6  0  0  0
M  CHG  1   2  -1
M  END
>  <CHROM.1>
87.49682576,-178.16330282,-176.51848241,67.41074866,-73.37062696,16.47453232
1.11991655,13.35860875,0.65632556,-0.02989740,2.86153133

>  <Name>
1f27 biotin aptamer (Xray 1.3A)

>  <RI>
0

>  <Rbt.Current_Directory>
/home/itssahil/PROJECTS/Mol_Feturizer/New_Systems/rnas/1f27

>  <Rbt.Executable>
rbdock ($Id: //depot/dev/client3/rdock/2013.1/src/exe/rbdock.cxx#4 $)

>  <Rbt.Library>
libRbt.so (2013.1, Build901 2013/11/27)

>  <Rbt.Parameter_File>
/export/apps/rDock/src/rDock_2013.1_src/data/scripts/dock_solv.prm

>  <Rbt.Receptor>
prm/pocket_docking_4.prm

>  <SCORE>
-26.2248

>  <SCORE.INTER>
-23.695

>  <SCORE.INTER.CONST>
1

>  <SCORE.INTER.POLAR>
-0.848528

>  <SCORE.INTER.ROT>
5

>  <SCORE.INTER.SOLV>
7.47541

>  <SCORE.INTER.VDW>
-22.3934

>  <SCORE.INTER.norm>
-1.48094

>  <SCORE.INTRA>
-2.52976

>  <SCORE.INTRA.DIHEDRAL>
-4.43853

>  <SCORE.INTRA.DIHEDRAL.0>
6.87082

>  <SCORE.INTRA.POLAR>
0

>  <SCORE.INTRA.POLAR.0>
0

>  <SCORE.INTRA.REPUL>
0

>  <SCORE.INTRA.REPUL.0>
0

>  <SCORE.INTRA.SOLV>
-0.806715

>  <SCORE.INTRA.SOLV.lig_0>
-42.5944

>  <SCORE.INTRA.VDW>
0.092863

>  <SCORE.INTRA.VDW.0>
-1.067

>  <SCORE.INTRA.norm>
-0.15811

>  <SCORE.RESTR>
0

>  <SCORE.RESTR.CAVITY>
0

>  <SCORE.RESTR.norm>
0

>  <SCORE.SYSTEM>
0

>  <SCORE.SYSTEM.CONST>
0

>  <SCORE.SYSTEM.DIHEDRAL>
0

>  <SCORE.SYSTEM.SOLV>
0

>  <SCORE.SYSTEM.norm>
0

>  <SCORE.heavy>
16

>  <SCORE.norm>
-1.63905

>  <RMSD>
1.597

$$$$
1f27 biotin aptamer (Xray 1.3A)
 OpenBabel11021811393D
libRbt.so/2013.1/901 2013/11/27
 16 17  0  0  0  0  0  0  0  0999 V2000
   21.8406   -0.5764   13.7613 C   0  0  0  0  0  0  0  0  0  0  0  0
   22.0655   -0.2036   12.6142 O   0  5  0  0  0  0  0  0  0  0  0  0
   22.7703   -0.9389   14.4801 O   0  0  0  0  0  0  0  0  0  0  0  0
   20.4233   -0.5260   14.3175 C   0  0  0  0  0  0  0  0  0  0  0  0
   19.6761    0.7916   14.0129 C   0  0  0  0  0  0  0  0  0  0  0  0
   18.2278    0.7312   14.4618 C   0  0  0  0  0  0  0  0  0  0  0  0
   17.4234    1.9546   14.0747 C   0  0  0  0  0  0  0  0  0  0  0  0
   15.9048    1.8032   14.2332 C   0  0  2  0  0  0  0  0  0  0  0  0
   15.1573    0.1595   13.5968 S   0  0  0  0  0  0  0  0  0  0  0  0
   13.4543    1.0137   13.7199 C   0  0  0  0  0  0  0  0  0  0  0  0
   13.7182    2.4971   13.3285 C   0  0  2  0  0  0  0  0  0  0  0  0
   13.5061    2.5688   11.7926 N   0  0  0  0  0  0  0  0  0  0  0  0
   14.5315    2.9507   11.1634 C   0  0  0  0  0  0  0  0  0  0  0  0
   14.7726    2.9717    9.9044 O   0  0  0  0  0  0  0  0  0  0  0  0
   15.7075    3.0781   11.9931 N   0  0  0  0  0  0  0  0  0  0  0  0
   15.1858    2.8788   13.4158 C   0  0  2  0  0  0  0  0  0  0  0  0
  1  2  1  0  0  0  0
  1  3  2  0  0  0  0
  1  4  1  0  0  0  0
  4  5  1  0  0  0  0
  5  6  1  0  0  0  0
  6  7  1  0  0  0  0
  8  7  1  6  0  0  0
  8  9  1  0  0  0  0
  8 16  1  0  0  0  0
  9 10  1  0  0  0  0
 11 10  1  6  0  0  0
 11 12  1  0  0  0  0
 11 16  1  0  0  0  0
 12 13  1  0  0  0  0
 13 14  2  0  0  0  0
 13 15  1  0  0  0  0
 16 15  1  6  0  0  0
M  CHG  1   2  -1
M  END
>  <CHROM.1>
-45.02662671,174.06934049,-174.93723650,167.21396019,-44.29966679,17.05616542
1.21948461,13.18180149,-0.36043886,0.18655540,-1.00056727

>  <Name>
1f27 biotin aptamer (Xray 1.3A)

>  <RI>
0

>  <Rbt.Current_Directory>
/home/itssahil/PROJECTS/Mol_Feturizer/New_Systems/rnas/1f27

>  <Rbt.Executable>
rbdock ($Id: //depot/dev/client3/rdock/2013.1/src/exe/rbdock.cxx#4 $)

>  <Rbt.Library>
libRbt.so (2013.1, Build901 2013/11/27)

>  <Rbt.Parameter_File>
/export/apps/rDock/src/rDock_2013.1_src/data/scripts/dock_solv.prm

>  <Rbt.Receptor>
prm/pocket_docking_7.prm

>  <SCORE>
-29.4705

>  <SCORE.INTER>
-27.6087

>  <SCORE.INTER.CONST>
1

>  <SCORE.INTER.POLAR>
-2.352

>  <SCORE.INTER.ROT>
5

>  <SCORE.INTER.SOLV>
12.9476

>  <SCORE.INTER.VDW>
-21.815

>  <SCORE.INTER.norm>
-1.72554

>  <SCORE.INTRA>
-1.86177

>  <SCORE.INTRA.DIHEDRAL>
-3.59068

>  <SCORE.INTRA.DIHEDRAL.0>
6.87082

>  <SCORE.INTRA.POLAR>
0

>  <SCORE.INTRA.POLAR.0>
0

>  <SCORE.INTRA.REPUL>
0

>  <SCORE.INTRA.REPUL.0>
0

>  <SCORE.INTRA.SOLV>
-0.768204

>  <SCORE.INTRA.SOLV.lig_0>
-42.5944

>  <SCORE.INTRA.VDW>
0.317666

>  <SCORE.INTRA.VDW.0>
-1.067

>  <SCORE.INTRA.norm>
-0.116361

>  <SCORE.RESTR>
0

>  <SCORE.RESTR.CAVITY>
0

>  <SCORE.RESTR.norm>
0

>  <SCORE.SYSTEM>
0

>  <SCORE.SYSTEM.CONST>
0

>  <SCORE.SYSTEM.DIHEDRAL>
0

>  <SCORE.SYSTEM.SOLV>
0

>  <SCORE.SYSTEM.norm>
0

>  <SCORE.heavy>
16

>  <SCORE.norm>
-1.84191

>  <RMSD>
1.599

$$$$
1f27 biotin aptamer (Xray 1.3A)
 OpenBabel11021811393D
libRbt.so/2013.1/901 2013/11/27
 16 17  0  0  0  0  0  0  0  0999 V2000
   20.3012   -1.0228   13.0288 C   0  0  0  0  0  0  0  0  0  0  0  0
   20.1322   -1.1075   14.2411 O   0  5  0  0  0  0  0  0  0  0  0  0
   20.3243   -2.0424   12.3416 O   0  0  0  0  0  0  0  0  0  0  0  0
   20.4138    0.3443   12.3663 C   0  0  0  0  0  0  0  0  0  0  0  0
   19.7043    1.4773   13.1409 C   0  0  0  0  0  0  0  0  0  0  0  0
   18.1969    1.3023   13.1340 C   0  0  0  0  0  0  0  0  0  0  0  0
   17.4895    2.1117   14.2008 C   0  0  0  0  0  0  0  0  0  0  0  0
   15.9810    1.8536   14.3102 C   0  0  2  0  0  0  0  0  0  0  0  0
   15.3784    0.1435   13.6951 S   0  0  0  0  0  0  0  0  0  0  0  0
   13.6147    0.8735   13.7338 C   0  0  0  0  0  0  0  0  0  0  0  0
   13.7850    2.3616   13.3096 C   0  0  2  0  0  0  0  0  0  0  0  0
   13.6255    2.3775   11.7658 N   0  0  0  0  0  0  0  0  0  0  0  0
   14.6432    2.8171   11.1624 C   0  0  0  0  0  0  0  0  0  0  0  0
   14.9288    2.8230    9.9125 O   0  0  0  0  0  0  0  0  0  0  0  0
   15.7753    3.0518   12.0289 N   0  0  0  0  0  0  0  0  0  0  0  0
   15.2169    2.8519   13.4375 C   0  0  2  0  0  0  0  0  0  0  0  0
  1  2  1  0  0  0  0
  1  3  2  0  0  0  0
  1  4  1  0  0  0  0
  4  5  1  0  0  0  0
  5  6  1  0  0  0  0
  6  7  1  0  0  0  0
  8  7  1  6  0  0  0
  8  9  1  0  0  0  0
  8 16  1  0  0  0  0
  9 10  1  0  0  0  0
 11 10  1  6  0  0  0
 11 12  1  0  0  0  0
 11 16  1  0  0  0  0
 12 13  1  0  0  0  0
 13 14  2  0  0  0  0
 13 15  1  0  0  0  0
 16 15  1  6  0  0  0
M  CHG  1   2  -1
M  END
>  <CHROM.1>
-25.76575496,-67.50341220,162.39627534,-174.32941105,25.03245858,16.77045575
1.15105609,12.89902810,-0.38989516,0.29461639,-0.88795025

>  <Name>
1f27 biotin aptamer (Xray 1.3A)

>  <RI>
0

>  <Rbt.Current_Directory>
/home/itssahil/PROJECTS/Mol_Feturizer/New_Systems/rnas/1f27

>  <Rbt.Executable>
rbdock ($Id: //depot/dev/client3/rdock/2013.1/src/exe/rbdock.cxx#4 $)

>  <Rbt.Library>
libRbt.so (2013.1, Build901 2013/11/27)

>  <Rbt.Parameter_File>
/export/apps/rDock/src/rDock_2013.1_src/data/scripts/dock_solv.prm

>  <Rbt.Receptor>
prm/pocket_docking_6.prm

>  <SCORE>
-28.5969

>  <SCORE.INTER>
-29.5057

>  <SCORE.INTER.CONST>
1

>  <SCORE.INTER.POLAR>
-1.88075

>  <SCORE.INTER.ROT>
5

>  <SCORE.INTER.SOLV>
9.6865

>  <SCORE.INTER.VDW>
-23.5634

>  <SCORE.INTER.norm>
-1.8441

>  <SCORE.INTRA>
0.90881

>  <SCORE.INTRA.DIHEDRAL>
-0.199632

>  <SCORE.INTRA.DIHEDRAL.0>
6.87082

>  <SCORE.INTRA.POLAR>
0

>  <SCORE.INTRA.POLAR.0>
0

>  <SCORE.INTRA.REPUL>
0

>  <SCORE.INTRA.REPUL.0>
0

>  <SCORE.INTRA.SOLV>
0.725993

>  <SCORE.INTRA.SOLV.lig_0>
-42.5944

>  <SCORE.INTRA.VDW>
0.645629

>  <SCORE.INTRA.VDW.0>
-1.067

>  <SCORE.INTRA.norm>
0.0568006

>  <SCORE.RESTR>
0

>  <SCORE.RESTR.CAVITY>
0

>  <SCORE.RESTR.norm>
0

>  <SCORE.SYSTEM>
0

>  <SCORE.SYSTEM.CONST>
0

>  <SCORE.SYSTEM.DIHEDRAL>
0

>  <SCORE.SYSTEM.SOLV>
0

>  <SCORE.SYSTEM.norm>
0

>  <SCORE.heavy>
16

>  <SCORE.norm>
-1.7873

>  <RMSD>
1.600

$$$$
1f27 biotin aptamer (Xray 1.3A)
 OpenBabel11021811393D
libRbt.so/2013.1/901 2013/11/27
 16 17  0  0  0  0  0  0  0  0999 V2000
   21.1716   -0.6081   13.2071 C   0  0  0  0  0  0  0  0  0  0  0  0
   21.6709   -0.4647   14.3186 O   0  5  0  0  0  0  0  0  0  0  0  0
   21.8819   -0.5472   12.2049 O   0  0  0  0  0  0  0  0  0  0  0  0
   19.6887   -0.9289   13.0707 C   0  0  0  0  0  0  0  0  0  0  0  0
   18.7844    0.3189   12.9601 C   0  0  0  0  0  0  0  0  0  0  0  0
   18.7696    1.1166   14.2509 C   0  0  0  0  0  0  0  0  0  0  0  0
   17.6512    2.1355   14.3191 C   0  0  0  0  0  0  0  0  0  0  0  0
   16.2455    1.5391   14.4701 C   0  0  2  0  0  0  0  0  0  0  0  0
   15.7269    0.2712   13.1325 S   0  0  0  0  0  0  0  0  0  0  0  0
   13.9425    0.4876   13.7757 C   0  0  0  0  0  0  0  0  0  0  0  0
   13.8383    1.9877   14.1782 C   0  0  2  0  0  0  0  0  0  0  0  0
   13.3397    2.7281   12.9084 N   0  0  0  0  0  0  0  0  0  0  0  0
   14.1393    3.6154   12.5004 C   0  0  0  0  0  0  0  0  0  0  0  0
   14.1379    4.2981   11.4153 O   0  0  0  0  0  0  0  0  0  0  0  0
   15.3997    3.6297   13.2067 N   0  0  0  0  0  0  0  0  0  0  0  0
   15.1950    2.6463   14.3587 C   0  0  2  0  0  0  0  0  0  0  0  0
  1  2  1  0  0  0  0
  1  3  2  0  0  0  0
  1  4  1  0  0  0  0
  4  5  1  0  0  0  0
  5  6  1  0  0  0  0
  6  7  1  0  0  0  0
  8  7  1  6  0  0  0
  8  9  1  0  0  0  0
  8 16  1  0  0  0  0
  9 10  1  0  0  0  0
 11 10  1  6  0  0  0
 11 12  1  0  0  0  0
 11 16  1  0  0  0  0
 12 13  1  0  0  0  0
 13 14  2  0  0  0  0
 13 15  1  0  0  0  0
 16 15  1  6  0  0  0
M  CHG  1   2  -1
M  END
>  <CHROM.1>
90.35087006,-67.32289631,-165.50734458,70.39974584,-55.69733162,16.92680571
1.30482388,13.34634654,-0.42542660,0.13118715,-0.36688878

>  <Name>
1f27 biotin aptamer (Xray 1.3A)

>  <RI>
0

>  <Rbt.Current_Directory>
/home/itssahil/PROJECTS/Mol_Feturizer/New_Systems/rnas/1f27

>  <Rbt.Executable>
rbdock ($Id: //depot/dev/client3/rdock/2013.1/src/exe/rbdock.cxx#4 $)

>  <Rbt.Library>
libRbt.so (2013.1, Build901 2013/11/27)

>  <Rbt.Parameter_File>
/export/apps/rDock/src/rDock_2013.1_src/data/scripts/dock_solv.prm

>  <Rbt.Receptor>
prm/pocket_docking_5.prm

>  <SCORE>
-31.0642

>  <SCORE.INTER>
-29.8958

>  <SCORE.INTER.CONST>
1

>  <SCORE.INTER.POLAR>
-2.49631

>  <SCORE.INTER.ROT>
5

>  <SCORE.INTER.SOLV>
13.0158

>  <SCORE.INTER.VDW>
-22.8814

>  <SCORE.INTER.norm>
-1.86849

>  <SCORE.INTRA>
-1.16837

>  <SCORE.INTRA.DIHEDRAL>
-3.84336

>  <SCORE.INTRA.DIHEDRAL.0>
6.87082

>  <SCORE.INTRA.POLAR>
0

>  <SCORE.INTRA.POLAR.0>
0

>  <SCORE.INTRA.REPUL>
0

>  <SCORE.INTRA.REPUL.0>
0

>  <SCORE.INTRA.SOLV>
0.150428

>  <SCORE.INTRA.SOLV.lig_0>
-42.5944

>  <SCORE.INTRA.VDW>
0.678092

>  <SCORE.INTRA.VDW.0>
-1.067

>  <SCORE.INTRA.norm>
-0.0730232

>  <SCORE.RESTR>
0

>  <SCORE.RESTR.CAVITY>
0

>  <SCORE.RESTR.norm>
0

>  <SCORE.SYSTEM>
0

>  <SCORE.SYSTEM.CONST>
0

>  <SCORE.SYSTEM.DIHEDRAL>
0

>  <SCORE.SYSTEM.SOLV>
0

>  <SCORE.SYSTEM.norm>
0

>  <SCORE.heavy>
16

>  <SCORE.norm>
-1.94151

>  <RMSD>
1.602

$$$$
1f27 biotin aptamer (Xray 1.3A)
 OpenBabel11021811393D
libRbt.so/2013.1/901 2013/11/27
 16 17  0  0  0  0  0  0  0  0999 V2000
   20.9075   -0.3512   13.0205 C   0  0  0  0  0  0  0  0  0  0  0  0
   21.8294   -0.4613   12.2184 O   0  5  0  0  0  0  0  0  0  0  0  0
   19.8960   -1.0381   12.8880 O   0  0  0  0  0  0  0  0  0  0  0  0
   21.0420    0.5829   14.2163 C   0  0  0  0  0  0  0  0  0  0  0  0
   20.0772    1.7892   14.1818 C   0  0  0  0  0  0  0  0  0  0  0  0
   18.6373    1.3616   14.3975 C   0  0  0  0  0  0  0  0  0  0  0  0
   17.6292    2.4395   14.0575 C   0  0  0  0  0  0  0  0  0  0  0  0
   16.1619    2.0287   14.2383 C   0  0  2  0  0  0  0  0  0  0  0  0
   15.6967    0.2852   13.5982 S   0  0  0  0  0  0  0  0  0  0  0  0
   13.8748    0.8337   13.7557 C   0  0  0  0  0  0  0  0  0  0  0  0
   13.8738    2.3429   13.3741 C   0  0  2  0  0  0  0  0  0  0  0  0
   13.6266    2.3871   11.8424 N   0  0  0  0  0  0  0  0  0  0  0  0
   14.5605    2.9434   11.2009 C   0  0  0  0  0  0  0  0  0  0  0  0
   14.7731    3.0136    9.9386 O   0  0  0  0  0  0  0  0  0  0  0  0
   15.7111    3.2653   12.0134 N   0  0  0  0  0  0  0  0  0  0  0  0
   15.2554    2.9701   13.4421 C   0  0  2  0  0  0  0  0  0  0  0  0
  1  2  1  0  0  0  0
  1  3  2  0  0  0  0
  1  4  1  0  0  0  0
  4  5  1  0  0  0  0
  5  6  1  0  0  0  0
  6  7  1  0  0  0  0
  8  7  1  6  0  0  0
  8  9  1  0  0  0  0
  8 16  1  0  0  0  0
  9 10  1  0  0  0  0
 11 10  1  6  0  0  0
 11 12  1  0  0  0  0
 11 16  1  0  0  0  0
 12 13  1  0  0  0  0
 13 14  2  0  0  0  0
 13 15  1  0  0  0  0
 16 15  1  6  0  0  0
M  CHG  1   2  -1
M  END
>  <CHROM.1>
113.94564930,69.67466004,-166.61402458,178.83342236,-43.27364600,17.03005198
1.41051760,13.02850866,-0.28414363,0.25253966,-1.14899814

>  <Name>
1f27 biotin aptamer (Xray 1.3A)

>  <RI>
0

>  <Rbt.Current_Directory>
/home/itssahil/PROJECTS/Mol_Feturizer/New_Systems/rnas/1f27

>  <Rbt.Executable>
rbdock ($Id: //depot/dev/client3/rdock/2013.1/src/exe/rbdock.cxx#4 $)

>  <Rbt.Library>
libRbt.so (2013.1, Build901 2013/11/27)

>  <Rbt.Parameter_File>
/export/apps/rDock/src/rDock_2013.1_src/data/scripts/dock_solv.prm

>  <Rbt.Receptor>
prm/pocket_docking_8.prm

>  <SCORE>
-34.9273

>  <SCORE.INTER>
-33.6049

>  <SCORE.INTER.CONST>
1

>  <SCORE.INTER.POLAR>
-2.78214

>  <SCORE.INTER.ROT>
5

>  <SCORE.INTER.SOLV>
13.635

>  <SCORE.INTER.VDW>
-24.6078

>  <SCORE.INTER.norm>
-2.10031

>  <SCORE.INTRA>
-1.32241

>  <SCORE.INTRA.DIHEDRAL>
-3.33139

>  <SCORE.INTRA.DIHEDRAL.0>
6.87082

>  <SCORE.INTRA.POLAR>
0

>  <SCORE.INTRA.POLAR.0>
0

>  <SCORE.INTRA.REPUL>
0

>  <SCORE.INTRA.REPUL.0>
0

>  <SCORE.INTRA.SOLV>
0.378285

>  <SCORE.INTRA.SOLV.lig_0>
-42.5944

>  <SCORE.INTRA.VDW>
0.154144

>  <SCORE.INTRA.VDW.0>
-1.067

>  <SCORE.INTRA.norm>
-0.0826506

>  <SCORE.RESTR>
0

>  <SCORE.RESTR.CAVITY>
0

>  <SCORE.RESTR.norm>
0

>  <SCORE.SYSTEM>
0

>  <SCORE.SYSTEM.CONST>
0

>  <SCORE.SYSTEM.DIHEDRAL>
0

>  <SCORE.SYSTEM.SOLV>
0

>  <SCORE.SYSTEM.norm>
0

>  <SCORE.heavy>
16

>  <SCORE.norm>
-2.18296

>  <RMSD>
1.605

$$$$
1f27 biotin aptamer (Xray 1.3A)
 OpenBabel11021811393D
libRbt.so/2013.1/901 2013/11/27
 16 17  0  0  0  0  0  0  0  0999 V2000
   21.1669   -0.3662   13.1020 C   0  0  0  0  0  0  0  0  0  0  0  0
   22.0147   -0.6023   12.2472 O   0  5  0  0  0  0  0  0  0  0  0  0
   20.3449   -1.2299   13.4033 O   0  0  0  0  0  0  0  0  0  0  0  0
   21.1737    0.9677   13.8376 C   0  0  0  0  0  0  0  0  0  0  0  0
   19.7729    1.5963   14.0101 C   0  0  0  0  0  0  0  0  0  0  0  0
   19.1060    1.8548   12.6717 C   0  0  0  0  0  0  0  0  0  0  0  0
   17.9133    2.7840   12.7601 C   0  0  0  0  0  0  0  0  0  0  0  0
   16.7385    2.2466   13.5879 C   0  0  2  0  0  0  0  0  0  0  0  0
   16.0553    0.5380   13.0591 S   0  0  0  0  0  0  0  0  0  0  0  0
   14.5402    0.9277   14.1534 C   0  0  0  0  0  0  0  0  0  0  0  0
   14.3169    2.4607   14.0014 C   0  0  2  0  0  0  0  0  0  0  0  0
   13.3413    2.6250   12.8054 N   0  0  0  0  0  0  0  0  0  0  0  0
   13.8214    3.3078   11.8586 C   0  0  0  0  0  0  0  0  0  0  0  0
   13.3779    3.5089   10.6726 O   0  0  0  0  0  0  0  0  0  0  0  0
   15.2161    3.6422   12.0333 N   0  0  0  0  0  0  0  0  0  0  0  0
   15.5360    3.1839   13.4558 C   0  0  2  0  0  0  0  0  0  0  0  0
  1  2  1  0  0  0  0
  1  3  2  0  0  0  0
  1  4  1  0  0  0  0
  4  5  1  0  0  0  0
  5  6  1  0  0  0  0
  6  7  1  0  0  0  0
  8  7  1  6  0  0  0
  8  9  1  0  0  0  0
  8 16  1  0  0  0  0
  9 10  1  0  0  0  0
 11 10  1  6  0  0  0
 11 12  1  0  0  0  0
 11 16  1  0  0  0  0
 12 13  1  0  0  0  0
 13 14  2  0  0  0  0
 13 15  1  0  0  0  0
 16 15  1  6  0  0  0
M  CHG  1   2  -1
M  END
>  <CHROM.1>
137.07773164,-59.68266586,-164.91677367,-63.88017518,-55.21335783,17.09513638
1.60420289,12.95549569,0.38840024,-0.10278387,2.65116254

>  <Name>
1f27 biotin aptamer (Xray 1.3A)

>  <RI>
0

>  <Rbt.Current_Directory>
/home/itssahil/PROJECTS/Mol_Feturizer/New_Systems/rnas/1f27

>  <Rbt.Executable>
rbdock ($Id: //depot/dev/client3/rdock/2013.1/src/exe/rbdock.cxx#4 $)

>  <Rbt.Library>
libRbt.so (2013.1, Build901 2013/11/27)

>  <Rbt.Parameter_File>
/export/apps/rDock/src/rDock_2013.1_src/data/scripts/dock_solv.prm

>  <Rbt.Receptor>
prm/pocket_docking_4.prm

>  <SCORE>
-30.1855

>  <SCORE.INTER>
-28.3836

>  <SCORE.INTER.CONST>
1

>  <SCORE.INTER.POLAR>
-1.75961

>  <SCORE.INTER.ROT>
5

>  <SCORE.INTER.SOLV>
11.1676

>  <SCORE.INTER.VDW>
-23.7129

>  <SCORE.INTER.norm>
-1.77397

>  <SCORE.INTRA>
-1.80196

>  <SCORE.INTRA.DIHEDRAL>
-4.51656

>  <SCORE.INTRA.DIHEDRAL.0>
6.87082

>  <SCORE.INTRA.POLAR>
0

>  <SCORE.INTRA.POLAR.0>
0

>  <SCORE.INTRA.REPUL>
0

>  <SCORE.INTRA.REPUL.0>
0

>  <SCORE.INTRA.SOLV>
0.202101

>  <SCORE.INTRA.SOLV.lig_0>
-42.5944

>  <SCORE.INTRA.VDW>
0.355273

>  <SCORE.INTRA.VDW.0>
-1.067

>  <SCORE.INTRA.norm>
-0.112622

>  <SCORE.RESTR>
0

>  <SCORE.RESTR.CAVITY>
0

>  <SCORE.RESTR.norm>
0

>  <SCORE.SYSTEM>
0

>  <SCORE.SYSTEM.CONST>
0

>  <SCORE.SYSTEM.DIHEDRAL>
0

>  <SCORE.SYSTEM.SOLV>
0

>  <SCORE.SYSTEM.norm>
0

>  <SCORE.heavy>
16

>  <SCORE.norm>
-1.8866

>  <RMSD>
1.606

$$$$
1f27 biotin aptamer (Xray 1.3A)
 OpenBabel11021811393D
libRbt.so/2013.1/901 2013/11/27
 16 17  0  0  0  0  0  0  0  0999 V2000
   21.2157   -1.4670   12.4938 C   0  0  0  0  0  0  0  0  0  0  0  0
   22.2202   -0.9647   11.9998 O   0  5  0  0  0  0  0  0  0  0  0  0
   20.9920   -2.6664   12.3387 O   0  0  0  0  0  0  0  0  0  0  0  0
   20.2833   -0.6239   13.3542 C   0  0  0  0  0  0  0  0  0  0  0  0
   18.7864   -0.9605   13.1729 C   0  0  0  0  0  0  0  0  0  0  0  0
   17.8997   -0.0154   13.9626 C   0  0  0  0  0  0  0  0  0  0  0  0
   16.4216   -0.2071   13.6940 C   0  0  0  0  0  0  0  0  0  0  0  0
   15.5218    0.9236   14.2099 C   0  0  2  0  0  0  0  0  0  0  0  0
   13.6585    0.7625   13.7999 S   0  0  0  0  0  0  0  0  0  0  0  0
   13.5011    2.5968   14.3056 C   0  0  0  0  0  0  0  0  0  0  0  0
   14.8282    3.2601   13.8343 C   0  0  2  0  0  0  0  0  0  0  0  0
   14.5559    3.7617   12.3909 N   0  0  0  0  0  0  0  0  0  0  0  0
   15.3230    3.2485   11.5300 C   0  0  0  0  0  0  0  0  0  0  0  0
   15.2855    3.2997   10.2495 O   0  0  0  0  0  0  0  0  0  0  0  0
   16.1657    2.1991   12.0556 N   0  0  0  0  0  0  0  0  0  0  0  0
   15.9301    2.2500   13.5649 C   0  0  2  0  0  0  0  0  0  0  0  0
  1  2  1  0  0  0  0
  1  3  2  0  0  0  0
  1  4  1  0  0  0  0
  4  5  1  0  0  0  0
  5  6  1  0  0  0  0
  6  7  1  0  0  0  0
  8  7  1  6  0  0  0
  8  9  1  0  0  0  0
  8 16  1  0  0  0  0
  9 10  1  0  0  0  0
 11 10  1  6  0  0  0
 11 12  1  0  0  0  0
 11 16  1  0  0  0  0
 12 13  1  0  0  0  0
 13 14  2  0  0  0  0
 13 15  1  0  0  0  0
 16 15  1  6  0  0  0
M  CHG  1   2  -1
M  END
>  <CHROM.1>
143.01680701,-175.20057063,173.50088783,-166.43583730,176.64606634,16.83157574
0.92476264,12.95931531,-0.35961612,0.42006278,-0.72325358

>  <Name>
1f27 biotin aptamer (Xray 1.3A)

>  <RI>
0

>  <Rbt.Current_Directory>
/home/itssahil/PROJECTS/Mol_Feturizer/New_Systems/rnas/1f27

>  <Rbt.Executable>
rbdock ($Id: //depot/dev/client3/rdock/2013.1/src/exe/rbdock.cxx#4 $)

>  <Rbt.Library>
libRbt.so (2013.1, Build901 2013/11/27)

>  <Rbt.Parameter_File>
/export/apps/rDock/src/rDock_2013.1_src/data/scripts/dock_solv.prm

>  <Rbt.Receptor>
prm/pocket_docking_6.prm

>  <SCORE>
-30.1894

>  <SCORE.INTER>
-28.1689

>  <SCORE.INTER.CONST>
1

>  <SCORE.INTER.POLAR>
-2.01861

>  <SCORE.INTER.ROT>
5

>  <SCORE.INTER.SOLV>
13.9584

>  <SCORE.INTER.VDW>
-23.6367

>  <SCORE.INTER.norm>
-1.76055

>  <SCORE.INTRA>
-2.02057

>  <SCORE.INTRA.DIHEDRAL>
-4.56058

>  <SCORE.INTRA.DIHEDRAL.0>
6.87082

>  <SCORE.INTRA.POLAR>
0

>  <SCORE.INTRA.POLAR.0>
0

>  <SCORE.INTRA.REPUL>
0

>  <SCORE.INTRA.REPUL.0>
0

>  <SCORE.INTRA.SOLV>
-0.600916

>  <SCORE.INTRA.SOLV.lig_0>
-42.5944

>  <SCORE.INTRA.VDW>
0.56018

>  <SCORE.INTRA.VDW.0>
-1.067

>  <SCORE.INTRA.norm>
-0.126285

>  <SCORE.RESTR>
0

>  <SCORE.RESTR.CAVITY>
0

>  <SCORE.RESTR.norm>
0

>  <SCORE.SYSTEM>
0

>  <SCORE.SYSTEM.CONST>
0

>  <SCORE.SYSTEM.DIHEDRAL>
0

>  <SCORE.SYSTEM.SOLV>
0

>  <SCORE.SYSTEM.norm>
0

>  <SCORE.heavy>
16

>  <SCORE.norm>
-1.88684

>  <RMSD>
1.610

$$$$
1f27 biotin aptamer (Xray 1.3A)
 OpenBabel11021811393D
libRbt.so/2013.1/901 2013/11/27
 16 17  0  0  0  0  0  0  0  0999 V2000
   21.3230   -0.4407   14.4464 C   0  0  0  0  0  0  0  0  0  0  0  0
   22.0270   -0.3266   15.4448 O   0  5  0  0  0  0  0  0  0  0  0  0
   20.7434   -1.5025   14.2247 O   0  0  0  0  0  0  0  0  0  0  0  0
   21.1117    0.7499   13.5199 C   0  0  0  0  0  0  0  0  0  0  0  0
   20.1527    1.8217   14.0842 C   0  0  0  0  0  0  0  0  0  0  0  0
   18.7264    1.3101   14.1667 C   0  0  0  0  0  0  0  0  0  0  0  0
   17.6842    2.3887   13.9573 C   0  0  0  0  0  0  0  0  0  0  0  0
   16.2333    1.9279   14.1491 C   0  0  2  0  0  0  0  0  0  0  0  0
   15.7924    0.2209   13.4023 S   0  0  0  0  0  0  0  0  0  0  0  0
   13.9630    0.7089   13.6474 C   0  0  0  0  0  0  0  0  0  0  0  0
   13.9139    2.2402   13.3718 C   0  0  2  0  0  0  0  0  0  0  0  0
   13.6213    2.3831   11.8542 N   0  0  0  0  0  0  0  0  0  0  0  0
   14.5222    3.0068   11.2277 C   0  0  0  0  0  0  0  0  0  0  0  0
   14.6962    3.1693    9.9679 O   0  0  0  0  0  0  0  0  0  0  0  0
   15.6878    3.3023   12.0288 N   0  0  0  0  0  0  0  0  0  0  0  0
   15.2812    2.8976   13.4455 C   0  0  2  0  0  0  0  0  0  0  0  0
  1  2  1  0  0  0  0
  1  3  2  0  0  0  0
  1  4  1  0  0  0  0
  4  5  1  0  0  0  0
  5  6  1  0  0  0  0
  6  7  1  0  0  0  0
  8  7  1  6  0  0  0
  8  9  1  0  0  0  0
  8 16  1  0  0  0  0
  9 10  1  0  0  0  0
 11 10  1  6  0  0  0
 11 12  1  0  0  0  0
 11 16  1  0  0  0  0
 12 13  1  0  0  0  0
 13 14  2  0  0  0  0
 13 15  1  0  0  0  0
 16 15  1  6  0  0  0
M  CHG  1   2  -1
M  END
>  <CHROM.1>
-74.63829069,-68.14070744,-148.10184747,-175.18396041,-42.10262232,17.15222544
1.37522493,13.30226972,-0.47629855,-0.06774413,-0.64090766

>  <Name>
1f27 biotin aptamer (Xray 1.3A)

>  <RI>
0

>  <Rbt.Current_Directory>
/home/itssahil/PROJECTS/Mol_Feturizer/New_Systems/rnas/1f27

>  <Rbt.Executable>
rbdock ($Id: //depot/dev/client3/rdock/2013.1/src/exe/rbdock.cxx#4 $)

>  <Rbt.Library>
libRbt.so (2013.1, Build901 2013/11/27)

>  <Rbt.Parameter_File>
/export/apps/rDock/src/rDock_2013.1_src/data/scripts/dock_solv.prm

>  <Rbt.Receptor>
prm/pocket_docking_5.prm

>  <SCORE>
-29.4506

>  <SCORE.INTER>
-29.3223

>  <SCORE.INTER.CONST>
1

>  <SCORE.INTER.POLAR>
-1.74653

>  <SCORE.INTER.ROT>
5

>  <SCORE.INTER.SOLV>
9.21788

>  <SCORE.INTER.VDW>
-23.7324

>  <SCORE.INTER.norm>
-1.83264

>  <SCORE.INTRA>
-0.128388

>  <SCORE.INTRA.DIHEDRAL>
-0.673326

>  <SCORE.INTRA.DIHEDRAL.0>
6.87082

>  <SCORE.INTRA.POLAR>
0

>  <SCORE.INTRA.POLAR.0>
0

>  <SCORE.INTRA.REPUL>
0

>  <SCORE.INTRA.REPUL.0>
0

>  <SCORE.INTRA.SOLV>
0.0851546

>  <SCORE.INTRA.SOLV.lig_0>
-42.5944

>  <SCORE.INTRA.VDW>
0.165697

>  <SCORE.INTRA.VDW.0>
-1.067

>  <SCORE.INTRA.norm>
-0.00802427

>  <SCORE.RESTR>
0

>  <SCORE.RESTR.CAVITY>
0

>  <SCORE.RESTR.norm>
0

>  <SCORE.SYSTEM>
0

>  <SCORE.SYSTEM.CONST>
0

>  <SCORE.SYSTEM.DIHEDRAL>
0

>  <SCORE.SYSTEM.SOLV>
0

>  <SCORE.SYSTEM.norm>
0

>  <SCORE.heavy>
16

>  <SCORE.norm>
-1.84067

>  <RMSD>
1.611

$$$$
1f27 biotin aptamer (Xray 1.3A)
 OpenBabel11021811393D
libRbt.so/2013.1/901 2013/11/27
 16 17  0  0  0  0  0  0  0  0999 V2000
   20.7947   -0.6644   12.9089 C   0  0  0  0  0  0  0  0  0  0  0  0
   20.9734   -1.8556   12.6755 O   0  5  0  0  0  0  0  0  0  0  0  0
   21.6308    0.1619   12.5475 O   0  0  0  0  0  0  0  0  0  0  0  0
   19.5094   -0.2019   13.5831 C   0  0  0  0  0  0  0  0  0  0  0  0
   18.4206    0.2768   12.5970 C   0  0  0  0  0  0  0  0  0  0  0  0
   18.1670    1.7677   12.7227 C   0  0  0  0  0  0  0  0  0  0  0  0
   17.5752    2.1698   14.0575 C   0  0  0  0  0  0  0  0  0  0  0  0
   16.0811    1.8601   14.2187 C   0  0  2  0  0  0  0  0  0  0  0  0
   15.5055    0.1543   13.5672 S   0  0  0  0  0  0  0  0  0  0  0  0
   13.7237    0.8260   13.7040 C   0  0  0  0  0  0  0  0  0  0  0  0
   13.8309    2.3326   13.3274 C   0  0  2  0  0  0  0  0  0  0  0  0
   13.6066    2.3974   11.7929 N   0  0  0  0  0  0  0  0  0  0  0  0
   14.5844    2.8899   11.1649 C   0  0  0  0  0  0  0  0  0  0  0  0
   14.8171    2.9485    9.9055 O   0  0  0  0  0  0  0  0  0  0  0  0
   15.7441    3.1302   11.9926 N   0  0  0  0  0  0  0  0  0  0  0  0
   15.2513    2.8635   13.4146 C   0  0  2  0  0  0  0  0  0  0  0  0
  1  2  1  0  0  0  0
  1  3  2  0  0  0  0
  1  4  1  0  0  0  0
  4  5  1  0  0  0  0
  5  6  1  0  0  0  0
  6  7  1  0  0  0  0
  8  7  1  6  0  0  0
  8  9  1  0  0  0  0
  8 16  1  0  0  0  0
  9 10  1  0  0  0  0
 11 10  1  6  0  0  0
 11 12  1  0  0  0  0
 11 16  1  0  0  0  0
 12 13  1  0  0  0  0
 13 14  2  0  0  0  0
 13 15  1  0  0  0  0
 16 15  1  6  0  0  0
M  CHG  1   2  -1
M  END
>  <CHROM.1>
-95.68158832,-112.57335723,-65.57182807,-76.50336034,42.47974756,16.83235802
1.21012180,12.78586424,-0.33931116,0.27812834,-0.87093954

>  <Name>
1f27 biotin aptamer (Xray 1.3A)

>  <RI>
0

>  <Rbt.Current_Directory>
/home/itssahil/PROJECTS/Mol_Feturizer/New_Systems/rnas/1f27

>  <Rbt.Executable>
rbdock ($Id: //depot/dev/client3/rdock/2013.1/src/exe/rbdock.cxx#4 $)

>  <Rbt.Library>
libRbt.so (2013.1, Build901 2013/11/27)

>  <Rbt.Parameter_File>
/export/apps/rDock/src/rDock_2013.1_src/data/scripts/dock_solv.prm

>  <Rbt.Receptor>
prm/pocket_docking_4.prm

>  <SCORE>
-29.4632

>  <SCORE.INTER>
-32.2321

>  <SCORE.INTER.CONST>
1

>  <SCORE.INTER.POLAR>
-2.54149

>  <SCORE.INTER.ROT>
5

>  <SCORE.INTER.SOLV>
12.5032

>  <SCORE.INTER.VDW>
-24.1175

>  <SCORE.INTER.norm>
-2.01451

>  <SCORE.INTRA>
2.76899

>  <SCORE.INTRA.DIHEDRAL>
1.89733

>  <SCORE.INTRA.DIHEDRAL.0>
6.87082

>  <SCORE.INTRA.POLAR>
0

>  <SCORE.INTRA.POLAR.0>
0

>  <SCORE.INTRA.REPUL>
0

>  <SCORE.INTRA.REPUL.0>
0

>  <SCORE.INTRA.SOLV>
0.230763

>  <SCORE.INTRA.SOLV.lig_0>
-42.5944

>  <SCORE.INTRA.VDW>
1.70494

>  <SCORE.INTRA.VDW.0>
-1.067

>  <SCORE.INTRA.norm>
0.173062

>  <SCORE.RESTR>
0

>  <SCORE.RESTR.CAVITY>
0

>  <SCORE.RESTR.norm>
0

>  <SCORE.SYSTEM>
0

>  <SCORE.SYSTEM.CONST>
0

>  <SCORE.SYSTEM.DIHEDRAL>
0

>  <SCORE.SYSTEM.SOLV>
0

>  <SCORE.SYSTEM.norm>
0

>  <SCORE.heavy>
16

>  <SCORE.norm>
-1.84145

>  <RMSD>
1.612

$$$$
1f27 biotin aptamer (Xray 1.3A)
 OpenBabel11021811393D
libRbt.so/2013.1/901 2013/11/27
 16 17  0  0  0  0  0  0  0  0999 V2000
   20.8931   -0.2204   12.5272 C   0  0  0  0  0  0  0  0  0  0  0  0
   21.9712   -0.6629   12.1436 O   0  5  0  0  0  0  0  0  0  0  0  0
   19.9292   -0.9750   12.6455 O   0  0  0  0  0  0  0  0  0  0  0  0
   20.7651    1.2454   12.9217 C   0  0  0  0  0  0  0  0  0  0  0  0
   20.3050    1.4649   14.3802 C   0  0  0  0  0  0  0  0  0  0  0  0
   18.8508    1.0765   14.5736 C   0  0  0  0  0  0  0  0  0  0  0  0
   17.8771    2.0343   13.9192 C   0  0  0  0  0  0  0  0  0  0  0  0
   16.3967    1.7169   14.1677 C   0  0  2  0  0  0  0  0  0  0  0  0
   15.7797    0.0310   13.5022 S   0  0  0  0  0  0  0  0  0  0  0  0
   14.0106    0.6947   13.7757 C   0  0  0  0  0  0  0  0  0  0  0  0
   14.0932    2.2125   13.4400 C   0  0  2  0  0  0  0  0  0  0  0  0
   13.7694    2.3245   11.9261 N   0  0  0  0  0  0  0  0  0  0  0  0
   14.7042    2.8382   11.2514 C   0  0  0  0  0  0  0  0  0  0  0  0
   14.8544    2.9364    9.9819 O   0  0  0  0  0  0  0  0  0  0  0  0
   15.9154    3.0549   12.0088 N   0  0  0  0  0  0  0  0  0  0  0  0
   15.5163    2.7432   13.4509 C   0  0  2  0  0  0  0  0  0  0  0  0
  1  2  1  0  0  0  0
  1  3  2  0  0  0  0
  1  4  1  0  0  0  0
  4  5  1  0  0  0  0
  5  6  1  0  0  0  0
  6  7  1  0  0  0  0
  8  7  1  6  0  0  0
  8  9  1  0  0  0  0
  8 16  1  0  0  0  0
  9 10  1  0  0  0  0
 11 10  1  6  0  0  0
 11 12  1  0  0  0  0
 11 16  1  0  0  0  0
 12 13  1  0  0  0  0
 13 14  2  0  0  0  0
 13 15  1  0  0  0  0
 16 15  1  6  0  0  0
M  CHG  1   2  -1
M  END
>  <CHROM.1>
-120.75999184,-70.55100947,-71.24175987,-176.47797160,-62.04572192,17.15532389
1.28324240,12.92120797,-0.24584932,0.23158833,-1.06828282

>  <Name>
1f27 biotin aptamer (Xray 1.3A)

>  <RI>
0

>  <Rbt.Current_Directory>
/home/itssahil/PROJECTS/Mol_Feturizer/New_Systems/rnas/1f27

>  <Rbt.Executable>
rbdock ($Id: //depot/dev/client3/rdock/2013.1/src/exe/rbdock.cxx#4 $)

>  <Rbt.Library>
libRbt.so (2013.1, Build901 2013/11/27)

>  <Rbt.Parameter_File>
/export/apps/rDock/src/rDock_2013.1_src/data/scripts/dock_solv.prm

>  <Rbt.Receptor>
prm/pocket_docking_4.prm

>  <SCORE>
-36.417

>  <SCORE.INTER>
-34.8521

>  <SCORE.INTER.CONST>
1

>  <SCORE.INTER.POLAR>
-2.77077

>  <SCORE.INTER.ROT>
5

>  <SCORE.INTER.SOLV>
14.6374

>  <SCORE.INTER.VDW>
-25.8113

>  <SCORE.INTER.norm>
-2.17826

>  <SCORE.INTRA>
-1.56484

>  <SCORE.INTRA.DIHEDRAL>
-4.51216

>  <SCORE.INTRA.DIHEDRAL.0>
6.87082

>  <SCORE.INTRA.POLAR>
0

>  <SCORE.INTRA.POLAR.0>
0

>  <SCORE.INTRA.REPUL>
0

>  <SCORE.INTRA.REPUL.0>
0

>  <SCORE.INTRA.SOLV>
0.625418

>  <SCORE.INTRA.SOLV.lig_0>
-42.5944

>  <SCORE.INTRA.VDW>
0.378525

>  <SCORE.INTRA.VDW.0>
-1.067

>  <SCORE.INTRA.norm>
-0.0978028

>  <SCORE.RESTR>
0

>  <SCORE.RESTR.CAVITY>
0

>  <SCORE.RESTR.norm>
0

>  <SCORE.SYSTEM>
0

>  <SCORE.SYSTEM.CONST>
0

>  <SCORE.SYSTEM.DIHEDRAL>
0

>  <SCORE.SYSTEM.SOLV>
0

>  <SCORE.SYSTEM.norm>
0

>  <SCORE.heavy>
16

>  <SCORE.norm>
-2.27606

>  <RMSD>
1.620

$$$$
1f27 biotin aptamer (Xray 1.3A)
 OpenBabel11021811393D
libRbt.so/2013.1/901 2013/11/27
 16 17  0  0  0  0  0  0  0  0999 V2000
   19.8280   -1.9037   13.0594 C   0  0  0  0  0  0  0  0  0  0  0  0
   20.8650   -2.2966   12.5342 O   0  5  0  0  0  0  0  0  0  0  0  0
   18.8320   -2.6252   13.0616 O   0  0  0  0  0  0  0  0  0  0  0  0
   19.7927   -0.5551   13.7668 C   0  0  0  0  0  0  0  0  0  0  0  0
   18.6290    0.3577   13.3198 C   0  0  0  0  0  0  0  0  0  0  0  0
   18.6157    1.6659   14.0888 C   0  0  0  0  0  0  0  0  0  0  0  0
   17.4485    2.5635   13.7344 C   0  0  0  0  0  0  0  0  0  0  0  0
   16.0803    2.0591   14.2119 C   0  0  2  0  0  0  0  0  0  0  0  0
   15.4469    0.4519   13.3864 S   0  0  0  0  0  0  0  0  0  0  0  0
   13.7383    0.8761   14.1253 C   0  0  0  0  0  0  0  0  0  0  0  0
   13.6467    2.4288   14.0634 C   0  0  2  0  0  0  0  0  0  0  0  0
   12.9980    2.7554   12.6916 N   0  0  0  0  0  0  0  0  0  0  0  0
   13.7299    3.4668   11.9490 C   0  0  0  0  0  0  0  0  0  0  0  0
   13.5966    3.7881   10.7151 O   0  0  0  0  0  0  0  0  0  0  0  0
   15.0588    3.6786   12.4752 N   0  0  0  0  0  0  0  0  0  0  0  0
   15.0008    3.0937   13.8861 C   0  0  2  0  0  0  0  0  0  0  0  0
  1  2  1  0  0  0  0
  1  3  2  0  0  0  0
  1  4  1  0  0  0  0
  4  5  1  0  0  0  0
  5  6  1  0  0  0  0
  6  7  1  0  0  0  0
  8  7  1  6  0  0  0
  8  9  1  0  0  0  0
  8 16  1  0  0  0  0
  9 10  1  0  0  0  0
 11 10  1  6  0  0  0
 11 12  1  0  0  0  0
 11 16  1  0  0  0  0
 12 13  1  0  0  0  0
 13 14  2  0  0  0  0
 13 15  1  0  0  0  0
 16 15  1  6  0  0  0
M  CHG  1   2  -1
M  END
>  <CHROM.1>
129.06064578,178.08958569,-177.00630224,69.95479393,-66.55648924,16.40694984
1.14826786,13.17223790,0.65678486,0.02049276,3.05356074

>  <Name>
1f27 biotin aptamer (Xray 1.3A)

>  <RI>
0

>  <Rbt.Current_Directory>
/home/itssahil/PROJECTS/Mol_Feturizer/New_Systems/rnas/1f27

>  <Rbt.Executable>
rbdock ($Id: //depot/dev/client3/rdock/2013.1/src/exe/rbdock.cxx#4 $)

>  <Rbt.Library>
libRbt.so (2013.1, Build901 2013/11/27)

>  <Rbt.Parameter_File>
/export/apps/rDock/src/rDock_2013.1_src/data/scripts/dock_solv.prm

>  <Rbt.Receptor>
prm/pocket_docking_5.prm

>  <SCORE>
-26.4296

>  <SCORE.INTER>
-23.9045

>  <SCORE.INTER.CONST>
1

>  <SCORE.INTER.POLAR>
-0.848528

>  <SCORE.INTER.ROT>
5

>  <SCORE.INTER.SOLV>
9.5836

>  <SCORE.INTER.VDW>
-23.2358

>  <SCORE.INTER.norm>
-1.49403

>  <SCORE.INTRA>
-2.5251

>  <SCORE.INTRA.DIHEDRAL>
-4.92624

>  <SCORE.INTRA.DIHEDRAL.0>
6.87082

>  <SCORE.INTRA.POLAR>
0

>  <SCORE.INTRA.POLAR.0>
0

>  <SCORE.INTRA.REPUL>
0

>  <SCORE.INTRA.REPUL.0>
0

>  <SCORE.INTRA.SOLV>
-0.710857

>  <SCORE.INTRA.SOLV.lig_0>
-42.5944

>  <SCORE.INTRA.VDW>
0.293448

>  <SCORE.INTRA.VDW.0>
-1.067

>  <SCORE.INTRA.norm>
-0.157819

>  <SCORE.RESTR>
0

>  <SCORE.RESTR.CAVITY>
0

>  <SCORE.RESTR.norm>
0

>  <SCORE.SYSTEM>
0

>  <SCORE.SYSTEM.CONST>
0

>  <SCORE.SYSTEM.DIHEDRAL>
0

>  <SCORE.SYSTEM.SOLV>
0

>  <SCORE.SYSTEM.norm>
0

>  <SCORE.heavy>
16

>  <SCORE.norm>
-1.65185

>  <RMSD>
1.620

$$$$
1f27 biotin aptamer (Xray 1.3A)
 OpenBabel11021811393D
libRbt.so/2013.1/901 2013/11/27
 16 17  0  0  0  0  0  0  0  0999 V2000
   20.9972   -0.4192   13.0117 C   0  0  0  0  0  0  0  0  0  0  0  0
   19.9446   -1.0341   12.8732 O   0  5  0  0  0  0  0  0  0  0  0  0
   21.9122   -0.5832   12.2064 O   0  0  0  0  0  0  0  0  0  0  0  0
   21.1472    0.5958   14.1377 C   0  0  0  0  0  0  0  0  0  0  0  0
   20.1667    1.7862   14.0441 C   0  0  0  0  0  0  0  0  0  0  0  0
   18.7354    1.3553   14.3065 C   0  0  0  0  0  0  0  0  0  0  0  0
   17.7154    2.4354   14.0121 C   0  0  0  0  0  0  0  0  0  0  0  0
   16.2549    2.0175   14.2279 C   0  0  2  0  0  0  0  0  0  0  0  0
   15.7733    0.2874   13.5641 S   0  0  0  0  0  0  0  0  0  0  0  0
   13.9561    0.8282   13.7884 C   0  0  0  0  0  0  0  0  0  0  0  0
   13.9412    2.3453   13.4401 C   0  0  2  0  0  0  0  0  0  0  0  0
   13.6479    2.4224   11.9178 N   0  0  0  0  0  0  0  0  0  0  0  0
   14.5612    2.9946   11.2609 C   0  0  0  0  0  0  0  0  0  0  0  0
   14.7355    3.0928    9.9945 O   0  0  0  0  0  0  0  0  0  0  0  0
   15.7353    3.3013   12.0452 N   0  0  0  0  0  0  0  0  0  0  0  0
   15.3233    2.9740   13.4802 C   0  0  2  0  0  0  0  0  0  0  0  0
  1  2  1  0  0  0  0
  1  3  2  0  0  0  0
  1  4  1  0  0  0  0
  4  5  1  0  0  0  0
  5  6  1  0  0  0  0
  6  7  1  0  0  0  0
  8  7  1  6  0  0  0
  8  9  1  0  0  0  0
  8 16  1  0  0  0  0
  9 10  1  0  0  0  0
 11 10  1  6  0  0  0
 11 12  1  0  0  0  0
 11 16  1  0  0  0  0
 12 13  1  0  0  0  0
 13 14  2  0  0  0  0
 13 15  1  0  0  0  0
 16 15  1  6  0  0  0
M  CHG  1   2  -1
M  END
>  <CHROM.1>
-62.17063036,69.01182900,-170.85356977,178.27769800,-43.64969398,17.09225489
1.41129736,13.02163486,-0.29553260,0.24397684,-1.06735111

>  <Name>
1f27 biotin aptamer (Xray 1.3A)

>  <RI>
0

>  <Rbt.Current_Directory>
/home/itssahil/PROJECTS/Mol_Feturizer/New_Systems/rnas/1f27

>  <Rbt.Executable>
rbdock ($Id: //depot/dev/client3/rdock/2013.1/src/exe/rbdock.cxx#4 $)

>  <Rbt.Library>
libRbt.so (2013.1, Build901 2013/11/27)

>  <Rbt.Parameter_File>
/export/apps/rDock/src/rDock_2013.1_src/data/scripts/dock_solv.prm

>  <Rbt.Receptor>
prm/pocket_docking_4.prm

>  <SCORE>
-34.8055

>  <SCORE.INTER>
-33.3258

>  <SCORE.INTER.CONST>
1

>  <SCORE.INTER.POLAR>
-2.73403

>  <SCORE.INTER.ROT>
5

>  <SCORE.INTER.SOLV>
13.4093

>  <SCORE.INTER.VDW>
-24.5068

>  <SCORE.INTER.norm>
-2.08286

>  <SCORE.INTRA>
-1.47972

>  <SCORE.INTRA.DIHEDRAL>
-3.85086

>  <SCORE.INTRA.DIHEDRAL.0>
6.87082

>  <SCORE.INTRA.POLAR>
0

>  <SCORE.INTRA.POLAR.0>
0

>  <SCORE.INTRA.REPUL>
0

>  <SCORE.INTRA.REPUL.0>
0

>  <SCORE.INTRA.SOLV>
0.449454

>  <SCORE.INTRA.SOLV.lig_0>
-42.5944

>  <SCORE.INTRA.VDW>
0.220981

>  <SCORE.INTRA.VDW.0>
-1.067

>  <SCORE.INTRA.norm>
-0.0924825

>  <SCORE.RESTR>
0

>  <SCORE.RESTR.CAVITY>
0

>  <SCORE.RESTR.norm>
0

>  <SCORE.SYSTEM>
0

>  <SCORE.SYSTEM.CONST>
0

>  <SCORE.SYSTEM.DIHEDRAL>
0

>  <SCORE.SYSTEM.SOLV>
0

>  <SCORE.SYSTEM.norm>
0

>  <SCORE.heavy>
16

>  <SCORE.norm>
-2.17534

>  <RMSD>
1.624

$$$$
1f27 biotin aptamer (Xray 1.3A)
 OpenBabel11021811393D
libRbt.so/2013.1/901 2013/11/27
 16 17  0  0  0  0  0  0  0  0999 V2000
   20.8046   -0.7227   14.8080 C   0  0  0  0  0  0  0  0  0  0  0  0
   21.1888   -0.0716   15.7743 O   0  5  0  0  0  0  0  0  0  0  0  0
   20.5179   -1.9107   14.9457 O   0  0  0  0  0  0  0  0  0  0  0  0
   20.6174   -0.0463   13.4560 C   0  0  0  0  0  0  0  0  0  0  0  0
   19.2185    0.5781   13.2550 C   0  0  0  0  0  0  0  0  0  0  0  0
   18.9544    1.6932   14.2498 C   0  0  0  0  0  0  0  0  0  0  0  0
   17.8354    2.6241   13.8314 C   0  0  0  0  0  0  0  0  0  0  0  0
   16.4213    2.0865   14.0873 C   0  0  2  0  0  0  0  0  0  0  0  0
   16.0332    0.3659   13.3427 S   0  0  0  0  0  0  0  0  0  0  0  0
   14.1951    0.7556   13.6811 C   0  0  0  0  0  0  0  0  0  0  0  0
   14.0538    2.2847   13.4262 C   0  0  2  0  0  0  0  0  0  0  0  0
   13.6807    2.4262   11.9262 N   0  0  0  0  0  0  0  0  0  0  0  0
   14.5167    3.1017   11.2644 C   0  0  0  0  0  0  0  0  0  0  0  0
   14.6206    3.2846    9.9997 O   0  0  0  0  0  0  0  0  0  0  0  0
   15.7031    3.4501   12.0119 N   0  0  0  0  0  0  0  0  0  0  0  0
   15.3873    3.0118   13.4417 C   0  0  2  0  0  0  0  0  0  0  0  0
  1  2  1  0  0  0  0
  1  3  2  0  0  0  0
  1  4  1  0  0  0  0
  4  5  1  0  0  0  0
  5  6  1  0  0  0  0
  6  7  1  0  0  0  0
  8  7  1  6  0  0  0
  8  9  1  0  0  0  0
  8 16  1  0  0  0  0
  9 10  1  0  0  0  0
 11 10  1  6  0  0  0
 11 12  1  0  0  0  0
 11 16  1  0  0  0  0
 12 13  1  0  0  0  0
 13 14  2  0  0  0  0
 13 15  1  0  0  0  0
 16 15  1  6  0  0  0
M  CHG  1   2  -1
M  END
>  <CHROM.1>
-87.65283716,63.10923221,161.04407915,79.25834658,-54.13699770,17.06370947
1.33213825,13.33602612,-0.59746219,-0.06319866,-0.63332333

>  <Name>
1f27 biotin aptamer (Xray 1.3A)

>  <RI>
0

>  <Rbt.Current_Directory>
/home/itssahil/PROJECTS/Mol_Feturizer/New_Systems/rnas/1f27

>  <Rbt.Executable>
rbdock ($Id: //depot/dev/client3/rdock/2013.1/src/exe/rbdock.cxx#4 $)

>  <Rbt.Library>
libRbt.so (2013.1, Build901 2013/11/27)

>  <Rbt.Parameter_File>
/export/apps/rDock/src/rDock_2013.1_src/data/scripts/dock_solv.prm

>  <Rbt.Receptor>
prm/pocket_docking_5.prm

>  <SCORE>
-28.0694

>  <SCORE.INTER>
-27.135

>  <SCORE.INTER.CONST>
1

>  <SCORE.INTER.POLAR>
-1.72334

>  <SCORE.INTER.ROT>
5

>  <SCORE.INTER.SOLV>
8.66615

>  <SCORE.INTER.VDW>
-22.1676

>  <SCORE.INTER.norm>
-1.69594

>  <SCORE.INTRA>
-0.934374

>  <SCORE.INTRA.DIHEDRAL>
-2.61647

>  <SCORE.INTRA.DIHEDRAL.0>
6.87082

>  <SCORE.INTRA.POLAR>
0

>  <SCORE.INTRA.POLAR.0>
0

>  <SCORE.INTRA.REPUL>
0

>  <SCORE.INTRA.REPUL.0>
0

>  <SCORE.INTRA.SOLV>
0.253307

>  <SCORE.INTRA.SOLV.lig_0>
-42.5944

>  <SCORE.INTRA.VDW>
0.247206

>  <SCORE.INTRA.VDW.0>
-1.067

>  <SCORE.INTRA.norm>
-0.0583984

>  <SCORE.RESTR>
0

>  <SCORE.RESTR.CAVITY>
0

>  <SCORE.RESTR.norm>
0

>  <SCORE.SYSTEM>
0

>  <SCORE.SYSTEM.CONST>
0

>  <SCORE.SYSTEM.DIHEDRAL>
0

>  <SCORE.SYSTEM.SOLV>
0

>  <SCORE.SYSTEM.norm>
0

>  <SCORE.heavy>
16

>  <SCORE.norm>
-1.75433

>  <RMSD>
1.625

$$$$
1f27 biotin aptamer (Xray 1.3A)
 OpenBabel11021811393D
libRbt.so/2013.1/901 2013/11/27
 16 17  0  0  0  0  0  0  0  0999 V2000
   20.9557   -0.8663   12.7799 C   0  0  0  0  0  0  0  0  0  0  0  0
   20.3848   -1.7206   13.4504 O   0  5  0  0  0  0  0  0  0  0  0  0
   22.1729   -0.9302   12.6155 O   0  0  0  0  0  0  0  0  0  0  0  0
   20.1519    0.2320   12.0958 C   0  0  0  0  0  0  0  0  0  0  0  0
   19.5456    1.2659   13.0707 C   0  0  0  0  0  0  0  0  0  0  0  0
   18.1167    0.9152   13.4424 C   0  0  0  0  0  0  0  0  0  0  0  0
   17.4171    1.9956   14.2404 C   0  0  0  0  0  0  0  0  0  0  0  0
   15.8966    1.8263   14.3581 C   0  0  2  0  0  0  0  0  0  0  0  0
   15.1904    0.1583   13.7379 S   0  0  0  0  0  0  0  0  0  0  0  0
   13.4731    0.9909   13.7919 C   0  0  0  0  0  0  0  0  0  0  0  0
   13.7284    2.4686   13.3745 C   0  0  2  0  0  0  0  0  0  0  0  0
   13.5606    2.5028   11.8319 N   0  0  0  0  0  0  0  0  0  0  0  0
   14.5988    2.8849   11.2242 C   0  0  0  0  0  0  0  0  0  0  0  0
   14.8765    2.8811    9.9726 O   0  0  0  0  0  0  0  0  0  0  0  0
   15.7481    3.0475   12.0846 N   0  0  0  0  0  0  0  0  0  0  0  0
   15.1875    2.8729   13.4957 C   0  0  2  0  0  0  0  0  0  0  0  0
  1  2  1  0  0  0  0
  1  3  2  0  0  0  0
  1  4  1  0  0  0  0
  4  5  1  0  0  0  0
  5  6  1  0  0  0  0
  6  7  1  0  0  0  0
  8  7  1  6  0  0  0
  8  9  1  0  0  0  0
  8 16  1  0  0  0  0
  9 10  1  0  0  0  0
 11 10  1  6  0  0  0
 11 12  1  0  0  0  0
 11 16  1  0  0  0  0
 12 13  1  0  0  0  0
 13 14  2  0  0  0  0
 13 15  1  0  0  0  0
 16 15  1  6  0  0  0
M  CHG  1   2  -1
M  END
>  <CHROM.1>
70.38332447,-94.74707600,-171.99748812,166.67649742,9.65009152,16.85450978
1.17266992,12.88584289,-0.29258446,0.30097740,-0.92604242

>  <Name>
1f27 biotin aptamer (Xray 1.3A)

>  <RI>
0

>  <Rbt.Current_Directory>
/home/itssahil/PROJECTS/Mol_Feturizer/New_Systems/rnas/1f27

>  <Rbt.Executable>
rbdock ($Id: //depot/dev/client3/rdock/2013.1/src/exe/rbdock.cxx#4 $)

>  <Rbt.Library>
libRbt.so (2013.1, Build901 2013/11/27)

>  <Rbt.Parameter_File>
/export/apps/rDock/src/rDock_2013.1_src/data/scripts/dock_solv.prm

>  <Rbt.Receptor>
prm/pocket_docking_8.prm

>  <SCORE>
-28.8397

>  <SCORE.INTER>
-31.445

>  <SCORE.INTER.CONST>
1

>  <SCORE.INTER.POLAR>
-2.48387

>  <SCORE.INTER.ROT>
5

>  <SCORE.INTER.SOLV>
11.3813

>  <SCORE.INTER.VDW>
-23.4108

>  <SCORE.INTER.norm>
-1.96531

>  <SCORE.INTRA>
2.60523

>  <SCORE.INTRA.DIHEDRAL>
4.33729

>  <SCORE.INTRA.DIHEDRAL.0>
6.87082

>  <SCORE.INTRA.POLAR>
0

>  <SCORE.INTRA.POLAR.0>
0

>  <SCORE.INTRA.REPUL>
0

>  <SCORE.INTRA.REPUL.0>
0

>  <SCORE.INTRA.SOLV>
0.00998234

>  <SCORE.INTRA.SOLV.lig_0>
-42.5944

>  <SCORE.INTRA.VDW>
0.431598

>  <SCORE.INTRA.VDW.0>
-1.067

>  <SCORE.INTRA.norm>
0.162827

>  <SCORE.RESTR>
0

>  <SCORE.RESTR.CAVITY>
0

>  <SCORE.RESTR.norm>
0

>  <SCORE.SYSTEM>
0

>  <SCORE.SYSTEM.CONST>
0

>  <SCORE.SYSTEM.DIHEDRAL>
0

>  <SCORE.SYSTEM.SOLV>
0

>  <SCORE.SYSTEM.norm>
0

>  <SCORE.heavy>
16

>  <SCORE.norm>
-1.80248

>  <RMSD>
1.625

$$$$
1f27 biotin aptamer (Xray 1.3A)
 OpenBabel11021811393D
libRbt.so/2013.1/901 2013/11/27
 16 17  0  0  0  0  0  0  0  0999 V2000
   20.8765   -0.1991   12.4946 C   0  0  0  0  0  0  0  0  0  0  0  0
   21.9510   -0.6688   12.1337 O   0  5  0  0  0  0  0  0  0  0  0  0
   19.8907   -0.9284   12.5883 O   0  0  0  0  0  0  0  0  0  0  0  0
   20.7783    1.2683   12.8916 C   0  0  0  0  0  0  0  0  0  0  0  0
   20.3314    1.4944   14.3532 C   0  0  0  0  0  0  0  0  0  0  0  0
   18.8798    1.1041   14.5621 C   0  0  0  0  0  0  0  0  0  0  0  0
   17.8974    2.0756   13.9418 C   0  0  0  0  0  0  0  0  0  0  0  0
   16.4201    1.7421   14.1877 C   0  0  2  0  0  0  0  0  0  0  0  0
   15.8243    0.0466   13.5273 S   0  0  0  0  0  0  0  0  0  0  0  0
   14.0469    0.6909   13.7936 C   0  0  0  0  0  0  0  0  0  0  0  0
   14.1129    2.2083   13.4523 C   0  0  2  0  0  0  0  0  0  0  0  0
   13.7917    2.3107   11.9372 N   0  0  0  0  0  0  0  0  0  0  0  0
   14.7224    2.8326   11.2628 C   0  0  0  0  0  0  0  0  0  0  0  0
   14.8747    2.9276    9.9934 O   0  0  0  0  0  0  0  0  0  0  0  0
   15.9290    3.0661   12.0225 N   0  0  0  0  0  0  0  0  0  0  0  0
   15.5298    2.7553   13.4648 C   0  0  2  0  0  0  0  0  0  0  0  0
  1  2  1  0  0  0  0
  1  3  2  0  0  0  0
  1  4  1  0  0  0  0
  4  5  1  0  0  0  0
  5  6  1  0  0  0  0
  6  7  1  0  0  0  0
  8  7  1  6  0  0  0
  8  9  1  0  0  0  0
  8 16  1  0  0  0  0
  9 10  1  0  0  0  0
 11 10  1  6  0  0  0
 11 12  1  0  0  0  0
 11 16  1  0  0  0  0
 12 13  1  0  0  0  0
 13 14  2  0  0  0  0
 13 15  1  0  0  0  0
 16 15  1  6  0  0  0
M  CHG  1   2  -1
M  END
>  <CHROM.1>
-119.04977800,-69.29941064,-72.70146402,-177.45865779,-60.01599628,17.17122029
1.29655656,12.92219364,-0.23549402,0.23669538,-1.08682897

>  <Name>
1f27 biotin aptamer (Xray 1.3A)

>  <RI>
0

>  <Rbt.Current_Directory>
/home/itssahil/PROJECTS/Mol_Feturizer/New_Systems/rnas/1f27

>  <Rbt.Executable>
rbdock ($Id: //depot/dev/client3/rdock/2013.1/src/exe/rbdock.cxx#4 $)

>  <Rbt.Library>
libRbt.so (2013.1, Build901 2013/11/27)

>  <Rbt.Parameter_File>
/export/apps/rDock/src/rDock_2013.1_src/data/scripts/dock_solv.prm

>  <Rbt.Receptor>
prm/pocket_docking_7.prm

>  <SCORE>
-36.398

>  <SCORE.INTER>
-34.8353

>  <SCORE.INTER.CONST>
1

>  <SCORE.INTER.POLAR>
-2.77482

>  <SCORE.INTER.ROT>
5

>  <SCORE.INTER.SOLV>
14.8337

>  <SCORE.INTER.VDW>
-25.852

>  <SCORE.INTER.norm>
-2.1772

>  <SCORE.INTRA>
-1.56272

>  <SCORE.INTRA.DIHEDRAL>
-4.511

>  <SCORE.INTRA.DIHEDRAL.0>
6.87082

>  <SCORE.INTRA.POLAR>
0

>  <SCORE.INTRA.POLAR.0>
0

>  <SCORE.INTRA.REPUL>
0

>  <SCORE.INTRA.REPUL.0>
0

>  <SCORE.INTRA.SOLV>
0.688524

>  <SCORE.INTRA.SOLV.lig_0>
-42.5944

>  <SCORE.INTRA.VDW>
0.348516

>  <SCORE.INTRA.VDW.0>
-1.067

>  <SCORE.INTRA.norm>
-0.0976701

>  <SCORE.RESTR>
0

>  <SCORE.RESTR.CAVITY>
0

>  <SCORE.RESTR.norm>
0

>  <SCORE.SYSTEM>
0

>  <SCORE.SYSTEM.CONST>
0

>  <SCORE.SYSTEM.DIHEDRAL>
0

>  <SCORE.SYSTEM.SOLV>
0

>  <SCORE.SYSTEM.norm>
0

>  <SCORE.heavy>
16

>  <SCORE.norm>
-2.27487

>  <RMSD>
1.631

$$$$
1f27 biotin aptamer (Xray 1.3A)
 OpenBabel11021811393D
libRbt.so/2013.1/901 2013/11/27
 16 17  0  0  0  0  0  0  0  0999 V2000
   20.8784   -0.6670   12.7243 C   0  0  0  0  0  0  0  0  0  0  0  0
   22.0138   -0.5772   12.2682 O   0  5  0  0  0  0  0  0  0  0  0  0
   20.1612   -1.6115   12.3986 O   0  0  0  0  0  0  0  0  0  0  0  0
   20.3814    0.3500   13.7438 C   0  0  0  0  0  0  0  0  0  0  0  0
   19.2346    1.2472   13.2273 C   0  0  0  0  0  0  0  0  0  0  0  0
   18.6585    2.1124   14.3329 C   0  0  0  0  0  0  0  0  0  0  0  0
   17.5043    2.9823   13.8805 C   0  0  0  0  0  0  0  0  0  0  0  0
   16.1170    2.3478   14.0450 C   0  0  2  0  0  0  0  0  0  0  0  0
   15.8934    0.6127   13.2671 S   0  0  0  0  0  0  0  0  0  0  0  0
   14.0158    0.8738   13.4935 C   0  0  0  0  0  0  0  0  0  0  0  0
   13.7866    2.3924   13.2397 C   0  0  2  0  0  0  0  0  0  0  0  0
   13.4975    2.5239   11.7204 N   0  0  0  0  0  0  0  0  0  0  0  0
   14.3246    3.2611   11.1158 C   0  0  0  0  0  0  0  0  0  0  0  0
   14.4933    3.4638    9.8611 O   0  0  0  0  0  0  0  0  0  0  0  0
   15.4364    3.6812   11.9376 N   0  0  0  0  0  0  0  0  0  0  0  0
   15.0640    3.2077   13.3423 C   0  0  2  0  0  0  0  0  0  0  0  0
  1  2  1  0  0  0  0
  1  3  2  0  0  0  0
  1  4  1  0  0  0  0
  4  5  1  0  0  0  0
  5  6  1  0  0  0  0
  6  7  1  0  0  0  0
  8  7  1  6  0  0  0
  8  9  1  0  0  0  0
  8 16  1  0  0  0  0
  9 10  1  0  0  0  0
 11 10  1  6  0  0  0
 11 12  1  0  0  0  0
 11 16  1  0  0  0  0
 12 13  1  0  0  0  0
 13 14  2  0  0  0  0
 13 15  1  0  0  0  0
 16 15  1  6  0  0  0
M  CHG  1   2  -1
M  END
>  <CHROM.1>
113.59243739,172.56947135,-178.40855796,91.24657541,-52.82478889,16.92727435
1.53708167,12.78562559,-0.24854196,0.39476085,-1.25538254

>  <Name>
1f27 biotin aptamer (Xray 1.3A)

>  <RI>
0

>  <Rbt.Current_Directory>
/home/itssahil/PROJECTS/Mol_Feturizer/New_Systems/rnas/1f27

>  <Rbt.Executable>
rbdock ($Id: //depot/dev/client3/rdock/2013.1/src/exe/rbdock.cxx#4 $)

>  <Rbt.Library>
libRbt.so (2013.1, Build901 2013/11/27)

>  <Rbt.Parameter_File>
/export/apps/rDock/src/rDock_2013.1_src/data/scripts/dock_solv.prm

>  <Rbt.Receptor>
prm/blind_docking_40.prm

>  <SCORE>
-31.1053

>  <SCORE.INTER>
-29.8685

>  <SCORE.INTER.CONST>
1

>  <SCORE.INTER.POLAR>
-2.55453

>  <SCORE.INTER.ROT>
5

>  <SCORE.INTER.SOLV>
13.4764

>  <SCORE.INTER.VDW>
-22.8227

>  <SCORE.INTER.norm>
-1.86678

>  <SCORE.INTRA>
-1.41946

>  <SCORE.INTRA.DIHEDRAL>
-1.77943

>  <SCORE.INTRA.DIHEDRAL.0>
6.87082

>  <SCORE.INTRA.POLAR>
0

>  <SCORE.INTRA.POLAR.0>
0

>  <SCORE.INTRA.REPUL>
0

>  <SCORE.INTRA.REPUL.0>
0

>  <SCORE.INTRA.SOLV>
-0.76438

>  <SCORE.INTRA.SOLV.lig_0>
-42.5944

>  <SCORE.INTRA.VDW>
-0.147555

>  <SCORE.INTRA.VDW.0>
-1.067

>  <SCORE.INTRA.norm>
-0.0887163

>  <SCORE.RESTR>
0.182634

>  <SCORE.RESTR.CAVITY>
0.182634

>  <SCORE.RESTR.norm>
0.0114146

>  <SCORE.SYSTEM>
0

>  <SCORE.SYSTEM.CONST>
0

>  <SCORE.SYSTEM.DIHEDRAL>
0

>  <SCORE.SYSTEM.SOLV>
0

>  <SCORE.SYSTEM.norm>
0

>  <SCORE.heavy>
16

>  <SCORE.norm>
-1.94408

>  <RMSD>
1.632

$$$$
1f27 biotin aptamer (Xray 1.3A)
 OpenBabel11021811393D
libRbt.so/2013.1/901 2013/11/27
 16 17  0  0  0  0  0  0  0  0999 V2000
   20.8612   -0.7901   12.2992 C   0  0  0  0  0  0  0  0  0  0  0  0
   21.7773   -0.0183   12.5648 O   0  5  0  0  0  0  0  0  0  0  0  0
   21.1141   -1.9268   11.9038 O   0  0  0  0  0  0  0  0  0  0  0  0
   19.4153   -0.3662   12.5233 C   0  0  0  0  0  0  0  0  0  0  0  0
   18.8562   -0.7519   13.9110 C   0  0  0  0  0  0  0  0  0  0  0  0
   17.4040   -0.3391   14.0647 C   0  0  0  0  0  0  0  0  0  0  0  0
   17.1887    1.1575   13.9789 C   0  0  0  0  0  0  0  0  0  0  0  0
   15.7515    1.6180   14.2558 C   0  0  2  0  0  0  0  0  0  0  0  0
   14.3691    0.3932   13.7514 S   0  0  0  0  0  0  0  0  0  0  0  0
   13.1532    1.8501   13.9610 C   0  0  0  0  0  0  0  0  0  0  0  0
   13.9417    3.1048   13.4843 C   0  0  2  0  0  0  0  0  0  0  0  0
   13.6438    3.2347   11.9666 N   0  0  0  0  0  0  0  0  0  0  0  0
   14.6788    3.1743   11.2468 C   0  0  0  0  0  0  0  0  0  0  0  0
   14.8001    3.0827    9.9738 O   0  0  0  0  0  0  0  0  0  0  0  0
   15.8774    2.8391   11.9808 N   0  0  0  0  0  0  0  0  0  0  0  0
   15.4432    2.8792   13.4457 C   0  0  2  0  0  0  0  0  0  0  0  0
  1  2  1  0  0  0  0
  1  3  2  0  0  0  0
  1  4  1  0  0  0  0
  4  5  1  0  0  0  0
  5  6  1  0  0  0  0
  6  7  1  0  0  0  0
  8  7  1  6  0  0  0
  8  9  1  0  0  0  0
  8 16  1  0  0  0  0
  9 10  1  0  0  0  0
 11 10  1  6  0  0  0
 11 12  1  0  0  0  0
 11 16  1  0  0  0  0
 12 13  1  0  0  0  0
 13 14  2  0  0  0  0
 13 15  1  0  0  0  0
 16 15  1  6  0  0  0
M  CHG  1   2  -1
M  END
>  <CHROM.1>
-92.09908098,-178.47118594,-62.49211004,-174.75387607,-31.28412882,16.63750773
1.11501477,12.86333466,-0.28539726,0.39065234,-0.91231627

>  <Name>
1f27 biotin aptamer (Xray 1.3A)

>  <RI>
0

>  <Rbt.Current_Directory>
/home/itssahil/PROJECTS/Mol_Feturizer/New_Systems/rnas/1f27

>  <Rbt.Executable>
rbdock ($Id: //depot/dev/client3/rdock/2013.1/src/exe/rbdock.cxx#4 $)

>  <Rbt.Library>
libRbt.so (2013.1, Build901 2013/11/27)

>  <Rbt.Parameter_File>
/export/apps/rDock/src/rDock_2013.1_src/data/scripts/dock_solv.prm

>  <Rbt.Receptor>
prm/pocket_docking_4.prm

>  <SCORE>
-28.1822

>  <SCORE.INTER>
-27.3633

>  <SCORE.INTER.CONST>
1

>  <SCORE.INTER.POLAR>
-2.05624

>  <SCORE.INTER.ROT>
5

>  <SCORE.INTER.SOLV>
14.2812

>  <SCORE.INTER.VDW>
-23.0818

>  <SCORE.INTER.norm>
-1.7102

>  <SCORE.INTRA>
-0.818914

>  <SCORE.INTRA.DIHEDRAL>
-2.71095

>  <SCORE.INTRA.DIHEDRAL.0>
6.87082

>  <SCORE.INTRA.POLAR>
0

>  <SCORE.INTRA.POLAR.0>
0

>  <SCORE.INTRA.REPUL>
0

>  <SCORE.INTRA.REPUL.0>
0

>  <SCORE.INTRA.SOLV>
-0.750707

>  <SCORE.INTRA.SOLV.lig_0>
-42.5944

>  <SCORE.INTRA.VDW>
0.911913

>  <SCORE.INTRA.VDW.0>
-1.067

>  <SCORE.INTRA.norm>
-0.0511822

>  <SCORE.RESTR>
0

>  <SCORE.RESTR.CAVITY>
0

>  <SCORE.RESTR.norm>
0

>  <SCORE.SYSTEM>
0

>  <SCORE.SYSTEM.CONST>
0

>  <SCORE.SYSTEM.DIHEDRAL>
0

>  <SCORE.SYSTEM.SOLV>
0

>  <SCORE.SYSTEM.norm>
0

>  <SCORE.heavy>
16

>  <SCORE.norm>
-1.76139

>  <RMSD>
1.633

$$$$
1f27 biotin aptamer (Xray 1.3A)
 OpenBabel11021811393D
libRbt.so/2013.1/901 2013/11/27
 16 17  0  0  0  0  0  0  0  0999 V2000
   20.8760   -0.8705   14.1646 C   0  0  0  0  0  0  0  0  0  0  0  0
   20.7828   -1.2374   15.3316 O   0  5  0  0  0  0  0  0  0  0  0  0
   20.7534   -1.6885   13.2545 O   0  0  0  0  0  0  0  0  0  0  0  0
   21.0748    0.6046   13.8405 C   0  0  0  0  0  0  0  0  0  0  0  0
   19.9947    1.5306   14.4429 C   0  0  0  0  0  0  0  0  0  0  0  0
   18.5964    1.0877   14.0538 C   0  0  0  0  0  0  0  0  0  0  0  0
   17.5315    2.1252   14.3423 C   0  0  0  0  0  0  0  0  0  0  0  0
   16.1113    1.5647   14.4948 C   0  0  2  0  0  0  0  0  0  0  0  0
   15.5793    0.2683   13.1901 S   0  0  0  0  0  0  0  0  0  0  0  0
   13.7931    0.5434   13.8056 C   0  0  0  0  0  0  0  0  0  0  0  0
   13.7180    2.0570   14.1613 C   0  0  2  0  0  0  0  0  0  0  0  0
   13.2501    2.7691   12.8639 N   0  0  0  0  0  0  0  0  0  0  0  0
   14.0738    3.6257   12.4387 C   0  0  0  0  0  0  0  0  0  0  0  0
   14.0995    4.2749   11.3334 O   0  0  0  0  0  0  0  0  0  0  0  0
   15.3263    3.6339   13.1589 N   0  0  0  0  0  0  0  0  0  0  0  0
   15.0870    2.6909   14.3376 C   0  0  2  0  0  0  0  0  0  0  0  0
  1  2  1  0  0  0  0
  1  3  2  0  0  0  0
  1  4  1  0  0  0  0
  4  5  1  0  0  0  0
  5  6  1  0  0  0  0
  6  7  1  0  0  0  0
  8  7  1  6  0  0  0
  8  9  1  0  0  0  0
  8 16  1  0  0  0  0
  9 10  1  0  0  0  0
 11 10  1  6  0  0  0
 11 12  1  0  0  0  0
 11 16  1  0  0  0  0
 12 13  1  0  0  0  0
 13 14  2  0  0  0  0
 13 15  1  0  0  0  0
 16 15  1  6  0  0  0
M  CHG  1   2  -1
M  END
>  <CHROM.1>
-55.41305115,-54.07338713,-166.64452276,-157.07182005,-44.58560799,16.84917426
1.33399722,13.64352755,0.49094234,0.07815574,2.91086827

>  <Name>
1f27 biotin aptamer (Xray 1.3A)

>  <RI>
0

>  <Rbt.Current_Directory>
/home/itssahil/PROJECTS/Mol_Feturizer/New_Systems/rnas/1f27

>  <Rbt.Executable>
rbdock ($Id: //depot/dev/client3/rdock/2013.1/src/exe/rbdock.cxx#4 $)

>  <Rbt.Library>
libRbt.so (2013.1, Build901 2013/11/27)

>  <Rbt.Parameter_File>
/export/apps/rDock/src/rDock_2013.1_src/data/scripts/dock_solv.prm

>  <Rbt.Receptor>
prm/pocket_docking_2.prm

>  <SCORE>
-26.8252

>  <SCORE.INTER>
-26.679

>  <SCORE.INTER.CONST>
1

>  <SCORE.INTER.POLAR>
-1.38664

>  <SCORE.INTER.ROT>
5

>  <SCORE.INTER.SOLV>
8.60996

>  <SCORE.INTER.VDW>
-22.9672

>  <SCORE.INTER.norm>
-1.66744

>  <SCORE.INTRA>
-0.315998

>  <SCORE.INTRA.DIHEDRAL>
-1.77118

>  <SCORE.INTRA.DIHEDRAL.0>
6.87082

>  <SCORE.INTRA.POLAR>
0

>  <SCORE.INTRA.POLAR.0>
0

>  <SCORE.INTRA.REPUL>
0

>  <SCORE.INTRA.REPUL.0>
0

>  <SCORE.INTRA.SOLV>
0.251871

>  <SCORE.INTRA.SOLV.lig_0>
-42.5944

>  <SCORE.INTRA.VDW>
0.443656

>  <SCORE.INTRA.VDW.0>
-1.067

>  <SCORE.INTRA.norm>
-0.0197499

>  <SCORE.RESTR>
0.169781

>  <SCORE.RESTR.CAVITY>
0.169781

>  <SCORE.RESTR.norm>
0.0106113

>  <SCORE.SYSTEM>
0

>  <SCORE.SYSTEM.CONST>
0

>  <SCORE.SYSTEM.DIHEDRAL>
0

>  <SCORE.SYSTEM.SOLV>
0

>  <SCORE.SYSTEM.norm>
0

>  <SCORE.heavy>
16

>  <SCORE.norm>
-1.67658

>  <RMSD>
1.634

$$$$
1f27 biotin aptamer (Xray 1.3A)
 OpenBabel11021811393D
libRbt.so/2013.1/901 2013/11/27
 16 17  0  0  0  0  0  0  0  0999 V2000
   20.3666   -0.7827   13.4724 C   0  0  0  0  0  0  0  0  0  0  0  0
   19.4708   -0.7550   12.6345 O   0  5  0  0  0  0  0  0  0  0  0  0
   21.2685   -1.6133   13.3766 O   0  0  0  0  0  0  0  0  0  0  0  0
   20.4001    0.2518   14.5902 C   0  0  0  0  0  0  0  0  0  0  0  0
   19.0580    0.9860   14.8061 C   0  0  0  0  0  0  0  0  0  0  0  0
   18.7144    1.8829   13.6312 C   0  0  0  0  0  0  0  0  0  0  0  0
   17.6127    2.8776   13.9320 C   0  0  0  0  0  0  0  0  0  0  0  0
   16.2199    2.2602   14.1137 C   0  0  2  0  0  0  0  0  0  0  0  0
   15.9676    0.5249   13.3450 S   0  0  0  0  0  0  0  0  0  0  0  0
   14.0957    0.8091   13.5902 C   0  0  0  0  0  0  0  0  0  0  0  0
   13.8817    2.3293   13.3329 C   0  0  2  0  0  0  0  0  0  0  0  0
   13.5781    2.4584   11.8163 N   0  0  0  0  0  0  0  0  0  0  0  0
   14.4074    3.1835   11.2002 C   0  0  0  0  0  0  0  0  0  0  0  0
   14.5650    3.3795    9.9430 O   0  0  0  0  0  0  0  0  0  0  0  0
   15.5327    3.5935   12.0084 N   0  0  0  0  0  0  0  0  0  0  0  0
   15.1697    3.1298   13.4188 C   0  0  2  0  0  0  0  0  0  0  0  0
  1  2  1  0  0  0  0
  1  3  2  0  0  0  0
  1  4  1  0  0  0  0
  4  5  1  0  0  0  0
  5  6  1  0  0  0  0
  6  7  1  0  0  0  0
  8  7  1  6  0  0  0
  8  9  1  0  0  0  0
  8 16  1  0  0  0  0
  9 10  1  0  0  0  0
 11 10  1  6  0  0  0
 11 12  1  0  0  0  0
 11 16  1  0  0  0  0
 12 13  1  0  0  0  0
 13 14  2  0  0  0  0
 13 15  1  0  0  0  0
 16 15  1  6  0  0  0
M  CHG  1   2  -1
M  END
>  <CHROM.1>
17.62138623,-67.73896641,-165.35465639,-69.50551442,-20.97672003,16.85828670
1.43319646,13.06175123,-0.42423454,0.36887203,-1.17525174

>  <Name>
1f27 biotin aptamer (Xray 1.3A)

>  <RI>
0

>  <Rbt.Current_Directory>
/home/itssahil/PROJECTS/Mol_Feturizer/New_Systems/rnas/1f27

>  <Rbt.Executable>
rbdock ($Id: //depot/dev/client3/rdock/2013.1/src/exe/rbdock.cxx#4 $)

>  <Rbt.Library>
libRbt.so (2013.1, Build901 2013/11/27)

>  <Rbt.Parameter_File>
/export/apps/rDock/src/rDock_2013.1_src/data/scripts/dock_solv.prm

>  <Rbt.Receptor>
prm/pocket_docking_2.prm

>  <SCORE>
-25.0018

>  <SCORE.INTER>
-26.6762

>  <SCORE.INTER.CONST>
1

>  <SCORE.INTER.POLAR>
-1.70074

>  <SCORE.INTER.ROT>
5

>  <SCORE.INTER.SOLV>
9.6323

>  <SCORE.INTER.VDW>
-22.2591

>  <SCORE.INTER.norm>
-1.66726

>  <SCORE.INTRA>
1.67321

>  <SCORE.INTRA.DIHEDRAL>
0.133724

>  <SCORE.INTRA.DIHEDRAL.0>
6.87082

>  <SCORE.INTRA.POLAR>
0

>  <SCORE.INTRA.POLAR.0>
0

>  <SCORE.INTRA.REPUL>
0

>  <SCORE.INTRA.REPUL.0>
0

>  <SCORE.INTRA.SOLV>
0.899736

>  <SCORE.INTRA.SOLV.lig_0>
-42.5944

>  <SCORE.INTRA.VDW>
1.15648

>  <SCORE.INTRA.VDW.0>
-1.067

>  <SCORE.INTRA.norm>
0.104576

>  <SCORE.RESTR>
0.00115384

>  <SCORE.RESTR.CAVITY>
0.00115384

>  <SCORE.RESTR.norm>
7.2115e-05

>  <SCORE.SYSTEM>
0

>  <SCORE.SYSTEM.CONST>
0

>  <SCORE.SYSTEM.DIHEDRAL>
0

>  <SCORE.SYSTEM.SOLV>
0

>  <SCORE.SYSTEM.norm>
0

>  <SCORE.heavy>
16

>  <SCORE.norm>
-1.56261

>  <RMSD>
1.634

$$$$
1f27 biotin aptamer (Xray 1.3A)
 OpenBabel11021811393D
libRbt.so/2013.1/901 2013/11/27
 16 17  0  0  0  0  0  0  0  0999 V2000
   19.3653   -2.7624   13.9777 C   0  0  0  0  0  0  0  0  0  0  0  0
   20.3445   -3.2655   13.4361 O   0  5  0  0  0  0  0  0  0  0  0  0
   18.3504   -3.4346   14.1530 O   0  0  0  0  0  0  0  0  0  0  0  0
   19.4284   -1.3305   14.4938 C   0  0  0  0  0  0  0  0  0  0  0  0
   18.3116   -0.4155   13.9437 C   0  0  0  0  0  0  0  0  0  0  0  0
   18.5129    1.0289   14.3636 C   0  0  0  0  0  0  0  0  0  0  0  0
   17.6237    2.0039   13.6205 C   0  0  0  0  0  0  0  0  0  0  0  0
   16.1482    1.9784   14.0407 C   0  0  2  0  0  0  0  0  0  0  0  0
   15.2553    0.2947   13.8571 S   0  0  0  0  0  0  0  0  0  0  0  0
   13.6233    1.2604   14.0784 C   0  0  0  0  0  0  0  0  0  0  0  0
   13.8646    2.6267   13.3727 C   0  0  2  0  0  0  0  0  0  0  0  0
   13.4039    2.4264   11.9041 N   0  0  0  0  0  0  0  0  0  0  0  0
   14.3226    2.6215   11.0608 C   0  0  0  0  0  0  0  0  0  0  0  0
   14.3528    2.3946    9.7993 O   0  0  0  0  0  0  0  0  0  0  0  0
   15.6229    2.8271   11.6561 N   0  0  0  0  0  0  0  0  0  0  0  0
   15.3375    2.9267   13.1544 C   0  0  2  0  0  0  0  0  0  0  0  0
  1  2  1  0  0  0  0
  1  3  2  0  0  0  0
  1  4  1  0  0  0  0
  4  5  1  0  0  0  0
  5  6  1  0  0  0  0
  6  7  1  0  0  0  0
  8  7  1  6  0  0  0
  8  9  1  0  0  0  0
  8 16  1  0  0  0  0
  9 10  1  0  0  0  0
 11 10  1  1  0  0  0
 11 12  1  0  0  0  0
 11 16  1  0  0  0  0
 12 13  1  0  0  0  0
 13 14  2  0  0  0  0
 13 15  1  0  0  0  0
 16 15  1  6  0  0  0
M  CHG  1   2  -1
M  END
>  <CHROM.1>
125.48255164,-173.56101583,167.85035415,73.59688429,-58.34336513,16.42371294
0.62192625,13.20666244,-0.58977186,0.58066865,-1.07825806

>  <Name>
1f27 biotin aptamer (Xray 1.3A)

>  <RI>
0

>  <Rbt.Current_Directory>
/home/itssahil/PROJECTS/Mol_Feturizer/New_Systems/rnas/1f27

>  <Rbt.Executable>
rbdock ($Id: //depot/dev/client3/rdock/2013.1/src/exe/rbdock.cxx#4 $)

>  <Rbt.Library>
libRbt.so (2013.1, Build901 2013/11/27)

>  <Rbt.Parameter_File>
/export/apps/rDock/src/rDock_2013.1_src/data/scripts/dock_solv.prm

>  <Rbt.Receptor>
prm/pocket_docking_4.prm

>  <SCORE>
-27.9148

>  <SCORE.INTER>
-25.9448

>  <SCORE.INTER.CONST>
1

>  <SCORE.INTER.POLAR>
-1.63477

>  <SCORE.INTER.ROT>
5

>  <SCORE.INTER.SOLV>
9.65287

>  <SCORE.INTER.VDW>
-21.9983

>  <SCORE.INTER.norm>
-1.62155

>  <SCORE.INTRA>
-1.97

>  <SCORE.INTRA.DIHEDRAL>
-4.02128

>  <SCORE.INTRA.DIHEDRAL.0>
6.87082

>  <SCORE.INTRA.POLAR>
0

>  <SCORE.INTRA.POLAR.0>
0

>  <SCORE.INTRA.REPUL>
0

>  <SCORE.INTRA.REPUL.0>
0

>  <SCORE.INTRA.SOLV>
-0.756631

>  <SCORE.INTRA.SOLV.lig_0>
-42.5944

>  <SCORE.INTRA.VDW>
0.418961

>  <SCORE.INTRA.VDW.0>
-1.067

>  <SCORE.INTRA.norm>
-0.123125

>  <SCORE.RESTR>
0

>  <SCORE.RESTR.CAVITY>
0

>  <SCORE.RESTR.norm>
0

>  <SCORE.SYSTEM>
0

>  <SCORE.SYSTEM.CONST>
0

>  <SCORE.SYSTEM.DIHEDRAL>
0

>  <SCORE.SYSTEM.SOLV>
0

>  <SCORE.SYSTEM.norm>
0

>  <SCORE.heavy>
16

>  <SCORE.norm>
-1.74468

>  <RMSD>
1.635

$$$$
1f27 biotin aptamer (Xray 1.3A)
 OpenBabel11021811393D
libRbt.so/2013.1/901 2013/11/27
 16 17  0  0  0  0  0  0  0  0999 V2000
   19.5886   -1.8897   13.7154 C   0  0  0  0  0  0  0  0  0  0  0  0
   19.7275   -2.8050   12.9102 O   0  5  0  0  0  0  0  0  0  0  0  0
   20.3051   -1.8391   14.7136 O   0  0  0  0  0  0  0  0  0  0  0  0
   18.5791   -0.7811   13.4460 C   0  0  0  0  0  0  0  0  0  0  0  0
   19.2100    0.5287   12.9233 C   0  0  0  0  0  0  0  0  0  0  0  0
   18.1713    1.6216   12.7516 C   0  0  0  0  0  0  0  0  0  0  0  0
   17.5739    2.0985   14.0591 C   0  0  0  0  0  0  0  0  0  0  0  0
   16.0732    1.8222   14.2198 C   0  0  2  0  0  0  0  0  0  0  0  0
   15.4620    0.1248   13.5787 S   0  0  0  0  0  0  0  0  0  0  0  0
   13.6948    0.8357   13.7080 C   0  0  0  0  0  0  0  0  0  0  0  0
   13.8351    2.3370   13.3216 C   0  0  2  0  0  0  0  0  0  0  0  0
   13.6145    2.3964   11.7863 N   0  0  0  0  0  0  0  0  0  0  0  0
   14.6037    2.8636   11.1567 C   0  0  0  0  0  0  0  0  0  0  0  0
   14.8396    2.9087    9.8973 O   0  0  0  0  0  0  0  0  0  0  0  0
   15.7670    3.0843   11.9847 N   0  0  0  0  0  0  0  0  0  0  0  0
   15.2664    2.8378   13.4076 C   0  0  2  0  0  0  0  0  0  0  0  0
  1  2  1  0  0  0  0
  1  3  2  0  0  0  0
  1  4  1  0  0  0  0
  4  5  1  0  0  0  0
  5  6  1  0  0  0  0
  6  7  1  0  0  0  0
  8  7  1  6  0  0  0
  8  9  1  0  0  0  0
  8 16  1  0  0  0  0
  9 10  1  0  0  0  0
 11 10  1  6  0  0  0
 11 12  1  0  0  0  0
 11 16  1  0  0  0  0
 12 13  1  0  0  0  0
 13 14  2  0  0  0  0
 13 15  1  0  0  0  0
 16 15  1  6  0  0  0
M  CHG  1   2  -1
M  END
>  <CHROM.1>
-101.70908604,-176.59800842,66.95071761,-115.66545606,39.99438827,16.59330099
0.91088015,12.99549663,0.65015988,-0.28463992,2.40400699

>  <Name>
1f27 biotin aptamer (Xray 1.3A)

>  <RI>
0

>  <Rbt.Current_Directory>
/home/itssahil/PROJECTS/Mol_Feturizer/New_Systems/rnas/1f27

>  <Rbt.Executable>
rbdock ($Id: //depot/dev/client3/rdock/2013.1/src/exe/rbdock.cxx#4 $)

>  <Rbt.Library>
libRbt.so (2013.1, Build901 2013/11/27)

>  <Rbt.Parameter_File>
/export/apps/rDock/src/rDock_2013.1_src/data/scripts/dock_solv.prm

>  <Rbt.Receptor>
prm/pocket_docking_2.prm

>  <SCORE>
-27.8518

>  <SCORE.INTER>
-29.6726

>  <SCORE.INTER.CONST>
1

>  <SCORE.INTER.POLAR>
-1.83666

>  <SCORE.INTER.ROT>
5

>  <SCORE.INTER.SOLV>
8.8523

>  <SCORE.INTER.VDW>
-23.5436

>  <SCORE.INTER.norm>
-1.85454

>  <SCORE.INTRA>
1.82079

>  <SCORE.INTRA.DIHEDRAL>
2.13936

>  <SCORE.INTRA.DIHEDRAL.0>
6.87082

>  <SCORE.INTRA.POLAR>
0

>  <SCORE.INTRA.POLAR.0>
0

>  <SCORE.INTRA.REPUL>
0

>  <SCORE.INTRA.REPUL.0>
0

>  <SCORE.INTRA.SOLV>
-0.237992

>  <SCORE.INTRA.SOLV.lig_0>
-42.5944

>  <SCORE.INTRA.VDW>
0.8701

>  <SCORE.INTRA.VDW.0>
-1.067

>  <SCORE.INTRA.norm>
0.113799

>  <SCORE.RESTR>
0

>  <SCORE.RESTR.CAVITY>
0

>  <SCORE.RESTR.norm>
0

>  <SCORE.SYSTEM>
0

>  <SCORE.SYSTEM.CONST>
0

>  <SCORE.SYSTEM.DIHEDRAL>
0

>  <SCORE.SYSTEM.SOLV>
0

>  <SCORE.SYSTEM.norm>
0

>  <SCORE.heavy>
16

>  <SCORE.norm>
-1.74074

>  <RMSD>
1.639

$$$$
1f27 biotin aptamer (Xray 1.3A)
 OpenBabel11021811393D
libRbt.so/2013.1/901 2013/11/27
 16 17  0  0  0  0  0  0  0  0999 V2000
   20.5068   -1.1684   12.9752 C   0  0  0  0  0  0  0  0  0  0  0  0
   19.9792   -2.2685   13.1052 O   0  5  0  0  0  0  0  0  0  0  0  0
   21.6171   -0.9611   13.4618 O   0  0  0  0  0  0  0  0  0  0  0  0
   19.8203   -0.0833   12.1556 C   0  0  0  0  0  0  0  0  0  0  0  0
   19.3618    1.1355   12.9870 C   0  0  0  0  0  0  0  0  0  0  0  0
   18.4243    0.7282   14.1086 C   0  0  0  0  0  0  0  0  0  0  0  0
   17.0635    0.2732   13.6238 C   0  0  0  0  0  0  0  0  0  0  0  0
   15.8867    1.1260   14.1157 C   0  0  2  0  0  0  0  0  0  0  0  0
   14.1410    0.4136   13.7829 S   0  0  0  0  0  0  0  0  0  0  0  0
   13.4717    2.1517   14.2025 C   0  0  0  0  0  0  0  0  0  0  0  0
   14.5409    3.1394   13.6506 C   0  0  2  0  0  0  0  0  0  0  0  0
   14.1053    3.4572   12.1951 N   0  0  0  0  0  0  0  0  0  0  0  0
   14.9698    3.1367   11.3331 C   0  0  0  0  0  0  0  0  0  0  0  0
   14.8924    3.1006   10.0539 O   0  0  0  0  0  0  0  0  0  0  0  0
   16.0902    2.4055   11.8788 N   0  0  0  0  0  0  0  0  0  0  0  0
   15.8814    2.4740   13.3914 C   0  0  2  0  0  0  0  0  0  0  0  0
  1  2  1  0  0  0  0
  1  3  2  0  0  0  0
  1  4  1  0  0  0  0
  4  5  1  0  0  0  0
  5  6  1  0  0  0  0
  6  7  1  0  0  0  0
  8  7  1  6  0  0  0
  8  9  1  0  0  0  0
  8 16  1  0  0  0  0
  9 10  1  0  0  0  0
 11 10  1  6  0  0  0
 11 12  1  0  0  0  0
 11 16  1  0  0  0  0
 12 13  1  0  0  0  0
 13 14  2  0  0  0  0
 13 15  1  0  0  0  0
 16 15  1  6  0  0  0
M  CHG  1   2  -1
M  END
>  <CHROM.1>
113.79222822,-57.16157737,-70.10129522,-118.26473935,-169.69785662,16.75154688
1.10811573,12.97626140,-0.39380448,0.34243416,-0.82252417

>  <Name>
1f27 biotin aptamer (Xray 1.3A)

>  <RI>
0

>  <Rbt.Current_Directory>
/home/itssahil/PROJECTS/Mol_Feturizer/New_Systems/rnas/1f27

>  <Rbt.Executable>
rbdock ($Id: //depot/dev/client3/rdock/2013.1/src/exe/rbdock.cxx#4 $)

>  <Rbt.Library>
libRbt.so (2013.1, Build901 2013/11/27)

>  <Rbt.Parameter_File>
/export/apps/rDock/src/rDock_2013.1_src/data/scripts/dock_solv.prm

>  <Rbt.Receptor>
prm/pocket_docking_2.prm

>  <SCORE>
-23.9201

>  <SCORE.INTER>
-25.396

>  <SCORE.INTER.CONST>
1

>  <SCORE.INTER.POLAR>
-1.23869

>  <SCORE.INTER.ROT>
5

>  <SCORE.INTER.SOLV>
10.4831

>  <SCORE.INTER.VDW>
-23.2294

>  <SCORE.INTER.norm>
-1.58725

>  <SCORE.INTRA>
1.4699

>  <SCORE.INTRA.DIHEDRAL>
1.51825

>  <SCORE.INTRA.DIHEDRAL.0>
6.87082

>  <SCORE.INTRA.POLAR>
0

>  <SCORE.INTRA.POLAR.0>
0

>  <SCORE.INTRA.REPUL>
0

>  <SCORE.INTRA.REPUL.0>
0

>  <SCORE.INTRA.SOLV>
0.895468

>  <SCORE.INTRA.SOLV.lig_0>
-42.5944

>  <SCORE.INTRA.VDW>
0.26304

>  <SCORE.INTRA.VDW.0>
-1.067

>  <SCORE.INTRA.norm>
0.0918687

>  <SCORE.RESTR>
0.00602535

>  <SCORE.RESTR.CAVITY>
0.00602535

>  <SCORE.RESTR.norm>
0.000376584

>  <SCORE.SYSTEM>
0

>  <SCORE.SYSTEM.CONST>
0

>  <SCORE.SYSTEM.DIHEDRAL>
0

>  <SCORE.SYSTEM.SOLV>
0

>  <SCORE.SYSTEM.norm>
0

>  <SCORE.heavy>
16

>  <SCORE.norm>
-1.49501

>  <RMSD>
1.641

$$$$
1f27 biotin aptamer (Xray 1.3A)
 OpenBabel11021811393D
libRbt.so/2013.1/901 2013/11/27
 16 17  0  0  0  0  0  0  0  0999 V2000
   20.9208   -0.3516   14.2070 C   0  0  0  0  0  0  0  0  0  0  0  0
   21.0191   -1.0077   15.2390 O   0  5  0  0  0  0  0  0  0  0  0  0
   20.5754   -0.9019   13.1628 O   0  0  0  0  0  0  0  0  0  0  0  0
   21.1590    1.1528   14.2318 C   0  0  0  0  0  0  0  0  0  0  0  0
   19.8629    1.9936   14.2180 C   0  0  0  0  0  0  0  0  0  0  0  0
   19.1548    1.9100   12.8784 C   0  0  0  0  0  0  0  0  0  0  0  0
   17.9056    2.7627   12.8007 C   0  0  0  0  0  0  0  0  0  0  0  0
   16.7189    2.2423   13.6224 C   0  0  2  0  0  0  0  0  0  0  0  0
   16.0376    0.5269   13.1137 S   0  0  0  0  0  0  0  0  0  0  0  0
   14.5098    0.9389   14.1819 C   0  0  0  0  0  0  0  0  0  0  0  0
   14.2928    2.4698   14.0014 C   0  0  2  0  0  0  0  0  0  0  0  0
   13.3329    2.6165   12.7905 N   0  0  0  0  0  0  0  0  0  0  0  0
   13.8269    3.2820   11.8385 C   0  0  0  0  0  0  0  0  0  0  0  0
   13.3991    3.4643   10.6437 O   0  0  0  0  0  0  0  0  0  0  0  0
   15.2203    3.6155   12.0253 N   0  0  0  0  0  0  0  0  0  0  0  0
   15.5208    3.1804   13.4593 C   0  0  2  0  0  0  0  0  0  0  0  0
  1  2  1  0  0  0  0
  1  3  2  0  0  0  0
  1  4  1  0  0  0  0
  4  5  1  0  0  0  0
  5  6  1  0  0  0  0
  6  7  1  0  0  0  0
  8  7  1  6  0  0  0
  8  9  1  0  0  0  0
  8 16  1  0  0  0  0
  9 10  1  0  0  0  0
 11 10  1  6  0  0  0
 11 12  1  0  0  0  0
 11 16  1  0  0  0  0
 12 13  1  0  0  0  0
 13 14  2  0  0  0  0
 13 15  1  0  0  0  0
 16 15  1  6  0  0  0
M  CHG  1   2  -1
M  END
>  <CHROM.1>
-101.82201291,-69.90519831,-177.75764682,-71.75143597,-62.22367618,17.03359371
1.62819212,13.24648610,0.46301708,0.04079190,2.64419573

>  <Name>
1f27 biotin aptamer (Xray 1.3A)

>  <RI>
0

>  <Rbt.Current_Directory>
/home/itssahil/PROJECTS/Mol_Feturizer/New_Systems/rnas/1f27

>  <Rbt.Executable>
rbdock ($Id: //depot/dev/client3/rdock/2013.1/src/exe/rbdock.cxx#4 $)

>  <Rbt.Library>
libRbt.so (2013.1, Build901 2013/11/27)

>  <Rbt.Parameter_File>
/export/apps/rDock/src/rDock_2013.1_src/data/scripts/dock_solv.prm

>  <Rbt.Receptor>
prm/pocket_docking_6.prm

>  <SCORE>
-27.3212

>  <SCORE.INTER>
-25.0489

>  <SCORE.INTER.CONST>
1

>  <SCORE.INTER.POLAR>
-0.848528

>  <SCORE.INTER.ROT>
5

>  <SCORE.INTER.SOLV>
7.67001

>  <SCORE.INTER.VDW>
-23.3608

>  <SCORE.INTER.norm>
-1.56555

>  <SCORE.INTRA>
-2.27228

>  <SCORE.INTRA.DIHEDRAL>
-4.63409

>  <SCORE.INTRA.DIHEDRAL.0>
6.87082

>  <SCORE.INTRA.POLAR>
0

>  <SCORE.INTRA.POLAR.0>
0

>  <SCORE.INTRA.REPUL>
0

>  <SCORE.INTRA.REPUL.0>
0

>  <SCORE.INTRA.SOLV>
0.174506

>  <SCORE.INTRA.SOLV.lig_0>
-42.5944

>  <SCORE.INTRA.VDW>
-0.0424913

>  <SCORE.INTRA.VDW.0>
-1.067

>  <SCORE.INTRA.norm>
-0.142018

>  <SCORE.RESTR>
0

>  <SCORE.RESTR.CAVITY>
0

>  <SCORE.RESTR.norm>
0

>  <SCORE.SYSTEM>
0

>  <SCORE.SYSTEM.CONST>
0

>  <SCORE.SYSTEM.DIHEDRAL>
0

>  <SCORE.SYSTEM.SOLV>
0

>  <SCORE.SYSTEM.norm>
0

>  <SCORE.heavy>
16

>  <SCORE.norm>
-1.70757

>  <RMSD>
1.641

$$$$
1f27 biotin aptamer (Xray 1.3A)
 OpenBabel11021811393D
libRbt.so/2013.1/901 2013/11/27
 16 17  0  0  0  0  0  0  0  0999 V2000
   20.7173   -2.6989   13.1742 C   0  0  0  0  0  0  0  0  0  0  0  0
   20.7048   -3.7756   13.7623 O   0  5  0  0  0  0  0  0  0  0  0  0
   21.3192   -2.5916   12.1071 O   0  0  0  0  0  0  0  0  0  0  0  0
   19.9331   -1.5162   13.7281 C   0  0  0  0  0  0  0  0  0  0  0  0
   18.4217   -1.5614   13.4107 C   0  0  0  0  0  0  0  0  0  0  0  0
   17.6963   -0.3488   13.9639 C   0  0  0  0  0  0  0  0  0  0  0  0
   16.2105   -0.3473   13.6706 C   0  0  0  0  0  0  0  0  0  0  0  0
   15.4470    0.8646   14.2207 C   0  0  2  0  0  0  0  0  0  0  0  0
   13.5695    0.9096   13.8482 S   0  0  0  0  0  0  0  0  0  0  0  0
   13.6190    2.7420   14.3819 C   0  0  0  0  0  0  0  0  0  0  0  0
   14.9999    3.2673   13.8917 C   0  0  2  0  0  0  0  0  0  0  0  0
   14.7545    3.8179   12.4613 N   0  0  0  0  0  0  0  0  0  0  0  0
   15.4454    3.2394   11.5775 C   0  0  0  0  0  0  0  0  0  0  0  0
   15.3884    3.3145   10.2989 O   0  0  0  0  0  0  0  0  0  0  0  0
   16.1812    2.0980   12.0708 N   0  0  0  0  0  0  0  0  0  0  0  0
   15.9820    2.1499   13.5853 C   0  0  2  0  0  0  0  0  0  0  0  0
  1  2  1  0  0  0  0
  1  3  2  0  0  0  0
  1  4  1  0  0  0  0
  4  5  1  0  0  0  0
  5  6  1  0  0  0  0
  6  7  1  0  0  0  0
  8  7  1  6  0  0  0
  8  9  1  0  0  0  0
  8 16  1  0  0  0  0
  9 10  1  0  0  0  0
 11 10  1  6  0  0  0
 11 12  1  0  0  0  0
 11 16  1  0  0  0  0
 12 13  1  0  0  0  0
 13 14  2  0  0  0  0
 13 15  1  0  0  0  0
 16 15  1  6  0  0  0
M  CHG  1   2  -1
M  END
>  <CHROM.1>
-79.72313277,-178.97727863,179.73100804,179.82801023,179.23935718,16.69277521
0.58811532,13.15396779,-0.54913919,0.51213930,-0.72976819

>  <Name>
1f27 biotin aptamer (Xray 1.3A)

>  <RI>
0

>  <Rbt.Current_Directory>
/home/itssahil/PROJECTS/Mol_Feturizer/New_Systems/rnas/1f27

>  <Rbt.Executable>
rbdock ($Id: //depot/dev/client3/rdock/2013.1/src/exe/rbdock.cxx#4 $)

>  <Rbt.Library>
libRbt.so (2013.1, Build901 2013/11/27)

>  <Rbt.Parameter_File>
/export/apps/rDock/src/rDock_2013.1_src/data/scripts/dock_solv.prm

>  <Rbt.Receptor>
prm/pocket_docking_7.prm

>  <SCORE>
-26.8955

>  <SCORE.INTER>
-24.0419

>  <SCORE.INTER.CONST>
1

>  <SCORE.INTER.POLAR>
-1.29083

>  <SCORE.INTER.ROT>
5

>  <SCORE.INTER.SOLV>
9.83447

>  <SCORE.INTER.VDW>
-21.9366

>  <SCORE.INTER.norm>
-1.50262

>  <SCORE.INTRA>
-2.85361

>  <SCORE.INTRA.DIHEDRAL>
-5.5948

>  <SCORE.INTRA.DIHEDRAL.0>
6.87082

>  <SCORE.INTRA.POLAR>
0

>  <SCORE.INTRA.POLAR.0>
0

>  <SCORE.INTRA.REPUL>
0

>  <SCORE.INTRA.REPUL.0>
0

>  <SCORE.INTRA.SOLV>
-0.670672

>  <SCORE.INTRA.SOLV.lig_0>
-42.5944

>  <SCORE.INTRA.VDW>
0.27913

>  <SCORE.INTRA.VDW.0>
-1.067

>  <SCORE.INTRA.norm>
-0.17835

>  <SCORE.RESTR>
0

>  <SCORE.RESTR.CAVITY>
0

>  <SCORE.RESTR.norm>
0

>  <SCORE.SYSTEM>
0

>  <SCORE.SYSTEM.CONST>
0

>  <SCORE.SYSTEM.DIHEDRAL>
0

>  <SCORE.SYSTEM.SOLV>
0

>  <SCORE.SYSTEM.norm>
0

>  <SCORE.heavy>
16

>  <SCORE.norm>
-1.68097

>  <RMSD>
1.646

$$$$
1f27 biotin aptamer (Xray 1.3A)
 OpenBabel11021811393D
libRbt.so/2013.1/901 2013/11/27
 16 17  0  0  0  0  0  0  0  0999 V2000
   20.1897   -1.2474   12.9435 C   0  0  0  0  0  0  0  0  0  0  0  0
   20.4046   -2.2627   12.2891 O   0  5  0  0  0  0  0  0  0  0  0  0
   19.8883   -1.3383   14.1324 O   0  0  0  0  0  0  0  0  0  0  0  0
   20.3622    0.1247   12.3047 C   0  0  0  0  0  0  0  0  0  0  0  0
   19.7067    1.2747   13.1016 C   0  0  0  0  0  0  0  0  0  0  0  0
   18.1923    1.1800   13.0793 C   0  0  0  0  0  0  0  0  0  0  0  0
   17.5200    1.9882   14.1694 C   0  0  0  0  0  0  0  0  0  0  0  0
   16.0059    1.7710   14.2909 C   0  0  2  0  0  0  0  0  0  0  0  0
   15.3498    0.0856   13.6627 S   0  0  0  0  0  0  0  0  0  0  0  0
   13.6077    0.8639   13.7273 C   0  0  0  0  0  0  0  0  0  0  0  0
   13.8154    2.3514   13.3183 C   0  0  2  0  0  0  0  0  0  0  0  0
   13.6414    2.3897   11.7764 N   0  0  0  0  0  0  0  0  0  0  0  0
   14.6651    2.8077   11.1678 C   0  0  0  0  0  0  0  0  0  0  0  0
   14.9386    2.8202    9.9153 O   0  0  0  0  0  0  0  0  0  0  0  0
   15.8117    3.0008   12.0255 N   0  0  0  0  0  0  0  0  0  0  0  0
   15.2616    2.8002   13.4373 C   0  0  2  0  0  0  0  0  0  0  0  0
  1  2  1  0  0  0  0
  1  3  2  0  0  0  0
  1  4  1  0  0  0  0
  4  5  1  0  0  0  0
  5  6  1  0  0  0  0
  6  7  1  0  0  0  0
  8  7  1  6  0  0  0
  8  9  1  0  0  0  0
  8 16  1  0  0  0  0
  9 10  1  0  0  0  0
 11 10  1  6  0  0  0
 11 12  1  0  0  0  0
 11 16  1  0  0  0  0
 12 13  1  0  0  0  0
 13 14  2  0  0  0  0
 13 15  1  0  0  0  0
 16 15  1  6  0  0  0
M  CHG  1   2  -1
M  END
>  <CHROM.1>
164.46927365,-68.36785757,161.79213940,-172.37596148,25.48802645,16.75897374
1.05285561,12.86911550,-0.40653155,0.32621663,-0.86773780

>  <Name>
1f27 biotin aptamer (Xray 1.3A)

>  <RI>
0

>  <Rbt.Current_Directory>
/home/itssahil/PROJECTS/Mol_Feturizer/New_Systems/rnas/1f27

>  <Rbt.Executable>
rbdock ($Id: //depot/dev/client3/rdock/2013.1/src/exe/rbdock.cxx#4 $)

>  <Rbt.Library>
libRbt.so (2013.1, Build901 2013/11/27)

>  <Rbt.Parameter_File>
/export/apps/rDock/src/rDock_2013.1_src/data/scripts/dock_solv.prm

>  <Rbt.Receptor>
prm/pocket_docking_3.prm

>  <SCORE>
-28.6626

>  <SCORE.INTER>
-29.6258

>  <SCORE.INTER.CONST>
1

>  <SCORE.INTER.POLAR>
-1.8635

>  <SCORE.INTER.ROT>
5

>  <SCORE.INTER.SOLV>
9.73071

>  <SCORE.INTER.VDW>
-23.7158

>  <SCORE.INTER.norm>
-1.85161

>  <SCORE.INTRA>
0.963255

>  <SCORE.INTRA.DIHEDRAL>
-0.221092

>  <SCORE.INTRA.DIHEDRAL.0>
6.87082

>  <SCORE.INTRA.POLAR>
0

>  <SCORE.INTRA.POLAR.0>
0

>  <SCORE.INTRA.REPUL>
0

>  <SCORE.INTRA.REPUL.0>
0

>  <SCORE.INTRA.SOLV>
0.729539

>  <SCORE.INTRA.SOLV.lig_0>
-42.5944

>  <SCORE.INTRA.VDW>
0.709032

>  <SCORE.INTRA.VDW.0>
-1.067

>  <SCORE.INTRA.norm>
0.0602035

>  <SCORE.RESTR>
0

>  <SCORE.RESTR.CAVITY>
0

>  <SCORE.RESTR.norm>
0

>  <SCORE.SYSTEM>
0

>  <SCORE.SYSTEM.CONST>
0

>  <SCORE.SYSTEM.DIHEDRAL>
0

>  <SCORE.SYSTEM.SOLV>
0

>  <SCORE.SYSTEM.norm>
0

>  <SCORE.heavy>
16

>  <SCORE.norm>
-1.79141

>  <RMSD>
1.649

$$$$
1f27 biotin aptamer (Xray 1.3A)
 OpenBabel11021811393D
libRbt.so/2013.1/901 2013/11/27
 16 17  0  0  0  0  0  0  0  0999 V2000
   21.2101   -1.4515   15.4060 C   0  0  0  0  0  0  0  0  0  0  0  0
   22.2573   -1.3480   16.0369 O   0  5  0  0  0  0  0  0  0  0  0  0
   20.4623   -2.4055   15.6141 O   0  0  0  0  0  0  0  0  0  0  0  0
   20.8031   -0.3669   14.4169 C   0  0  0  0  0  0  0  0  0  0  0  0
   19.5710    0.4544   14.8582 C   0  0  0  0  0  0  0  0  0  0  0  0
   19.1995    1.5049   13.8280 C   0  0  0  0  0  0  0  0  0  0  0  0
   17.9931    2.3334   14.2175 C   0  0  0  0  0  0  0  0  0  0  0  0
   16.6891    1.5394   14.3705 C   0  0  2  0  0  0  0  0  0  0  0  0
   16.2845    0.3151   12.9552 S   0  0  0  0  0  0  0  0  0  0  0  0
   14.5189    0.2350   13.6772 C   0  0  0  0  0  0  0  0  0  0  0  0
   14.2324    1.6724   14.2018 C   0  0  2  0  0  0  0  0  0  0  0  0
   13.5803    2.4293   13.0140 N   0  0  0  0  0  0  0  0  0  0  0  0
   14.2334    3.4461   12.6499 C   0  0  0  0  0  0  0  0  0  0  0  0
   14.0896    4.2009   11.6236 O   0  0  0  0  0  0  0  0  0  0  0  0
   15.5117    3.5816   13.3094 N   0  0  0  0  0  0  0  0  0  0  0  0
   15.4950    2.4965   14.3857 C   0  0  2  0  0  0  0  0  0  0  0  0
  1  2  1  0  0  0  0
  1  3  2  0  0  0  0
  1  4  1  0  0  0  0
  4  5  1  0  0  0  0
  5  6  1  0  0  0  0
  6  7  1  0  0  0  0
  8  7  1  6  0  0  0
  8  9  1  0  0  0  0
  8 16  1  0  0  0  0
  9 10  1  0  0  0  0
 11 10  1  6  0  0  0
 11 12  1  0  0  0  0
 11 16  1  0  0  0  0
 12 13  1  0  0  0  0
 13 14  2  0  0  0  0
 13 15  1  0  0  0  0
 16 15  1  6  0  0  0
M  CHG  1   2  -1
M  END
>  <CHROM.1>
-111.14168551,-179.18346455,179.86465113,-62.42663706,-47.19329510,17.21847645
1.08721925,13.95131263,0.57203537,0.21569956,2.91008242

>  <Name>
1f27 biotin aptamer (Xray 1.3A)

>  <RI>
0

>  <Rbt.Current_Directory>
/home/itssahil/PROJECTS/Mol_Feturizer/New_Systems/rnas/1f27

>  <Rbt.Executable>
rbdock ($Id: //depot/dev/client3/rdock/2013.1/src/exe/rbdock.cxx#4 $)

>  <Rbt.Library>
libRbt.so (2013.1, Build901 2013/11/27)

>  <Rbt.Parameter_File>
/export/apps/rDock/src/rDock_2013.1_src/data/scripts/dock_solv.prm

>  <Rbt.Receptor>
prm/pocket_docking_3.prm

>  <SCORE>
-28.1953

>  <SCORE.INTER>
-25.6433

>  <SCORE.INTER.CONST>
1

>  <SCORE.INTER.POLAR>
-1.81967

>  <SCORE.INTER.ROT>
5

>  <SCORE.INTER.SOLV>
7.6234

>  <SCORE.INTER.VDW>
-20.5045

>  <SCORE.INTER.norm>
-1.60271

>  <SCORE.INTRA>
-2.55197

>  <SCORE.INTRA.DIHEDRAL>
-4.87085

>  <SCORE.INTRA.DIHEDRAL.0>
6.87082

>  <SCORE.INTRA.POLAR>
0

>  <SCORE.INTRA.POLAR.0>
0

>  <SCORE.INTRA.REPUL>
0

>  <SCORE.INTRA.REPUL.0>
0

>  <SCORE.INTRA.SOLV>
-0.763302

>  <SCORE.INTRA.SOLV.lig_0>
-42.5944

>  <SCORE.INTRA.VDW>
0.26511

>  <SCORE.INTRA.VDW.0>
-1.067

>  <SCORE.INTRA.norm>
-0.159498

>  <SCORE.RESTR>
0

>  <SCORE.RESTR.CAVITY>
0

>  <SCORE.RESTR.norm>
0

>  <SCORE.SYSTEM>
0

>  <SCORE.SYSTEM.CONST>
0

>  <SCORE.SYSTEM.DIHEDRAL>
0

>  <SCORE.SYSTEM.SOLV>
0

>  <SCORE.SYSTEM.norm>
0

>  <SCORE.heavy>
16

>  <SCORE.norm>
-1.76221

>  <RMSD>
1.649

$$$$
1f27 biotin aptamer (Xray 1.3A)
 OpenBabel11021811393D
libRbt.so/2013.1/901 2013/11/27
 16 17  0  0  0  0  0  0  0  0999 V2000
   20.9843   -0.3754   13.0455 C   0  0  0  0  0  0  0  0  0  0  0  0
   22.0364   -0.4923   12.4253 O   0  5  0  0  0  0  0  0  0  0  0  0
   20.2879   -1.3658   13.2610 O   0  0  0  0  0  0  0  0  0  0  0  0
   20.5744    0.9801   13.6069 C   0  0  0  0  0  0  0  0  0  0  0  0
   19.6571    1.7963   12.6690 C   0  0  0  0  0  0  0  0  0  0  0  0
   18.1956    1.4355   12.8612 C   0  0  0  0  0  0  0  0  0  0  0  0
   17.5826    2.0399   14.1073 C   0  0  0  0  0  0  0  0  0  0  0  0
   16.0745    1.8037   14.2622 C   0  0  2  0  0  0  0  0  0  0  0  0
   15.4254    0.1112   13.6461 S   0  0  0  0  0  0  0  0  0  0  0  0
   13.6756    0.8678   13.7508 C   0  0  0  0  0  0  0  0  0  0  0  0
   13.8558    2.3583   13.3396 C   0  0  2  0  0  0  0  0  0  0  0  0
   13.6470    2.3964   11.8020 N   0  0  0  0  0  0  0  0  0  0  0  0
   14.6516    2.8279   11.1714 C   0  0  0  0  0  0  0  0  0  0  0  0
   14.8968    2.8453    9.9131 O   0  0  0  0  0  0  0  0  0  0  0  0
   15.8146    3.0340   12.0037 N   0  0  0  0  0  0  0  0  0  0  0  0
   15.2986    2.8248   13.4271 C   0  0  2  0  0  0  0  0  0  0  0  0
  1  2  1  0  0  0  0
  1  3  2  0  0  0  0
  1  4  1  0  0  0  0
  4  5  1  0  0  0  0
  5  6  1  0  0  0  0
  6  7  1  0  0  0  0
  8  7  1  6  0  0  0
  8  9  1  0  0  0  0
  8 16  1  0  0  0  0
  9 10  1  0  0  0  0
 11 10  1  6  0  0  0
 11 12  1  0  0  0  0
 11 16  1  0  0  0  0
 12 13  1  0  0  0  0
 13 14  2  0  0  0  0
 13 15  1  0  0  0  0
 16 15  1  6  0  0  0
M  CHG  1   2  -1
M  END
>  <CHROM.1>
93.54034699,86.23924222,76.72185272,174.52899610,35.64731177,16.96365982
1.31976498,12.85827322,-0.29297992,0.19305308,-0.85214913

>  <Name>
1f27 biotin aptamer (Xray 1.3A)

>  <RI>
0

>  <Rbt.Current_Directory>
/home/itssahil/PROJECTS/Mol_Feturizer/New_Systems/rnas/1f27

>  <Rbt.Executable>
rbdock ($Id: //depot/dev/client3/rdock/2013.1/src/exe/rbdock.cxx#4 $)

>  <Rbt.Library>
libRbt.so (2013.1, Build901 2013/11/27)

>  <Rbt.Parameter_File>
/export/apps/rDock/src/rDock_2013.1_src/data/scripts/dock_solv.prm

>  <Rbt.Receptor>
prm/pocket_docking_3.prm

>  <SCORE>
-33.4651

>  <SCORE.INTER>
-34.1729

>  <SCORE.INTER.CONST>
1

>  <SCORE.INTER.POLAR>
-2.67222

>  <SCORE.INTER.ROT>
5

>  <SCORE.INTER.SOLV>
12.4477

>  <SCORE.INTER.VDW>
-24.9571

>  <SCORE.INTER.norm>
-2.13581

>  <SCORE.INTRA>
0.707845

>  <SCORE.INTRA.DIHEDRAL>
0.0339203

>  <SCORE.INTRA.DIHEDRAL.0>
6.87082

>  <SCORE.INTRA.POLAR>
0

>  <SCORE.INTRA.POLAR.0>
0

>  <SCORE.INTRA.REPUL>
0

>  <SCORE.INTRA.REPUL.0>
0

>  <SCORE.INTRA.SOLV>
0.447343

>  <SCORE.INTRA.SOLV.lig_0>
-42.5944

>  <SCORE.INTRA.VDW>
0.467213

>  <SCORE.INTRA.VDW.0>
-1.067

>  <SCORE.INTRA.norm>
0.0442403

>  <SCORE.RESTR>
0

>  <SCORE.RESTR.CAVITY>
0

>  <SCORE.RESTR.norm>
0

>  <SCORE.SYSTEM>
0

>  <SCORE.SYSTEM.CONST>
0

>  <SCORE.SYSTEM.DIHEDRAL>
0

>  <SCORE.SYSTEM.SOLV>
0

>  <SCORE.SYSTEM.norm>
0

>  <SCORE.heavy>
16

>  <SCORE.norm>
-2.09157

>  <RMSD>
1.650

$$$$
1f27 biotin aptamer (Xray 1.3A)
 OpenBabel11021811393D
libRbt.so/2013.1/901 2013/11/27
 16 17  0  0  0  0  0  0  0  0999 V2000
   21.1190   -0.2878   13.2943 C   0  0  0  0  0  0  0  0  0  0  0  0
   20.2541   -1.1066   13.5891 O   0  5  0  0  0  0  0  0  0  0  0  0
   21.8648   -0.5024   12.3402 O   0  0  0  0  0  0  0  0  0  0  0  0
   21.2255    1.0225   14.0640 C   0  0  0  0  0  0  0  0  0  0  0  0
   19.8931    1.7974   14.1711 C   0  0  0  0  0  0  0  0  0  0  0  0
   19.2726    2.0363   12.8070 C   0  0  0  0  0  0  0  0  0  0  0  0
   18.0155    2.8797   12.8541 C   0  0  0  0  0  0  0  0  0  0  0  0
   16.8527    2.2587   13.6392 C   0  0  2  0  0  0  0  0  0  0  0  0
   16.2451    0.5509   13.0227 S   0  0  0  0  0  0  0  0  0  0  0  0
   14.7018    0.8296   14.1116 C   0  0  0  0  0  0  0  0  0  0  0  0
   14.4194    2.3580   14.0268 C   0  0  2  0  0  0  0  0  0  0  0  0
   13.4533    2.5391   12.8254 N   0  0  0  0  0  0  0  0  0  0  0  0
   13.9178    3.2834   11.9180 C   0  0  0  0  0  0  0  0  0  0  0  0
   13.4818    3.5217   10.7361 O   0  0  0  0  0  0  0  0  0  0  0  0
   15.2957    3.6639   12.1281 N   0  0  0  0  0  0  0  0  0  0  0  0
   15.6155    3.1531   13.5327 C   0  0  2  0  0  0  0  0  0  0  0  0
  1  2  1  0  0  0  0
  1  3  2  0  0  0  0
  1  4  1  0  0  0  0
  4  5  1  0  0  0  0
  5  6  1  0  0  0  0
  6  7  1  0  0  0  0
  8  7  1  6  0  0  0
  8  9  1  0  0  0  0
  8 16  1  0  0  0  0
  9 10  1  0  0  0  0
 11 10  1  6  0  0  0
 11 12  1  0  0  0  0
 11 16  1  0  0  0  0
 12 13  1  0  0  0  0
 13 14  2  0  0  0  0
 13 15  1  0  0  0  0
 16 15  1  6  0  0  0
M  CHG  1   2  -1
M  END
>  <CHROM.1>
-51.34866702,-54.15130989,-175.82242694,-62.74195960,-58.50562263,17.17598858
1.63877322,13.03405647,0.39452463,-0.03473916,2.74490208

>  <Name>
1f27 biotin aptamer (Xray 1.3A)

>  <RI>
0

>  <Rbt.Current_Directory>
/home/itssahil/PROJECTS/Mol_Feturizer/New_Systems/rnas/1f27

>  <Rbt.Executable>
rbdock ($Id: //depot/dev/client3/rdock/2013.1/src/exe/rbdock.cxx#4 $)

>  <Rbt.Library>
libRbt.so (2013.1, Build901 2013/11/27)

>  <Rbt.Parameter_File>
/export/apps/rDock/src/rDock_2013.1_src/data/scripts/dock_solv.prm

>  <Rbt.Receptor>
prm/pocket_docking_5.prm

>  <SCORE>
-30.2047

>  <SCORE.INTER>
-28.1449

>  <SCORE.INTER.CONST>
1

>  <SCORE.INTER.POLAR>
-1.72438

>  <SCORE.INTER.ROT>
5

>  <SCORE.INTER.SOLV>
10.9482

>  <SCORE.INTER.VDW>
-23.5981

>  <SCORE.INTER.norm>
-1.75906

>  <SCORE.INTRA>
-2.05973

>  <SCORE.INTRA.DIHEDRAL>
-5.22651

>  <SCORE.INTRA.DIHEDRAL.0>
6.87082

>  <SCORE.INTRA.POLAR>
0

>  <SCORE.INTRA.POLAR.0>
0

>  <SCORE.INTRA.REPUL>
0

>  <SCORE.INTRA.REPUL.0>
0

>  <SCORE.INTRA.SOLV>
0.467553

>  <SCORE.INTRA.SOLV.lig_0>
-42.5944

>  <SCORE.INTRA.VDW>
0.319754

>  <SCORE.INTRA.VDW.0>
-1.067

>  <SCORE.INTRA.norm>
-0.128733

>  <SCORE.RESTR>
0

>  <SCORE.RESTR.CAVITY>
0

>  <SCORE.RESTR.norm>
0

>  <SCORE.SYSTEM>
0

>  <SCORE.SYSTEM.CONST>
0

>  <SCORE.SYSTEM.DIHEDRAL>
0

>  <SCORE.SYSTEM.SOLV>
0

>  <SCORE.SYSTEM.norm>
0

>  <SCORE.heavy>
16

>  <SCORE.norm>
-1.88779

>  <RMSD>
1.650

$$$$
1f27 biotin aptamer (Xray 1.3A)
 OpenBabel11021811393D
libRbt.so/2013.1/901 2013/11/27
 16 17  0  0  0  0  0  0  0  0999 V2000
   20.1425   -1.6604   14.6775 C   0  0  0  0  0  0  0  0  0  0  0  0
   20.9774   -1.5055   15.5631 O   0  5  0  0  0  0  0  0  0  0  0  0
   19.5159   -2.7162   14.6055 O   0  0  0  0  0  0  0  0  0  0  0  0
   19.8329   -0.5241   13.7114 C   0  0  0  0  0  0  0  0  0  0  0  0
   18.8919    0.5547   14.2924 C   0  0  0  0  0  0  0  0  0  0  0  0
   18.5170    1.5918   13.2500 C   0  0  0  0  0  0  0  0  0  0  0  0
   17.5121    2.6110   13.7452 C   0  0  0  0  0  0  0  0  0  0  0  0
   16.1709    2.0227   14.2026 C   0  0  2  0  0  0  0  0  0  0  0  0
   15.5485    0.4994   13.2239 S   0  0  0  0  0  0  0  0  0  0  0  0
   13.8543    0.7968   14.0524 C   0  0  0  0  0  0  0  0  0  0  0  0
   13.7262    2.3442   14.1638 C   0  0  2  0  0  0  0  0  0  0  0  0
   13.0287    2.8017   12.8548 N   0  0  0  0  0  0  0  0  0  0  0  0
   13.7214    3.6082   12.1745 C   0  0  0  0  0  0  0  0  0  0  0  0
   13.5432    4.0586   10.9875 O   0  0  0  0  0  0  0  0  0  0  0  0
   15.0607    3.7952   12.6834 N   0  0  0  0  0  0  0  0  0  0  0  0
   15.0590    3.0588   14.0227 C   0  0  2  0  0  0  0  0  0  0  0  0
  1  2  1  0  0  0  0
  1  3  2  0  0  0  0
  1  4  1  0  0  0  0
  4  5  1  0  0  0  0
  5  6  1  0  0  0  0
  6  7  1  0  0  0  0
  8  7  1  6  0  0  0
  8  9  1  0  0  0  0
  8 16  1  0  0  0  0
  9 10  1  0  0  0  0
 11 10  1  6  0  0  0
 11 12  1  0  0  0  0
 11 16  1  0  0  0  0
 12 13  1  0  0  0  0
 13 14  2  0  0  0  0
 13 15  1  0  0  0  0
 16 15  1  6  0  0  0
M  CHG  1   2  -1
M  END
>  <CHROM.1>
-79.13248619,-174.79308034,175.62263937,-59.82714764,-34.85235074,16.52053234
1.24643622,13.59660494,0.66880049,0.05000347,2.77931199

>  <Name>
1f27 biotin aptamer (Xray 1.3A)

>  <RI>
0

>  <Rbt.Current_Directory>
/home/itssahil/PROJECTS/Mol_Feturizer/New_Systems/rnas/1f27

>  <Rbt.Executable>
rbdock ($Id: //depot/dev/client3/rdock/2013.1/src/exe/rbdock.cxx#4 $)

>  <Rbt.Library>
libRbt.so (2013.1, Build901 2013/11/27)

>  <Rbt.Parameter_File>
/export/apps/rDock/src/rDock_2013.1_src/data/scripts/dock_solv.prm

>  <Rbt.Receptor>
prm/pocket_docking_2.prm

>  <SCORE>
-24.9218

>  <SCORE.INTER>
-23.3986

>  <SCORE.INTER.CONST>
1

>  <SCORE.INTER.POLAR>
-0.847372

>  <SCORE.INTER.ROT>
5

>  <SCORE.INTER.SOLV>
7.06428

>  <SCORE.INTER.VDW>
-22.0626

>  <SCORE.INTER.norm>
-1.46241

>  <SCORE.INTRA>
-1.5232

>  <SCORE.INTRA.DIHEDRAL>
-3.20922

>  <SCORE.INTRA.DIHEDRAL.0>
6.87082

>  <SCORE.INTRA.POLAR>
0

>  <SCORE.INTRA.POLAR.0>
0

>  <SCORE.INTRA.REPUL>
0

>  <SCORE.INTRA.REPUL.0>
0

>  <SCORE.INTRA.SOLV>
-0.702651

>  <SCORE.INTRA.SOLV.lig_0>
-42.5944

>  <SCORE.INTRA.VDW>
0.432736

>  <SCORE.INTRA.VDW.0>
-1.067

>  <SCORE.INTRA.norm>
-0.0952

>  <SCORE.RESTR>
0

>  <SCORE.RESTR.CAVITY>
0

>  <SCORE.RESTR.norm>
0

>  <SCORE.SYSTEM>
0

>  <SCORE.SYSTEM.CONST>
0

>  <SCORE.SYSTEM.DIHEDRAL>
0

>  <SCORE.SYSTEM.SOLV>
0

>  <SCORE.SYSTEM.norm>
0

>  <SCORE.heavy>
16

>  <SCORE.norm>
-1.55761

>  <RMSD>
1.651

$$$$
1f27 biotin aptamer (Xray 1.3A)
 OpenBabel11021811393D
libRbt.so/2013.1/901 2013/11/27
 16 17  0  0  0  0  0  0  0  0999 V2000
   20.1336   -1.2265   13.4467 C   0  0  0  0  0  0  0  0  0  0  0  0
   19.2425   -1.9642   13.0380 O   0  5  0  0  0  0  0  0  0  0  0  0
   20.9286   -1.6369   14.2906 O   0  0  0  0  0  0  0  0  0  0  0  0
   20.2981    0.1704   12.8617 C   0  0  0  0  0  0  0  0  0  0  0  0
   20.1395    1.3067   13.8965 C   0  0  0  0  0  0  0  0  0  0  0  0
   18.7312    1.3598   14.4592 C   0  0  0  0  0  0  0  0  0  0  0  0
   17.7199    1.9554   13.5020 C   0  0  0  0  0  0  0  0  0  0  0  0
   16.2557    1.7991   13.9332 C   0  0  2  0  0  0  0  0  0  0  0  0
   15.4666    0.0851   13.6088 S   0  0  0  0  0  0  0  0  0  0  0  0
   13.7813    0.9218   13.9323 C   0  0  0  0  0  0  0  0  0  0  0  0
   13.9259    2.3579   13.3492 C   0  0  2  0  0  0  0  0  0  0  0  0
   13.4554    2.2597   11.8734 N   0  0  0  0  0  0  0  0  0  0  0  0
   14.3466    2.5867   11.0416 C   0  0  0  0  0  0  0  0  0  0  0  0
   14.3710    2.4750    9.7646 O   0  0  0  0  0  0  0  0  0  0  0  0
   15.6409    2.8209   11.6397 N   0  0  0  0  0  0  0  0  0  0  0  0
   15.3736    2.7689   13.1436 C   0  0  2  0  0  0  0  0  0  0  0  0
  1  2  1  0  0  0  0
  1  3  2  0  0  0  0
  1  4  1  0  0  0  0
  4  5  1  0  0  0  0
  5  6  1  0  0  0  0
  6  7  1  0  0  0  0
  8  7  1  6  0  0  0
  8  9  1  0  0  0  0
  8 16  1  0  0  0  0
  9 10  1  0  0  0  0
 11 10  1  6  0  0  0
 11 12  1  0  0  0  0
 11 16  1  0  0  0  0
 12 13  1  0  0  0  0
 13 14  2  0  0  0  0
 13 15  1  0  0  0  0
 16 15  1  6  0  0  0
M  CHG  1   2  -1
M  END
>  <CHROM.1>
119.31413927,-64.88257350,-75.52515728,169.67471399,-79.20003199,16.78695472
1.01723454,13.01024891,0.50470018,-0.12117996,2.38876088

>  <Name>
1f27 biotin aptamer (Xray 1.3A)

>  <RI>
0

>  <Rbt.Current_Directory>
/home/itssahil/PROJECTS/Mol_Feturizer/New_Systems/rnas/1f27

>  <Rbt.Executable>
rbdock ($Id: //depot/dev/client3/rdock/2013.1/src/exe/rbdock.cxx#4 $)

>  <Rbt.Library>
libRbt.so (2013.1, Build901 2013/11/27)

>  <Rbt.Parameter_File>
/export/apps/rDock/src/rDock_2013.1_src/data/scripts/dock_solv.prm

>  <Rbt.Receptor>
prm/pocket_docking_7.prm

>  <SCORE>
-28.5175

>  <SCORE.INTER>
-27.4459

>  <SCORE.INTER.CONST>
1

>  <SCORE.INTER.POLAR>
-1.4325

>  <SCORE.INTER.ROT>
5

>  <SCORE.INTER.SOLV>
9.68014

>  <SCORE.INTER.VDW>
-23.6823

>  <SCORE.INTER.norm>
-1.71537

>  <SCORE.INTRA>
-1.07154

>  <SCORE.INTRA.DIHEDRAL>
-2.67595

>  <SCORE.INTRA.DIHEDRAL.0>
6.87082

>  <SCORE.INTRA.POLAR>
0

>  <SCORE.INTRA.POLAR.0>
0

>  <SCORE.INTRA.REPUL>
0

>  <SCORE.INTRA.REPUL.0>
0

>  <SCORE.INTRA.SOLV>
0.447203

>  <SCORE.INTRA.SOLV.lig_0>
-42.5944

>  <SCORE.INTRA.VDW>
0.042828

>  <SCORE.INTRA.VDW.0>
-1.067

>  <SCORE.INTRA.norm>
-0.0669715

>  <SCORE.RESTR>
0

>  <SCORE.RESTR.CAVITY>
0

>  <SCORE.RESTR.norm>
0

>  <SCORE.SYSTEM>
0

>  <SCORE.SYSTEM.CONST>
0

>  <SCORE.SYSTEM.DIHEDRAL>
0

>  <SCORE.SYSTEM.SOLV>
0

>  <SCORE.SYSTEM.norm>
0

>  <SCORE.heavy>
16

>  <SCORE.norm>
-1.78234

>  <RMSD>
1.653

$$$$
1f27 biotin aptamer (Xray 1.3A)
 OpenBabel11021811393D
libRbt.so/2013.1/901 2013/11/27
 16 17  0  0  0  0  0  0  0  0999 V2000
   21.1697   -0.2999   13.2542 C   0  0  0  0  0  0  0  0  0  0  0  0
   20.3172   -1.1357   13.5370 O   0  5  0  0  0  0  0  0  0  0  0  0
   21.9453   -0.5082   12.3228 O   0  0  0  0  0  0  0  0  0  0  0  0
   21.2243    1.0221   14.0091 C   0  0  0  0  0  0  0  0  0  0  0  0
   19.8516    1.7142   14.1626 C   0  0  0  0  0  0  0  0  0  0  0  0
   19.1969    1.9652   12.8167 C   0  0  0  0  0  0  0  0  0  0  0  0
   17.9555    2.8288   12.9000 C   0  0  0  0  0  0  0  0  0  0  0  0
   16.7936    2.2114   13.6894 C   0  0  2  0  0  0  0  0  0  0  0  0
   16.1534    0.5233   13.0523 S   0  0  0  0  0  0  0  0  0  0  0  0
   14.6281    0.8058   14.1652 C   0  0  0  0  0  0  0  0  0  0  0  0
   14.3670    2.3393   14.1095 C   0  0  2  0  0  0  0  0  0  0  0  0
   13.3888    2.5546   12.9237 N   0  0  0  0  0  0  0  0  0  0  0  0
   13.8528    3.3073   12.0230 C   0  0  0  0  0  0  0  0  0  0  0  0
   13.4056    3.5717   10.8509 O   0  0  0  0  0  0  0  0  0  0  0  0
   15.2386    3.6642   12.2218 N   0  0  0  0  0  0  0  0  0  0  0  0
   15.5685    3.1253   13.6135 C   0  0  2  0  0  0  0  0  0  0  0  0
  1  2  1  0  0  0  0
  1  3  2  0  0  0  0
  1  4  1  0  0  0  0
  4  5  1  0  0  0  0
  5  6  1  0  0  0  0
  6  7  1  0  0  0  0
  8  7  1  6  0  0  0
  8  9  1  0  0  0  0
  8 16  1  0  0  0  0
  9 10  1  0  0  0  0
 11 10  1  6  0  0  0
 11 12  1  0  0  0  0
 11 16  1  0  0  0  0
 12 13  1  0  0  0  0
 13 14  2  0  0  0  0
 13 15  1  0  0  0  0
 16 15  1  6  0  0  0
M  CHG  1   2  -1
M  END
>  <CHROM.1>
-47.01561691,-57.08411685,-171.08045345,-64.09927237,-58.20245660,17.13708628
1.61951245,13.07009505,0.38585277,-0.05640448,2.74116003

>  <Name>
1f27 biotin aptamer (Xray 1.3A)

>  <RI>
0

>  <Rbt.Current_Directory>
/home/itssahil/PROJECTS/Mol_Feturizer/New_Systems/rnas/1f27

>  <Rbt.Executable>
rbdock ($Id: //depot/dev/client3/rdock/2013.1/src/exe/rbdock.cxx#4 $)

>  <Rbt.Library>
libRbt.so (2013.1, Build901 2013/11/27)

>  <Rbt.Parameter_File>
/export/apps/rDock/src/rDock_2013.1_src/data/scripts/dock_solv.prm

>  <Rbt.Receptor>
prm/pocket_docking_6.prm

>  <SCORE>
-30.2181

>  <SCORE.INTER>
-28.2156

>  <SCORE.INTER.CONST>
1

>  <SCORE.INTER.POLAR>
-1.73107

>  <SCORE.INTER.ROT>
5

>  <SCORE.INTER.SOLV>
11.0862

>  <SCORE.INTER.VDW>
-23.6689

>  <SCORE.INTER.norm>
-1.76348

>  <SCORE.INTRA>
-2.00248

>  <SCORE.INTRA.DIHEDRAL>
-5.00115

>  <SCORE.INTRA.DIHEDRAL.0>
6.87082

>  <SCORE.INTRA.POLAR>
0

>  <SCORE.INTRA.POLAR.0>
0

>  <SCORE.INTRA.REPUL>
0

>  <SCORE.INTRA.REPUL.0>
0

>  <SCORE.INTRA.SOLV>
0.364479

>  <SCORE.INTRA.SOLV.lig_0>
-42.5944

>  <SCORE.INTRA.VDW>
0.315853

>  <SCORE.INTRA.VDW.0>
-1.067

>  <SCORE.INTRA.norm>
-0.125155

>  <SCORE.RESTR>
0

>  <SCORE.RESTR.CAVITY>
0

>  <SCORE.RESTR.norm>
0

>  <SCORE.SYSTEM>
0

>  <SCORE.SYSTEM.CONST>
0

>  <SCORE.SYSTEM.DIHEDRAL>
0

>  <SCORE.SYSTEM.SOLV>
0

>  <SCORE.SYSTEM.norm>
0

>  <SCORE.heavy>
16

>  <SCORE.norm>
-1.88863

>  <RMSD>
1.654

$$$$
1f27 biotin aptamer (Xray 1.3A)
 OpenBabel11021811393D
libRbt.so/2013.1/901 2013/11/27
 16 17  0  0  0  0  0  0  0  0999 V2000
   20.9500   -0.7098   14.7635 C   0  0  0  0  0  0  0  0  0  0  0  0
   20.3734   -1.3691   15.6227 O   0  5  0  0  0  0  0  0  0  0  0  0
   21.3803   -1.2641   13.7534 O   0  0  0  0  0  0  0  0  0  0  0  0
   21.0730    0.8011   14.9136 C   0  0  0  0  0  0  0  0  0  0  0  0
   20.0905    1.6015   14.0297 C   0  0  0  0  0  0  0  0  0  0  0  0
   18.6468    1.3362   14.4147 C   0  0  0  0  0  0  0  0  0  0  0  0
   17.6498    2.1595   13.6261 C   0  0  0  0  0  0  0  0  0  0  0  0
   16.1807    1.9231   14.0003 C   0  0  2  0  0  0  0  0  0  0  0  0
   15.4986    0.1700   13.6437 S   0  0  0  0  0  0  0  0  0  0  0  0
   13.7593    0.9136   13.9027 C   0  0  0  0  0  0  0  0  0  0  0  0
   13.8483    2.3572   13.3273 C   0  0  2  0  0  0  0  0  0  0  0  0
   13.4411    2.2385   11.8343 N   0  0  0  0  0  0  0  0  0  0  0  0
   14.3447    2.6158   11.0379 C   0  0  0  0  0  0  0  0  0  0  0  0
   14.4242    2.5096    9.7627 O   0  0  0  0  0  0  0  0  0  0  0  0
   15.6004    2.9175   11.6858 N   0  0  0  0  0  0  0  0  0  0  0  0
   15.2786    2.8464   13.1783 C   0  0  2  0  0  0  0  0  0  0  0  0
  1  2  1  0  0  0  0
  1  3  2  0  0  0  0
  1  4  1  0  0  0  0
  4  5  1  0  0  0  0
  5  6  1  0  0  0  0
  6  7  1  0  0  0  0
  8  7  1  6  0  0  0
  8  9  1  0  0  0  0
  8 16  1  0  0  0  0
  9 10  1  0  0  0  0
 11 10  1  6  0  0  0
 11 12  1  0  0  0  0
 11 16  1  0  0  0  0
 12 13  1  0  0  0  0
 13 14  2  0  0  0  0
 13 15  1  0  0  0  0
 16 15  1  6  0  0  0
M  CHG  1   2  -1
M  END
>  <CHROM.1>
-102.88831266,63.78069932,176.74568778,-179.49950368,-64.65805963,16.95415179
1.19997431,13.34772839,0.51875992,-0.01070923,2.29820253

>  <Name>
1f27 biotin aptamer (Xray 1.3A)

>  <RI>
0

>  <Rbt.Current_Directory>
/home/itssahil/PROJECTS/Mol_Feturizer/New_Systems/rnas/1f27

>  <Rbt.Executable>
rbdock ($Id: //depot/dev/client3/rdock/2013.1/src/exe/rbdock.cxx#4 $)

>  <Rbt.Library>
libRbt.so (2013.1, Build901 2013/11/27)

>  <Rbt.Parameter_File>
/export/apps/rDock/src/rDock_2013.1_src/data/scripts/dock_solv.prm

>  <Rbt.Receptor>
prm/pocket_docking_7.prm

>  <SCORE>
-30.2188

>  <SCORE.INTER>
-27.5921

>  <SCORE.INTER.CONST>
1

>  <SCORE.INTER.POLAR>
-1.3553

>  <SCORE.INTER.ROT>
5

>  <SCORE.INTER.SOLV>
9.49337

>  <SCORE.INTER.VDW>
-23.9748

>  <SCORE.INTER.norm>
-1.72451

>  <SCORE.INTRA>
-2.62674

>  <SCORE.INTRA.DIHEDRAL>
-5.40402

>  <SCORE.INTRA.DIHEDRAL.0>
6.87082

>  <SCORE.INTRA.POLAR>
0

>  <SCORE.INTRA.POLAR.0>
0

>  <SCORE.INTRA.REPUL>
0

>  <SCORE.INTRA.REPUL.0>
0

>  <SCORE.INTRA.SOLV>
0.0933155

>  <SCORE.INTRA.SOLV.lig_0>
-42.5944

>  <SCORE.INTRA.VDW>
0.0286106

>  <SCORE.INTRA.VDW.0>
-1.067

>  <SCORE.INTRA.norm>
-0.164171

>  <SCORE.RESTR>
0

>  <SCORE.RESTR.CAVITY>
0

>  <SCORE.RESTR.norm>
0

>  <SCORE.SYSTEM>
0

>  <SCORE.SYSTEM.CONST>
0

>  <SCORE.SYSTEM.DIHEDRAL>
0

>  <SCORE.SYSTEM.SOLV>
0

>  <SCORE.SYSTEM.norm>
0

>  <SCORE.heavy>
16

>  <SCORE.norm>
-1.88868

>  <RMSD>
1.656

$$$$
1f27 biotin aptamer (Xray 1.3A)
 OpenBabel11021811393D
libRbt.so/2013.1/901 2013/11/27
 16 17  0  0  0  0  0  0  0  0999 V2000
   21.7807   -0.2703   13.9623 C   0  0  0  0  0  0  0  0  0  0  0  0
   22.6846   -0.7237   14.6572 O   0  5  0  0  0  0  0  0  0  0  0  0
   21.9607   -0.1030   12.7573 O   0  0  0  0  0  0  0  0  0  0  0  0
   20.4171    0.0207   14.5759 C   0  0  0  0  0  0  0  0  0  0  0  0
   19.7024    1.2462   13.9642 C   0  0  0  0  0  0  0  0  0  0  0  0
   18.2611    1.3441   14.4289 C   0  0  0  0  0  0  0  0  0  0  0  0
   17.4738    2.4338   13.7314 C   0  0  0  0  0  0  0  0  0  0  0  0
   15.9859    2.4904   14.1017 C   0  0  2  0  0  0  0  0  0  0  0  0
   15.0631    0.8129   14.1156 S   0  0  0  0  0  0  0  0  0  0  0  0
   13.4462    1.8274   14.1509 C   0  0  0  0  0  0  0  0  0  0  0  0
   13.7384    3.0820   13.2770 C   0  0  2  0  0  0  0  0  0  0  0  0
   13.3190    2.6938   11.8339 N   0  0  0  0  0  0  0  0  0  0  0  0
   14.2671    2.7579   11.0032 C   0  0  0  0  0  0  0  0  0  0  0  0
   14.3313    2.3628    9.7852 O   0  0  0  0  0  0  0  0  0  0  0  0
   15.5526    3.0194   11.6088 N   0  0  0  0  0  0  0  0  0  0  0  0
   15.2234    3.3245   13.0698 C   0  0  2  0  0  0  0  0  0  0  0  0
  1  2  1  0  0  0  0
  1  3  2  0  0  0  0
  1  4  1  0  0  0  0
  4  5  1  0  0  0  0
  5  6  1  0  0  0  0
  6  7  1  0  0  0  0
  8  7  1  6  0  0  0
  8  9  1  0  0  0  0
  8 16  1  0  0  0  0
  9 10  1  0  0  0  0
 11 10  1  1  0  0  0
 11 12  1  0  0  0  0
 11 16  1  0  0  0  0
 12 13  1  0  0  0  0
 13 14  2  0  0  0  0
 13 15  1  0  0  0  0
 16 15  1  6  0  0  0
M  CHG  1   2  -1
M  END
>  <CHROM.1>
145.88182093,169.82258437,-173.24398335,175.61660267,-46.07928463,16.97755019
1.55445385,13.23145614,-0.30046743,0.26615625,-1.30491583

>  <Name>
1f27 biotin aptamer (Xray 1.3A)

>  <RI>
0

>  <Rbt.Current_Directory>
/home/itssahil/PROJECTS/Mol_Feturizer/New_Systems/rnas/1f27

>  <Rbt.Executable>
rbdock ($Id: //depot/dev/client3/rdock/2013.1/src/exe/rbdock.cxx#4 $)

>  <Rbt.Library>
libRbt.so (2013.1, Build901 2013/11/27)

>  <Rbt.Parameter_File>
/export/apps/rDock/src/rDock_2013.1_src/data/scripts/dock_solv.prm

>  <Rbt.Receptor>
prm/pocket_docking_4.prm

>  <SCORE>
-29.5456

>  <SCORE.INTER>
-27.472

>  <SCORE.INTER.CONST>
1

>  <SCORE.INTER.POLAR>
-2.08304

>  <SCORE.INTER.ROT>
5

>  <SCORE.INTER.SOLV>
12.7538

>  <SCORE.INTER.VDW>
-22.5558

>  <SCORE.INTER.norm>
-1.717

>  <SCORE.INTRA>
-2.07362

>  <SCORE.INTRA.DIHEDRAL>
-4.20677

>  <SCORE.INTRA.DIHEDRAL.0>
6.87082

>  <SCORE.INTRA.POLAR>
0

>  <SCORE.INTRA.POLAR.0>
0

>  <SCORE.INTRA.REPUL>
0

>  <SCORE.INTRA.REPUL.0>
0

>  <SCORE.INTRA.SOLV>
-0.761741

>  <SCORE.INTRA.SOLV.lig_0>
-42.5944

>  <SCORE.INTRA.VDW>
0.410641

>  <SCORE.INTRA.VDW.0>
-1.067

>  <SCORE.INTRA.norm>
-0.129601

>  <SCORE.RESTR>
0

>  <SCORE.RESTR.CAVITY>
0

>  <SCORE.RESTR.norm>
0

>  <SCORE.SYSTEM>
0

>  <SCORE.SYSTEM.CONST>
0

>  <SCORE.SYSTEM.DIHEDRAL>
0

>  <SCORE.SYSTEM.SOLV>
0

>  <SCORE.SYSTEM.norm>
0

>  <SCORE.heavy>
16

>  <SCORE.norm>
-1.8466

>  <RMSD>
1.657

$$$$
1f27 biotin aptamer (Xray 1.3A)
 OpenBabel11021811393D
libRbt.so/2013.1/901 2013/11/27
 16 17  0  0  0  0  0  0  0  0999 V2000
   21.1262   -0.3092   13.2121 C   0  0  0  0  0  0  0  0  0  0  0  0
   20.2736   -1.1412   13.5057 O   0  5  0  0  0  0  0  0  0  0  0  0
   21.9086   -0.5343   12.2903 O   0  0  0  0  0  0  0  0  0  0  0  0
   21.1730    1.0276   13.9409 C   0  0  0  0  0  0  0  0  0  0  0  0
   19.7960    1.7137   14.0824 C   0  0  0  0  0  0  0  0  0  0  0  0
   19.1548    1.9675   12.7306 C   0  0  0  0  0  0  0  0  0  0  0  0
   17.9266    2.8509   12.8004 C   0  0  0  0  0  0  0  0  0  0  0  0
   16.7616    2.2706   13.6129 C   0  0  2  0  0  0  0  0  0  0  0  0
   16.0980    0.5726   13.0278 S   0  0  0  0  0  0  0  0  0  0  0  0
   14.5819    0.9054   14.1395 C   0  0  0  0  0  0  0  0  0  0  0  0
   14.3389    2.4398   14.0409 C   0  0  2  0  0  0  0  0  0  0  0  0
   13.3572    2.6327   12.8543 N   0  0  0  0  0  0  0  0  0  0  0  0
   13.8253    3.3535   11.9300 C   0  0  0  0  0  0  0  0  0  0  0  0
   13.3752    3.5896   10.7529 O   0  0  0  0  0  0  0  0  0  0  0  0
   15.2164    3.6993   12.1117 N   0  0  0  0  0  0  0  0  0  0  0  0
   15.5470    3.1966   13.5167 C   0  0  2  0  0  0  0  0  0  0  0  0
  1  2  1  0  0  0  0
  1  3  2  0  0  0  0
  1  4  1  0  0  0  0
  4  5  1  0  0  0  0
  5  6  1  0  0  0  0
  6  7  1  0  0  0  0
  8  7  1  6  0  0  0
  8  9  1  0  0  0  0
  8 16  1  0  0  0  0
  9 10  1  0  0  0  0
 11 10  1  6  0  0  0
 11 12  1  0  0  0  0
 11 16  1  0  0  0  0
 12 13  1  0  0  0  0
 13 14  2  0  0  0  0
 13 15  1  0  0  0  0
 16 15  1  6  0  0  0
M  CHG  1   2  -1
M  END
>  <CHROM.1>
-46.50075906,-58.60491711,-169.81117650,-62.71260232,-57.92974787,17.09836899
1.65365742,13.00478578,0.39380344,-0.07131388,2.70644622

>  <Name>
1f27 biotin aptamer (Xray 1.3A)

>  <RI>
0

>  <Rbt.Current_Directory>
/home/itssahil/PROJECTS/Mol_Feturizer/New_Systems/rnas/1f27

>  <Rbt.Executable>
rbdock ($Id: //depot/dev/client3/rdock/2013.1/src/exe/rbdock.cxx#4 $)

>  <Rbt.Library>
libRbt.so (2013.1, Build901 2013/11/27)

>  <Rbt.Parameter_File>
/export/apps/rDock/src/rDock_2013.1_src/data/scripts/dock_solv.prm

>  <Rbt.Receptor>
prm/blind_docking_60.prm

>  <SCORE>
-30.2415

>  <SCORE.INTER>
-28.2451

>  <SCORE.INTER.CONST>
1

>  <SCORE.INTER.POLAR>
-1.74947

>  <SCORE.INTER.ROT>
5

>  <SCORE.INTER.SOLV>
11.1352

>  <SCORE.INTER.VDW>
-23.6436

>  <SCORE.INTER.norm>
-1.76532

>  <SCORE.INTRA>
-1.99633

>  <SCORE.INTRA.DIHEDRAL>
-4.96022

>  <SCORE.INTRA.DIHEDRAL.0>
6.87082

>  <SCORE.INTRA.POLAR>
0

>  <SCORE.INTRA.POLAR.0>
0

>  <SCORE.INTRA.REPUL>
0

>  <SCORE.INTRA.REPUL.0>
0

>  <SCORE.INTRA.SOLV>
0.324659

>  <SCORE.INTRA.SOLV.lig_0>
-42.5944

>  <SCORE.INTRA.VDW>
0.321457

>  <SCORE.INTRA.VDW.0>
-1.067

>  <SCORE.INTRA.norm>
-0.12477

>  <SCORE.RESTR>
0

>  <SCORE.RESTR.CAVITY>
0

>  <SCORE.RESTR.norm>
0

>  <SCORE.SYSTEM>
0

>  <SCORE.SYSTEM.CONST>
0

>  <SCORE.SYSTEM.DIHEDRAL>
0

>  <SCORE.SYSTEM.SOLV>
0

>  <SCORE.SYSTEM.norm>
0

>  <SCORE.heavy>
16

>  <SCORE.norm>
-1.89009

>  <RMSD>
1.663

$$$$
1f27 biotin aptamer (Xray 1.3A)
 OpenBabel11021811393D
libRbt.so/2013.1/901 2013/11/27
 16 17  0  0  0  0  0  0  0  0999 V2000
   19.4022   -2.0503   13.6961 C   0  0  0  0  0  0  0  0  0  0  0  0
   19.3511   -3.0699   13.0156 O   0  5  0  0  0  0  0  0  0  0  0  0
   20.2540   -1.9448   14.5770 O   0  0  0  0  0  0  0  0  0  0  0  0
   18.4586   -0.8899   13.4069 C   0  0  0  0  0  0  0  0  0  0  0  0
   19.1737    0.4017   12.9513 C   0  0  0  0  0  0  0  0  0  0  0  0
   18.1955    1.5458   12.7591 C   0  0  0  0  0  0  0  0  0  0  0  0
   17.6122    2.0669   14.0560 C   0  0  0  0  0  0  0  0  0  0  0  0
   16.1087    1.8165   14.2321 C   0  0  2  0  0  0  0  0  0  0  0  0
   15.4630    0.1271   13.6037 S   0  0  0  0  0  0  0  0  0  0  0  0
   13.7093    0.8681   13.7469 C   0  0  0  0  0  0  0  0  0  0  0  0
   13.8710    2.3654   13.3529 C   0  0  2  0  0  0  0  0  0  0  0  0
   13.6369    2.4224   11.8196 N   0  0  0  0  0  0  0  0  0  0  0  0
   14.6278    2.8704   11.1787 C   0  0  0  0  0  0  0  0  0  0  0  0
   14.8524    2.9066    9.9170 O   0  0  0  0  0  0  0  0  0  0  0  0
   15.8024    3.0748   11.9948 N   0  0  0  0  0  0  0  0  0  0  0  0
   15.3114    2.8423   13.4234 C   0  0  2  0  0  0  0  0  0  0  0  0
  1  2  1  0  0  0  0
  1  3  2  0  0  0  0
  1  4  1  0  0  0  0
  4  5  1  0  0  0  0
  5  6  1  0  0  0  0
  6  7  1  0  0  0  0
  8  7  1  6  0  0  0
  8  9  1  0  0  0  0
  8 16  1  0  0  0  0
  9 10  1  0  0  0  0
 11 10  1  6  0  0  0
 11 12  1  0  0  0  0
 11 16  1  0  0  0  0
 12 13  1  0  0  0  0
 13 14  2  0  0  0  0
 13 15  1  0  0  0  0
 16 15  1  6  0  0  0
M  CHG  1   2  -1
M  END
>  <CHROM.1>
-116.01006760,-176.54209658,70.06326178,-113.10676857,38.62334964,16.56328934
0.86362350,13.00587542,0.70046112,-0.25893290,2.48391921

>  <Name>
1f27 biotin aptamer (Xray 1.3A)

>  <RI>
0

>  <Rbt.Current_Directory>
/home/itssahil/PROJECTS/Mol_Feturizer/New_Systems/rnas/1f27

>  <Rbt.Executable>
rbdock ($Id: //depot/dev/client3/rdock/2013.1/src/exe/rbdock.cxx#4 $)

>  <Rbt.Library>
libRbt.so (2013.1, Build901 2013/11/27)

>  <Rbt.Parameter_File>
/export/apps/rDock/src/rDock_2013.1_src/data/scripts/dock_solv.prm

>  <Rbt.Receptor>
prm/pocket_docking_3.prm

>  <SCORE>
-27.8032

>  <SCORE.INTER>
-29.8558

>  <SCORE.INTER.CONST>
1

>  <SCORE.INTER.POLAR>
-1.84495

>  <SCORE.INTER.ROT>
5

>  <SCORE.INTER.SOLV>
9.00888

>  <SCORE.INTER.VDW>
-23.6903

>  <SCORE.INTER.norm>
-1.86599

>  <SCORE.INTRA>
2.05259

>  <SCORE.INTRA.DIHEDRAL>
2.48917

>  <SCORE.INTRA.DIHEDRAL.0>
6.87082

>  <SCORE.INTRA.POLAR>
0

>  <SCORE.INTRA.POLAR.0>
0

>  <SCORE.INTRA.REPUL>
0

>  <SCORE.INTRA.REPUL.0>
0

>  <SCORE.INTRA.SOLV>
-0.228212

>  <SCORE.INTRA.SOLV.lig_0>
-42.5944

>  <SCORE.INTRA.VDW>
0.92211

>  <SCORE.INTRA.VDW.0>
-1.067

>  <SCORE.INTRA.norm>
0.128287

>  <SCORE.RESTR>
0

>  <SCORE.RESTR.CAVITY>
0

>  <SCORE.RESTR.norm>
0

>  <SCORE.SYSTEM>
0

>  <SCORE.SYSTEM.CONST>
0

>  <SCORE.SYSTEM.DIHEDRAL>
0

>  <SCORE.SYSTEM.SOLV>
0

>  <SCORE.SYSTEM.norm>
0

>  <SCORE.heavy>
16

>  <SCORE.norm>
-1.7377

>  <RMSD>
1.663

$$$$
1f27 biotin aptamer (Xray 1.3A)
 OpenBabel11021811393D
libRbt.so/2013.1/901 2013/11/27
 16 17  0  0  0  0  0  0  0  0999 V2000
   20.8573   -0.1553   12.5275 C   0  0  0  0  0  0  0  0  0  0  0  0
   21.9334   -0.6199   12.1647 O   0  5  0  0  0  0  0  0  0  0  0  0
   19.8831   -0.8951   12.6540 O   0  0  0  0  0  0  0  0  0  0  0  0
   20.7440    1.3208   12.8863 C   0  0  0  0  0  0  0  0  0  0  0  0
   20.2940    1.5800   14.3415 C   0  0  0  0  0  0  0  0  0  0  0  0
   18.8458    1.1824   14.5595 C   0  0  0  0  0  0  0  0  0  0  0  0
   17.8552    2.1323   13.9193 C   0  0  0  0  0  0  0  0  0  0  0  0
   16.3806    1.7862   14.1647 C   0  0  2  0  0  0  0  0  0  0  0  0
   15.8003    0.0846   13.5064 S   0  0  0  0  0  0  0  0  0  0  0  0
   14.0171    0.7136   13.7705 C   0  0  0  0  0  0  0  0  0  0  0  0
   14.0700    2.2309   13.4269 C   0  0  2  0  0  0  0  0  0  0  0  0
   13.7490    2.3282   11.9114 N   0  0  0  0  0  0  0  0  0  0  0  0
   14.6755    2.8572   11.2369 C   0  0  0  0  0  0  0  0  0  0  0  0
   14.8279    2.9516    9.9674 O   0  0  0  0  0  0  0  0  0  0  0  0
   15.8795    3.1025   11.9971 N   0  0  0  0  0  0  0  0  0  0  0  0
   15.4820    2.7905   13.4395 C   0  0  2  0  0  0  0  0  0  0  0  0
  1  2  1  0  0  0  0
  1  3  2  0  0  0  0
  1  4  1  0  0  0  0
  4  5  1  0  0  0  0
  5  6  1  0  0  0  0
  6  7  1  0  0  0  0
  8  7  1  6  0  0  0
  8  9  1  0  0  0  0
  8 16  1  0  0  0  0
  9 10  1  0  0  0  0
 11 10  1  6  0  0  0
 11 12  1  0  0  0  0
 11 16  1  0  0  0  0
 12 13  1  0  0  0  0
 13 14  2  0  0  0  0
 13 15  1  0  0  0  0
 16 15  1  6  0  0  0
M  CHG  1   2  -1
M  END
>  <CHROM.1>
-119.86345774,-69.38325733,-72.94991403,-177.88060561,-60.90683461,17.13715826
1.33776148,12.91356499,-0.24368867,0.22632550,-1.07416068

>  <Name>
1f27 biotin aptamer (Xray 1.3A)

>  <RI>
0

>  <Rbt.Current_Directory>
/home/itssahil/PROJECTS/Mol_Feturizer/New_Systems/rnas/1f27

>  <Rbt.Executable>
rbdock ($Id: //depot/dev/client3/rdock/2013.1/src/exe/rbdock.cxx#4 $)

>  <Rbt.Library>
libRbt.so (2013.1, Build901 2013/11/27)

>  <Rbt.Parameter_File>
/export/apps/rDock/src/rDock_2013.1_src/data/scripts/dock_solv.prm

>  <Rbt.Receptor>
prm/pocket_docking_4.prm

>  <SCORE>
-36.4204

>  <SCORE.INTER>
-34.8685

>  <SCORE.INTER.CONST>
1

>  <SCORE.INTER.POLAR>
-2.76511

>  <SCORE.INTER.ROT>
5

>  <SCORE.INTER.SOLV>
14.6633

>  <SCORE.INTER.VDW>
-25.8498

>  <SCORE.INTER.norm>
-2.17928

>  <SCORE.INTRA>
-1.55184

>  <SCORE.INTRA.DIHEDRAL>
-4.48219

>  <SCORE.INTRA.DIHEDRAL.0>
6.87082

>  <SCORE.INTRA.POLAR>
0

>  <SCORE.INTRA.POLAR.0>
0

>  <SCORE.INTRA.REPUL>
0

>  <SCORE.INTRA.REPUL.0>
0

>  <SCORE.INTRA.SOLV>
0.683976

>  <SCORE.INTRA.SOLV.lig_0>
-42.5944

>  <SCORE.INTRA.VDW>
0.34727

>  <SCORE.INTRA.VDW.0>
-1.067

>  <SCORE.INTRA.norm>
-0.0969899

>  <SCORE.RESTR>
0

>  <SCORE.RESTR.CAVITY>
0

>  <SCORE.RESTR.norm>
0

>  <SCORE.SYSTEM>
0

>  <SCORE.SYSTEM.CONST>
0

>  <SCORE.SYSTEM.DIHEDRAL>
0

>  <SCORE.SYSTEM.SOLV>
0

>  <SCORE.SYSTEM.norm>
0

>  <SCORE.heavy>
16

>  <SCORE.norm>
-2.27627

>  <RMSD>
1.663

$$$$
1f27 biotin aptamer (Xray 1.3A)
 OpenBabel11021811393D
libRbt.so/2013.1/901 2013/11/27
 16 17  0  0  0  0  0  0  0  0999 V2000
   20.0088   -0.9602   14.7835 C   0  0  0  0  0  0  0  0  0  0  0  0
   20.9587   -1.6229   15.1885 O   0  5  0  0  0  0  0  0  0  0  0  0
   18.9136   -1.4959   14.6222 O   0  0  0  0  0  0  0  0  0  0  0  0
   20.1665    0.5363   14.5463 C   0  0  0  0  0  0  0  0  0  0  0  0
   19.6558    1.0102   13.1672 C   0  0  0  0  0  0  0  0  0  0  0  0
   18.1400    0.9969   13.0960 C   0  0  0  0  0  0  0  0  0  0  0  0
   17.4793    1.9085   14.1089 C   0  0  0  0  0  0  0  0  0  0  0  0
   15.9609    1.7311   14.2405 C   0  0  2  0  0  0  0  0  0  0  0  0
   15.2544    0.0705   13.6011 S   0  0  0  0  0  0  0  0  0  0  0  0
   13.5346    0.8950   13.6874 C   0  0  0  0  0  0  0  0  0  0  0  0
   13.7795    2.3804   13.2913 C   0  0  2  0  0  0  0  0  0  0  0  0
   13.5945    2.4388   11.7514 N   0  0  0  0  0  0  0  0  0  0  0  0
   14.6245    2.8351   11.1387 C   0  0  0  0  0  0  0  0  0  0  0  0
   14.8884    2.8527    9.8842 O   0  0  0  0  0  0  0  0  0  0  0  0
   15.7825    2.9884   11.9890 N   0  0  0  0  0  0  0  0  0  0  0  0
   15.2382    2.7886   13.4031 C   0  0  2  0  0  0  0  0  0  0  0  0
  1  2  1  0  0  0  0
  1  3  2  0  0  0  0
  1  4  1  0  0  0  0
  4  5  1  0  0  0  0
  5  6  1  0  0  0  0
  6  7  1  0  0  0  0
  8  7  1  6  0  0  0
  8  9  1  0  0  0  0
  8 16  1  0  0  0  0
  9 10  1  0  0  0  0
 11 10  1  6  0  0  0
 11 12  1  0  0  0  0
 11 16  1  0  0  0  0
 12 13  1  0  0  0  0
 13 14  2  0  0  0  0
 13 15  1  0  0  0  0
 16 15  1  6  0  0  0
M  CHG  1   2  -1
M  END
>  <CHROM.1>
130.40551423,72.54760389,60.81328486,-169.36132773,19.91726993,16.67038345
1.09645589,13.28963211,0.61352784,-0.04459656,2.36863691

>  <Name>
1f27 biotin aptamer (Xray 1.3A)

>  <RI>
0

>  <Rbt.Current_Directory>
/home/itssahil/PROJECTS/Mol_Feturizer/New_Systems/rnas/1f27

>  <Rbt.Executable>
rbdock ($Id: //depot/dev/client3/rdock/2013.1/src/exe/rbdock.cxx#4 $)

>  <Rbt.Library>
libRbt.so (2013.1, Build901 2013/11/27)

>  <Rbt.Parameter_File>
/export/apps/rDock/src/rDock_2013.1_src/data/scripts/dock_solv.prm

>  <Rbt.Receptor>
prm/pocket_docking_2.prm

>  <SCORE>
-27.6565

>  <SCORE.INTER>
-29.2306

>  <SCORE.INTER.CONST>
1

>  <SCORE.INTER.POLAR>
-1.82669

>  <SCORE.INTER.ROT>
5

>  <SCORE.INTER.SOLV>
8.85862

>  <SCORE.INTER.VDW>
-23.2843

>  <SCORE.INTER.norm>
-1.82692

>  <SCORE.INTRA>
1.55629

>  <SCORE.INTRA.DIHEDRAL>
-0.153724

>  <SCORE.INTRA.DIHEDRAL.0>
6.87082

>  <SCORE.INTRA.POLAR>
0

>  <SCORE.INTRA.POLAR.0>
0

>  <SCORE.INTRA.REPUL>
0

>  <SCORE.INTRA.REPUL.0>
0

>  <SCORE.INTRA.SOLV>
1.18619

>  <SCORE.INTRA.SOLV.lig_0>
-42.5944

>  <SCORE.INTRA.VDW>
1.04005

>  <SCORE.INTRA.VDW.0>
-1.067

>  <SCORE.INTRA.norm>
0.0972679

>  <SCORE.RESTR>
0.0178963

>  <SCORE.RESTR.CAVITY>
0.0178963

>  <SCORE.RESTR.norm>
0.00111852

>  <SCORE.SYSTEM>
0

>  <SCORE.SYSTEM.CONST>
0

>  <SCORE.SYSTEM.DIHEDRAL>
0

>  <SCORE.SYSTEM.SOLV>
0

>  <SCORE.SYSTEM.norm>
0

>  <SCORE.heavy>
16

>  <SCORE.norm>
-1.72853

>  <RMSD>
1.667

$$$$
1f27 biotin aptamer (Xray 1.3A)
 OpenBabel11021811393D
libRbt.so/2013.1/901 2013/11/27
 16 17  0  0  0  0  0  0  0  0999 V2000
   21.1077   -0.2944   13.2660 C   0  0  0  0  0  0  0  0  0  0  0  0
   20.2523   -1.1163   13.5794 O   0  5  0  0  0  0  0  0  0  0  0  0
   21.8852   -0.5414   12.3457 O   0  0  0  0  0  0  0  0  0  0  0  0
   21.1636    1.0564   13.9679 C   0  0  0  0  0  0  0  0  0  0  0  0
   19.7896    1.7492   14.1060 C   0  0  0  0  0  0  0  0  0  0  0  0
   19.1112    1.9220   12.7596 C   0  0  0  0  0  0  0  0  0  0  0  0
   17.8914    2.8183   12.8079 C   0  0  0  0  0  0  0  0  0  0  0  0
   16.7128    2.2586   13.6153 C   0  0  2  0  0  0  0  0  0  0  0  0
   16.0361    0.5623   13.0406 S   0  0  0  0  0  0  0  0  0  0  0  0
   14.5138    0.9222   14.1352 C   0  0  0  0  0  0  0  0  0  0  0  0
   14.2884    2.4581   14.0196 C   0  0  2  0  0  0  0  0  0  0  0  0
   13.3196    2.6500   12.8222 N   0  0  0  0  0  0  0  0  0  0  0  0
   13.8039    3.3567   11.8953 C   0  0  0  0  0  0  0  0  0  0  0  0
   13.3670    3.5861   10.7119 O   0  0  0  0  0  0  0  0  0  0  0  0
   15.1969    3.6892   12.0864 N   0  0  0  0  0  0  0  0  0  0  0  0
   15.5093    3.1967   13.4991 C   0  0  2  0  0  0  0  0  0  0  0  0
  1  2  1  0  0  0  0
  1  3  2  0  0  0  0
  1  4  1  0  0  0  0
  4  5  1  0  0  0  0
  5  6  1  0  0  0  0
  6  7  1  0  0  0  0
  8  7  1  6  0  0  0
  8  9  1  0  0  0  0
  8 16  1  0  0  0  0
  9 10  1  0  0  0  0
 11 10  1  6  0  0  0
 11 12  1  0  0  0  0
 11 16  1  0  0  0  0
 12 13  1  0  0  0  0
 13 14  2  0  0  0  0
 13 15  1  0  0  0  0
 16 15  1  6  0  0  0
M  CHG  1   2  -1
M  END
>  <CHROM.1>
-46.27799070,-56.04515407,-169.25495322,-66.45551601,-58.01860152,17.06456428
1.65507620,13.01249425,0.39437859,-0.06604343,2.69311632

>  <Name>
1f27 biotin aptamer (Xray 1.3A)

>  <RI>
0

>  <Rbt.Current_Directory>
/home/itssahil/PROJECTS/Mol_Feturizer/New_Systems/rnas/1f27

>  <Rbt.Executable>
rbdock ($Id: //depot/dev/client3/rdock/2013.1/src/exe/rbdock.cxx#4 $)

>  <Rbt.Library>
libRbt.so (2013.1, Build901 2013/11/27)

>  <Rbt.Parameter_File>
/export/apps/rDock/src/rDock_2013.1_src/data/scripts/dock_solv.prm

>  <Rbt.Receptor>
prm/pocket_docking_5.prm

>  <SCORE>
-30.2739

>  <SCORE.INTER>
-28.4132

>  <SCORE.INTER.CONST>
1

>  <SCORE.INTER.POLAR>
-1.7184

>  <SCORE.INTER.ROT>
5

>  <SCORE.INTER.SOLV>
10.9548

>  <SCORE.INTER.VDW>
-23.7991

>  <SCORE.INTER.norm>
-1.77582

>  <SCORE.INTRA>
-1.86076

>  <SCORE.INTRA.DIHEDRAL>
-4.72179

>  <SCORE.INTRA.DIHEDRAL.0>
6.87082

>  <SCORE.INTRA.POLAR>
0

>  <SCORE.INTRA.POLAR.0>
0

>  <SCORE.INTRA.REPUL>
0

>  <SCORE.INTRA.REPUL.0>
0

>  <SCORE.INTRA.SOLV>
0.349624

>  <SCORE.INTRA.SOLV.lig_0>
-42.5944

>  <SCORE.INTRA.VDW>
0.325323

>  <SCORE.INTRA.VDW.0>
-1.067

>  <SCORE.INTRA.norm>
-0.116298

>  <SCORE.RESTR>
0

>  <SCORE.RESTR.CAVITY>
0

>  <SCORE.RESTR.norm>
0

>  <SCORE.SYSTEM>
0

>  <SCORE.SYSTEM.CONST>
0

>  <SCORE.SYSTEM.DIHEDRAL>
0

>  <SCORE.SYSTEM.SOLV>
0

>  <SCORE.SYSTEM.norm>
0

>  <SCORE.heavy>
16

>  <SCORE.norm>
-1.89212

>  <RMSD>
1.670

$$$$
1f27 biotin aptamer (Xray 1.3A)
 OpenBabel11021811393D
libRbt.so/2013.1/901 2013/11/27
 16 17  0  0  0  0  0  0  0  0999 V2000
   20.6709   -2.7538   13.1545 C   0  0  0  0  0  0  0  0  0  0  0  0
   20.6411   -3.8142   13.7708 O   0  5  0  0  0  0  0  0  0  0  0  0
   21.2730   -2.6849   12.0844 O   0  0  0  0  0  0  0  0  0  0  0  0
   19.9074   -1.5438   13.6776 C   0  0  0  0  0  0  0  0  0  0  0  0
   18.3797   -1.6245   13.4621 C   0  0  0  0  0  0  0  0  0  0  0  0
   17.6762   -0.3771   13.9639 C   0  0  0  0  0  0  0  0  0  0  0  0
   16.1861   -0.3732   13.6932 C   0  0  0  0  0  0  0  0  0  0  0  0
   15.4350    0.8462   14.2439 C   0  0  2  0  0  0  0  0  0  0  0  0
   13.5600    0.9157   13.8628 S   0  0  0  0  0  0  0  0  0  0  0  0
   13.6297    2.7456   14.4030 C   0  0  0  0  0  0  0  0  0  0  0  0
   15.0193    3.2554   13.9211 C   0  0  2  0  0  0  0  0  0  0  0  0
   14.7875    3.8138   12.4916 N   0  0  0  0  0  0  0  0  0  0  0  0
   15.4753    3.2298   11.6089 C   0  0  0  0  0  0  0  0  0  0  0  0
   15.4253    3.3099   10.3303 O   0  0  0  0  0  0  0  0  0  0  0  0
   16.1946    2.0777   12.1018 N   0  0  0  0  0  0  0  0  0  0  0  0
   15.9889    2.1269   13.6155 C   0  0  2  0  0  0  0  0  0  0  0  0
  1  2  1  0  0  0  0
  1  3  2  0  0  0  0
  1  4  1  0  0  0  0
  4  5  1  0  0  0  0
  5  6  1  0  0  0  0
  6  7  1  0  0  0  0
  8  7  1  6  0  0  0
  8  9  1  0  0  0  0
  8 16  1  0  0  0  0
  9 10  1  0  0  0  0
 11 10  1  6  0  0  0
 11 12  1  0  0  0  0
 11 16  1  0  0  0  0
 12 13  1  0  0  0  0
 13 14  2  0  0  0  0
 13 15  1  0  0  0  0
 16 15  1  6  0  0  0
M  CHG  1   2  -1
M  END
>  <CHROM.1>
-75.12463013,-178.30510749,176.31085223,177.40020380,177.79814260,16.68369082
0.56430815,13.16839039,-0.55674274,0.51902547,-0.71871870

>  <Name>
1f27 biotin aptamer (Xray 1.3A)

>  <RI>
0

>  <Rbt.Current_Directory>
/home/itssahil/PROJECTS/Mol_Feturizer/New_Systems/rnas/1f27

>  <Rbt.Executable>
rbdock ($Id: //depot/dev/client3/rdock/2013.1/src/exe/rbdock.cxx#4 $)

>  <Rbt.Library>
libRbt.so (2013.1, Build901 2013/11/27)

>  <Rbt.Parameter_File>
/export/apps/rDock/src/rDock_2013.1_src/data/scripts/dock_solv.prm

>  <Rbt.Receptor>
prm/pocket_docking_3.prm

>  <SCORE>
-26.9185

>  <SCORE.INTER>
-24.179

>  <SCORE.INTER.CONST>
1

>  <SCORE.INTER.POLAR>
-1.32115

>  <SCORE.INTER.ROT>
5

>  <SCORE.INTER.SOLV>
9.89359

>  <SCORE.INTER.VDW>
-21.9467

>  <SCORE.INTER.norm>
-1.51119

>  <SCORE.INTRA>
-2.73952

>  <SCORE.INTRA.DIHEDRAL>
-5.47399

>  <SCORE.INTRA.DIHEDRAL.0>
6.87082

>  <SCORE.INTRA.POLAR>
0

>  <SCORE.INTRA.POLAR.0>
0

>  <SCORE.INTRA.REPUL>
0

>  <SCORE.INTRA.REPUL.0>
0

>  <SCORE.INTRA.SOLV>
-0.666719

>  <SCORE.INTRA.SOLV.lig_0>
-42.5944

>  <SCORE.INTRA.VDW>
0.330833

>  <SCORE.INTRA.VDW.0>
-1.067

>  <SCORE.INTRA.norm>
-0.17122

>  <SCORE.RESTR>
0

>  <SCORE.RESTR.CAVITY>
0

>  <SCORE.RESTR.norm>
0

>  <SCORE.SYSTEM>
0

>  <SCORE.SYSTEM.CONST>
0

>  <SCORE.SYSTEM.DIHEDRAL>
0

>  <SCORE.SYSTEM.SOLV>
0

>  <SCORE.SYSTEM.norm>
0

>  <SCORE.heavy>
16

>  <SCORE.norm>
-1.68241

>  <RMSD>
1.673

$$$$
1f27 biotin aptamer (Xray 1.3A)
 OpenBabel11021811393D
libRbt.so/2013.1/901 2013/11/27
 16 17  0  0  0  0  0  0  0  0999 V2000
   21.0585   -0.4064   13.1019 C   0  0  0  0  0  0  0  0  0  0  0  0
   21.8727   -0.5623   12.1974 O   0  5  0  0  0  0  0  0  0  0  0  0
   20.1950   -1.2591   13.3013 O   0  0  0  0  0  0  0  0  0  0  0  0
   21.1579    0.8055   14.0195 C   0  0  0  0  0  0  0  0  0  0  0  0
   20.0720    1.8749   13.7663 C   0  0  0  0  0  0  0  0  0  0  0  0
   18.6917    1.3736   14.1487 C   0  0  0  0  0  0  0  0  0  0  0  0
   17.5849    2.3632   13.8500 C   0  0  0  0  0  0  0  0  0  0  0  0
   16.1838    1.9123   14.2838 C   0  0  2  0  0  0  0  0  0  0  0  0
   15.4992    0.3528   13.4093 S   0  0  0  0  0  0  0  0  0  0  0  0
   13.7937    0.8396   14.1159 C   0  0  0  0  0  0  0  0  0  0  0  0
   13.7739    2.3958   14.0849 C   0  0  2  0  0  0  0  0  0  0  0  0
   13.1750    2.7793   12.7052 N   0  0  0  0  0  0  0  0  0  0  0  0
   13.9566    3.4713   11.9957 C   0  0  0  0  0  0  0  0  0  0  0  0
   13.8687    3.8233   10.7660 O   0  0  0  0  0  0  0  0  0  0  0  0
   15.2801    3.6115   12.5580 N   0  0  0  0  0  0  0  0  0  0  0  0
   15.1606    3.0015   13.9543 C   0  0  2  0  0  0  0  0  0  0  0  0
  1  2  1  0  0  0  0
  1  3  2  0  0  0  0
  1  4  1  0  0  0  0
  4  5  1  0  0  0  0
  5  6  1  0  0  0  0
  6  7  1  0  0  0  0
  8  7  1  6  0  0  0
  8  9  1  0  0  0  0
  8 16  1  0  0  0  0
  9 10  1  0  0  0  0
 11 10  1  6  0  0  0
 11 12  1  0  0  0  0
 11 16  1  0  0  0  0
 12 13  1  0  0  0  0
 13 14  2  0  0  0  0
 13 15  1  0  0  0  0
 16 15  1  6  0  0  0
M  CHG  1   2  -1
M  END
>  <CHROM.1>
106.89540323,67.83810925,-176.98775640,-177.34552883,-63.52242090,16.88246619
1.53385510,13.24108322,0.36858773,-0.11563419,2.66973634

>  <Name>
1f27 biotin aptamer (Xray 1.3A)

>  <RI>
0

>  <Rbt.Current_Directory>
/home/itssahil/PROJECTS/Mol_Feturizer/New_Systems/rnas/1f27

>  <Rbt.Executable>
rbdock ($Id: //depot/dev/client3/rdock/2013.1/src/exe/rbdock.cxx#4 $)

>  <Rbt.Library>
libRbt.so (2013.1, Build901 2013/11/27)

>  <Rbt.Parameter_File>
/export/apps/rDock/src/rDock_2013.1_src/data/scripts/dock_solv.prm

>  <Rbt.Receptor>
prm/pocket_docking_7.prm

>  <SCORE>
-32.2131

>  <SCORE.INTER>
-29.7641

>  <SCORE.INTER.CONST>
1

>  <SCORE.INTER.POLAR>
-1.80095

>  <SCORE.INTER.ROT>
5

>  <SCORE.INTER.SOLV>
12.0132

>  <SCORE.INTER.VDW>
-24.7773

>  <SCORE.INTER.norm>
-1.86026

>  <SCORE.INTRA>
-2.44897

>  <SCORE.INTRA.DIHEDRAL>
-5.09609

>  <SCORE.INTRA.DIHEDRAL.0>
6.87082

>  <SCORE.INTRA.POLAR>
0

>  <SCORE.INTRA.POLAR.0>
0

>  <SCORE.INTRA.REPUL>
0

>  <SCORE.INTRA.REPUL.0>
0

>  <SCORE.INTRA.SOLV>
0.152874

>  <SCORE.INTRA.SOLV.lig_0>
-42.5944

>  <SCORE.INTRA.VDW>
0.0226353

>  <SCORE.INTRA.VDW.0>
-1.067

>  <SCORE.INTRA.norm>
-0.153061

>  <SCORE.RESTR>
0

>  <SCORE.RESTR.CAVITY>
0

>  <SCORE.RESTR.norm>
0

>  <SCORE.SYSTEM>
0

>  <SCORE.SYSTEM.CONST>
0

>  <SCORE.SYSTEM.DIHEDRAL>
0

>  <SCORE.SYSTEM.SOLV>
0

>  <SCORE.SYSTEM.norm>
0

>  <SCORE.heavy>
16

>  <SCORE.norm>
-2.01332

>  <RMSD>
1.674

$$$$
1f27 biotin aptamer (Xray 1.3A)
 OpenBabel11021811393D
libRbt.so/2013.1/901 2013/11/27
 16 17  0  0  0  0  0  0  0  0999 V2000
   20.8237   -0.1128   12.4940 C   0  0  0  0  0  0  0  0  0  0  0  0
   21.9055   -0.5965   12.1762 O   0  5  0  0  0  0  0  0  0  0  0  0
   19.8182   -0.8208   12.5101 O   0  0  0  0  0  0  0  0  0  0  0  0
   20.7366    1.3431   12.9335 C   0  0  0  0  0  0  0  0  0  0  0  0
   20.2838    1.5303   14.3987 C   0  0  0  0  0  0  0  0  0  0  0  0
   18.8312    1.1356   14.5912 C   0  0  0  0  0  0  0  0  0  0  0  0
   17.8535    2.0948   13.9449 C   0  0  0  0  0  0  0  0  0  0  0  0
   16.3743    1.7613   14.1794 C   0  0  2  0  0  0  0  0  0  0  0  0
   15.7863    0.0610   13.5245 S   0  0  0  0  0  0  0  0  0  0  0  0
   14.0059    0.7051   13.7703 C   0  0  0  0  0  0  0  0  0  0  0  0
   14.0735    2.2202   13.4197 C   0  0  2  0  0  0  0  0  0  0  0  0
   13.7662    2.3125   11.9010 N   0  0  0  0  0  0  0  0  0  0  0  0
   14.7025    2.8309   11.2319 C   0  0  0  0  0  0  0  0  0  0  0  0
   14.8664    2.9178    9.9633 O   0  0  0  0  0  0  0  0  0  0  0  0
   15.9018    3.0707   12.0012 N   0  0  0  0  0  0  0  0  0  0  0  0
   15.4897    2.7689   13.4417 C   0  0  2  0  0  0  0  0  0  0  0  0
  1  2  1  0  0  0  0
  1  3  2  0  0  0  0
  1  4  1  0  0  0  0
  4  5  1  0  0  0  0
  5  6  1  0  0  0  0
  6  7  1  0  0  0  0
  8  7  1  6  0  0  0
  8  9  1  0  0  0  0
  8 16  1  0  0  0  0
  9 10  1  0  0  0  0
 11 10  1  6  0  0  0
 11 12  1  0  0  0  0
 11 16  1  0  0  0  0
 12 13  1  0  0  0  0
 13 14  2  0  0  0  0
 13 15  1  0  0  0  0
 16 15  1  6  0  0  0
M  CHG  1   2  -1
M  END
>  <CHROM.1>
-116.11801078,-68.78645418,-70.37360963,-177.15568666,-60.54907581,17.13156092
1.32669583,12.91452228,-0.23077413,0.22951402,-1.11484651

>  <Name>
1f27 biotin aptamer (Xray 1.3A)

>  <RI>
0

>  <Rbt.Current_Directory>
/home/itssahil/PROJECTS/Mol_Feturizer/New_Systems/rnas/1f27

>  <Rbt.Executable>
rbdock ($Id: //depot/dev/client3/rdock/2013.1/src/exe/rbdock.cxx#4 $)

>  <Rbt.Library>
libRbt.so (2013.1, Build901 2013/11/27)

>  <Rbt.Parameter_File>
/export/apps/rDock/src/rDock_2013.1_src/data/scripts/dock_solv.prm

>  <Rbt.Receptor>
prm/pocket_docking_8.prm

>  <SCORE>
-36.4414

>  <SCORE.INTER>
-34.7929

>  <SCORE.INTER.CONST>
1

>  <SCORE.INTER.POLAR>
-2.77334

>  <SCORE.INTER.ROT>
5

>  <SCORE.INTER.SOLV>
15.1007

>  <SCORE.INTER.VDW>
-25.9177

>  <SCORE.INTER.norm>
-2.17455

>  <SCORE.INTRA>
-1.64857

>  <SCORE.INTRA.DIHEDRAL>
-4.76449

>  <SCORE.INTRA.DIHEDRAL.0>
6.87082

>  <SCORE.INTRA.POLAR>
0

>  <SCORE.INTRA.POLAR.0>
0

>  <SCORE.INTRA.REPUL>
0

>  <SCORE.INTRA.REPUL.0>
0

>  <SCORE.INTRA.SOLV>
0.747889

>  <SCORE.INTRA.SOLV.lig_0>
-42.5944

>  <SCORE.INTRA.VDW>
0.359726

>  <SCORE.INTRA.VDW.0>
-1.067

>  <SCORE.INTRA.norm>
-0.103036

>  <SCORE.RESTR>
0

>  <SCORE.RESTR.CAVITY>
0

>  <SCORE.RESTR.norm>
0

>  <SCORE.SYSTEM>
0

>  <SCORE.SYSTEM.CONST>
0

>  <SCORE.SYSTEM.DIHEDRAL>
0

>  <SCORE.SYSTEM.SOLV>
0

>  <SCORE.SYSTEM.norm>
0

>  <SCORE.heavy>
16

>  <SCORE.norm>
-2.27759

>  <RMSD>
1.674

$$$$
1f27 biotin aptamer (Xray 1.3A)
 OpenBabel11021811393D
libRbt.so/2013.1/901 2013/11/27
 16 17  0  0  0  0  0  0  0  0999 V2000
   20.9026   -0.2157   12.7728 C   0  0  0  0  0  0  0  0  0  0  0  0
   21.8996   -0.5581   12.1450 O   0  5  0  0  0  0  0  0  0  0  0  0
   19.7982   -0.6514   12.4521 O   0  0  0  0  0  0  0  0  0  0  0  0
   21.0390    0.6922   13.9884 C   0  0  0  0  0  0  0  0  0  0  0  0
   20.0650    1.8915   13.9884 C   0  0  0  0  0  0  0  0  0  0  0  0
   18.6509    1.4649   14.3368 C   0  0  0  0  0  0  0  0  0  0  0  0
   17.6122    2.5318   14.0599 C   0  0  0  0  0  0  0  0  0  0  0  0
   16.1578    2.0740   14.2314 C   0  0  2  0  0  0  0  0  0  0  0  0
   15.7541    0.3144   13.5938 S   0  0  0  0  0  0  0  0  0  0  0  0
   13.9142    0.8038   13.7364 C   0  0  0  0  0  0  0  0  0  0  0  0
   13.8670    2.3110   13.3498 C   0  0  2  0  0  0  0  0  0  0  0  0
   13.6296    2.3424   11.8163 N   0  0  0  0  0  0  0  0  0  0  0  0
   14.5496    2.9269   11.1797 C   0  0  0  0  0  0  0  0  0  0  0  0
   14.7690    3.0002    9.9187 O   0  0  0  0  0  0  0  0  0  0  0  0
   15.6832    3.2885   11.9994 N   0  0  0  0  0  0  0  0  0  0  0  0
   15.2269    2.9830   13.4258 C   0  0  2  0  0  0  0  0  0  0  0  0
  1  2  1  0  0  0  0
  1  3  2  0  0  0  0
  1  4  1  0  0  0  0
  4  5  1  0  0  0  0
  5  6  1  0  0  0  0
  6  7  1  0  0  0  0
  8  7  1  6  0  0  0
  8  9  1  0  0  0  0
  8 16  1  0  0  0  0
  9 10  1  0  0  0  0
 11 10  1  6  0  0  0
 11 12  1  0  0  0  0
 11 16  1  0  0  0  0
 12 13  1  0  0  0  0
 13 14  2  0  0  0  0
 13 15  1  0  0  0  0
 16 15  1  6  0  0  0
M  CHG  1   2  -1
M  END
>  <CHROM.1>
131.63307959,75.14330365,-167.46867422,172.58257322,-40.04313693,17.03235822
1.46024353,12.94606715,-0.21892701,0.27291070,-1.25795499

>  <Name>
1f27 biotin aptamer (Xray 1.3A)

>  <RI>
0

>  <Rbt.Current_Directory>
/home/itssahil/PROJECTS/Mol_Feturizer/New_Systems/rnas/1f27

>  <Rbt.Executable>
rbdock ($Id: //depot/dev/client3/rdock/2013.1/src/exe/rbdock.cxx#4 $)

>  <Rbt.Library>
libRbt.so (2013.1, Build901 2013/11/27)

>  <Rbt.Parameter_File>
/export/apps/rDock/src/rDock_2013.1_src/data/scripts/dock_solv.prm

>  <Rbt.Receptor>
prm/blind_docking_60.prm

>  <SCORE>
-34.5047

>  <SCORE.INTER>
-33.7338

>  <SCORE.INTER.CONST>
1

>  <SCORE.INTER.POLAR>
-2.79097

>  <SCORE.INTER.ROT>
5

>  <SCORE.INTER.SOLV>
15.0313

>  <SCORE.INTER.VDW>
-25.1297

>  <SCORE.INTER.norm>
-2.10836

>  <SCORE.INTRA>
-0.770887

>  <SCORE.INTRA.DIHEDRAL>
-2.41916

>  <SCORE.INTRA.DIHEDRAL.0>
6.87082

>  <SCORE.INTRA.POLAR>
0

>  <SCORE.INTRA.POLAR.0>
0

>  <SCORE.INTRA.REPUL>
0

>  <SCORE.INTRA.REPUL.0>
0

>  <SCORE.INTRA.SOLV>
0.463736

>  <SCORE.INTRA.SOLV.lig_0>
-42.5944

>  <SCORE.INTRA.VDW>
0.206825

>  <SCORE.INTRA.VDW.0>
-1.067

>  <SCORE.INTRA.norm>
-0.0481804

>  <SCORE.RESTR>
0

>  <SCORE.RESTR.CAVITY>
0

>  <SCORE.RESTR.norm>
0

>  <SCORE.SYSTEM>
0

>  <SCORE.SYSTEM.CONST>
0

>  <SCORE.SYSTEM.DIHEDRAL>
0

>  <SCORE.SYSTEM.SOLV>
0

>  <SCORE.SYSTEM.norm>
0

>  <SCORE.heavy>
16

>  <SCORE.norm>
-2.15654

>  <RMSD>
1.677

$$$$
1f27 biotin aptamer (Xray 1.3A)
 OpenBabel11021811393D
libRbt.so/2013.1/901 2013/11/27
 16 17  0  0  0  0  0  0  0  0999 V2000
   19.9496   -1.3423   13.0379 C   0  0  0  0  0  0  0  0  0  0  0  0
   19.1344   -1.5364   13.9341 O   0  5  0  0  0  0  0  0  0  0  0  0
   20.7094   -2.2468   12.6957 O   0  0  0  0  0  0  0  0  0  0  0  0
   19.9755   -0.0078   12.3037 C   0  0  0  0  0  0  0  0  0  0  0  0
   18.6962    0.8375   12.4933 C   0  0  0  0  0  0  0  0  0  0  0  0
   18.6029    1.4057   13.8973 C   0  0  0  0  0  0  0  0  0  0  0  0
   17.5969    2.5302   14.0287 C   0  0  0  0  0  0  0  0  0  0  0  0
   16.1419    2.0753   14.2026 C   0  0  2  0  0  0  0  0  0  0  0  0
   15.7292    0.3243   13.5472 S   0  0  0  0  0  0  0  0  0  0  0  0
   13.8917    0.8180   13.7049 C   0  0  0  0  0  0  0  0  0  0  0  0
   13.8474    2.3295   13.3356 C   0  0  2  0  0  0  0  0  0  0  0  0
   13.6023    2.3790   11.8037 N   0  0  0  0  0  0  0  0  0  0  0  0
   14.5209    2.9677   11.1690 C   0  0  0  0  0  0  0  0  0  0  0  0
   14.7341    3.0545    9.9078 O   0  0  0  0  0  0  0  0  0  0  0  0
   15.6599    3.3164   11.9868 N   0  0  0  0  0  0  0  0  0  0  0  0
   15.2099    2.9963   13.4120 C   0  0  2  0  0  0  0  0  0  0  0  0
  1  2  1  0  0  0  0
  1  3  2  0  0  0  0
  1  4  1  0  0  0  0
  4  5  1  0  0  0  0
  5  6  1  0  0  0  0
  6  7  1  0  0  0  0
  8  7  1  6  0  0  0
  8  9  1  0  0  0  0
  8 16  1  0  0  0  0
  9 10  1  0  0  0  0
 11 10  1  6  0  0  0
 11 12  1  0  0  0  0
 11 16  1  0  0  0  0
 12 13  1  0  0  0  0
 13 14  2  0  0  0  0
 13 15  1  0  0  0  0
 16 15  1  6  0  0  0
M  CHG  1   2  -1
M  END
>  <CHROM.1>
-16.70578004,71.53525007,164.09581179,82.03973820,-23.50706108,16.70527091
1.14424354,12.86856931,-0.47265435,0.39219128,-0.90291674

>  <Name>
1f27 biotin aptamer (Xray 1.3A)

>  <RI>
0

>  <Rbt.Current_Directory>
/home/itssahil/PROJECTS/Mol_Feturizer/New_Systems/rnas/1f27

>  <Rbt.Executable>
rbdock ($Id: //depot/dev/client3/rdock/2013.1/src/exe/rbdock.cxx#4 $)

>  <Rbt.Library>
libRbt.so (2013.1, Build901 2013/11/27)

>  <Rbt.Parameter_File>
/export/apps/rDock/src/rDock_2013.1_src/data/scripts/dock_solv.prm

>  <Rbt.Receptor>
prm/pocket_docking_2.prm

>  <SCORE>
-27.3111

>  <SCORE.INTER>
-29.662

>  <SCORE.INTER.CONST>
1

>  <SCORE.INTER.POLAR>
-1.78309

>  <SCORE.INTER.ROT>
5

>  <SCORE.INTER.SOLV>
9.38887

>  <SCORE.INTER.VDW>
-23.894

>  <SCORE.INTER.norm>
-1.85387

>  <SCORE.INTRA>
2.35088

>  <SCORE.INTRA.DIHEDRAL>
1.79754

>  <SCORE.INTRA.DIHEDRAL.0>
6.87082

>  <SCORE.INTRA.POLAR>
0

>  <SCORE.INTRA.POLAR.0>
0

>  <SCORE.INTRA.REPUL>
0

>  <SCORE.INTRA.REPUL.0>
0

>  <SCORE.INTRA.SOLV>
0.923484

>  <SCORE.INTRA.SOLV.lig_0>
-42.5944

>  <SCORE.INTRA.VDW>
0.990367

>  <SCORE.INTRA.VDW.0>
-1.067

>  <SCORE.INTRA.norm>
0.14693

>  <SCORE.RESTR>
0

>  <SCORE.RESTR.CAVITY>
0

>  <SCORE.RESTR.norm>
0

>  <SCORE.SYSTEM>
0

>  <SCORE.SYSTEM.CONST>
0

>  <SCORE.SYSTEM.DIHEDRAL>
0

>  <SCORE.SYSTEM.SOLV>
0

>  <SCORE.SYSTEM.norm>
0

>  <SCORE.heavy>
16

>  <SCORE.norm>
-1.70694

>  <RMSD>
1.682

$$$$
1f27 biotin aptamer (Xray 1.3A)
 OpenBabel11021811393D
libRbt.so/2013.1/901 2013/11/27
 16 17  0  0  0  0  0  0  0  0999 V2000
   20.8426   -0.1521   12.5583 C   0  0  0  0  0  0  0  0  0  0  0  0
   21.9198   -0.6150   12.1969 O   0  5  0  0  0  0  0  0  0  0  0  0
   19.8848   -0.9017   12.7403 O   0  0  0  0  0  0  0  0  0  0  0  0
   20.7090    1.3377   12.8472 C   0  0  0  0  0  0  0  0  0  0  0  0
   20.2675    1.6595   14.2923 C   0  0  0  0  0  0  0  0  0  0  0  0
   18.8373    1.2232   14.5517 C   0  0  0  0  0  0  0  0  0  0  0  0
   17.8033    2.1794   13.9947 C   0  0  0  0  0  0  0  0  0  0  0  0
   16.3466    1.7436   14.2007 C   0  0  2  0  0  0  0  0  0  0  0  0
   15.8504    0.0782   13.3970 S   0  0  0  0  0  0  0  0  0  0  0  0
   14.0384    0.5965   13.7022 C   0  0  0  0  0  0  0  0  0  0  0  0
   14.0188    2.1383   13.4886 C   0  0  2  0  0  0  0  0  0  0  0  0
   13.6969    2.3484   11.9848 N   0  0  0  0  0  0  0  0  0  0  0  0
   14.5983    2.9764   11.3634 C   0  0  0  0  0  0  0  0  0  0  0  0
   14.7488    3.1854   10.1074 O   0  0  0  0  0  0  0  0  0  0  0  0
   15.7874    3.2136   12.1492 N   0  0  0  0  0  0  0  0  0  0  0  0
   15.4022    2.7617   13.5575 C   0  0  2  0  0  0  0  0  0  0  0  0
  1  2  1  0  0  0  0
  1  3  2  0  0  0  0
  1  4  1  0  0  0  0
  4  5  1  0  0  0  0
  5  6  1  0  0  0  0
  6  7  1  0  0  0  0
  8  7  1  6  0  0  0
  8  9  1  0  0  0  0
  8 16  1  0  0  0  0
  9 10  1  0  0  0  0
 11 10  1  6  0  0  0
 11 12  1  0  0  0  0
 11 16  1  0  0  0  0
 12 13  1  0  0  0  0
 13 14  2  0  0  0  0
 13 15  1  0  0  0  0
 16 15  1  6  0  0  0
M  CHG  1   2  -1
M  END
>  <CHROM.1>
-120.50411285,-68.15163349,-78.85162245,178.10970622,-60.57935901,17.10973811
1.36169029,12.94423834,-0.27774942,0.19273356,-0.90966784

>  <Name>
1f27 biotin aptamer (Xray 1.3A)

>  <RI>
0

>  <Rbt.Current_Directory>
/home/itssahil/PROJECTS/Mol_Feturizer/New_Systems/rnas/1f27

>  <Rbt.Executable>
rbdock ($Id: //depot/dev/client3/rdock/2013.1/src/exe/rbdock.cxx#4 $)

>  <Rbt.Library>
libRbt.so (2013.1, Build901 2013/11/27)

>  <Rbt.Parameter_File>
/export/apps/rDock/src/rDock_2013.1_src/data/scripts/dock_solv.prm

>  <Rbt.Receptor>
prm/pocket_docking_6.prm

>  <SCORE>
-35.4381

>  <SCORE.INTER>
-34.1247

>  <SCORE.INTER.CONST>
1

>  <SCORE.INTER.POLAR>
-2.70107

>  <SCORE.INTER.ROT>
5

>  <SCORE.INTER.SOLV>
14.1436

>  <SCORE.INTER.VDW>
-25.3941

>  <SCORE.INTER.norm>
-2.1328

>  <SCORE.INTRA>
-1.31339

>  <SCORE.INTRA.DIHEDRAL>
-3.86416

>  <SCORE.INTRA.DIHEDRAL.0>
6.87082

>  <SCORE.INTRA.POLAR>
0

>  <SCORE.INTRA.POLAR.0>
0

>  <SCORE.INTRA.REPUL>
0

>  <SCORE.INTRA.REPUL.0>
0

>  <SCORE.INTRA.SOLV>
0.708215

>  <SCORE.INTRA.SOLV.lig_0>
-42.5944

>  <SCORE.INTRA.VDW>
0.264581

>  <SCORE.INTRA.VDW.0>
-1.067

>  <SCORE.INTRA.norm>
-0.082087

>  <SCORE.RESTR>
0

>  <SCORE.RESTR.CAVITY>
0

>  <SCORE.RESTR.norm>
0

>  <SCORE.SYSTEM>
0

>  <SCORE.SYSTEM.CONST>
0

>  <SCORE.SYSTEM.DIHEDRAL>
0

>  <SCORE.SYSTEM.SOLV>
0

>  <SCORE.SYSTEM.norm>
0

>  <SCORE.heavy>
16

>  <SCORE.norm>
-2.21488

>  <RMSD>
1.682

$$$$
1f27 biotin aptamer (Xray 1.3A)
 OpenBabel11021811393D
libRbt.so/2013.1/901 2013/11/27
 16 17  0  0  0  0  0  0  0  0999 V2000
   20.8301   -0.5660   12.5733 C   0  0  0  0  0  0  0  0  0  0  0  0
   21.9934   -0.6509   12.1927 O   0  5  0  0  0  0  0  0  0  0  0  0
   20.1748   -1.5879   12.7702 O   0  0  0  0  0  0  0  0  0  0  0  0
   20.2194    0.7983   12.8672 C   0  0  0  0  0  0  0  0  0  0  0  0
   18.8726    1.0499   12.1532 C   0  0  0  0  0  0  0  0  0  0  0  0
   18.3302    2.4354   12.4519 C   0  0  0  0  0  0  0  0  0  0  0  0
   17.8282    2.5948   13.8718 C   0  0  0  0  0  0  0  0  0  0  0  0
   16.4133    2.0549   14.1187 C   0  0  2  0  0  0  0  0  0  0  0  0
   16.0274    0.3412   13.3571 S   0  0  0  0  0  0  0  0  0  0  0  0
   14.1884    0.7279   13.6940 C   0  0  0  0  0  0  0  0  0  0  0  0
   14.0477    2.2593   13.4528 C   0  0  2  0  0  0  0  0  0  0  0  0
   13.6789    2.4146   11.9531 N   0  0  0  0  0  0  0  0  0  0  0  0
   14.5168    3.0962   11.3000 C   0  0  0  0  0  0  0  0  0  0  0  0
   14.6242    3.2908   10.0373 O   0  0  0  0  0  0  0  0  0  0  0  0
   15.7010    3.4377   12.0541 N   0  0  0  0  0  0  0  0  0  0  0  0
   15.3812    2.9861   13.4788 C   0  0  2  0  0  0  0  0  0  0  0  0
  1  2  1  0  0  0  0
  1  3  2  0  0  0  0
  1  4  1  0  0  0  0
  4  5  1  0  0  0  0
  5  6  1  0  0  0  0
  6  7  1  0  0  0  0
  8  7  1  6  0  0  0
  8  9  1  0  0  0  0
  8 16  1  0  0  0  0
  9 10  1  0  0  0  0
 11 10  1  6  0  0  0
 11 12  1  0  0  0  0
 11 16  1  0  0  0  0
 12 13  1  0  0  0  0
 13 14  2  0  0  0  0
 13 15  1  0  0  0  0
 16 15  1  6  0  0  0
M  CHG  1   2  -1
M  END
>  <CHROM.1>
128.37143493,-178.46860721,-71.20381099,-81.19206503,44.37862655,17.01380012
1.42941301,12.66455441,-0.36440055,0.25418379,-0.69309496

>  <Name>
1f27 biotin aptamer (Xray 1.3A)

>  <RI>
0

>  <Rbt.Current_Directory>
/home/itssahil/PROJECTS/Mol_Feturizer/New_Systems/rnas/1f27

>  <Rbt.Executable>
rbdock ($Id: //depot/dev/client3/rdock/2013.1/src/exe/rbdock.cxx#4 $)

>  <Rbt.Library>
libRbt.so (2013.1, Build901 2013/11/27)

>  <Rbt.Parameter_File>
/export/apps/rDock/src/rDock_2013.1_src/data/scripts/dock_solv.prm

>  <Rbt.Receptor>
prm/blind_docking_60.prm

>  <SCORE>
-33.2167

>  <SCORE.INTER>
-33.46

>  <SCORE.INTER.CONST>
1

>  <SCORE.INTER.POLAR>
-2.665

>  <SCORE.INTER.ROT>
5

>  <SCORE.INTER.SOLV>
13.1825

>  <SCORE.INTER.VDW>
-24.7508

>  <SCORE.INTER.norm>
-2.09125

>  <SCORE.INTRA>
0.243352

>  <SCORE.INTRA.DIHEDRAL>
-2.41678

>  <SCORE.INTRA.DIHEDRAL.0>
6.87082

>  <SCORE.INTRA.POLAR>
0

>  <SCORE.INTRA.POLAR.0>
0

>  <SCORE.INTRA.REPUL>
0

>  <SCORE.INTRA.REPUL.0>
0

>  <SCORE.INTRA.SOLV>
-0.148113

>  <SCORE.INTRA.SOLV.lig_0>
-42.5944

>  <SCORE.INTRA.VDW>
1.5258

>  <SCORE.INTRA.VDW.0>
-1.067

>  <SCORE.INTRA.norm>
0.0152095

>  <SCORE.RESTR>
0

>  <SCORE.RESTR.CAVITY>
0

>  <SCORE.RESTR.norm>
0

>  <SCORE.SYSTEM>
0

>  <SCORE.SYSTEM.CONST>
0

>  <SCORE.SYSTEM.DIHEDRAL>
0

>  <SCORE.SYSTEM.SOLV>
0

>  <SCORE.SYSTEM.norm>
0

>  <SCORE.heavy>
16

>  <SCORE.norm>
-2.07604

>  <RMSD>
1.687

$$$$
1f27 biotin aptamer (Xray 1.3A)
 OpenBabel11021811393D
libRbt.so/2013.1/901 2013/11/27
 16 17  0  0  0  0  0  0  0  0999 V2000
   20.2285   -1.7646   15.6570 C   0  0  0  0  0  0  0  0  0  0  0  0
   21.0988   -2.4101   15.0814 O   0  5  0  0  0  0  0  0  0  0  0  0
   19.4476   -2.3334   16.4180 O   0  0  0  0  0  0  0  0  0  0  0  0
   20.1572   -0.2529   15.4836 C   0  0  0  0  0  0  0  0  0  0  0  0
   19.0796    0.2135   14.4796 C   0  0  0  0  0  0  0  0  0  0  0  0
   19.0731    1.7232   14.3253 C   0  0  0  0  0  0  0  0  0  0  0  0
   17.9819    2.2324   13.4069 C   0  0  0  0  0  0  0  0  0  0  0  0
   16.5541    2.0377   13.9340 C   0  0  2  0  0  0  0  0  0  0  0  0
   15.8217    0.2799   13.7354 S   0  0  0  0  0  0  0  0  0  0  0  0
   14.1242    1.0623   14.1244 C   0  0  0  0  0  0  0  0  0  0  0  0
   14.1717    2.4740   13.4702 C   0  0  2  0  0  0  0  0  0  0  0  0
   13.6187    2.2876   12.0320 N   0  0  0  0  0  0  0  0  0  0  0  0
   14.4438    2.6108   11.1331 C   0  0  0  0  0  0  0  0  0  0  0  0
   14.3968    2.4401    9.8633 O   0  0  0  0  0  0  0  0  0  0  0  0
   15.7601    2.9248   11.6394 N   0  0  0  0  0  0  0  0  0  0  0  0
   15.5855    2.9329   13.1578 C   0  0  2  0  0  0  0  0  0  0  0  0
  1  2  1  0  0  0  0
  1  3  2  0  0  0  0
  1  4  1  0  0  0  0
  4  5  1  0  0  0  0
  5  6  1  0  0  0  0
  6  7  1  0  0  0  0
  8  7  1  6  0  0  0
  8  9  1  0  0  0  0
  8 16  1  0  0  0  0
  9 10  1  0  0  0  0
 11 10  1  1  0  0  0
 11 12  1  0  0  0  0
 11 16  1  0  0  0  0
 12 13  1  0  0  0  0
 13 14  2  0  0  0  0
 13 15  1  0  0  0  0
 16 15  1  6  0  0  0
M  CHG  1   2  -1
M  END
>  <CHROM.1>
100.56415068,-178.81269174,-176.86340272,67.04348179,-79.17448089,16.91268943
0.93340860,13.62110849,0.75064450,0.05137640,2.44040944

>  <Name>
1f27 biotin aptamer (Xray 1.3A)

>  <RI>
0

>  <Rbt.Current_Directory>
/home/itssahil/PROJECTS/Mol_Feturizer/New_Systems/rnas/1f27

>  <Rbt.Executable>
rbdock ($Id: //depot/dev/client3/rdock/2013.1/src/exe/rbdock.cxx#4 $)

>  <Rbt.Library>
libRbt.so (2013.1, Build901 2013/11/27)

>  <Rbt.Parameter_File>
/export/apps/rDock/src/rDock_2013.1_src/data/scripts/dock_solv.prm

>  <Rbt.Receptor>
prm/pocket_docking_4.prm

>  <SCORE>
-27.6398

>  <SCORE.INTER>
-25.3097

>  <SCORE.INTER.CONST>
1

>  <SCORE.INTER.POLAR>
-1.43255

>  <SCORE.INTER.ROT>
5

>  <SCORE.INTER.SOLV>
9.25414

>  <SCORE.INTER.VDW>
-22.116

>  <SCORE.INTER.norm>
-1.58186

>  <SCORE.INTRA>
-2.33005

>  <SCORE.INTRA.DIHEDRAL>
-3.82516

>  <SCORE.INTRA.DIHEDRAL.0>
6.87082

>  <SCORE.INTRA.POLAR>
0

>  <SCORE.INTRA.POLAR.0>
0

>  <SCORE.INTRA.REPUL>
0

>  <SCORE.INTRA.REPUL.0>
0

>  <SCORE.INTRA.SOLV>
-0.822115

>  <SCORE.INTRA.SOLV.lig_0>
-42.5944

>  <SCORE.INTRA.VDW>
-0.00640886

>  <SCORE.INTRA.VDW.0>
-1.067

>  <SCORE.INTRA.norm>
-0.145628

>  <SCORE.RESTR>
0

>  <SCORE.RESTR.CAVITY>
0

>  <SCORE.RESTR.norm>
0

>  <SCORE.SYSTEM>
0

>  <SCORE.SYSTEM.CONST>
0

>  <SCORE.SYSTEM.DIHEDRAL>
0

>  <SCORE.SYSTEM.SOLV>
0

>  <SCORE.SYSTEM.norm>
0

>  <SCORE.heavy>
16

>  <SCORE.norm>
-1.72749

>  <RMSD>
1.690

$$$$
1f27 biotin aptamer (Xray 1.3A)
 OpenBabel11021811393D
libRbt.so/2013.1/901 2013/11/27
 16 17  0  0  0  0  0  0  0  0999 V2000
   20.9104   -0.2845   12.6699 C   0  0  0  0  0  0  0  0  0  0  0  0
   19.9216   -1.0108   12.6814 O   0  5  0  0  0  0  0  0  0  0  0  0
   22.0129   -0.7562   12.3970 O   0  0  0  0  0  0  0  0  0  0  0  0
   20.7641    1.2101   12.9256 C   0  0  0  0  0  0  0  0  0  0  0  0
   20.2879    1.5589   14.3534 C   0  0  0  0  0  0  0  0  0  0  0  0
   18.8385    1.1659   14.5724 C   0  0  0  0  0  0  0  0  0  0  0  0
   17.8508    2.1122   13.9223 C   0  0  0  0  0  0  0  0  0  0  0  0
   16.3752    1.7727   14.1704 C   0  0  2  0  0  0  0  0  0  0  0  0
   15.7866    0.0728   13.5149 S   0  0  0  0  0  0  0  0  0  0  0  0
   14.0066    0.7097   13.7811 C   0  0  0  0  0  0  0  0  0  0  0  0
   14.0653    2.2265   13.4357 C   0  0  2  0  0  0  0  0  0  0  0  0
   13.7424    2.3235   11.9206 N   0  0  0  0  0  0  0  0  0  0  0  0
   14.6701    2.8478   11.2441 C   0  0  0  0  0  0  0  0  0  0  0  0
   14.8209    2.9401    9.9743 O   0  0  0  0  0  0  0  0  0  0  0  0
   15.8763    3.0887   12.0021 N   0  0  0  0  0  0  0  0  0  0  0  0
   15.4797    2.7800   13.4456 C   0  0  2  0  0  0  0  0  0  0  0  0
  1  2  1  0  0  0  0
  1  3  2  0  0  0  0
  1  4  1  0  0  0  0
  4  5  1  0  0  0  0
  5  6  1  0  0  0  0
  6  7  1  0  0  0  0
  8  7  1  6  0  0  0
  8  9  1  0  0  0  0
  8 16  1  0  0  0  0
  9 10  1  0  0  0  0
 11 10  1  6  0  0  0
 11 12  1  0  0  0  0
 11 16  1  0  0  0  0
 12 13  1  0  0  0  0
 13 14  2  0  0  0  0
 13 15  1  0  0  0  0
 16 15  1  6  0  0  0
M  CHG  1   2  -1
M  END
>  <CHROM.1>
65.54497275,-70.16934324,-76.28327262,-177.76851638,-61.42960227,17.14326499
1.29943059,12.94606622,-0.26975133,0.22342604,-1.03757155

>  <Name>
1f27 biotin aptamer (Xray 1.3A)

>  <RI>
0

>  <Rbt.Current_Directory>
/home/itssahil/PROJECTS/Mol_Feturizer/New_Systems/rnas/1f27

>  <Rbt.Executable>
rbdock ($Id: //depot/dev/client3/rdock/2013.1/src/exe/rbdock.cxx#4 $)

>  <Rbt.Library>
libRbt.so (2013.1, Build901 2013/11/27)

>  <Rbt.Parameter_File>
/export/apps/rDock/src/rDock_2013.1_src/data/scripts/dock_solv.prm

>  <Rbt.Receptor>
prm/pocket_docking_3.prm

>  <SCORE>
-35.9117

>  <SCORE.INTER>
-34.349

>  <SCORE.INTER.CONST>
1

>  <SCORE.INTER.POLAR>
-2.60655

>  <SCORE.INTER.ROT>
5

>  <SCORE.INTER.SOLV>
13.8352

>  <SCORE.INTER.VDW>
-25.7559

>  <SCORE.INTER.norm>
-2.14681

>  <SCORE.INTRA>
-1.58247

>  <SCORE.INTRA.DIHEDRAL>
-4.03754

>  <SCORE.INTRA.DIHEDRAL.0>
6.87082

>  <SCORE.INTRA.POLAR>
0

>  <SCORE.INTRA.POLAR.0>
0

>  <SCORE.INTRA.REPUL>
0

>  <SCORE.INTRA.REPUL.0>
0

>  <SCORE.INTRA.SOLV>
0.543793

>  <SCORE.INTRA.SOLV.lig_0>
-42.5944

>  <SCORE.INTRA.VDW>
0.164405

>  <SCORE.INTRA.VDW.0>
-1.067

>  <SCORE.INTRA.norm>
-0.0989043

>  <SCORE.RESTR>
0.0197671

>  <SCORE.RESTR.CAVITY>
0.0197671

>  <SCORE.RESTR.norm>
0.00123544

>  <SCORE.SYSTEM>
0

>  <SCORE.SYSTEM.CONST>
0

>  <SCORE.SYSTEM.DIHEDRAL>
0

>  <SCORE.SYSTEM.SOLV>
0

>  <SCORE.SYSTEM.norm>
0

>  <SCORE.heavy>
16

>  <SCORE.norm>
-2.24448

>  <RMSD>
1.693

$$$$
1f27 biotin aptamer (Xray 1.3A)
 OpenBabel11021811393D
libRbt.so/2013.1/901 2013/11/27
 16 17  0  0  0  0  0  0  0  0999 V2000
   20.5388   -1.3174   15.8220 C   0  0  0  0  0  0  0  0  0  0  0  0
   21.4905   -1.1741   16.5830 O   0  5  0  0  0  0  0  0  0  0  0  0
   19.7058   -2.1949   16.0426 O   0  0  0  0  0  0  0  0  0  0  0  0
   20.3512   -0.3682   14.6454 C   0  0  0  0  0  0  0  0  0  0  0  0
   19.2066    0.6515   14.8382 C   0  0  0  0  0  0  0  0  0  0  0  0
   18.9826    1.4852   13.5901 C   0  0  0  0  0  0  0  0  0  0  0  0
   17.9134    2.5451   13.7551 C   0  0  0  0  0  0  0  0  0  0  0  0
   16.5043    2.0014   14.0253 C   0  0  2  0  0  0  0  0  0  0  0  0
   16.0979    0.3037   13.2390 S   0  0  0  0  0  0  0  0  0  0  0  0
   14.2680    0.6850   13.6279 C   0  0  0  0  0  0  0  0  0  0  0  0
   14.1236    2.2210   13.4210 C   0  0  2  0  0  0  0  0  0  0  0  0
   13.7187    2.4068   11.9342 N   0  0  0  0  0  0  0  0  0  0  0  0
   14.5414    3.1007   11.2748 C   0  0  0  0  0  0  0  0  0  0  0  0
   14.6186    3.3206   10.0141 O   0  0  0  0  0  0  0  0  0  0  0  0
   15.7440    3.4260   12.0067 N   0  0  0  0  0  0  0  0  0  0  0  0
   15.4582    2.9461   13.4294 C   0  0  2  0  0  0  0  0  0  0  0  0
  1  2  1  0  0  0  0
  1  3  2  0  0  0  0
  1  4  1  0  0  0  0
  4  5  1  0  0  0  0
  5  6  1  0  0  0  0
  6  7  1  0  0  0  0
  8  7  1  6  0  0  0
  8  9  1  0  0  0  0
  8 16  1  0  0  0  0
  9 10  1  0  0  0  0
 11 10  1  6  0  0  0
 11 12  1  0  0  0  0
 11 16  1  0  0  0  0
 12 13  1  0  0  0  0
 13 14  2  0  0  0  0
 13 15  1  0  0  0  0
 16 15  1  6  0  0  0
M  CHG  1   2  -1
M  END
>  <CHROM.1>
-105.88008912,-174.81678496,-177.21238318,-63.50013637,-31.16893092,17.03768810
1.15670982,13.60947512,0.71866287,0.19219609,2.55035240

>  <Name>
1f27 biotin aptamer (Xray 1.3A)

>  <RI>
0

>  <Rbt.Current_Directory>
/home/itssahil/PROJECTS/Mol_Feturizer/New_Systems/rnas/1f27

>  <Rbt.Executable>
rbdock ($Id: //depot/dev/client3/rdock/2013.1/src/exe/rbdock.cxx#4 $)

>  <Rbt.Library>
libRbt.so (2013.1, Build901 2013/11/27)

>  <Rbt.Parameter_File>
/export/apps/rDock/src/rDock_2013.1_src/data/scripts/dock_solv.prm

>  <Rbt.Receptor>
prm/pocket_docking_3.prm

>  <SCORE>
-27.5903

>  <SCORE.INTER>
-26.4014

>  <SCORE.INTER.CONST>
1

>  <SCORE.INTER.POLAR>
-1.71055

>  <SCORE.INTER.ROT>
5

>  <SCORE.INTER.SOLV>
8.66605

>  <SCORE.INTER.VDW>
-21.7211

>  <SCORE.INTER.norm>
-1.65009

>  <SCORE.INTRA>
-1.18896

>  <SCORE.INTRA.DIHEDRAL>
-2.62148

>  <SCORE.INTRA.DIHEDRAL.0>
6.87082

>  <SCORE.INTRA.POLAR>
0

>  <SCORE.INTRA.POLAR.0>
0

>  <SCORE.INTRA.REPUL>
0

>  <SCORE.INTRA.REPUL.0>
0

>  <SCORE.INTRA.SOLV>
-0.693999

>  <SCORE.INTRA.SOLV.lig_0>
-42.5944

>  <SCORE.INTRA.VDW>
0.468782

>  <SCORE.INTRA.VDW.0>
-1.067

>  <SCORE.INTRA.norm>
-0.0743098

>  <SCORE.RESTR>
0

>  <SCORE.RESTR.CAVITY>
0

>  <SCORE.RESTR.norm>
0

>  <SCORE.SYSTEM>
0

>  <SCORE.SYSTEM.CONST>
0

>  <SCORE.SYSTEM.DIHEDRAL>
0

>  <SCORE.SYSTEM.SOLV>
0

>  <SCORE.SYSTEM.norm>
0

>  <SCORE.heavy>
16

>  <SCORE.norm>
-1.7244

>  <RMSD>
1.696

$$$$
1f27 biotin aptamer (Xray 1.3A)
 OpenBabel11021811393D
libRbt.so/2013.1/901 2013/11/27
 16 17  0  0  0  0  0  0  0  0999 V2000
   20.9151   -0.2749   12.6981 C   0  0  0  0  0  0  0  0  0  0  0  0
   19.9342   -1.0102   12.7496 O   0  5  0  0  0  0  0  0  0  0  0  0
   22.0142   -0.7411   12.4029 O   0  0  0  0  0  0  0  0  0  0  0  0
   20.7612    1.2225   12.9318 C   0  0  0  0  0  0  0  0  0  0  0  0
   20.2777    1.5894   14.3526 C   0  0  0  0  0  0  0  0  0  0  0  0
   18.8310    1.1877   14.5735 C   0  0  0  0  0  0  0  0  0  0  0  0
   17.8364    2.1358   13.9367 C   0  0  0  0  0  0  0  0  0  0  0  0
   16.3633    1.7814   14.1790 C   0  0  2  0  0  0  0  0  0  0  0  0
   15.7948    0.0751   13.5224 S   0  0  0  0  0  0  0  0  0  0  0  0
   14.0073    0.6941   13.7807 C   0  0  0  0  0  0  0  0  0  0  0  0
   14.0520    2.2110   13.4343 C   0  0  2  0  0  0  0  0  0  0  0  0
   13.7345    2.3035   11.9178 N   0  0  0  0  0  0  0  0  0  0  0  0
   14.6596    2.8367   11.2447 C   0  0  0  0  0  0  0  0  0  0  0  0
   14.8147    2.9296    9.9754 O   0  0  0  0  0  0  0  0  0  0  0  0
   15.8601    3.0906   12.0075 N   0  0  0  0  0  0  0  0  0  0  0  0
   15.4607    2.7790   13.4495 C   0  0  2  0  0  0  0  0  0  0  0  0
  1  2  1  0  0  0  0
  1  3  2  0  0  0  0
  1  4  1  0  0  0  0
  4  5  1  0  0  0  0
  5  6  1  0  0  0  0
  6  7  1  0  0  0  0
  8  7  1  6  0  0  0
  8  9  1  0  0  0  0
  8 16  1  0  0  0  0
  9 10  1  0  0  0  0
 11 10  1  6  0  0  0
 11 12  1  0  0  0  0
 11 16  1  0  0  0  0
 12 13  1  0  0  0  0
 13 14  2  0  0  0  0
 13 15  1  0  0  0  0
 16 15  1  6  0  0  0
M  CHG  1   2  -1
M  END
>  <CHROM.1>
63.69539429,-69.92095057,-77.81182847,-178.18374709,-60.51036482,17.13874797
1.30265209,12.95536187,-0.27211748,0.21716871,-1.03023628

>  <Name>
1f27 biotin aptamer (Xray 1.3A)

>  <RI>
0

>  <Rbt.Current_Directory>
/home/itssahil/PROJECTS/Mol_Feturizer/New_Systems/rnas/1f27

>  <Rbt.Executable>
rbdock ($Id: //depot/dev/client3/rdock/2013.1/src/exe/rbdock.cxx#4 $)

>  <Rbt.Library>
libRbt.so (2013.1, Build901 2013/11/27)

>  <Rbt.Parameter_File>
/export/apps/rDock/src/rDock_2013.1_src/data/scripts/dock_solv.prm

>  <Rbt.Receptor>
prm/pocket_docking_3.prm

>  <SCORE>
-35.7756

>  <SCORE.INTER>
-34.2874

>  <SCORE.INTER.CONST>
1

>  <SCORE.INTER.POLAR>
-2.60647

>  <SCORE.INTER.ROT>
5

>  <SCORE.INTER.SOLV>
13.6993

>  <SCORE.INTER.VDW>
-25.6698

>  <SCORE.INTER.norm>
-2.14296

>  <SCORE.INTRA>
-1.50095

>  <SCORE.INTRA.DIHEDRAL>
-3.88761

>  <SCORE.INTRA.DIHEDRAL.0>
6.87082

>  <SCORE.INTRA.POLAR>
0

>  <SCORE.INTRA.POLAR.0>
0

>  <SCORE.INTRA.REPUL>
0

>  <SCORE.INTRA.REPUL.0>
0

>  <SCORE.INTRA.SOLV>
0.546544

>  <SCORE.INTRA.SOLV.lig_0>
-42.5944

>  <SCORE.INTRA.VDW>
0.169586

>  <SCORE.INTRA.VDW.0>
-1.067

>  <SCORE.INTRA.norm>
-0.0938093

>  <SCORE.RESTR>
0.0127894

>  <SCORE.RESTR.CAVITY>
0.0127894

>  <SCORE.RESTR.norm>
0.000799337

>  <SCORE.SYSTEM>
0

>  <SCORE.SYSTEM.CONST>
0

>  <SCORE.SYSTEM.DIHEDRAL>
0

>  <SCORE.SYSTEM.SOLV>
0

>  <SCORE.SYSTEM.norm>
0

>  <SCORE.heavy>
16

>  <SCORE.norm>
-2.23597

>  <RMSD>
1.698

$$$$
1f27 biotin aptamer (Xray 1.3A)
 OpenBabel11021811393D
libRbt.so/2013.1/901 2013/11/27
 16 17  0  0  0  0  0  0  0  0999 V2000
   20.8234   -0.0731   12.4751 C   0  0  0  0  0  0  0  0  0  0  0  0
   21.9013   -0.5671   12.1599 O   0  5  0  0  0  0  0  0  0  0  0  0
   19.8145   -0.7757   12.5076 O   0  0  0  0  0  0  0  0  0  0  0  0
   20.7456    1.3901   12.8916 C   0  0  0  0  0  0  0  0  0  0  0  0
   20.2940    1.6032   14.3537 C   0  0  0  0  0  0  0  0  0  0  0  0
   18.8473    1.1937   14.5588 C   0  0  0  0  0  0  0  0  0  0  0  0
   17.8537    2.1520   13.9359 C   0  0  0  0  0  0  0  0  0  0  0  0
   16.3802    1.7979   14.1765 C   0  0  2  0  0  0  0  0  0  0  0  0
   15.8137    0.0890   13.5250 S   0  0  0  0  0  0  0  0  0  0  0  0
   14.0254    0.7082   13.7774 C   0  0  0  0  0  0  0  0  0  0  0  0
   14.0703    2.2239   13.4255 C   0  0  2  0  0  0  0  0  0  0  0  0
   13.7557    2.3107   11.9081 N   0  0  0  0  0  0  0  0  0  0  0  0
   14.6819    2.8419   11.2349 C   0  0  0  0  0  0  0  0  0  0  0  0
   14.8396    2.9302    9.9657 O   0  0  0  0  0  0  0  0  0  0  0  0
   15.8808    3.0990   11.9993 N   0  0  0  0  0  0  0  0  0  0  0  0
   15.4786    2.7924   13.4416 C   0  0  2  0  0  0  0  0  0  0  0  0
  1  2  1  0  0  0  0
  1  3  2  0  0  0  0
  1  4  1  0  0  0  0
  4  5  1  0  0  0  0
  5  6  1  0  0  0  0
  6  7  1  0  0  0  0
  8  7  1  6  0  0  0
  8  9  1  0  0  0  0
  8 16  1  0  0  0  0
  9 10  1  0  0  0  0
 11 10  1  6  0  0  0
 11 12  1  0  0  0  0
 11 16  1  0  0  0  0
 12 13  1  0  0  0  0
 13 14  2  0  0  0  0
 13 15  1  0  0  0  0
 16 15  1  6  0  0  0
M  CHG  1   2  -1
M  END
>  <CHROM.1>
-116.41591336,-67.60001941,-72.40404517,-177.53104427,-59.53996562,17.13261961
1.35738731,12.90621027,-0.22574279,0.22614265,-1.11249197

>  <Name>
1f27 biotin aptamer (Xray 1.3A)

>  <RI>
0

>  <Rbt.Current_Directory>
/home/itssahil/PROJECTS/Mol_Feturizer/New_Systems/rnas/1f27

>  <Rbt.Executable>
rbdock ($Id: //depot/dev/client3/rdock/2013.1/src/exe/rbdock.cxx#4 $)

>  <Rbt.Library>
libRbt.so (2013.1, Build901 2013/11/27)

>  <Rbt.Parameter_File>
/export/apps/rDock/src/rDock_2013.1_src/data/scripts/dock_solv.prm

>  <Rbt.Receptor>
prm/pocket_docking_7.prm

>  <SCORE>
-36.3613

>  <SCORE.INTER>
-34.7677

>  <SCORE.INTER.CONST>
1

>  <SCORE.INTER.POLAR>
-2.77343

>  <SCORE.INTER.ROT>
5

>  <SCORE.INTER.SOLV>
15.1903

>  <SCORE.INTER.VDW>
-25.9305

>  <SCORE.INTER.norm>
-2.17298

>  <SCORE.INTRA>
-1.59356

>  <SCORE.INTRA.DIHEDRAL>
-4.6571

>  <SCORE.INTRA.DIHEDRAL.0>
6.87082

>  <SCORE.INTRA.POLAR>
0

>  <SCORE.INTRA.POLAR.0>
0

>  <SCORE.INTRA.REPUL>
0

>  <SCORE.INTRA.REPUL.0>
0

>  <SCORE.INTRA.SOLV>
0.779757

>  <SCORE.INTRA.SOLV.lig_0>
-42.5944

>  <SCORE.INTRA.VDW>
0.345108

>  <SCORE.INTRA.VDW.0>
-1.067

>  <SCORE.INTRA.norm>
-0.0995978

>  <SCORE.RESTR>
0

>  <SCORE.RESTR.CAVITY>
0

>  <SCORE.RESTR.norm>
0

>  <SCORE.SYSTEM>
0

>  <SCORE.SYSTEM.CONST>
0

>  <SCORE.SYSTEM.DIHEDRAL>
0

>  <SCORE.SYSTEM.SOLV>
0

>  <SCORE.SYSTEM.norm>
0

>  <SCORE.heavy>
16

>  <SCORE.norm>
-2.27258

>  <RMSD>
1.698

$$$$
1f27 biotin aptamer (Xray 1.3A)
 OpenBabel11021811393D
libRbt.so/2013.1/901 2013/11/27
 16 17  0  0  0  0  0  0  0  0999 V2000
   19.5002   -0.7927   14.1324 C   0  0  0  0  0  0  0  0  0  0  0  0
   20.6045   -1.1112   13.7031 O   0  5  0  0  0  0  0  0  0  0  0  0
   18.5545   -1.5717   14.0259 O   0  0  0  0  0  0  0  0  0  0  0  0
   19.3151    0.5348   14.8564 C   0  0  0  0  0  0  0  0  0  0  0  0
   19.9340    1.7433   14.1191 C   0  0  0  0  0  0  0  0  0  0  0  0
   19.2800    1.9709   12.7688 C   0  0  0  0  0  0  0  0  0  0  0  0
   18.0293    2.8221   12.8386 C   0  0  0  0  0  0  0  0  0  0  0  0
   16.8725    2.2024   13.6336 C   0  0  2  0  0  0  0  0  0  0  0  0
   16.2482    0.5019   13.0137 S   0  0  0  0  0  0  0  0  0  0  0  0
   14.7195    0.7820   14.1225 C   0  0  0  0  0  0  0  0  0  0  0  0
   14.4445    2.3124   14.0507 C   0  0  2  0  0  0  0  0  0  0  0  0
   13.4653    2.5064   12.8621 N   0  0  0  0  0  0  0  0  0  0  0  0
   13.9230    3.2539   11.9539 C   0  0  0  0  0  0  0  0  0  0  0  0
   13.4743    3.5020   10.7788 O   0  0  0  0  0  0  0  0  0  0  0  0
   15.3054    3.6255   12.1500 N   0  0  0  0  0  0  0  0  0  0  0  0
   15.6390    3.1041   13.5474 C   0  0  2  0  0  0  0  0  0  0  0  0
  1  2  1  0  0  0  0
  1  3  2  0  0  0  0
  1  4  1  0  0  0  0
  4  5  1  0  0  0  0
  5  6  1  0  0  0  0
  6  7  1  0  0  0  0
  8  7  1  6  0  0  0
  8  9  1  0  0  0  0
  8 16  1  0  0  0  0
  9 10  1  0  0  0  0
 11 10  1  6  0  0  0
 11 12  1  0  0  0  0
 11 16  1  0  0  0  0
 12 13  1  0  0  0  0
 13 14  2  0  0  0  0
 13 15  1  0  0  0  0
 16 15  1  6  0  0  0
M  CHG  1   2  -1
M  END
>  <CHROM.1>
48.05942454,62.67110944,85.92324184,-64.05646523,-58.38012644,16.80101312
1.48050838,13.24280241,0.56966592,0.07741958,2.77997544

>  <Name>
1f27 biotin aptamer (Xray 1.3A)

>  <RI>
0

>  <Rbt.Current_Directory>
/home/itssahil/PROJECTS/Mol_Feturizer/New_Systems/rnas/1f27

>  <Rbt.Executable>
rbdock ($Id: //depot/dev/client3/rdock/2013.1/src/exe/rbdock.cxx#4 $)

>  <Rbt.Library>
libRbt.so (2013.1, Build901 2013/11/27)

>  <Rbt.Parameter_File>
/export/apps/rDock/src/rDock_2013.1_src/data/scripts/dock_solv.prm

>  <Rbt.Receptor>
prm/blind_docking_60.prm

>  <SCORE>
-24.8155

>  <SCORE.INTER>
-23.7986

>  <SCORE.INTER.CONST>
1

>  <SCORE.INTER.POLAR>
-0.848528

>  <SCORE.INTER.ROT>
5

>  <SCORE.INTER.SOLV>
8.25978

>  <SCORE.INTER.VDW>
-22.7239

>  <SCORE.INTER.norm>
-1.48741

>  <SCORE.INTRA>
-1.01695

>  <SCORE.INTRA.DIHEDRAL>
-3.05483

>  <SCORE.INTRA.DIHEDRAL.0>
6.87082

>  <SCORE.INTRA.POLAR>
0

>  <SCORE.INTRA.POLAR.0>
0

>  <SCORE.INTRA.REPUL>
0

>  <SCORE.INTRA.REPUL.0>
0

>  <SCORE.INTRA.SOLV>
1.47199

>  <SCORE.INTRA.SOLV.lig_0>
-42.5944

>  <SCORE.INTRA.VDW>
-0.225528

>  <SCORE.INTRA.VDW.0>
-1.067

>  <SCORE.INTRA.norm>
-0.0635592

>  <SCORE.RESTR>
0

>  <SCORE.RESTR.CAVITY>
0

>  <SCORE.RESTR.norm>
0

>  <SCORE.SYSTEM>
0

>  <SCORE.SYSTEM.CONST>
0

>  <SCORE.SYSTEM.DIHEDRAL>
0

>  <SCORE.SYSTEM.SOLV>
0

>  <SCORE.SYSTEM.norm>
0

>  <SCORE.heavy>
16

>  <SCORE.norm>
-1.55097

>  <RMSD>
1.699

$$$$
1f27 biotin aptamer (Xray 1.3A)
 OpenBabel11021811393D
libRbt.so/2013.1/901 2013/11/27
 16 17  0  0  0  0  0  0  0  0999 V2000
   21.2010   -0.4474   13.2207 C   0  0  0  0  0  0  0  0  0  0  0  0
   20.3263   -1.2922   13.3834 O   0  5  0  0  0  0  0  0  0  0  0  0
   21.9386   -0.5119   12.2387 O   0  0  0  0  0  0  0  0  0  0  0  0
   21.3301    0.7169   14.1944 C   0  0  0  0  0  0  0  0  0  0  0  0
   20.1928    1.7568   14.0834 C   0  0  0  0  0  0  0  0  0  0  0  0
   18.8373    1.1377   14.3699 C   0  0  0  0  0  0  0  0  0  0  0  0
   17.6963    2.1325   14.3231 C   0  0  0  0  0  0  0  0  0  0  0  0
   16.2982    1.5153   14.4598 C   0  0  2  0  0  0  0  0  0  0  0  0
   15.8217    0.2213   13.1316 S   0  0  0  0  0  0  0  0  0  0  0  0
   14.0239    0.4172   13.7434 C   0  0  0  0  0  0  0  0  0  0  0  0
   13.8891    1.9206   14.1237 C   0  0  2  0  0  0  0  0  0  0  0  0
   13.3991    2.6357   12.8362 N   0  0  0  0  0  0  0  0  0  0  0  0
   14.1908    3.5304   12.4288 C   0  0  0  0  0  0  0  0  0  0  0  0
   14.1958    4.1984   11.3346 O   0  0  0  0  0  0  0  0  0  0  0  0
   15.4393    3.5748   13.1548 N   0  0  0  0  0  0  0  0  0  0  0  0
   15.2319    2.6037   14.3166 C   0  0  2  0  0  0  0  0  0  0  0  0
  1  2  1  0  0  0  0
  1  3  2  0  0  0  0
  1  4  1  0  0  0  0
  4  5  1  0  0  0  0
  5  6  1  0  0  0  0
  6  7  1  0  0  0  0
  8  7  1  6  0  0  0
  8  9  1  0  0  0  0
  8 16  1  0  0  0  0
  9 10  1  0  0  0  0
 11 10  1  6  0  0  0
 11 12  1  0  0  0  0
 11 16  1  0  0  0  0
 12 13  1  0  0  0  0
 13 14  2  0  0  0  0
 13 15  1  0  0  0  0
 16 15  1  6  0  0  0
M  CHG  1   2  -1
M  END
>  <CHROM.1>
-71.12580653,60.60740634,177.84821845,173.78076312,-59.18926988,17.06307540
1.40180535,13.40013726,0.38608124,-0.00487550,2.96926351

>  <Name>
1f27 biotin aptamer (Xray 1.3A)

>  <RI>
0

>  <Rbt.Current_Directory>
/home/itssahil/PROJECTS/Mol_Feturizer/New_Systems/rnas/1f27

>  <Rbt.Executable>
rbdock ($Id: //depot/dev/client3/rdock/2013.1/src/exe/rbdock.cxx#4 $)

>  <Rbt.Library>
libRbt.so (2013.1, Build901 2013/11/27)

>  <Rbt.Parameter_File>
/export/apps/rDock/src/rDock_2013.1_src/data/scripts/dock_solv.prm

>  <Rbt.Receptor>
prm/pocket_docking_4.prm

>  <SCORE>
-33.8934

>  <SCORE.INTER>
-31.5845

>  <SCORE.INTER.CONST>
1

>  <SCORE.INTER.POLAR>
-2.52469

>  <SCORE.INTER.ROT>
5

>  <SCORE.INTER.SOLV>
12.8398

>  <SCORE.INTER.VDW>
-23.854

>  <SCORE.INTER.norm>
-1.97403

>  <SCORE.INTRA>
-2.30881

>  <SCORE.INTRA.DIHEDRAL>
-5.38536

>  <SCORE.INTRA.DIHEDRAL.0>
6.87082

>  <SCORE.INTRA.POLAR>
0

>  <SCORE.INTRA.POLAR.0>
0

>  <SCORE.INTRA.REPUL>
0

>  <SCORE.INTRA.REPUL.0>
0

>  <SCORE.INTRA.SOLV>
0.325053

>  <SCORE.INTRA.SOLV.lig_0>
-42.5944

>  <SCORE.INTRA.VDW>
0.221337

>  <SCORE.INTRA.VDW.0>
-1.067

>  <SCORE.INTRA.norm>
-0.144301

>  <SCORE.RESTR>
0

>  <SCORE.RESTR.CAVITY>
0

>  <SCORE.RESTR.norm>
0

>  <SCORE.SYSTEM>
0

>  <SCORE.SYSTEM.CONST>
0

>  <SCORE.SYSTEM.DIHEDRAL>
0

>  <SCORE.SYSTEM.SOLV>
0

>  <SCORE.SYSTEM.norm>
0

>  <SCORE.heavy>
16

>  <SCORE.norm>
-2.11833

>  <RMSD>
1.699

$$$$
1f27 biotin aptamer (Xray 1.3A)
 OpenBabel11021811393D
libRbt.so/2013.1/901 2013/11/27
 16 17  0  0  0  0  0  0  0  0999 V2000
   19.3791   -2.7027   14.1337 C   0  0  0  0  0  0  0  0  0  0  0  0
   18.5905   -3.6252   13.9535 O   0  5  0  0  0  0  0  0  0  0  0  0
   20.3331   -2.8534   14.8951 O   0  0  0  0  0  0  0  0  0  0  0  0
   19.2175   -1.3975   13.3650 C   0  0  0  0  0  0  0  0  0  0  0  0
   18.5354   -0.2726   14.1751 C   0  0  0  0  0  0  0  0  0  0  0  0
   18.3807    0.9944   13.3542 C   0  0  0  0  0  0  0  0  0  0  0  0
   17.6134    2.0875   14.0684 C   0  0  0  0  0  0  0  0  0  0  0  0
   16.1125    1.8162   14.2362 C   0  0  2  0  0  0  0  0  0  0  0  0
   15.4943    0.1170   13.6068 S   0  0  0  0  0  0  0  0  0  0  0  0
   13.7296    0.8334   13.7385 C   0  0  0  0  0  0  0  0  0  0  0  0
   13.8726    2.3322   13.3431 C   0  0  2  0  0  0  0  0  0  0  0  0
   13.6467    2.3835   11.8084 N   0  0  0  0  0  0  0  0  0  0  0  0
   14.6348    2.8444   11.1726 C   0  0  0  0  0  0  0  0  0  0  0  0
   14.8663    2.8818    9.9121 O   0  0  0  0  0  0  0  0  0  0  0  0
   15.8017    3.0666   11.9951 N   0  0  0  0  0  0  0  0  0  0  0  0
   15.3056    2.8295   13.4212 C   0  0  2  0  0  0  0  0  0  0  0  0
  1  2  1  0  0  0  0
  1  3  2  0  0  0  0
  1  4  1  0  0  0  0
  4  5  1  0  0  0  0
  5  6  1  0  0  0  0
  6  7  1  0  0  0  0
  8  7  1  6  0  0  0
  8  9  1  0  0  0  0
  8 16  1  0  0  0  0
  9 10  1  0  0  0  0
 11 10  1  6  0  0  0
 11 12  1  0  0  0  0
 11 16  1  0  0  0  0
 12 13  1  0  0  0  0
 13 14  2  0  0  0  0
 13 15  1  0  0  0  0
 16 15  1  6  0  0  0
M  CHG  1   2  -1
M  END
>  <CHROM.1>
99.96994852,-179.07724638,175.18164314,-70.75021277,3.25534090,16.54216167
0.62476073,13.21145456,0.84020531,-0.05597004,2.67046297

>  <Name>
1f27 biotin aptamer (Xray 1.3A)

>  <RI>
0

>  <Rbt.Current_Directory>
/home/itssahil/PROJECTS/Mol_Feturizer/New_Systems/rnas/1f27

>  <Rbt.Executable>
rbdock ($Id: //depot/dev/client3/rdock/2013.1/src/exe/rbdock.cxx#4 $)

>  <Rbt.Library>
libRbt.so (2013.1, Build901 2013/11/27)

>  <Rbt.Parameter_File>
/export/apps/rDock/src/rDock_2013.1_src/data/scripts/dock_solv.prm

>  <Rbt.Receptor>
prm/pocket_docking_4.prm

>  <SCORE>
-27.0642

>  <SCORE.INTER>
-28.3213

>  <SCORE.INTER.CONST>
1

>  <SCORE.INTER.POLAR>
-1.85371

>  <SCORE.INTER.ROT>
5

>  <SCORE.INTER.SOLV>
9.11325

>  <SCORE.INTER.VDW>
-22.6729

>  <SCORE.INTER.norm>
-1.77008

>  <SCORE.INTRA>
1.25717

>  <SCORE.INTRA.DIHEDRAL>
0.961397

>  <SCORE.INTRA.DIHEDRAL.0>
6.87082

>  <SCORE.INTRA.POLAR>
0

>  <SCORE.INTRA.POLAR.0>
0

>  <SCORE.INTRA.REPUL>
0

>  <SCORE.INTRA.REPUL.0>
0

>  <SCORE.INTRA.SOLV>
-0.563973

>  <SCORE.INTRA.SOLV.lig_0>
-42.5944

>  <SCORE.INTRA.VDW>
1.05846

>  <SCORE.INTRA.VDW.0>
-1.067

>  <SCORE.INTRA.norm>
0.078573

>  <SCORE.RESTR>
0

>  <SCORE.RESTR.CAVITY>
0

>  <SCORE.RESTR.norm>
0

>  <SCORE.SYSTEM>
0

>  <SCORE.SYSTEM.CONST>
0

>  <SCORE.SYSTEM.DIHEDRAL>
0

>  <SCORE.SYSTEM.SOLV>
0

>  <SCORE.SYSTEM.norm>
0

>  <SCORE.heavy>
16

>  <SCORE.norm>
-1.69151

>  <RMSD>
1.705

$$$$
1f27 biotin aptamer (Xray 1.3A)
 OpenBabel11021811393D
libRbt.so/2013.1/901 2013/11/27
 16 17  0  0  0  0  0  0  0  0999 V2000
   20.8915   -0.2406   12.5214 C   0  0  0  0  0  0  0  0  0  0  0  0
   19.9109   -0.9763   12.5730 O   0  5  0  0  0  0  0  0  0  0  0  0
   21.9660   -0.6809   12.1163 O   0  0  0  0  0  0  0  0  0  0  0  0
   20.7634    1.2312   12.8928 C   0  0  0  0  0  0  0  0  0  0  0  0
   20.3127    1.4736   14.3506 C   0  0  0  0  0  0  0  0  0  0  0  0
   18.8574    1.0966   14.5574 C   0  0  0  0  0  0  0  0  0  0  0  0
   17.8845    2.0909   13.9585 C   0  0  0  0  0  0  0  0  0  0  0  0
   16.4039    1.7670   14.1980 C   0  0  2  0  0  0  0  0  0  0  0  0
   15.8085    0.0605   13.5664 S   0  0  0  0  0  0  0  0  0  0  0  0
   14.0310    0.7154   13.8041 C   0  0  0  0  0  0  0  0  0  0  0  0
   14.1049    2.2254   13.4330 C   0  0  2  0  0  0  0  0  0  0  0  0
   13.7973    2.2985   11.9134 N   0  0  0  0  0  0  0  0  0  0  0  0
   14.7356    2.8038   11.2370 C   0  0  0  0  0  0  0  0  0  0  0  0
   14.8993    2.8729    9.9673 O   0  0  0  0  0  0  0  0  0  0  0  0
   15.9362    3.0488   12.0025 N   0  0  0  0  0  0  0  0  0  0  0  0
   15.5234    2.7683   13.4471 C   0  0  2  0  0  0  0  0  0  0  0  0
  1  2  1  0  0  0  0
  1  3  2  0  0  0  0
  1  4  1  0  0  0  0
  4  5  1  0  0  0  0
  5  6  1  0  0  0  0
  6  7  1  0  0  0  0
  8  7  1  6  0  0  0
  8  9  1  0  0  0  0
  8 16  1  0  0  0  0
  9 10  1  0  0  0  0
 11 10  1  6  0  0  0
 11 12  1  0  0  0  0
 11 16  1  0  0  0  0
 12 13  1  0  0  0  0
 13 14  2  0  0  0  0
 13 15  1  0  0  0  0
 16 15  1  6  0  0  0
M  CHG  1   2  -1
M  END
>  <CHROM.1>
61.05474594,-71.02697371,-74.32976973,-177.72032125,-57.54977294,17.16875504
1.28694332,12.92061090,-0.22632810,0.24872071,-1.12422623

>  <Name>
1f27 biotin aptamer (Xray 1.3A)

>  <RI>
0

>  <Rbt.Current_Directory>
/home/itssahil/PROJECTS/Mol_Feturizer/New_Systems/rnas/1f27

>  <Rbt.Executable>
rbdock ($Id: //depot/dev/client3/rdock/2013.1/src/exe/rbdock.cxx#4 $)

>  <Rbt.Library>
libRbt.so (2013.1, Build901 2013/11/27)

>  <Rbt.Parameter_File>
/export/apps/rDock/src/rDock_2013.1_src/data/scripts/dock_solv.prm

>  <Rbt.Receptor>
prm/pocket_docking_8.prm

>  <SCORE>
-36.3674

>  <SCORE.INTER>
-34.811

>  <SCORE.INTER.CONST>
1

>  <SCORE.INTER.POLAR>
-2.78829

>  <SCORE.INTER.ROT>
5

>  <SCORE.INTER.SOLV>
14.9214

>  <SCORE.INTER.VDW>
-25.8201

>  <SCORE.INTER.norm>
-2.17569

>  <SCORE.INTRA>
-1.55643

>  <SCORE.INTRA.DIHEDRAL>
-4.20208

>  <SCORE.INTRA.DIHEDRAL.0>
6.87082

>  <SCORE.INTRA.POLAR>
0

>  <SCORE.INTRA.POLAR.0>
0

>  <SCORE.INTRA.REPUL>
0

>  <SCORE.INTRA.REPUL.0>
0

>  <SCORE.INTRA.SOLV>
0.560641

>  <SCORE.INTRA.SOLV.lig_0>
-42.5944

>  <SCORE.INTRA.VDW>
0.264283

>  <SCORE.INTRA.VDW.0>
-1.067

>  <SCORE.INTRA.norm>
-0.0972772

>  <SCORE.RESTR>
0

>  <SCORE.RESTR.CAVITY>
0

>  <SCORE.RESTR.norm>
0

>  <SCORE.SYSTEM>
0

>  <SCORE.SYSTEM.CONST>
0

>  <SCORE.SYSTEM.DIHEDRAL>
0

>  <SCORE.SYSTEM.SOLV>
0

>  <SCORE.SYSTEM.norm>
0

>  <SCORE.heavy>
16

>  <SCORE.norm>
-2.27296

>  <RMSD>
1.705

$$$$
1f27 biotin aptamer (Xray 1.3A)
 OpenBabel11021811393D
libRbt.so/2013.1/901 2013/11/27
 16 17  0  0  0  0  0  0  0  0999 V2000
   20.7225   -2.7709   13.1598 C   0  0  0  0  0  0  0  0  0  0  0  0
   21.3676   -2.7350   12.1168 O   0  5  0  0  0  0  0  0  0  0  0  0
   20.7385   -3.7858   13.8543 O   0  0  0  0  0  0  0  0  0  0  0  0
   19.9586   -1.5394   13.6291 C   0  0  0  0  0  0  0  0  0  0  0  0
   18.4313   -1.6284   13.4136 C   0  0  0  0  0  0  0  0  0  0  0  0
   17.7251   -0.3688   13.8801 C   0  0  0  0  0  0  0  0  0  0  0  0
   16.2305   -0.3884   13.6367 C   0  0  0  0  0  0  0  0  0  0  0  0
   15.4690    0.8138   14.2105 C   0  0  2  0  0  0  0  0  0  0  0  0
   13.5910    0.8675   13.8420 S   0  0  0  0  0  0  0  0  0  0  0  0
   13.6433    2.6896   14.4096 C   0  0  0  0  0  0  0  0  0  0  0  0
   15.0239    3.2227   13.9269 C   0  0  2  0  0  0  0  0  0  0  0  0
   14.7767    3.7999   12.5075 N   0  0  0  0  0  0  0  0  0  0  0  0
   15.4656    3.2373   11.6119 C   0  0  0  0  0  0  0  0  0  0  0  0
   15.4066    3.3362   10.3350 O   0  0  0  0  0  0  0  0  0  0  0  0
   16.2010    2.0862   12.0827 N   0  0  0  0  0  0  0  0  0  0  0  0
   16.0043    2.1101   13.5982 C   0  0  2  0  0  0  0  0  0  0  0  0
  1  2  1  0  0  0  0
  1  3  2  0  0  0  0
  1  4  1  0  0  0  0
  4  5  1  0  0  0  0
  5  6  1  0  0  0  0
  6  7  1  0  0  0  0
  8  7  1  6  0  0  0
  8  9  1  0  0  0  0
  8 16  1  0  0  0  0
  9 10  1  0  0  0  0
 11 10  1  6  0  0  0
 11 12  1  0  0  0  0
 11 16  1  0  0  0  0
 12 13  1  0  0  0  0
 13 14  2  0  0  0  0
 13 15  1  0  0  0  0
 16 15  1  6  0  0  0
M  CHG  1   2  -1
M  END
>  <CHROM.1>
104.58801376,-179.18868637,177.66622506,174.72586954,176.92105107,16.71592625
0.54950935,13.15809387,-0.55706923,0.50871478,-0.71487394

>  <Name>
1f27 biotin aptamer (Xray 1.3A)

>  <RI>
0

>  <Rbt.Current_Directory>
/home/itssahil/PROJECTS/Mol_Feturizer/New_Systems/rnas/1f27

>  <Rbt.Executable>
rbdock ($Id: //depot/dev/client3/rdock/2013.1/src/exe/rbdock.cxx#4 $)

>  <Rbt.Library>
libRbt.so (2013.1, Build901 2013/11/27)

>  <Rbt.Parameter_File>
/export/apps/rDock/src/rDock_2013.1_src/data/scripts/dock_solv.prm

>  <Rbt.Receptor>
prm/pocket_docking_6.prm

>  <SCORE>
-26.8323

>  <SCORE.INTER>
-24.2074

>  <SCORE.INTER.CONST>
1

>  <SCORE.INTER.POLAR>
-1.27398

>  <SCORE.INTER.ROT>
5

>  <SCORE.INTER.SOLV>
9.72813

>  <SCORE.INTER.VDW>
-22.0677

>  <SCORE.INTER.norm>
-1.51296

>  <SCORE.INTRA>
-2.62485

>  <SCORE.INTRA.DIHEDRAL>
-5.2479

>  <SCORE.INTRA.DIHEDRAL.0>
6.87082

>  <SCORE.INTRA.POLAR>
0

>  <SCORE.INTRA.POLAR.0>
0

>  <SCORE.INTRA.REPUL>
0

>  <SCORE.INTRA.REPUL.0>
0

>  <SCORE.INTRA.SOLV>
-0.702726

>  <SCORE.INTRA.SOLV.lig_0>
-42.5944

>  <SCORE.INTRA.VDW>
0.350463

>  <SCORE.INTRA.VDW.0>
-1.067

>  <SCORE.INTRA.norm>
-0.164053

>  <SCORE.RESTR>
0

>  <SCORE.RESTR.CAVITY>
0

>  <SCORE.RESTR.norm>
0

>  <SCORE.SYSTEM>
0

>  <SCORE.SYSTEM.CONST>
0

>  <SCORE.SYSTEM.DIHEDRAL>
0

>  <SCORE.SYSTEM.SOLV>
0

>  <SCORE.SYSTEM.norm>
0

>  <SCORE.heavy>
16

>  <SCORE.norm>
-1.67702

>  <RMSD>
1.709

$$$$
1f27 biotin aptamer (Xray 1.3A)
 OpenBabel11021811393D
libRbt.so/2013.1/901 2013/11/27
 16 17  0  0  0  0  0  0  0  0999 V2000
   20.5078   -0.8635   14.2561 C   0  0  0  0  0  0  0  0  0  0  0  0
   19.8762   -1.8954   14.0521 O   0  5  0  0  0  0  0  0  0  0  0  0
   21.0996   -0.7094   15.3231 O   0  0  0  0  0  0  0  0  0  0  0  0
   20.6163    0.1947   13.1657 C   0  0  0  0  0  0  0  0  0  0  0  0
   19.3015    0.9625   12.9033 C   0  0  0  0  0  0  0  0  0  0  0  0
   18.8819    1.7837   14.1085 C   0  0  0  0  0  0  0  0  0  0  0  0
   17.7501    2.7475   13.8190 C   0  0  0  0  0  0  0  0  0  0  0  0
   16.3445    2.1783   14.0521 C   0  0  2  0  0  0  0  0  0  0  0  0
   15.9926    0.4696   13.2632 S   0  0  0  0  0  0  0  0  0  0  0  0
   14.1456    0.8177   13.5986 C   0  0  0  0  0  0  0  0  0  0  0  0
   13.9780    2.3497   13.3799 C   0  0  2  0  0  0  0  0  0  0  0  0
   13.6119    2.5211   11.8814 N   0  0  0  0  0  0  0  0  0  0  0  0
   14.4397    3.2276   11.2419 C   0  0  0  0  0  0  0  0  0  0  0  0
   14.5482    3.4433    9.9828 O   0  0  0  0  0  0  0  0  0  0  0  0
   15.6147    3.5790   12.0058 N   0  0  0  0  0  0  0  0  0  0  0  0
   15.2979    3.1002   13.4222 C   0  0  2  0  0  0  0  0  0  0  0  0
  1  2  1  0  0  0  0
  1  3  2  0  0  0  0
  1  4  1  0  0  0  0
  4  5  1  0  0  0  0
  5  6  1  0  0  0  0
  6  7  1  0  0  0  0
  8  7  1  6  0  0  0
  8  9  1  0  0  0  0
  8 16  1  0  0  0  0
  9 10  1  0  0  0  0
 11 10  1  6  0  0  0
 11 12  1  0  0  0  0
 11 16  1  0  0  0  0
 12 13  1  0  0  0  0
 13 14  2  0  0  0  0
 13 15  1  0  0  0  0
 16 15  1  6  0  0  0
M  CHG  1   2  -1
M  END
>  <CHROM.1>
71.38938835,64.75090106,169.30426750,90.39666294,-49.06290863,16.95722927
1.39355678,13.14848664,0.59398035,0.01543399,2.56182219

>  <Name>
1f27 biotin aptamer (Xray 1.3A)

>  <RI>
0

>  <Rbt.Current_Directory>
/home/itssahil/PROJECTS/Mol_Feturizer/New_Systems/rnas/1f27

>  <Rbt.Executable>
rbdock ($Id: //depot/dev/client3/rdock/2013.1/src/exe/rbdock.cxx#4 $)

>  <Rbt.Library>
libRbt.so (2013.1, Build901 2013/11/27)

>  <Rbt.Parameter_File>
/export/apps/rDock/src/rDock_2013.1_src/data/scripts/dock_solv.prm

>  <Rbt.Receptor>
prm/pocket_docking_4.prm

>  <SCORE>
-28.5915

>  <SCORE.INTER>
-27.9021

>  <SCORE.INTER.CONST>
1

>  <SCORE.INTER.POLAR>
-1.70067

>  <SCORE.INTER.ROT>
5

>  <SCORE.INTER.SOLV>
7.57082

>  <SCORE.INTER.VDW>
-22.3894

>  <SCORE.INTER.norm>
-1.74388

>  <SCORE.INTRA>
-0.689445

>  <SCORE.INTRA.DIHEDRAL>
-1.30044

>  <SCORE.INTRA.DIHEDRAL.0>
6.87082

>  <SCORE.INTRA.POLAR>
0

>  <SCORE.INTRA.POLAR.0>
0

>  <SCORE.INTRA.REPUL>
0

>  <SCORE.INTRA.REPUL.0>
0

>  <SCORE.INTRA.SOLV>
0.1867

>  <SCORE.INTRA.SOLV.lig_0>
-42.5944

>  <SCORE.INTRA.VDW>
-0.132574

>  <SCORE.INTRA.VDW.0>
-1.067

>  <SCORE.INTRA.norm>
-0.0430903

>  <SCORE.RESTR>
0

>  <SCORE.RESTR.CAVITY>
0

>  <SCORE.RESTR.norm>
0

>  <SCORE.SYSTEM>
0

>  <SCORE.SYSTEM.CONST>
0

>  <SCORE.SYSTEM.DIHEDRAL>
0

>  <SCORE.SYSTEM.SOLV>
0

>  <SCORE.SYSTEM.norm>
0

>  <SCORE.heavy>
16

>  <SCORE.norm>
-1.78697

>  <RMSD>
1.711

$$$$
1f27 biotin aptamer (Xray 1.3A)
 OpenBabel11021811393D
libRbt.so/2013.1/901 2013/11/27
 16 17  0  0  0  0  0  0  0  0999 V2000
   20.6264   -2.7772   13.1609 C   0  0  0  0  0  0  0  0  0  0  0  0
   20.4315   -3.8748   13.6733 O   0  5  0  0  0  0  0  0  0  0  0  0
   21.3992   -2.6746   12.2097 O   0  0  0  0  0  0  0  0  0  0  0  0
   19.8622   -1.5559   13.6560 C   0  0  0  0  0  0  0  0  0  0  0  0
   18.3370   -1.6324   13.4213 C   0  0  0  0  0  0  0  0  0  0  0  0
   17.6288   -0.3900   13.9291 C   0  0  0  0  0  0  0  0  0  0  0  0
   16.1422   -0.3809   13.6399 C   0  0  0  0  0  0  0  0  0  0  0  0
   15.3854    0.8316   14.1978 C   0  0  2  0  0  0  0  0  0  0  0  0
   13.5141    0.9051   13.7994 S   0  0  0  0  0  0  0  0  0  0  0  0
   13.5779    2.7284   14.3620 C   0  0  0  0  0  0  0  0  0  0  0  0
   14.9718    3.2444   13.8995 C   0  0  2  0  0  0  0  0  0  0  0  0
   14.7536    3.8196   12.4745 N   0  0  0  0  0  0  0  0  0  0  0  0
   15.4501    3.2463   11.5917 C   0  0  0  0  0  0  0  0  0  0  0  0
   15.4124    3.3416   10.3137 O   0  0  0  0  0  0  0  0  0  0  0  0
   16.1651    2.0887   12.0778 N   0  0  0  0  0  0  0  0  0  0  0  0
   15.9448    2.1199   13.5899 C   0  0  2  0  0  0  0  0  0  0  0  0
  1  2  1  0  0  0  0
  1  3  2  0  0  0  0
  1  4  1  0  0  0  0
  4  5  1  0  0  0  0
  5  6  1  0  0  0  0
  6  7  1  0  0  0  0
  8  7  1  6  0  0  0
  8  9  1  0  0  0  0
  8 16  1  0  0  0  0
  9 10  1  0  0  0  0
 11 10  1  6  0  0  0
 11 12  1  0  0  0  0
 11 16  1  0  0  0  0
 12 13  1  0  0  0  0
 13 14  2  0  0  0  0
 13 15  1  0  0  0  0
 16 15  1  6  0  0  0
M  CHG  1   2  -1
M  END
>  <CHROM.1>
-64.40459873,-179.82634731,176.27379103,177.29467520,178.00312052,16.64311959
0.55732489,13.14167412,-0.57599497,0.50098654,-0.68767912

>  <Name>
1f27 biotin aptamer (Xray 1.3A)

>  <RI>
0

>  <Rbt.Current_Directory>
/home/itssahil/PROJECTS/Mol_Feturizer/New_Systems/rnas/1f27

>  <Rbt.Executable>
rbdock ($Id: //depot/dev/client3/rdock/2013.1/src/exe/rbdock.cxx#4 $)

>  <Rbt.Library>
libRbt.so (2013.1, Build901 2013/11/27)

>  <Rbt.Parameter_File>
/export/apps/rDock/src/rDock_2013.1_src/data/scripts/dock_solv.prm

>  <Rbt.Receptor>
prm/pocket_docking_7.prm

>  <SCORE>
-26.8324

>  <SCORE.INTER>
-24.1528

>  <SCORE.INTER.CONST>
1

>  <SCORE.INTER.POLAR>
-1.31196

>  <SCORE.INTER.ROT>
5

>  <SCORE.INTER.SOLV>
9.77317

>  <SCORE.INTER.VDW>
-21.9197

>  <SCORE.INTER.norm>
-1.50955

>  <SCORE.INTRA>
-2.6796

>  <SCORE.INTRA.DIHEDRAL>
-5.43534

>  <SCORE.INTRA.DIHEDRAL.0>
6.87082

>  <SCORE.INTRA.POLAR>
0

>  <SCORE.INTRA.POLAR.0>
0

>  <SCORE.INTRA.REPUL>
0

>  <SCORE.INTRA.REPUL.0>
0

>  <SCORE.INTRA.SOLV>
-0.66531

>  <SCORE.INTRA.SOLV.lig_0>
-42.5944

>  <SCORE.INTRA.VDW>
0.370724

>  <SCORE.INTRA.VDW.0>
-1.067

>  <SCORE.INTRA.norm>
-0.167475

>  <SCORE.RESTR>
0

>  <SCORE.RESTR.CAVITY>
0

>  <SCORE.RESTR.norm>
0

>  <SCORE.SYSTEM>
0

>  <SCORE.SYSTEM.CONST>
0

>  <SCORE.SYSTEM.DIHEDRAL>
0

>  <SCORE.SYSTEM.SOLV>
0

>  <SCORE.SYSTEM.norm>
0

>  <SCORE.heavy>
16

>  <SCORE.norm>
-1.67703

>  <RMSD>
1.711

$$$$
1f27 biotin aptamer (Xray 1.3A)
 OpenBabel11021811393D
libRbt.so/2013.1/901 2013/11/27
 16 17  0  0  0  0  0  0  0  0999 V2000
   21.0793   -0.3845   13.1644 C   0  0  0  0  0  0  0  0  0  0  0  0
   20.1868   -1.2084   13.3379 O   0  5  0  0  0  0  0  0  0  0  0  0
   21.8695   -0.5257   12.2327 O   0  0  0  0  0  0  0  0  0  0  0  0
   21.1678    0.8462   14.0577 C   0  0  0  0  0  0  0  0  0  0  0  0
   20.0737    1.9017   13.7821 C   0  0  0  0  0  0  0  0  0  0  0  0
   18.6939    1.3878   14.1497 C   0  0  0  0  0  0  0  0  0  0  0  0
   17.5829    2.3732   13.8528 C   0  0  0  0  0  0  0  0  0  0  0  0
   16.1842    1.9166   14.2877 C   0  0  2  0  0  0  0  0  0  0  0  0
   15.5051    0.3542   13.4138 S   0  0  0  0  0  0  0  0  0  0  0  0
   13.7983    0.8340   14.1219 C   0  0  0  0  0  0  0  0  0  0  0  0
   13.7721    2.3901   14.0910 C   0  0  2  0  0  0  0  0  0  0  0  0
   13.1704    2.7713   12.7119 N   0  0  0  0  0  0  0  0  0  0  0  0
   13.9485    3.4665   12.0017 C   0  0  0  0  0  0  0  0  0  0  0  0
   13.8581    3.8182   10.7721 O   0  0  0  0  0  0  0  0  0  0  0  0
   15.2720    3.6121   12.5629 N   0  0  0  0  0  0  0  0  0  0  0  0
   15.1562    3.0016   13.9592 C   0  0  2  0  0  0  0  0  0  0  0  0
  1  2  1  0  0  0  0
  1  3  2  0  0  0  0
  1  4  1  0  0  0  0
  4  5  1  0  0  0  0
  5  6  1  0  0  0  0
  6  7  1  0  0  0  0
  8  7  1  6  0  0  0
  8  9  1  0  0  0  0
  8 16  1  0  0  0  0
  9 10  1  0  0  0  0
 11 10  1  6  0  0  0
 11 12  1  0  0  0  0
 11 16  1  0  0  0  0
 12 13  1  0  0  0  0
 13 14  2  0  0  0  0
 13 15  1  0  0  0  0
 16 15  1  6  0  0  0
M  CHG  1   2  -1
M  END
>  <CHROM.1>
-72.70427403,66.81298950,-178.06912586,-176.62570969,-63.48651343,16.88227191
1.54473233,13.25539307,0.36587959,-0.10775419,2.67118298

>  <Name>
1f27 biotin aptamer (Xray 1.3A)

>  <RI>
0

>  <Rbt.Current_Directory>
/home/itssahil/PROJECTS/Mol_Feturizer/New_Systems/rnas/1f27

>  <Rbt.Executable>
rbdock ($Id: //depot/dev/client3/rdock/2013.1/src/exe/rbdock.cxx#4 $)

>  <Rbt.Library>
libRbt.so (2013.1, Build901 2013/11/27)

>  <Rbt.Parameter_File>
/export/apps/rDock/src/rDock_2013.1_src/data/scripts/dock_solv.prm

>  <Rbt.Receptor>
prm/pocket_docking_7.prm

>  <SCORE>
-32.2093

>  <SCORE.INTER>
-29.7364

>  <SCORE.INTER.CONST>
1

>  <SCORE.INTER.POLAR>
-1.78734

>  <SCORE.INTER.ROT>
5

>  <SCORE.INTER.SOLV>
11.9593

>  <SCORE.INTER.VDW>
-24.7862

>  <SCORE.INTER.norm>
-1.85853

>  <SCORE.INTRA>
-2.47283

>  <SCORE.INTRA.DIHEDRAL>
-5.30051

>  <SCORE.INTRA.DIHEDRAL.0>
6.87082

>  <SCORE.INTRA.POLAR>
0

>  <SCORE.INTRA.POLAR.0>
0

>  <SCORE.INTRA.REPUL>
0

>  <SCORE.INTRA.REPUL.0>
0

>  <SCORE.INTRA.SOLV>
0.222815

>  <SCORE.INTRA.SOLV.lig_0>
-42.5944

>  <SCORE.INTRA.VDW>
0.0660199

>  <SCORE.INTRA.VDW.0>
-1.067

>  <SCORE.INTRA.norm>
-0.154552

>  <SCORE.RESTR>
0

>  <SCORE.RESTR.CAVITY>
0

>  <SCORE.RESTR.norm>
0

>  <SCORE.SYSTEM>
0

>  <SCORE.SYSTEM.CONST>
0

>  <SCORE.SYSTEM.DIHEDRAL>
0

>  <SCORE.SYSTEM.SOLV>
0

>  <SCORE.SYSTEM.norm>
0

>  <SCORE.heavy>
16

>  <SCORE.norm>
-2.01308

>  <RMSD>
1.711

$$$$
1f27 biotin aptamer (Xray 1.3A)
 OpenBabel11021811393D
libRbt.so/2013.1/901 2013/11/27
 16 17  0  0  0  0  0  0  0  0999 V2000
   20.8661   -0.2780   12.5779 C   0  0  0  0  0  0  0  0  0  0  0  0
   19.8884   -1.0053   12.4343 O   0  5  0  0  0  0  0  0  0  0  0  0
   21.9959   -0.7293   12.3982 O   0  0  0  0  0  0  0  0  0  0  0  0
   20.6795    1.1968   12.9106 C   0  0  0  0  0  0  0  0  0  0  0  0
   20.2605    1.4618   14.3739 C   0  0  0  0  0  0  0  0  0  0  0  0
   18.8031    1.1123   14.6116 C   0  0  0  0  0  0  0  0  0  0  0  0
   17.8358    2.0905   13.9783 C   0  0  0  0  0  0  0  0  0  0  0  0
   16.3531    1.7719   14.2115 C   0  0  2  0  0  0  0  0  0  0  0  0
   15.7550    0.0661   13.5804 S   0  0  0  0  0  0  0  0  0  0  0  0
   13.9785    0.7273   13.8084 C   0  0  0  0  0  0  0  0  0  0  0  0
   14.0591    2.2363   13.4347 C   0  0  2  0  0  0  0  0  0  0  0  0
   13.7590    2.3074   11.9135 N   0  0  0  0  0  0  0  0  0  0  0  0
   14.7020    2.8083   11.2406 C   0  0  0  0  0  0  0  0  0  0  0  0
   14.8720    2.8744    9.9715 O   0  0  0  0  0  0  0  0  0  0  0  0
   15.8999    3.0509   12.0112 N   0  0  0  0  0  0  0  0  0  0  0  0
   15.4793    2.7746   13.4544 C   0  0  2  0  0  0  0  0  0  0  0  0
  1  2  1  0  0  0  0
  1  3  2  0  0  0  0
  1  4  1  0  0  0  0
  4  5  1  0  0  0  0
  5  6  1  0  0  0  0
  6  7  1  0  0  0  0
  8  7  1  6  0  0  0
  8  9  1  0  0  0  0
  8 16  1  0  0  0  0
  9 10  1  0  0  0  0
 11 10  1  6  0  0  0
 11 12  1  0  0  0  0
 11 16  1  0  0  0  0
 12 13  1  0  0  0  0
 13 14  2  0  0  0  0
 13 15  1  0  0  0  0
 16 15  1  6  0  0  0
M  CHG  1   2  -1
M  END
>  <CHROM.1>
74.78776338,-74.90666305,-72.26957226,-179.46816546,-58.93739070,17.12855358
1.28182104,12.94374853,-0.23632592,0.25129398,-1.12945891

>  <Name>
1f27 biotin aptamer (Xray 1.3A)

>  <RI>
0

>  <Rbt.Current_Directory>
/home/itssahil/PROJECTS/Mol_Feturizer/New_Systems/rnas/1f27

>  <Rbt.Executable>
rbdock ($Id: //depot/dev/client3/rdock/2013.1/src/exe/rbdock.cxx#4 $)

>  <Rbt.Library>
libRbt.so (2013.1, Build901 2013/11/27)

>  <Rbt.Parameter_File>
/export/apps/rDock/src/rDock_2013.1_src/data/scripts/dock_solv.prm

>  <Rbt.Receptor>
prm/pocket_docking_3.prm

>  <SCORE>
-35.7575

>  <SCORE.INTER>
-34.1157

>  <SCORE.INTER.CONST>
1

>  <SCORE.INTER.POLAR>
-2.63009

>  <SCORE.INTER.ROT>
5

>  <SCORE.INTER.SOLV>
14.5617

>  <SCORE.INTER.VDW>
-25.7641

>  <SCORE.INTER.norm>
-2.13223

>  <SCORE.INTRA>
-1.68

>  <SCORE.INTRA.DIHEDRAL>
-4.04294

>  <SCORE.INTRA.DIHEDRAL.0>
6.87082

>  <SCORE.INTRA.POLAR>
0

>  <SCORE.INTRA.POLAR.0>
0

>  <SCORE.INTRA.REPUL>
0

>  <SCORE.INTRA.REPUL.0>
0

>  <SCORE.INTRA.SOLV>
0.421381

>  <SCORE.INTRA.SOLV.lig_0>
-42.5944

>  <SCORE.INTRA.VDW>
0.130778

>  <SCORE.INTRA.VDW.0>
-1.067

>  <SCORE.INTRA.norm>
-0.105

>  <SCORE.RESTR>
0.0382152

>  <SCORE.RESTR.CAVITY>
0.0382152

>  <SCORE.RESTR.norm>
0.00238845

>  <SCORE.SYSTEM>
0

>  <SCORE.SYSTEM.CONST>
0

>  <SCORE.SYSTEM.DIHEDRAL>
0

>  <SCORE.SYSTEM.SOLV>
0

>  <SCORE.SYSTEM.norm>
0

>  <SCORE.heavy>
16

>  <SCORE.norm>
-2.23484

>  <RMSD>
1.713

$$$$
1f27 biotin aptamer (Xray 1.3A)
 OpenBabel11021811393D
libRbt.so/2013.1/901 2013/11/27
 16 17  0  0  0  0  0  0  0  0999 V2000
   20.8709   -0.2152   12.5377 C   0  0  0  0  0  0  0  0  0  0  0  0
   19.8881   -0.9468   12.6028 O   0  5  0  0  0  0  0  0  0  0  0  0
   21.9400   -0.6622   12.1257 O   0  0  0  0  0  0  0  0  0  0  0  0
   20.7518    1.2594   12.9009 C   0  0  0  0  0  0  0  0  0  0  0  0
   20.2988    1.5126   14.3562 C   0  0  0  0  0  0  0  0  0  0  0  0
   18.8476    1.1224   14.5674 C   0  0  0  0  0  0  0  0  0  0  0  0
   17.8656    2.0622   13.8997 C   0  0  0  0  0  0  0  0  0  0  0  0
   16.3880    1.7348   14.1520 C   0  0  2  0  0  0  0  0  0  0  0  0
   15.7791    0.0476   13.4824 S   0  0  0  0  0  0  0  0  0  0  0  0
   14.0069    0.6993   13.7642 C   0  0  0  0  0  0  0  0  0  0  0  0
   14.0790    2.2188   13.4338 C   0  0  2  0  0  0  0  0  0  0  0  0
   13.7494    2.3343   11.9214 N   0  0  0  0  0  0  0  0  0  0  0  0
   14.6788    2.8562   11.2455 C   0  0  0  0  0  0  0  0  0  0  0  0
   14.8241    2.9599    9.9759 O   0  0  0  0  0  0  0  0  0  0  0  0
   15.8912    3.0776   11.9997 N   0  0  0  0  0  0  0  0  0  0  0  0
   15.4989    2.7582   13.4419 C   0  0  2  0  0  0  0  0  0  0  0  0
  1  2  1  0  0  0  0
  1  3  2  0  0  0  0
  1  4  1  0  0  0  0
  4  5  1  0  0  0  0
  5  6  1  0  0  0  0
  6  7  1  0  0  0  0
  8  7  1  6  0  0  0
  8  9  1  0  0  0  0
  8 16  1  0  0  0  0
  9 10  1  0  0  0  0
 11 10  1  6  0  0  0
 11 12  1  0  0  0  0
 11 16  1  0  0  0  0
 12 13  1  0  0  0  0
 13 14  2  0  0  0  0
 13 15  1  0  0  0  0
 16 15  1  6  0  0  0
M  CHG  1   2  -1
M  END
>  <CHROM.1>
60.36205650,-69.96721590,-71.46049873,-177.12456636,-63.07545727,17.13907489
1.30222046,12.90722172,-0.24532039,0.23177547,-1.06888630

>  <Name>
1f27 biotin aptamer (Xray 1.3A)

>  <RI>
0

>  <Rbt.Current_Directory>
/home/itssahil/PROJECTS/Mol_Feturizer/New_Systems/rnas/1f27

>  <Rbt.Executable>
rbdock ($Id: //depot/dev/client3/rdock/2013.1/src/exe/rbdock.cxx#4 $)

>  <Rbt.Library>
libRbt.so (2013.1, Build901 2013/11/27)

>  <Rbt.Parameter_File>
/export/apps/rDock/src/rDock_2013.1_src/data/scripts/dock_solv.prm

>  <Rbt.Receptor>
prm/pocket_docking_5.prm

>  <SCORE>
-36.4853

>  <SCORE.INTER>
-34.835

>  <SCORE.INTER.CONST>
1

>  <SCORE.INTER.POLAR>
-2.77681

>  <SCORE.INTER.ROT>
5

>  <SCORE.INTER.SOLV>
14.7584

>  <SCORE.INTER.VDW>
-25.8201

>  <SCORE.INTER.norm>
-2.17719

>  <SCORE.INTRA>
-1.65031

>  <SCORE.INTRA.DIHEDRAL>
-4.55087

>  <SCORE.INTRA.DIHEDRAL.0>
6.87082

>  <SCORE.INTRA.POLAR>
0

>  <SCORE.INTRA.POLAR.0>
0

>  <SCORE.INTRA.REPUL>
0

>  <SCORE.INTRA.REPUL.0>
0

>  <SCORE.INTRA.SOLV>
0.620307

>  <SCORE.INTRA.SOLV.lig_0>
-42.5944

>  <SCORE.INTRA.VDW>
0.314974

>  <SCORE.INTRA.VDW.0>
-1.067

>  <SCORE.INTRA.norm>
-0.103144

>  <SCORE.RESTR>
0

>  <SCORE.RESTR.CAVITY>
0

>  <SCORE.RESTR.norm>
0

>  <SCORE.SYSTEM>
0

>  <SCORE.SYSTEM.CONST>
0

>  <SCORE.SYSTEM.DIHEDRAL>
0

>  <SCORE.SYSTEM.SOLV>
0

>  <SCORE.SYSTEM.norm>
0

>  <SCORE.heavy>
16

>  <SCORE.norm>
-2.28033

>  <RMSD>
1.715

$$$$
1f27 biotin aptamer (Xray 1.3A)
 OpenBabel11021811393D
libRbt.so/2013.1/901 2013/11/27
 16 17  0  0  0  0  0  0  0  0999 V2000
   21.1909   -0.3902   13.1779 C   0  0  0  0  0  0  0  0  0  0  0  0
   21.9532   -0.5053   12.2235 O   0  5  0  0  0  0  0  0  0  0  0  0
   20.3347   -1.2487   13.3840 O   0  0  0  0  0  0  0  0  0  0  0  0
   21.3475    0.7762   14.1451 C   0  0  0  0  0  0  0  0  0  0  0  0
   20.2031    1.8115   14.0701 C   0  0  0  0  0  0  0  0  0  0  0  0
   18.8617    1.1900   14.4125 C   0  0  0  0  0  0  0  0  0  0  0  0
   17.7106    2.1732   14.3668 C   0  0  0  0  0  0  0  0  0  0  0  0
   16.3176    1.5387   14.4723 C   0  0  2  0  0  0  0  0  0  0  0  0
   15.8624    0.2870   13.0970 S   0  0  0  0  0  0  0  0  0  0  0  0
   14.0587    0.4449   13.7024 C   0  0  0  0  0  0  0  0  0  0  0  0
   13.9070    1.9330   14.1333 C   0  0  2  0  0  0  0  0  0  0  0  0
   13.4190    2.6875   12.8677 N   0  0  0  0  0  0  0  0  0  0  0  0
   14.2049    3.6030   12.4970 C   0  0  0  0  0  0  0  0  0  0  0  0
   14.2109    4.3084   11.4265 O   0  0  0  0  0  0  0  0  0  0  0  0
   15.4479    3.6339   13.2328 N   0  0  0  0  0  0  0  0  0  0  0  0
   15.2420    2.6214   14.3591 C   0  0  2  0  0  0  0  0  0  0  0  0
  1  2  1  0  0  0  0
  1  3  2  0  0  0  0
  1  4  1  0  0  0  0
  4  5  1  0  0  0  0
  5  6  1  0  0  0  0
  6  7  1  0  0  0  0
  8  7  1  6  0  0  0
  8  9  1  0  0  0  0
  8 16  1  0  0  0  0
  9 10  1  0  0  0  0
 11 10  1  6  0  0  0
 11 12  1  0  0  0  0
 11 16  1  0  0  0  0
 12 13  1  0  0  0  0
 13 14  2  0  0  0  0
 13 15  1  0  0  0  0
 16 15  1  6  0  0  0
M  CHG  1   2  -1
M  END
>  <CHROM.1>
110.86097656,61.03725604,179.35718886,170.11999641,-60.23693279,17.08128039
1.45073775,13.41119301,0.38882850,0.00344241,3.01185878

>  <Name>
1f27 biotin aptamer (Xray 1.3A)

>  <RI>
0

>  <Rbt.Current_Directory>
/home/itssahil/PROJECTS/Mol_Feturizer/New_Systems/rnas/1f27

>  <Rbt.Executable>
rbdock ($Id: //depot/dev/client3/rdock/2013.1/src/exe/rbdock.cxx#4 $)

>  <Rbt.Library>
libRbt.so (2013.1, Build901 2013/11/27)

>  <Rbt.Parameter_File>
/export/apps/rDock/src/rDock_2013.1_src/data/scripts/dock_solv.prm

>  <Rbt.Receptor>
prm/pocket_docking_5.prm

>  <SCORE>
-33.9544

>  <SCORE.INTER>
-31.7609

>  <SCORE.INTER.CONST>
1

>  <SCORE.INTER.POLAR>
-2.64233

>  <SCORE.INTER.ROT>
5

>  <SCORE.INTER.SOLV>
13.1303

>  <SCORE.INTER.VDW>
-23.6763

>  <SCORE.INTER.norm>
-1.98505

>  <SCORE.INTRA>
-2.19354

>  <SCORE.INTRA.DIHEDRAL>
-5.04327

>  <SCORE.INTRA.DIHEDRAL.0>
6.87082

>  <SCORE.INTRA.POLAR>
0

>  <SCORE.INTRA.POLAR.0>
0

>  <SCORE.INTRA.REPUL>
0

>  <SCORE.INTRA.REPUL.0>
0

>  <SCORE.INTRA.SOLV>
0.280299

>  <SCORE.INTRA.SOLV.lig_0>
-42.5944

>  <SCORE.INTRA.VDW>
0.187948

>  <SCORE.INTRA.VDW.0>
-1.067

>  <SCORE.INTRA.norm>
-0.137096

>  <SCORE.RESTR>
0

>  <SCORE.RESTR.CAVITY>
0

>  <SCORE.RESTR.norm>
0

>  <SCORE.SYSTEM>
0

>  <SCORE.SYSTEM.CONST>
0

>  <SCORE.SYSTEM.DIHEDRAL>
0

>  <SCORE.SYSTEM.SOLV>
0

>  <SCORE.SYSTEM.norm>
0

>  <SCORE.heavy>
16

>  <SCORE.norm>
-2.12215

>  <RMSD>
1.716

$$$$
1f27 biotin aptamer (Xray 1.3A)
 OpenBabel11021811393D
libRbt.so/2013.1/901 2013/11/27
 16 17  0  0  0  0  0  0  0  0999 V2000
   20.3182   -1.3861   13.6234 C   0  0  0  0  0  0  0  0  0  0  0  0
   19.6326   -2.3586   13.3243 O   0  5  0  0  0  0  0  0  0  0  0  0
   20.9789   -1.3991   14.6606 O   0  0  0  0  0  0  0  0  0  0  0  0
   20.4055   -0.1931   12.6802 C   0  0  0  0  0  0  0  0  0  0  0  0
   19.1849    0.7517   12.7487 C   0  0  0  0  0  0  0  0  0  0  0  0
   19.0386    1.3796   14.1225 C   0  0  0  0  0  0  0  0  0  0  0  0
   17.8358    2.2916   14.2453 C   0  0  0  0  0  0  0  0  0  0  0  0
   16.4893    1.5673   14.3739 C   0  0  2  0  0  0  0  0  0  0  0  0
   16.0603    0.3430   12.9658 S   0  0  0  0  0  0  0  0  0  0  0  0
   14.2744    0.3640   13.6403 C   0  0  0  0  0  0  0  0  0  0  0  0
   14.0480    1.8221   14.1362 C   0  0  2  0  0  0  0  0  0  0  0  0
   13.4672    2.5923   12.9203 N   0  0  0  0  0  0  0  0  0  0  0  0
   14.1809    3.5689   12.5596 C   0  0  0  0  0  0  0  0  0  0  0  0
   14.1033    4.3138   11.5190 O   0  0  0  0  0  0  0  0  0  0  0  0
   15.4466    3.6496   13.2518 N   0  0  0  0  0  0  0  0  0  0  0  0
   15.3457    2.5838   14.3427 C   0  0  2  0  0  0  0  0  0  0  0  0
  1  2  1  0  0  0  0
  1  3  2  0  0  0  0
  1  4  1  0  0  0  0
  4  5  1  0  0  0  0
  5  6  1  0  0  0  0
  6  7  1  0  0  0  0
  8  7  1  6  0  0  0
  8  9  1  0  0  0  0
  8 16  1  0  0  0  0
  9 10  1  0  0  0  0
 11 10  1  6  0  0  0
 11 12  1  0  0  0  0
 11 16  1  0  0  0  0
 12 13  1  0  0  0  0
 13 14  2  0  0  0  0
 13 15  1  0  0  0  0
 16 15  1  6  0  0  0
M  CHG  1   2  -1
M  END
>  <CHROM.1>
79.08047556,62.51107069,-178.74316921,75.93518461,-56.55651596,16.88758277
1.16073473,13.39198406,0.59729574,0.03863652,3.01813438

>  <Name>
1f27 biotin aptamer (Xray 1.3A)

>  <RI>
0

>  <Rbt.Current_Directory>
/home/itssahil/PROJECTS/Mol_Feturizer/New_Systems/rnas/1f27

>  <Rbt.Executable>
rbdock ($Id: //depot/dev/client3/rdock/2013.1/src/exe/rbdock.cxx#4 $)

>  <Rbt.Library>
libRbt.so (2013.1, Build901 2013/11/27)

>  <Rbt.Parameter_File>
/export/apps/rDock/src/rDock_2013.1_src/data/scripts/dock_solv.prm

>  <Rbt.Receptor>
prm/pocket_docking_8.prm

>  <SCORE>
-28.8572

>  <SCORE.INTER>
-27.0205

>  <SCORE.INTER.CONST>
1

>  <SCORE.INTER.POLAR>
-1.80018

>  <SCORE.INTER.ROT>
5

>  <SCORE.INTER.SOLV>
8.55027

>  <SCORE.INTER.VDW>
-21.7965

>  <SCORE.INTER.norm>
-1.68878

>  <SCORE.INTRA>
-1.83676

>  <SCORE.INTRA.DIHEDRAL>
-4.33491

>  <SCORE.INTRA.DIHEDRAL.0>
6.87082

>  <SCORE.INTRA.POLAR>
0

>  <SCORE.INTRA.POLAR.0>
0

>  <SCORE.INTRA.REPUL>
0

>  <SCORE.INTRA.REPUL.0>
0

>  <SCORE.INTRA.SOLV>
0.28547

>  <SCORE.INTRA.SOLV.lig_0>
-42.5944

>  <SCORE.INTRA.VDW>
0.18796

>  <SCORE.INTRA.VDW.0>
-1.067

>  <SCORE.INTRA.norm>
-0.114797

>  <SCORE.RESTR>
0

>  <SCORE.RESTR.CAVITY>
0

>  <SCORE.RESTR.norm>
0

>  <SCORE.SYSTEM>
0

>  <SCORE.SYSTEM.CONST>
0

>  <SCORE.SYSTEM.DIHEDRAL>
0

>  <SCORE.SYSTEM.SOLV>
0

>  <SCORE.SYSTEM.norm>
0

>  <SCORE.heavy>
16

>  <SCORE.norm>
-1.80358

>  <RMSD>
1.719

$$$$
1f27 biotin aptamer (Xray 1.3A)
 OpenBabel11021811393D
libRbt.so/2013.1/901 2013/11/27
 16 17  0  0  0  0  0  0  0  0999 V2000
   20.8406   -0.6241   12.7075 C   0  0  0  0  0  0  0  0  0  0  0  0
   20.1341   -1.6236   12.7913 O   0  5  0  0  0  0  0  0  0  0  0  0
   22.0251   -0.7365   12.3964 O   0  0  0  0  0  0  0  0  0  0  0  0
   20.2375    0.7585   12.9208 C   0  0  0  0  0  0  0  0  0  0  0  0
   18.8740    0.9627   12.2235 C   0  0  0  0  0  0  0  0  0  0  0  0
   18.3319    2.3616   12.4515 C   0  0  0  0  0  0  0  0  0  0  0  0
   17.8071    2.5853   13.8544 C   0  0  0  0  0  0  0  0  0  0  0  0
   16.3825    2.0702   14.0985 C   0  0  2  0  0  0  0  0  0  0  0  0
   15.9852    0.3392   13.3834 S   0  0  0  0  0  0  0  0  0  0  0  0
   14.1469    0.7580   13.6840 C   0  0  0  0  0  0  0  0  0  0  0  0
   14.0285    2.2830   13.3952 C   0  0  2  0  0  0  0  0  0  0  0  0
   13.6811    2.3977   11.8868 N   0  0  0  0  0  0  0  0  0  0  0  0
   14.5358    3.0491   11.2248 C   0  0  0  0  0  0  0  0  0  0  0  0
   14.6620    3.2044    9.9585 O   0  0  0  0  0  0  0  0  0  0  0  0
   15.7143    3.3988   11.9841 N   0  0  0  0  0  0  0  0  0  0  0  0
   15.3705    2.9941   13.4173 C   0  0  2  0  0  0  0  0  0  0  0  0
  1  2  1  0  0  0  0
  1  3  2  0  0  0  0
  1  4  1  0  0  0  0
  4  5  1  0  0  0  0
  5  6  1  0  0  0  0
  6  7  1  0  0  0  0
  8  7  1  6  0  0  0
  8  9  1  0  0  0  0
  8 16  1  0  0  0  0
  9 10  1  0  0  0  0
 11 10  1  6  0  0  0
 11 12  1  0  0  0  0
 11 16  1  0  0  0  0
 12 13  1  0  0  0  0
 13 14  2  0  0  0  0
 13 15  1  0  0  0  0
 16 15  1  6  0  0  0
M  CHG  1   2  -1
M  END
>  <CHROM.1>
-43.48352607,-179.10981652,-73.62843180,-81.61726022,43.64888046,17.00695262
1.39887561,12.67020961,-0.37637195,0.24779857,-0.71727432

>  <Name>
1f27 biotin aptamer (Xray 1.3A)

>  <RI>
0

>  <Rbt.Current_Directory>
/home/itssahil/PROJECTS/Mol_Feturizer/New_Systems/rnas/1f27

>  <Rbt.Executable>
rbdock ($Id: //depot/dev/client3/rdock/2013.1/src/exe/rbdock.cxx#4 $)

>  <Rbt.Library>
libRbt.so (2013.1, Build901 2013/11/27)

>  <Rbt.Parameter_File>
/export/apps/rDock/src/rDock_2013.1_src/data/scripts/dock_solv.prm

>  <Rbt.Receptor>
prm/pocket_docking_3.prm

>  <SCORE>
-32.6927

>  <SCORE.INTER>
-33.1584

>  <SCORE.INTER.CONST>
1

>  <SCORE.INTER.POLAR>
-2.55763

>  <SCORE.INTER.ROT>
5

>  <SCORE.INTER.SOLV>
12.6076

>  <SCORE.INTER.VDW>
-24.716

>  <SCORE.INTER.norm>
-2.0724

>  <SCORE.INTRA>
0.462115

>  <SCORE.INTRA.DIHEDRAL>
-1.93146

>  <SCORE.INTRA.DIHEDRAL.0>
6.87082

>  <SCORE.INTRA.POLAR>
0

>  <SCORE.INTRA.POLAR.0>
0

>  <SCORE.INTRA.REPUL>
0

>  <SCORE.INTRA.REPUL.0>
0

>  <SCORE.INTRA.SOLV>
-0.12812

>  <SCORE.INTRA.SOLV.lig_0>
-42.5944

>  <SCORE.INTRA.VDW>
1.49191

>  <SCORE.INTRA.VDW.0>
-1.067

>  <SCORE.INTRA.norm>
0.0288822

>  <SCORE.RESTR>
0.00355789

>  <SCORE.RESTR.CAVITY>
0.00355789

>  <SCORE.RESTR.norm>
0.000222368

>  <SCORE.SYSTEM>
0

>  <SCORE.SYSTEM.CONST>
0

>  <SCORE.SYSTEM.DIHEDRAL>
0

>  <SCORE.SYSTEM.SOLV>
0

>  <SCORE.SYSTEM.norm>
0

>  <SCORE.heavy>
16

>  <SCORE.norm>
-2.04329

>  <RMSD>
1.720

$$$$
1f27 biotin aptamer (Xray 1.3A)
 OpenBabel11021811393D
libRbt.so/2013.1/901 2013/11/27
 16 17  0  0  0  0  0  0  0  0999 V2000
   20.7579   -0.5213   12.5529 C   0  0  0  0  0  0  0  0  0  0  0  0
   21.9076   -0.5961   12.1312 O   0  5  0  0  0  0  0  0  0  0  0  0
   20.1045   -1.5474   12.7335 O   0  0  0  0  0  0  0  0  0  0  0  0
   20.1638    0.8334   12.9170 C   0  0  0  0  0  0  0  0  0  0  0  0
   18.8275    1.1440   12.2065 C   0  0  0  0  0  0  0  0  0  0  0  0
   18.3482    2.5526   12.5049 C   0  0  0  0  0  0  0  0  0  0  0  0
   17.8238    2.7267   13.9150 C   0  0  0  0  0  0  0  0  0  0  0  0
   16.4188    2.1583   14.1540 C   0  0  2  0  0  0  0  0  0  0  0  0
   16.0942    0.4074   13.4507 S   0  0  0  0  0  0  0  0  0  0  0  0
   14.2390    0.7564   13.7357 C   0  0  0  0  0  0  0  0  0  0  0  0
   14.0632    2.2733   13.4335 C   0  0  2  0  0  0  0  0  0  0  0  0
   13.7220    2.3622   11.9219 N   0  0  0  0  0  0  0  0  0  0  0  0
   14.5552    3.0411   11.2602 C   0  0  0  0  0  0  0  0  0  0  0  0
   14.6840    3.1910    9.9934 O   0  0  0  0  0  0  0  0  0  0  0  0
   15.7139    3.4427   12.0242 N   0  0  0  0  0  0  0  0  0  0  0  0
   15.3762    3.0365   13.4585 C   0  0  2  0  0  0  0  0  0  0  0  0
  1  2  1  0  0  0  0
  1  3  2  0  0  0  0
  1  4  1  0  0  0  0
  4  5  1  0  0  0  0
  5  6  1  0  0  0  0
  6  7  1  0  0  0  0
  8  7  1  6  0  0  0
  8  9  1  0  0  0  0
  8 16  1  0  0  0  0
  9 10  1  0  0  0  0
 11 10  1  6  0  0  0
 11 12  1  0  0  0  0
 11 16  1  0  0  0  0
 12 13  1  0  0  0  0
 13 14  2  0  0  0  0
 13 15  1  0  0  0  0
 16 15  1  6  0  0  0
M  CHG  1   2  -1
M  END
>  <CHROM.1>
125.67107212,-174.71545716,-72.72899005,-76.69982027,45.56608661,17.01687750
1.46669539,12.67447669,-0.35169909,0.26896811,-0.73497738

>  <Name>
1f27 biotin aptamer (Xray 1.3A)

>  <RI>
0

>  <Rbt.Current_Directory>
/home/itssahil/PROJECTS/Mol_Feturizer/New_Systems/rnas/1f27

>  <Rbt.Executable>
rbdock ($Id: //depot/dev/client3/rdock/2013.1/src/exe/rbdock.cxx#4 $)

>  <Rbt.Library>
libRbt.so (2013.1, Build901 2013/11/27)

>  <Rbt.Parameter_File>
/export/apps/rDock/src/rDock_2013.1_src/data/scripts/dock_solv.prm

>  <Rbt.Receptor>
prm/blind_docking_60.prm

>  <SCORE>
-33.1873

>  <SCORE.INTER>
-33.5383

>  <SCORE.INTER.CONST>
1

>  <SCORE.INTER.POLAR>
-2.70074

>  <SCORE.INTER.ROT>
5

>  <SCORE.INTER.SOLV>
13.446

>  <SCORE.INTER.VDW>
-24.7717

>  <SCORE.INTER.norm>
-2.09614

>  <SCORE.INTRA>
0.351001

>  <SCORE.INTRA.DIHEDRAL>
-2.8944

>  <SCORE.INTRA.DIHEDRAL.0>
6.87082

>  <SCORE.INTRA.POLAR>
0

>  <SCORE.INTRA.POLAR.0>
0

>  <SCORE.INTRA.REPUL>
0

>  <SCORE.INTRA.REPUL.0>
0

>  <SCORE.INTRA.SOLV>
-0.0699261

>  <SCORE.INTRA.SOLV.lig_0>
-42.5944

>  <SCORE.INTRA.VDW>
1.83316

>  <SCORE.INTRA.VDW.0>
-1.067

>  <SCORE.INTRA.norm>
0.0219376

>  <SCORE.RESTR>
0

>  <SCORE.RESTR.CAVITY>
0

>  <SCORE.RESTR.norm>
0

>  <SCORE.SYSTEM>
0

>  <SCORE.SYSTEM.CONST>
0

>  <SCORE.SYSTEM.DIHEDRAL>
0

>  <SCORE.SYSTEM.SOLV>
0

>  <SCORE.SYSTEM.norm>
0

>  <SCORE.heavy>
16

>  <SCORE.norm>
-2.0742

>  <RMSD>
1.725

$$$$
1f27 biotin aptamer (Xray 1.3A)
 OpenBabel11021811393D
libRbt.so/2013.1/901 2013/11/27
 16 17  0  0  0  0  0  0  0  0999 V2000
   20.9339   -0.7425   14.8365 C   0  0  0  0  0  0  0  0  0  0  0  0
   21.0076   -1.3062   13.7492 O   0  5  0  0  0  0  0  0  0  0  0  0
   20.7881   -1.4067   15.8612 O   0  0  0  0  0  0  0  0  0  0  0  0
   21.0911    0.7701   14.9258 C   0  0  0  0  0  0  0  0  0  0  0  0
   20.1101    1.5569   14.0282 C   0  0  0  0  0  0  0  0  0  0  0  0
   18.6658    1.3002   14.4170 C   0  0  0  0  0  0  0  0  0  0  0  0
   17.6710    2.1195   13.6216 C   0  0  0  0  0  0  0  0  0  0  0  0
   16.2019    1.8970   14.0043 C   0  0  2  0  0  0  0  0  0  0  0  0
   15.4971    0.1548   13.6389 S   0  0  0  0  0  0  0  0  0  0  0  0
   13.7684    0.9161   13.9161 C   0  0  0  0  0  0  0  0  0  0  0  0
   13.8700    2.3632   13.3513 C   0  0  2  0  0  0  0  0  0  0  0  0
   13.4510    2.2609   11.8603 N   0  0  0  0  0  0  0  0  0  0  0  0
   14.3533    2.6341   11.0605 C   0  0  0  0  0  0  0  0  0  0  0  0
   14.4227    2.5371    9.7840 O   0  0  0  0  0  0  0  0  0  0  0  0
   15.6169    2.9163   11.7019 N   0  0  0  0  0  0  0  0  0  0  0  0
   15.3047    2.8370   13.1960 C   0  0  2  0  0  0  0  0  0  0  0  0
  1  2  1  0  0  0  0
  1  3  2  0  0  0  0
  1  4  1  0  0  0  0
  4  5  1  0  0  0  0
  5  6  1  0  0  0  0
  6  7  1  0  0  0  0
  8  7  1  6  0  0  0
  8  9  1  0  0  0  0
  8 16  1  0  0  0  0
  9 10  1  0  0  0  0
 11 10  1  6  0  0  0
 11 12  1  0  0  0  0
 11 16  1  0  0  0  0
 12 13  1  0  0  0  0
 13 14  2  0  0  0  0
 13 15  1  0  0  0  0
 16 15  1  6  0  0  0
M  CHG  1   2  -1
M  END
>  <CHROM.1>
55.59854763,61.81407819,176.29797738,-179.20000242,-65.89593903,16.96655694
1.18497908,13.37493265,0.53241007,-0.00029541,2.30981814

>  <Name>
1f27 biotin aptamer (Xray 1.3A)

>  <RI>
0

>  <Rbt.Current_Directory>
/home/itssahil/PROJECTS/Mol_Feturizer/New_Systems/rnas/1f27

>  <Rbt.Executable>
rbdock ($Id: //depot/dev/client3/rdock/2013.1/src/exe/rbdock.cxx#4 $)

>  <Rbt.Library>
libRbt.so (2013.1, Build901 2013/11/27)

>  <Rbt.Parameter_File>
/export/apps/rDock/src/rDock_2013.1_src/data/scripts/dock_solv.prm

>  <Rbt.Receptor>
prm/pocket_docking_3.prm

>  <SCORE>
-30.3365

>  <SCORE.INTER>
-27.8763

>  <SCORE.INTER.CONST>
1

>  <SCORE.INTER.POLAR>
-1.35002

>  <SCORE.INTER.ROT>
5

>  <SCORE.INTER.SOLV>
8.78731

>  <SCORE.INTER.VDW>
-23.9466

>  <SCORE.INTER.norm>
-1.74227

>  <SCORE.INTRA>
-2.46025

>  <SCORE.INTRA.DIHEDRAL>
-5.33445

>  <SCORE.INTRA.DIHEDRAL.0>
6.87082

>  <SCORE.INTRA.POLAR>
0

>  <SCORE.INTRA.POLAR.0>
0

>  <SCORE.INTRA.REPUL>
0

>  <SCORE.INTRA.REPUL.0>
0

>  <SCORE.INTRA.SOLV>
0.071025

>  <SCORE.INTRA.SOLV.lig_0>
-42.5944

>  <SCORE.INTRA.VDW>
0.171463

>  <SCORE.INTRA.VDW.0>
-1.067

>  <SCORE.INTRA.norm>
-0.153766

>  <SCORE.RESTR>
0

>  <SCORE.RESTR.CAVITY>
0

>  <SCORE.RESTR.norm>
0

>  <SCORE.SYSTEM>
0

>  <SCORE.SYSTEM.CONST>
0

>  <SCORE.SYSTEM.DIHEDRAL>
0

>  <SCORE.SYSTEM.SOLV>
0

>  <SCORE.SYSTEM.norm>
0

>  <SCORE.heavy>
16

>  <SCORE.norm>
-1.89603

>  <RMSD>
1.733

$$$$
1f27 biotin aptamer (Xray 1.3A)
 OpenBabel11021811393D
libRbt.so/2013.1/901 2013/11/27
 16 17  0  0  0  0  0  0  0  0999 V2000
   21.2173   -0.1763   14.4415 C   0  0  0  0  0  0  0  0  0  0  0  0
   20.5023   -0.9345   15.0890 O   0  5  0  0  0  0  0  0  0  0  0  0
   22.2922    0.1979   14.9074 O   0  0  0  0  0  0  0  0  0  0  0  0
   20.8082    0.2466   13.0363 C   0  0  0  0  0  0  0  0  0  0  0  0
   20.2973    1.7016   12.9427 C   0  0  0  0  0  0  0  0  0  0  0  0
   19.0693    1.9212   13.8068 C   0  0  0  0  0  0  0  0  0  0  0  0
   17.8663    1.1149   13.3637 C   0  0  0  0  0  0  0  0  0  0  0  0
   16.5445    1.5086   14.0360 C   0  0  2  0  0  0  0  0  0  0  0  0
   15.0411    0.3896   13.6440 S   0  0  0  0  0  0  0  0  0  0  0  0
   13.9559    1.7763   14.3817 C   0  0  0  0  0  0  0  0  0  0  0  0
   14.6631    3.1017   13.9738 C   0  0  2  0  0  0  0  0  0  0  0  0
   14.0395    3.5067   12.6113 N   0  0  0  0  0  0  0  0  0  0  0  0
   14.8854    3.5854   11.6778 C   0  0  0  0  0  0  0  0  0  0  0  0
   14.7167    3.7301   10.4152 O   0  0  0  0  0  0  0  0  0  0  0  0
   16.2044    3.1277   12.0498 N   0  0  0  0  0  0  0  0  0  0  0  0
   16.1092    2.8955   13.5574 C   0  0  2  0  0  0  0  0  0  0  0  0
  1  2  1  0  0  0  0
  1  3  2  0  0  0  0
  1  4  1  0  0  0  0
  4  5  1  0  0  0  0
  5  6  1  0  0  0  0
  6  7  1  0  0  0  0
  8  7  1  6  0  0  0
  8  9  1  0  0  0  0
  8 16  1  0  0  0  0
  9 10  1  0  0  0  0
 11 10  1  6  0  0  0
 11 12  1  0  0  0  0
 11 16  1  0  0  0  0
 12 13  1  0  0  0  0
 13 14  2  0  0  0  0
 13 15  1  0  0  0  0
 16 15  1  6  0  0  0
M  CHG  1   2  -1
M  END
>  <CHROM.1>
105.96862885,-60.53001304,-64.38283530,-168.75044211,-173.60735994,17.24724413
1.61762775,13.38105352,0.44504021,-0.09788440,2.37674372

>  <Name>
1f27 biotin aptamer (Xray 1.3A)

>  <RI>
0

>  <Rbt.Current_Directory>
/home/itssahil/PROJECTS/Mol_Feturizer/New_Systems/rnas/1f27

>  <Rbt.Executable>
rbdock ($Id: //depot/dev/client3/rdock/2013.1/src/exe/rbdock.cxx#4 $)

>  <Rbt.Library>
libRbt.so (2013.1, Build901 2013/11/27)

>  <Rbt.Parameter_File>
/export/apps/rDock/src/rDock_2013.1_src/data/scripts/dock_solv.prm

>  <Rbt.Receptor>
prm/blind_docking_60.prm

>  <SCORE>
-26.0158

>  <SCORE.INTER>
-24.7015

>  <SCORE.INTER.CONST>
1

>  <SCORE.INTER.POLAR>
-0.799309

>  <SCORE.INTER.ROT>
5

>  <SCORE.INTER.SOLV>
10.9675

>  <SCORE.INTER.VDW>
-24.3924

>  <SCORE.INTER.norm>
-1.54384

>  <SCORE.INTRA>
-1.31434

>  <SCORE.INTRA.DIHEDRAL>
-4.66161

>  <SCORE.INTRA.DIHEDRAL.0>
6.87082

>  <SCORE.INTRA.POLAR>
0

>  <SCORE.INTRA.POLAR.0>
0

>  <SCORE.INTRA.REPUL>
0

>  <SCORE.INTRA.REPUL.0>
0

>  <SCORE.INTRA.SOLV>
0.737659

>  <SCORE.INTRA.SOLV.lig_0>
-42.5944

>  <SCORE.INTRA.VDW>
0.647637

>  <SCORE.INTRA.VDW.0>
-1.067

>  <SCORE.INTRA.norm>
-0.082146

>  <SCORE.RESTR>
0

>  <SCORE.RESTR.CAVITY>
0

>  <SCORE.RESTR.norm>
0

>  <SCORE.SYSTEM>
0

>  <SCORE.SYSTEM.CONST>
0

>  <SCORE.SYSTEM.DIHEDRAL>
0

>  <SCORE.SYSTEM.SOLV>
0

>  <SCORE.SYSTEM.norm>
0

>  <SCORE.heavy>
16

>  <SCORE.norm>
-1.62599

>  <RMSD>
1.735

$$$$
1f27 biotin aptamer (Xray 1.3A)
 OpenBabel11021811393D
libRbt.so/2013.1/901 2013/11/27
 16 17  0  0  0  0  0  0  0  0999 V2000
   21.0621   -0.2343   13.2946 C   0  0  0  0  0  0  0  0  0  0  0  0
   20.2125   -1.0560   13.6238 O   0  5  0  0  0  0  0  0  0  0  0  0
   21.8556   -0.5022   12.3940 O   0  0  0  0  0  0  0  0  0  0  0  0
   21.0916    1.1398   13.9513 C   0  0  0  0  0  0  0  0  0  0  0  0
   19.7026    1.8044   14.0786 C   0  0  0  0  0  0  0  0  0  0  0  0
   19.0491    2.0010   12.7232 C   0  0  0  0  0  0  0  0  0  0  0  0
   17.8041    2.8620   12.7715 C   0  0  0  0  0  0  0  0  0  0  0  0
   16.6486    2.2772   13.5943 C   0  0  2  0  0  0  0  0  0  0  0  0
   16.0270    0.5492   13.0528 S   0  0  0  0  0  0  0  0  0  0  0  0
   14.4982    0.8770   14.1483 C   0  0  0  0  0  0  0  0  0  0  0  0
   14.2205    2.4021   14.0069 C   0  0  2  0  0  0  0  0  0  0  0  0
   13.2407    2.5400   12.8110 N   0  0  0  0  0  0  0  0  0  0  0  0
   13.6969    3.2462   11.8695 C   0  0  0  0  0  0  0  0  0  0  0  0
   13.2474    3.4397   10.6845 O   0  0  0  0  0  0  0  0  0  0  0  0
   15.0787    3.6287   12.0480 N   0  0  0  0  0  0  0  0  0  0  0  0
   15.4136    3.1720   13.4676 C   0  0  2  0  0  0  0  0  0  0  0  0
  1  2  1  0  0  0  0
  1  3  2  0  0  0  0
  1  4  1  0  0  0  0
  4  5  1  0  0  0  0
  5  6  1  0  0  0  0
  6  7  1  0  0  0  0
  8  7  1  6  0  0  0
  8  9  1  0  0  0  0
  8 16  1  0  0  0  0
  9 10  1  0  0  0  0
 11 10  1  6  0  0  0
 11 12  1  0  0  0  0
 11 16  1  0  0  0  0
 12 13  1  0  0  0  0
 13 14  2  0  0  0  0
 13 15  1  0  0  0  0
 16 15  1  6  0  0  0
M  CHG  1   2  -1
M  END
>  <CHROM.1>
-44.85062212,-59.84813367,-169.86803083,-63.49472429,-57.51651240,17.00036219
1.64628091,13.00599550,0.37877209,-0.05516998,2.68417623

>  <Name>
1f27 biotin aptamer (Xray 1.3A)

>  <RI>
0

>  <Rbt.Current_Directory>
/home/itssahil/PROJECTS/Mol_Feturizer/New_Systems/rnas/1f27

>  <Rbt.Executable>
rbdock ($Id: //depot/dev/client3/rdock/2013.1/src/exe/rbdock.cxx#4 $)

>  <Rbt.Library>
libRbt.so (2013.1, Build901 2013/11/27)

>  <Rbt.Parameter_File>
/export/apps/rDock/src/rDock_2013.1_src/data/scripts/dock_solv.prm

>  <Rbt.Receptor>
prm/pocket_docking_3.prm

>  <SCORE>
-30.0801

>  <SCORE.INTER>
-28.081

>  <SCORE.INTER.CONST>
1

>  <SCORE.INTER.POLAR>
-1.69235

>  <SCORE.INTER.ROT>
5

>  <SCORE.INTER.SOLV>
10.8355

>  <SCORE.INTER.VDW>
-23.6247

>  <SCORE.INTER.norm>
-1.75506

>  <SCORE.INTRA>
-1.99913

>  <SCORE.INTRA.DIHEDRAL>
-4.93646

>  <SCORE.INTRA.DIHEDRAL.0>
6.87082

>  <SCORE.INTRA.POLAR>
0

>  <SCORE.INTRA.POLAR.0>
0

>  <SCORE.INTRA.REPUL>
0

>  <SCORE.INTRA.REPUL.0>
0

>  <SCORE.INTRA.SOLV>
0.32335

>  <SCORE.INTRA.SOLV.lig_0>
-42.5944

>  <SCORE.INTRA.VDW>
0.307428

>  <SCORE.INTRA.VDW.0>
-1.067

>  <SCORE.INTRA.norm>
-0.124945

>  <SCORE.RESTR>
0

>  <SCORE.RESTR.CAVITY>
0

>  <SCORE.RESTR.norm>
0

>  <SCORE.SYSTEM>
0

>  <SCORE.SYSTEM.CONST>
0

>  <SCORE.SYSTEM.DIHEDRAL>
0

>  <SCORE.SYSTEM.SOLV>
0

>  <SCORE.SYSTEM.norm>
0

>  <SCORE.heavy>
16

>  <SCORE.norm>
-1.88001

>  <RMSD>
1.735

$$$$
1f27 biotin aptamer (Xray 1.3A)
 OpenBabel11021811393D
libRbt.so/2013.1/901 2013/11/27
 16 17  0  0  0  0  0  0  0  0999 V2000
   20.8592   -0.1876   12.5108 C   0  0  0  0  0  0  0  0  0  0  0  0
   19.8652   -0.9068   12.5067 O   0  5  0  0  0  0  0  0  0  0  0  0
   21.9461   -0.6442   12.1606 O   0  0  0  0  0  0  0  0  0  0  0  0
   20.7362    1.2846   12.8827 C   0  0  0  0  0  0  0  0  0  0  0  0
   20.3113    1.5283   14.3480 C   0  0  0  0  0  0  0  0  0  0  0  0
   18.8590    1.1543   14.5800 C   0  0  0  0  0  0  0  0  0  0  0  0
   17.8778    2.1272   13.9600 C   0  0  0  0  0  0  0  0  0  0  0  0
   16.3999    1.7917   14.2001 C   0  0  2  0  0  0  0  0  0  0  0  0
   15.8151    0.0848   13.5596 S   0  0  0  0  0  0  0  0  0  0  0  0
   14.0336    0.7261   13.8039 C   0  0  0  0  0  0  0  0  0  0  0  0
   14.0965    2.2387   13.4414 C   0  0  2  0  0  0  0  0  0  0  0  0
   13.7859    2.3183   11.9227 N   0  0  0  0  0  0  0  0  0  0  0  0
   14.7195    2.8340   11.2477 C   0  0  0  0  0  0  0  0  0  0  0  0
   14.8807    2.9114    9.9781 O   0  0  0  0  0  0  0  0  0  0  0  0
   15.9197    3.0828   12.0126 N   0  0  0  0  0  0  0  0  0  0  0  0
   15.5112    2.7912   13.4563 C   0  0  2  0  0  0  0  0  0  0  0  0
  1  2  1  0  0  0  0
  1  3  2  0  0  0  0
  1  4  1  0  0  0  0
  4  5  1  0  0  0  0
  5  6  1  0  0  0  0
  6  7  1  0  0  0  0
  8  7  1  6  0  0  0
  8  9  1  0  0  0  0
  8 16  1  0  0  0  0
  9 10  1  0  0  0  0
 11 10  1  6  0  0  0
 11 12  1  0  0  0  0
 11 16  1  0  0  0  0
 12 13  1  0  0  0  0
 13 14  2  0  0  0  0
 13 15  1  0  0  0  0
 16 15  1  6  0  0  0
M  CHG  1   2  -1
M  END
>  <CHROM.1>
65.24359977,-71.20944207,-72.50713200,-178.87006214,-58.95032810,17.15689263
1.32263955,12.92188464,-0.22463384,0.24559092,-1.12656774

>  <Name>
1f27 biotin aptamer (Xray 1.3A)

>  <RI>
0

>  <Rbt.Current_Directory>
/home/itssahil/PROJECTS/Mol_Feturizer/New_Systems/rnas/1f27

>  <Rbt.Executable>
rbdock ($Id: //depot/dev/client3/rdock/2013.1/src/exe/rbdock.cxx#4 $)

>  <Rbt.Library>
libRbt.so (2013.1, Build901 2013/11/27)

>  <Rbt.Parameter_File>
/export/apps/rDock/src/rDock_2013.1_src/data/scripts/dock_solv.prm

>  <Rbt.Receptor>
prm/pocket_docking_7.prm

>  <SCORE>
-36.3614

>  <SCORE.INTER>
-34.6851

>  <SCORE.INTER.CONST>
1

>  <SCORE.INTER.POLAR>
-2.7734

>  <SCORE.INTER.ROT>
5

>  <SCORE.INTER.SOLV>
15.05

>  <SCORE.INTER.VDW>
-25.8287

>  <SCORE.INTER.norm>
-2.16782

>  <SCORE.INTRA>
-1.67632

>  <SCORE.INTRA.DIHEDRAL>
-4.39118

>  <SCORE.INTRA.DIHEDRAL.0>
6.87082

>  <SCORE.INTRA.POLAR>
0

>  <SCORE.INTRA.POLAR.0>
0

>  <SCORE.INTRA.REPUL>
0

>  <SCORE.INTRA.REPUL.0>
0

>  <SCORE.INTRA.SOLV>
0.580288

>  <SCORE.INTRA.SOLV.lig_0>
-42.5944

>  <SCORE.INTRA.VDW>
0.229128

>  <SCORE.INTRA.VDW.0>
-1.067

>  <SCORE.INTRA.norm>
-0.10477

>  <SCORE.RESTR>
0

>  <SCORE.RESTR.CAVITY>
0

>  <SCORE.RESTR.norm>
0

>  <SCORE.SYSTEM>
0

>  <SCORE.SYSTEM.CONST>
0

>  <SCORE.SYSTEM.DIHEDRAL>
0

>  <SCORE.SYSTEM.SOLV>
0

>  <SCORE.SYSTEM.norm>
0

>  <SCORE.heavy>
16

>  <SCORE.norm>
-2.27259

>  <RMSD>
1.735

$$$$
1f27 biotin aptamer (Xray 1.3A)
 OpenBabel11021811393D
libRbt.so/2013.1/901 2013/11/27
 16 17  0  0  0  0  0  0  0  0999 V2000
   20.1513   -0.5770   13.7741 C   0  0  0  0  0  0  0  0  0  0  0  0
   20.6913   -0.3357   14.8490 O   0  5  0  0  0  0  0  0  0  0  0  0
   19.3778   -1.5284   13.6779 O   0  0  0  0  0  0  0  0  0  0  0  0
   20.3839    0.3385   12.5790 C   0  0  0  0  0  0  0  0  0  0  0  0
   19.7096    1.7226   12.7082 C   0  0  0  0  0  0  0  0  0  0  0  0
   18.1977    1.6059   12.7687 C   0  0  0  0  0  0  0  0  0  0  0  0
   17.6056    2.0928   14.0748 C   0  0  0  0  0  0  0  0  0  0  0  0
   16.1038    1.8256   14.2400 C   0  0  2  0  0  0  0  0  0  0  0  0
   15.4829    0.1264   13.6133 S   0  0  0  0  0  0  0  0  0  0  0  0
   13.7196    0.8474   13.7396 C   0  0  0  0  0  0  0  0  0  0  0  0
   13.8670    2.3449   13.3411 C   0  0  2  0  0  0  0  0  0  0  0  0
   13.6444    2.3932   11.8057 N   0  0  0  0  0  0  0  0  0  0  0  0
   14.6350    2.8503   11.1710 C   0  0  0  0  0  0  0  0  0  0  0  0
   14.8692    2.8842    9.9109 O   0  0  0  0  0  0  0  0  0  0  0  0
   15.8007    3.0715   11.9954 N   0  0  0  0  0  0  0  0  0  0  0  0
   15.3010    2.8389   13.4210 C   0  0  2  0  0  0  0  0  0  0  0  0
  1  2  1  0  0  0  0
  1  3  2  0  0  0  0
  1  4  1  0  0  0  0
  4  5  1  0  0  0  0
  5  6  1  0  0  0  0
  6  7  1  0  0  0  0
  8  7  1  6  0  0  0
  8  9  1  0  0  0  0
  8 16  1  0  0  0  0
  9 10  1  0  0  0  0
 11 10  1  6  0  0  0
 11 12  1  0  0  0  0
 11 16  1  0  0  0  0
 12 13  1  0  0  0  0
 13 14  2  0  0  0  0
 13 15  1  0  0  0  0
 16 15  1  6  0  0  0
M  CHG  1   2  -1
M  END
>  <CHROM.1>
-70.70180460,-63.44686639,116.74012692,-172.59757159,40.15583280,16.77645840
1.28890757,13.00998326,0.46403042,-0.12526663,2.32592009

>  <Name>
1f27 biotin aptamer (Xray 1.3A)

>  <RI>
0

>  <Rbt.Current_Directory>
/home/itssahil/PROJECTS/Mol_Feturizer/New_Systems/rnas/1f27

>  <Rbt.Executable>
rbdock ($Id: //depot/dev/client3/rdock/2013.1/src/exe/rbdock.cxx#4 $)

>  <Rbt.Library>
libRbt.so (2013.1, Build901 2013/11/27)

>  <Rbt.Parameter_File>
/export/apps/rDock/src/rDock_2013.1_src/data/scripts/dock_solv.prm

>  <Rbt.Receptor>
prm/pocket_docking_3.prm

>  <SCORE>
-28.7561

>  <SCORE.INTER>
-30.8749

>  <SCORE.INTER.CONST>
1

>  <SCORE.INTER.POLAR>
-1.85694

>  <SCORE.INTER.ROT>
5

>  <SCORE.INTER.SOLV>
9.14343

>  <SCORE.INTER.VDW>
-24.3746

>  <SCORE.INTER.norm>
-1.92968

>  <SCORE.INTRA>
2.11878

>  <SCORE.INTRA.DIHEDRAL>
2.19822

>  <SCORE.INTRA.DIHEDRAL.0>
6.87082

>  <SCORE.INTRA.POLAR>
0

>  <SCORE.INTRA.POLAR.0>
0

>  <SCORE.INTRA.REPUL>
0

>  <SCORE.INTRA.REPUL.0>
0

>  <SCORE.INTRA.SOLV>
1.50647

>  <SCORE.INTRA.SOLV.lig_0>
-42.5944

>  <SCORE.INTRA.VDW>
0.26644

>  <SCORE.INTRA.VDW.0>
-1.067

>  <SCORE.INTRA.norm>
0.132424

>  <SCORE.RESTR>
0

>  <SCORE.RESTR.CAVITY>
0

>  <SCORE.RESTR.norm>
0

>  <SCORE.SYSTEM>
0

>  <SCORE.SYSTEM.CONST>
0

>  <SCORE.SYSTEM.DIHEDRAL>
0

>  <SCORE.SYSTEM.SOLV>
0

>  <SCORE.SYSTEM.norm>
0

>  <SCORE.heavy>
16

>  <SCORE.norm>
-1.79726

>  <RMSD>
1.738

$$$$
1f27 biotin aptamer (Xray 1.3A)
 OpenBabel11021811393D
libRbt.so/2013.1/901 2013/11/27
 16 17  0  0  0  0  0  0  0  0999 V2000
   20.8349   -0.3723   12.5215 C   0  0  0  0  0  0  0  0  0  0  0  0
   21.0345   -1.1899   11.6287 O   0  5  0  0  0  0  0  0  0  0  0  0
   21.6448    0.5328   12.7144 O   0  0  0  0  0  0  0  0  0  0  0  0
   19.5545   -0.4363   13.3443 C   0  0  0  0  0  0  0  0  0  0  0  0
   18.3079    0.1035   12.6083 C   0  0  0  0  0  0  0  0  0  0  0  0
   18.1934    1.6116   12.7318 C   0  0  0  0  0  0  0  0  0  0  0  0
   17.6443    2.0689   14.0671 C   0  0  0  0  0  0  0  0  0  0  0  0
   16.1391    1.8395   14.2567 C   0  0  2  0  0  0  0  0  0  0  0  0
   15.4670    0.1529   13.6491 S   0  0  0  0  0  0  0  0  0  0  0  0
   13.7241    0.9177   13.7983 C   0  0  0  0  0  0  0  0  0  0  0  0
   13.9021    2.4090   13.3891 C   0  0  2  0  0  0  0  0  0  0  0  0
   13.6572    2.4548   11.8571 N   0  0  0  0  0  0  0  0  0  0  0  0
   14.6488    2.8840   11.2047 C   0  0  0  0  0  0  0  0  0  0  0  0
   14.8643    2.9055    9.9410 O   0  0  0  0  0  0  0  0  0  0  0  0
   15.8321    3.0808   12.0100 N   0  0  0  0  0  0  0  0  0  0  0  0
   15.3489    2.8680   13.4444 C   0  0  2  0  0  0  0  0  0  0  0  0
  1  2  1  0  0  0  0
  1  3  2  0  0  0  0
  1  4  1  0  0  0  0
  4  5  1  0  0  0  0
  5  6  1  0  0  0  0
  6  7  1  0  0  0  0
  8  7  1  6  0  0  0
  8  9  1  0  0  0  0
  8 16  1  0  0  0  0
  9 10  1  0  0  0  0
 11 10  1  6  0  0  0
 11 12  1  0  0  0  0
 11 16  1  0  0  0  0
 12 13  1  0  0  0  0
 13 14  2  0  0  0  0
 13 15  1  0  0  0  0
 16 15  1  6  0  0  0
M  CHG  1   2  -1
M  END
>  <CHROM.1>
-76.36085525,-84.30124220,-78.52994848,-73.82208009,42.53027692,16.86275121
1.26001473,12.72932703,-0.22262317,0.30997206,-0.97999073

>  <Name>
1f27 biotin aptamer (Xray 1.3A)

>  <RI>
0

>  <Rbt.Current_Directory>
/home/itssahil/PROJECTS/Mol_Feturizer/New_Systems/rnas/1f27

>  <Rbt.Executable>
rbdock ($Id: //depot/dev/client3/rdock/2013.1/src/exe/rbdock.cxx#4 $)

>  <Rbt.Library>
libRbt.so (2013.1, Build901 2013/11/27)

>  <Rbt.Parameter_File>
/export/apps/rDock/src/rDock_2013.1_src/data/scripts/dock_solv.prm

>  <Rbt.Receptor>
prm/pocket_docking_5.prm

>  <SCORE>
-29.2432

>  <SCORE.INTER>
-31.0019

>  <SCORE.INTER.CONST>
1

>  <SCORE.INTER.POLAR>
-2.37265

>  <SCORE.INTER.ROT>
5

>  <SCORE.INTER.SOLV>
16.0825

>  <SCORE.INTER.VDW>
-25.0532

>  <SCORE.INTER.norm>
-1.93762

>  <SCORE.INTRA>
1.75866

>  <SCORE.INTRA.DIHEDRAL>
-0.475222

>  <SCORE.INTRA.DIHEDRAL.0>
6.87082

>  <SCORE.INTRA.POLAR>
0

>  <SCORE.INTRA.POLAR.0>
0

>  <SCORE.INTRA.REPUL>
0

>  <SCORE.INTRA.REPUL.0>
0

>  <SCORE.INTRA.SOLV>
0.67156

>  <SCORE.INTRA.SOLV.lig_0>
-42.5944

>  <SCORE.INTRA.VDW>
1.66049

>  <SCORE.INTRA.VDW.0>
-1.067

>  <SCORE.INTRA.norm>
0.109916

>  <SCORE.RESTR>
0

>  <SCORE.RESTR.CAVITY>
0

>  <SCORE.RESTR.norm>
0

>  <SCORE.SYSTEM>
0

>  <SCORE.SYSTEM.CONST>
0

>  <SCORE.SYSTEM.DIHEDRAL>
0

>  <SCORE.SYSTEM.SOLV>
0

>  <SCORE.SYSTEM.norm>
0

>  <SCORE.heavy>
16

>  <SCORE.norm>
-1.8277

>  <RMSD>
1.740

$$$$
1f27 biotin aptamer (Xray 1.3A)
 OpenBabel11021811393D
libRbt.so/2013.1/901 2013/11/27
 16 17  0  0  0  0  0  0  0  0999 V2000
   22.0379   -0.2255   14.2095 C   0  0  0  0  0  0  0  0  0  0  0  0
   22.1135   -0.1173   12.9897 O   0  5  0  0  0  0  0  0  0  0  0  0
   23.0506   -0.4595   14.8668 O   0  0  0  0  0  0  0  0  0  0  0  0
   20.7066   -0.0032   14.9157 C   0  0  0  0  0  0  0  0  0  0  0  0
   19.8508    1.1264   14.3003 C   0  0  0  0  0  0  0  0  0  0  0  0
   18.3697    0.9043   14.5451 C   0  0  0  0  0  0  0  0  0  0  0  0
   17.4998    2.0480   14.0668 C   0  0  0  0  0  0  0  0  0  0  0  0
   15.9907    1.8157   14.2178 C   0  0  2  0  0  0  0  0  0  0  0  0
   15.3344    0.1366   13.5730 S   0  0  0  0  0  0  0  0  0  0  0  0
   13.5879    0.8987   13.6907 C   0  0  0  0  0  0  0  0  0  0  0  0
   13.7744    2.3952   13.3049 C   0  0  2  0  0  0  0  0  0  0  0  0
   13.5658    2.4604   11.7682 N   0  0  0  0  0  0  0  0  0  0  0  0
   14.5722    2.8983   11.1449 C   0  0  0  0  0  0  0  0  0  0  0  0
   14.8176    2.9360    9.8871 O   0  0  0  0  0  0  0  0  0  0  0  0
   15.7360    3.0853   11.9805 N   0  0  0  0  0  0  0  0  0  0  0  0
   15.2192    2.8541   13.4002 C   0  0  2  0  0  0  0  0  0  0  0  0
  1  2  1  0  0  0  0
  1  3  2  0  0  0  0
  1  4  1  0  0  0  0
  4  5  1  0  0  0  0
  5  6  1  0  0  0  0
  6  7  1  0  0  0  0
  8  7  1  6  0  0  0
  8  9  1  0  0  0  0
  8 16  1  0  0  0  0
  9 10  1  0  0  0  0
 11 10  1  6  0  0  0
 11 12  1  0  0  0  0
 11 16  1  0  0  0  0
 12 13  1  0  0  0  0
 13 14  2  0  0  0  0
 13 15  1  0  0  0  0
 16 15  1  6  0  0  0
M  CHG  1   2  -1
M  END
>  <CHROM.1>
-37.12434718,152.96094130,174.89512657,176.26115258,-48.38667673,17.17735565
1.31188851,13.29738007,-0.37953449,0.10989837,-1.01329589

>  <Name>
1f27 biotin aptamer (Xray 1.3A)

>  <RI>
0

>  <Rbt.Current_Directory>
/home/itssahil/PROJECTS/Mol_Feturizer/New_Systems/rnas/1f27

>  <Rbt.Executable>
rbdock ($Id: //depot/dev/client3/rdock/2013.1/src/exe/rbdock.cxx#4 $)

>  <Rbt.Library>
libRbt.so (2013.1, Build901 2013/11/27)

>  <Rbt.Parameter_File>
/export/apps/rDock/src/rDock_2013.1_src/data/scripts/dock_solv.prm

>  <Rbt.Receptor>
prm/pocket_docking_6.prm

>  <SCORE>
-29.2889

>  <SCORE.INTER>
-28.0921

>  <SCORE.INTER.CONST>
1

>  <SCORE.INTER.POLAR>
-2.18043

>  <SCORE.INTER.ROT>
5

>  <SCORE.INTER.SOLV>
13.5539

>  <SCORE.INTER.VDW>
-22.9113

>  <SCORE.INTER.norm>
-1.75575

>  <SCORE.INTRA>
-1.19687

>  <SCORE.INTRA.DIHEDRAL>
-2.43453

>  <SCORE.INTRA.DIHEDRAL.0>
6.87082

>  <SCORE.INTRA.POLAR>
0

>  <SCORE.INTRA.POLAR.0>
0

>  <SCORE.INTRA.REPUL>
0

>  <SCORE.INTRA.REPUL.0>
0

>  <SCORE.INTRA.SOLV>
-0.69817

>  <SCORE.INTRA.SOLV.lig_0>
-42.5944

>  <SCORE.INTRA.VDW>
0.369478

>  <SCORE.INTRA.VDW.0>
-1.067

>  <SCORE.INTRA.norm>
-0.0748045

>  <SCORE.RESTR>
0

>  <SCORE.RESTR.CAVITY>
0

>  <SCORE.RESTR.norm>
0

>  <SCORE.SYSTEM>
0

>  <SCORE.SYSTEM.CONST>
0

>  <SCORE.SYSTEM.DIHEDRAL>
0

>  <SCORE.SYSTEM.SOLV>
0

>  <SCORE.SYSTEM.norm>
0

>  <SCORE.heavy>
16

>  <SCORE.norm>
-1.83056

>  <RMSD>
1.740

$$$$
1f27 biotin aptamer (Xray 1.3A)
 OpenBabel11021811393D
libRbt.so/2013.1/901 2013/11/27
 16 17  0  0  0  0  0  0  0  0999 V2000
   20.4992   -1.2707   15.3995 C   0  0  0  0  0  0  0  0  0  0  0  0
   20.4944   -2.4594   15.0953 O   0  5  0  0  0  0  0  0  0  0  0  0
   20.7615   -0.9356   16.5533 O   0  0  0  0  0  0  0  0  0  0  0  0
   20.2487   -0.2086   14.3366 C   0  0  0  0  0  0  0  0  0  0  0  0
   19.0994    0.7648   14.6810 C   0  0  0  0  0  0  0  0  0  0  0  0
   18.8219    1.7293   13.5427 C   0  0  0  0  0  0  0  0  0  0  0  0
   17.7637    2.7622   13.8700 C   0  0  0  0  0  0  0  0  0  0  0  0
   16.3586    2.1921   14.1049 C   0  0  2  0  0  0  0  0  0  0  0  0
   16.0247    0.4588   13.3632 S   0  0  0  0  0  0  0  0  0  0  0  0
   14.1723    0.8061   13.6683 C   0  0  0  0  0  0  0  0  0  0  0  0
   13.9988    2.3300   13.4026 C   0  0  2  0  0  0  0  0  0  0  0  0
   13.6481    2.4548   11.8957 N   0  0  0  0  0  0  0  0  0  0  0  0
   14.4789    3.1468   11.2445 C   0  0  0  0  0  0  0  0  0  0  0  0
   14.6000    3.3258    9.9808 O   0  0  0  0  0  0  0  0  0  0  0  0
   15.6436    3.5274   12.0102 N   0  0  0  0  0  0  0  0  0  0  0  0
   15.3140    3.0889   13.4367 C   0  0  2  0  0  0  0  0  0  0  0  0
  1  2  1  0  0  0  0
  1  3  2  0  0  0  0
  1  4  1  0  0  0  0
  4  5  1  0  0  0  0
  5  6  1  0  0  0  0
  6  7  1  0  0  0  0
  8  7  1  6  0  0  0
  8  9  1  0  0  0  0
  8 16  1  0  0  0  0
  9 10  1  0  0  0  0
 11 10  1  6  0  0  0
 11 12  1  0  0  0  0
 11 16  1  0  0  0  0
 12 13  1  0  0  0  0
 13 14  2  0  0  0  0
 13 15  1  0  0  0  0
 16 15  1  6  0  0  0
M  CHG  1   2  -1
M  END
>  <CHROM.1>
125.49357393,-175.48001706,-176.20632400,-65.06212482,-20.97882100,16.95758022
1.26244428,13.51791206,0.69729487,0.17537318,2.60772104

>  <Name>
1f27 biotin aptamer (Xray 1.3A)

>  <RI>
0

>  <Rbt.Current_Directory>
/home/itssahil/PROJECTS/Mol_Feturizer/New_Systems/rnas/1f27

>  <Rbt.Executable>
rbdock ($Id: //depot/dev/client3/rdock/2013.1/src/exe/rbdock.cxx#4 $)

>  <Rbt.Library>
libRbt.so (2013.1, Build901 2013/11/27)

>  <Rbt.Parameter_File>
/export/apps/rDock/src/rDock_2013.1_src/data/scripts/dock_solv.prm

>  <Rbt.Receptor>
prm/pocket_docking_4.prm

>  <SCORE>
-26.9061

>  <SCORE.INTER>
-26.8038

>  <SCORE.INTER.CONST>
1

>  <SCORE.INTER.POLAR>
-1.72466

>  <SCORE.INTER.ROT>
5

>  <SCORE.INTER.SOLV>
8.2574

>  <SCORE.INTER.VDW>
-21.8061

>  <SCORE.INTER.norm>
-1.67524

>  <SCORE.INTRA>
-0.102342

>  <SCORE.INTRA.DIHEDRAL>
-1.0126

>  <SCORE.INTRA.DIHEDRAL.0>
6.87082

>  <SCORE.INTRA.POLAR>
0

>  <SCORE.INTRA.POLAR.0>
0

>  <SCORE.INTRA.REPUL>
0

>  <SCORE.INTRA.REPUL.0>
0

>  <SCORE.INTRA.SOLV>
-0.67302

>  <SCORE.INTRA.SOLV.lig_0>
-42.5944

>  <SCORE.INTRA.VDW>
0.740468

>  <SCORE.INTRA.VDW.0>
-1.067

>  <SCORE.INTRA.norm>
-0.00639638

>  <SCORE.RESTR>
0

>  <SCORE.RESTR.CAVITY>
0

>  <SCORE.RESTR.norm>
0

>  <SCORE.SYSTEM>
0

>  <SCORE.SYSTEM.CONST>
0

>  <SCORE.SYSTEM.DIHEDRAL>
0

>  <SCORE.SYSTEM.SOLV>
0

>  <SCORE.SYSTEM.norm>
0

>  <SCORE.heavy>
16

>  <SCORE.norm>
-1.68163

>  <RMSD>
1.743

$$$$
1f27 biotin aptamer (Xray 1.3A)
 OpenBabel11021811393D
libRbt.so/2013.1/901 2013/11/27
 16 17  0  0  0  0  0  0  0  0999 V2000
   21.1793   -1.4464   15.3666 C   0  0  0  0  0  0  0  0  0  0  0  0
   21.4108   -2.5696   14.9305 O   0  5  0  0  0  0  0  0  0  0  0  0
   21.3054   -1.2189   16.5686 O   0  0  0  0  0  0  0  0  0  0  0  0
   20.8030   -0.3190   14.4138 C   0  0  0  0  0  0  0  0  0  0  0  0
   19.5514    0.4768   14.8465 C   0  0  0  0  0  0  0  0  0  0  0  0
   19.2074    1.5668   13.8483 C   0  0  0  0  0  0  0  0  0  0  0  0
   17.9890    2.3786   14.2356 C   0  0  0  0  0  0  0  0  0  0  0  0
   16.6940    1.5681   14.3776 C   0  0  2  0  0  0  0  0  0  0  0  0
   16.3174    0.3382   12.9594 S   0  0  0  0  0  0  0  0  0  0  0  0
   14.5467    0.2358   13.6661 C   0  0  0  0  0  0  0  0  0  0  0  0
   14.2374    1.6695   14.1876 C   0  0  2  0  0  0  0  0  0  0  0  0
   13.5859    2.4175   12.9938 N   0  0  0  0  0  0  0  0  0  0  0  0
   14.2291    3.4426   12.6348 C   0  0  0  0  0  0  0  0  0  0  0  0
   14.0847    4.1951   11.6069 O   0  0  0  0  0  0  0  0  0  0  0  0
   15.4999    3.5946   13.3054 N   0  0  0  0  0  0  0  0  0  0  0  0
   15.4877    2.5097   14.3820 C   0  0  2  0  0  0  0  0  0  0  0  0
  1  2  1  0  0  0  0
  1  3  2  0  0  0  0
  1  4  1  0  0  0  0
  4  5  1  0  0  0  0
  5  6  1  0  0  0  0
  6  7  1  0  0  0  0
  8  7  1  6  0  0  0
  8  9  1  0  0  0  0
  8 16  1  0  0  0  0
  9 10  1  0  0  0  0
 11 10  1  6  0  0  0
 11 12  1  0  0  0  0
 11 16  1  0  0  0  0
 12 13  1  0  0  0  0
 13 14  2  0  0  0  0
 13 15  1  0  0  0  0
 16 15  1  6  0  0  0
M  CHG  1   2  -1
M  END
>  <CHROM.1>
131.15337294,-178.84490937,-179.71941539,-59.97350329,-46.82114835,17.22098550
1.10007660,13.93671853,0.56279232,0.25570980,2.98643037

>  <Name>
1f27 biotin aptamer (Xray 1.3A)

>  <RI>
0

>  <Rbt.Current_Directory>
/home/itssahil/PROJECTS/Mol_Feturizer/New_Systems/rnas/1f27

>  <Rbt.Executable>
rbdock ($Id: //depot/dev/client3/rdock/2013.1/src/exe/rbdock.cxx#4 $)

>  <Rbt.Library>
libRbt.so (2013.1, Build901 2013/11/27)

>  <Rbt.Parameter_File>
/export/apps/rDock/src/rDock_2013.1_src/data/scripts/dock_solv.prm

>  <Rbt.Receptor>
prm/pocket_docking_3.prm

>  <SCORE>
-27.9728

>  <SCORE.INTER>
-25.5662

>  <SCORE.INTER.CONST>
1

>  <SCORE.INTER.POLAR>
-1.8372

>  <SCORE.INTER.ROT>
5

>  <SCORE.INTER.SOLV>
7.79367

>  <SCORE.INTER.VDW>
-20.4513

>  <SCORE.INTER.norm>
-1.59789

>  <SCORE.INTRA>
-2.40659

>  <SCORE.INTRA.DIHEDRAL>
-4.86813

>  <SCORE.INTRA.DIHEDRAL.0>
6.87082

>  <SCORE.INTRA.POLAR>
0

>  <SCORE.INTRA.POLAR.0>
0

>  <SCORE.INTRA.REPUL>
0

>  <SCORE.INTRA.REPUL.0>
0

>  <SCORE.INTRA.SOLV>
-0.773985

>  <SCORE.INTRA.SOLV.lig_0>
-42.5944

>  <SCORE.INTRA.VDW>
0.414469

>  <SCORE.INTRA.VDW.0>
-1.067

>  <SCORE.INTRA.norm>
-0.150412

>  <SCORE.RESTR>
0

>  <SCORE.RESTR.CAVITY>
0

>  <SCORE.RESTR.norm>
0

>  <SCORE.SYSTEM>
0

>  <SCORE.SYSTEM.CONST>
0

>  <SCORE.SYSTEM.DIHEDRAL>
0

>  <SCORE.SYSTEM.SOLV>
0

>  <SCORE.SYSTEM.norm>
0

>  <SCORE.heavy>
16

>  <SCORE.norm>
-1.7483

>  <RMSD>
1.745

$$$$
1f27 biotin aptamer (Xray 1.3A)
 OpenBabel11021811393D
libRbt.so/2013.1/901 2013/11/27
 16 17  0  0  0  0  0  0  0  0999 V2000
   20.9635   -0.8421   12.6187 C   0  0  0  0  0  0  0  0  0  0  0  0
   20.3555   -1.9074   12.6449 O   0  5  0  0  0  0  0  0  0  0  0  0
   22.0447   -0.7689   12.0372 O   0  0  0  0  0  0  0  0  0  0  0  0
   20.3502    0.4038   13.2449 C   0  0  0  0  0  0  0  0  0  0  0  0
   18.8300    0.5426   13.0063 C   0  0  0  0  0  0  0  0  0  0  0  0
   18.0362   -0.4111   13.8798 C   0  0  0  0  0  0  0  0  0  0  0  0
   16.5473   -0.3862   13.6042 C   0  0  0  0  0  0  0  0  0  0  0  0
   15.7974    0.7995   14.2255 C   0  0  2  0  0  0  0  0  0  0  0  0
   13.8998    0.8151   13.9707 S   0  0  0  0  0  0  0  0  0  0  0  0
   13.9490    2.6373   14.5384 C   0  0  0  0  0  0  0  0  0  0  0  0
   15.2869    3.1990   13.9748 C   0  0  2  0  0  0  0  0  0  0  0  0
   14.9431    3.7727   12.5741 N   0  0  0  0  0  0  0  0  0  0  0  0
   15.5881    3.2253   11.6374 C   0  0  0  0  0  0  0  0  0  0  0  0
   15.4504    3.3244   10.3666 O   0  0  0  0  0  0  0  0  0  0  0  0
   16.3739    2.0890   12.0605 N   0  0  0  0  0  0  0  0  0  0  0  0
   16.2683    2.1072   13.5852 C   0  0  2  0  0  0  0  0  0  0  0  0
  1  2  1  0  0  0  0
  1  3  2  0  0  0  0
  1  4  1  0  0  0  0
  4  5  1  0  0  0  0
  5  6  1  0  0  0  0
  6  7  1  0  0  0  0
  8  7  1  6  0  0  0
  8  9  1  0  0  0  0
  8 16  1  0  0  0  0
  9 10  1  0  0  0  0
 11 10  1  6  0  0  0
 11 12  1  0  0  0  0
 11 16  1  0  0  0  0
 12 13  1  0  0  0  0
 13 14  2  0  0  0  0
 13 15  1  0  0  0  0
 16 15  1  6  0  0  0
M  CHG  1   2  -1
M  END
>  <CHROM.1>
-39.47718930,75.20993111,-175.56626923,-78.61063277,-177.05110484,16.96267375
1.11741909,13.03228742,-0.32161146,0.38742917,-0.69480927

>  <Name>
1f27 biotin aptamer (Xray 1.3A)

>  <RI>
0

>  <Rbt.Current_Directory>
/home/itssahil/PROJECTS/Mol_Feturizer/New_Systems/rnas/1f27

>  <Rbt.Executable>
rbdock ($Id: //depot/dev/client3/rdock/2013.1/src/exe/rbdock.cxx#4 $)

>  <Rbt.Library>
libRbt.so (2013.1, Build901 2013/11/27)

>  <Rbt.Parameter_File>
/export/apps/rDock/src/rDock_2013.1_src/data/scripts/dock_solv.prm

>  <Rbt.Receptor>
prm/pocket_docking_7.prm

>  <SCORE>
-30.0496

>  <SCORE.INTER>
-29.7232

>  <SCORE.INTER.CONST>
1

>  <SCORE.INTER.POLAR>
-2.28285

>  <SCORE.INTER.ROT>
5

>  <SCORE.INTER.SOLV>
14.9347

>  <SCORE.INTER.VDW>
-24.1176

>  <SCORE.INTER.norm>
-1.8577

>  <SCORE.INTRA>
-0.326328

>  <SCORE.INTRA.DIHEDRAL>
-3.14683

>  <SCORE.INTRA.DIHEDRAL.0>
6.87082

>  <SCORE.INTRA.POLAR>
0

>  <SCORE.INTRA.POLAR.0>
0

>  <SCORE.INTRA.REPUL>
0

>  <SCORE.INTRA.REPUL.0>
0

>  <SCORE.INTRA.SOLV>
0.769629

>  <SCORE.INTRA.SOLV.lig_0>
-42.5944

>  <SCORE.INTRA.VDW>
0.862274

>  <SCORE.INTRA.VDW.0>
-1.067

>  <SCORE.INTRA.norm>
-0.0203955

>  <SCORE.RESTR>
0

>  <SCORE.RESTR.CAVITY>
0

>  <SCORE.RESTR.norm>
0

>  <SCORE.SYSTEM>
0

>  <SCORE.SYSTEM.CONST>
0

>  <SCORE.SYSTEM.DIHEDRAL>
0

>  <SCORE.SYSTEM.SOLV>
0

>  <SCORE.SYSTEM.norm>
0

>  <SCORE.heavy>
16

>  <SCORE.norm>
-1.8781

>  <RMSD>
1.752

$$$$
1f27 biotin aptamer (Xray 1.3A)
 OpenBabel11021811393D
libRbt.so/2013.1/901 2013/11/27
 16 17  0  0  0  0  0  0  0  0999 V2000
   21.0302   -0.3244   13.0083 C   0  0  0  0  0  0  0  0  0  0  0  0
   21.9054   -0.5756   12.1860 O   0  5  0  0  0  0  0  0  0  0  0  0
   20.1111   -1.1220   13.1865 O   0  0  0  0  0  0  0  0  0  0  0  0
   21.1170    0.9386   13.8555 C   0  0  0  0  0  0  0  0  0  0  0  0
   19.9960    1.9631   13.5713 C   0  0  0  0  0  0  0  0  0  0  0  0
   18.6459    1.4645   14.0525 C   0  0  0  0  0  0  0  0  0  0  0  0
   17.5237    2.4595   13.8413 C   0  0  0  0  0  0  0  0  0  0  0  0
   16.1380    1.9699   14.2821 C   0  0  2  0  0  0  0  0  0  0  0  0
   15.4827    0.4050   13.3947 S   0  0  0  0  0  0  0  0  0  0  0  0
   13.7726    0.8422   14.1225 C   0  0  0  0  0  0  0  0  0  0  0  0
   13.7154    2.3977   14.1107 C   0  0  2  0  0  0  0  0  0  0  0  0
   13.0948    2.7834   12.7413 N   0  0  0  0  0  0  0  0  0  0  0  0
   13.8530    3.5024   12.0333 C   0  0  0  0  0  0  0  0  0  0  0  0
   13.7454    3.8669   10.8089 O   0  0  0  0  0  0  0  0  0  0  0  0
   15.1780    3.6675   12.5854 N   0  0  0  0  0  0  0  0  0  0  0  0
   15.0860    3.0381   13.9751 C   0  0  2  0  0  0  0  0  0  0  0  0
  1  2  1  0  0  0  0
  1  3  2  0  0  0  0
  1  4  1  0  0  0  0
  4  5  1  0  0  0  0
  5  6  1  0  0  0  0
  6  7  1  0  0  0  0
  8  7  1  6  0  0  0
  8  9  1  0  0  0  0
  8 16  1  0  0  0  0
  9 10  1  0  0  0  0
 11 10  1  6  0  0  0
 11 12  1  0  0  0  0
 11 16  1  0  0  0  0
 12 13  1  0  0  0  0
 13 14  2  0  0  0  0
 13 15  1  0  0  0  0
 16 15  1  6  0  0  0
M  CHG  1   2  -1
M  END
>  <CHROM.1>
114.37976655,69.54738529,177.83612958,178.38104537,-60.50803692,16.82730947
1.58989655,13.21090015,0.35634090,-0.11900173,2.69900887

>  <Name>
1f27 biotin aptamer (Xray 1.3A)

>  <RI>
0

>  <Rbt.Current_Directory>
/home/itssahil/PROJECTS/Mol_Feturizer/New_Systems/rnas/1f27

>  <Rbt.Executable>
rbdock ($Id: //depot/dev/client3/rdock/2013.1/src/exe/rbdock.cxx#4 $)

>  <Rbt.Library>
libRbt.so (2013.1, Build901 2013/11/27)

>  <Rbt.Parameter_File>
/export/apps/rDock/src/rDock_2013.1_src/data/scripts/dock_solv.prm

>  <Rbt.Receptor>
prm/pocket_docking_4.prm

>  <SCORE>
-32.2792

>  <SCORE.INTER>
-29.8833

>  <SCORE.INTER.CONST>
1

>  <SCORE.INTER.POLAR>
-1.81057

>  <SCORE.INTER.ROT>
5

>  <SCORE.INTER.SOLV>
12.3921

>  <SCORE.INTER.VDW>
-24.951

>  <SCORE.INTER.norm>
-1.8677

>  <SCORE.INTRA>
-2.39598

>  <SCORE.INTRA.DIHEDRAL>
-5.10703

>  <SCORE.INTRA.DIHEDRAL.0>
6.87082

>  <SCORE.INTRA.POLAR>
0

>  <SCORE.INTRA.POLAR.0>
0

>  <SCORE.INTRA.REPUL>
0

>  <SCORE.INTRA.REPUL.0>
0

>  <SCORE.INTRA.SOLV>
0.161943

>  <SCORE.INTRA.SOLV.lig_0>
-42.5944

>  <SCORE.INTRA.VDW>
0.0765677

>  <SCORE.INTRA.VDW.0>
-1.067

>  <SCORE.INTRA.norm>
-0.149749

>  <SCORE.RESTR>
0

>  <SCORE.RESTR.CAVITY>
0

>  <SCORE.RESTR.norm>
0

>  <SCORE.SYSTEM>
0

>  <SCORE.SYSTEM.CONST>
0

>  <SCORE.SYSTEM.DIHEDRAL>
0

>  <SCORE.SYSTEM.SOLV>
0

>  <SCORE.SYSTEM.norm>
0

>  <SCORE.heavy>
16

>  <SCORE.norm>
-2.01745

>  <RMSD>
1.753

$$$$
1f27 biotin aptamer (Xray 1.3A)
 OpenBabel11021811393D
libRbt.so/2013.1/901 2013/11/27
 16 17  0  0  0  0  0  0  0  0999 V2000
   19.3134   -2.0988   14.3855 C   0  0  0  0  0  0  0  0  0  0  0  0
   18.5068   -2.9901   14.1397 O   0  5  0  0  0  0  0  0  0  0  0  0
   19.7686   -1.9821   15.5221 O   0  0  0  0  0  0  0  0  0  0  0  0
   19.8024   -1.1818   13.2718 C   0  0  0  0  0  0  0  0  0  0  0  0
   18.8620    0.0091   12.9812 C   0  0  0  0  0  0  0  0  0  0  0  0
   18.8105    0.9799   14.1465 C   0  0  0  0  0  0  0  0  0  0  0  0
   17.8463    2.1283   13.9343 C   0  0  0  0  0  0  0  0  0  0  0  0
   16.3702    1.7812   14.1689 C   0  0  2  0  0  0  0  0  0  0  0  0
   15.7960    0.0790   13.5068 S   0  0  0  0  0  0  0  0  0  0  0  0
   14.0105    0.7068   13.7575 C   0  0  0  0  0  0  0  0  0  0  0  0
   14.0648    2.2240   13.4138 C   0  0  2  0  0  0  0  0  0  0  0  0
   13.7550    2.3207   11.8959 N   0  0  0  0  0  0  0  0  0  0  0  0
   14.6861    2.8501   11.2282 C   0  0  0  0  0  0  0  0  0  0  0  0
   14.8478    2.9443    9.9599 O   0  0  0  0  0  0  0  0  0  0  0  0
   15.8842    3.0965   11.9972 N   0  0  0  0  0  0  0  0  0  0  0  0
   15.4763    2.7846   13.4368 C   0  0  2  0  0  0  0  0  0  0  0  0
  1  2  1  0  0  0  0
  1  3  2  0  0  0  0
  1  4  1  0  0  0  0
  4  5  1  0  0  0  0
  5  6  1  0  0  0  0
  6  7  1  0  0  0  0
  8  7  1  6  0  0  0
  8  9  1  0  0  0  0
  8 16  1  0  0  0  0
  9 10  1  0  0  0  0
 11 10  1  6  0  0  0
 11 12  1  0  0  0  0
 11 16  1  0  0  0  0
 12 13  1  0  0  0  0
 13 14  2  0  0  0  0
 13 15  1  0  0  0  0
 16 15  1  6  0  0  0
M  CHG  1   2  -1
M  END
>  <CHROM.1>
84.06716453,66.60393576,-177.08622602,78.76897485,-40.80974827,16.68912433
0.76393999,13.24145336,0.80566201,-0.04153254,2.58319802

>  <Name>
1f27 biotin aptamer (Xray 1.3A)

>  <RI>
0

>  <Rbt.Current_Directory>
/home/itssahil/PROJECTS/Mol_Feturizer/New_Systems/rnas/1f27

>  <Rbt.Executable>
rbdock ($Id: //depot/dev/client3/rdock/2013.1/src/exe/rbdock.cxx#4 $)

>  <Rbt.Library>
libRbt.so (2013.1, Build901 2013/11/27)

>  <Rbt.Parameter_File>
/export/apps/rDock/src/rDock_2013.1_src/data/scripts/dock_solv.prm

>  <Rbt.Receptor>
prm/pocket_docking_3.prm

>  <SCORE>
-28.7167

>  <SCORE.INTER>
-28.0177

>  <SCORE.INTER.CONST>
1

>  <SCORE.INTER.POLAR>
-1.80445

>  <SCORE.INTER.ROT>
5

>  <SCORE.INTER.SOLV>
10.2652

>  <SCORE.INTER.VDW>
-23.0187

>  <SCORE.INTER.norm>
-1.75111

>  <SCORE.INTRA>
-0.698993

>  <SCORE.INTRA.DIHEDRAL>
-2.47541

>  <SCORE.INTRA.DIHEDRAL.0>
6.87082

>  <SCORE.INTRA.POLAR>
0

>  <SCORE.INTRA.POLAR.0>
0

>  <SCORE.INTRA.REPUL>
0

>  <SCORE.INTRA.REPUL.0>
0

>  <SCORE.INTRA.SOLV>
0.548068

>  <SCORE.INTRA.SOLV.lig_0>
-42.5944

>  <SCORE.INTRA.VDW>
0.264677

>  <SCORE.INTRA.VDW.0>
-1.067

>  <SCORE.INTRA.norm>
-0.0436871

>  <SCORE.RESTR>
0

>  <SCORE.RESTR.CAVITY>
0

>  <SCORE.RESTR.norm>
0

>  <SCORE.SYSTEM>
0

>  <SCORE.SYSTEM.CONST>
0

>  <SCORE.SYSTEM.DIHEDRAL>
0

>  <SCORE.SYSTEM.SOLV>
0

>  <SCORE.SYSTEM.norm>
0

>  <SCORE.heavy>
16

>  <SCORE.norm>
-1.79479

>  <RMSD>
1.754

$$$$
1f27 biotin aptamer (Xray 1.3A)
 OpenBabel11021811393D
libRbt.so/2013.1/901 2013/11/27
 16 17  0  0  0  0  0  0  0  0999 V2000
   21.3850   -0.4777   13.3476 C   0  0  0  0  0  0  0  0  0  0  0  0
   21.8914    0.3511   12.5980 O   0  5  0  0  0  0  0  0  0  0  0  0
   21.9673   -1.5379   13.5699 O   0  0  0  0  0  0  0  0  0  0  0  0
   20.0722   -0.1674   14.0552 C   0  0  0  0  0  0  0  0  0  0  0  0
   19.5258    1.2495   13.7709 C   0  0  0  0  0  0  0  0  0  0  0  0
   18.1428    1.4463   14.3639 C   0  0  0  0  0  0  0  0  0  0  0  0
   17.4049    2.6397   13.7938 C   0  0  0  0  0  0  0  0  0  0  0  0
   15.9099    2.6949   14.1344 C   0  0  2  0  0  0  0  0  0  0  0  0
   15.0051    1.0089   14.2031 S   0  0  0  0  0  0  0  0  0  0  0  0
   13.3770    2.0053   14.1658 C   0  0  0  0  0  0  0  0  0  0  0  0
   13.6719    3.2249   13.2445 C   0  0  2  0  0  0  0  0  0  0  0  0
   13.2836    2.7709   11.8119 N   0  0  0  0  0  0  0  0  0  0  0  0
   14.2463    2.8105   10.9966 C   0  0  0  0  0  0  0  0  0  0  0  0
   14.3374    2.3648    9.7979 O   0  0  0  0  0  0  0  0  0  0  0  0
   15.5174    3.1124   11.6136 N   0  0  0  0  0  0  0  0  0  0  0  0
   15.1578    3.4755   13.0541 C   0  0  2  0  0  0  0  0  0  0  0  0
  1  2  1  0  0  0  0
  1  3  2  0  0  0  0
  1  4  1  0  0  0  0
  4  5  1  0  0  0  0
  5  6  1  0  0  0  0
  6  7  1  0  0  0  0
  8  7  1  6  0  0  0
  8  9  1  0  0  0  0
  8 16  1  0  0  0  0
  9 10  1  0  0  0  0
 11 10  1  1  0  0  0
 11 12  1  0  0  0  0
 11 16  1  0  0  0  0
 12 13  1  0  0  0  0
 13 14  2  0  0  0  0
 13 15  1  0  0  0  0
 16 15  1  6  0  0  0
M  CHG  1   2  -1
M  END
>  <CHROM.1>
-2.13153737,173.24513787,-163.46623743,167.29445357,-36.02519605,16.83775224
1.60349683,13.08888333,-0.22821095,0.34282188,-1.33345138

>  <Name>
1f27 biotin aptamer (Xray 1.3A)

>  <RI>
0

>  <Rbt.Current_Directory>
/home/itssahil/PROJECTS/Mol_Feturizer/New_Systems/rnas/1f27

>  <Rbt.Executable>
rbdock ($Id: //depot/dev/client3/rdock/2013.1/src/exe/rbdock.cxx#4 $)

>  <Rbt.Library>
libRbt.so (2013.1, Build901 2013/11/27)

>  <Rbt.Parameter_File>
/export/apps/rDock/src/rDock_2013.1_src/data/scripts/dock_solv.prm

>  <Rbt.Receptor>
prm/blind_docking_60.prm

>  <SCORE>
-28.0808

>  <SCORE.INTER>
-27.7873

>  <SCORE.INTER.CONST>
1

>  <SCORE.INTER.POLAR>
-2.31001

>  <SCORE.INTER.ROT>
5

>  <SCORE.INTER.SOLV>
12.7047

>  <SCORE.INTER.VDW>
-21.9931

>  <SCORE.INTER.norm>
-1.73671

>  <SCORE.INTRA>
-0.298196

>  <SCORE.INTRA.DIHEDRAL>
-1.55196

>  <SCORE.INTRA.DIHEDRAL.0>
6.87082

>  <SCORE.INTRA.POLAR>
0

>  <SCORE.INTRA.POLAR.0>
0

>  <SCORE.INTRA.REPUL>
0

>  <SCORE.INTRA.REPUL.0>
0

>  <SCORE.INTRA.SOLV>
-0.704174

>  <SCORE.INTRA.SOLV.lig_0>
-42.5944

>  <SCORE.INTRA.VDW>
0.82987

>  <SCORE.INTRA.VDW.0>
-1.067

>  <SCORE.INTRA.norm>
-0.0186372

>  <SCORE.RESTR>
0.00470953

>  <SCORE.RESTR.CAVITY>
0.00470953

>  <SCORE.RESTR.norm>
0.000294345

>  <SCORE.SYSTEM>
0

>  <SCORE.SYSTEM.CONST>
0

>  <SCORE.SYSTEM.DIHEDRAL>
0

>  <SCORE.SYSTEM.SOLV>
0

>  <SCORE.SYSTEM.norm>
0

>  <SCORE.heavy>
16

>  <SCORE.norm>
-1.75505

>  <RMSD>
1.755

$$$$
1f27 biotin aptamer (Xray 1.3A)
 OpenBabel11021811393D
libRbt.so/2013.1/901 2013/11/27
 16 17  0  0  0  0  0  0  0  0999 V2000
   21.0197   -0.3179   13.0350 C   0  0  0  0  0  0  0  0  0  0  0  0
   21.8870   -0.5631   12.2026 O   0  5  0  0  0  0  0  0  0  0  0  0
   20.1145   -1.1268   13.2319 O   0  0  0  0  0  0  0  0  0  0  0  0
   21.1004    0.9526   13.8716 C   0  0  0  0  0  0  0  0  0  0  0  0
   19.9798    1.9733   13.5723 C   0  0  0  0  0  0  0  0  0  0  0  0
   18.6257    1.4718   14.0389 C   0  0  0  0  0  0  0  0  0  0  0  0
   17.5026    2.4616   13.8094 C   0  0  0  0  0  0  0  0  0  0  0  0
   16.1182    1.9810   14.2639 C   0  0  2  0  0  0  0  0  0  0  0  0
   15.4622    0.3962   13.4131 S   0  0  0  0  0  0  0  0  0  0  0  0
   13.7534    0.8483   14.1345 C   0  0  0  0  0  0  0  0  0  0  0  0
   13.6949    2.4032   14.0881 C   0  0  2  0  0  0  0  0  0  0  0  0
   13.0712    2.7577   12.7117 N   0  0  0  0  0  0  0  0  0  0  0  0
   13.8274    3.4613   11.9862 C   0  0  0  0  0  0  0  0  0  0  0  0
   13.7169    3.7982   10.7542 O   0  0  0  0  0  0  0  0  0  0  0  0
   15.1533    3.6396   12.5317 N   0  0  0  0  0  0  0  0  0  0  0  0
   15.0647    3.0414   13.9354 C   0  0  2  0  0  0  0  0  0  0  0  0
  1  2  1  0  0  0  0
  1  3  2  0  0  0  0
  1  4  1  0  0  0  0
  4  5  1  0  0  0  0
  5  6  1  0  0  0  0
  6  7  1  0  0  0  0
  8  7  1  6  0  0  0
  8  9  1  0  0  0  0
  8 16  1  0  0  0  0
  9 10  1  0  0  0  0
 11 10  1  6  0  0  0
 11 12  1  0  0  0  0
 11 16  1  0  0  0  0
 12 13  1  0  0  0  0
 13 14  2  0  0  0  0
 13 15  1  0  0  0  0
 16 15  1  6  0  0  0
M  CHG  1   2  -1
M  END
>  <CHROM.1>
113.05173592,69.02125219,177.98314273,179.68346942,-60.43770628,16.80831627
1.58299879,13.20239010,0.35200412,-0.11970091,2.67269955

>  <Name>
1f27 biotin aptamer (Xray 1.3A)

>  <RI>
0

>  <Rbt.Current_Directory>
/home/itssahil/PROJECTS/Mol_Feturizer/New_Systems/rnas/1f27

>  <Rbt.Executable>
rbdock ($Id: //depot/dev/client3/rdock/2013.1/src/exe/rbdock.cxx#4 $)

>  <Rbt.Library>
libRbt.so (2013.1, Build901 2013/11/27)

>  <Rbt.Parameter_File>
/export/apps/rDock/src/rDock_2013.1_src/data/scripts/dock_solv.prm

>  <Rbt.Receptor>
prm/pocket_docking_4.prm

>  <SCORE>
-32.3097

>  <SCORE.INTER>
-29.891

>  <SCORE.INTER.CONST>
1

>  <SCORE.INTER.POLAR>
-1.80218

>  <SCORE.INTER.ROT>
5

>  <SCORE.INTER.SOLV>
12.1946

>  <SCORE.INTER.VDW>
-24.9182

>  <SCORE.INTER.norm>
-1.86819

>  <SCORE.INTRA>
-2.41871

>  <SCORE.INTRA.DIHEDRAL>
-5.14815

>  <SCORE.INTRA.DIHEDRAL.0>
6.87082

>  <SCORE.INTRA.POLAR>
0

>  <SCORE.INTRA.POLAR.0>
0

>  <SCORE.INTRA.REPUL>
0

>  <SCORE.INTRA.REPUL.0>
0

>  <SCORE.INTRA.SOLV>
0.162184

>  <SCORE.INTRA.SOLV.lig_0>
-42.5944

>  <SCORE.INTRA.VDW>
0.0742787

>  <SCORE.INTRA.VDW.0>
-1.067

>  <SCORE.INTRA.norm>
-0.151169

>  <SCORE.RESTR>
0

>  <SCORE.RESTR.CAVITY>
0

>  <SCORE.RESTR.norm>
0

>  <SCORE.SYSTEM>
0

>  <SCORE.SYSTEM.CONST>
0

>  <SCORE.SYSTEM.DIHEDRAL>
0

>  <SCORE.SYSTEM.SOLV>
0

>  <SCORE.SYSTEM.norm>
0

>  <SCORE.heavy>
16

>  <SCORE.norm>
-2.01936

>  <RMSD>
1.759

$$$$
1f27 biotin aptamer (Xray 1.3A)
 OpenBabel11021811393D
libRbt.so/2013.1/901 2013/11/27
 16 17  0  0  0  0  0  0  0  0999 V2000
   21.5389   -0.4437   13.7945 C   0  0  0  0  0  0  0  0  0  0  0  0
   21.9352   -1.5737   13.5273 O   0  5  0  0  0  0  0  0  0  0  0  0
   21.8900    0.0959   14.8423 O   0  0  0  0  0  0  0  0  0  0  0  0
   20.6701    0.3166   12.8006 C   0  0  0  0  0  0  0  0  0  0  0  0
   19.5657    1.1729   13.4594 C   0  0  0  0  0  0  0  0  0  0  0  0
   18.7594    1.9386   12.4267 C   0  0  0  0  0  0  0  0  0  0  0  0
   17.7354    2.8756   13.0327 C   0  0  0  0  0  0  0  0  0  0  0  0
   16.5800    2.1800   13.7644 C   0  0  2  0  0  0  0  0  0  0  0  0
   15.9826    0.5275   13.0040 S   0  0  0  0  0  0  0  0  0  0  0  0
   14.4413    0.6990   14.1174 C   0  0  0  0  0  0  0  0  0  0  0  0
   14.1474    2.2269   14.1663 C   0  0  2  0  0  0  0  0  0  0  0  0
   13.1757    2.5041   12.9880 N   0  0  0  0  0  0  0  0  0  0  0  0
   13.6314    3.3277   12.1472 C   0  0  0  0  0  0  0  0  0  0  0  0
   13.1895    3.6642   10.9917 O   0  0  0  0  0  0  0  0  0  0  0  0
   15.0073    3.6990   12.3854 N   0  0  0  0  0  0  0  0  0  0  0  0
   15.3359    3.0709   13.7395 C   0  0  2  0  0  0  0  0  0  0  0  0
  1  2  1  0  0  0  0
  1  3  2  0  0  0  0
  1  4  1  0  0  0  0
  4  5  1  0  0  0  0
  5  6  1  0  0  0  0
  6  7  1  0  0  0  0
  8  7  1  6  0  0  0
  8  9  1  0  0  0  0
  8 16  1  0  0  0  0
  9 10  1  0  0  0  0
 11 10  1  6  0  0  0
 11 12  1  0  0  0  0
 11 16  1  0  0  0  0
 12 13  1  0  0  0  0
 13 14  2  0  0  0  0
 13 15  1  0  0  0  0
 16 15  1  6  0  0  0
M  CHG  1   2  -1
M  END
>  <CHROM.1>
142.89438205,178.30597615,-175.48323014,-67.34207179,-35.45543008,17.05027158
1.54271606,13.17089640,0.40787465,-0.06977175,2.63571007

>  <Name>
1f27 biotin aptamer (Xray 1.3A)

>  <RI>
0

>  <Rbt.Current_Directory>
/home/itssahil/PROJECTS/Mol_Feturizer/New_Systems/rnas/1f27

>  <Rbt.Executable>
rbdock ($Id: //depot/dev/client3/rdock/2013.1/src/exe/rbdock.cxx#4 $)

>  <Rbt.Library>
libRbt.so (2013.1, Build901 2013/11/27)

>  <Rbt.Parameter_File>
/export/apps/rDock/src/rDock_2013.1_src/data/scripts/dock_solv.prm

>  <Rbt.Receptor>
prm/blind_docking_60.prm

>  <SCORE>
-23.7491

>  <SCORE.INTER>
-22.4041

>  <SCORE.INTER.CONST>
1

>  <SCORE.INTER.POLAR>
-0.848528

>  <SCORE.INTER.ROT>
5

>  <SCORE.INTER.SOLV>
9.72258

>  <SCORE.INTER.VDW>
-22.2818

>  <SCORE.INTER.norm>
-1.40025

>  <SCORE.INTRA>
-1.34501

>  <SCORE.INTRA.DIHEDRAL>
-3.16053

>  <SCORE.INTRA.DIHEDRAL.0>
6.87082

>  <SCORE.INTRA.POLAR>
0

>  <SCORE.INTRA.POLAR.0>
0

>  <SCORE.INTRA.REPUL>
0

>  <SCORE.INTRA.REPUL.0>
0

>  <SCORE.INTRA.SOLV>
-0.704355

>  <SCORE.INTRA.SOLV.lig_0>
-42.5944

>  <SCORE.INTRA.VDW>
0.587434

>  <SCORE.INTRA.VDW.0>
-1.067

>  <SCORE.INTRA.norm>
-0.0840631

>  <SCORE.RESTR>
0

>  <SCORE.RESTR.CAVITY>
0

>  <SCORE.RESTR.norm>
0

>  <SCORE.SYSTEM>
0

>  <SCORE.SYSTEM.CONST>
0

>  <SCORE.SYSTEM.DIHEDRAL>
0

>  <SCORE.SYSTEM.SOLV>
0

>  <SCORE.SYSTEM.norm>
0

>  <SCORE.heavy>
16

>  <SCORE.norm>
-1.48432

>  <RMSD>
1.762

$$$$
1f27 biotin aptamer (Xray 1.3A)
 OpenBabel11021811393D
libRbt.so/2013.1/901 2013/11/27
 16 17  0  0  0  0  0  0  0  0999 V2000
   20.1592   -1.1696   15.4505 C   0  0  0  0  0  0  0  0  0  0  0  0
   19.9473   -1.4154   16.6337 O   0  5  0  0  0  0  0  0  0  0  0  0
   20.6750   -2.0234   14.7312 O   0  0  0  0  0  0  0  0  0  0  0  0
   19.7228    0.1636   14.8565 C   0  0  0  0  0  0  0  0  0  0  0  0
   18.6538    0.0369   13.7482 C   0  0  0  0  0  0  0  0  0  0  0  0
   18.2768    1.3909   13.1759 C   0  0  0  0  0  0  0  0  0  0  0  0
   17.5115    2.2657   14.1468 C   0  0  0  0  0  0  0  0  0  0  0  0
   16.0204    1.9289   14.2792 C   0  0  2  0  0  0  0  0  0  0  0  0
   15.4932    0.2025   13.6411 S   0  0  0  0  0  0  0  0  0  0  0  0
   13.6959    0.8406   13.7275 C   0  0  0  0  0  0  0  0  0  0  0  0
   13.7823    2.3433   13.3304 C   0  0  2  0  0  0  0  0  0  0  0  0
   13.5917    2.3808   11.7905 N   0  0  0  0  0  0  0  0  0  0  0  0
   14.5738    2.8833   11.1771 C   0  0  0  0  0  0  0  0  0  0  0  0
   14.8340    2.9278    9.9225 O   0  0  0  0  0  0  0  0  0  0  0  0
   15.7094    3.1588   12.0268 N   0  0  0  0  0  0  0  0  0  0  0  0
   15.1897    2.9035   13.4413 C   0  0  2  0  0  0  0  0  0  0  0  0
  1  2  1  0  0  0  0
  1  3  2  0  0  0  0
  1  4  1  0  0  0  0
  4  5  1  0  0  0  0
  5  6  1  0  0  0  0
  6  7  1  0  0  0  0
  8  7  1  6  0  0  0
  8  9  1  0  0  0  0
  8 16  1  0  0  0  0
  9 10  1  0  0  0  0
 11 10  1  6  0  0  0
 11 12  1  0  0  0  0
 11 16  1  0  0  0  0
 12 13  1  0  0  0  0
 13 14  2  0  0  0  0
 13 15  1  0  0  0  0
 16 15  1  6  0  0  0
M  CHG  1   2  -1
M  END
>  <CHROM.1>
-116.44649115,-178.92522916,-69.02296748,-79.31264906,17.53030680,16.68430044
1.07405868,13.50588981,-0.71037386,0.10118531,-0.87101208

>  <Name>
1f27 biotin aptamer (Xray 1.3A)

>  <RI>
0

>  <Rbt.Current_Directory>
/home/itssahil/PROJECTS/Mol_Feturizer/New_Systems/rnas/1f27

>  <Rbt.Executable>
rbdock ($Id: //depot/dev/client3/rdock/2013.1/src/exe/rbdock.cxx#4 $)

>  <Rbt.Library>
libRbt.so (2013.1, Build901 2013/11/27)

>  <Rbt.Parameter_File>
/export/apps/rDock/src/rDock_2013.1_src/data/scripts/dock_solv.prm

>  <Rbt.Receptor>
prm/pocket_docking_6.prm

>  <SCORE>
-27.2448

>  <SCORE.INTER>
-28.6867

>  <SCORE.INTER.CONST>
1

>  <SCORE.INTER.POLAR>
-1.86595

>  <SCORE.INTER.ROT>
5

>  <SCORE.INTER.SOLV>
9.37452

>  <SCORE.INTER.VDW>
-22.9628

>  <SCORE.INTER.norm>
-1.79292

>  <SCORE.INTRA>
1.44189

>  <SCORE.INTRA.DIHEDRAL>
0.937997

>  <SCORE.INTRA.DIHEDRAL.0>
6.87082

>  <SCORE.INTRA.POLAR>
0

>  <SCORE.INTRA.POLAR.0>
0

>  <SCORE.INTRA.REPUL>
0

>  <SCORE.INTRA.REPUL.0>
0

>  <SCORE.INTRA.SOLV>
-0.441583

>  <SCORE.INTRA.SOLV.lig_0>
-42.5944

>  <SCORE.INTRA.VDW>
1.19368

>  <SCORE.INTRA.VDW.0>
-1.067

>  <SCORE.INTRA.norm>
0.0901181

>  <SCORE.RESTR>
0

>  <SCORE.RESTR.CAVITY>
0

>  <SCORE.RESTR.norm>
0

>  <SCORE.SYSTEM>
0

>  <SCORE.SYSTEM.CONST>
0

>  <SCORE.SYSTEM.DIHEDRAL>
0

>  <SCORE.SYSTEM.SOLV>
0

>  <SCORE.SYSTEM.norm>
0

>  <SCORE.heavy>
16

>  <SCORE.norm>
-1.7028

>  <RMSD>
1.762

$$$$
1f27 biotin aptamer (Xray 1.3A)
 OpenBabel11021811393D
libRbt.so/2013.1/901 2013/11/27
 16 17  0  0  0  0  0  0  0  0999 V2000
   21.0789   -0.1821   13.2589 C   0  0  0  0  0  0  0  0  0  0  0  0
   20.2020   -0.9709   13.5965 O   0  5  0  0  0  0  0  0  0  0  0  0
   21.8700   -0.4907   12.3693 O   0  0  0  0  0  0  0  0  0  0  0  0
   21.1465    1.2023   13.8909 C   0  0  0  0  0  0  0  0  0  0  0  0
   19.7731    1.8959   14.0310 C   0  0  0  0  0  0  0  0  0  0  0  0
   19.0589    1.9996   12.6961 C   0  0  0  0  0  0  0  0  0  0  0  0
   17.8042    2.8464   12.7460 C   0  0  0  0  0  0  0  0  0  0  0  0
   16.6613    2.2550   13.5815 C   0  0  2  0  0  0  0  0  0  0  0  0
   16.0498    0.5195   13.0523 S   0  0  0  0  0  0  0  0  0  0  0  0
   14.5281    0.8385   14.1603 C   0  0  0  0  0  0  0  0  0  0  0  0
   14.2360    2.3606   14.0155 C   0  0  2  0  0  0  0  0  0  0  0  0
   13.2443    2.4854   12.8280 N   0  0  0  0  0  0  0  0  0  0  0  0
   13.6858    3.1916   11.8797 C   0  0  0  0  0  0  0  0  0  0  0  0
   13.2241    3.3766   10.6980 O   0  0  0  0  0  0  0  0  0  0  0  0
   15.0659    3.5867   12.0441 N   0  0  0  0  0  0  0  0  0  0  0  0
   15.4175    3.1386   13.4624 C   0  0  2  0  0  0  0  0  0  0  0  0
  1  2  1  0  0  0  0
  1  3  2  0  0  0  0
  1  4  1  0  0  0  0
  4  5  1  0  0  0  0
  5  6  1  0  0  0  0
  6  7  1  0  0  0  0
  8  7  1  6  0  0  0
  8  9  1  0  0  0  0
  8 16  1  0  0  0  0
  9 10  1  0  0  0  0
 11 10  1  6  0  0  0
 11 12  1  0  0  0  0
 11 16  1  0  0  0  0
 12 13  1  0  0  0  0
 13 14  2  0  0  0  0
 13 15  1  0  0  0  0
 16 15  1  6  0  0  0
M  CHG  1   2  -1
M  END
>  <CHROM.1>
-43.26711653,-56.09396121,-171.64140894,-67.22332443,-57.84481140,17.01301241
1.63896105,12.99389027,0.36254890,-0.05023922,2.69321446

>  <Name>
1f27 biotin aptamer (Xray 1.3A)

>  <RI>
0

>  <Rbt.Current_Directory>
/home/itssahil/PROJECTS/Mol_Feturizer/New_Systems/rnas/1f27

>  <Rbt.Executable>
rbdock ($Id: //depot/dev/client3/rdock/2013.1/src/exe/rbdock.cxx#4 $)

>  <Rbt.Library>
libRbt.so (2013.1, Build901 2013/11/27)

>  <Rbt.Parameter_File>
/export/apps/rDock/src/rDock_2013.1_src/data/scripts/dock_solv.prm

>  <Rbt.Receptor>
prm/blind_docking_40.prm

>  <SCORE>
-30.1744

>  <SCORE.INTER>
-28.3205

>  <SCORE.INTER.CONST>
1

>  <SCORE.INTER.POLAR>
-1.6923

>  <SCORE.INTER.ROT>
5

>  <SCORE.INTER.SOLV>
10.9643

>  <SCORE.INTER.VDW>
-23.8275

>  <SCORE.INTER.norm>
-1.77003

>  <SCORE.INTRA>
-1.85384

>  <SCORE.INTRA.DIHEDRAL>
-4.84766

>  <SCORE.INTRA.DIHEDRAL.0>
6.87082

>  <SCORE.INTRA.POLAR>
0

>  <SCORE.INTRA.POLAR.0>
0

>  <SCORE.INTRA.REPUL>
0

>  <SCORE.INTRA.REPUL.0>
0

>  <SCORE.INTRA.SOLV>
0.433718

>  <SCORE.INTRA.SOLV.lig_0>
-42.5944

>  <SCORE.INTRA.VDW>
0.353129

>  <SCORE.INTRA.VDW.0>
-1.067

>  <SCORE.INTRA.norm>
-0.115865

>  <SCORE.RESTR>
0

>  <SCORE.RESTR.CAVITY>
0

>  <SCORE.RESTR.norm>
0

>  <SCORE.SYSTEM>
0

>  <SCORE.SYSTEM.CONST>
0

>  <SCORE.SYSTEM.DIHEDRAL>
0

>  <SCORE.SYSTEM.SOLV>
0

>  <SCORE.SYSTEM.norm>
0

>  <SCORE.heavy>
16

>  <SCORE.norm>
-1.8859

>  <RMSD>
1.764

$$$$
1f27 biotin aptamer (Xray 1.3A)
 OpenBabel11021811393D
libRbt.so/2013.1/901 2013/11/27
 16 17  0  0  0  0  0  0  0  0999 V2000
   20.5737   -0.6510   14.3868 C   0  0  0  0  0  0  0  0  0  0  0  0
   21.2217   -1.3086   13.5787 O   0  5  0  0  0  0  0  0  0  0  0  0
   19.6829   -1.1909   15.0406 O   0  0  0  0  0  0  0  0  0  0  0  0
   20.9157    0.8133   14.6302 C   0  0  0  0  0  0  0  0  0  0  0  0
   19.9796    1.8054   13.9045 C   0  0  0  0  0  0  0  0  0  0  0  0
   18.5335    1.6227   14.3270 C   0  0  0  0  0  0  0  0  0  0  0  0
   17.5684    2.5227   13.5840 C   0  0  0  0  0  0  0  0  0  0  0  0
   16.0975    2.3649   13.9914 C   0  0  2  0  0  0  0  0  0  0  0  0
   15.3787    0.5952   13.8600 S   0  0  0  0  0  0  0  0  0  0  0  0
   13.6562    1.4005   14.0317 C   0  0  0  0  0  0  0  0  0  0  0  0
   13.7695    2.7587   13.2797 C   0  0  2  0  0  0  0  0  0  0  0  0
   13.3496    2.4626   11.8150 N   0  0  0  0  0  0  0  0  0  0  0  0
   14.2549    2.7189   10.9737 C   0  0  0  0  0  0  0  0  0  0  0  0
   14.3235    2.4525    9.7215 O   0  0  0  0  0  0  0  0  0  0  0  0
   15.5208    3.0737   11.5732 N   0  0  0  0  0  0  0  0  0  0  0  0
   15.2080    3.1962   13.0643 C   0  0  2  0  0  0  0  0  0  0  0  0
  1  2  1  0  0  0  0
  1  3  2  0  0  0  0
  1  4  1  0  0  0  0
  4  5  1  0  0  0  0
  5  6  1  0  0  0  0
  6  7  1  0  0  0  0
  8  7  1  6  0  0  0
  8  9  1  0  0  0  0
  8 16  1  0  0  0  0
  9 10  1  0  0  0  0
 11 10  1  1  0  0  0
 11 12  1  0  0  0  0
 11 16  1  0  0  0  0
 12 13  1  0  0  0  0
 13 14  2  0  0  0  0
 13 15  1  0  0  0  0
 16 15  1  6  0  0  0
M  CHG  1   2  -1
M  END
>  <CHROM.1>
101.01471071,59.17011941,-176.79680431,-179.83484679,-55.74505637,16.79721048
1.43390908,13.26123499,0.49740996,-0.12720678,2.18209235

>  <Name>
1f27 biotin aptamer (Xray 1.3A)

>  <RI>
0

>  <Rbt.Current_Directory>
/home/itssahil/PROJECTS/Mol_Feturizer/New_Systems/rnas/1f27

>  <Rbt.Executable>
rbdock ($Id: //depot/dev/client3/rdock/2013.1/src/exe/rbdock.cxx#4 $)

>  <Rbt.Library>
libRbt.so (2013.1, Build901 2013/11/27)

>  <Rbt.Parameter_File>
/export/apps/rDock/src/rDock_2013.1_src/data/scripts/dock_solv.prm

>  <Rbt.Receptor>
prm/blind_docking_60.prm

>  <SCORE>
-29.4849

>  <SCORE.INTER>
-27.1475

>  <SCORE.INTER.CONST>
1

>  <SCORE.INTER.POLAR>
-1.47918

>  <SCORE.INTER.ROT>
5

>  <SCORE.INTER.SOLV>
9.35759

>  <SCORE.INTER.VDW>
-23.2202

>  <SCORE.INTER.norm>
-1.69672

>  <SCORE.INTRA>
-2.33743

>  <SCORE.INTRA.DIHEDRAL>
-5.28928

>  <SCORE.INTRA.DIHEDRAL.0>
6.87082

>  <SCORE.INTRA.POLAR>
0

>  <SCORE.INTRA.POLAR.0>
0

>  <SCORE.INTRA.REPUL>
0

>  <SCORE.INTRA.REPUL.0>
0

>  <SCORE.INTRA.SOLV>
0.255195

>  <SCORE.INTRA.SOLV.lig_0>
-42.5944

>  <SCORE.INTRA.VDW>
0.179613

>  <SCORE.INTRA.VDW.0>
-1.067

>  <SCORE.INTRA.norm>
-0.146089

>  <SCORE.RESTR>
0

>  <SCORE.RESTR.CAVITY>
0

>  <SCORE.RESTR.norm>
0

>  <SCORE.SYSTEM>
0

>  <SCORE.SYSTEM.CONST>
0

>  <SCORE.SYSTEM.DIHEDRAL>
0

>  <SCORE.SYSTEM.SOLV>
0

>  <SCORE.SYSTEM.norm>
0

>  <SCORE.heavy>
16

>  <SCORE.norm>
-1.84281

>  <RMSD>
1.765

$$$$
1f27 biotin aptamer (Xray 1.3A)
 OpenBabel11021811393D
libRbt.so/2013.1/901 2013/11/27
 16 17  0  0  0  0  0  0  0  0999 V2000
   21.0091   -0.4041   12.9505 C   0  0  0  0  0  0  0  0  0  0  0  0
   20.0169   -1.1259   12.9532 O   0  5  0  0  0  0  0  0  0  0  0  0
   21.9292   -0.6320   12.1670 O   0  0  0  0  0  0  0  0  0  0  0  0
   21.0727    0.8113   13.8666 C   0  0  0  0  0  0  0  0  0  0  0  0
   19.9852    1.8706   13.5802 C   0  0  0  0  0  0  0  0  0  0  0  0
   18.6285    1.4367   14.1036 C   0  0  0  0  0  0  0  0  0  0  0  0
   17.5185    2.4193   13.7937 C   0  0  0  0  0  0  0  0  0  0  0  0
   16.1287    1.9976   14.2887 C   0  0  2  0  0  0  0  0  0  0  0  0
   15.4317    0.3775   13.5437 S   0  0  0  0  0  0  0  0  0  0  0  0
   13.7397    0.9101   14.2497 C   0  0  0  0  0  0  0  0  0  0  0  0
   13.7133    2.4599   14.1071 C   0  0  2  0  0  0  0  0  0  0  0  0
   13.0838    2.7416   12.7165 N   0  0  0  0  0  0  0  0  0  0  0  0
   13.8475    3.3824   11.9424 C   0  0  0  0  0  0  0  0  0  0  0  0
   13.7323    3.6445   10.6927 O   0  0  0  0  0  0  0  0  0  0  0  0
   15.1821    3.5659   12.4647 N   0  0  0  0  0  0  0  0  0  0  0  0
   15.0946    3.0579   13.9036 C   0  0  2  0  0  0  0  0  0  0  0  0
  1  2  1  0  0  0  0
  1  3  2  0  0  0  0
  1  4  1  0  0  0  0
  4  5  1  0  0  0  0
  5  6  1  0  0  0  0
  6  7  1  0  0  0  0
  8  7  1  6  0  0  0
  8  9  1  0  0  0  0
  8 16  1  0  0  0  0
  9 10  1  0  0  0  0
 11 10  1  6  0  0  0
 11 12  1  0  0  0  0
 11 16  1  0  0  0  0
 12 13  1  0  0  0  0
 13 14  2  0  0  0  0
 13 15  1  0  0  0  0
 16 15  1  6  0  0  0
M  CHG  1   2  -1
M  END
>  <CHROM.1>
-62.14381234,75.81867624,-177.57672839,178.98354631,-61.80365402,16.80681767
1.54191218,13.19498570,-0.33295814,0.17003780,-0.57352166

>  <Name>
1f27 biotin aptamer (Xray 1.3A)

>  <RI>
0

>  <Rbt.Current_Directory>
/home/itssahil/PROJECTS/Mol_Feturizer/New_Systems/rnas/1f27

>  <Rbt.Executable>
rbdock ($Id: //depot/dev/client3/rdock/2013.1/src/exe/rbdock.cxx#4 $)

>  <Rbt.Library>
libRbt.so (2013.1, Build901 2013/11/27)

>  <Rbt.Parameter_File>
/export/apps/rDock/src/rDock_2013.1_src/data/scripts/dock_solv.prm

>  <Rbt.Receptor>
prm/blind_docking_60.prm

>  <SCORE>
-32.2227

>  <SCORE.INTER>
-30.0129

>  <SCORE.INTER.CONST>
1

>  <SCORE.INTER.POLAR>
-1.81336

>  <SCORE.INTER.ROT>
5

>  <SCORE.INTER.SOLV>
12.4676

>  <SCORE.INTER.VDW>
-25.0533

>  <SCORE.INTER.norm>
-1.87581

>  <SCORE.INTRA>
-2.20983

>  <SCORE.INTRA.DIHEDRAL>
-4.61592

>  <SCORE.INTRA.DIHEDRAL.0>
6.87082

>  <SCORE.INTRA.POLAR>
0

>  <SCORE.INTRA.POLAR.0>
0

>  <SCORE.INTRA.REPUL>
0

>  <SCORE.INTRA.REPUL.0>
0

>  <SCORE.INTRA.SOLV>
0.141814

>  <SCORE.INTRA.SOLV.lig_0>
-42.5944

>  <SCORE.INTRA.VDW>
0.0272214

>  <SCORE.INTRA.VDW.0>
-1.067

>  <SCORE.INTRA.norm>
-0.138114

>  <SCORE.RESTR>
0

>  <SCORE.RESTR.CAVITY>
0

>  <SCORE.RESTR.norm>
0

>  <SCORE.SYSTEM>
0

>  <SCORE.SYSTEM.CONST>
0

>  <SCORE.SYSTEM.DIHEDRAL>
0

>  <SCORE.SYSTEM.SOLV>
0

>  <SCORE.SYSTEM.norm>
0

>  <SCORE.heavy>
16

>  <SCORE.norm>
-2.01392

>  <RMSD>
1.766

$$$$
1f27 biotin aptamer (Xray 1.3A)
 OpenBabel11021811393D
libRbt.so/2013.1/901 2013/11/27
 16 17  0  0  0  0  0  0  0  0999 V2000
   21.0389   -0.3853   13.2432 C   0  0  0  0  0  0  0  0  0  0  0  0
   21.7750   -0.3689   12.2617 O   0  5  0  0  0  0  0  0  0  0  0  0
   21.4730   -0.0350   14.3393 O   0  0  0  0  0  0  0  0  0  0  0  0
   19.5733   -0.7724   13.0933 C   0  0  0  0  0  0  0  0  0  0  0  0
   18.6354    0.4209   12.8047 C   0  0  0  0  0  0  0  0  0  0  0  0
   18.6169    1.4102   13.9552 C   0  0  0  0  0  0  0  0  0  0  0  0
   17.5308    2.4586   13.8336 C   0  0  0  0  0  0  0  0  0  0  0  0
   16.1375    1.9971   14.2810 C   0  0  2  0  0  0  0  0  0  0  0  0
   15.4720    0.4110   13.4402 S   0  0  0  0  0  0  0  0  0  0  0  0
   13.7621    0.8881   14.1428 C   0  0  0  0  0  0  0  0  0  0  0  0
   13.7205    2.4430   14.0808 C   0  0  2  0  0  0  0  0  0  0  0  0
   13.1119    2.7905   12.6958 N   0  0  0  0  0  0  0  0  0  0  0  0
   13.8815    3.4790   11.9700 C   0  0  0  0  0  0  0  0  0  0  0  0
   13.7849    3.8050   10.7338 O   0  0  0  0  0  0  0  0  0  0  0  0
   15.2048    3.6487   12.5248 N   0  0  0  0  0  0  0  0  0  0  0  0
   15.0982    3.0652   13.9334 C   0  0  2  0  0  0  0  0  0  0  0  0
  1  2  1  0  0  0  0
  1  3  2  0  0  0  0
  1  4  1  0  0  0  0
  4  5  1  0  0  0  0
  5  6  1  0  0  0  0
  6  7  1  0  0  0  0
  8  7  1  6  0  0  0
  8  9  1  0  0  0  0
  8 16  1  0  0  0  0
  9 10  1  0  0  0  0
 11 10  1  6  0  0  0
 11 12  1  0  0  0  0
 11 16  1  0  0  0  0
 12 13  1  0  0  0  0
 13 14  2  0  0  0  0
 13 15  1  0  0  0  0
 16 15  1  6  0  0  0
M  CHG  1   2  -1
M  END
>  <CHROM.1>
-90.04482750,-63.52462510,-169.44428560,80.91773955,-54.67636767,16.74565013
1.48395856,13.19773078,-0.35289803,0.22418626,-0.72751392

>  <Name>
1f27 biotin aptamer (Xray 1.3A)

>  <RI>
0

>  <Rbt.Current_Directory>
/home/itssahil/PROJECTS/Mol_Feturizer/New_Systems/rnas/1f27

>  <Rbt.Executable>
rbdock ($Id: //depot/dev/client3/rdock/2013.1/src/exe/rbdock.cxx#4 $)

>  <Rbt.Library>
libRbt.so (2013.1, Build901 2013/11/27)

>  <Rbt.Parameter_File>
/export/apps/rDock/src/rDock_2013.1_src/data/scripts/dock_solv.prm

>  <Rbt.Receptor>
prm/blind_docking_40.prm

>  <SCORE>
-29.598

>  <SCORE.INTER>
-28.2165

>  <SCORE.INTER.CONST>
1

>  <SCORE.INTER.POLAR>
-1.77407

>  <SCORE.INTER.ROT>
5

>  <SCORE.INTER.SOLV>
12.2328

>  <SCORE.INTER.VDW>
-23.9083

>  <SCORE.INTER.norm>
-1.76353

>  <SCORE.INTRA>
-1.38159

>  <SCORE.INTRA.DIHEDRAL>
-3.33168

>  <SCORE.INTRA.DIHEDRAL.0>
6.87082

>  <SCORE.INTRA.POLAR>
0

>  <SCORE.INTRA.POLAR.0>
0

>  <SCORE.INTRA.REPUL>
0

>  <SCORE.INTRA.REPUL.0>
0

>  <SCORE.INTRA.SOLV>
0.2759

>  <SCORE.INTRA.SOLV.lig_0>
-42.5944

>  <SCORE.INTRA.VDW>
0.146297

>  <SCORE.INTRA.VDW.0>
-1.067

>  <SCORE.INTRA.norm>
-0.0863496

>  <SCORE.RESTR>
0

>  <SCORE.RESTR.CAVITY>
0

>  <SCORE.RESTR.norm>
0

>  <SCORE.SYSTEM>
0

>  <SCORE.SYSTEM.CONST>
0

>  <SCORE.SYSTEM.DIHEDRAL>
0

>  <SCORE.SYSTEM.SOLV>
0

>  <SCORE.SYSTEM.norm>
0

>  <SCORE.heavy>
16

>  <SCORE.norm>
-1.84988

>  <RMSD>
1.769

$$$$
1f27 biotin aptamer (Xray 1.3A)
 OpenBabel11021811393D
libRbt.so/2013.1/901 2013/11/27
 16 17  0  0  0  0  0  0  0  0999 V2000
   19.6367   -3.8338   13.3247 C   0  0  0  0  0  0  0  0  0  0  0  0
   20.0377   -4.7188   14.0739 O   0  5  0  0  0  0  0  0  0  0  0  0
   20.2491   -3.5865   12.2872 O   0  0  0  0  0  0  0  0  0  0  0  0
   18.3463   -3.0892   13.6428 C   0  0  0  0  0  0  0  0  0  0  0  0
   18.4520   -1.5558   13.4869 C   0  0  0  0  0  0  0  0  0  0  0  0
   17.1473   -0.8654   13.8394 C   0  0  0  0  0  0  0  0  0  0  0  0
   17.2009    0.6408   13.6905 C   0  0  0  0  0  0  0  0  0  0  0  0
   15.9259    1.3762   14.1237 C   0  0  2  0  0  0  0  0  0  0  0  0
   14.2758    0.4788   13.7529 S   0  0  0  0  0  0  0  0  0  0  0  0
   13.4161    2.1459   14.1085 C   0  0  0  0  0  0  0  0  0  0  0  0
   14.3955    3.2280   13.5671 C   0  0  2  0  0  0  0  0  0  0  0  0
   13.9794    3.4682   12.0912 N   0  0  0  0  0  0  0  0  0  0  0  0
   14.9014    3.2216   11.2652 C   0  0  0  0  0  0  0  0  0  0  0  0
   14.8720    3.1509    9.9854 O   0  0  0  0  0  0  0  0  0  0  0  0
   16.0722    2.6229   11.8639 N   0  0  0  0  0  0  0  0  0  0  0  0
   15.8058    2.7009   13.3669 C   0  0  2  0  0  0  0  0  0  0  0  0
  1  2  1  0  0  0  0
  1  3  2  0  0  0  0
  1  4  1  0  0  0  0
  4  5  1  0  0  0  0
  5  6  1  0  0  0  0
  6  7  1  0  0  0  0
  8  7  1  6  0  0  0
  8  9  1  0  0  0  0
  8 16  1  0  0  0  0
  9 10  1  0  0  0  0
 11 10  1  6  0  0  0
 11 12  1  0  0  0  0
 11 16  1  0  0  0  0
 12 13  1  0  0  0  0
 13 14  2  0  0  0  0
 13 15  1  0  0  0  0
 16 15  1  6  0  0  0
M  CHG  1   2  -1
M  END
>  <CHROM.1>
134.23278595,-178.99889877,-179.54871691,-176.31924100,-35.96704013,16.41069302
0.30357114,13.05293191,-0.65772284,0.68532850,-0.84027978

>  <Name>
1f27 biotin aptamer (Xray 1.3A)

>  <RI>
0

>  <Rbt.Current_Directory>
/home/itssahil/PROJECTS/Mol_Feturizer/New_Systems/rnas/1f27

>  <Rbt.Executable>
rbdock ($Id: //depot/dev/client3/rdock/2013.1/src/exe/rbdock.cxx#4 $)

>  <Rbt.Library>
libRbt.so (2013.1, Build901 2013/11/27)

>  <Rbt.Parameter_File>
/export/apps/rDock/src/rDock_2013.1_src/data/scripts/dock_solv.prm

>  <Rbt.Receptor>
prm/pocket_docking_7.prm

>  <SCORE>
-26.5686

>  <SCORE.INTER>
-24.8734

>  <SCORE.INTER.CONST>
1

>  <SCORE.INTER.POLAR>
-1.25987

>  <SCORE.INTER.ROT>
5

>  <SCORE.INTER.SOLV>
9.24024

>  <SCORE.INTER.VDW>
-22.3961

>  <SCORE.INTER.norm>
-1.55458

>  <SCORE.INTRA>
-1.69521

>  <SCORE.INTRA.DIHEDRAL>
-3.46351

>  <SCORE.INTRA.DIHEDRAL.0>
6.87082

>  <SCORE.INTRA.POLAR>
0

>  <SCORE.INTRA.POLAR.0>
0

>  <SCORE.INTRA.REPUL>
0

>  <SCORE.INTRA.REPUL.0>
0

>  <SCORE.INTRA.SOLV>
-0.786972

>  <SCORE.INTRA.SOLV.lig_0>
-42.5944

>  <SCORE.INTRA.VDW>
0.430033

>  <SCORE.INTRA.VDW.0>
-1.067

>  <SCORE.INTRA.norm>
-0.10595

>  <SCORE.RESTR>
0

>  <SCORE.RESTR.CAVITY>
0

>  <SCORE.RESTR.norm>
0

>  <SCORE.SYSTEM>
0

>  <SCORE.SYSTEM.CONST>
0

>  <SCORE.SYSTEM.DIHEDRAL>
0

>  <SCORE.SYSTEM.SOLV>
0

>  <SCORE.SYSTEM.norm>
0

>  <SCORE.heavy>
16

>  <SCORE.norm>
-1.66054

>  <RMSD>
1.769

$$$$
1f27 biotin aptamer (Xray 1.3A)
 OpenBabel11021811393D
libRbt.so/2013.1/901 2013/11/27
 16 17  0  0  0  0  0  0  0  0999 V2000
   20.3722   -0.4267   13.2175 C   0  0  0  0  0  0  0  0  0  0  0  0
   19.6069   -1.1224   13.8776 O   0  5  0  0  0  0  0  0  0  0  0  0
   20.9947   -0.9224   12.2797 O   0  0  0  0  0  0  0  0  0  0  0  0
   20.5004    1.0620   13.5139 C   0  0  0  0  0  0  0  0  0  0  0  0
   19.6204    1.9588   12.6148 C   0  0  0  0  0  0  0  0  0  0  0  0
   18.1477    1.6210   12.7562 C   0  0  0  0  0  0  0  0  0  0  0  0
   17.5459    2.0783   14.0686 C   0  0  0  0  0  0  0  0  0  0  0  0
   16.0434    1.8051   14.2176 C   0  0  2  0  0  0  0  0  0  0  0  0
   15.4334    0.1098   13.5697 S   0  0  0  0  0  0  0  0  0  0  0  0
   13.6669    0.8244   13.6866 C   0  0  0  0  0  0  0  0  0  0  0  0
   13.8133    2.3259   13.3031 C   0  0  2  0  0  0  0  0  0  0  0  0
   13.6046    2.3877   11.7663 N   0  0  0  0  0  0  0  0  0  0  0  0
   14.5995    2.8535   11.1447 C   0  0  0  0  0  0  0  0  0  0  0  0
   14.8450    2.8996    9.8872 O   0  0  0  0  0  0  0  0  0  0  0  0
   15.7570    3.0706   11.9818 N   0  0  0  0  0  0  0  0  0  0  0  0
   15.2451    2.8234   13.4006 C   0  0  2  0  0  0  0  0  0  0  0  0
  1  2  1  0  0  0  0
  1  3  2  0  0  0  0
  1  4  1  0  0  0  0
  4  5  1  0  0  0  0
  5  6  1  0  0  0  0
  6  7  1  0  0  0  0
  8  7  1  6  0  0  0
  8  9  1  0  0  0  0
  8 16  1  0  0  0  0
  9 10  1  0  0  0  0
 11 10  1  6  0  0  0
 11 12  1  0  0  0  0
 11 16  1  0  0  0  0
 12 13  1  0  0  0  0
 13 14  2  0  0  0  0
 13 15  1  0  0  0  0
 16 15  1  6  0  0  0
M  CHG  1   2  -1
M  END
>  <CHROM.1>
-96.03691963,59.49703246,72.93148535,177.50640996,40.90131985,16.79051802
1.33416393,12.85485069,0.35959165,-0.16847701,2.34242043

>  <Name>
1f27 biotin aptamer (Xray 1.3A)

>  <RI>
0

>  <Rbt.Current_Directory>
/home/itssahil/PROJECTS/Mol_Feturizer/New_Systems/rnas/1f27

>  <Rbt.Executable>
rbdock ($Id: //depot/dev/client3/rdock/2013.1/src/exe/rbdock.cxx#4 $)

>  <Rbt.Library>
libRbt.so (2013.1, Build901 2013/11/27)

>  <Rbt.Parameter_File>
/export/apps/rDock/src/rDock_2013.1_src/data/scripts/dock_solv.prm

>  <Rbt.Receptor>
prm/pocket_docking_2.prm

>  <SCORE>
-30.6757

>  <SCORE.INTER>
-30.8185

>  <SCORE.INTER.CONST>
1

>  <SCORE.INTER.POLAR>
-1.83768

>  <SCORE.INTER.ROT>
5

>  <SCORE.INTER.SOLV>
11.1656

>  <SCORE.INTER.VDW>
-25.0752

>  <SCORE.INTER.norm>
-1.92615

>  <SCORE.INTRA>
-0.374258

>  <SCORE.INTRA.DIHEDRAL>
-3.57725

>  <SCORE.INTRA.DIHEDRAL.0>
6.87082

>  <SCORE.INTRA.POLAR>
0

>  <SCORE.INTRA.POLAR.0>
0

>  <SCORE.INTRA.REPUL>
0

>  <SCORE.INTRA.REPUL.0>
0

>  <SCORE.INTRA.SOLV>
1.29509

>  <SCORE.INTRA.SOLV.lig_0>
-42.5944

>  <SCORE.INTRA.VDW>
0.766818

>  <SCORE.INTRA.VDW.0>
-1.067

>  <SCORE.INTRA.norm>
-0.0233911

>  <SCORE.RESTR>
0.51704

>  <SCORE.RESTR.CAVITY>
0.51704

>  <SCORE.RESTR.norm>
0.032315

>  <SCORE.SYSTEM>
0

>  <SCORE.SYSTEM.CONST>
0

>  <SCORE.SYSTEM.DIHEDRAL>
0

>  <SCORE.SYSTEM.SOLV>
0

>  <SCORE.SYSTEM.norm>
0

>  <SCORE.heavy>
16

>  <SCORE.norm>
-1.91723

>  <RMSD>
1.773

$$$$
1f27 biotin aptamer (Xray 1.3A)
 OpenBabel11021811393D
libRbt.so/2013.1/901 2013/11/27
 16 17  0  0  0  0  0  0  0  0999 V2000
   21.0468   -0.3668   13.1744 C   0  0  0  0  0  0  0  0  0  0  0  0
   21.8131   -0.4394   12.2189 O   0  5  0  0  0  0  0  0  0  0  0  0
   21.4485    0.0778   14.2483 O   0  0  0  0  0  0  0  0  0  0  0  0
   19.5844   -0.7617   13.0131 C   0  0  0  0  0  0  0  0  0  0  0  0
   18.6372    0.4312   12.7548 C   0  0  0  0  0  0  0  0  0  0  0  0
   18.6343    1.4066   13.9173 C   0  0  0  0  0  0  0  0  0  0  0  0
   17.5419    2.4516   13.8270 C   0  0  0  0  0  0  0  0  0  0  0  0
   16.1531    1.9707   14.2677 C   0  0  2  0  0  0  0  0  0  0  0  0
   15.5006    0.3928   13.4015 S   0  0  0  0  0  0  0  0  0  0  0  0
   13.7872    0.8435   14.1129 C   0  0  0  0  0  0  0  0  0  0  0  0
   13.7320    2.3988   14.0764 C   0  0  2  0  0  0  0  0  0  0  0  0
   13.1194    2.7636   12.6977 N   0  0  0  0  0  0  0  0  0  0  0  0
   13.8825    3.4706   11.9828 C   0  0  0  0  0  0  0  0  0  0  0  0
   13.7820    3.8159   10.7522 O   0  0  0  0  0  0  0  0  0  0  0  0
   15.2046    3.6427   12.5394 N   0  0  0  0  0  0  0  0  0  0  0  0
   15.1042    3.0353   13.9384 C   0  0  2  0  0  0  0  0  0  0  0  0
  1  2  1  0  0  0  0
  1  3  2  0  0  0  0
  1  4  1  0  0  0  0
  4  5  1  0  0  0  0
  5  6  1  0  0  0  0
  6  7  1  0  0  0  0
  8  7  1  6  0  0  0
  8  9  1  0  0  0  0
  8 16  1  0  0  0  0
  9 10  1  0  0  0  0
 11 10  1  6  0  0  0
 11 12  1  0  0  0  0
 11 16  1  0  0  0  0
 12 13  1  0  0  0  0
 13 14  2  0  0  0  0
 13 15  1  0  0  0  0
 16 15  1  6  0  0  0
M  CHG  1   2  -1
M  END
>  <CHROM.1>
-96.87269730,-62.21281117,-169.41709803,79.81577860,-54.07967294,16.75661517
1.47621871,13.17083860,-0.34905536,0.21987593,-0.70164433

>  <Name>
1f27 biotin aptamer (Xray 1.3A)

>  <RI>
0

>  <Rbt.Current_Directory>
/home/itssahil/PROJECTS/Mol_Feturizer/New_Systems/rnas/1f27

>  <Rbt.Executable>
rbdock ($Id: //depot/dev/client3/rdock/2013.1/src/exe/rbdock.cxx#4 $)

>  <Rbt.Library>
libRbt.so (2013.1, Build901 2013/11/27)

>  <Rbt.Parameter_File>
/export/apps/rDock/src/rDock_2013.1_src/data/scripts/dock_solv.prm

>  <Rbt.Receptor>
prm/blind_docking_60.prm

>  <SCORE>
-29.6211

>  <SCORE.INTER>
-28.3222

>  <SCORE.INTER.CONST>
1

>  <SCORE.INTER.POLAR>
-1.80018

>  <SCORE.INTER.ROT>
5

>  <SCORE.INTER.SOLV>
12.5176

>  <SCORE.INTER.VDW>
-23.9868

>  <SCORE.INTER.norm>
-1.77014

>  <SCORE.INTRA>
-1.29885

>  <SCORE.INTRA.DIHEDRAL>
-3.47467

>  <SCORE.INTRA.DIHEDRAL.0>
6.87082

>  <SCORE.INTRA.POLAR>
0

>  <SCORE.INTRA.POLAR.0>
0

>  <SCORE.INTRA.REPUL>
0

>  <SCORE.INTRA.REPUL.0>
0

>  <SCORE.INTRA.SOLV>
0.342788

>  <SCORE.INTRA.SOLV.lig_0>
-42.5944

>  <SCORE.INTRA.VDW>
0.267092

>  <SCORE.INTRA.VDW.0>
-1.067

>  <SCORE.INTRA.norm>
-0.081178

>  <SCORE.RESTR>
0

>  <SCORE.RESTR.CAVITY>
0

>  <SCORE.RESTR.norm>
0

>  <SCORE.SYSTEM>
0

>  <SCORE.SYSTEM.CONST>
0

>  <SCORE.SYSTEM.DIHEDRAL>
0

>  <SCORE.SYSTEM.SOLV>
0

>  <SCORE.SYSTEM.norm>
0

>  <SCORE.heavy>
16

>  <SCORE.norm>
-1.85132

>  <RMSD>
1.774

$$$$
1f27 biotin aptamer (Xray 1.3A)
 OpenBabel11021811393D
libRbt.so/2013.1/901 2013/11/27
 16 17  0  0  0  0  0  0  0  0999 V2000
   20.5080   -0.0586   12.8599 C   0  0  0  0  0  0  0  0  0  0  0  0
   20.3350   -1.0402   13.5752 O   0  5  0  0  0  0  0  0  0  0  0  0
   20.2122   -0.1110   11.6673 O   0  0  0  0  0  0  0  0  0  0  0  0
   21.0232    1.2434   13.4598 C   0  0  0  0  0  0  0  0  0  0  0  0
   19.9824    1.9922   14.3219 C   0  0  0  0  0  0  0  0  0  0  0  0
   18.8717    2.5822   13.4727 C   0  0  0  0  0  0  0  0  0  0  0  0
   17.8925    1.5491   12.9555 C   0  0  0  0  0  0  0  0  0  0  0  0
   16.5494    1.5076   13.6961 C   0  0  2  0  0  0  0  0  0  0  0  0
   15.5129   -0.0848   13.4600 S   0  0  0  0  0  0  0  0  0  0  0  0
   14.0487    0.8895   14.2028 C   0  0  0  0  0  0  0  0  0  0  0  0
   14.2304    2.3465   13.6857 C   0  0  2  0  0  0  0  0  0  0  0  0
   13.4417    2.4183   12.3508 N   0  0  0  0  0  0  0  0  0  0  0  0
   14.1625    2.7203   11.3597 C   0  0  0  0  0  0  0  0  0  0  0  0
   13.8949    2.7119   10.1058 O   0  0  0  0  0  0  0  0  0  0  0  0
   15.5742    2.7716   11.6630 N   0  0  0  0  0  0  0  0  0  0  0  0
   15.6366    2.6237   13.1829 C   0  0  2  0  0  0  0  0  0  0  0  0
  1  2  1  0  0  0  0
  1  3  2  0  0  0  0
  1  4  1  0  0  0  0
  4  5  1  0  0  0  0
  5  6  1  0  0  0  0
  6  7  1  0  0  0  0
  8  7  1  6  0  0  0
  8  9  1  0  0  0  0
  8 16  1  0  0  0  0
  9 10  1  0  0  0  0
 11 10  1  6  0  0  0
 11 12  1  0  0  0  0
 11 16  1  0  0  0  0
 12 13  1  0  0  0  0
 13 14  2  0  0  0  0
 13 15  1  0  0  0  0
 16 15  1  6  0  0  0
M  CHG  1   2  -1
M  END
>  <CHROM.1>
-72.59949617,-70.34333973,74.12799688,103.38537191,-161.91291905,16.90244789
1.36546341,12.88735948,-0.29566147,0.07289420,-0.75170938

>  <Name>
1f27 biotin aptamer (Xray 1.3A)

>  <RI>
0

>  <Rbt.Current_Directory>
/home/itssahil/PROJECTS/Mol_Feturizer/New_Systems/rnas/1f27

>  <Rbt.Executable>
rbdock ($Id: //depot/dev/client3/rdock/2013.1/src/exe/rbdock.cxx#4 $)

>  <Rbt.Library>
libRbt.so (2013.1, Build901 2013/11/27)

>  <Rbt.Parameter_File>
/export/apps/rDock/src/rDock_2013.1_src/data/scripts/dock_solv.prm

>  <Rbt.Receptor>
prm/blind_docking_40.prm

>  <SCORE>
-22.9879

>  <SCORE.INTER>
-24.9757

>  <SCORE.INTER.CONST>
1

>  <SCORE.INTER.POLAR>
-0.840507

>  <SCORE.INTER.ROT>
5

>  <SCORE.INTER.SOLV>
12.8223

>  <SCORE.INTER.VDW>
-25.0562

>  <SCORE.INTER.norm>
-1.56098

>  <SCORE.INTRA>
1.98787

>  <SCORE.INTRA.DIHEDRAL>
1.87494

>  <SCORE.INTRA.DIHEDRAL.0>
6.87082

>  <SCORE.INTRA.POLAR>
0

>  <SCORE.INTRA.POLAR.0>
0

>  <SCORE.INTRA.REPUL>
0

>  <SCORE.INTRA.REPUL.0>
0

>  <SCORE.INTRA.SOLV>
1.5635

>  <SCORE.INTRA.SOLV.lig_0>
-42.5944

>  <SCORE.INTRA.VDW>
0.268657

>  <SCORE.INTRA.VDW.0>
-1.067

>  <SCORE.INTRA.norm>
0.124242

>  <SCORE.RESTR>
0

>  <SCORE.RESTR.CAVITY>
0

>  <SCORE.RESTR.norm>
0

>  <SCORE.SYSTEM>
0

>  <SCORE.SYSTEM.CONST>
0

>  <SCORE.SYSTEM.DIHEDRAL>
0

>  <SCORE.SYSTEM.SOLV>
0

>  <SCORE.SYSTEM.norm>
0

>  <SCORE.heavy>
16

>  <SCORE.norm>
-1.43674

>  <RMSD>
1.777

$$$$
1f27 biotin aptamer (Xray 1.3A)
 OpenBabel11021811393D
libRbt.so/2013.1/901 2013/11/27
 16 17  0  0  0  0  0  0  0  0999 V2000
   20.7639   -0.4045   14.2972 C   0  0  0  0  0  0  0  0  0  0  0  0
   20.7041   -1.0138   13.2339 O   0  5  0  0  0  0  0  0  0  0  0  0
   20.6267   -1.0109   15.3583 O   0  0  0  0  0  0  0  0  0  0  0  0
   21.0752    1.0867   14.3074 C   0  0  0  0  0  0  0  0  0  0  0  0
   19.8234    1.9895   14.2371 C   0  0  0  0  0  0  0  0  0  0  0  0
   19.1178    1.8662   12.8992 C   0  0  0  0  0  0  0  0  0  0  0  0
   17.8729    2.7219   12.7912 C   0  0  0  0  0  0  0  0  0  0  0  0
   16.6774    2.2259   13.6154 C   0  0  2  0  0  0  0  0  0  0  0  0
   15.9775    0.5124   13.1258 S   0  0  0  0  0  0  0  0  0  0  0  0
   14.4513    0.9558   14.1836 C   0  0  0  0  0  0  0  0  0  0  0  0
   14.2530    2.4867   13.9833 C   0  0  2  0  0  0  0  0  0  0  0  0
   13.2989    2.6296   12.7674 N   0  0  0  0  0  0  0  0  0  0  0  0
   13.8038    3.2772   11.8088 C   0  0  0  0  0  0  0  0  0  0  0  0
   13.3821    3.4496   10.6104 O   0  0  0  0  0  0  0  0  0  0  0  0
   15.2004    3.5966   11.9961 N   0  0  0  0  0  0  0  0  0  0  0  0
   15.4911    3.1760   13.4365 C   0  0  2  0  0  0  0  0  0  0  0  0
  1  2  1  0  0  0  0
  1  3  2  0  0  0  0
  1  4  1  0  0  0  0
  4  5  1  0  0  0  0
  5  6  1  0  0  0  0
  6  7  1  0  0  0  0
  8  7  1  6  0  0  0
  8  9  1  0  0  0  0
  8 16  1  0  0  0  0
  9 10  1  0  0  0  0
 11 10  1  6  0  0  0
 11 12  1  0  0  0  0
 11 16  1  0  0  0  0
 12 13  1  0  0  0  0
 13 14  2  0  0  0  0
 13 15  1  0  0  0  0
 16 15  1  6  0  0  0
M  CHG  1   2  -1
M  END
>  <CHROM.1>
90.54299831,-67.10154285,179.27286805,-72.34191439,-63.04661814,16.97457043
1.60636802,13.26181013,0.47913461,0.03522142,2.61832593

>  <Name>
1f27 biotin aptamer (Xray 1.3A)

>  <RI>
0

>  <Rbt.Current_Directory>
/home/itssahil/PROJECTS/Mol_Feturizer/New_Systems/rnas/1f27

>  <Rbt.Executable>
rbdock ($Id: //depot/dev/client3/rdock/2013.1/src/exe/rbdock.cxx#4 $)

>  <Rbt.Library>
libRbt.so (2013.1, Build901 2013/11/27)

>  <Rbt.Parameter_File>
/export/apps/rDock/src/rDock_2013.1_src/data/scripts/dock_solv.prm

>  <Rbt.Receptor>
prm/pocket_docking_3.prm

>  <SCORE>
-26.9569

>  <SCORE.INTER>
-24.6339

>  <SCORE.INTER.CONST>
1

>  <SCORE.INTER.POLAR>
-0.841568

>  <SCORE.INTER.ROT>
5

>  <SCORE.INTER.SOLV>
7.84346

>  <SCORE.INTER.VDW>
-23.1652

>  <SCORE.INTER.norm>
-1.53962

>  <SCORE.INTRA>
-2.32304

>  <SCORE.INTRA.DIHEDRAL>
-4.56325

>  <SCORE.INTRA.DIHEDRAL.0>
6.87082

>  <SCORE.INTRA.POLAR>
0

>  <SCORE.INTRA.POLAR.0>
0

>  <SCORE.INTRA.REPUL>
0

>  <SCORE.INTRA.REPUL.0>
0

>  <SCORE.INTRA.SOLV>
0.0792999

>  <SCORE.INTRA.SOLV.lig_0>
-42.5944

>  <SCORE.INTRA.VDW>
-0.0810676

>  <SCORE.INTRA.VDW.0>
-1.067

>  <SCORE.INTRA.norm>
-0.14519

>  <SCORE.RESTR>
0

>  <SCORE.RESTR.CAVITY>
0

>  <SCORE.RESTR.norm>
0

>  <SCORE.SYSTEM>
0

>  <SCORE.SYSTEM.CONST>
0

>  <SCORE.SYSTEM.DIHEDRAL>
0

>  <SCORE.SYSTEM.SOLV>
0

>  <SCORE.SYSTEM.norm>
0

>  <SCORE.heavy>
16

>  <SCORE.norm>
-1.68481

>  <RMSD>
1.777

$$$$
1f27 biotin aptamer (Xray 1.3A)
 OpenBabel11021811393D
libRbt.so/2013.1/901 2013/11/27
 16 17  0  0  0  0  0  0  0  0999 V2000
   21.7124   -0.2381   13.6803 C   0  0  0  0  0  0  0  0  0  0  0  0
   22.1860   -0.2814   12.5493 O   0  5  0  0  0  0  0  0  0  0  0  0
   22.4526   -0.0657   14.6472 O   0  0  0  0  0  0  0  0  0  0  0  0
   20.2052   -0.3288   13.8820 C   0  0  0  0  0  0  0  0  0  0  0  0
   19.5091    1.0419   14.0359 C   0  0  0  0  0  0  0  0  0  0  0  0
   18.0317    0.8884   14.3465 C   0  0  0  0  0  0  0  0  0  0  0  0
   17.2480    2.1770   14.2086 C   0  0  0  0  0  0  0  0  0  0  0  0
   15.7254    2.0188   14.3139 C   0  0  2  0  0  0  0  0  0  0  0  0
   15.0146    0.3469   13.7096 S   0  0  0  0  0  0  0  0  0  0  0  0
   13.3022    1.1907   13.7357 C   0  0  0  0  0  0  0  0  0  0  0  0
   13.5708    2.6611   13.3008 C   0  0  2  0  0  0  0  0  0  0  0  0
   13.4181    2.6752   11.7562 N   0  0  0  0  0  0  0  0  0  0  0  0
   14.4645    3.0426   11.1535 C   0  0  0  0  0  0  0  0  0  0  0  0
   14.7541    3.0200    9.9048 O   0  0  0  0  0  0  0  0  0  0  0  0
   15.6064    3.2098   12.0227 N   0  0  0  0  0  0  0  0  0  0  0  0
   15.0312    3.0579   13.4306 C   0  0  2  0  0  0  0  0  0  0  0  0
  1  2  1  0  0  0  0
  1  3  2  0  0  0  0
  1  4  1  0  0  0  0
  4  5  1  0  0  0  0
  5  6  1  0  0  0  0
  6  7  1  0  0  0  0
  8  7  1  6  0  0  0
  8  9  1  0  0  0  0
  8 16  1  0  0  0  0
  9 10  1  0  0  0  0
 11 10  1  6  0  0  0
 11 12  1  0  0  0  0
 11 16  1  0  0  0  0
 12 13  1  0  0  0  0
 13 14  2  0  0  0  0
 13 15  1  0  0  0  0
 16 15  1  6  0  0  0
M  CHG  1   2  -1
M  END
>  <CHROM.1>
-96.77364203,-175.34266173,-167.39138067,171.48123431,-30.25341854,16.92385445
1.42322744,13.18035003,-0.31961497,0.19093683,-1.06394239

>  <Name>
1f27 biotin aptamer (Xray 1.3A)

>  <RI>
0

>  <Rbt.Current_Directory>
/home/itssahil/PROJECTS/Mol_Feturizer/New_Systems/rnas/1f27

>  <Rbt.Executable>
rbdock ($Id: //depot/dev/client3/rdock/2013.1/src/exe/rbdock.cxx#4 $)

>  <Rbt.Library>
libRbt.so (2013.1, Build901 2013/11/27)

>  <Rbt.Parameter_File>
/export/apps/rDock/src/rDock_2013.1_src/data/scripts/dock_solv.prm

>  <Rbt.Receptor>
prm/blind_docking_60.prm

>  <SCORE>
-28.353

>  <SCORE.INTER>
-27.4556

>  <SCORE.INTER.CONST>
1

>  <SCORE.INTER.POLAR>
-2.44642

>  <SCORE.INTER.ROT>
5

>  <SCORE.INTER.SOLV>
13.8254

>  <SCORE.INTER.VDW>
-21.6908

>  <SCORE.INTER.norm>
-1.71597

>  <SCORE.INTRA>
-0.897445

>  <SCORE.INTRA.DIHEDRAL>
-1.6729

>  <SCORE.INTRA.DIHEDRAL.0>
6.87082

>  <SCORE.INTRA.POLAR>
0

>  <SCORE.INTRA.POLAR.0>
0

>  <SCORE.INTRA.REPUL>
0

>  <SCORE.INTRA.REPUL.0>
0

>  <SCORE.INTRA.SOLV>
-0.76106

>  <SCORE.INTRA.SOLV.lig_0>
-42.5944

>  <SCORE.INTRA.VDW>
0.319534

>  <SCORE.INTRA.VDW.0>
-1.067

>  <SCORE.INTRA.norm>
-0.0560903

>  <SCORE.RESTR>
0

>  <SCORE.RESTR.CAVITY>
0

>  <SCORE.RESTR.norm>
0

>  <SCORE.SYSTEM>
0

>  <SCORE.SYSTEM.CONST>
0

>  <SCORE.SYSTEM.DIHEDRAL>
0

>  <SCORE.SYSTEM.SOLV>
0

>  <SCORE.SYSTEM.norm>
0

>  <SCORE.heavy>
16

>  <SCORE.norm>
-1.77206

>  <RMSD>
1.778

$$$$
1f27 biotin aptamer (Xray 1.3A)
 OpenBabel11021811393D
libRbt.so/2013.1/901 2013/11/27
 16 17  0  0  0  0  0  0  0  0999 V2000
   20.3424   -0.4251   13.2689 C   0  0  0  0  0  0  0  0  0  0  0  0
   21.1633   -0.9640   12.5334 O   0  5  0  0  0  0  0  0  0  0  0  0
   19.4716   -1.1018   13.8132 O   0  0  0  0  0  0  0  0  0  0  0  0
   20.4418    1.0664   13.5623 C   0  0  0  0  0  0  0  0  0  0  0  0
   19.6137    1.9510   12.6038 C   0  0  0  0  0  0  0  0  0  0  0  0
   18.1274    1.6700   12.7251 C   0  0  0  0  0  0  0  0  0  0  0  0
   17.5416    2.0801   14.0601 C   0  0  0  0  0  0  0  0  0  0  0  0
   16.0400    1.8058   14.2158 C   0  0  2  0  0  0  0  0  0  0  0  0
   15.4276    0.1121   13.5661 S   0  0  0  0  0  0  0  0  0  0  0  0
   13.6613    0.8256   13.6937 C   0  0  0  0  0  0  0  0  0  0  0  0
   13.8052    2.3282   13.3137 C   0  0  2  0  0  0  0  0  0  0  0  0
   13.5889    2.3942   11.7781 N   0  0  0  0  0  0  0  0  0  0  0  0
   14.5806    2.8621   11.1530 C   0  0  0  0  0  0  0  0  0  0  0  0
   14.8199    2.9120    9.8944 O   0  0  0  0  0  0  0  0  0  0  0  0
   15.7421    3.0775   11.9850 N   0  0  0  0  0  0  0  0  0  0  0  0
   15.2372    2.8261   13.4055 C   0  0  2  0  0  0  0  0  0  0  0  0
  1  2  1  0  0  0  0
  1  3  2  0  0  0  0
  1  4  1  0  0  0  0
  4  5  1  0  0  0  0
  5  6  1  0  0  0  0
  6  7  1  0  0  0  0
  8  7  1  6  0  0  0
  8  9  1  0  0  0  0
  8 16  1  0  0  0  0
  9 10  1  0  0  0  0
 11 10  1  6  0  0  0
 11 12  1  0  0  0  0
 11 16  1  0  0  0  0
 12 13  1  0  0  0  0
 13 14  2  0  0  0  0
 13 15  1  0  0  0  0
 16 15  1  6  0  0  0
M  CHG  1   2  -1
M  END
>  <CHROM.1>
92.48796241,63.43211707,67.06750852,-179.85913190,42.90338636,16.77944885
1.33835095,12.87218984,0.37074945,-0.15485526,2.36454850

>  <Name>
1f27 biotin aptamer (Xray 1.3A)

>  <RI>
0

>  <Rbt.Current_Directory>
/home/itssahil/PROJECTS/Mol_Feturizer/New_Systems/rnas/1f27

>  <Rbt.Executable>
rbdock ($Id: //depot/dev/client3/rdock/2013.1/src/exe/rbdock.cxx#4 $)

>  <Rbt.Library>
libRbt.so (2013.1, Build901 2013/11/27)

>  <Rbt.Parameter_File>
/export/apps/rDock/src/rDock_2013.1_src/data/scripts/dock_solv.prm

>  <Rbt.Receptor>
prm/pocket_docking_2.prm

>  <SCORE>
-30.6224

>  <SCORE.INTER>
-30.7861

>  <SCORE.INTER.CONST>
1

>  <SCORE.INTER.POLAR>
-1.82757

>  <SCORE.INTER.ROT>
5

>  <SCORE.INTER.SOLV>
10.746

>  <SCORE.INTER.VDW>
-24.9475

>  <SCORE.INTER.norm>
-1.92413

>  <SCORE.INTRA>
-0.346401

>  <SCORE.INTRA.DIHEDRAL>
-4.07219

>  <SCORE.INTRA.DIHEDRAL.0>
6.87082

>  <SCORE.INTRA.POLAR>
0

>  <SCORE.INTRA.POLAR.0>
0

>  <SCORE.INTRA.REPUL>
0

>  <SCORE.INTRA.REPUL.0>
0

>  <SCORE.INTRA.SOLV>
1.3526

>  <SCORE.INTRA.SOLV.lig_0>
-42.5944

>  <SCORE.INTRA.VDW>
1.0134

>  <SCORE.INTRA.VDW.0>
-1.067

>  <SCORE.INTRA.norm>
-0.0216501

>  <SCORE.RESTR>
0.510028

>  <SCORE.RESTR.CAVITY>
0.510028

>  <SCORE.RESTR.norm>
0.0318767

>  <SCORE.SYSTEM>
0

>  <SCORE.SYSTEM.CONST>
0

>  <SCORE.SYSTEM.DIHEDRAL>
0

>  <SCORE.SYSTEM.SOLV>
0

>  <SCORE.SYSTEM.norm>
0

>  <SCORE.heavy>
16

>  <SCORE.norm>
-1.9139

>  <RMSD>
1.778

$$$$
1f27 biotin aptamer (Xray 1.3A)
 OpenBabel11021811393D
libRbt.so/2013.1/901 2013/11/27
 16 17  0  0  0  0  0  0  0  0999 V2000
   21.5477   -0.7431   16.3463 C   0  0  0  0  0  0  0  0  0  0  0  0
   22.1933   -0.0087   17.0873 O   0  5  0  0  0  0  0  0  0  0  0  0
   22.0921   -1.7119   15.8193 O   0  0  0  0  0  0  0  0  0  0  0  0
   20.0596   -0.4969   16.1329 C   0  0  0  0  0  0  0  0  0  0  0  0
   19.6977   -0.0431   14.7011 C   0  0  0  0  0  0  0  0  0  0  0  0
   19.8878    1.4518   14.5221 C   0  0  0  0  0  0  0  0  0  0  0  0
   18.8215    2.0981   13.6625 C   0  0  0  0  0  0  0  0  0  0  0  0
   17.3980    2.0109   14.2286 C   0  0  2  0  0  0  0  0  0  0  0  0
   16.4736    0.3634   13.9170 S   0  0  0  0  0  0  0  0  0  0  0  0
   14.8838    1.2844   14.4359 C   0  0  0  0  0  0  0  0  0  0  0  0
   15.0638    2.7339   13.8974 C   0  0  2  0  0  0  0  0  0  0  0  0
   14.4495    2.7300   12.4720 N   0  0  0  0  0  0  0  0  0  0  0  0
   15.2766    3.0398   11.5702 C   0  0  0  0  0  0  0  0  0  0  0  0
   15.1720    2.9839   10.2936 O   0  0  0  0  0  0  0  0  0  0  0  0
   16.6342    3.1690   12.0474 N   0  0  0  0  0  0  0  0  0  0  0  0
   16.5086    3.0660   13.5672 C   0  0  2  0  0  0  0  0  0  0  0  0
  1  2  1  0  0  0  0
  1  3  2  0  0  0  0
  1  4  1  0  0  0  0
  4  5  1  0  0  0  0
  5  6  1  0  0  0  0
  6  7  1  0  0  0  0
  8  7  1  6  0  0  0
  8  9  1  0  0  0  0
  8 16  1  0  0  0  0
  9 10  1  0  0  0  0
 11 10  1  6  0  0  0
 11 12  1  0  0  0  0
 11 16  1  0  0  0  0
 12 13  1  0  0  0  0
 13 14  2  0  0  0  0
 13 15  1  0  0  0  0
 16 15  1  6  0  0  0
M  CHG  1   2  -1
M  END
>  <CHROM.1>
112.56841941,-83.46547076,-141.72104709,62.58440044,-81.68253799,17.81818902
1.27345695,14.02854638,0.68587057,0.02831449,2.30623615

>  <Name>
1f27 biotin aptamer (Xray 1.3A)

>  <RI>
0

>  <Rbt.Current_Directory>
/home/itssahil/PROJECTS/Mol_Feturizer/New_Systems/rnas/1f27

>  <Rbt.Executable>
rbdock ($Id: //depot/dev/client3/rdock/2013.1/src/exe/rbdock.cxx#4 $)

>  <Rbt.Library>
libRbt.so (2013.1, Build901 2013/11/27)

>  <Rbt.Parameter_File>
/export/apps/rDock/src/rDock_2013.1_src/data/scripts/dock_solv.prm

>  <Rbt.Receptor>
prm/pocket_docking_7.prm

>  <SCORE>
-26.4839

>  <SCORE.INTER>
-27.5988

>  <SCORE.INTER.CONST>
1

>  <SCORE.INTER.POLAR>
-2.03106

>  <SCORE.INTER.ROT>
5

>  <SCORE.INTER.SOLV>
9.93329

>  <SCORE.INTER.VDW>
-21.8734

>  <SCORE.INTER.norm>
-1.72492

>  <SCORE.INTRA>
1.11489

>  <SCORE.INTRA.DIHEDRAL>
2.36921

>  <SCORE.INTRA.DIHEDRAL.0>
6.87082

>  <SCORE.INTRA.POLAR>
0

>  <SCORE.INTRA.POLAR.0>
0

>  <SCORE.INTRA.REPUL>
0

>  <SCORE.INTRA.REPUL.0>
0

>  <SCORE.INTRA.SOLV>
-0.126936

>  <SCORE.INTRA.SOLV.lig_0>
-42.5944

>  <SCORE.INTRA.VDW>
-0.00624893

>  <SCORE.INTRA.VDW.0>
-1.067

>  <SCORE.INTRA.norm>
0.0696805

>  <SCORE.RESTR>
0

>  <SCORE.RESTR.CAVITY>
0

>  <SCORE.RESTR.norm>
0

>  <SCORE.SYSTEM>
0

>  <SCORE.SYSTEM.CONST>
0

>  <SCORE.SYSTEM.DIHEDRAL>
0

>  <SCORE.SYSTEM.SOLV>
0

>  <SCORE.SYSTEM.norm>
0

>  <SCORE.heavy>
16

>  <SCORE.norm>
-1.65524

>  <RMSD>
1.779

$$$$
1f27 biotin aptamer (Xray 1.3A)
 OpenBabel11021811393D
libRbt.so/2013.1/901 2013/11/27
 16 17  0  0  0  0  0  0  0  0999 V2000
   20.8919   -0.3626   14.2408 C   0  0  0  0  0  0  0  0  0  0  0  0
   20.5176   -0.9376   13.2237 O   0  5  0  0  0  0  0  0  0  0  0  0
   21.1110   -1.0093   15.2637 O   0  0  0  0  0  0  0  0  0  0  0  0
   21.1509    1.1384   14.2192 C   0  0  0  0  0  0  0  0  0  0  0  0
   19.8666    1.9962   14.1756 C   0  0  0  0  0  0  0  0  0  0  0  0
   19.1726    1.8982   12.8296 C   0  0  0  0  0  0  0  0  0  0  0  0
   17.9195    2.7432   12.7327 C   0  0  0  0  0  0  0  0  0  0  0  0
   16.7386    2.2423   13.5747 C   0  0  2  0  0  0  0  0  0  0  0  0
   16.0399    0.5250   13.0969 S   0  0  0  0  0  0  0  0  0  0  0  0
   14.5271    0.9620   14.1765 C   0  0  0  0  0  0  0  0  0  0  0  0
   14.3186    2.4918   13.9777 C   0  0  2  0  0  0  0  0  0  0  0  0
   13.3461    2.6288   12.7757 N   0  0  0  0  0  0  0  0  0  0  0  0
   13.8338    3.2780   11.8094 C   0  0  0  0  0  0  0  0  0  0  0  0
   13.3938    3.4471   10.6171 O   0  0  0  0  0  0  0  0  0  0  0  0
   15.2315    3.6043   11.9759 N   0  0  0  0  0  0  0  0  0  0  0  0
   15.5452    3.1865   13.4123 C   0  0  2  0  0  0  0  0  0  0  0  0
  1  2  1  0  0  0  0
  1  3  2  0  0  0  0
  1  4  1  0  0  0  0
  4  5  1  0  0  0  0
  5  6  1  0  0  0  0
  6  7  1  0  0  0  0
  8  7  1  6  0  0  0
  8  9  1  0  0  0  0
  8 16  1  0  0  0  0
  9 10  1  0  0  0  0
 11 10  1  6  0  0  0
 11 12  1  0  0  0  0
 11 16  1  0  0  0  0
 12 13  1  0  0  0  0
 13 14  2  0  0  0  0
 13 15  1  0  0  0  0
 16 15  1  6  0  0  0
M  CHG  1   2  -1
M  END
>  <CHROM.1>
73.79292377,-70.84033142,-178.99660850,-70.25985541,-63.38933442,17.04247993
1.62400346,13.22789100,0.46872034,0.04096236,2.63387157

>  <Name>
1f27 biotin aptamer (Xray 1.3A)

>  <RI>
0

>  <Rbt.Current_Directory>
/home/itssahil/PROJECTS/Mol_Feturizer/New_Systems/rnas/1f27

>  <Rbt.Executable>
rbdock ($Id: //depot/dev/client3/rdock/2013.1/src/exe/rbdock.cxx#4 $)

>  <Rbt.Library>
libRbt.so (2013.1, Build901 2013/11/27)

>  <Rbt.Parameter_File>
/export/apps/rDock/src/rDock_2013.1_src/data/scripts/dock_solv.prm

>  <Rbt.Receptor>
prm/pocket_docking_8.prm

>  <SCORE>
-27.1574

>  <SCORE.INTER>
-24.8913

>  <SCORE.INTER.CONST>
1

>  <SCORE.INTER.POLAR>
-0.839368

>  <SCORE.INTER.ROT>
5

>  <SCORE.INTER.SOLV>
7.49211

>  <SCORE.INTER.VDW>
-23.227

>  <SCORE.INTER.norm>
-1.55571

>  <SCORE.INTRA>
-2.26604

>  <SCORE.INTRA.DIHEDRAL>
-4.54352

>  <SCORE.INTRA.DIHEDRAL.0>
6.87082

>  <SCORE.INTRA.POLAR>
0

>  <SCORE.INTRA.POLAR.0>
0

>  <SCORE.INTRA.REPUL>
0

>  <SCORE.INTRA.REPUL.0>
0

>  <SCORE.INTRA.SOLV>
0.128325

>  <SCORE.INTRA.SOLV.lig_0>
-42.5944

>  <SCORE.INTRA.VDW>
-0.0584417

>  <SCORE.INTRA.VDW.0>
-1.067

>  <SCORE.INTRA.norm>
-0.141627

>  <SCORE.RESTR>
0

>  <SCORE.RESTR.CAVITY>
0

>  <SCORE.RESTR.norm>
0

>  <SCORE.SYSTEM>
0

>  <SCORE.SYSTEM.CONST>
0

>  <SCORE.SYSTEM.DIHEDRAL>
0

>  <SCORE.SYSTEM.SOLV>
0

>  <SCORE.SYSTEM.norm>
0

>  <SCORE.heavy>
16

>  <SCORE.norm>
-1.69734

>  <RMSD>
1.781

$$$$
1f27 biotin aptamer (Xray 1.3A)
 OpenBabel11021811393D
libRbt.so/2013.1/901 2013/11/27
 16 17  0  0  0  0  0  0  0  0999 V2000
   21.0174   -0.3040   13.2258 C   0  0  0  0  0  0  0  0  0  0  0  0
   20.1419   -1.1454   13.4021 O   0  5  0  0  0  0  0  0  0  0  0  0
   21.8087   -0.4309   12.2929 O   0  0  0  0  0  0  0  0  0  0  0  0
   21.0826    0.9297   14.1170 C   0  0  0  0  0  0  0  0  0  0  0  0
   19.9798    1.9722   13.8271 C   0  0  0  0  0  0  0  0  0  0  0  0
   18.6044    1.4522   14.2027 C   0  0  0  0  0  0  0  0  0  0  0  0
   17.4865    2.4292   13.9039 C   0  0  0  0  0  0  0  0  0  0  0  0
   16.0885    1.9556   14.3230 C   0  0  2  0  0  0  0  0  0  0  0  0
   15.4434    0.3783   13.4502 S   0  0  0  0  0  0  0  0  0  0  0  0
   13.7206    0.8384   14.1321 C   0  0  0  0  0  0  0  0  0  0  0  0
   13.6729    2.3937   14.0907 C   0  0  2  0  0  0  0  0  0  0  0  0
   13.0847    2.7576   12.7012 N   0  0  0  0  0  0  0  0  0  0  0  0
   13.8624    3.4593   11.9971 C   0  0  0  0  0  0  0  0  0  0  0  0
   13.7838    3.8018   10.7641 O   0  0  0  0  0  0  0  0  0  0  0  0
   15.1760    3.6271   12.5750 N   0  0  0  0  0  0  0  0  0  0  0  0
   15.0499    3.0239   13.9736 C   0  0  2  0  0  0  0  0  0  0  0  0
  1  2  1  0  0  0  0
  1  3  2  0  0  0  0
  1  4  1  0  0  0  0
  4  5  1  0  0  0  0
  5  6  1  0  0  0  0
  6  7  1  0  0  0  0
  8  7  1  6  0  0  0
  8  9  1  0  0  0  0
  8 16  1  0  0  0  0
  9 10  1  0  0  0  0
 11 10  1  6  0  0  0
 11 12  1  0  0  0  0
 11 16  1  0  0  0  0
 12 13  1  0  0  0  0
 13 14  2  0  0  0  0
 13 15  1  0  0  0  0
 16 15  1  6  0  0  0
M  CHG  1   2  -1
M  END
>  <CHROM.1>
-73.57551963,67.75236044,-178.58444379,-177.70890236,-62.57875453,16.80219193
1.58041618,13.28596087,0.35851992,-0.09987786,2.65879697

>  <Name>
1f27 biotin aptamer (Xray 1.3A)

>  <RI>
0

>  <Rbt.Current_Directory>
/home/itssahil/PROJECTS/Mol_Feturizer/New_Systems/rnas/1f27

>  <Rbt.Executable>
rbdock ($Id: //depot/dev/client3/rdock/2013.1/src/exe/rbdock.cxx#4 $)

>  <Rbt.Library>
libRbt.so (2013.1, Build901 2013/11/27)

>  <Rbt.Parameter_File>
/export/apps/rDock/src/rDock_2013.1_src/data/scripts/dock_solv.prm

>  <Rbt.Receptor>
prm/blind_docking_40.prm

>  <SCORE>
-32.1322

>  <SCORE.INTER>
-29.636

>  <SCORE.INTER.CONST>
1

>  <SCORE.INTER.POLAR>
-1.75631

>  <SCORE.INTER.ROT>
5

>  <SCORE.INTER.SOLV>
11.964

>  <SCORE.INTER.VDW>
-24.8243

>  <SCORE.INTER.norm>
-1.85225

>  <SCORE.INTRA>
-2.5064

>  <SCORE.INTRA.DIHEDRAL>
-5.30858

>  <SCORE.INTRA.DIHEDRAL.0>
6.87082

>  <SCORE.INTRA.POLAR>
0

>  <SCORE.INTRA.POLAR.0>
0

>  <SCORE.INTRA.REPUL>
0

>  <SCORE.INTRA.REPUL.0>
0

>  <SCORE.INTRA.SOLV>
0.202945

>  <SCORE.INTRA.SOLV.lig_0>
-42.5944

>  <SCORE.INTRA.VDW>
0.0464154

>  <SCORE.INTRA.VDW.0>
-1.067

>  <SCORE.INTRA.norm>
-0.15665

>  <SCORE.RESTR>
0.0101596

>  <SCORE.RESTR.CAVITY>
0.0101596

>  <SCORE.RESTR.norm>
0.000634978

>  <SCORE.SYSTEM>
0

>  <SCORE.SYSTEM.CONST>
0

>  <SCORE.SYSTEM.DIHEDRAL>
0

>  <SCORE.SYSTEM.SOLV>
0

>  <SCORE.SYSTEM.norm>
0

>  <SCORE.heavy>
16

>  <SCORE.norm>
-2.00826

>  <RMSD>
1.784

$$$$
1f27 biotin aptamer (Xray 1.3A)
 OpenBabel11021811393D
libRbt.so/2013.1/901 2013/11/27
 16 17  0  0  0  0  0  0  0  0999 V2000
   21.0734   -0.6347   12.9254 C   0  0  0  0  0  0  0  0  0  0  0  0
   20.6987   -1.2653   11.9420 O   0  5  0  0  0  0  0  0  0  0  0  0
   22.0014   -1.0628   13.6095 O   0  0  0  0  0  0  0  0  0  0  0  0
   20.4378    0.7087   13.2600 C   0  0  0  0  0  0  0  0  0  0  0  0
   18.9176    0.7680   12.9910 C   0  0  0  0  0  0  0  0  0  0  0  0
   18.1465   -0.1424   13.9288 C   0  0  0  0  0  0  0  0  0  0  0  0
   16.6640   -0.2064   13.6259 C   0  0  0  0  0  0  0  0  0  0  0  0
   15.8379    0.9486   14.2070 C   0  0  2  0  0  0  0  0  0  0  0  0
   13.9486    0.8575   13.9103 S   0  0  0  0  0  0  0  0  0  0  0  0
   13.8874    2.6899   14.4427 C   0  0  0  0  0  0  0  0  0  0  0  0
   15.2061    3.3122   13.8977 C   0  0  2  0  0  0  0  0  0  0  0  0
   14.8646    3.8404   12.4787 N   0  0  0  0  0  0  0  0  0  0  0  0
   15.5593    3.3111   11.5675 C   0  0  0  0  0  0  0  0  0  0  0  0
   15.4458    3.3790   10.2922 O   0  0  0  0  0  0  0  0  0  0  0  0
   16.3945    2.2268   12.0302 N   0  0  0  0  0  0  0  0  0  0  0  0
   16.2531    2.2676   13.5515 C   0  0  2  0  0  0  0  0  0  0  0  0
  1  2  1  0  0  0  0
  1  3  2  0  0  0  0
  1  4  1  0  0  0  0
  4  5  1  0  0  0  0
  5  6  1  0  0  0  0
  6  7  1  0  0  0  0
  8  7  1  6  0  0  0
  8  9  1  0  0  0  0
  8 16  1  0  0  0  0
  9 10  1  0  0  0  0
 11 10  1  6  0  0  0
 11 12  1  0  0  0  0
 11 16  1  0  0  0  0
 12 13  1  0  0  0  0
 13 14  2  0  0  0  0
 13 15  1  0  0  0  0
 16 15  1  6  0  0  0
M  CHG  1   2  -1
M  END
>  <CHROM.1>
37.83734964,67.03282588,-175.13008098,-82.30456304,-177.34919837,17.00566888
1.25861845,13.07212293,-0.32780520,0.35119090,-0.78550645

>  <Name>
1f27 biotin aptamer (Xray 1.3A)

>  <RI>
0

>  <Rbt.Current_Directory>
/home/itssahil/PROJECTS/Mol_Feturizer/New_Systems/rnas/1f27

>  <Rbt.Executable>
rbdock ($Id: //depot/dev/client3/rdock/2013.1/src/exe/rbdock.cxx#4 $)

>  <Rbt.Library>
libRbt.so (2013.1, Build901 2013/11/27)

>  <Rbt.Parameter_File>
/export/apps/rDock/src/rDock_2013.1_src/data/scripts/dock_solv.prm

>  <Rbt.Receptor>
prm/pocket_docking_2.prm

>  <SCORE>
-25.4656

>  <SCORE.INTER>
-24.8015

>  <SCORE.INTER.CONST>
1

>  <SCORE.INTER.POLAR>
-1.21622

>  <SCORE.INTER.ROT>
5

>  <SCORE.INTER.SOLV>
13.7538

>  <SCORE.INTER.VDW>
-23.9982

>  <SCORE.INTER.norm>
-1.55009

>  <SCORE.INTRA>
-0.709543

>  <SCORE.INTRA.DIHEDRAL>
-3.43526

>  <SCORE.INTRA.DIHEDRAL.0>
6.87082

>  <SCORE.INTRA.POLAR>
0

>  <SCORE.INTRA.POLAR.0>
0

>  <SCORE.INTRA.REPUL>
0

>  <SCORE.INTRA.REPUL.0>
0

>  <SCORE.INTRA.SOLV>
0.67228

>  <SCORE.INTRA.SOLV.lig_0>
-42.5944

>  <SCORE.INTRA.VDW>
0.671949

>  <SCORE.INTRA.VDW.0>
-1.067

>  <SCORE.INTRA.norm>
-0.0443464

>  <SCORE.RESTR>
0.0454438

>  <SCORE.RESTR.CAVITY>
0.0454438

>  <SCORE.RESTR.norm>
0.00284024

>  <SCORE.SYSTEM>
0

>  <SCORE.SYSTEM.CONST>
0

>  <SCORE.SYSTEM.DIHEDRAL>
0

>  <SCORE.SYSTEM.SOLV>
0

>  <SCORE.SYSTEM.norm>
0

>  <SCORE.heavy>
16

>  <SCORE.norm>
-1.5916

>  <RMSD>
1.784

$$$$
1f27 biotin aptamer (Xray 1.3A)
 OpenBabel11021811393D
libRbt.so/2013.1/901 2013/11/27
 16 17  0  0  0  0  0  0  0  0999 V2000
   20.7383   -0.0615   13.4604 C   0  0  0  0  0  0  0  0  0  0  0  0
   20.7814   -0.8126   14.4296 O   0  5  0  0  0  0  0  0  0  0  0  0
   20.7964   -0.5263   12.3233 O   0  0  0  0  0  0  0  0  0  0  0  0
   20.5443    1.4359   13.6617 C   0  0  0  0  0  0  0  0  0  0  0  0
   19.6179    2.0949   12.6155 C   0  0  0  0  0  0  0  0  0  0  0  0
   18.1774    1.6476   12.7816 C   0  0  0  0  0  0  0  0  0  0  0  0
   17.5495    2.1022   14.0827 C   0  0  0  0  0  0  0  0  0  0  0  0
   16.0534    1.7899   14.2191 C   0  0  2  0  0  0  0  0  0  0  0  0
   15.4917    0.0832   13.5578 S   0  0  0  0  0  0  0  0  0  0  0  0
   13.7066    0.7518   13.6652 C   0  0  0  0  0  0  0  0  0  0  0  0
   13.8175    2.2587   13.2906 C   0  0  2  0  0  0  0  0  0  0  0  0
   13.6185    2.3234   11.7526 N   0  0  0  0  0  0  0  0  0  0  0  0
   14.6058    2.8177   11.1410 C   0  0  0  0  0  0  0  0  0  0  0  0
   14.8592    2.8770    9.8856 O   0  0  0  0  0  0  0  0  0  0  0  0
   15.7511    3.0598   11.9878 N   0  0  0  0  0  0  0  0  0  0  0  0
   15.2353    2.7920   13.4014 C   0  0  2  0  0  0  0  0  0  0  0  0
  1  2  1  0  0  0  0
  1  3  2  0  0  0  0
  1  4  1  0  0  0  0
  4  5  1  0  0  0  0
  5  6  1  0  0  0  0
  6  7  1  0  0  0  0
  8  7  1  6  0  0  0
  8  9  1  0  0  0  0
  8 16  1  0  0  0  0
  9 10  1  0  0  0  0
 11 10  1  6  0  0  0
 11 12  1  0  0  0  0
 11 16  1  0  0  0  0
 12 13  1  0  0  0  0
 13 14  2  0  0  0  0
 13 15  1  0  0  0  0
 16 15  1  6  0  0  0
M  CHG  1   2  -1
M  END
>  <CHROM.1>
-140.89005835,68.99110617,65.56164185,174.06535152,39.96235044,16.88907811
1.40926592,12.91274407,-0.34114469,0.10861904,-0.85441245

>  <Name>
1f27 biotin aptamer (Xray 1.3A)

>  <RI>
0

>  <Rbt.Current_Directory>
/home/itssahil/PROJECTS/Mol_Feturizer/New_Systems/rnas/1f27

>  <Rbt.Executable>
rbdock ($Id: //depot/dev/client3/rdock/2013.1/src/exe/rbdock.cxx#4 $)

>  <Rbt.Library>
libRbt.so (2013.1, Build901 2013/11/27)

>  <Rbt.Parameter_File>
/export/apps/rDock/src/rDock_2013.1_src/data/scripts/dock_solv.prm

>  <Rbt.Receptor>
prm/blind_docking_60.prm

>  <SCORE>
-31.0502

>  <SCORE.INTER>
-31.0485

>  <SCORE.INTER.CONST>
1

>  <SCORE.INTER.POLAR>
-1.8334

>  <SCORE.INTER.ROT>
5

>  <SCORE.INTER.SOLV>
11.1481

>  <SCORE.INTER.VDW>
-25.2371

>  <SCORE.INTER.norm>
-1.94053

>  <SCORE.INTRA>
-0.00167326

>  <SCORE.INTRA.DIHEDRAL>
-3.39384

>  <SCORE.INTRA.DIHEDRAL.0>
6.87082

>  <SCORE.INTRA.POLAR>
0

>  <SCORE.INTRA.POLAR.0>
0

>  <SCORE.INTRA.REPUL>
0

>  <SCORE.INTRA.REPUL.0>
0

>  <SCORE.INTRA.SOLV>
0.905462

>  <SCORE.INTRA.SOLV.lig_0>
-42.5944

>  <SCORE.INTRA.VDW>
1.24251

>  <SCORE.INTRA.VDW.0>
-1.067

>  <SCORE.INTRA.norm>
-0.000104579

>  <SCORE.RESTR>
0

>  <SCORE.RESTR.CAVITY>
0

>  <SCORE.RESTR.norm>
0

>  <SCORE.SYSTEM>
0

>  <SCORE.SYSTEM.CONST>
0

>  <SCORE.SYSTEM.DIHEDRAL>
0

>  <SCORE.SYSTEM.SOLV>
0

>  <SCORE.SYSTEM.norm>
0

>  <SCORE.heavy>
16

>  <SCORE.norm>
-1.94064

>  <RMSD>
1.787

$$$$
1f27 biotin aptamer (Xray 1.3A)
 OpenBabel11021811393D
libRbt.so/2013.1/901 2013/11/27
 16 17  0  0  0  0  0  0  0  0999 V2000
   19.5681   -1.3626   14.1562 C   0  0  0  0  0  0  0  0  0  0  0  0
   18.4174   -1.3280   14.5805 O   0  5  0  0  0  0  0  0  0  0  0  0
   20.2990   -2.3081   14.4465 O   0  0  0  0  0  0  0  0  0  0  0  0
   20.0696   -0.2732   13.2169 C   0  0  0  0  0  0  0  0  0  0  0  0
   19.0246    0.8234   12.9131 C   0  0  0  0  0  0  0  0  0  0  0  0
   18.7641    1.7002   14.1240 C   0  0  0  0  0  0  0  0  0  0  0  0
   17.6667    2.7210   13.9063 C   0  0  0  0  0  0  0  0  0  0  0  0
   16.2428    2.1910   14.1209 C   0  0  2  0  0  0  0  0  0  0  0  0
   15.8692    0.4697   13.3706 S   0  0  0  0  0  0  0  0  0  0  0  0
   14.0236    0.8693   13.6517 C   0  0  0  0  0  0  0  0  0  0  0  0
   13.8976    2.3982   13.3875 C   0  0  2  0  0  0  0  0  0  0  0  0
   13.5709    2.5363   11.8764 N   0  0  0  0  0  0  0  0  0  0  0  0
   14.4299    3.2054   11.2381 C   0  0  0  0  0  0  0  0  0  0  0  0
   14.5731    3.3835    9.9765 O   0  0  0  0  0  0  0  0  0  0  0  0
   15.5947    3.5508   12.0202 N   0  0  0  0  0  0  0  0  0  0  0  0
   15.2335    3.1189   13.4411 C   0  0  2  0  0  0  0  0  0  0  0  0
  1  2  1  0  0  0  0
  1  3  2  0  0  0  0
  1  4  1  0  0  0  0
  4  5  1  0  0  0  0
  5  6  1  0  0  0  0
  6  7  1  0  0  0  0
  8  7  1  6  0  0  0
  8  9  1  0  0  0  0
  8 16  1  0  0  0  0
  9 10  1  0  0  0  0
 11 10  1  6  0  0  0
 11 12  1  0  0  0  0
 11 16  1  0  0  0  0
 12 13  1  0  0  0  0
 13 14  2  0  0  0  0
 13 15  1  0  0  0  0
 16 15  1  6  0  0  0
M  CHG  1   2  -1
M  END
>  <CHROM.1>
1.23026437,70.36483626,-175.45351956,83.36717969,-43.58303352,16.66415158
1.26110629,13.15237955,0.70725117,-0.03625913,2.59067237

>  <Name>
1f27 biotin aptamer (Xray 1.3A)

>  <RI>
0

>  <Rbt.Current_Directory>
/home/itssahil/PROJECTS/Mol_Feturizer/New_Systems/rnas/1f27

>  <Rbt.Executable>
rbdock ($Id: //depot/dev/client3/rdock/2013.1/src/exe/rbdock.cxx#4 $)

>  <Rbt.Library>
libRbt.so (2013.1, Build901 2013/11/27)

>  <Rbt.Parameter_File>
/export/apps/rDock/src/rDock_2013.1_src/data/scripts/dock_solv.prm

>  <Rbt.Receptor>
prm/pocket_docking_8.prm

>  <SCORE>
-27.6504

>  <SCORE.INTER>
-27.8257

>  <SCORE.INTER.CONST>
1

>  <SCORE.INTER.POLAR>
-1.72995

>  <SCORE.INTER.ROT>
5

>  <SCORE.INTER.SOLV>
8.7137

>  <SCORE.INTER.VDW>
-22.6219

>  <SCORE.INTER.norm>
-1.73911

>  <SCORE.INTRA>
0.175289

>  <SCORE.INTRA.DIHEDRAL>
-1.98073

>  <SCORE.INTRA.DIHEDRAL.0>
6.87082

>  <SCORE.INTRA.POLAR>
0

>  <SCORE.INTRA.POLAR.0>
0

>  <SCORE.INTRA.REPUL>
0

>  <SCORE.INTRA.REPUL.0>
0

>  <SCORE.INTRA.SOLV>
1.32979

>  <SCORE.INTRA.SOLV.lig_0>
-42.5944

>  <SCORE.INTRA.VDW>
0.500759

>  <SCORE.INTRA.VDW.0>
-1.067

>  <SCORE.INTRA.norm>
0.0109555

>  <SCORE.RESTR>
0

>  <SCORE.RESTR.CAVITY>
0

>  <SCORE.RESTR.norm>
0

>  <SCORE.SYSTEM>
0

>  <SCORE.SYSTEM.CONST>
0

>  <SCORE.SYSTEM.DIHEDRAL>
0

>  <SCORE.SYSTEM.SOLV>
0

>  <SCORE.SYSTEM.norm>
0

>  <SCORE.heavy>
16

>  <SCORE.norm>
-1.72815

>  <RMSD>
1.793

$$$$
1f27 biotin aptamer (Xray 1.3A)
 OpenBabel11021811393D
libRbt.so/2013.1/901 2013/11/27
 16 17  0  0  0  0  0  0  0  0999 V2000
   19.8610   -1.2193   14.4573 C   0  0  0  0  0  0  0  0  0  0  0  0
   18.8894   -1.9559   14.3210 O   0  5  0  0  0  0  0  0  0  0  0  0
   20.5811   -1.3336   15.4477 O   0  0  0  0  0  0  0  0  0  0  0  0
   20.2150   -0.2118   13.3709 C   0  0  0  0  0  0  0  0  0  0  0  0
   19.0738    0.7731   13.0325 C   0  0  0  0  0  0  0  0  0  0  0  0
   18.7997    1.7287   14.1790 C   0  0  0  0  0  0  0  0  0  0  0  0
   17.6922    2.7200   13.8882 C   0  0  0  0  0  0  0  0  0  0  0  0
   16.2724    2.1820   14.1095 C   0  0  2  0  0  0  0  0  0  0  0  0
   15.9085    0.4534   13.3711 S   0  0  0  0  0  0  0  0  0  0  0  0
   14.0610    0.8427   13.6538 C   0  0  0  0  0  0  0  0  0  0  0  0
   13.9242    2.3689   13.3800 C   0  0  2  0  0  0  0  0  0  0  0  0
   13.5932    2.4950   11.8688 N   0  0  0  0  0  0  0  0  0  0  0  0
   14.4464    3.1656   11.2242 C   0  0  0  0  0  0  0  0  0  0  0  0
   14.5855    3.3364    9.9612 O   0  0  0  0  0  0  0  0  0  0  0  0
   15.6106    3.5238   12.0014 N   0  0  0  0  0  0  0  0  0  0  0  0
   15.2554    3.0988   13.4259 C   0  0  2  0  0  0  0  0  0  0  0  0
  1  2  1  0  0  0  0
  1  3  2  0  0  0  0
  1  4  1  0  0  0  0
  4  5  1  0  0  0  0
  5  6  1  0  0  0  0
  6  7  1  0  0  0  0
  8  7  1  6  0  0  0
  8  9  1  0  0  0  0
  8 16  1  0  0  0  0
  9 10  1  0  0  0  0
 11 10  1  6  0  0  0
 11 12  1  0  0  0  0
 11 16  1  0  0  0  0
 12 13  1  0  0  0  0
 13 14  2  0  0  0  0
 13 15  1  0  0  0  0
 16 15  1  6  0  0  0
M  CHG  1   2  -1
M  END
>  <CHROM.1>
57.00870248,68.27739954,179.64310678,82.25350322,-46.59151276,16.75845190
1.27708362,13.22894517,0.68523441,0.04043715,2.58628498

>  <Name>
1f27 biotin aptamer (Xray 1.3A)

>  <RI>
0

>  <Rbt.Current_Directory>
/home/itssahil/PROJECTS/Mol_Feturizer/New_Systems/rnas/1f27

>  <Rbt.Executable>
rbdock ($Id: //depot/dev/client3/rdock/2013.1/src/exe/rbdock.cxx#4 $)

>  <Rbt.Library>
libRbt.so (2013.1, Build901 2013/11/27)

>  <Rbt.Parameter_File>
/export/apps/rDock/src/rDock_2013.1_src/data/scripts/dock_solv.prm

>  <Rbt.Receptor>
prm/pocket_docking_6.prm

>  <SCORE>
-28.5863

>  <SCORE.INTER>
-27.5743

>  <SCORE.INTER.CONST>
1

>  <SCORE.INTER.POLAR>
-1.73705

>  <SCORE.INTER.ROT>
5

>  <SCORE.INTER.SOLV>
8.48944

>  <SCORE.INTER.VDW>
-22.3558

>  <SCORE.INTER.norm>
-1.72339

>  <SCORE.INTRA>
-1.01203

>  <SCORE.INTRA.DIHEDRAL>
-2.72256

>  <SCORE.INTRA.DIHEDRAL.0>
6.87082

>  <SCORE.INTRA.POLAR>
0

>  <SCORE.INTRA.POLAR.0>
0

>  <SCORE.INTRA.REPUL>
0

>  <SCORE.INTRA.REPUL.0>
0

>  <SCORE.INTRA.SOLV>
0.53143

>  <SCORE.INTRA.SOLV.lig_0>
-42.5944

>  <SCORE.INTRA.VDW>
0.0835354

>  <SCORE.INTRA.VDW.0>
-1.067

>  <SCORE.INTRA.norm>
-0.0632517

>  <SCORE.RESTR>
0

>  <SCORE.RESTR.CAVITY>
0

>  <SCORE.RESTR.norm>
0

>  <SCORE.SYSTEM>
0

>  <SCORE.SYSTEM.CONST>
0

>  <SCORE.SYSTEM.DIHEDRAL>
0

>  <SCORE.SYSTEM.SOLV>
0

>  <SCORE.SYSTEM.norm>
0

>  <SCORE.heavy>
16

>  <SCORE.norm>
-1.78665

>  <RMSD>
1.794

$$$$
1f27 biotin aptamer (Xray 1.3A)
 OpenBabel11021811393D
libRbt.so/2013.1/901 2013/11/27
 16 17  0  0  0  0  0  0  0  0999 V2000
   20.2815   -0.3800   13.3027 C   0  0  0  0  0  0  0  0  0  0  0  0
   19.5848   -1.2789   13.7631 O   0  5  0  0  0  0  0  0  0  0  0  0
   20.6690   -0.4422   12.1372 O   0  0  0  0  0  0  0  0  0  0  0  0
   20.6093    0.8431   14.1496 C   0  0  0  0  0  0  0  0  0  0  0  0
   19.9389    2.1451   13.6574 C   0  0  0  0  0  0  0  0  0  0  0  0
   18.5266    2.2861   14.1946 C   0  0  0  0  0  0  0  0  0  0  0  0
   17.5667    1.2486   13.6510 C   0  0  0  0  0  0  0  0  0  0  0  0
   16.1043    1.4402   14.0742 C   0  0  2  0  0  0  0  0  0  0  0  0
   14.9416   -0.0487   13.7629 S   0  0  0  0  0  0  0  0  0  0  0  0
   13.4942    1.1588   14.0663 C   0  0  0  0  0  0  0  0  0  0  0  0
   13.9692    2.5155   13.4689 C   0  0  2  0  0  0  0  0  0  0  0  0
   13.4946    2.5111   11.9911 N   0  0  0  0  0  0  0  0  0  0  0  0
   14.4406    2.6133   11.1617 C   0  0  0  0  0  0  0  0  0  0  0  0
   14.4435    2.4837    9.8862 O   0  0  0  0  0  0  0  0  0  0  0  0
   15.7515    2.5490   11.7659 N   0  0  0  0  0  0  0  0  0  0  0  0
   15.4735    2.5781   13.2685 C   0  0  2  0  0  0  0  0  0  0  0  0
  1  2  1  0  0  0  0
  1  3  2  0  0  0  0
  1  4  1  0  0  0  0
  4  5  1  0  0  0  0
  5  6  1  0  0  0  0
  6  7  1  0  0  0  0
  8  7  1  6  0  0  0
  8  9  1  0  0  0  0
  8 16  1  0  0  0  0
  9 10  1  0  0  0  0
 11 10  1  6  0  0  0
 11 12  1  0  0  0  0
 11 16  1  0  0  0  0
 12 13  1  0  0  0  0
 13 14  2  0  0  0  0
 13 15  1  0  0  0  0
 16 15  1  6  0  0  0
M  CHG  1   2  -1
M  END
>  <CHROM.1>
-111.27178459,84.67487468,-66.82526424,-174.68869684,-166.15025224,16.71782487
1.25820972,13.04066480,-0.32813423,0.11434387,-0.88721855

>  <Name>
1f27 biotin aptamer (Xray 1.3A)

>  <RI>
0

>  <Rbt.Current_Directory>
/home/itssahil/PROJECTS/Mol_Feturizer/New_Systems/rnas/1f27

>  <Rbt.Executable>
rbdock ($Id: //depot/dev/client3/rdock/2013.1/src/exe/rbdock.cxx#4 $)

>  <Rbt.Library>
libRbt.so (2013.1, Build901 2013/11/27)

>  <Rbt.Parameter_File>
/export/apps/rDock/src/rDock_2013.1_src/data/scripts/dock_solv.prm

>  <Rbt.Receptor>
prm/pocket_docking_4.prm

>  <SCORE>
-26.0037

>  <SCORE.INTER>
-25.68

>  <SCORE.INTER.CONST>
1

>  <SCORE.INTER.POLAR>
-1.54074

>  <SCORE.INTER.ROT>
5

>  <SCORE.INTER.SOLV>
11.9936

>  <SCORE.INTER.VDW>
-22.9154

>  <SCORE.INTER.norm>
-1.605

>  <SCORE.INTRA>
-0.323701

>  <SCORE.INTRA.DIHEDRAL>
-2.53621

>  <SCORE.INTRA.DIHEDRAL.0>
6.87082

>  <SCORE.INTRA.POLAR>
0

>  <SCORE.INTRA.POLAR.0>
0

>  <SCORE.INTRA.REPUL>
0

>  <SCORE.INTRA.REPUL.0>
0

>  <SCORE.INTRA.SOLV>
1.22765

>  <SCORE.INTRA.SOLV.lig_0>
-42.5944

>  <SCORE.INTRA.VDW>
0.33058

>  <SCORE.INTRA.VDW.0>
-1.067

>  <SCORE.INTRA.norm>
-0.0202313

>  <SCORE.RESTR>
0

>  <SCORE.RESTR.CAVITY>
0

>  <SCORE.RESTR.norm>
0

>  <SCORE.SYSTEM>
0

>  <SCORE.SYSTEM.CONST>
0

>  <SCORE.SYSTEM.DIHEDRAL>
0

>  <SCORE.SYSTEM.SOLV>
0

>  <SCORE.SYSTEM.norm>
0

>  <SCORE.heavy>
16

>  <SCORE.norm>
-1.62523

>  <RMSD>
1.797

$$$$
1f27 biotin aptamer (Xray 1.3A)
 OpenBabel11021811393D
libRbt.so/2013.1/901 2013/11/27
 16 17  0  0  0  0  0  0  0  0999 V2000
   20.3734   -0.6585   12.6568 C   0  0  0  0  0  0  0  0  0  0  0  0
   20.7622   -1.3015   11.6869 O   0  5  0  0  0  0  0  0  0  0  0  0
   19.8880   -1.2433   13.6237 O   0  0  0  0  0  0  0  0  0  0  0  0
   20.5533    0.8537   12.6935 C   0  0  0  0  0  0  0  0  0  0  0  0
   19.7051    1.5605   13.7743 C   0  0  0  0  0  0  0  0  0  0  0  0
   18.2193    1.3569   13.5425 C   0  0  0  0  0  0  0  0  0  0  0  0
   17.3495    2.3422   14.2949 C   0  0  0  0  0  0  0  0  0  0  0  0
   15.8592    1.9802   14.3418 C   0  0  2  0  0  0  0  0  0  0  0  0
   15.4066    0.2205   13.7383 S   0  0  0  0  0  0  0  0  0  0  0  0
   13.5964    0.8246   13.6812 C   0  0  0  0  0  0  0  0  0  0  0  0
   13.6821    2.3127   13.2322 C   0  0  2  0  0  0  0  0  0  0  0  0
   13.5939    2.2881   11.6827 N   0  0  0  0  0  0  0  0  0  0  0  0
   14.6055    2.7870   11.1163 C   0  0  0  0  0  0  0  0  0  0  0  0
   14.9478    2.7893    9.8807 O   0  0  0  0  0  0  0  0  0  0  0  0
   15.6769    3.1175   12.0275 N   0  0  0  0  0  0  0  0  0  0  0  0
   15.0688    2.9053   13.4136 C   0  0  2  0  0  0  0  0  0  0  0  0
  1  2  1  0  0  0  0
  1  3  2  0  0  0  0
  1  4  1  0  0  0  0
  4  5  1  0  0  0  0
  5  6  1  0  0  0  0
  6  7  1  0  0  0  0
  8  7  1  6  0  0  0
  8  9  1  0  0  0  0
  8 16  1  0  0  0  0
  9 10  1  0  0  0  0
 11 10  1  6  0  0  0
 11 12  1  0  0  0  0
 11 16  1  0  0  0  0
 12 13  1  0  0  0  0
 13 14  2  0  0  0  0
 13 15  1  0  0  0  0
 16 15  1  6  0  0  0
M  CHG  1   2  -1
M  END
>  <CHROM.1>
164.83815398,-61.70434479,-162.59791546,-166.87063378,10.80450804,16.76233955
1.26854826,12.87073079,-0.26079434,0.32016990,-1.08282627

>  <Name>
1f27 biotin aptamer (Xray 1.3A)

>  <RI>
0

>  <Rbt.Current_Directory>
/home/itssahil/PROJECTS/Mol_Feturizer/New_Systems/rnas/1f27

>  <Rbt.Executable>
rbdock ($Id: //depot/dev/client3/rdock/2013.1/src/exe/rbdock.cxx#4 $)

>  <Rbt.Library>
libRbt.so (2013.1, Build901 2013/11/27)

>  <Rbt.Parameter_File>
/export/apps/rDock/src/rDock_2013.1_src/data/scripts/dock_solv.prm

>  <Rbt.Receptor>
prm/blind_docking_40.prm

>  <SCORE>
-26.4872

>  <SCORE.INTER>
-28.7478

>  <SCORE.INTER.CONST>
1

>  <SCORE.INTER.POLAR>
-1.8649

>  <SCORE.INTER.ROT>
5

>  <SCORE.INTER.SOLV>
12.5097

>  <SCORE.INTER.VDW>
-24.0521

>  <SCORE.INTER.norm>
-1.79674

>  <SCORE.INTRA>
2.25111

>  <SCORE.INTRA.DIHEDRAL>
1.68126

>  <SCORE.INTRA.DIHEDRAL.0>
6.87082

>  <SCORE.INTRA.POLAR>
0

>  <SCORE.INTRA.POLAR.0>
0

>  <SCORE.INTRA.REPUL>
0

>  <SCORE.INTRA.REPUL.0>
0

>  <SCORE.INTRA.SOLV>
0.523312

>  <SCORE.INTRA.SOLV.lig_0>
-42.5944

>  <SCORE.INTRA.VDW>
1.14882

>  <SCORE.INTRA.VDW.0>
-1.067

>  <SCORE.INTRA.norm>
0.140694

>  <SCORE.RESTR>
0.00945614

>  <SCORE.RESTR.CAVITY>
0.00945614

>  <SCORE.RESTR.norm>
0.000591009

>  <SCORE.SYSTEM>
0

>  <SCORE.SYSTEM.CONST>
0

>  <SCORE.SYSTEM.DIHEDRAL>
0

>  <SCORE.SYSTEM.SOLV>
0

>  <SCORE.SYSTEM.norm>
0

>  <SCORE.heavy>
16

>  <SCORE.norm>
-1.65545

>  <RMSD>
1.798

$$$$
1f27 biotin aptamer (Xray 1.3A)
 OpenBabel11021811393D
libRbt.so/2013.1/901 2013/11/27
 16 17  0  0  0  0  0  0  0  0999 V2000
   21.2624   -0.2372   13.3714 C   0  0  0  0  0  0  0  0  0  0  0  0
   21.8966   -0.2990   12.3229 O   0  5  0  0  0  0  0  0  0  0  0  0
   21.8573   -0.0995   14.4390 O   0  0  0  0  0  0  0  0  0  0  0  0
   19.7395   -0.2619   13.3463 C   0  0  0  0  0  0  0  0  0  0  0  0
   19.1091    0.8220   12.4437 C   0  0  0  0  0  0  0  0  0  0  0  0
   17.6134    0.9404   12.6712 C   0  0  0  0  0  0  0  0  0  0  0  0
   17.2513    1.5012   14.0306 C   0  0  0  0  0  0  0  0  0  0  0  0
   15.7515    1.7394   14.2500 C   0  0  2  0  0  0  0  0  0  0  0  0
   14.5888    0.3286   13.6813 S   0  0  0  0  0  0  0  0  0  0  0  0
   13.1617    1.5858   13.8485 C   0  0  0  0  0  0  0  0  0  0  0  0
   13.7728    2.9495   13.4124 C   0  0  2  0  0  0  0  0  0  0  0  0
   13.5204    3.0517   11.8844 N   0  0  0  0  0  0  0  0  0  0  0  0
   14.5811    3.1546   11.2080 C   0  0  0  0  0  0  0  0  0  0  0  0
   14.7659    3.0974    9.9406 O   0  0  0  0  0  0  0  0  0  0  0  0
   15.7856    2.9927   11.9894 N   0  0  0  0  0  0  0  0  0  0  0  0
   15.2915    2.9503   13.4352 C   0  0  2  0  0  0  0  0  0  0  0  0
  1  2  1  0  0  0  0
  1  3  2  0  0  0  0
  1  4  1  0  0  0  0
  4  5  1  0  0  0  0
  5  6  1  0  0  0  0
  6  7  1  0  0  0  0
  8  7  1  6  0  0  0
  8  9  1  0  0  0  0
  8 16  1  0  0  0  0
  9 10  1  0  0  0  0
 11 10  1  6  0  0  0
 11 12  1  0  0  0  0
 11 16  1  0  0  0  0
 12 13  1  0  0  0  0
 13 14  2  0  0  0  0
 13 15  1  0  0  0  0
 16 15  1  6  0  0  0
M  CHG  1   2  -1
M  END
>  <CHROM.1>
-54.68725102,-168.31696615,68.33853774,175.31302658,44.98829269,16.75510736
1.41076865,12.92346284,-0.27800926,0.23895798,-1.00500163

>  <Name>
1f27 biotin aptamer (Xray 1.3A)

>  <RI>
0

>  <Rbt.Current_Directory>
/home/itssahil/PROJECTS/Mol_Feturizer/New_Systems/rnas/1f27

>  <Rbt.Executable>
rbdock ($Id: //depot/dev/client3/rdock/2013.1/src/exe/rbdock.cxx#4 $)

>  <Rbt.Library>
libRbt.so (2013.1, Build901 2013/11/27)

>  <Rbt.Parameter_File>
/export/apps/rDock/src/rDock_2013.1_src/data/scripts/dock_solv.prm

>  <Rbt.Receptor>
prm/blind_docking_60.prm

>  <SCORE>
-28.9668

>  <SCORE.INTER>
-28.487

>  <SCORE.INTER.CONST>
1

>  <SCORE.INTER.POLAR>
-2.22801

>  <SCORE.INTER.ROT>
5

>  <SCORE.INTER.SOLV>
13.3178

>  <SCORE.INTER.VDW>
-22.9372

>  <SCORE.INTER.norm>
-1.78044

>  <SCORE.INTRA>
-0.479817

>  <SCORE.INTRA.DIHEDRAL>
-3.77767

>  <SCORE.INTRA.DIHEDRAL.0>
6.87082

>  <SCORE.INTRA.POLAR>
0

>  <SCORE.INTRA.POLAR.0>
0

>  <SCORE.INTRA.REPUL>
0

>  <SCORE.INTRA.REPUL.0>
0

>  <SCORE.INTRA.SOLV>
-0.24558

>  <SCORE.INTRA.SOLV.lig_0>
-42.5944

>  <SCORE.INTRA.VDW>
1.53181

>  <SCORE.INTRA.VDW.0>
-1.067

>  <SCORE.INTRA.norm>
-0.0299886

>  <SCORE.RESTR>
0

>  <SCORE.RESTR.CAVITY>
0

>  <SCORE.RESTR.norm>
0

>  <SCORE.SYSTEM>
0

>  <SCORE.SYSTEM.CONST>
0

>  <SCORE.SYSTEM.DIHEDRAL>
0

>  <SCORE.SYSTEM.SOLV>
0

>  <SCORE.SYSTEM.norm>
0

>  <SCORE.heavy>
16

>  <SCORE.norm>
-1.81042

>  <RMSD>
1.799

$$$$
1f27 biotin aptamer (Xray 1.3A)
 OpenBabel11021811393D
libRbt.so/2013.1/901 2013/11/27
 16 17  0  0  0  0  0  0  0  0999 V2000
   20.7931   -0.3302   12.8601 C   0  0  0  0  0  0  0  0  0  0  0  0
   19.8619   -1.1159   12.7154 O   0  5  0  0  0  0  0  0  0  0  0  0
   21.8919   -0.5872   12.3712 O   0  0  0  0  0  0  0  0  0  0  0  0
   20.5725    0.9918   13.5840 C   0  0  0  0  0  0  0  0  0  0  0  0
   19.6529    1.9759   12.8271 C   0  0  0  0  0  0  0  0  0  0  0  0
   18.1919    1.5845   12.9492 C   0  0  0  0  0  0  0  0  0  0  0  0
   17.5101    2.1665   14.1699 C   0  0  0  0  0  0  0  0  0  0  0  0
   16.0129    1.8505   14.2831 C   0  0  2  0  0  0  0  0  0  0  0  0
   15.4722    0.1260   13.6511 S   0  0  0  0  0  0  0  0  0  0  0  0
   13.6824    0.7885   13.7061 C   0  0  0  0  0  0  0  0  0  0  0  0
   13.7945    2.2866   13.2983 C   0  0  2  0  0  0  0  0  0  0  0  0
   13.6269    2.3141   11.7555 N   0  0  0  0  0  0  0  0  0  0  0  0
   14.6244    2.7985   11.1526 C   0  0  0  0  0  0  0  0  0  0  0  0
   14.9033    2.8293    9.9016 O   0  0  0  0  0  0  0  0  0  0  0  0
   15.7511    3.0659   12.0167 N   0  0  0  0  0  0  0  0  0  0  0  0
   15.2075    2.8291   13.4254 C   0  0  2  0  0  0  0  0  0  0  0  0
  1  2  1  0  0  0  0
  1  3  2  0  0  0  0
  1  4  1  0  0  0  0
  4  5  1  0  0  0  0
  5  6  1  0  0  0  0
  6  7  1  0  0  0  0
  8  7  1  6  0  0  0
  8  9  1  0  0  0  0
  8 16  1  0  0  0  0
  9 10  1  0  0  0  0
 11 10  1  6  0  0  0
 11 12  1  0  0  0  0
 11 16  1  0  0  0  0
 12 13  1  0  0  0  0
 13 14  2  0  0  0  0
 13 15  1  0  0  0  0
 16 15  1  6  0  0  0
M  CHG  1   2  -1
M  END
>  <CHROM.1>
-67.26605978,76.64297602,88.01102950,176.91396721,35.06952151,16.90110996
1.34977546,12.81929700,-0.26745334,0.20034316,-0.87108045

>  <Name>
1f27 biotin aptamer (Xray 1.3A)

>  <RI>
0

>  <Rbt.Current_Directory>
/home/itssahil/PROJECTS/Mol_Feturizer/New_Systems/rnas/1f27

>  <Rbt.Executable>
rbdock ($Id: //depot/dev/client3/rdock/2013.1/src/exe/rbdock.cxx#4 $)

>  <Rbt.Library>
libRbt.so (2013.1, Build901 2013/11/27)

>  <Rbt.Parameter_File>
/export/apps/rDock/src/rDock_2013.1_src/data/scripts/dock_solv.prm

>  <Rbt.Receptor>
prm/pocket_docking_3.prm

>  <SCORE>
-33.4279

>  <SCORE.INTER>
-34.3063

>  <SCORE.INTER.CONST>
1

>  <SCORE.INTER.POLAR>
-2.71434

>  <SCORE.INTER.ROT>
5

>  <SCORE.INTER.SOLV>
13.6174

>  <SCORE.INTER.VDW>
-25.2955

>  <SCORE.INTER.norm>
-2.14414

>  <SCORE.INTRA>
0.877366

>  <SCORE.INTRA.DIHEDRAL>
0.31983

>  <SCORE.INTRA.DIHEDRAL.0>
6.87082

>  <SCORE.INTRA.POLAR>
0

>  <SCORE.INTRA.POLAR.0>
0

>  <SCORE.INTRA.REPUL>
0

>  <SCORE.INTRA.REPUL.0>
0

>  <SCORE.INTRA.SOLV>
0.685065

>  <SCORE.INTRA.SOLV.lig_0>
-42.5944

>  <SCORE.INTRA.VDW>
0.374918

>  <SCORE.INTRA.VDW.0>
-1.067

>  <SCORE.INTRA.norm>
0.0548354

>  <SCORE.RESTR>
0.000990681

>  <SCORE.RESTR.CAVITY>
0.000990681

>  <SCORE.RESTR.norm>
6.19176e-05

>  <SCORE.SYSTEM>
0

>  <SCORE.SYSTEM.CONST>
0

>  <SCORE.SYSTEM.DIHEDRAL>
0

>  <SCORE.SYSTEM.SOLV>
0

>  <SCORE.SYSTEM.norm>
0

>  <SCORE.heavy>
16

>  <SCORE.norm>
-2.08924

>  <RMSD>
1.801

$$$$
1f27 biotin aptamer (Xray 1.3A)
 OpenBabel11021811393D
libRbt.so/2013.1/901 2013/11/27
 16 17  0  0  0  0  0  0  0  0999 V2000
   22.2374   -0.1833   15.4562 C   0  0  0  0  0  0  0  0  0  0  0  0
   22.7453    0.4087   16.4032 O   0  5  0  0  0  0  0  0  0  0  0  0
   22.9549   -0.6842   14.5919 O   0  0  0  0  0  0  0  0  0  0  0  0
   20.7257   -0.3576   15.3854 C   0  0  0  0  0  0  0  0  0  0  0  0
   19.9943    0.7956   14.6628 C   0  0  0  0  0  0  0  0  0  0  0  0
   18.5190    0.4935   14.4757 C   0  0  0  0  0  0  0  0  0  0  0  0
   17.6986    1.7051   14.0852 C   0  0  0  0  0  0  0  0  0  0  0  0
   16.1848    1.5476   14.2802 C   0  0  2  0  0  0  0  0  0  0  0  0
   15.4171   -0.0674   13.5961 S   0  0  0  0  0  0  0  0  0  0  0  0
   13.7195    0.7814   13.8036 C   0  0  0  0  0  0  0  0  0  0  0  0
   13.9745    2.2799   13.4680 C   0  0  2  0  0  0  0  0  0  0  0  0
   13.7191    2.4167   11.9432 N   0  0  0  0  0  0  0  0  0  0  0  0
   14.7269    2.8246   11.3019 C   0  0  0  0  0  0  0  0  0  0  0  0
   14.9322    2.8989   10.0386 O   0  0  0  0  0  0  0  0  0  0  0  0
   15.9261    2.9163   12.1026 N   0  0  0  0  0  0  0  0  0  0  0  0
   15.4445    2.6570   13.5298 C   0  0  2  0  0  0  0  0  0  0  0  0
  1  2  1  0  0  0  0
  1  3  2  0  0  0  0
  1  4  1  0  0  0  0
  4  5  1  0  0  0  0
  5  6  1  0  0  0  0
  6  7  1  0  0  0  0
  8  7  1  6  0  0  0
  8  9  1  0  0  0  0
  8 16  1  0  0  0  0
  9 10  1  0  0  0  0
 11 10  1  6  0  0  0
 11 12  1  0  0  0  0
 11 16  1  0  0  0  0
 12 13  1  0  0  0  0
 13 14  2  0  0  0  0
 13 15  1  0  0  0  0
 16 15  1  6  0  0  0
M  CHG  1   2  -1
M  END
>  <CHROM.1>
89.49459969,173.21733349,166.01139786,-163.12226959,-47.77684306,17.33977456
1.16704223,13.67494596,-0.46996856,-0.03896965,-0.88240044

>  <Name>
1f27 biotin aptamer (Xray 1.3A)

>  <RI>
0

>  <Rbt.Current_Directory>
/home/itssahil/PROJECTS/Mol_Feturizer/New_Systems/rnas/1f27

>  <Rbt.Executable>
rbdock ($Id: //depot/dev/client3/rdock/2013.1/src/exe/rbdock.cxx#4 $)

>  <Rbt.Library>
libRbt.so (2013.1, Build901 2013/11/27)

>  <Rbt.Parameter_File>
/export/apps/rDock/src/rDock_2013.1_src/data/scripts/dock_solv.prm

>  <Rbt.Receptor>
prm/pocket_docking_6.prm

>  <SCORE>
-30.2462

>  <SCORE.INTER>
-28.5799

>  <SCORE.INTER.CONST>
1

>  <SCORE.INTER.POLAR>
-2.2732

>  <SCORE.INTER.ROT>
5

>  <SCORE.INTER.SOLV>
12.721

>  <SCORE.INTER.VDW>
-22.6496

>  <SCORE.INTER.norm>
-1.78624

>  <SCORE.INTRA>
-1.6663

>  <SCORE.INTRA.DIHEDRAL>
-2.73624

>  <SCORE.INTRA.DIHEDRAL.0>
6.87082

>  <SCORE.INTRA.POLAR>
0

>  <SCORE.INTRA.POLAR.0>
0

>  <SCORE.INTRA.REPUL>
0

>  <SCORE.INTRA.REPUL.0>
0

>  <SCORE.INTRA.SOLV>
-0.852543

>  <SCORE.INTRA.SOLV.lig_0>
-42.5944

>  <SCORE.INTRA.VDW>
0.12809

>  <SCORE.INTRA.VDW.0>
-1.067

>  <SCORE.INTRA.norm>
-0.104144

>  <SCORE.RESTR>
0

>  <SCORE.RESTR.CAVITY>
0

>  <SCORE.RESTR.norm>
0

>  <SCORE.SYSTEM>
0

>  <SCORE.SYSTEM.CONST>
0

>  <SCORE.SYSTEM.DIHEDRAL>
0

>  <SCORE.SYSTEM.SOLV>
0

>  <SCORE.SYSTEM.norm>
0

>  <SCORE.heavy>
16

>  <SCORE.norm>
-1.89039

>  <RMSD>
1.801

$$$$
1f27 biotin aptamer (Xray 1.3A)
 OpenBabel11021811393D
libRbt.so/2013.1/901 2013/11/27
 16 17  0  0  0  0  0  0  0  0999 V2000
   20.9859   -0.3244   12.9576 C   0  0  0  0  0  0  0  0  0  0  0  0
   19.9968   -1.0486   13.0079 O   0  5  0  0  0  0  0  0  0  0  0  0
   21.8805   -0.5659   12.1490 O   0  0  0  0  0  0  0  0  0  0  0  0
   21.0756    0.9099   13.8459 C   0  0  0  0  0  0  0  0  0  0  0  0
   19.9719    1.9574   13.5780 C   0  0  0  0  0  0  0  0  0  0  0  0
   18.6089    1.4623   14.0252 C   0  0  0  0  0  0  0  0  0  0  0  0
   17.5009    2.4741   13.8194 C   0  0  0  0  0  0  0  0  0  0  0  0
   16.1104    2.0063   14.2689 C   0  0  2  0  0  0  0  0  0  0  0  0
   15.4536    0.4135   13.4339 S   0  0  0  0  0  0  0  0  0  0  0  0
   13.7412    0.8834   14.1352 C   0  0  0  0  0  0  0  0  0  0  0  0
   13.6908    2.4378   14.0677 C   0  0  2  0  0  0  0  0  0  0  0  0
   13.0800    2.7770   12.6817 N   0  0  0  0  0  0  0  0  0  0  0  0
   13.8455    3.4671   11.9531 C   0  0  0  0  0  0  0  0  0  0  0  0
   13.7467    3.7882   10.7158 O   0  0  0  0  0  0  0  0  0  0  0  0
   15.1679    3.6463   12.5070 N   0  0  0  0  0  0  0  0  0  0  0  0
   15.0650    3.0673   13.9177 C   0  0  2  0  0  0  0  0  0  0  0  0
  1  2  1  0  0  0  0
  1  3  2  0  0  0  0
  1  4  1  0  0  0  0
  4  5  1  0  0  0  0
  5  6  1  0  0  0  0
  6  7  1  0  0  0  0
  8  7  1  6  0  0  0
  8  9  1  0  0  0  0
  8 16  1  0  0  0  0
  9 10  1  0  0  0  0
 11 10  1  6  0  0  0
 11 12  1  0  0  0  0
 11 16  1  0  0  0  0
 12 13  1  0  0  0  0
 13 14  2  0  0  0  0
 13 15  1  0  0  0  0
 16 15  1  6  0  0  0
M  CHG  1   2  -1
M  END
>  <CHROM.1>
-61.88916714,69.64844628,178.28734455,-179.69248204,-58.32962378,16.79739755
1.59450358,13.17241102,0.34600893,-0.13832888,2.64566822

>  <Name>
1f27 biotin aptamer (Xray 1.3A)

>  <RI>
0

>  <Rbt.Current_Directory>
/home/itssahil/PROJECTS/Mol_Feturizer/New_Systems/rnas/1f27

>  <Rbt.Executable>
rbdock ($Id: //depot/dev/client3/rdock/2013.1/src/exe/rbdock.cxx#4 $)

>  <Rbt.Library>
libRbt.so (2013.1, Build901 2013/11/27)

>  <Rbt.Parameter_File>
/export/apps/rDock/src/rDock_2013.1_src/data/scripts/dock_solv.prm

>  <Rbt.Receptor>
prm/blind_docking_60.prm

>  <SCORE>
-32.2657

>  <SCORE.INTER>
-29.9611

>  <SCORE.INTER.CONST>
1

>  <SCORE.INTER.POLAR>
-1.83344

>  <SCORE.INTER.ROT>
5

>  <SCORE.INTER.SOLV>
12.663

>  <SCORE.INTER.VDW>
-25.0169

>  <SCORE.INTER.norm>
-1.87257

>  <SCORE.INTRA>
-2.30469

>  <SCORE.INTRA.DIHEDRAL>
-5.16273

>  <SCORE.INTRA.DIHEDRAL.0>
6.87082

>  <SCORE.INTRA.POLAR>
0

>  <SCORE.INTRA.POLAR.0>
0

>  <SCORE.INTRA.REPUL>
0

>  <SCORE.INTRA.REPUL.0>
0

>  <SCORE.INTRA.SOLV>
0.234538

>  <SCORE.INTRA.SOLV.lig_0>
-42.5944

>  <SCORE.INTRA.VDW>
0.159408

>  <SCORE.INTRA.VDW.0>
-1.067

>  <SCORE.INTRA.norm>
-0.144043

>  <SCORE.RESTR>
0

>  <SCORE.RESTR.CAVITY>
0

>  <SCORE.RESTR.norm>
0

>  <SCORE.SYSTEM>
0

>  <SCORE.SYSTEM.CONST>
0

>  <SCORE.SYSTEM.DIHEDRAL>
0

>  <SCORE.SYSTEM.SOLV>
0

>  <SCORE.SYSTEM.norm>
0

>  <SCORE.heavy>
16

>  <SCORE.norm>
-2.01661

>  <RMSD>
1.803

$$$$
1f27 biotin aptamer (Xray 1.3A)
 OpenBabel11021811393D
libRbt.so/2013.1/901 2013/11/27
 16 17  0  0  0  0  0  0  0  0999 V2000
   20.8801   -0.2468   13.0443 C   0  0  0  0  0  0  0  0  0  0  0  0
   21.8550   -0.5086   12.3469 O   0  5  0  0  0  0  0  0  0  0  0  0
   19.8859   -0.9695   13.0022 O   0  0  0  0  0  0  0  0  0  0  0  0
   20.9252    0.9300   14.0106 C   0  0  0  0  0  0  0  0  0  0  0  0
   19.8460    2.0029   13.7437 C   0  0  0  0  0  0  0  0  0  0  0  0
   18.4698    1.5337   14.1784 C   0  0  0  0  0  0  0  0  0  0  0  0
   17.3692    2.5305   13.8802 C   0  0  0  0  0  0  0  0  0  0  0  0
   15.9607    2.0733   14.2816 C   0  0  2  0  0  0  0  0  0  0  0  0
   15.3700    0.4186   13.5208 S   0  0  0  0  0  0  0  0  0  0  0  0
   13.6154    0.9091   14.0916 C   0  0  0  0  0  0  0  0  0  0  0  0
   13.5518    2.4545   13.9163 C   0  0  2  0  0  0  0  0  0  0  0  0
   13.0173    2.6910   12.4784 N   0  0  0  0  0  0  0  0  0  0  0  0
   13.8154    3.3421   11.7489 C   0  0  0  0  0  0  0  0  0  0  0  0
   13.7837    3.5781   10.4891 O   0  0  0  0  0  0  0  0  0  0  0  0
   15.1021    3.5776   12.3626 N   0  0  0  0  0  0  0  0  0  0  0  0
   14.9253    3.0928   13.8013 C   0  0  2  0  0  0  0  0  0  0  0  0
  1  2  1  0  0  0  0
  1  3  2  0  0  0  0
  1  4  1  0  0  0  0
  4  5  1  0  0  0  0
  5  6  1  0  0  0  0
  6  7  1  0  0  0  0
  8  7  1  6  0  0  0
  8  9  1  0  0  0  0
  8 16  1  0  0  0  0
  9 10  1  0  0  0  0
 11 10  1  6  0  0  0
 11 12  1  0  0  0  0
 11 16  1  0  0  0  0
 12 13  1  0  0  0  0
 13 14  2  0  0  0  0
 13 15  1  0  0  0  0
 16 15  1  6  0  0  0
M  CHG  1   2  -1
M  END
>  <CHROM.1>
120.50725535,74.00395938,-177.48082424,178.79575242,-56.59222532,16.70365919
1.59670210,13.16950281,-0.33336026,0.14128250,-0.62303941

>  <Name>
1f27 biotin aptamer (Xray 1.3A)

>  <RI>
0

>  <Rbt.Current_Directory>
/home/itssahil/PROJECTS/Mol_Feturizer/New_Systems/rnas/1f27

>  <Rbt.Executable>
rbdock ($Id: //depot/dev/client3/rdock/2013.1/src/exe/rbdock.cxx#4 $)

>  <Rbt.Library>
libRbt.so (2013.1, Build901 2013/11/27)

>  <Rbt.Parameter_File>
/export/apps/rDock/src/rDock_2013.1_src/data/scripts/dock_solv.prm

>  <Rbt.Receptor>
prm/pocket_docking_3.prm

>  <SCORE>
-31.5841

>  <SCORE.INTER>
-29.3912

>  <SCORE.INTER.CONST>
1

>  <SCORE.INTER.POLAR>
-1.72052

>  <SCORE.INTER.ROT>
5

>  <SCORE.INTER.SOLV>
12.339

>  <SCORE.INTER.VDW>
-24.9054

>  <SCORE.INTER.norm>
-1.83695

>  <SCORE.INTRA>
-2.20153

>  <SCORE.INTRA.DIHEDRAL>
-4.72641

>  <SCORE.INTRA.DIHEDRAL.0>
6.87082

>  <SCORE.INTRA.POLAR>
0

>  <SCORE.INTRA.POLAR.0>
0

>  <SCORE.INTRA.REPUL>
0

>  <SCORE.INTRA.REPUL.0>
0

>  <SCORE.INTRA.SOLV>
0.154415

>  <SCORE.INTRA.SOLV.lig_0>
-42.5944

>  <SCORE.INTRA.VDW>
0.0844628

>  <SCORE.INTRA.VDW.0>
-1.067

>  <SCORE.INTRA.norm>
-0.137596

>  <SCORE.RESTR>
0.0086548

>  <SCORE.RESTR.CAVITY>
0.0086548

>  <SCORE.RESTR.norm>
0.000540925

>  <SCORE.SYSTEM>
0

>  <SCORE.SYSTEM.CONST>
0

>  <SCORE.SYSTEM.DIHEDRAL>
0

>  <SCORE.SYSTEM.SOLV>
0

>  <SCORE.SYSTEM.norm>
0

>  <SCORE.heavy>
16

>  <SCORE.norm>
-1.97401

>  <RMSD>
1.804

$$$$
1f27 biotin aptamer (Xray 1.3A)
 OpenBabel11021811393D
libRbt.so/2013.1/901 2013/11/27
 16 17  0  0  0  0  0  0  0  0999 V2000
   20.8804   -0.3146   12.6346 C   0  0  0  0  0  0  0  0  0  0  0  0
   19.9662   -1.0972   12.3953 O   0  5  0  0  0  0  0  0  0  0  0  0
   22.0129   -0.5507   12.2172 O   0  0  0  0  0  0  0  0  0  0  0  0
   20.6011    0.9799   13.3876 C   0  0  0  0  0  0  0  0  0  0  0  0
   19.6792    1.9606   12.6292 C   0  0  0  0  0  0  0  0  0  0  0  0
   18.2155    1.5969   12.7965 C   0  0  0  0  0  0  0  0  0  0  0  0
   17.6108    2.1029   14.0895 C   0  0  0  0  0  0  0  0  0  0  0  0
   16.1106    1.8243   14.2510 C   0  0  2  0  0  0  0  0  0  0  0  0
   15.5050    0.1184   13.6274 S   0  0  0  0  0  0  0  0  0  0  0  0
   13.7357    0.8258   13.7464 C   0  0  0  0  0  0  0  0  0  0  0  0
   13.8725    2.3233   13.3439 C   0  0  2  0  0  0  0  0  0  0  0  0
   13.6542    2.3654   11.8077 N   0  0  0  0  0  0  0  0  0  0  0  0
   14.6431    2.8284   11.1746 C   0  0  0  0  0  0  0  0  0  0  0  0
   14.8808    2.8605    9.9151 O   0  0  0  0  0  0  0  0  0  0  0  0
   15.8045    3.0612   12.0019 N   0  0  0  0  0  0  0  0  0  0  0  0
   15.3024    2.8288   13.4266 C   0  0  2  0  0  0  0  0  0  0  0  0
  1  2  1  0  0  0  0
  1  3  2  0  0  0  0
  1  4  1  0  0  0  0
  4  5  1  0  0  0  0
  5  6  1  0  0  0  0
  6  7  1  0  0  0  0
  8  7  1  6  0  0  0
  8  9  1  0  0  0  0
  8 16  1  0  0  0  0
  9 10  1  0  0  0  0
 11 10  1  6  0  0  0
 11 12  1  0  0  0  0
 11 16  1  0  0  0  0
 12 13  1  0  0  0  0
 13 14  2  0  0  0  0
 13 15  1  0  0  0  0
 16 15  1  6  0  0  0
M  CHG  1   2  -1
M  END
>  <CHROM.1>
-64.57808816,81.71568912,82.15968874,176.51864248,39.20730830,16.95675115
1.35778007,12.74508647,-0.23430525,0.22637765,-0.87872708

>  <Name>
1f27 biotin aptamer (Xray 1.3A)

>  <RI>
0

>  <Rbt.Current_Directory>
/home/itssahil/PROJECTS/Mol_Feturizer/New_Systems/rnas/1f27

>  <Rbt.Executable>
rbdock ($Id: //depot/dev/client3/rdock/2013.1/src/exe/rbdock.cxx#4 $)

>  <Rbt.Library>
libRbt.so (2013.1, Build901 2013/11/27)

>  <Rbt.Parameter_File>
/export/apps/rDock/src/rDock_2013.1_src/data/scripts/dock_solv.prm

>  <Rbt.Receptor>
prm/pocket_docking_8.prm

>  <SCORE>
-34.4139

>  <SCORE.INTER>
-35.0455

>  <SCORE.INTER.CONST>
1

>  <SCORE.INTER.POLAR>
-2.80322

>  <SCORE.INTER.ROT>
5

>  <SCORE.INTER.SOLV>
14.9189

>  <SCORE.INTER.VDW>
-25.9259

>  <SCORE.INTER.norm>
-2.19034

>  <SCORE.INTRA>
0.631571

>  <SCORE.INTRA.DIHEDRAL>
-0.544944

>  <SCORE.INTRA.DIHEDRAL.0>
6.87082

>  <SCORE.INTRA.POLAR>
0

>  <SCORE.INTRA.POLAR.0>
0

>  <SCORE.INTRA.REPUL>
0

>  <SCORE.INTRA.REPUL.0>
0

>  <SCORE.INTRA.SOLV>
0.627587

>  <SCORE.INTRA.SOLV.lig_0>
-42.5944

>  <SCORE.INTRA.VDW>
0.590249

>  <SCORE.INTRA.VDW.0>
-1.067

>  <SCORE.INTRA.norm>
0.0394732

>  <SCORE.RESTR>
0

>  <SCORE.RESTR.CAVITY>
0

>  <SCORE.RESTR.norm>
0

>  <SCORE.SYSTEM>
0

>  <SCORE.SYSTEM.CONST>
0

>  <SCORE.SYSTEM.DIHEDRAL>
0

>  <SCORE.SYSTEM.SOLV>
0

>  <SCORE.SYSTEM.norm>
0

>  <SCORE.heavy>
16

>  <SCORE.norm>
-2.15087

>  <RMSD>
1.805

$$$$
1f27 biotin aptamer (Xray 1.3A)
 OpenBabel11021811393D
libRbt.so/2013.1/901 2013/11/27
 16 17  0  0  0  0  0  0  0  0999 V2000
   20.8485   -0.3744   14.0167 C   0  0  0  0  0  0  0  0  0  0  0  0
   20.1021   -1.0500   14.7181 O   0  5  0  0  0  0  0  0  0  0  0  0
   21.9255    0.0135   14.4663 O   0  0  0  0  0  0  0  0  0  0  0  0
   20.4746   -0.0740   12.5709 C   0  0  0  0  0  0  0  0  0  0  0  0
   19.1232    0.6575   12.4112 C   0  0  0  0  0  0  0  0  0  0  0  0
   19.1199    1.9926   13.1327 C   0  0  0  0  0  0  0  0  0  0  0  0
   17.8420    2.7817   12.9381 C   0  0  0  0  0  0  0  0  0  0  0  0
   16.6319    2.2495   13.7170 C   0  0  2  0  0  0  0  0  0  0  0  0
   15.9448    0.5578   13.1409 S   0  0  0  0  0  0  0  0  0  0  0  0
   14.3977    0.9537   14.1872 C   0  0  0  0  0  0  0  0  0  0  0  0
   14.2003    2.4916   14.0489 C   0  0  2  0  0  0  0  0  0  0  0  0
   13.2695    2.6854   12.8221 N   0  0  0  0  0  0  0  0  0  0  0  0
   13.7915    3.3741   11.9021 C   0  0  0  0  0  0  0  0  0  0  0  0
   13.3925    3.5973   10.7043 O   0  0  0  0  0  0  0  0  0  0  0  0
   15.1836    3.6868   12.1298 N   0  0  0  0  0  0  0  0  0  0  0  0
   15.4474    3.2050   13.5561 C   0  0  2  0  0  0  0  0  0  0  0  0
  1  2  1  0  0  0  0
  1  3  2  0  0  0  0
  1  4  1  0  0  0  0
  4  5  1  0  0  0  0
  5  6  1  0  0  0  0
  6  7  1  0  0  0  0
  8  7  1  6  0  0  0
  8  9  1  0  0  0  0
  8 16  1  0  0  0  0
  9 10  1  0  0  0  0
 11 10  1  6  0  0  0
 11 12  1  0  0  0  0
 11 16  1  0  0  0  0
 12 13  1  0  0  0  0
 13 14  2  0  0  0  0
 13 15  1  0  0  0  0
 16 15  1  6  0  0  0
M  CHG  1   2  -1
M  END
>  <CHROM.1>
58.22931000,59.79546965,176.71156957,73.99153758,-68.28286632,16.93019997
1.57241361,13.14338143,0.44887956,-0.11918250,2.46579811

>  <Name>
1f27 biotin aptamer (Xray 1.3A)

>  <RI>
0

>  <Rbt.Current_Directory>
/home/itssahil/PROJECTS/Mol_Feturizer/New_Systems/rnas/1f27

>  <Rbt.Executable>
rbdock ($Id: //depot/dev/client3/rdock/2013.1/src/exe/rbdock.cxx#4 $)

>  <Rbt.Library>
libRbt.so (2013.1, Build901 2013/11/27)

>  <Rbt.Parameter_File>
/export/apps/rDock/src/rDock_2013.1_src/data/scripts/dock_solv.prm

>  <Rbt.Receptor>
prm/blind_docking_60.prm

>  <SCORE>
-25.8517

>  <SCORE.INTER>
-23.846

>  <SCORE.INTER.CONST>
1

>  <SCORE.INTER.POLAR>
-0.848528

>  <SCORE.INTER.ROT>
5

>  <SCORE.INTER.SOLV>
8.64632

>  <SCORE.INTER.VDW>
-22.8843

>  <SCORE.INTER.norm>
-1.49038

>  <SCORE.INTRA>
-2.00568

>  <SCORE.INTRA.DIHEDRAL>
-4.43218

>  <SCORE.INTRA.DIHEDRAL.0>
6.87082

>  <SCORE.INTRA.POLAR>
0

>  <SCORE.INTRA.POLAR.0>
0

>  <SCORE.INTRA.REPUL>
0

>  <SCORE.INTRA.REPUL.0>
0

>  <SCORE.INTRA.SOLV>
0.179692

>  <SCORE.INTRA.SOLV.lig_0>
-42.5944

>  <SCORE.INTRA.VDW>
0.120562

>  <SCORE.INTRA.VDW.0>
-1.067

>  <SCORE.INTRA.norm>
-0.125355

>  <SCORE.RESTR>
0

>  <SCORE.RESTR.CAVITY>
0

>  <SCORE.RESTR.norm>
0

>  <SCORE.SYSTEM>
0

>  <SCORE.SYSTEM.CONST>
0

>  <SCORE.SYSTEM.DIHEDRAL>
0

>  <SCORE.SYSTEM.SOLV>
0

>  <SCORE.SYSTEM.norm>
0

>  <SCORE.heavy>
16

>  <SCORE.norm>
-1.61573

>  <RMSD>
1.812

$$$$
1f27 biotin aptamer (Xray 1.3A)
 OpenBabel11021811393D
libRbt.so/2013.1/901 2013/11/27
 16 17  0  0  0  0  0  0  0  0999 V2000
   20.8730   -0.1560   12.6031 C   0  0  0  0  0  0  0  0  0  0  0  0
   21.9296   -0.6521   12.2252 O   0  5  0  0  0  0  0  0  0  0  0  0
   19.9319   -0.8841   12.9141 O   0  0  0  0  0  0  0  0  0  0  0  0
   20.7481    1.3549   12.7524 C   0  0  0  0  0  0  0  0  0  0  0  0
   19.8180    1.7968   13.9042 C   0  0  0  0  0  0  0  0  0  0  0  0
   18.3604    1.5203   13.5850 C   0  0  0  0  0  0  0  0  0  0  0  0
   17.4043    2.5068   14.2223 C   0  0  0  0  0  0  0  0  0  0  0  0
   15.9454    2.0365   14.2913 C   0  0  2  0  0  0  0  0  0  0  0  0
   15.6096    0.2581   13.6666 S   0  0  0  0  0  0  0  0  0  0  0  0
   13.7596    0.7296   13.6542 C   0  0  0  0  0  0  0  0  0  0  0  0
   13.7280    2.2267   13.2291 C   0  0  2  0  0  0  0  0  0  0  0  0
   13.6106    2.2200   11.6814 N   0  0  0  0  0  0  0  0  0  0  0  0
   14.5717    2.8001   11.1044 C   0  0  0  0  0  0  0  0  0  0  0  0
   14.8879    2.8467    9.8628 O   0  0  0  0  0  0  0  0  0  0  0  0
   15.6345    3.1935   12.0007 N   0  0  0  0  0  0  0  0  0  0  0  0
   15.0714    2.9159   13.3943 C   0  0  2  0  0  0  0  0  0  0  0  0
  1  2  1  0  0  0  0
  1  3  2  0  0  0  0
  1  4  1  0  0  0  0
  4  5  1  0  0  0  0
  5  6  1  0  0  0  0
  6  7  1  0  0  0  0
  8  7  1  6  0  0  0
  8  9  1  0  0  0  0
  8 16  1  0  0  0  0
  9 10  1  0  0  0  0
 11 10  1  6  0  0  0
 11 12  1  0  0  0  0
 11 16  1  0  0  0  0
 12 13  1  0  0  0  0
 13 14  2  0  0  0  0
 13 15  1  0  0  0  0
 16 15  1  6  0  0  0
M  CHG  1   2  -1
M  END
>  <CHROM.1>
-146.60364223,-71.27297522,-149.31016791,-162.14019979,3.67152247,16.93181867
1.42456309,12.84755478,-0.22674472,0.22404815,-1.02973375

>  <Name>
1f27 biotin aptamer (Xray 1.3A)

>  <RI>
0

>  <Rbt.Current_Directory>
/home/itssahil/PROJECTS/Mol_Feturizer/New_Systems/rnas/1f27

>  <Rbt.Executable>
rbdock ($Id: //depot/dev/client3/rdock/2013.1/src/exe/rbdock.cxx#4 $)

>  <Rbt.Library>
libRbt.so (2013.1, Build901 2013/11/27)

>  <Rbt.Parameter_File>
/export/apps/rDock/src/rDock_2013.1_src/data/scripts/dock_solv.prm

>  <Rbt.Receptor>
prm/pocket_docking_6.prm

>  <SCORE>
-29.4619

>  <SCORE.INTER>
-33.5207

>  <SCORE.INTER.CONST>
1

>  <SCORE.INTER.POLAR>
-2.71031

>  <SCORE.INTER.ROT>
5

>  <SCORE.INTER.SOLV>
14.0111

>  <SCORE.INTER.VDW>
-24.9165

>  <SCORE.INTER.norm>
-2.09504

>  <SCORE.INTRA>
4.05878

>  <SCORE.INTRA.DIHEDRAL>
5.25528

>  <SCORE.INTRA.DIHEDRAL.0>
6.87082

>  <SCORE.INTRA.POLAR>
0

>  <SCORE.INTRA.POLAR.0>
0

>  <SCORE.INTRA.REPUL>
0

>  <SCORE.INTRA.REPUL.0>
0

>  <SCORE.INTRA.SOLV>
0.491495

>  <SCORE.INTRA.SOLV.lig_0>
-42.5944

>  <SCORE.INTRA.VDW>
1.18539

>  <SCORE.INTRA.VDW.0>
-1.067

>  <SCORE.INTRA.norm>
0.253674

>  <SCORE.RESTR>
0

>  <SCORE.RESTR.CAVITY>
0

>  <SCORE.RESTR.norm>
0

>  <SCORE.SYSTEM>
0

>  <SCORE.SYSTEM.CONST>
0

>  <SCORE.SYSTEM.DIHEDRAL>
0

>  <SCORE.SYSTEM.SOLV>
0

>  <SCORE.SYSTEM.norm>
0

>  <SCORE.heavy>
16

>  <SCORE.norm>
-1.84137

>  <RMSD>
1.815

$$$$
1f27 biotin aptamer (Xray 1.3A)
 OpenBabel11021811393D
libRbt.so/2013.1/901 2013/11/27
 16 17  0  0  0  0  0  0  0  0999 V2000
   22.2532   -0.0840   15.4489 C   0  0  0  0  0  0  0  0  0  0  0  0
   22.8406    0.4489   16.3850 O   0  5  0  0  0  0  0  0  0  0  0  0
   22.8963   -0.5691   14.5196 O   0  0  0  0  0  0  0  0  0  0  0  0
   20.7349   -0.2061   15.4691 C   0  0  0  0  0  0  0  0  0  0  0  0
   20.0090    0.8488   14.6045 C   0  0  0  0  0  0  0  0  0  0  0  0
   18.5306    0.5365   14.4633 C   0  0  0  0  0  0  0  0  0  0  0  0
   17.7068    1.7148   13.9873 C   0  0  0  0  0  0  0  0  0  0  0  0
   16.1941    1.5706   14.2003 C   0  0  2  0  0  0  0  0  0  0  0  0
   15.4087   -0.0496   13.5492 S   0  0  0  0  0  0  0  0  0  0  0  0
   13.7190    0.8137   13.7610 C   0  0  0  0  0  0  0  0  0  0  0  0
   13.9804    2.3051   13.3997 C   0  0  2  0  0  0  0  0  0  0  0  0
   13.7100    2.4202   11.8756 N   0  0  0  0  0  0  0  0  0  0  0  0
   14.7137    2.8114   11.2178 C   0  0  0  0  0  0  0  0  0  0  0  0
   14.9064    2.8648    9.9514 O   0  0  0  0  0  0  0  0  0  0  0  0
   15.9218    2.9073   12.0046 N   0  0  0  0  0  0  0  0  0  0  0  0
   15.4534    2.6733   13.4405 C   0  0  2  0  0  0  0  0  0  0  0  0
  1  2  1  0  0  0  0
  1  3  2  0  0  0  0
  1  4  1  0  0  0  0
  4  5  1  0  0  0  0
  5  6  1  0  0  0  0
  6  7  1  0  0  0  0
  8  7  1  6  0  0  0
  8  9  1  0  0  0  0
  8 16  1  0  0  0  0
  9 10  1  0  0  0  0
 11 10  1  6  0  0  0
 11 12  1  0  0  0  0
 11 16  1  0  0  0  0
 12 13  1  0  0  0  0
 13 14  2  0  0  0  0
 13 15  1  0  0  0  0
 16 15  1  6  0  0  0
M  CHG  1   2  -1
M  END
>  <CHROM.1>
101.05160003,169.96165144,163.08752884,-163.82476147,-51.21213751,17.34242255
1.20138419,13.62231136,-0.46865320,-0.04270772,-0.90508068

>  <Name>
1f27 biotin aptamer (Xray 1.3A)

>  <RI>
0

>  <Rbt.Current_Directory>
/home/itssahil/PROJECTS/Mol_Feturizer/New_Systems/rnas/1f27

>  <Rbt.Executable>
rbdock ($Id: //depot/dev/client3/rdock/2013.1/src/exe/rbdock.cxx#4 $)

>  <Rbt.Library>
libRbt.so (2013.1, Build901 2013/11/27)

>  <Rbt.Parameter_File>
/export/apps/rDock/src/rDock_2013.1_src/data/scripts/dock_solv.prm

>  <Rbt.Receptor>
prm/pocket_docking_5.prm

>  <SCORE>
-30.3369

>  <SCORE.INTER>
-28.7152

>  <SCORE.INTER.CONST>
1

>  <SCORE.INTER.POLAR>
-2.23505

>  <SCORE.INTER.ROT>
5

>  <SCORE.INTER.SOLV>
13.031

>  <SCORE.INTER.VDW>
-22.9703

>  <SCORE.INTER.norm>
-1.7947

>  <SCORE.INTRA>
-1.62165

>  <SCORE.INTRA.DIHEDRAL>
-2.5787

>  <SCORE.INTRA.DIHEDRAL.0>
6.87082

>  <SCORE.INTRA.POLAR>
0

>  <SCORE.INTRA.POLAR.0>
0

>  <SCORE.INTRA.REPUL>
0

>  <SCORE.INTRA.REPUL.0>
0

>  <SCORE.INTRA.SOLV>
-0.854005

>  <SCORE.INTRA.SOLV.lig_0>
-42.5944

>  <SCORE.INTRA.VDW>
0.0947055

>  <SCORE.INTRA.VDW.0>
-1.067

>  <SCORE.INTRA.norm>
-0.101353

>  <SCORE.RESTR>
0

>  <SCORE.RESTR.CAVITY>
0

>  <SCORE.RESTR.norm>
0

>  <SCORE.SYSTEM>
0

>  <SCORE.SYSTEM.CONST>
0

>  <SCORE.SYSTEM.DIHEDRAL>
0

>  <SCORE.SYSTEM.SOLV>
0

>  <SCORE.SYSTEM.norm>
0

>  <SCORE.heavy>
16

>  <SCORE.norm>
-1.89605

>  <RMSD>
1.820

$$$$
1f27 biotin aptamer (Xray 1.3A)
 OpenBabel11021811393D
libRbt.so/2013.1/901 2013/11/27
 16 17  0  0  0  0  0  0  0  0999 V2000
   20.8734   -0.6049   13.2686 C   0  0  0  0  0  0  0  0  0  0  0  0
   20.9512   -0.3523   14.4667 O   0  5  0  0  0  0  0  0  0  0  0  0
   21.6945   -0.1265   12.4880 O   0  0  0  0  0  0  0  0  0  0  0  0
   19.8049   -1.5626   12.7570 C   0  0  0  0  0  0  0  0  0  0  0  0
   18.5576   -1.6538   13.6641 C   0  0  0  0  0  0  0  0  0  0  0  0
   17.8597   -0.3125   13.7939 C   0  0  0  0  0  0  0  0  0  0  0  0
   16.3531   -0.4003   13.6673 C   0  0  0  0  0  0  0  0  0  0  0  0
   15.5877    0.7975   14.2449 C   0  0  2  0  0  0  0  0  0  0  0  0
   13.7045    0.8313   13.9008 S   0  0  0  0  0  0  0  0  0  0  0  0
   13.7467    2.6568   14.4583 C   0  0  0  0  0  0  0  0  0  0  0  0
   15.1157    3.2005   13.9549 C   0  0  2  0  0  0  0  0  0  0  0  0
   14.8444    3.7679   12.5359 N   0  0  0  0  0  0  0  0  0  0  0  0
   15.5269    3.2073   11.6342 C   0  0  0  0  0  0  0  0  0  0  0  0
   15.4503    3.2990   10.3577 O   0  0  0  0  0  0  0  0  0  0  0  0
   16.2795    2.0658   12.1012 N   0  0  0  0  0  0  0  0  0  0  0  0
   16.1024    2.0957   13.6191 C   0  0  2  0  0  0  0  0  0  0  0  0
  1  2  1  0  0  0  0
  1  3  2  0  0  0  0
  1  4  1  0  0  0  0
  4  5  1  0  0  0  0
  5  6  1  0  0  0  0
  6  7  1  0  0  0  0
  8  7  1  6  0  0  0
  8  9  1  0  0  0  0
  8 16  1  0  0  0  0
  9 10  1  0  0  0  0
 11 10  1  6  0  0  0
 11 12  1  0  0  0  0
 11 16  1  0  0  0  0
 12 13  1  0  0  0  0
 13 14  2  0  0  0  0
 13 15  1  0  0  0  0
 16 15  1  6  0  0  0
M  CHG  1   2  -1
M  END
>  <CHROM.1>
25.42043526,60.99269252,135.72074560,160.41295653,172.29942476,16.82441648
1.03682235,13.20960510,-0.41023151,0.30108180,-0.68296849

>  <Name>
1f27 biotin aptamer (Xray 1.3A)

>  <RI>
0

>  <Rbt.Current_Directory>
/home/itssahil/PROJECTS/Mol_Feturizer/New_Systems/rnas/1f27

>  <Rbt.Executable>
rbdock ($Id: //depot/dev/client3/rdock/2013.1/src/exe/rbdock.cxx#4 $)

>  <Rbt.Library>
libRbt.so (2013.1, Build901 2013/11/27)

>  <Rbt.Parameter_File>
/export/apps/rDock/src/rDock_2013.1_src/data/scripts/dock_solv.prm

>  <Rbt.Receptor>
prm/blind_docking_60.prm

>  <SCORE>
-25.703

>  <SCORE.INTER>
-27.5599

>  <SCORE.INTER.CONST>
1

>  <SCORE.INTER.POLAR>
-2.04957

>  <SCORE.INTER.ROT>
5

>  <SCORE.INTER.SOLV>
13.7789

>  <SCORE.INTER.VDW>
-23.0677

>  <SCORE.INTER.norm>
-1.72249

>  <SCORE.INTRA>
1.8569

>  <SCORE.INTRA.DIHEDRAL>
1.23641

>  <SCORE.INTRA.DIHEDRAL.0>
6.87082

>  <SCORE.INTRA.POLAR>
0

>  <SCORE.INTRA.POLAR.0>
0

>  <SCORE.INTRA.REPUL>
0

>  <SCORE.INTRA.REPUL.0>
0

>  <SCORE.INTRA.SOLV>
0.361296

>  <SCORE.INTRA.SOLV.lig_0>
-42.5944

>  <SCORE.INTRA.VDW>
1.05804

>  <SCORE.INTRA.VDW.0>
-1.067

>  <SCORE.INTRA.norm>
0.116056

>  <SCORE.RESTR>
0

>  <SCORE.RESTR.CAVITY>
0

>  <SCORE.RESTR.norm>
0

>  <SCORE.SYSTEM>
0

>  <SCORE.SYSTEM.CONST>
0

>  <SCORE.SYSTEM.DIHEDRAL>
0

>  <SCORE.SYSTEM.SOLV>
0

>  <SCORE.SYSTEM.norm>
0

>  <SCORE.heavy>
16

>  <SCORE.norm>
-1.60644

>  <RMSD>
1.824

$$$$
1f27 biotin aptamer (Xray 1.3A)
 OpenBabel11021811393D
libRbt.so/2013.1/901 2013/11/27
 16 17  0  0  0  0  0  0  0  0999 V2000
   21.4084   -0.3126   15.6104 C   0  0  0  0  0  0  0  0  0  0  0  0
   22.0458    0.1271   16.5622 O   0  5  0  0  0  0  0  0  0  0  0  0
   21.8850   -1.2096   14.9170 O   0  0  0  0  0  0  0  0  0  0  0  0
   20.0027    0.2021   15.3286 C   0  0  0  0  0  0  0  0  0  0  0  0
   19.9501    1.3501   14.2959 C   0  0  0  0  0  0  0  0  0  0  0  0
   18.5697    1.9764   14.2239 C   0  0  0  0  0  0  0  0  0  0  0  0
   17.4868    1.0057   13.8010 C   0  0  0  0  0  0  0  0  0  0  0  0
   16.0613    1.4251   14.1834 C   0  0  2  0  0  0  0  0  0  0  0  0
   14.6722    0.1961   13.7083 S   0  0  0  0  0  0  0  0  0  0  0  0
   13.4463    1.6181   14.0547 C   0  0  0  0  0  0  0  0  0  0  0  0
   14.1828    2.9077   13.5882 C   0  0  2  0  0  0  0  0  0  0  0  0
   13.7914    3.0974   12.0983 N   0  0  0  0  0  0  0  0  0  0  0  0
   14.7820    3.0889   11.3160 C   0  0  0  0  0  0  0  0  0  0  0  0
   14.8276    3.0551   10.0352 O   0  0  0  0  0  0  0  0  0  0  0  0
   16.0283    2.7460   11.9616 N   0  0  0  0  0  0  0  0  0  0  0  0
   15.6829    2.7139   13.4501 C   0  0  2  0  0  0  0  0  0  0  0  0
  1  2  1  0  0  0  0
  1  3  2  0  0  0  0
  1  4  1  0  0  0  0
  4  5  1  0  0  0  0
  5  6  1  0  0  0  0
  6  7  1  0  0  0  0
  8  7  1  6  0  0  0
  8  9  1  0  0  0  0
  8 16  1  0  0  0  0
  9 10  1  0  0  0  0
 11 10  1  6  0  0  0
 11 12  1  0  0  0  0
 11 16  1  0  0  0  0
 12 13  1  0  0  0  0
 13 14  2  0  0  0  0
 13 15  1  0  0  0  0
 16 15  1  6  0  0  0
M  CHG  1   2  -1
M  END
>  <CHROM.1>
94.79584212,-170.53837926,-61.03339884,159.31492678,-178.30512490,17.03845639
1.38482029,13.68671098,0.52946652,0.01042813,2.26130034

>  <Name>
1f27 biotin aptamer (Xray 1.3A)

>  <RI>
0

>  <Rbt.Current_Directory>
/home/itssahil/PROJECTS/Mol_Feturizer/New_Systems/rnas/1f27

>  <Rbt.Executable>
rbdock ($Id: //depot/dev/client3/rdock/2013.1/src/exe/rbdock.cxx#4 $)

>  <Rbt.Library>
libRbt.so (2013.1, Build901 2013/11/27)

>  <Rbt.Parameter_File>
/export/apps/rDock/src/rDock_2013.1_src/data/scripts/dock_solv.prm

>  <Rbt.Receptor>
prm/pocket_docking_3.prm

>  <SCORE>
-29.4618

>  <SCORE.INTER>
-28.325

>  <SCORE.INTER.CONST>
1

>  <SCORE.INTER.POLAR>
-1.89985

>  <SCORE.INTER.ROT>
5

>  <SCORE.INTER.SOLV>
10.8495

>  <SCORE.INTER.VDW>
-23.1004

>  <SCORE.INTER.norm>
-1.77031

>  <SCORE.INTRA>
-1.14146

>  <SCORE.INTRA.DIHEDRAL>
-3.43392

>  <SCORE.INTRA.DIHEDRAL.0>
6.87082

>  <SCORE.INTRA.POLAR>
0

>  <SCORE.INTRA.POLAR.0>
0

>  <SCORE.INTRA.REPUL>
0

>  <SCORE.INTRA.REPUL.0>
0

>  <SCORE.INTRA.SOLV>
-0.724806

>  <SCORE.INTRA.SOLV.lig_0>
-42.5944

>  <SCORE.INTRA.VDW>
0.937907

>  <SCORE.INTRA.VDW.0>
-1.067

>  <SCORE.INTRA.norm>
-0.071341

>  <SCORE.RESTR>
0.00464596

>  <SCORE.RESTR.CAVITY>
0.00464596

>  <SCORE.RESTR.norm>
0.000290373

>  <SCORE.SYSTEM>
0

>  <SCORE.SYSTEM.CONST>
0

>  <SCORE.SYSTEM.DIHEDRAL>
0

>  <SCORE.SYSTEM.SOLV>
0

>  <SCORE.SYSTEM.norm>
0

>  <SCORE.heavy>
16

>  <SCORE.norm>
-1.84136

>  <RMSD>
1.824

$$$$
1f27 biotin aptamer (Xray 1.3A)
 OpenBabel11021811393D
libRbt.so/2013.1/901 2013/11/27
 16 17  0  0  0  0  0  0  0  0999 V2000
   20.8000   -0.1658   12.5704 C   0  0  0  0  0  0  0  0  0  0  0  0
   19.8567   -0.9420   12.6847 O   0  5  0  0  0  0  0  0  0  0  0  0
   21.8950   -0.5844   12.1983 O   0  0  0  0  0  0  0  0  0  0  0  0
   20.5998    1.3232   12.8219 C   0  0  0  0  0  0  0  0  0  0  0  0
   20.1132    1.6585   14.2494 C   0  0  0  0  0  0  0  0  0  0  0  0
   18.6658    1.2530   14.4579 C   0  0  0  0  0  0  0  0  0  0  0  0
   17.6865    2.0626   13.6338 C   0  0  0  0  0  0  0  0  0  0  0  0
   16.2118    1.8642   14.0083 C   0  0  2  0  0  0  0  0  0  0  0  0
   15.4889    0.1245   13.6663 S   0  0  0  0  0  0  0  0  0  0  0  0
   13.7674    0.9110   13.9167 C   0  0  0  0  0  0  0  0  0  0  0  0
   13.8910    2.3470   13.3287 C   0  0  2  0  0  0  0  0  0  0  0  0
   13.4825    2.2248   11.8362 N   0  0  0  0  0  0  0  0  0  0  0  0
   14.3956    2.5737   11.0377 C   0  0  0  0  0  0  0  0  0  0  0  0
   14.4739    2.4544    9.7636 O   0  0  0  0  0  0  0  0  0  0  0  0
   15.6574    2.8515   11.6845 N   0  0  0  0  0  0  0  0  0  0  0  0
   15.3324    2.8011   13.1771 C   0  0  2  0  0  0  0  0  0  0  0  0
  1  2  1  0  0  0  0
  1  3  2  0  0  0  0
  1  4  1  0  0  0  0
  4  5  1  0  0  0  0
  5  6  1  0  0  0  0
  6  7  1  0  0  0  0
  8  7  1  6  0  0  0
  8  9  1  0  0  0  0
  8 16  1  0  0  0  0
  9 10  1  0  0  0  0
 11 10  1  6  0  0  0
 11 12  1  0  0  0  0
 11 16  1  0  0  0  0
 12 13  1  0  0  0  0
 13 14  2  0  0  0  0
 13 15  1  0  0  0  0
 16 15  1  6  0  0  0
M  CHG  1   2  -1
M  END
>  <CHROM.1>
60.03302227,-71.94993922,-67.17853559,-169.11538034,-66.34383843,16.94172042
1.29970744,12.84333395,-0.19960218,0.23158180,-1.23979124

>  <Name>
1f27 biotin aptamer (Xray 1.3A)

>  <RI>
0

>  <Rbt.Current_Directory>
/home/itssahil/PROJECTS/Mol_Feturizer/New_Systems/rnas/1f27

>  <Rbt.Executable>
rbdock ($Id: //depot/dev/client3/rdock/2013.1/src/exe/rbdock.cxx#4 $)

>  <Rbt.Library>
libRbt.so (2013.1, Build901 2013/11/27)

>  <Rbt.Parameter_File>
/export/apps/rDock/src/rDock_2013.1_src/data/scripts/dock_solv.prm

>  <Rbt.Receptor>
prm/pocket_docking_7.prm

>  <SCORE>
-34.2932

>  <SCORE.INTER>
-32.9013

>  <SCORE.INTER.CONST>
1

>  <SCORE.INTER.POLAR>
-2.37472

>  <SCORE.INTER.ROT>
5

>  <SCORE.INTER.SOLV>
14.8139

>  <SCORE.INTER.VDW>
-25.8898

>  <SCORE.INTER.norm>
-2.05633

>  <SCORE.INTRA>
-1.39184

>  <SCORE.INTRA.DIHEDRAL>
-4.15524

>  <SCORE.INTRA.DIHEDRAL.0>
6.87082

>  <SCORE.INTRA.POLAR>
0

>  <SCORE.INTRA.POLAR.0>
0

>  <SCORE.INTRA.REPUL>
0

>  <SCORE.INTRA.REPUL.0>
0

>  <SCORE.INTRA.SOLV>
0.468718

>  <SCORE.INTRA.SOLV.lig_0>
-42.5944

>  <SCORE.INTRA.VDW>
0.451419

>  <SCORE.INTRA.VDW.0>
-1.067

>  <SCORE.INTRA.norm>
-0.0869902

>  <SCORE.RESTR>
0

>  <SCORE.RESTR.CAVITY>
0

>  <SCORE.RESTR.norm>
0

>  <SCORE.SYSTEM>
0

>  <SCORE.SYSTEM.CONST>
0

>  <SCORE.SYSTEM.DIHEDRAL>
0

>  <SCORE.SYSTEM.SOLV>
0

>  <SCORE.SYSTEM.norm>
0

>  <SCORE.heavy>
16

>  <SCORE.norm>
-2.14332

>  <RMSD>
1.826

$$$$
1f27 biotin aptamer (Xray 1.3A)
 OpenBabel11021811393D
libRbt.so/2013.1/901 2013/11/27
 16 17  0  0  0  0  0  0  0  0999 V2000
   19.6712   -3.3929   13.2969 C   0  0  0  0  0  0  0  0  0  0  0  0
   20.0922   -4.3048   14.0016 O   0  5  0  0  0  0  0  0  0  0  0  0
   20.3225   -3.0230   12.3214 O   0  0  0  0  0  0  0  0  0  0  0  0
   18.3137   -2.7660   13.5879 C   0  0  0  0  0  0  0  0  0  0  0  0
   18.2708   -1.2362   13.3765 C   0  0  0  0  0  0  0  0  0  0  0  0
   16.9213   -0.6555   13.7569 C   0  0  0  0  0  0  0  0  0  0  0  0
   16.8279    0.8420   13.5510 C   0  0  0  0  0  0  0  0  0  0  0  0
   15.5154    1.4769   14.0293 C   0  0  2  0  0  0  0  0  0  0  0  0
   13.9095    0.5873   13.4858 S   0  0  0  0  0  0  0  0  0  0  0  0
   12.9828    2.1678   14.0227 C   0  0  0  0  0  0  0  0  0  0  0  0
   13.9418    3.3396   13.6617 C   0  0  2  0  0  0  0  0  0  0  0  0
   13.5655    3.7579   12.2151 N   0  0  0  0  0  0  0  0  0  0  0  0
   14.5214    3.6485   11.3982 C   0  0  0  0  0  0  0  0  0  0  0  0
   14.5355    3.7445   10.1198 O   0  0  0  0  0  0  0  0  0  0  0  0
   15.6919    3.0115   11.9565 N   0  0  0  0  0  0  0  0  0  0  0  0
   15.3749    2.8849   13.4463 C   0  0  2  0  0  0  0  0  0  0  0  0
  1  2  1  0  0  0  0
  1  3  2  0  0  0  0
  1  4  1  0  0  0  0
  4  5  1  0  0  0  0
  5  6  1  0  0  0  0
  6  7  1  0  0  0  0
  8  7  1  6  0  0  0
  8  9  1  0  0  0  0
  8 16  1  0  0  0  0
  9 10  1  0  0  0  0
 11 10  1  6  0  0  0
 11 12  1  0  0  0  0
 11 16  1  0  0  0  0
 12 13  1  0  0  0  0
 13 14  2  0  0  0  0
 13 15  1  0  0  0  0
 16 15  1  6  0  0  0
M  CHG  1   2  -1
M  END
>  <CHROM.1>
141.69873168,-176.71238794,-179.35825432,-175.41010764,-47.43598758,16.14160047
0.58952994,13.01959610,-0.69182344,0.56248275,-0.72152629

>  <Name>
1f27 biotin aptamer (Xray 1.3A)

>  <RI>
0

>  <Rbt.Current_Directory>
/home/itssahil/PROJECTS/Mol_Feturizer/New_Systems/rnas/1f27

>  <Rbt.Executable>
rbdock ($Id: //depot/dev/client3/rdock/2013.1/src/exe/rbdock.cxx#4 $)

>  <Rbt.Library>
libRbt.so (2013.1, Build901 2013/11/27)

>  <Rbt.Parameter_File>
/export/apps/rDock/src/rDock_2013.1_src/data/scripts/dock_solv.prm

>  <Rbt.Receptor>
prm/pocket_docking_7.prm

>  <SCORE>
-26.2266

>  <SCORE.INTER>
-23.7606

>  <SCORE.INTER.CONST>
1

>  <SCORE.INTER.POLAR>
-0.947806

>  <SCORE.INTER.ROT>
5

>  <SCORE.INTER.SOLV>
9.47222

>  <SCORE.INTER.VDW>
-22.7718

>  <SCORE.INTER.norm>
-1.48504

>  <SCORE.INTRA>
-2.46607

>  <SCORE.INTRA.DIHEDRAL>
-4.84436

>  <SCORE.INTRA.DIHEDRAL.0>
6.87082

>  <SCORE.INTRA.POLAR>
0

>  <SCORE.INTRA.POLAR.0>
0

>  <SCORE.INTRA.REPUL>
0

>  <SCORE.INTRA.REPUL.0>
0

>  <SCORE.INTRA.SOLV>
-0.803958

>  <SCORE.INTRA.SOLV.lig_0>
-42.5944

>  <SCORE.INTRA.VDW>
0.358094

>  <SCORE.INTRA.VDW.0>
-1.067

>  <SCORE.INTRA.norm>
-0.154129

>  <SCORE.RESTR>
0

>  <SCORE.RESTR.CAVITY>
0

>  <SCORE.RESTR.norm>
0

>  <SCORE.SYSTEM>
0

>  <SCORE.SYSTEM.CONST>
0

>  <SCORE.SYSTEM.DIHEDRAL>
0

>  <SCORE.SYSTEM.SOLV>
0

>  <SCORE.SYSTEM.norm>
0

>  <SCORE.heavy>
16

>  <SCORE.norm>
-1.63917

>  <RMSD>
1.829

$$$$
1f27 biotin aptamer (Xray 1.3A)
 OpenBabel11021811393D
libRbt.so/2013.1/901 2013/11/27
 16 17  0  0  0  0  0  0  0  0999 V2000
   19.6078   -3.8224   13.1944 C   0  0  0  0  0  0  0  0  0  0  0  0
   19.6861   -5.0361   13.3565 O   0  5  0  0  0  0  0  0  0  0  0  0
   20.5337   -3.2159   12.6584 O   0  0  0  0  0  0  0  0  0  0  0  0
   18.3399   -3.0781   13.5930 C   0  0  0  0  0  0  0  0  0  0  0  0
   18.4342   -1.5448   13.4277 C   0  0  0  0  0  0  0  0  0  0  0  0
   17.1450   -0.8567   13.8367 C   0  0  0  0  0  0  0  0  0  0  0  0
   17.1763    0.6459   13.6503 C   0  0  0  0  0  0  0  0  0  0  0  0
   15.8953    1.3744   14.0774 C   0  0  2  0  0  0  0  0  0  0  0  0
   14.2509    0.4800   13.6751 S   0  0  0  0  0  0  0  0  0  0  0  0
   13.3849    2.1415   14.0416 C   0  0  0  0  0  0  0  0  0  0  0  0
   14.3694    3.2315   13.5260 C   0  0  2  0  0  0  0  0  0  0  0  0
   13.9709    3.4902   12.0483 N   0  0  0  0  0  0  0  0  0  0  0  0
   14.9032    3.2552   11.2305 C   0  0  0  0  0  0  0  0  0  0  0  0
   14.8894    3.2009    9.9497 O   0  0  0  0  0  0  0  0  0  0  0  0
   16.0673    2.6501   11.8357 N   0  0  0  0  0  0  0  0  0  0  0  0
   15.7827    2.7086   13.3363 C   0  0  2  0  0  0  0  0  0  0  0  0
  1  2  1  0  0  0  0
  1  3  2  0  0  0  0
  1  4  1  0  0  0  0
  4  5  1  0  0  0  0
  5  6  1  0  0  0  0
  6  7  1  0  0  0  0
  8  7  1  6  0  0  0
  8  9  1  0  0  0  0
  8 16  1  0  0  0  0
  9 10  1  0  0  0  0
 11 10  1  6  0  0  0
 11 12  1  0  0  0  0
 11 16  1  0  0  0  0
 12 13  1  0  0  0  0
 13 14  2  0  0  0  0
 13 15  1  0  0  0  0
 16 15  1  6  0  0  0
M  CHG  1   2  -1
M  END
>  <CHROM.1>
175.59464726,179.92141109,-178.19753924,-179.01180826,-38.54629677,16.39301651
0.31813516,12.98610038,-0.69923131,0.64697761,-0.75835745

>  <Name>
1f27 biotin aptamer (Xray 1.3A)

>  <RI>
0

>  <Rbt.Current_Directory>
/home/itssahil/PROJECTS/Mol_Feturizer/New_Systems/rnas/1f27

>  <Rbt.Executable>
rbdock ($Id: //depot/dev/client3/rdock/2013.1/src/exe/rbdock.cxx#4 $)

>  <Rbt.Library>
libRbt.so (2013.1, Build901 2013/11/27)

>  <Rbt.Parameter_File>
/export/apps/rDock/src/rDock_2013.1_src/data/scripts/dock_solv.prm

>  <Rbt.Receptor>
prm/pocket_docking_8.prm

>  <SCORE>
-26.2149

>  <SCORE.INTER>
-24.7526

>  <SCORE.INTER.CONST>
1

>  <SCORE.INTER.POLAR>
-1.24634

>  <SCORE.INTER.ROT>
5

>  <SCORE.INTER.SOLV>
9.04656

>  <SCORE.INTER.VDW>
-22.2961

>  <SCORE.INTER.norm>
-1.54704

>  <SCORE.INTRA>
-1.46231

>  <SCORE.INTRA.DIHEDRAL>
-3.84112

>  <SCORE.INTRA.DIHEDRAL.0>
6.87082

>  <SCORE.INTRA.POLAR>
0

>  <SCORE.INTRA.POLAR.0>
0

>  <SCORE.INTRA.REPUL>
0

>  <SCORE.INTRA.REPUL.0>
0

>  <SCORE.INTRA.SOLV>
-0.719982

>  <SCORE.INTRA.SOLV.lig_0>
-42.5944

>  <SCORE.INTRA.VDW>
0.818238

>  <SCORE.INTRA.VDW.0>
-1.067

>  <SCORE.INTRA.norm>
-0.0913945

>  <SCORE.RESTR>
0

>  <SCORE.RESTR.CAVITY>
0

>  <SCORE.RESTR.norm>
0

>  <SCORE.SYSTEM>
0

>  <SCORE.SYSTEM.CONST>
0

>  <SCORE.SYSTEM.DIHEDRAL>
0

>  <SCORE.SYSTEM.SOLV>
0

>  <SCORE.SYSTEM.norm>
0

>  <SCORE.heavy>
16

>  <SCORE.norm>
-1.63843

>  <RMSD>
1.829

$$$$
1f27 biotin aptamer (Xray 1.3A)
 OpenBabel11021811393D
libRbt.so/2013.1/901 2013/11/27
 16 17  0  0  0  0  0  0  0  0999 V2000
   22.1544    0.0882   14.7951 C   0  0  0  0  0  0  0  0  0  0  0  0
   22.9975    0.8189   15.3055 O   0  5  0  0  0  0  0  0  0  0  0  0
   22.5027   -0.7937   14.0119 O   0  0  0  0  0  0  0  0  0  0  0  0
   20.6875    0.2269   15.1818 C   0  0  0  0  0  0  0  0  0  0  0  0
   19.8691    1.1246   14.2272 C   0  0  0  0  0  0  0  0  0  0  0  0
   18.3818    1.0407   14.5164 C   0  0  0  0  0  0  0  0  0  0  0  0
   17.5472    1.9773   13.6679 C   0  0  0  0  0  0  0  0  0  0  0  0
   16.0564    2.0169   14.0289 C   0  0  2  0  0  0  0  0  0  0  0  0
   15.1047    0.3670   13.8342 S   0  0  0  0  0  0  0  0  0  0  0  0
   13.5053    1.3999   13.9759 C   0  0  0  0  0  0  0  0  0  0  0  0
   13.8289    2.7440   13.2605 C   0  0  2  0  0  0  0  0  0  0  0  0
   13.4189    2.5383   11.7777 N   0  0  0  0  0  0  0  0  0  0  0  0
   14.3772    2.6833   10.9691 C   0  0  0  0  0  0  0  0  0  0  0  0
   14.4481    2.4351    9.7133 O   0  0  0  0  0  0  0  0  0  0  0  0
   15.6602    2.8470   11.6131 N   0  0  0  0  0  0  0  0  0  0  0  0
   15.3201    2.9820   13.0971 C   0  0  2  0  0  0  0  0  0  0  0  0
  1  2  1  0  0  0  0
  1  3  2  0  0  0  0
  1  4  1  0  0  0  0
  4  5  1  0  0  0  0
  5  6  1  0  0  0  0
  6  7  1  0  0  0  0
  8  7  1  6  0  0  0
  8  9  1  0  0  0  0
  8 16  1  0  0  0  0
  9 10  1  0  0  0  0
 11 10  1  1  0  0  0
 11 12  1  0  0  0  0
 11 16  1  0  0  0  0
 12 13  1  0  0  0  0
 13 14  2  0  0  0  0
 13 15  1  0  0  0  0
 16 15  1  6  0  0  0
M  CHG  1   2  -1
M  END
>  <CHROM.1>
95.16575339,170.33315434,176.00743959,-174.32964663,-61.84642917,17.13722102
1.42531566,13.38895497,-0.39814904,0.09403630,-1.14025482

>  <Name>
1f27 biotin aptamer (Xray 1.3A)

>  <RI>
0

>  <Rbt.Current_Directory>
/home/itssahil/PROJECTS/Mol_Feturizer/New_Systems/rnas/1f27

>  <Rbt.Executable>
rbdock ($Id: //depot/dev/client3/rdock/2013.1/src/exe/rbdock.cxx#4 $)

>  <Rbt.Library>
libRbt.so (2013.1, Build901 2013/11/27)

>  <Rbt.Parameter_File>
/export/apps/rDock/src/rDock_2013.1_src/data/scripts/dock_solv.prm

>  <Rbt.Receptor>
prm/pocket_docking_5.prm

>  <SCORE>
-28.3946

>  <SCORE.INTER>
-25.5325

>  <SCORE.INTER.CONST>
1

>  <SCORE.INTER.POLAR>
-1.53192

>  <SCORE.INTER.ROT>
5

>  <SCORE.INTER.SOLV>
14.2198

>  <SCORE.INTER.VDW>
-23.5885

>  <SCORE.INTER.norm>
-1.59578

>  <SCORE.INTRA>
-2.86219

>  <SCORE.INTRA.DIHEDRAL>
-4.85257

>  <SCORE.INTRA.DIHEDRAL.0>
6.87082

>  <SCORE.INTRA.POLAR>
0

>  <SCORE.INTRA.POLAR.0>
0

>  <SCORE.INTRA.REPUL>
0

>  <SCORE.INTRA.REPUL.0>
0

>  <SCORE.INTRA.SOLV>
-0.877192

>  <SCORE.INTRA.SOLV.lig_0>
-42.5944

>  <SCORE.INTRA.VDW>
0.00268872

>  <SCORE.INTRA.VDW.0>
-1.067

>  <SCORE.INTRA.norm>
-0.178887

>  <SCORE.RESTR>
0

>  <SCORE.RESTR.CAVITY>
0

>  <SCORE.RESTR.norm>
0

>  <SCORE.SYSTEM>
0

>  <SCORE.SYSTEM.CONST>
0

>  <SCORE.SYSTEM.DIHEDRAL>
0

>  <SCORE.SYSTEM.SOLV>
0

>  <SCORE.SYSTEM.norm>
0

>  <SCORE.heavy>
16

>  <SCORE.norm>
-1.77467

>  <RMSD>
1.830

$$$$
1f27 biotin aptamer (Xray 1.3A)
 OpenBabel11021811393D
libRbt.so/2013.1/901 2013/11/27
 16 17  0  0  0  0  0  0  0  0999 V2000
   20.7612   -0.0769   12.5593 C   0  0  0  0  0  0  0  0  0  0  0  0
   19.8282   -0.8583   12.7155 O   0  5  0  0  0  0  0  0  0  0  0  0
   21.8566   -0.4979   12.1915 O   0  0  0  0  0  0  0  0  0  0  0  0
   20.5466    1.4187   12.7536 C   0  0  0  0  0  0  0  0  0  0  0  0
   20.0670    1.8049   14.1706 C   0  0  0  0  0  0  0  0  0  0  0  0
   18.6300    2.2927   14.1623 C   0  0  0  0  0  0  0  0  0  0  0  0
   17.6245    1.2060   13.8435 C   0  0  0  0  0  0  0  0  0  0  0  0
   16.1754    1.5384   14.2228 C   0  0  2  0  0  0  0  0  0  0  0  0
   14.8655    0.2229   13.7543 S   0  0  0  0  0  0  0  0  0  0  0  0
   13.5536    1.5682   14.0919 C   0  0  0  0  0  0  0  0  0  0  0  0
   14.2091    2.8983   13.6182 C   0  0  2  0  0  0  0  0  0  0  0  0
   13.8079    3.0547   12.1270 N   0  0  0  0  0  0  0  0  0  0  0  0
   14.7977    3.1031   11.3453 C   0  0  0  0  0  0  0  0  0  0  0  0
   14.8464    3.0648   10.0647 O   0  0  0  0  0  0  0  0  0  0  0  0
   16.0624    2.8419   11.9934 N   0  0  0  0  0  0  0  0  0  0  0  0
   15.7185    2.7970   13.4819 C   0  0  2  0  0  0  0  0  0  0  0  0
  1  2  1  0  0  0  0
  1  3  2  0  0  0  0
  1  4  1  0  0  0  0
  4  5  1  0  0  0  0
  5  6  1  0  0  0  0
  6  7  1  0  0  0  0
  8  7  1  6  0  0  0
  8  9  1  0  0  0  0
  8 16  1  0  0  0  0
  9 10  1  0  0  0  0
 11 10  1  6  0  0  0
 11 12  1  0  0  0  0
 11 16  1  0  0  0  0
 12 13  1  0  0  0  0
 13 14  2  0  0  0  0
 13 15  1  0  0  0  0
 16 15  1  6  0  0  0
M  CHG  1   2  -1
M  END
>  <CHROM.1>
59.80931870,-110.56509907,68.39386430,162.81461584,177.06227786,16.95455453
1.51983760,12.96784967,-0.21803333,0.23181985,-0.92075370

>  <Name>
1f27 biotin aptamer (Xray 1.3A)

>  <RI>
0

>  <Rbt.Current_Directory>
/home/itssahil/PROJECTS/Mol_Feturizer/New_Systems/rnas/1f27

>  <Rbt.Executable>
rbdock ($Id: //depot/dev/client3/rdock/2013.1/src/exe/rbdock.cxx#4 $)

>  <Rbt.Library>
libRbt.so (2013.1, Build901 2013/11/27)

>  <Rbt.Parameter_File>
/export/apps/rDock/src/rDock_2013.1_src/data/scripts/dock_solv.prm

>  <Rbt.Receptor>
prm/pocket_docking_4.prm

>  <SCORE>
-30.2794

>  <SCORE.INTER>
-31.5891

>  <SCORE.INTER.CONST>
1

>  <SCORE.INTER.POLAR>
-2.2814

>  <SCORE.INTER.ROT>
5

>  <SCORE.INTER.SOLV>
14.5414

>  <SCORE.INTER.VDW>
-25.2352

>  <SCORE.INTER.norm>
-1.97432

>  <SCORE.INTRA>
1.3097

>  <SCORE.INTRA.DIHEDRAL>
1.01528

>  <SCORE.INTRA.DIHEDRAL.0>
6.87082

>  <SCORE.INTRA.POLAR>
0

>  <SCORE.INTRA.POLAR.0>
0

>  <SCORE.INTRA.REPUL>
0

>  <SCORE.INTRA.REPUL.0>
0

>  <SCORE.INTRA.SOLV>
0.465658

>  <SCORE.INTRA.SOLV.lig_0>
-42.5944

>  <SCORE.INTRA.VDW>
0.569232

>  <SCORE.INTRA.VDW.0>
-1.067

>  <SCORE.INTRA.norm>
0.0818564

>  <SCORE.RESTR>
0

>  <SCORE.RESTR.CAVITY>
0

>  <SCORE.RESTR.norm>
0

>  <SCORE.SYSTEM>
0

>  <SCORE.SYSTEM.CONST>
0

>  <SCORE.SYSTEM.DIHEDRAL>
0

>  <SCORE.SYSTEM.SOLV>
0

>  <SCORE.SYSTEM.norm>
0

>  <SCORE.heavy>
16

>  <SCORE.norm>
-1.89246

>  <RMSD>
1.837

$$$$
1f27 biotin aptamer (Xray 1.3A)
 OpenBabel11021811393D
libRbt.so/2013.1/901 2013/11/27
 16 17  0  0  0  0  0  0  0  0999 V2000
   20.7963   -0.2910   13.2265 C   0  0  0  0  0  0  0  0  0  0  0  0
   21.0639   -1.0345   14.1651 O   0  5  0  0  0  0  0  0  0  0  0  0
   21.6781    0.0346   12.4334 O   0  0  0  0  0  0  0  0  0  0  0  0
   19.3626    0.1729   13.0033 C   0  0  0  0  0  0  0  0  0  0  0  0
   19.2461    1.6227   12.4823 C   0  0  0  0  0  0  0  0  0  0  0  0
   17.8197    2.1343   12.5627 C   0  0  0  0  0  0  0  0  0  0  0  0
   17.3653    2.4385   13.9750 C   0  0  0  0  0  0  0  0  0  0  0  0
   15.9254    2.0148   14.2933 C   0  0  2  0  0  0  0  0  0  0  0  0
   15.3536    0.3552   13.5288 S   0  0  0  0  0  0  0  0  0  0  0  0
   13.5755    0.8885   13.9748 C   0  0  0  0  0  0  0  0  0  0  0  0
   13.5527    2.4308   13.7652 C   0  0  2  0  0  0  0  0  0  0  0  0
   13.1165    2.6465   12.2913 N   0  0  0  0  0  0  0  0  0  0  0  0
   13.9722    3.2679   11.6023 C   0  0  0  0  0  0  0  0  0  0  0  0
   14.0262    3.4780   10.3387 O   0  0  0  0  0  0  0  0  0  0  0  0
   15.2209    3.4934   12.2934 N   0  0  0  0  0  0  0  0  0  0  0  0
   14.9426    3.0421   13.7269 C   0  0  2  0  0  0  0  0  0  0  0  0
  1  2  1  0  0  0  0
  1  3  2  0  0  0  0
  1  4  1  0  0  0  0
  4  5  1  0  0  0  0
  5  6  1  0  0  0  0
  6  7  1  0  0  0  0
  8  7  1  6  0  0  0
  8  9  1  0  0  0  0
  8 16  1  0  0  0  0
  9 10  1  0  0  0  0
 11 10  1  6  0  0  0
 11 12  1  0  0  0  0
 11 16  1  0  0  0  0
 12 13  1  0  0  0  0
 13 14  2  0  0  0  0
 13 15  1  0  0  0  0
 16 15  1  6  0  0  0
M  CHG  1   2  -1
M  END
>  <CHROM.1>
143.97455051,-167.65805918,72.88454744,-139.46911446,38.37632381,16.63497859
1.55479902,12.99207238,0.32925211,-0.20690867,2.35822628

>  <Name>
1f27 biotin aptamer (Xray 1.3A)

>  <RI>
0

>  <Rbt.Current_Directory>
/home/itssahil/PROJECTS/Mol_Feturizer/New_Systems/rnas/1f27

>  <Rbt.Executable>
rbdock ($Id: //depot/dev/client3/rdock/2013.1/src/exe/rbdock.cxx#4 $)

>  <Rbt.Library>
libRbt.so (2013.1, Build901 2013/11/27)

>  <Rbt.Parameter_File>
/export/apps/rDock/src/rDock_2013.1_src/data/scripts/dock_solv.prm

>  <Rbt.Receptor>
prm/blind_docking_60.prm

>  <SCORE>
-26.825

>  <SCORE.INTER>
-28.5449

>  <SCORE.INTER.CONST>
1

>  <SCORE.INTER.POLAR>
-1.64183

>  <SCORE.INTER.ROT>
5

>  <SCORE.INTER.SOLV>
11.3895

>  <SCORE.INTER.VDW>
-24.287

>  <SCORE.INTER.norm>
-1.78405

>  <SCORE.INTRA>
1.71986

>  <SCORE.INTRA.DIHEDRAL>
1.9322

>  <SCORE.INTRA.DIHEDRAL.0>
6.87082

>  <SCORE.INTRA.POLAR>
0

>  <SCORE.INTRA.POLAR.0>
0

>  <SCORE.INTRA.REPUL>
0

>  <SCORE.INTRA.REPUL.0>
0

>  <SCORE.INTRA.SOLV>
-0.32004

>  <SCORE.INTRA.SOLV.lig_0>
-42.5944

>  <SCORE.INTRA.VDW>
0.913784

>  <SCORE.INTRA.VDW.0>
-1.067

>  <SCORE.INTRA.norm>
0.107491

>  <SCORE.RESTR>
0

>  <SCORE.RESTR.CAVITY>
0

>  <SCORE.RESTR.norm>
0

>  <SCORE.SYSTEM>
0

>  <SCORE.SYSTEM.CONST>
0

>  <SCORE.SYSTEM.DIHEDRAL>
0

>  <SCORE.SYSTEM.SOLV>
0

>  <SCORE.SYSTEM.norm>
0

>  <SCORE.heavy>
16

>  <SCORE.norm>
-1.67656

>  <RMSD>
1.838

$$$$
1f27 biotin aptamer (Xray 1.3A)
 OpenBabel11021811393D
libRbt.so/2013.1/901 2013/11/27
 16 17  0  0  0  0  0  0  0  0999 V2000
   21.9092   -0.2184   15.8889 C   0  0  0  0  0  0  0  0  0  0  0  0
   22.0107    0.0540   17.0809 O   0  5  0  0  0  0  0  0  0  0  0  0
   21.6033   -1.3591   15.5459 O   0  0  0  0  0  0  0  0  0  0  0  0
   22.0942    0.8687   14.8379 C   0  0  0  0  0  0  0  0  0  0  0  0
   20.9786    0.9049   13.7696 C   0  0  0  0  0  0  0  0  0  0  0  0
   19.6190    1.1730   14.3880 C   0  0  0  0  0  0  0  0  0  0  0  0
   18.5071    1.3075   13.3685 C   0  0  0  0  0  0  0  0  0  0  0  0
   17.0927    1.3561   13.9612 C   0  0  2  0  0  0  0  0  0  0  0  0
   15.9424   -0.1035   13.5008 S   0  0  0  0  0  0  0  0  0  0  0  0
   14.5042    0.9658   14.1591 C   0  0  0  0  0  0  0  0  0  0  0  0
   14.8791    2.4267   13.7740 C   0  0  2  0  0  0  0  0  0  0  0  0
   14.2527    2.6643   12.3739 N   0  0  0  0  0  0  0  0  0  0  0  0
   15.1037    2.9540   11.4879 C   0  0  0  0  0  0  0  0  0  0  0  0
   14.9764    3.0535   10.2160 O   0  0  0  0  0  0  0  0  0  0  0  0
   16.4719    2.8411   11.9384 N   0  0  0  0  0  0  0  0  0  0  0  0
   16.3520    2.5903   13.4413 C   0  0  2  0  0  0  0  0  0  0  0  0
  1  2  1  0  0  0  0
  1  3  2  0  0  0  0
  1  4  1  0  0  0  0
  4  5  1  0  0  0  0
  5  6  1  0  0  0  0
  6  7  1  0  0  0  0
  8  7  1  6  0  0  0
  8  9  1  0  0  0  0
  8 16  1  0  0  0  0
  9 10  1  0  0  0  0
 11 10  1  6  0  0  0
 11 12  1  0  0  0  0
 11 16  1  0  0  0  0
 12 13  1  0  0  0  0
 13 14  2  0  0  0  0
 13 15  1  0  0  0  0
 16 15  1  6  0  0  0
M  CHG  1   2  -1
M  END
>  <CHROM.1>
-131.37317421,60.83171644,176.22028605,170.75502429,-115.53488888,17.77925513
1.21812621,13.71414062,0.54197047,0.08587895,2.31730131

>  <Name>
1f27 biotin aptamer (Xray 1.3A)

>  <RI>
0

>  <Rbt.Current_Directory>
/home/itssahil/PROJECTS/Mol_Feturizer/New_Systems/rnas/1f27

>  <Rbt.Executable>
rbdock ($Id: //depot/dev/client3/rdock/2013.1/src/exe/rbdock.cxx#4 $)

>  <Rbt.Library>
libRbt.so (2013.1, Build901 2013/11/27)

>  <Rbt.Parameter_File>
/export/apps/rDock/src/rDock_2013.1_src/data/scripts/dock_solv.prm

>  <Rbt.Receptor>
prm/pocket_docking_4.prm

>  <SCORE>
-28.8667

>  <SCORE.INTER>
-29.5842

>  <SCORE.INTER.CONST>
1

>  <SCORE.INTER.POLAR>
-2.0705

>  <SCORE.INTER.ROT>
5

>  <SCORE.INTER.SOLV>
10.7558

>  <SCORE.INTER.VDW>
-23.3397

>  <SCORE.INTER.norm>
-1.84901

>  <SCORE.INTRA>
0.717496

>  <SCORE.INTRA.DIHEDRAL>
0.734952

>  <SCORE.INTRA.DIHEDRAL.0>
6.87082

>  <SCORE.INTRA.POLAR>
0

>  <SCORE.INTRA.POLAR.0>
0

>  <SCORE.INTRA.REPUL>
0

>  <SCORE.INTRA.REPUL.0>
0

>  <SCORE.INTRA.SOLV>
0.184247

>  <SCORE.INTRA.SOLV.lig_0>
-42.5944

>  <SCORE.INTRA.VDW>
0.257896

>  <SCORE.INTRA.VDW.0>
-1.067

>  <SCORE.INTRA.norm>
0.0448435

>  <SCORE.RESTR>
0

>  <SCORE.RESTR.CAVITY>
0

>  <SCORE.RESTR.norm>
0

>  <SCORE.SYSTEM>
0

>  <SCORE.SYSTEM.CONST>
0

>  <SCORE.SYSTEM.DIHEDRAL>
0

>  <SCORE.SYSTEM.SOLV>
0

>  <SCORE.SYSTEM.norm>
0

>  <SCORE.heavy>
16

>  <SCORE.norm>
-1.80417

>  <RMSD>
1.844

$$$$
1f27 biotin aptamer (Xray 1.3A)
 OpenBabel11021811393D
libRbt.so/2013.1/901 2013/11/27
 16 17  0  0  0  0  0  0  0  0999 V2000
   20.6748   -0.0613   13.2143 C   0  0  0  0  0  0  0  0  0  0  0  0
   21.6595   -0.0201   12.4836 O   0  5  0  0  0  0  0  0  0  0  0  0
   19.7918   -0.8913   13.0047 O   0  0  0  0  0  0  0  0  0  0  0  0
   20.5770    0.8664   14.4186 C   0  0  0  0  0  0  0  0  0  0  0  0
   19.6802    2.1029   14.1869 C   0  0  0  0  0  0  0  0  0  0  0  0
   18.7115    1.8856   13.0392 C   0  0  0  0  0  0  0  0  0  0  0  0
   17.5315    2.8348   13.0561 C   0  0  0  0  0  0  0  0  0  0  0  0
   16.3084    2.3275   13.8313 C   0  0  2  0  0  0  0  0  0  0  0  0
   15.6758    0.5860   13.3488 S   0  0  0  0  0  0  0  0  0  0  0  0
   14.0879    1.0145   14.3183 C   0  0  0  0  0  0  0  0  0  0  0  0
   13.8629    2.5349   14.0715 C   0  0  2  0  0  0  0  0  0  0  0  0
   12.9681    2.6256   12.8064 N   0  0  0  0  0  0  0  0  0  0  0  0
   13.5049    3.2638   11.8590 C   0  0  0  0  0  0  0  0  0  0  0  0
   13.1401    3.3980   10.6372 O   0  0  0  0  0  0  0  0  0  0  0  0
   14.8821    3.6229   12.1079 N   0  0  0  0  0  0  0  0  0  0  0  0
   15.1099    3.2428   13.5707 C   0  0  2  0  0  0  0  0  0  0  0  0
  1  2  1  0  0  0  0
  1  3  2  0  0  0  0
  1  4  1  0  0  0  0
  4  5  1  0  0  0  0
  5  6  1  0  0  0  0
  6  7  1  0  0  0  0
  8  7  1  6  0  0  0
  8  9  1  0  0  0  0
  8 16  1  0  0  0  0
  9 10  1  0  0  0  0
 11 10  1  6  0  0  0
 11 12  1  0  0  0  0
 11 16  1  0  0  0  0
 12 13  1  0  0  0  0
 13 14  2  0  0  0  0
 13 15  1  0  0  0  0
 16 15  1  6  0  0  0
M  CHG  1   2  -1
M  END
>  <CHROM.1>
100.63848068,20.73951209,160.82667773,-90.45310379,-52.35789586,16.70573279
1.71986459,13.10517582,0.34754914,-0.09154458,2.57665204

>  <Name>
1f27 biotin aptamer (Xray 1.3A)

>  <RI>
0

>  <Rbt.Current_Directory>
/home/itssahil/PROJECTS/Mol_Feturizer/New_Systems/rnas/1f27

>  <Rbt.Executable>
rbdock ($Id: //depot/dev/client3/rdock/2013.1/src/exe/rbdock.cxx#4 $)

>  <Rbt.Library>
libRbt.so (2013.1, Build901 2013/11/27)

>  <Rbt.Parameter_File>
/export/apps/rDock/src/rDock_2013.1_src/data/scripts/dock_solv.prm

>  <Rbt.Receptor>
prm/blind_docking_100.prm

>  <SCORE>
-23.2655

>  <SCORE.INTER>
-26.8973

>  <SCORE.INTER.CONST>
1

>  <SCORE.INTER.POLAR>
-1.53771

>  <SCORE.INTER.ROT>
5

>  <SCORE.INTER.SOLV>
11.8004

>  <SCORE.INTER.VDW>
-23.6727

>  <SCORE.INTER.norm>
-1.68108

>  <SCORE.INTRA>
3.35012

>  <SCORE.INTRA.DIHEDRAL>
3.31595

>  <SCORE.INTRA.DIHEDRAL.0>
6.87082

>  <SCORE.INTRA.POLAR>
0

>  <SCORE.INTRA.POLAR.0>
0

>  <SCORE.INTRA.REPUL>
0

>  <SCORE.INTRA.REPUL.0>
0

>  <SCORE.INTRA.SOLV>
0.796379

>  <SCORE.INTRA.SOLV.lig_0>
-42.5944

>  <SCORE.INTRA.VDW>
1.29396

>  <SCORE.INTRA.VDW.0>
-1.067

>  <SCORE.INTRA.norm>
0.209383

>  <SCORE.RESTR>
0.281655

>  <SCORE.RESTR.CAVITY>
0.281655

>  <SCORE.RESTR.norm>
0.0176034

>  <SCORE.SYSTEM>
0

>  <SCORE.SYSTEM.CONST>
0

>  <SCORE.SYSTEM.DIHEDRAL>
0

>  <SCORE.SYSTEM.SOLV>
0

>  <SCORE.SYSTEM.norm>
0

>  <SCORE.heavy>
16

>  <SCORE.norm>
-1.4541

>  <RMSD>
1.848

$$$$
1f27 biotin aptamer (Xray 1.3A)
 OpenBabel11021811393D
libRbt.so/2013.1/901 2013/11/27
 16 17  0  0  0  0  0  0  0  0999 V2000
   20.9052   -0.0234   13.1007 C   0  0  0  0  0  0  0  0  0  0  0  0
   21.2902    0.2472   14.2337 O   0  5  0  0  0  0  0  0  0  0  0  0
   21.7262   -0.2476   12.2129 O   0  0  0  0  0  0  0  0  0  0  0  0
   19.4153   -0.1490   12.8090 C   0  0  0  0  0  0  0  0  0  0  0  0
   18.5984   -0.7616   13.9685 C   0  0  0  0  0  0  0  0  0  0  0  0
   17.1544   -0.2955   13.9442 C   0  0  0  0  0  0  0  0  0  0  0  0
   17.0005    1.2036   14.0946 C   0  0  0  0  0  0  0  0  0  0  0  0
   15.5594    1.6844   14.3100 C   0  0  2  0  0  0  0  0  0  0  0  0
   14.1827    0.4618   13.7851 S   0  0  0  0  0  0  0  0  0  0  0  0
   12.9757    1.9350   13.9185 C   0  0  0  0  0  0  0  0  0  0  0  0
   13.7936    3.1706   13.4416 C   0  0  2  0  0  0  0  0  0  0  0  0
   13.5505    3.2683   11.9117 N   0  0  0  0  0  0  0  0  0  0  0  0
   14.6095    3.1811   11.2304 C   0  0  0  0  0  0  0  0  0  0  0  0
   14.7743    3.0590    9.9649 O   0  0  0  0  0  0  0  0  0  0  0  0
   15.7779    2.8513   12.0137 N   0  0  0  0  0  0  0  0  0  0  0  0
   15.2931    2.9295   13.4611 C   0  0  2  0  0  0  0  0  0  0  0  0
  1  2  1  0  0  0  0
  1  3  2  0  0  0  0
  1  4  1  0  0  0  0
  4  5  1  0  0  0  0
  5  6  1  0  0  0  0
  6  7  1  0  0  0  0
  8  7  1  6  0  0  0
  8  9  1  0  0  0  0
  8 16  1  0  0  0  0
  9 10  1  0  0  0  0
 11 10  1  6  0  0  0
 11 12  1  0  0  0  0
 11 16  1  0  0  0  0
 12 13  1  0  0  0  0
 13 14  2  0  0  0  0
 13 15  1  0  0  0  0
 16 15  1  6  0  0  0
M  CHG  1   2  -1
M  END
>  <CHROM.1>
-35.48654136,153.25637147,-61.11302474,-170.22547418,-19.55472430,16.52987745
1.32310390,13.05314550,-0.30924339,0.25468355,-0.92664632

>  <Name>
1f27 biotin aptamer (Xray 1.3A)

>  <RI>
0

>  <Rbt.Current_Directory>
/home/itssahil/PROJECTS/Mol_Feturizer/New_Systems/rnas/1f27

>  <Rbt.Executable>
rbdock ($Id: //depot/dev/client3/rdock/2013.1/src/exe/rbdock.cxx#4 $)

>  <Rbt.Library>
libRbt.so (2013.1, Build901 2013/11/27)

>  <Rbt.Parameter_File>
/export/apps/rDock/src/rDock_2013.1_src/data/scripts/dock_solv.prm

>  <Rbt.Receptor>
prm/pocket_docking_7.prm

>  <SCORE>
-26.4282

>  <SCORE.INTER>
-28.5242

>  <SCORE.INTER.CONST>
1

>  <SCORE.INTER.POLAR>
-2.30221

>  <SCORE.INTER.ROT>
5

>  <SCORE.INTER.SOLV>
13.6795

>  <SCORE.INTER.VDW>
-22.8352

>  <SCORE.INTER.norm>
-1.78276

>  <SCORE.INTRA>
2.09595

>  <SCORE.INTRA.DIHEDRAL>
1.68341

>  <SCORE.INTRA.DIHEDRAL.0>
6.87082

>  <SCORE.INTRA.POLAR>
0

>  <SCORE.INTRA.POLAR.0>
0

>  <SCORE.INTRA.REPUL>
0

>  <SCORE.INTRA.REPUL.0>
0

>  <SCORE.INTRA.SOLV>
-0.404788

>  <SCORE.INTRA.SOLV.lig_0>
-42.5944

>  <SCORE.INTRA.VDW>
1.45664

>  <SCORE.INTRA.VDW.0>
-1.067

>  <SCORE.INTRA.norm>
0.130997

>  <SCORE.RESTR>
0

>  <SCORE.RESTR.CAVITY>
0

>  <SCORE.RESTR.norm>
0

>  <SCORE.SYSTEM>
0

>  <SCORE.SYSTEM.CONST>
0

>  <SCORE.SYSTEM.DIHEDRAL>
0

>  <SCORE.SYSTEM.SOLV>
0

>  <SCORE.SYSTEM.norm>
0

>  <SCORE.heavy>
16

>  <SCORE.norm>
-1.65176

>  <RMSD>
1.849

$$$$
1f27 biotin aptamer (Xray 1.3A)
 OpenBabel11021811393D
libRbt.so/2013.1/901 2013/11/27
 16 17  0  0  0  0  0  0  0  0999 V2000
   21.7527   -0.2152   14.0246 C   0  0  0  0  0  0  0  0  0  0  0  0
   21.9703   -0.1041   12.8222 O   0  5  0  0  0  0  0  0  0  0  0  0
   22.6804   -0.4597   14.7941 O   0  0  0  0  0  0  0  0  0  0  0  0
   20.3503    0.0163   14.5723 C   0  0  0  0  0  0  0  0  0  0  0  0
   19.6547    1.2738   14.0049 C   0  0  0  0  0  0  0  0  0  0  0  0
   18.2074    1.3637   14.4522 C   0  0  0  0  0  0  0  0  0  0  0  0
   17.4224    2.4488   13.7451 C   0  0  0  0  0  0  0  0  0  0  0  0
   15.9301    2.4981   14.0985 C   0  0  2  0  0  0  0  0  0  0  0  0
   15.0143    0.8167   14.0963 S   0  0  0  0  0  0  0  0  0  0  0  0
   13.3929    1.8245   14.1165 C   0  0  0  0  0  0  0  0  0  0  0  0
   13.6898    3.0832   13.2501 C   0  0  2  0  0  0  0  0  0  0  0  0
   13.2885    2.6981   11.8011 N   0  0  0  0  0  0  0  0  0  0  0  0
   14.2458    2.7689   10.9815 C   0  0  0  0  0  0  0  0  0  0  0  0
   14.3255    2.3782    9.7630 O   0  0  0  0  0  0  0  0  0  0  0  0
   15.5232    3.0336   11.6026 N   0  0  0  0  0  0  0  0  0  0  0  0
   15.1761    3.3325   13.0607 C   0  0  2  0  0  0  0  0  0  0  0  0
  1  2  1  0  0  0  0
  1  3  2  0  0  0  0
  1  4  1  0  0  0  0
  4  5  1  0  0  0  0
  5  6  1  0  0  0  0
  6  7  1  0  0  0  0
  8  7  1  6  0  0  0
  8  9  1  0  0  0  0
  8 16  1  0  0  0  0
  9 10  1  0  0  0  0
 11 10  1  1  0  0  0
 11 12  1  0  0  0  0
 11 16  1  0  0  0  0
 12 13  1  0  0  0  0
 13 14  2  0  0  0  0
 13 15  1  0  0  0  0
 16 15  1  6  0  0  0
M  CHG  1   2  -1
M  END
>  <CHROM.1>
-45.13044887,173.09817648,-170.56958418,175.67632363,-46.32219192,16.94115072
1.58175361,13.24049117,-0.30882811,0.25213945,-1.30450678

>  <Name>
1f27 biotin aptamer (Xray 1.3A)

>  <RI>
0

>  <Rbt.Current_Directory>
/home/itssahil/PROJECTS/Mol_Feturizer/New_Systems/rnas/1f27

>  <Rbt.Executable>
rbdock ($Id: //depot/dev/client3/rdock/2013.1/src/exe/rbdock.cxx#4 $)

>  <Rbt.Library>
libRbt.so (2013.1, Build901 2013/11/27)

>  <Rbt.Parameter_File>
/export/apps/rDock/src/rDock_2013.1_src/data/scripts/dock_solv.prm

>  <Rbt.Receptor>
prm/pocket_docking_5.prm

>  <SCORE>
-29.7092

>  <SCORE.INTER>
-27.5904

>  <SCORE.INTER.CONST>
1

>  <SCORE.INTER.POLAR>
-2.1323

>  <SCORE.INTER.ROT>
5

>  <SCORE.INTER.SOLV>
12.9419

>  <SCORE.INTER.VDW>
-22.5332

>  <SCORE.INTER.norm>
-1.7244

>  <SCORE.INTRA>
-2.11887

>  <SCORE.INTRA.DIHEDRAL>
-4.08681

>  <SCORE.INTRA.DIHEDRAL.0>
6.87082

>  <SCORE.INTRA.POLAR>
0

>  <SCORE.INTRA.POLAR.0>
0

>  <SCORE.INTRA.REPUL>
0

>  <SCORE.INTRA.REPUL.0>
0

>  <SCORE.INTRA.SOLV>
-0.774954

>  <SCORE.INTRA.SOLV.lig_0>
-42.5944

>  <SCORE.INTRA.VDW>
0.312015

>  <SCORE.INTRA.VDW.0>
-1.067

>  <SCORE.INTRA.norm>
-0.132429

>  <SCORE.RESTR>
0

>  <SCORE.RESTR.CAVITY>
0

>  <SCORE.RESTR.norm>
0

>  <SCORE.SYSTEM>
0

>  <SCORE.SYSTEM.CONST>
0

>  <SCORE.SYSTEM.DIHEDRAL>
0

>  <SCORE.SYSTEM.SOLV>
0

>  <SCORE.SYSTEM.norm>
0

>  <SCORE.heavy>
16

>  <SCORE.norm>
-1.85683

>  <RMSD>
1.855

$$$$
1f27 biotin aptamer (Xray 1.3A)
 OpenBabel11021811393D
libRbt.so/2013.1/901 2013/11/27
 16 17  0  0  0  0  0  0  0  0999 V2000
   21.4224    0.0189   13.5054 C   0  0  0  0  0  0  0  0  0  0  0  0
   21.9851   -0.1880   12.4350 O   0  5  0  0  0  0  0  0  0  0  0  0
   22.0725    0.0137   14.5494 O   0  0  0  0  0  0  0  0  0  0  0  0
   19.9356    0.3493   13.5362 C   0  0  0  0  0  0  0  0  0  0  0  0
   19.5600    1.6257   12.7508 C   0  0  0  0  0  0  0  0  0  0  0  0
   18.0596    1.8521   12.7337 C   0  0  0  0  0  0  0  0  0  0  0  0
   17.4834    2.1880   14.0934 C   0  0  0  0  0  0  0  0  0  0  0  0
   15.9838    1.9011   14.2458 C   0  0  2  0  0  0  0  0  0  0  0  0
   15.3867    0.2029   13.5939 S   0  0  0  0  0  0  0  0  0  0  0  0
   13.6143    0.9016   13.7182 C   0  0  0  0  0  0  0  0  0  0  0  0
   13.7466    2.4056   13.3395 C   0  0  2  0  0  0  0  0  0  0  0  0
   13.5329    2.4708   11.8035 N   0  0  0  0  0  0  0  0  0  0  0  0
   14.5219    2.9474   11.1807 C   0  0  0  0  0  0  0  0  0  0  0  0
   14.7634    3.0000    9.9227 O   0  0  0  0  0  0  0  0  0  0  0  0
   15.6799    3.1717   12.0152 N   0  0  0  0  0  0  0  0  0  0  0  0
   15.1742    2.9153   13.4346 C   0  0  2  0  0  0  0  0  0  0  0  0
  1  2  1  0  0  0  0
  1  3  2  0  0  0  0
  1  4  1  0  0  0  0
  4  5  1  0  0  0  0
  5  6  1  0  0  0  0
  6  7  1  0  0  0  0
  8  7  1  6  0  0  0
  8  9  1  0  0  0  0
  8 16  1  0  0  0  0
  9 10  1  0  0  0  0
 11 10  1  6  0  0  0
 11 12  1  0  0  0  0
 11 16  1  0  0  0  0
 12 13  1  0  0  0  0
 13 14  2  0  0  0  0
 13 15  1  0  0  0  0
 16 15  1  6  0  0  0
M  CHG  1   2  -1
M  END
>  <CHROM.1>
-59.89185168,175.99944929,67.35117339,-157.66913140,46.01757825,16.98677414
1.49216262,12.95147253,-0.28825091,0.14669267,-0.97806965

>  <Name>
1f27 biotin aptamer (Xray 1.3A)

>  <RI>
0

>  <Rbt.Current_Directory>
/home/itssahil/PROJECTS/Mol_Feturizer/New_Systems/rnas/1f27

>  <Rbt.Executable>
rbdock ($Id: //depot/dev/client3/rdock/2013.1/src/exe/rbdock.cxx#4 $)

>  <Rbt.Library>
libRbt.so (2013.1, Build901 2013/11/27)

>  <Rbt.Parameter_File>
/export/apps/rDock/src/rDock_2013.1_src/data/scripts/dock_solv.prm

>  <Rbt.Receptor>
prm/blind_docking_60.prm

>  <SCORE>
-31.0119

>  <SCORE.INTER>
-31.2046

>  <SCORE.INTER.CONST>
1

>  <SCORE.INTER.POLAR>
-2.3938

>  <SCORE.INTER.ROT>
5

>  <SCORE.INTER.SOLV>
14.0247

>  <SCORE.INTER.VDW>
-24.432

>  <SCORE.INTER.norm>
-1.95029

>  <SCORE.INTRA>
0.192705

>  <SCORE.INTRA.DIHEDRAL>
-2.63313

>  <SCORE.INTRA.DIHEDRAL.0>
6.87082

>  <SCORE.INTRA.POLAR>
0

>  <SCORE.INTRA.POLAR.0>
0

>  <SCORE.INTRA.REPUL>
0

>  <SCORE.INTRA.REPUL.0>
0

>  <SCORE.INTRA.SOLV>
-0.280759

>  <SCORE.INTRA.SOLV.lig_0>
-42.5944

>  <SCORE.INTRA.VDW>
1.64965

>  <SCORE.INTRA.VDW.0>
-1.067

>  <SCORE.INTRA.norm>
0.0120441

>  <SCORE.RESTR>
0

>  <SCORE.RESTR.CAVITY>
0

>  <SCORE.RESTR.norm>
0

>  <SCORE.SYSTEM>
0

>  <SCORE.SYSTEM.CONST>
0

>  <SCORE.SYSTEM.DIHEDRAL>
0

>  <SCORE.SYSTEM.SOLV>
0

>  <SCORE.SYSTEM.norm>
0

>  <SCORE.heavy>
16

>  <SCORE.norm>
-1.93824

>  <RMSD>
1.856

$$$$
1f27 biotin aptamer (Xray 1.3A)
 OpenBabel11021811393D
libRbt.so/2013.1/901 2013/11/27
 16 17  0  0  0  0  0  0  0  0999 V2000
   19.3745   -1.4869   14.0811 C   0  0  0  0  0  0  0  0  0  0  0  0
   18.6331   -2.3679   13.6575 O   0  5  0  0  0  0  0  0  0  0  0  0
   19.7334   -1.5026   15.2573 O   0  0  0  0  0  0  0  0  0  0  0  0
   19.9047   -0.4148   13.1377 C   0  0  0  0  0  0  0  0  0  0  0  0
   18.9042    0.7299   12.8631 C   0  0  0  0  0  0  0  0  0  0  0  0
   18.6852    1.5903   14.0939 C   0  0  0  0  0  0  0  0  0  0  0  0
   17.6095    2.6409   13.9134 C   0  0  0  0  0  0  0  0  0  0  0  0
   16.1748    2.1338   14.1107 C   0  0  2  0  0  0  0  0  0  0  0  0
   15.7823    0.4194   13.3541 S   0  0  0  0  0  0  0  0  0  0  0  0
   13.9403    0.8486   13.6141 C   0  0  0  0  0  0  0  0  0  0  0  0
   13.8420    2.3795   13.3501 C   0  0  2  0  0  0  0  0  0  0  0  0
   13.5353    2.5242   11.8354 N   0  0  0  0  0  0  0  0  0  0  0  0
   14.4125    3.1800   11.2079 C   0  0  0  0  0  0  0  0  0  0  0  0
   14.5732    3.3569    9.9483 O   0  0  0  0  0  0  0  0  0  0  0  0
   15.5734    3.5058   12.0040 N   0  0  0  0  0  0  0  0  0  0  0  0
   15.1886    3.0785   13.4201 C   0  0  2  0  0  0  0  0  0  0  0  0
  1  2  1  0  0  0  0
  1  3  2  0  0  0  0
  1  4  1  0  0  0  0
  4  5  1  0  0  0  0
  5  6  1  0  0  0  0
  6  7  1  0  0  0  0
  8  7  1  6  0  0  0
  8  9  1  0  0  0  0
  8 16  1  0  0  0  0
  9 10  1  0  0  0  0
 11 10  1  6  0  0  0
 11 12  1  0  0  0  0
 11 16  1  0  0  0  0
 12 13  1  0  0  0  0
 13 14  2  0  0  0  0
 13 15  1  0  0  0  0
 16 15  1  6  0  0  0
M  CHG  1   2  -1
M  END
>  <CHROM.1>
80.93847891,69.05945552,-174.25879015,82.01816662,-41.48155852,16.57770661
1.19446984,13.11763846,0.73244571,0.03133808,2.66532884

>  <Name>
1f27 biotin aptamer (Xray 1.3A)

>  <RI>
0

>  <Rbt.Current_Directory>
/home/itssahil/PROJECTS/Mol_Feturizer/New_Systems/rnas/1f27

>  <Rbt.Executable>
rbdock ($Id: //depot/dev/client3/rdock/2013.1/src/exe/rbdock.cxx#4 $)

>  <Rbt.Library>
libRbt.so (2013.1, Build901 2013/11/27)

>  <Rbt.Parameter_File>
/export/apps/rDock/src/rDock_2013.1_src/data/scripts/dock_solv.prm

>  <Rbt.Receptor>
prm/pocket_docking_6.prm

>  <SCORE>
-28.4155

>  <SCORE.INTER>
-27.7341

>  <SCORE.INTER.CONST>
1

>  <SCORE.INTER.POLAR>
-1.7318

>  <SCORE.INTER.ROT>
5

>  <SCORE.INTER.SOLV>
9.92596

>  <SCORE.INTER.VDW>
-22.9587

>  <SCORE.INTER.norm>
-1.73338

>  <SCORE.INTRA>
-0.681382

>  <SCORE.INTRA.DIHEDRAL>
-1.8747

>  <SCORE.INTRA.DIHEDRAL.0>
6.87082

>  <SCORE.INTRA.POLAR>
0

>  <SCORE.INTRA.POLAR.0>
0

>  <SCORE.INTRA.REPUL>
0

>  <SCORE.INTRA.REPUL.0>
0

>  <SCORE.INTRA.SOLV>
0.589276

>  <SCORE.INTRA.SOLV.lig_0>
-42.5944

>  <SCORE.INTRA.VDW>
-0.0386704

>  <SCORE.INTRA.VDW.0>
-1.067

>  <SCORE.INTRA.norm>
-0.0425864

>  <SCORE.RESTR>
0

>  <SCORE.RESTR.CAVITY>
0

>  <SCORE.RESTR.norm>
0

>  <SCORE.SYSTEM>
0

>  <SCORE.SYSTEM.CONST>
0

>  <SCORE.SYSTEM.DIHEDRAL>
0

>  <SCORE.SYSTEM.SOLV>
0

>  <SCORE.SYSTEM.norm>
0

>  <SCORE.heavy>
16

>  <SCORE.norm>
-1.77597

>  <RMSD>
1.859

$$$$
1f27 biotin aptamer (Xray 1.3A)
 OpenBabel11021811393D
libRbt.so/2013.1/901 2013/11/27
 16 17  0  0  0  0  0  0  0  0999 V2000
   20.7786    0.0409   12.4908 C   0  0  0  0  0  0  0  0  0  0  0  0
   19.7551   -0.5740   12.2084 O   0  5  0  0  0  0  0  0  0  0  0  0
   21.8748   -0.4988   12.3508 O   0  0  0  0  0  0  0  0  0  0  0  0
   20.6973    1.4916   12.9485 C   0  0  0  0  0  0  0  0  0  0  0  0
   20.2348    1.6627   14.4127 C   0  0  0  0  0  0  0  0  0  0  0  0
   18.7913    1.2330   14.5983 C   0  0  0  0  0  0  0  0  0  0  0  0
   17.7921    2.1870   13.9778 C   0  0  0  0  0  0  0  0  0  0  0  0
   16.3207    1.8155   14.2048 C   0  0  2  0  0  0  0  0  0  0  0  0
   15.7775    0.1052   13.5374 S   0  0  0  0  0  0  0  0  0  0  0  0
   13.9808    0.7034   13.7805 C   0  0  0  0  0  0  0  0  0  0  0  0
   14.0120    2.2219   13.4394 C   0  0  2  0  0  0  0  0  0  0  0  0
   13.7079    2.3160   11.9203 N   0  0  0  0  0  0  0  0  0  0  0  0
   14.6334    2.8617   11.2578 C   0  0  0  0  0  0  0  0  0  0  0  0
   14.7995    2.9605    9.9904 O   0  0  0  0  0  0  0  0  0  0  0  0
   15.8236    3.1263   12.0329 N   0  0  0  0  0  0  0  0  0  0  0  0
   15.4140    2.8054   13.4700 C   0  0  2  0  0  0  0  0  0  0  0  0
  1  2  1  0  0  0  0
  1  3  2  0  0  0  0
  1  4  1  0  0  0  0
  4  5  1  0  0  0  0
  5  6  1  0  0  0  0
  6  7  1  0  0  0  0
  8  7  1  6  0  0  0
  8  9  1  0  0  0  0
  8 16  1  0  0  0  0
  9 10  1  0  0  0  0
 11 10  1  6  0  0  0
 11 12  1  0  0  0  0
 11 16  1  0  0  0  0
 12 13  1  0  0  0  0
 13 14  2  0  0  0  0
 13 15  1  0  0  0  0
 16 15  1  6  0  0  0
M  CHG  1   2  -1
M  END
>  <CHROM.1>
76.84525011,-66.97931273,-71.63423166,-177.26464940,-59.37975031,17.08320004
1.40273593,12.92241173,-0.21335253,0.21894766,-1.14771516

>  <Name>
1f27 biotin aptamer (Xray 1.3A)

>  <RI>
0

>  <Rbt.Current_Directory>
/home/itssahil/PROJECTS/Mol_Feturizer/New_Systems/rnas/1f27

>  <Rbt.Executable>
rbdock ($Id: //depot/dev/client3/rdock/2013.1/src/exe/rbdock.cxx#4 $)

>  <Rbt.Library>
libRbt.so (2013.1, Build901 2013/11/27)

>  <Rbt.Parameter_File>
/export/apps/rDock/src/rDock_2013.1_src/data/scripts/dock_solv.prm

>  <Rbt.Receptor>
prm/blind_docking_40.prm

>  <SCORE>
-35.805

>  <SCORE.INTER>
-34.0198

>  <SCORE.INTER.CONST>
1

>  <SCORE.INTER.POLAR>
-2.67445

>  <SCORE.INTER.ROT>
5

>  <SCORE.INTER.SOLV>
15.6669

>  <SCORE.INTER.VDW>
-25.9207

>  <SCORE.INTER.norm>
-2.12624

>  <SCORE.INTRA>
-1.7968

>  <SCORE.INTRA.DIHEDRAL>
-4.66767

>  <SCORE.INTRA.DIHEDRAL.0>
6.87082

>  <SCORE.INTRA.POLAR>
0

>  <SCORE.INTRA.POLAR.0>
0

>  <SCORE.INTRA.REPUL>
0

>  <SCORE.INTRA.REPUL.0>
0

>  <SCORE.INTRA.SOLV>
0.698758

>  <SCORE.INTRA.SOLV.lig_0>
-42.5944

>  <SCORE.INTRA.VDW>
0.187649

>  <SCORE.INTRA.VDW.0>
-1.067

>  <SCORE.INTRA.norm>
-0.1123

>  <SCORE.RESTR>
0.011564

>  <SCORE.RESTR.CAVITY>
0.011564

>  <SCORE.RESTR.norm>
0.000722752

>  <SCORE.SYSTEM>
0

>  <SCORE.SYSTEM.CONST>
0

>  <SCORE.SYSTEM.DIHEDRAL>
0

>  <SCORE.SYSTEM.SOLV>
0

>  <SCORE.SYSTEM.norm>
0

>  <SCORE.heavy>
16

>  <SCORE.norm>
-2.23781

>  <RMSD>
1.860

$$$$
1f27 biotin aptamer (Xray 1.3A)
 OpenBabel11021811393D
libRbt.so/2013.1/901 2013/11/27
 16 17  0  0  0  0  0  0  0  0999 V2000
   21.2479   -0.3410   15.5935 C   0  0  0  0  0  0  0  0  0  0  0  0
   21.7700    0.1338   16.5972 O   0  5  0  0  0  0  0  0  0  0  0  0
   20.6616   -1.4200   15.6611 O   0  0  0  0  0  0  0  0  0  0  0  0
   21.2656    0.4349   14.2827 C   0  0  0  0  0  0  0  0  0  0  0  0
   20.2713    1.6167   14.2396 C   0  0  0  0  0  0  0  0  0  0  0  0
   18.8326    1.1421   14.3265 C   0  0  0  0  0  0  0  0  0  0  0  0
   17.8207    2.2121   13.9732 C   0  0  0  0  0  0  0  0  0  0  0  0
   16.3559    1.8089   14.1881 C   0  0  2  0  0  0  0  0  0  0  0  0
   15.8523    0.0923   13.5059 S   0  0  0  0  0  0  0  0  0  0  0  0
   14.0422    0.6519   13.7411 C   0  0  0  0  0  0  0  0  0  0  0  0
   14.0443    2.1729   13.4102 C   0  0  2  0  0  0  0  0  0  0  0  0
   13.7481    2.2708   11.8897 N   0  0  0  0  0  0  0  0  0  0  0  0
   14.6664    2.8398   11.2369 C   0  0  0  0  0  0  0  0  0  0  0  0
   14.8386    2.9505    9.9713 O   0  0  0  0  0  0  0  0  0  0  0  0
   15.8459    3.1237   12.0216 N   0  0  0  0  0  0  0  0  0  0  0  0
   15.4338    2.7849   13.4538 C   0  0  2  0  0  0  0  0  0  0  0  0
  1  2  1  0  0  0  0
  1  3  2  0  0  0  0
  1  4  1  0  0  0  0
  4  5  1  0  0  0  0
  5  6  1  0  0  0  0
  6  7  1  0  0  0  0
  8  7  1  6  0  0  0
  8  9  1  0  0  0  0
  8 16  1  0  0  0  0
  9 10  1  0  0  0  0
 11 10  1  6  0  0  0
 11 12  1  0  0  0  0
 11 16  1  0  0  0  0
 12 13  1  0  0  0  0
 13 14  2  0  0  0  0
 13 15  1  0  0  0  0
 16 15  1  6  0  0  0
M  CHG  1   2  -1
M  END
>  <CHROM.1>
-75.11175299,-64.19607812,-166.78318953,-174.07701079,-46.91115693,17.22412928
1.28906602,13.61827558,0.54868651,0.15016328,2.40269776

>  <Name>
1f27 biotin aptamer (Xray 1.3A)

>  <RI>
0

>  <Rbt.Current_Directory>
/home/itssahil/PROJECTS/Mol_Feturizer/New_Systems/rnas/1f27

>  <Rbt.Executable>
rbdock ($Id: //depot/dev/client3/rdock/2013.1/src/exe/rbdock.cxx#4 $)

>  <Rbt.Library>
libRbt.so (2013.1, Build901 2013/11/27)

>  <Rbt.Parameter_File>
/export/apps/rDock/src/rDock_2013.1_src/data/scripts/dock_solv.prm

>  <Rbt.Receptor>
prm/pocket_docking_3.prm

>  <SCORE>
-33.5624

>  <SCORE.INTER>
-31.772

>  <SCORE.INTER.CONST>
1

>  <SCORE.INTER.POLAR>
-2.32866

>  <SCORE.INTER.ROT>
5

>  <SCORE.INTER.SOLV>
11.0936

>  <SCORE.INTER.VDW>
-24.0503

>  <SCORE.INTER.norm>
-1.98575

>  <SCORE.INTRA>
-1.79045

>  <SCORE.INTRA.DIHEDRAL>
-3.99745

>  <SCORE.INTRA.DIHEDRAL.0>
6.87082

>  <SCORE.INTRA.POLAR>
0

>  <SCORE.INTRA.POLAR.0>
0

>  <SCORE.INTRA.REPUL>
0

>  <SCORE.INTRA.REPUL.0>
0

>  <SCORE.INTRA.SOLV>
0.122675

>  <SCORE.INTRA.SOLV.lig_0>
-42.5944

>  <SCORE.INTRA.VDW>
0.146937

>  <SCORE.INTRA.VDW.0>
-1.067

>  <SCORE.INTRA.norm>
-0.111903

>  <SCORE.RESTR>
0

>  <SCORE.RESTR.CAVITY>
0

>  <SCORE.RESTR.norm>
0

>  <SCORE.SYSTEM>
0

>  <SCORE.SYSTEM.CONST>
0

>  <SCORE.SYSTEM.DIHEDRAL>
0

>  <SCORE.SYSTEM.SOLV>
0

>  <SCORE.SYSTEM.norm>
0

>  <SCORE.heavy>
16

>  <SCORE.norm>
-2.09765

>  <RMSD>
1.862

$$$$
1f27 biotin aptamer (Xray 1.3A)
 OpenBabel11021811393D
libRbt.so/2013.1/901 2013/11/27
 16 17  0  0  0  0  0  0  0  0999 V2000
   20.9221   -0.1093   13.4103 C   0  0  0  0  0  0  0  0  0  0  0  0
   21.6202    0.2524   12.4684 O   0  5  0  0  0  0  0  0  0  0  0  0
   21.3571   -0.0348   14.5582 O   0  0  0  0  0  0  0  0  0  0  0  0
   19.4957   -0.5852   13.1663 C   0  0  0  0  0  0  0  0  0  0  0  0
   18.4769    0.5598   12.9715 C   0  0  0  0  0  0  0  0  0  0  0  0
   18.3459    1.4119   14.2203 C   0  0  0  0  0  0  0  0  0  0  0  0
   17.3732    2.5626   14.0676 C   0  0  0  0  0  0  0  0  0  0  0  0
   15.8947    2.1794   14.2141 C   0  0  2  0  0  0  0  0  0  0  0  0
   15.4067    0.4558   13.5384 S   0  0  0  0  0  0  0  0  0  0  0  0
   13.5935    1.0391   13.6698 C   0  0  0  0  0  0  0  0  0  0  0  0
   13.6305    2.5535   13.3116 C   0  0  2  0  0  0  0  0  0  0  0  0
   13.4138    2.6259   11.7763 N   0  0  0  0  0  0  0  0  0  0  0  0
   14.3710    3.1725   11.1614 C   0  0  0  0  0  0  0  0  0  0  0  0
   14.6093    3.2574    9.9045 O   0  0  0  0  0  0  0  0  0  0  0  0
   15.5120    3.4584   12.0004 N   0  0  0  0  0  0  0  0  0  0  0  0
   15.0229    3.1512   13.4155 C   0  0  2  0  0  0  0  0  0  0  0  0
  1  2  1  0  0  0  0
  1  3  2  0  0  0  0
  1  4  1  0  0  0  0
  4  5  1  0  0  0  0
  5  6  1  0  0  0  0
  6  7  1  0  0  0  0
  8  7  1  6  0  0  0
  8  9  1  0  0  0  0
  8 16  1  0  0  0  0
  9 10  1  0  0  0  0
 11 10  1  6  0  0  0
 11 12  1  0  0  0  0
 11 16  1  0  0  0  0
 12 13  1  0  0  0  0
 13 14  2  0  0  0  0
 13 15  1  0  0  0  0
 16 15  1  6  0  0  0
M  CHG  1   2  -1
M  END
>  <CHROM.1>
-79.50908143,-63.68531847,179.04008777,79.89646073,-35.11379132,16.76047793
1.52453561,13.00608872,-0.35692341,0.21129364,-1.00493216

>  <Name>
1f27 biotin aptamer (Xray 1.3A)

>  <RI>
0

>  <Rbt.Current_Directory>
/home/itssahil/PROJECTS/Mol_Feturizer/New_Systems/rnas/1f27

>  <Rbt.Executable>
rbdock ($Id: //depot/dev/client3/rdock/2013.1/src/exe/rbdock.cxx#4 $)

>  <Rbt.Library>
libRbt.so (2013.1, Build901 2013/11/27)

>  <Rbt.Parameter_File>
/export/apps/rDock/src/rDock_2013.1_src/data/scripts/dock_solv.prm

>  <Rbt.Receptor>
prm/blind_docking_100.prm

>  <SCORE>
-30.37

>  <SCORE.INTER>
-30.2296

>  <SCORE.INTER.CONST>
1

>  <SCORE.INTER.POLAR>
-2.40303

>  <SCORE.INTER.ROT>
5

>  <SCORE.INTER.SOLV>
12.7136

>  <SCORE.INTER.VDW>
-23.3142

>  <SCORE.INTER.norm>
-1.88935

>  <SCORE.INTRA>
-0.180346

>  <SCORE.INTRA.DIHEDRAL>
-1.85891

>  <SCORE.INTRA.DIHEDRAL.0>
6.87082

>  <SCORE.INTRA.POLAR>
0

>  <SCORE.INTRA.POLAR.0>
0

>  <SCORE.INTRA.REPUL>
0

>  <SCORE.INTRA.REPUL.0>
0

>  <SCORE.INTRA.SOLV>
0.361825

>  <SCORE.INTRA.SOLV.lig_0>
-42.5944

>  <SCORE.INTRA.VDW>
0.568195

>  <SCORE.INTRA.VDW.0>
-1.067

>  <SCORE.INTRA.norm>
-0.0112716

>  <SCORE.RESTR>
0.0399165

>  <SCORE.RESTR.CAVITY>
0.0399165

>  <SCORE.RESTR.norm>
0.00249478

>  <SCORE.SYSTEM>
0

>  <SCORE.SYSTEM.CONST>
0

>  <SCORE.SYSTEM.DIHEDRAL>
0

>  <SCORE.SYSTEM.SOLV>
0

>  <SCORE.SYSTEM.norm>
0

>  <SCORE.heavy>
16

>  <SCORE.norm>
-1.89813

>  <RMSD>
1.864

$$$$
1f27 biotin aptamer (Xray 1.3A)
 OpenBabel11021811393D
libRbt.so/2013.1/901 2013/11/27
 16 17  0  0  0  0  0  0  0  0999 V2000
   20.9286   -0.3847   12.4867 C   0  0  0  0  0  0  0  0  0  0  0  0
   20.9457   -1.4071   11.8088 O   0  5  0  0  0  0  0  0  0  0  0  0
   21.9869    0.1446   12.8223 O   0  0  0  0  0  0  0  0  0  0  0  0
   19.6016    0.2666   12.8547 C   0  0  0  0  0  0  0  0  0  0  0  0
   19.4682    1.7308   12.3799 C   0  0  0  0  0  0  0  0  0  0  0  0
   18.0359    2.2228   12.4758 C   0  0  0  0  0  0  0  0  0  0  0  0
   17.5331    2.3460   13.8991 C   0  0  0  0  0  0  0  0  0  0  0  0
   16.0603    1.9638   14.0968 C   0  0  2  0  0  0  0  0  0  0  0  0
   15.5218    0.2898   13.3394 S   0  0  0  0  0  0  0  0  0  0  0  0
   13.7234    0.8754   13.6005 C   0  0  0  0  0  0  0  0  0  0  0  0
   13.7568    2.4092   13.3375 C   0  0  2  0  0  0  0  0  0  0  0  0
   13.4630    2.5806   11.8230 N   0  0  0  0  0  0  0  0  0  0  0  0
   14.3929    3.1591   11.1955 C   0  0  0  0  0  0  0  0  0  0  0  0
   14.5677    3.3224    9.9360 O   0  0  0  0  0  0  0  0  0  0  0  0
   15.5779    3.3836   11.9912 N   0  0  0  0  0  0  0  0  0  0  0  0
   15.1585    2.9901   13.4073 C   0  0  2  0  0  0  0  0  0  0  0  0
  1  2  1  0  0  0  0
  1  3  2  0  0  0  0
  1  4  1  0  0  0  0
  4  5  1  0  0  0  0
  5  6  1  0  0  0  0
  6  7  1  0  0  0  0
  8  7  1  6  0  0  0
  8  9  1  0  0  0  0
  8 16  1  0  0  0  0
  9 10  1  0  0  0  0
 11 10  1  6  0  0  0
 11 12  1  0  0  0  0
 11 16  1  0  0  0  0
 12 13  1  0  0  0  0
 13 14  2  0  0  0  0
 13 15  1  0  0  0  0
 16 15  1  6  0  0  0
M  CHG  1   2  -1
M  END
>  <CHROM.1>
-121.86649026,166.61000645,67.17844288,-143.13972028,49.27699844,16.86325218
1.50171569,12.61114582,0.28892454,-0.23965441,2.37680443

>  <Name>
1f27 biotin aptamer (Xray 1.3A)

>  <RI>
0

>  <Rbt.Current_Directory>
/home/itssahil/PROJECTS/Mol_Feturizer/New_Systems/rnas/1f27

>  <Rbt.Executable>
rbdock ($Id: //depot/dev/client3/rdock/2013.1/src/exe/rbdock.cxx#4 $)

>  <Rbt.Library>
libRbt.so (2013.1, Build901 2013/11/27)

>  <Rbt.Parameter_File>
/export/apps/rDock/src/rDock_2013.1_src/data/scripts/dock_solv.prm

>  <Rbt.Receptor>
prm/blind_docking_40.prm

>  <SCORE>
-28.76

>  <SCORE.INTER>
-30.7517

>  <SCORE.INTER.CONST>
1

>  <SCORE.INTER.POLAR>
-2.1632

>  <SCORE.INTER.ROT>
5

>  <SCORE.INTER.SOLV>
15.1532

>  <SCORE.INTER.VDW>
-25.2749

>  <SCORE.INTER.norm>
-1.92198

>  <SCORE.INTRA>
1.99173

>  <SCORE.INTRA.DIHEDRAL>
-0.0675951

>  <SCORE.INTRA.DIHEDRAL.0>
6.87082

>  <SCORE.INTRA.POLAR>
0

>  <SCORE.INTRA.POLAR.0>
0

>  <SCORE.INTRA.REPUL>
0

>  <SCORE.INTRA.REPUL.0>
0

>  <SCORE.INTRA.SOLV>
-0.215648

>  <SCORE.INTRA.SOLV.lig_0>
-42.5944

>  <SCORE.INTRA.VDW>
2.13335

>  <SCORE.INTRA.VDW.0>
-1.067

>  <SCORE.INTRA.norm>
0.124483

>  <SCORE.RESTR>
0

>  <SCORE.RESTR.CAVITY>
0

>  <SCORE.RESTR.norm>
0

>  <SCORE.SYSTEM>
0

>  <SCORE.SYSTEM.CONST>
0

>  <SCORE.SYSTEM.DIHEDRAL>
0

>  <SCORE.SYSTEM.SOLV>
0

>  <SCORE.SYSTEM.norm>
0

>  <SCORE.heavy>
16

>  <SCORE.norm>
-1.7975

>  <RMSD>
1.867

$$$$
1f27 biotin aptamer (Xray 1.3A)
 OpenBabel11021811393D
libRbt.so/2013.1/901 2013/11/27
 16 17  0  0  0  0  0  0  0  0999 V2000
   19.4930   -1.3261   14.4113 C   0  0  0  0  0  0  0  0  0  0  0  0
   19.5533   -0.9260   15.5696 O   0  5  0  0  0  0  0  0  0  0  0  0
   20.2803   -2.1857   14.0192 O   0  0  0  0  0  0  0  0  0  0  0  0
   18.4030   -0.8106   13.4803 C   0  0  0  0  0  0  0  0  0  0  0  0
   18.6730    0.6039   12.9206 C   0  0  0  0  0  0  0  0  0  0  0  0
   18.6120    1.6587   14.0099 C   0  0  0  0  0  0  0  0  0  0  0  0
   17.4671    2.6357   13.8418 C   0  0  0  0  0  0  0  0  0  0  0  0
   16.0944    2.0983   14.2676 C   0  0  2  0  0  0  0  0  0  0  0  0
   15.4955    0.5221   13.3606 S   0  0  0  0  0  0  0  0  0  0  0  0
   13.7673    0.8979   14.0798 C   0  0  0  0  0  0  0  0  0  0  0  0
   13.6608    2.4509   14.0823 C   0  0  2  0  0  0  0  0  0  0  0  0
   13.0381    2.8299   12.7120 N   0  0  0  0  0  0  0  0  0  0  0  0
   13.7781    3.5794   12.0165 C   0  0  0  0  0  0  0  0  0  0  0  0
   13.6677    3.9522   10.7948 O   0  0  0  0  0  0  0  0  0  0  0  0
   15.0932    3.7811   12.5800 N   0  0  0  0  0  0  0  0  0  0  0  0
   15.0113    3.1356   13.9630 C   0  0  2  0  0  0  0  0  0  0  0  0
  1  2  1  0  0  0  0
  1  3  2  0  0  0  0
  1  4  1  0  0  0  0
  4  5  1  0  0  0  0
  5  6  1  0  0  0  0
  6  7  1  0  0  0  0
  8  7  1  6  0  0  0
  8  9  1  0  0  0  0
  8 16  1  0  0  0  0
  9 10  1  0  0  0  0
 11 10  1  6  0  0  0
 11 12  1  0  0  0  0
 11 16  1  0  0  0  0
 12 13  1  0  0  0  0
 13 14  2  0  0  0  0
 13 15  1  0  0  0  0
 16 15  1  6  0  0  0
M  CHG  1   2  -1
M  END
>  <CHROM.1>
77.65656051,-67.51807080,-114.35006187,77.80974635,-58.61503163,16.34452501
1.34247161,13.48205916,0.67449035,-0.03016937,2.70368727

>  <Name>
1f27 biotin aptamer (Xray 1.3A)

>  <RI>
0

>  <Rbt.Current_Directory>
/home/itssahil/PROJECTS/Mol_Feturizer/New_Systems/rnas/1f27

>  <Rbt.Executable>
rbdock ($Id: //depot/dev/client3/rdock/2013.1/src/exe/rbdock.cxx#4 $)

>  <Rbt.Library>
libRbt.so (2013.1, Build901 2013/11/27)

>  <Rbt.Parameter_File>
/export/apps/rDock/src/rDock_2013.1_src/data/scripts/dock_solv.prm

>  <Rbt.Receptor>
prm/pocket_docking_2.prm

>  <SCORE>
-23.659

>  <SCORE.INTER>
-25.0386

>  <SCORE.INTER.CONST>
1

>  <SCORE.INTER.POLAR>
-0.848528

>  <SCORE.INTER.ROT>
5

>  <SCORE.INTER.SOLV>
9.04659

>  <SCORE.INTER.VDW>
-23.8128

>  <SCORE.INTER.norm>
-1.56491

>  <SCORE.INTRA>
1.37958

>  <SCORE.INTRA.DIHEDRAL>
2.01266

>  <SCORE.INTRA.DIHEDRAL.0>
6.87082

>  <SCORE.INTRA.POLAR>
0

>  <SCORE.INTRA.POLAR.0>
0

>  <SCORE.INTRA.REPUL>
0

>  <SCORE.INTRA.REPUL.0>
0

>  <SCORE.INTRA.SOLV>
0.352057

>  <SCORE.INTRA.SOLV.lig_0>
-42.5944

>  <SCORE.INTRA.VDW>
0.197222

>  <SCORE.INTRA.VDW.0>
-1.067

>  <SCORE.INTRA.norm>
0.0862238

>  <SCORE.RESTR>
0

>  <SCORE.RESTR.CAVITY>
0

>  <SCORE.RESTR.norm>
0

>  <SCORE.SYSTEM>
0

>  <SCORE.SYSTEM.CONST>
0

>  <SCORE.SYSTEM.DIHEDRAL>
0

>  <SCORE.SYSTEM.SOLV>
0

>  <SCORE.SYSTEM.norm>
0

>  <SCORE.heavy>
16

>  <SCORE.norm>
-1.47869

>  <RMSD>
1.867

$$$$
1f27 biotin aptamer (Xray 1.3A)
 OpenBabel11021811393D
libRbt.so/2013.1/901 2013/11/27
 16 17  0  0  0  0  0  0  0  0999 V2000
   21.8426    0.2312   15.2262 C   0  0  0  0  0  0  0  0  0  0  0  0
   21.9105    0.1935   16.4507 O   0  5  0  0  0  0  0  0  0  0  0  0
   21.9836   -0.8017   14.5737 O   0  0  0  0  0  0  0  0  0  0  0  0
   21.5168    1.5402   14.5185 C   0  0  0  0  0  0  0  0  0  0  0  0
   20.0041    1.8358   14.4110 C   0  0  0  0  0  0  0  0  0  0  0  0
   19.3663    1.0820   13.2588 C   0  0  0  0  0  0  0  0  0  0  0  0
   18.1349    1.7630   12.6988 C   0  0  0  0  0  0  0  0  0  0  0  0
   16.8872    1.6687   13.5868 C   0  0  2  0  0  0  0  0  0  0  0  0
   15.9308    0.0117   13.5120 S   0  0  0  0  0  0  0  0  0  0  0  0
   14.5008    0.9239   14.3884 C   0  0  0  0  0  0  0  0  0  0  0  0
   14.5343    2.3708   13.8150 C   0  0  2  0  0  0  0  0  0  0  0  0
   13.5996    2.3517   12.5760 N   0  0  0  0  0  0  0  0  0  0  0  0
   14.1862    2.6614   11.5022 C   0  0  0  0  0  0  0  0  0  0  0  0
   13.7824    2.5954   10.2871 O   0  0  0  0  0  0  0  0  0  0  0  0
   15.6170    2.8048   11.6430 N   0  0  0  0  0  0  0  0  0  0  0  0
   15.8564    2.7119   13.1497 C   0  0  2  0  0  0  0  0  0  0  0  0
  1  2  1  0  0  0  0
  1  3  2  0  0  0  0
  1  4  1  0  0  0  0
  4  5  1  0  0  0  0
  5  6  1  0  0  0  0
  6  7  1  0  0  0  0
  8  7  1  6  0  0  0
  8  9  1  0  0  0  0
  8 16  1  0  0  0  0
  9 10  1  0  0  0  0
 11 10  1  6  0  0  0
 11 12  1  0  0  0  0
 11 16  1  0  0  0  0
 12 13  1  0  0  0  0
 13 14  2  0  0  0  0
 13 15  1  0  0  0  0
 16 15  1  6  0  0  0
M  CHG  1   2  -1
M  END
>  <CHROM.1>
-84.60136490,-80.90949414,-153.17573494,-73.62974472,-79.28785985,17.39367776
1.36593831,13.47207076,-0.43569213,-0.06335154,-0.87605132

>  <Name>
1f27 biotin aptamer (Xray 1.3A)

>  <RI>
0

>  <Rbt.Current_Directory>
/home/itssahil/PROJECTS/Mol_Feturizer/New_Systems/rnas/1f27

>  <Rbt.Executable>
rbdock ($Id: //depot/dev/client3/rdock/2013.1/src/exe/rbdock.cxx#4 $)

>  <Rbt.Library>
libRbt.so (2013.1, Build901 2013/11/27)

>  <Rbt.Parameter_File>
/export/apps/rDock/src/rDock_2013.1_src/data/scripts/dock_solv.prm

>  <Rbt.Receptor>
prm/pocket_docking_7.prm

>  <SCORE>
-25.8441

>  <SCORE.INTER>
-25.9477

>  <SCORE.INTER.CONST>
1

>  <SCORE.INTER.POLAR>
-1.29072

>  <SCORE.INTER.ROT>
5

>  <SCORE.INTER.SOLV>
11.3945

>  <SCORE.INTER.VDW>
-23.7276

>  <SCORE.INTER.norm>
-1.62173

>  <SCORE.INTRA>
0.103621

>  <SCORE.INTRA.DIHEDRAL>
0.494574

>  <SCORE.INTRA.DIHEDRAL.0>
6.87082

>  <SCORE.INTRA.POLAR>
0

>  <SCORE.INTRA.POLAR.0>
0

>  <SCORE.INTRA.REPUL>
0

>  <SCORE.INTRA.REPUL.0>
0

>  <SCORE.INTRA.SOLV>
-0.122528

>  <SCORE.INTRA.SOLV.lig_0>
-42.5944

>  <SCORE.INTRA.VDW>
-0.0824017

>  <SCORE.INTRA.VDW.0>
-1.067

>  <SCORE.INTRA.norm>
0.00647632

>  <SCORE.RESTR>
0

>  <SCORE.RESTR.CAVITY>
0

>  <SCORE.RESTR.norm>
0

>  <SCORE.SYSTEM>
0

>  <SCORE.SYSTEM.CONST>
0

>  <SCORE.SYSTEM.DIHEDRAL>
0

>  <SCORE.SYSTEM.SOLV>
0

>  <SCORE.SYSTEM.norm>
0

>  <SCORE.heavy>
16

>  <SCORE.norm>
-1.61526

>  <RMSD>
1.869

$$$$
1f27 biotin aptamer (Xray 1.3A)
 OpenBabel11021811393D
libRbt.so/2013.1/901 2013/11/27
 16 17  0  0  0  0  0  0  0  0999 V2000
   21.6287   -0.0672   15.4605 C   0  0  0  0  0  0  0  0  0  0  0  0
   22.2129    0.2482   16.4923 O   0  5  0  0  0  0  0  0  0  0  0  0
   22.1503   -0.8625   14.6809 O   0  0  0  0  0  0  0  0  0  0  0  0
   20.2319    0.4709   15.1778 C   0  0  0  0  0  0  0  0  0  0  0  0
   20.2162    1.7558   14.3199 C   0  0  0  0  0  0  0  0  0  0  0  0
   18.8091    2.2975   14.1477 C   0  0  0  0  0  0  0  0  0  0  0  0
   17.8691    1.3304   13.4587 C   0  0  0  0  0  0  0  0  0  0  0  0
   16.4149    1.3897   13.9444 C   0  0  2  0  0  0  0  0  0  0  0  0
   15.3526   -0.1644   13.5954 S   0  0  0  0  0  0  0  0  0  0  0  0
   13.8341    0.9138   14.0158 C   0  0  0  0  0  0  0  0  0  0  0  0
   14.1843    2.3312   13.4758 C   0  0  2  0  0  0  0  0  0  0  0  0
   13.6524    2.3669   12.0181 N   0  0  0  0  0  0  0  0  0  0  0  0
   14.5543    2.5822   11.1618 C   0  0  0  0  0  0  0  0  0  0  0  0
   14.5154    2.5187    9.8818 O   0  0  0  0  0  0  0  0  0  0  0  0
   15.8896    2.5856   11.7136 N   0  0  0  0  0  0  0  0  0  0  0  0
   15.6708    2.5168   13.2247 C   0  0  2  0  0  0  0  0  0  0  0  0
  1  2  1  0  0  0  0
  1  3  2  0  0  0  0
  1  4  1  0  0  0  0
  4  5  1  0  0  0  0
  5  6  1  0  0  0  0
  6  7  1  0  0  0  0
  8  7  1  6  0  0  0
  8  9  1  0  0  0  0
  8 16  1  0  0  0  0
  9 10  1  0  0  0  0
 11 10  1  6  0  0  0
 11 12  1  0  0  0  0
 11 16  1  0  0  0  0
 12 13  1  0  0  0  0
 13 14  2  0  0  0  0
 13 15  1  0  0  0  0
 16 15  1  6  0  0  0
M  CHG  1   2  -1
M  END
>  <CHROM.1>
93.93220121,-176.20363056,-60.50530625,145.90420005,-159.01558271,17.22345425
1.25692141,13.54187279,0.47234459,0.11273902,2.28836692

>  <Name>
1f27 biotin aptamer (Xray 1.3A)

>  <RI>
0

>  <Rbt.Current_Directory>
/home/itssahil/PROJECTS/Mol_Feturizer/New_Systems/rnas/1f27

>  <Rbt.Executable>
rbdock ($Id: //depot/dev/client3/rdock/2013.1/src/exe/rbdock.cxx#4 $)

>  <Rbt.Library>
libRbt.so (2013.1, Build901 2013/11/27)

>  <Rbt.Parameter_File>
/export/apps/rDock/src/rDock_2013.1_src/data/scripts/dock_solv.prm

>  <Rbt.Receptor>
prm/pocket_docking_3.prm

>  <SCORE>
-28.9641

>  <SCORE.INTER>
-29.3305

>  <SCORE.INTER.CONST>
1

>  <SCORE.INTER.POLAR>
-2.05974

>  <SCORE.INTER.ROT>
5

>  <SCORE.INTER.SOLV>
12.1889

>  <SCORE.INTER.VDW>
-23.6842

>  <SCORE.INTER.norm>
-1.83316

>  <SCORE.INTRA>
0.253595

>  <SCORE.INTRA.DIHEDRAL>
-0.020768

>  <SCORE.INTRA.DIHEDRAL.0>
6.87082

>  <SCORE.INTRA.POLAR>
0

>  <SCORE.INTRA.POLAR.0>
0

>  <SCORE.INTRA.REPUL>
0

>  <SCORE.INTRA.REPUL.0>
0

>  <SCORE.INTRA.SOLV>
-0.800207

>  <SCORE.INTRA.SOLV.lig_0>
-42.5944

>  <SCORE.INTRA.VDW>
0.664083

>  <SCORE.INTRA.VDW.0>
-1.067

>  <SCORE.INTRA.norm>
0.0158497

>  <SCORE.RESTR>
0.112876

>  <SCORE.RESTR.CAVITY>
0.112876

>  <SCORE.RESTR.norm>
0.00705477

>  <SCORE.SYSTEM>
0

>  <SCORE.SYSTEM.CONST>
0

>  <SCORE.SYSTEM.DIHEDRAL>
0

>  <SCORE.SYSTEM.SOLV>
0

>  <SCORE.SYSTEM.norm>
0

>  <SCORE.heavy>
16

>  <SCORE.norm>
-1.81025

>  <RMSD>
1.872

$$$$
1f27 biotin aptamer (Xray 1.3A)
 OpenBabel11021811393D
libRbt.so/2013.1/901 2013/11/27
 16 17  0  0  0  0  0  0  0  0999 V2000
   20.4859   -1.2876   16.0117 C   0  0  0  0  0  0  0  0  0  0  0  0
   19.6073   -2.1248   16.1917 O   0  5  0  0  0  0  0  0  0  0  0  0
   21.4615   -1.2541   16.7597 O   0  0  0  0  0  0  0  0  0  0  0  0
   20.4037   -0.3361   14.8248 C   0  0  0  0  0  0  0  0  0  0  0  0
   19.2426    0.6793   14.9138 C   0  0  0  0  0  0  0  0  0  0  0  0
   19.1183    1.5011   13.6442 C   0  0  0  0  0  0  0  0  0  0  0  0
   17.9994    2.5207   13.6912 C   0  0  0  0  0  0  0  0  0  0  0  0
   16.6078    1.9369   13.9684 C   0  0  2  0  0  0  0  0  0  0  0  0
   16.2375    0.2396   13.1635 S   0  0  0  0  0  0  0  0  0  0  0  0
   14.4025    0.5677   13.5760 C   0  0  0  0  0  0  0  0  0  0  0  0
   14.2160    2.1020   13.3912 C   0  0  2  0  0  0  0  0  0  0  0  0
   13.7909    2.2967   11.9111 N   0  0  0  0  0  0  0  0  0  0  0  0
   14.5883    3.0204   11.2528 C   0  0  0  0  0  0  0  0  0  0  0  0
   14.6465    3.2588    9.9944 O   0  0  0  0  0  0  0  0  0  0  0  0
   15.7896    3.3674   11.9768 N   0  0  0  0  0  0  0  0  0  0  0  0
   15.5313    2.8616   13.3957 C   0  0  2  0  0  0  0  0  0  0  0  0
  1  2  1  0  0  0  0
  1  3  2  0  0  0  0
  1  4  1  0  0  0  0
  4  5  1  0  0  0  0
  5  6  1  0  0  0  0
  6  7  1  0  0  0  0
  8  7  1  6  0  0  0
  8  9  1  0  0  0  0
  8 16  1  0  0  0  0
  9 10  1  0  0  0  0
 11 10  1  6  0  0  0
 11 12  1  0  0  0  0
 11 16  1  0  0  0  0
 12 13  1  0  0  0  0
 13 14  2  0  0  0  0
 13 15  1  0  0  0  0
 16 15  1  6  0  0  0
M  CHG  1   2  -1
M  END
>  <CHROM.1>
67.54205527,-173.97381751,-179.45336672,-57.24409218,-37.22595301,17.09649726
1.11253646,13.62936194,0.72640330,0.23115052,2.54925794

>  <Name>
1f27 biotin aptamer (Xray 1.3A)

>  <RI>
0

>  <Rbt.Current_Directory>
/home/itssahil/PROJECTS/Mol_Feturizer/New_Systems/rnas/1f27

>  <Rbt.Executable>
rbdock ($Id: //depot/dev/client3/rdock/2013.1/src/exe/rbdock.cxx#4 $)

>  <Rbt.Library>
libRbt.so (2013.1, Build901 2013/11/27)

>  <Rbt.Parameter_File>
/export/apps/rDock/src/rDock_2013.1_src/data/scripts/dock_solv.prm

>  <Rbt.Receptor>
prm/pocket_docking_5.prm

>  <SCORE>
-27.5529

>  <SCORE.INTER>
-25.9611

>  <SCORE.INTER.CONST>
1

>  <SCORE.INTER.POLAR>
-1.66632

>  <SCORE.INTER.ROT>
5

>  <SCORE.INTER.SOLV>
9.11353

>  <SCORE.INTER.VDW>
-21.7242

>  <SCORE.INTER.norm>
-1.62257

>  <SCORE.INTRA>
-1.59178

>  <SCORE.INTRA.DIHEDRAL>
-3.44225

>  <SCORE.INTRA.DIHEDRAL.0>
6.87082

>  <SCORE.INTRA.POLAR>
0

>  <SCORE.INTRA.POLAR.0>
0

>  <SCORE.INTRA.REPUL>
0

>  <SCORE.INTRA.REPUL.0>
0

>  <SCORE.INTRA.SOLV>
-0.740505

>  <SCORE.INTRA.SOLV.lig_0>
-42.5944

>  <SCORE.INTRA.VDW>
0.499595

>  <SCORE.INTRA.VDW.0>
-1.067

>  <SCORE.INTRA.norm>
-0.0994864

>  <SCORE.RESTR>
0

>  <SCORE.RESTR.CAVITY>
0

>  <SCORE.RESTR.norm>
0

>  <SCORE.SYSTEM>
0

>  <SCORE.SYSTEM.CONST>
0

>  <SCORE.SYSTEM.DIHEDRAL>
0

>  <SCORE.SYSTEM.SOLV>
0

>  <SCORE.SYSTEM.norm>
0

>  <SCORE.heavy>
16

>  <SCORE.norm>
-1.72205

>  <RMSD>
1.874

$$$$
1f27 biotin aptamer (Xray 1.3A)
 OpenBabel11021811393D
libRbt.so/2013.1/901 2013/11/27
 16 17  0  0  0  0  0  0  0  0999 V2000
   20.7626   -0.0758   12.5927 C   0  0  0  0  0  0  0  0  0  0  0  0
   19.8044   -0.8362   12.6881 O   0  5  0  0  0  0  0  0  0  0  0  0
   21.8573   -0.5124   12.2413 O   0  0  0  0  0  0  0  0  0  0  0  0
   20.5824    1.4161   12.8419 C   0  0  0  0  0  0  0  0  0  0  0  0
   20.0514    1.7572   14.2521 C   0  0  0  0  0  0  0  0  0  0  0  0
   18.5881    1.3854   14.4050 C   0  0  0  0  0  0  0  0  0  0  0  0
   17.6557    2.2489   13.5812 C   0  0  0  0  0  0  0  0  0  0  0  0
   16.1827    2.1938   14.0071 C   0  0  2  0  0  0  0  0  0  0  0  0
   15.3374    0.4810   13.8750 S   0  0  0  0  0  0  0  0  0  0  0  0
   13.6793    1.4062   14.0743 C   0  0  0  0  0  0  0  0  0  0  0  0
   13.8799    2.7579   13.3289 C   0  0  2  0  0  0  0  0  0  0  0  0
   13.4211    2.5026   11.8683 N   0  0  0  0  0  0  0  0  0  0  0  0
   14.3315    2.6992   11.0165 C   0  0  0  0  0  0  0  0  0  0  0  0
   14.3647    2.4372    9.7619 O   0  0  0  0  0  0  0  0  0  0  0  0
   15.6271    2.9585   11.6011 N   0  0  0  0  0  0  0  0  0  0  0  0
   15.3431    3.0930   13.0969 C   0  0  2  0  0  0  0  0  0  0  0  0
  1  2  1  0  0  0  0
  1  3  2  0  0  0  0
  1  4  1  0  0  0  0
  4  5  1  0  0  0  0
  5  6  1  0  0  0  0
  6  7  1  0  0  0  0
  8  7  1  6  0  0  0
  8  9  1  0  0  0  0
  8 16  1  0  0  0  0
  9 10  1  0  0  0  0
 11 10  1  1  0  0  0
 11 12  1  0  0  0  0
 11 16  1  0  0  0  0
 12 13  1  0  0  0  0
 13 14  2  0  0  0  0
 13 15  1  0  0  0  0
 16 15  1  6  0  0  0
M  CHG  1   2  -1
M  END
>  <CHROM.1>
59.05097858,-72.21254160,-68.92022164,-162.79102048,-61.94973683,16.88038439
1.50450680,12.87072926,-0.16648675,0.27540065,-1.35563089

>  <Name>
1f27 biotin aptamer (Xray 1.3A)

>  <RI>
0

>  <Rbt.Current_Directory>
/home/itssahil/PROJECTS/Mol_Feturizer/New_Systems/rnas/1f27

>  <Rbt.Executable>
rbdock ($Id: //depot/dev/client3/rdock/2013.1/src/exe/rbdock.cxx#4 $)

>  <Rbt.Library>
libRbt.so (2013.1, Build901 2013/11/27)

>  <Rbt.Parameter_File>
/export/apps/rDock/src/rDock_2013.1_src/data/scripts/dock_solv.prm

>  <Rbt.Receptor>
prm/blind_docking_60.prm

>  <SCORE>
-34.1648

>  <SCORE.INTER>
-33.0993

>  <SCORE.INTER.CONST>
1

>  <SCORE.INTER.POLAR>
-2.51462

>  <SCORE.INTER.ROT>
5

>  <SCORE.INTER.SOLV>
14.3504

>  <SCORE.INTER.VDW>
-25.4009

>  <SCORE.INTER.norm>
-2.0687

>  <SCORE.INTRA>
-1.06549

>  <SCORE.INTRA.DIHEDRAL>
-3.48729

>  <SCORE.INTRA.DIHEDRAL.0>
6.87082

>  <SCORE.INTRA.POLAR>
0

>  <SCORE.INTRA.POLAR.0>
0

>  <SCORE.INTRA.REPUL>
0

>  <SCORE.INTRA.REPUL.0>
0

>  <SCORE.INTRA.SOLV>
0.413596

>  <SCORE.INTRA.SOLV.lig_0>
-42.5944

>  <SCORE.INTRA.VDW>
0.471358

>  <SCORE.INTRA.VDW.0>
-1.067

>  <SCORE.INTRA.norm>
-0.066593

>  <SCORE.RESTR>
0

>  <SCORE.RESTR.CAVITY>
0

>  <SCORE.RESTR.norm>
0

>  <SCORE.SYSTEM>
0

>  <SCORE.SYSTEM.CONST>
0

>  <SCORE.SYSTEM.DIHEDRAL>
0

>  <SCORE.SYSTEM.SOLV>
0

>  <SCORE.SYSTEM.norm>
0

>  <SCORE.heavy>
16

>  <SCORE.norm>
-2.1353

>  <RMSD>
1.881

$$$$
1f27 biotin aptamer (Xray 1.3A)
 OpenBabel11021811393D
libRbt.so/2013.1/901 2013/11/27
 16 17  0  0  0  0  0  0  0  0999 V2000
   20.7273   -0.0179   12.4220 C   0  0  0  0  0  0  0  0  0  0  0  0
   21.8366   -0.4881   12.1900 O   0  5  0  0  0  0  0  0  0  0  0  0
   19.7391   -0.7499   12.4156 O   0  0  0  0  0  0  0  0  0  0  0  0
   20.5816    1.4545   12.7844 C   0  0  0  0  0  0  0  0  0  0  0  0
   20.2099    1.7030   14.2632 C   0  0  0  0  0  0  0  0  0  0  0  0
   18.8417    1.1392   14.5995 C   0  0  0  0  0  0  0  0  0  0  0  0
   17.7080    2.1100   14.3426 C   0  0  0  0  0  0  0  0  0  0  0  0
   16.3029    1.5059   14.4652 C   0  0  2  0  0  0  0  0  0  0  0  0
   15.8232    0.2257   13.1248 S   0  0  0  0  0  0  0  0  0  0  0  0
   14.0230    0.4353   13.7251 C   0  0  0  0  0  0  0  0  0  0  0  0
   13.9004    1.9374   14.1147 C   0  0  2  0  0  0  0  0  0  0  0  0
   13.4267    2.6660   12.8287 N   0  0  0  0  0  0  0  0  0  0  0  0
   14.2302    3.5555   12.4331 C   0  0  0  0  0  0  0  0  0  0  0  0
   14.2496    4.2309   11.3435 O   0  0  0  0  0  0  0  0  0  0  0  0
   15.4738    3.5825   13.1682 N   0  0  0  0  0  0  0  0  0  0  0  0
   15.2485    2.6057   14.3219 C   0  0  2  0  0  0  0  0  0  0  0  0
  1  2  1  0  0  0  0
  1  3  2  0  0  0  0
  1  4  1  0  0  0  0
  4  5  1  0  0  0  0
  5  6  1  0  0  0  0
  6  7  1  0  0  0  0
  8  7  1  6  0  0  0
  8  9  1  0  0  0  0
  8 16  1  0  0  0  0
  9 10  1  0  0  0  0
 11 10  1  6  0  0  0
 11 12  1  0  0  0  0
 11 16  1  0  0  0  0
 12 13  1  0  0  0  0
 13 14  2  0  0  0  0
 13 15  1  0  0  0  0
 16 15  1  6  0  0  0
M  CHG  1   2  -1
M  END
>  <CHROM.1>
-108.92349513,-64.15909418,-88.21068785,171.04841102,-68.02878161,16.96435575
1.50632127,13.23662521,-0.34635586,0.09046742,-0.19977160

>  <Name>
1f27 biotin aptamer (Xray 1.3A)

>  <RI>
0

>  <Rbt.Current_Directory>
/home/itssahil/PROJECTS/Mol_Feturizer/New_Systems/rnas/1f27

>  <Rbt.Executable>
rbdock ($Id: //depot/dev/client3/rdock/2013.1/src/exe/rbdock.cxx#4 $)

>  <Rbt.Library>
libRbt.so (2013.1, Build901 2013/11/27)

>  <Rbt.Parameter_File>
/export/apps/rDock/src/rDock_2013.1_src/data/scripts/dock_solv.prm

>  <Rbt.Receptor>
prm/pocket_docking_8.prm

>  <SCORE>
-32.8502

>  <SCORE.INTER>
-32.1831

>  <SCORE.INTER.CONST>
1

>  <SCORE.INTER.POLAR>
-2.56199

>  <SCORE.INTER.ROT>
5

>  <SCORE.INTER.SOLV>
15.5284

>  <SCORE.INTER.VDW>
-25.0249

>  <SCORE.INTER.norm>
-2.01144

>  <SCORE.INTRA>
-0.667163

>  <SCORE.INTRA.DIHEDRAL>
-2.14416

>  <SCORE.INTRA.DIHEDRAL.0>
6.87082

>  <SCORE.INTRA.POLAR>
0

>  <SCORE.INTRA.POLAR.0>
0

>  <SCORE.INTRA.REPUL>
0

>  <SCORE.INTRA.REPUL.0>
0

>  <SCORE.INTRA.SOLV>
0.765898

>  <SCORE.INTRA.SOLV.lig_0>
-42.5944

>  <SCORE.INTRA.VDW>
0.021969

>  <SCORE.INTRA.VDW.0>
-1.067

>  <SCORE.INTRA.norm>
-0.0416977

>  <SCORE.RESTR>
0

>  <SCORE.RESTR.CAVITY>
0

>  <SCORE.RESTR.norm>
0

>  <SCORE.SYSTEM>
0

>  <SCORE.SYSTEM.CONST>
0

>  <SCORE.SYSTEM.DIHEDRAL>
0

>  <SCORE.SYSTEM.SOLV>
0

>  <SCORE.SYSTEM.norm>
0

>  <SCORE.heavy>
16

>  <SCORE.norm>
-2.05314

>  <RMSD>
1.884

$$$$
1f27 biotin aptamer (Xray 1.3A)
 OpenBabel11021811393D
libRbt.so/2013.1/901 2013/11/27
 16 17  0  0  0  0  0  0  0  0999 V2000
   21.2888   -0.2932   15.5722 C   0  0  0  0  0  0  0  0  0  0  0  0
   21.8118    0.1471   16.5911 O   0  5  0  0  0  0  0  0  0  0  0  0
   20.7271   -1.3869   15.5966 O   0  0  0  0  0  0  0  0  0  0  0  0
   21.2749    0.5415   14.2980 C   0  0  0  0  0  0  0  0  0  0  0  0
   20.2520    1.6992   14.3174 C   0  0  0  0  0  0  0  0  0  0  0  0
   18.8263    1.1860   14.4010 C   0  0  0  0  0  0  0  0  0  0  0  0
   17.7879    2.2217   14.0232 C   0  0  0  0  0  0  0  0  0  0  0  0
   16.3327    1.7705   14.2053 C   0  0  2  0  0  0  0  0  0  0  0  0
   15.8924    0.0541   13.4802 S   0  0  0  0  0  0  0  0  0  0  0  0
   14.0626    0.5541   13.6964 C   0  0  0  0  0  0  0  0  0  0  0  0
   14.0240    2.0811   13.3965 C   0  0  2  0  0  0  0  0  0  0  0  0
   13.7494    2.2016   11.8735 N   0  0  0  0  0  0  0  0  0  0  0  0
   14.6605    2.8113   11.2479 C   0  0  0  0  0  0  0  0  0  0  0  0
   14.8497    2.9533    9.9878 O   0  0  0  0  0  0  0  0  0  0  0  0
   15.8181    3.1140   12.0577 N   0  0  0  0  0  0  0  0  0  0  0  0
   15.3934    2.7334   13.4757 C   0  0  2  0  0  0  0  0  0  0  0  0
  1  2  1  0  0  0  0
  1  3  2  0  0  0  0
  1  4  1  0  0  0  0
  4  5  1  0  0  0  0
  5  6  1  0  0  0  0
  6  7  1  0  0  0  0
  8  7  1  6  0  0  0
  8  9  1  0  0  0  0
  8 16  1  0  0  0  0
  9 10  1  0  0  0  0
 11 10  1  6  0  0  0
 11 12  1  0  0  0  0
 11 16  1  0  0  0  0
 12 13  1  0  0  0  0
 13 14  2  0  0  0  0
 13 15  1  0  0  0  0
 16 15  1  6  0  0  0
M  CHG  1   2  -1
M  END
>  <CHROM.1>
-75.27320996,-63.96341807,-163.23609818,-175.30806262,-48.21003554,17.23120538
1.28204228,13.62336831,0.53237812,0.17640434,2.43245281

>  <Name>
1f27 biotin aptamer (Xray 1.3A)

>  <RI>
0

>  <Rbt.Current_Directory>
/home/itssahil/PROJECTS/Mol_Feturizer/New_Systems/rnas/1f27

>  <Rbt.Executable>
rbdock ($Id: //depot/dev/client3/rdock/2013.1/src/exe/rbdock.cxx#4 $)

>  <Rbt.Library>
libRbt.so (2013.1, Build901 2013/11/27)

>  <Rbt.Parameter_File>
/export/apps/rDock/src/rDock_2013.1_src/data/scripts/dock_solv.prm

>  <Rbt.Receptor>
prm/pocket_docking_3.prm

>  <SCORE>
-33.3515

>  <SCORE.INTER>
-31.6549

>  <SCORE.INTER.CONST>
1

>  <SCORE.INTER.POLAR>
-2.30313

>  <SCORE.INTER.ROT>
5

>  <SCORE.INTER.SOLV>
11.2144

>  <SCORE.INTER.VDW>
-24.0977

>  <SCORE.INTER.norm>
-1.97843

>  <SCORE.INTRA>
-1.69663

>  <SCORE.INTRA.DIHEDRAL>
-3.7797

>  <SCORE.INTRA.DIHEDRAL.0>
6.87082

>  <SCORE.INTRA.POLAR>
0

>  <SCORE.INTRA.POLAR.0>
0

>  <SCORE.INTRA.REPUL>
0

>  <SCORE.INTRA.REPUL.0>
0

>  <SCORE.INTRA.SOLV>
0.121504

>  <SCORE.INTRA.SOLV.lig_0>
-42.5944

>  <SCORE.INTRA.VDW>
0.132467

>  <SCORE.INTRA.VDW.0>
-1.067

>  <SCORE.INTRA.norm>
-0.10604

>  <SCORE.RESTR>
0

>  <SCORE.RESTR.CAVITY>
0

>  <SCORE.RESTR.norm>
0

>  <SCORE.SYSTEM>
0

>  <SCORE.SYSTEM.CONST>
0

>  <SCORE.SYSTEM.DIHEDRAL>
0

>  <SCORE.SYSTEM.SOLV>
0

>  <SCORE.SYSTEM.norm>
0

>  <SCORE.heavy>
16

>  <SCORE.norm>
-2.08447

>  <RMSD>
1.887

$$$$
1f27 biotin aptamer (Xray 1.3A)
 OpenBabel11021811393D
libRbt.so/2013.1/901 2013/11/27
 16 17  0  0  0  0  0  0  0  0999 V2000
   21.4367   -0.0750   15.8096 C   0  0  0  0  0  0  0  0  0  0  0  0
   21.6481    0.1206   17.0022 O   0  5  0  0  0  0  0  0  0  0  0  0
   21.3464   -1.2258   15.3850 O   0  0  0  0  0  0  0  0  0  0  0  0
   21.2184    1.1028   14.8685 C   0  0  0  0  0  0  0  0  0  0  0  0
   20.2419    0.8065   13.7085 C   0  0  0  0  0  0  0  0  0  0  0  0
   18.8171    0.6406   14.2038 C   0  0  0  0  0  0  0  0  0  0  0  0
   17.9338    1.8366   13.9157 C   0  0  0  0  0  0  0  0  0  0  0  0
   16.4392    1.6114   14.1797 C   0  0  2  0  0  0  0  0  0  0  0  0
   15.7181   -0.0449   13.5454 S   0  0  0  0  0  0  0  0  0  0  0  0
   13.9937    0.7268   13.8210 C   0  0  0  0  0  0  0  0  0  0  0  0
   14.1633    2.2316   13.4608 C   0  0  2  0  0  0  0  0  0  0  0  0
   13.8345    2.3395   11.9477 N   0  0  0  0  0  0  0  0  0  0  0  0
   14.7927    2.7864   11.2583 C   0  0  0  0  0  0  0  0  0  0  0  0
   14.9381    2.8560    9.9864 O   0  0  0  0  0  0  0  0  0  0  0  0
   16.0206    2.9424   12.0036 N   0  0  0  0  0  0  0  0  0  0  0  0
   15.6154    2.6770   13.4532 C   0  0  2  0  0  0  0  0  0  0  0  0
  1  2  1  0  0  0  0
  1  3  2  0  0  0  0
  1  4  1  0  0  0  0
  4  5  1  0  0  0  0
  5  6  1  0  0  0  0
  6  7  1  0  0  0  0
  8  7  1  6  0  0  0
  8  9  1  0  0  0  0
  8 16  1  0  0  0  0
  9 10  1  0  0  0  0
 11 10  1  6  0  0  0
 11 12  1  0  0  0  0
 11 16  1  0  0  0  0
 12 13  1  0  0  0  0
 13 14  2  0  0  0  0
 13 15  1  0  0  0  0
 16 15  1  6  0  0  0
M  CHG  1   2  -1
M  END
>  <CHROM.1>
-147.34842559,69.19493187,104.45036427,169.86767952,-44.36962459,17.30051099
1.21254126,13.64672099,-0.55046528,-0.10284557,-0.84922832

>  <Name>
1f27 biotin aptamer (Xray 1.3A)

>  <RI>
0

>  <Rbt.Current_Directory>
/home/itssahil/PROJECTS/Mol_Feturizer/New_Systems/rnas/1f27

>  <Rbt.Executable>
rbdock ($Id: //depot/dev/client3/rdock/2013.1/src/exe/rbdock.cxx#4 $)

>  <Rbt.Library>
libRbt.so (2013.1, Build901 2013/11/27)

>  <Rbt.Parameter_File>
/export/apps/rDock/src/rDock_2013.1_src/data/scripts/dock_solv.prm

>  <Rbt.Receptor>
prm/pocket_docking_4.prm

>  <SCORE>
-30.8949

>  <SCORE.INTER>
-32.2119

>  <SCORE.INTER.CONST>
1

>  <SCORE.INTER.POLAR>
-2.46458

>  <SCORE.INTER.ROT>
5

>  <SCORE.INTER.SOLV>
11.0545

>  <SCORE.INTER.VDW>
-23.8775

>  <SCORE.INTER.norm>
-2.01324

>  <SCORE.INTRA>
1.31701

>  <SCORE.INTRA.DIHEDRAL>
1.42924

>  <SCORE.INTRA.DIHEDRAL.0>
6.87082

>  <SCORE.INTRA.POLAR>
0

>  <SCORE.INTRA.POLAR.0>
0

>  <SCORE.INTRA.REPUL>
0

>  <SCORE.INTRA.REPUL.0>
0

>  <SCORE.INTRA.SOLV>
0.108763

>  <SCORE.INTRA.SOLV.lig_0>
-42.5944

>  <SCORE.INTRA.VDW>
0.548009

>  <SCORE.INTRA.VDW.0>
-1.067

>  <SCORE.INTRA.norm>
0.0823132

>  <SCORE.RESTR>
0

>  <SCORE.RESTR.CAVITY>
0

>  <SCORE.RESTR.norm>
0

>  <SCORE.SYSTEM>
0

>  <SCORE.SYSTEM.CONST>
0

>  <SCORE.SYSTEM.DIHEDRAL>
0

>  <SCORE.SYSTEM.SOLV>
0

>  <SCORE.SYSTEM.norm>
0

>  <SCORE.heavy>
16

>  <SCORE.norm>
-1.93093

>  <RMSD>
1.888

$$$$
1f27 biotin aptamer (Xray 1.3A)
 OpenBabel11021811393D
libRbt.so/2013.1/901 2013/11/27
 16 17  0  0  0  0  0  0  0  0999 V2000
   19.6629   -0.8496   12.9114 C   0  0  0  0  0  0  0  0  0  0  0  0
   18.4430   -0.8899   12.7866 O   0  5  0  0  0  0  0  0  0  0  0  0
   20.3337   -1.8573   12.6944 O   0  0  0  0  0  0  0  0  0  0  0  0
   20.3521    0.4615   13.2673 C   0  0  0  0  0  0  0  0  0  0  0  0
   19.4960    1.4027   14.1436 C   0  0  0  0  0  0  0  0  0  0  0  0
   18.4163    2.0955   13.3329 C   0  0  0  0  0  0  0  0  0  0  0  0
   17.4336    2.8780   14.1788 C   0  0  0  0  0  0  0  0  0  0  0  0
   16.0320    2.2610   14.2738 C   0  0  2  0  0  0  0  0  0  0  0  0
   15.8748    0.4473   13.6810 S   0  0  0  0  0  0  0  0  0  0  0  0
   13.9859    0.7251   13.6851 C   0  0  0  0  0  0  0  0  0  0  0  0
   13.7951    2.2037   13.2374 C   0  0  2  0  0  0  0  0  0  0  0  0
   13.6616    2.1591   11.6917 N   0  0  0  0  0  0  0  0  0  0  0  0
   14.5511    2.8255   11.0934 C   0  0  0  0  0  0  0  0  0  0  0  0
   14.8469    2.8837    9.8473 O   0  0  0  0  0  0  0  0  0  0  0  0
   15.5775    3.3414   11.9698 N   0  0  0  0  0  0  0  0  0  0  0  0
   15.0618    3.0305   13.3746 C   0  0  2  0  0  0  0  0  0  0  0  0
  1  2  1  0  0  0  0
  1  3  2  0  0  0  0
  1  4  1  0  0  0  0
  4  5  1  0  0  0  0
  5  6  1  0  0  0  0
  6  7  1  0  0  0  0
  8  7  1  6  0  0  0
  8  9  1  0  0  0  0
  8 16  1  0  0  0  0
  9 10  1  0  0  0  0
 11 10  1  6  0  0  0
 11 12  1  0  0  0  0
 11 16  1  0  0  0  0
 12 13  1  0  0  0  0
 13 14  2  0  0  0  0
 13 15  1  0  0  0  0
 16 15  1  6  0  0  0
M  CHG  1   2  -1
M  END
>  <CHROM.1>
31.05967759,-76.11518547,172.00427580,-108.62168691,13.97622832,16.68435879
1.34161933,12.91097619,0.47487909,0.22881114,-3.09383274

>  <Name>
1f27 biotin aptamer (Xray 1.3A)

>  <RI>
0

>  <Rbt.Current_Directory>
/home/itssahil/PROJECTS/Mol_Feturizer/New_Systems/rnas/1f27

>  <Rbt.Executable>
rbdock ($Id: //depot/dev/client3/rdock/2013.1/src/exe/rbdock.cxx#4 $)

>  <Rbt.Library>
libRbt.so (2013.1, Build901 2013/11/27)

>  <Rbt.Parameter_File>
/export/apps/rDock/src/rDock_2013.1_src/data/scripts/dock_solv.prm

>  <Rbt.Receptor>
prm/pocket_docking_8.prm

>  <SCORE>
-22.4383

>  <SCORE.INTER>
-26.7789

>  <SCORE.INTER.CONST>
1

>  <SCORE.INTER.POLAR>
-1.64212

>  <SCORE.INTER.ROT>
5

>  <SCORE.INTER.SOLV>
11.9794

>  <SCORE.INTER.VDW>
-23.3054

>  <SCORE.INTER.norm>
-1.67368

>  <SCORE.INTRA>
4.34064

>  <SCORE.INTRA.DIHEDRAL>
6.22789

>  <SCORE.INTRA.DIHEDRAL.0>
6.87082

>  <SCORE.INTRA.POLAR>
0

>  <SCORE.INTRA.POLAR.0>
0

>  <SCORE.INTRA.REPUL>
0

>  <SCORE.INTRA.REPUL.0>
0

>  <SCORE.INTRA.SOLV>
1.55599

>  <SCORE.INTRA.SOLV.lig_0>
-42.5944

>  <SCORE.INTRA.VDW>
0.448702

>  <SCORE.INTRA.VDW.0>
-1.067

>  <SCORE.INTRA.norm>
0.27129

>  <SCORE.RESTR>
0

>  <SCORE.RESTR.CAVITY>
0

>  <SCORE.RESTR.norm>
0

>  <SCORE.SYSTEM>
0

>  <SCORE.SYSTEM.CONST>
0

>  <SCORE.SYSTEM.DIHEDRAL>
0

>  <SCORE.SYSTEM.SOLV>
0

>  <SCORE.SYSTEM.norm>
0

>  <SCORE.heavy>
16

>  <SCORE.norm>
-1.40239

>  <RMSD>
1.888

$$$$
1f27 biotin aptamer (Xray 1.3A)
 OpenBabel11021811393D
libRbt.so/2013.1/901 2013/11/27
 16 17  0  0  0  0  0  0  0  0999 V2000
   21.4290   -0.1583   15.4619 C   0  0  0  0  0  0  0  0  0  0  0  0
   22.3589    0.3766   16.0574 O   0  5  0  0  0  0  0  0  0  0  0  0
   20.7303   -0.9895   16.0392 O   0  0  0  0  0  0  0  0  0  0  0  0
   21.0971    0.2551   14.0338 C   0  0  0  0  0  0  0  0  0  0  0  0
   20.1532    1.4743   13.9367 C   0  0  0  0  0  0  0  0  0  0  0  0
   18.7250    1.1073   14.2951 C   0  0  0  0  0  0  0  0  0  0  0  0
   17.7321    2.2219   14.0391 C   0  0  0  0  0  0  0  0  0  0  0  0
   16.2616    1.8327   14.2400 C   0  0  2  0  0  0  0  0  0  0  0  0
   15.7446    0.1275   13.5396 S   0  0  0  0  0  0  0  0  0  0  0  0
   13.9389    0.7044   13.7667 C   0  0  0  0  0  0  0  0  0  0  0  0
   13.9597    2.2281   13.4488 C   0  0  2  0  0  0  0  0  0  0  0  0
   13.6755    2.3422   11.9272 N   0  0  0  0  0  0  0  0  0  0  0  0
   14.6046    2.9068   11.2859 C   0  0  0  0  0  0  0  0  0  0  0  0
   14.7872    3.0264   10.0225 O   0  0  0  0  0  0  0  0  0  0  0  0
   15.7814    3.1712   12.0813 N   0  0  0  0  0  0  0  0  0  0  0  0
   15.3552    2.8247   13.5076 C   0  0  2  0  0  0  0  0  0  0  0  0
  1  2  1  0  0  0  0
  1  3  2  0  0  0  0
  1  4  1  0  0  0  0
  4  5  1  0  0  0  0
  5  6  1  0  0  0  0
  6  7  1  0  0  0  0
  8  7  1  6  0  0  0
  8  9  1  0  0  0  0
  8 16  1  0  0  0  0
  9 10  1  0  0  0  0
 11 10  1  6  0  0  0
 11 12  1  0  0  0  0
 11 16  1  0  0  0  0
 12 13  1  0  0  0  0
 13 14  2  0  0  0  0
 13 15  1  0  0  0  0
 16 15  1  6  0  0  0
M  CHG  1   2  -1
M  END
>  <CHROM.1>
-86.05999473,-74.14781919,-172.37750729,173.40740982,-42.72881389,17.19968376
1.35202770,13.59673453,-0.51452917,-0.09748627,-0.79933137

>  <Name>
1f27 biotin aptamer (Xray 1.3A)

>  <RI>
0

>  <Rbt.Current_Directory>
/home/itssahil/PROJECTS/Mol_Feturizer/New_Systems/rnas/1f27

>  <Rbt.Executable>
rbdock ($Id: //depot/dev/client3/rdock/2013.1/src/exe/rbdock.cxx#4 $)

>  <Rbt.Library>
libRbt.so (2013.1, Build901 2013/11/27)

>  <Rbt.Parameter_File>
/export/apps/rDock/src/rDock_2013.1_src/data/scripts/dock_solv.prm

>  <Rbt.Receptor>
prm/pocket_docking_7.prm

>  <SCORE>
-30.3593

>  <SCORE.INTER>
-28.7795

>  <SCORE.INTER.CONST>
1

>  <SCORE.INTER.POLAR>
-1.83332

>  <SCORE.INTER.ROT>
5

>  <SCORE.INTER.SOLV>
11.7462

>  <SCORE.INTER.VDW>
-23.924

>  <SCORE.INTER.norm>
-1.79872

>  <SCORE.INTRA>
-1.57979

>  <SCORE.INTRA.DIHEDRAL>
-3.35176

>  <SCORE.INTRA.DIHEDRAL.0>
6.87082

>  <SCORE.INTRA.POLAR>
0

>  <SCORE.INTRA.POLAR.0>
0

>  <SCORE.INTRA.REPUL>
0

>  <SCORE.INTRA.REPUL.0>
0

>  <SCORE.INTRA.SOLV>
0.0262754

>  <SCORE.INTRA.SOLV.lig_0>
-42.5944

>  <SCORE.INTRA.VDW>
0.0829522

>  <SCORE.INTRA.VDW.0>
-1.067

>  <SCORE.INTRA.norm>
-0.098737

>  <SCORE.RESTR>
0

>  <SCORE.RESTR.CAVITY>
0

>  <SCORE.RESTR.norm>
0

>  <SCORE.SYSTEM>
0

>  <SCORE.SYSTEM.CONST>
0

>  <SCORE.SYSTEM.DIHEDRAL>
0

>  <SCORE.SYSTEM.SOLV>
0

>  <SCORE.SYSTEM.norm>
0

>  <SCORE.heavy>
16

>  <SCORE.norm>
-1.89746

>  <RMSD>
1.891

$$$$
1f27 biotin aptamer (Xray 1.3A)
 OpenBabel11021811393D
libRbt.so/2013.1/901 2013/11/27
 16 17  0  0  0  0  0  0  0  0999 V2000
   21.2948   -0.6101   16.1457 C   0  0  0  0  0  0  0  0  0  0  0  0
   21.7131   -1.6466   15.6395 O   0  5  0  0  0  0  0  0  0  0  0  0
   21.9822   -0.0118   16.9715 O   0  0  0  0  0  0  0  0  0  0  0  0
   19.9584   -0.0283   15.7029 C   0  0  0  0  0  0  0  0  0  0  0  0
   19.9406    0.4578   14.2365 C   0  0  0  0  0  0  0  0  0  0  0  0
   18.5319    0.4868   13.6728 C   0  0  0  0  0  0  0  0  0  0  0  0
   17.7705    1.7509   14.0133 C   0  0  0  0  0  0  0  0  0  0  0  0
   16.2643    1.5560   14.2318 C   0  0  2  0  0  0  0  0  0  0  0  0
   15.5248   -0.0741   13.5524 S   0  0  0  0  0  0  0  0  0  0  0  0
   13.8109    0.7325   13.7910 C   0  0  0  0  0  0  0  0  0  0  0  0
   14.0242    2.2382   13.4585 C   0  0  2  0  0  0  0  0  0  0  0  0
   13.7411    2.3753   11.9386 N   0  0  0  0  0  0  0  0  0  0  0  0
   14.7283    2.8103   11.2832 C   0  0  0  0  0  0  0  0  0  0  0  0
   14.9114    2.8950   10.0171 O   0  0  0  0  0  0  0  0  0  0  0  0
   15.9377    2.9275   12.0650 N   0  0  0  0  0  0  0  0  0  0  0  0
   15.4855    2.6505   13.4985 C   0  0  2  0  0  0  0  0  0  0  0  0
  1  2  1  0  0  0  0
  1  3  2  0  0  0  0
  1  4  1  0  0  0  0
  4  5  1  0  0  0  0
  5  6  1  0  0  0  0
  6  7  1  0  0  0  0
  8  7  1  6  0  0  0
  8  9  1  0  0  0  0
  8 16  1  0  0  0  0
  9 10  1  0  0  0  0
 11 10  1  6  0  0  0
 11 12  1  0  0  0  0
 11 16  1  0  0  0  0
 12 13  1  0  0  0  0
 13 14  2  0  0  0  0
 13 15  1  0  0  0  0
 16 15  1  6  0  0  0
M  CHG  1   2  -1
M  END
>  <CHROM.1>
-65.66722767,156.64385221,83.77314896,-145.80653816,-17.33631217,17.14824490
1.04815131,13.74237088,0.60659070,0.08279214,2.30928562

>  <Name>
1f27 biotin aptamer (Xray 1.3A)

>  <RI>
0

>  <Rbt.Current_Directory>
/home/itssahil/PROJECTS/Mol_Feturizer/New_Systems/rnas/1f27

>  <Rbt.Executable>
rbdock ($Id: //depot/dev/client3/rdock/2013.1/src/exe/rbdock.cxx#4 $)

>  <Rbt.Library>
libRbt.so (2013.1, Build901 2013/11/27)

>  <Rbt.Parameter_File>
/export/apps/rDock/src/rDock_2013.1_src/data/scripts/dock_solv.prm

>  <Rbt.Receptor>
prm/pocket_docking_8.prm

>  <SCORE>
-27.6828

>  <SCORE.INTER>
-31.4967

>  <SCORE.INTER.CONST>
1

>  <SCORE.INTER.POLAR>
-2.60419

>  <SCORE.INTER.ROT>
5

>  <SCORE.INTER.SOLV>
10.138

>  <SCORE.INTER.VDW>
-22.6298

>  <SCORE.INTER.norm>
-1.96854

>  <SCORE.INTRA>
3.81384

>  <SCORE.INTRA.DIHEDRAL>
6.77223

>  <SCORE.INTRA.DIHEDRAL.0>
6.87082

>  <SCORE.INTRA.POLAR>
0

>  <SCORE.INTRA.POLAR.0>
0

>  <SCORE.INTRA.REPUL>
0

>  <SCORE.INTRA.REPUL.0>
0

>  <SCORE.INTRA.SOLV>
-0.672842

>  <SCORE.INTRA.SOLV.lig_0>
-42.5944

>  <SCORE.INTRA.VDW>
0.764152

>  <SCORE.INTRA.VDW.0>
-1.067

>  <SCORE.INTRA.norm>
0.238365

>  <SCORE.RESTR>
0

>  <SCORE.RESTR.CAVITY>
0

>  <SCORE.RESTR.norm>
0

>  <SCORE.SYSTEM>
0

>  <SCORE.SYSTEM.CONST>
0

>  <SCORE.SYSTEM.DIHEDRAL>
0

>  <SCORE.SYSTEM.SOLV>
0

>  <SCORE.SYSTEM.norm>
0

>  <SCORE.heavy>
16

>  <SCORE.norm>
-1.73018

>  <RMSD>
1.891

$$$$
1f27 biotin aptamer (Xray 1.3A)
 OpenBabel11021811393D
libRbt.so/2013.1/901 2013/11/27
 16 17  0  0  0  0  0  0  0  0999 V2000
   21.1506    0.0726   14.2635 C   0  0  0  0  0  0  0  0  0  0  0  0
   22.1014    0.2918   15.0074 O   0  5  0  0  0  0  0  0  0  0  0  0
   20.3952   -0.8691   14.4976 O   0  0  0  0  0  0  0  0  0  0  0  0
   20.8656    1.0042   13.0924 C   0  0  0  0  0  0  0  0  0  0  0  0
   19.8772    2.1445   13.4238 C   0  0  0  0  0  0  0  0  0  0  0  0
   18.5022    1.6089   13.7782 C   0  0  0  0  0  0  0  0  0  0  0  0
   17.4645    2.6935   13.9795 C   0  0  0  0  0  0  0  0  0  0  0  0
   16.0249    2.1860   14.1354 C   0  0  2  0  0  0  0  0  0  0  0  0
   15.6526    0.4754   13.3601 S   0  0  0  0  0  0  0  0  0  0  0  0
   13.8043    0.9040   13.5720 C   0  0  0  0  0  0  0  0  0  0  0  0
   13.7136    2.4363   13.3128 C   0  0  2  0  0  0  0  0  0  0  0  0
   13.4482    2.5883   11.7911 N   0  0  0  0  0  0  0  0  0  0  0  0
   14.3422    3.2468   11.1909 C   0  0  0  0  0  0  0  0  0  0  0  0
   14.5372    3.4297    9.9370 O   0  0  0  0  0  0  0  0  0  0  0  0
   15.4812    3.5683   12.0197 N   0  0  0  0  0  0  0  0  0  0  0  0
   15.0580    3.1344   13.4228 C   0  0  2  0  0  0  0  0  0  0  0  0
  1  2  1  0  0  0  0
  1  3  2  0  0  0  0
  1  4  1  0  0  0  0
  4  5  1  0  0  0  0
  5  6  1  0  0  0  0
  6  7  1  0  0  0  0
  8  7  1  6  0  0  0
  8  9  1  0  0  0  0
  8 16  1  0  0  0  0
  9 10  1  0  0  0  0
 11 10  1  6  0  0  0
 11 12  1  0  0  0  0
 11 16  1  0  0  0  0
 12 13  1  0  0  0  0
 13 14  2  0  0  0  0
 13 15  1  0  0  0  0
 16 15  1  6  0  0  0
M  CHG  1   2  -1
M  END
>  <CHROM.1>
-92.18203945,-63.73258919,-174.39162493,171.46413059,-24.39724494,16.96594837
1.69081420,13.17528153,-0.43494871,-0.02965805,-0.71441887

>  <Name>
1f27 biotin aptamer (Xray 1.3A)

>  <RI>
0

>  <Rbt.Current_Directory>
/home/itssahil/PROJECTS/Mol_Feturizer/New_Systems/rnas/1f27

>  <Rbt.Executable>
rbdock ($Id: //depot/dev/client3/rdock/2013.1/src/exe/rbdock.cxx#4 $)

>  <Rbt.Library>
libRbt.so (2013.1, Build901 2013/11/27)

>  <Rbt.Parameter_File>
/export/apps/rDock/src/rDock_2013.1_src/data/scripts/dock_solv.prm

>  <Rbt.Receptor>
prm/blind_docking_40.prm

>  <SCORE>
-28.0501

>  <SCORE.INTER>
-28.2886

>  <SCORE.INTER.CONST>
1

>  <SCORE.INTER.POLAR>
-1.68293

>  <SCORE.INTER.ROT>
5

>  <SCORE.INTER.SOLV>
10.301

>  <SCORE.INTER.VDW>
-23.6163

>  <SCORE.INTER.norm>
-1.76804

>  <SCORE.INTRA>
-0.0348446

>  <SCORE.INTRA.DIHEDRAL>
-1.33696

>  <SCORE.INTRA.DIHEDRAL.0>
6.87082

>  <SCORE.INTRA.POLAR>
0

>  <SCORE.INTRA.POLAR.0>
0

>  <SCORE.INTRA.REPUL>
0

>  <SCORE.INTRA.REPUL.0>
0

>  <SCORE.INTRA.SOLV>
0.278168

>  <SCORE.INTRA.SOLV.lig_0>
-42.5944

>  <SCORE.INTRA.VDW>
0.49455

>  <SCORE.INTRA.VDW.0>
-1.067

>  <SCORE.INTRA.norm>
-0.00217778

>  <SCORE.RESTR>
0.273263

>  <SCORE.RESTR.CAVITY>
0.273263

>  <SCORE.RESTR.norm>
0.017079

>  <SCORE.SYSTEM>
0

>  <SCORE.SYSTEM.CONST>
0

>  <SCORE.SYSTEM.DIHEDRAL>
0

>  <SCORE.SYSTEM.SOLV>
0

>  <SCORE.SYSTEM.norm>
0

>  <SCORE.heavy>
16

>  <SCORE.norm>
-1.75313

>  <RMSD>
1.892

$$$$
1f27 biotin aptamer (Xray 1.3A)
 OpenBabel11021811393D
libRbt.so/2013.1/901 2013/11/27
 16 17  0  0  0  0  0  0  0  0999 V2000
   21.3185   -0.1095   15.3589 C   0  0  0  0  0  0  0  0  0  0  0  0
   21.8711   -0.8967   14.5971 O   0  5  0  0  0  0  0  0  0  0  0  0
   21.9084    0.2868   16.3627 O   0  0  0  0  0  0  0  0  0  0  0  0
   19.9326    0.4295   15.0280 C   0  0  0  0  0  0  0  0  0  0  0  0
   19.8265    1.0692   13.6257 C   0  0  0  0  0  0  0  0  0  0  0  0
   18.3810    1.2633   13.2062 C   0  0  0  0  0  0  0  0  0  0  0  0
   17.6030    2.1818   14.1252 C   0  0  0  0  0  0  0  0  0  0  0  0
   16.1137    1.8404   14.2663 C   0  0  2  0  0  0  0  0  0  0  0  0
   15.5885    0.1114   13.6333 S   0  0  0  0  0  0  0  0  0  0  0  0
   13.7897    0.7440   13.7291 C   0  0  0  0  0  0  0  0  0  0  0  0
   13.8690    2.2464   13.3297 C   0  0  2  0  0  0  0  0  0  0  0  0
   13.6696    2.2814   11.7908 N   0  0  0  0  0  0  0  0  0  0  0  0
   14.6466    2.7863   11.1713 C   0  0  0  0  0  0  0  0  0  0  0  0
   14.8995    2.8300    9.9152 O   0  0  0  0  0  0  0  0  0  0  0  0
   15.7861    3.0664   12.0143 N   0  0  0  0  0  0  0  0  0  0  0  0
   15.2752    2.8113   13.4320 C   0  0  2  0  0  0  0  0  0  0  0  0
  1  2  1  0  0  0  0
  1  3  2  0  0  0  0
  1  4  1  0  0  0  0
  4  5  1  0  0  0  0
  5  6  1  0  0  0  0
  6  7  1  0  0  0  0
  8  7  1  6  0  0  0
  8  9  1  0  0  0  0
  8 16  1  0  0  0  0
  9 10  1  0  0  0  0
 11 10  1  6  0  0  0
 11 12  1  0  0  0  0
 11 16  1  0  0  0  0
 12 13  1  0  0  0  0
 13 14  2  0  0  0  0
 13 15  1  0  0  0  0
 16 15  1  6  0  0  0
M  CHG  1   2  -1
M  END
>  <CHROM.1>
-53.44572228,165.41009775,61.10188747,-147.64981556,14.49625279,17.08972052
1.31958681,13.47436931,0.50922178,0.00244776,2.18972626

>  <Name>
1f27 biotin aptamer (Xray 1.3A)

>  <RI>
0

>  <Rbt.Current_Directory>
/home/itssahil/PROJECTS/Mol_Feturizer/New_Systems/rnas/1f27

>  <Rbt.Executable>
rbdock ($Id: //depot/dev/client3/rdock/2013.1/src/exe/rbdock.cxx#4 $)

>  <Rbt.Library>
libRbt.so (2013.1, Build901 2013/11/27)

>  <Rbt.Parameter_File>
/export/apps/rDock/src/rDock_2013.1_src/data/scripts/dock_solv.prm

>  <Rbt.Receptor>
prm/pocket_docking_4.prm

>  <SCORE>
-27.6903

>  <SCORE.INTER>
-30.5585

>  <SCORE.INTER.CONST>
1

>  <SCORE.INTER.POLAR>
-2.27153

>  <SCORE.INTER.ROT>
5

>  <SCORE.INTER.SOLV>
11.4043

>  <SCORE.INTER.VDW>
-23.5354

>  <SCORE.INTER.norm>
-1.90991

>  <SCORE.INTRA>
2.86822

>  <SCORE.INTRA.DIHEDRAL>
3.7364

>  <SCORE.INTRA.DIHEDRAL.0>
6.87082

>  <SCORE.INTRA.POLAR>
0

>  <SCORE.INTRA.POLAR.0>
0

>  <SCORE.INTRA.REPUL>
0

>  <SCORE.INTRA.REPUL.0>
0

>  <SCORE.INTRA.SOLV>
-0.498155

>  <SCORE.INTRA.SOLV.lig_0>
-42.5944

>  <SCORE.INTRA.VDW>
1.2491

>  <SCORE.INTRA.VDW.0>
-1.067

>  <SCORE.INTRA.norm>
0.179264

>  <SCORE.RESTR>
0

>  <SCORE.RESTR.CAVITY>
0

>  <SCORE.RESTR.norm>
0

>  <SCORE.SYSTEM>
0

>  <SCORE.SYSTEM.CONST>
0

>  <SCORE.SYSTEM.DIHEDRAL>
0

>  <SCORE.SYSTEM.SOLV>
0

>  <SCORE.SYSTEM.norm>
0

>  <SCORE.heavy>
16

>  <SCORE.norm>
-1.73065

>  <RMSD>
1.897

$$$$
1f27 biotin aptamer (Xray 1.3A)
 OpenBabel11021811393D
libRbt.so/2013.1/901 2013/11/27
 16 17  0  0  0  0  0  0  0  0999 V2000
   21.4790   -0.1048   15.7797 C   0  0  0  0  0  0  0  0  0  0  0  0
   21.7192    0.0716   16.9699 O   0  5  0  0  0  0  0  0  0  0  0  0
   21.0204   -1.1813   15.4012 O   0  0  0  0  0  0  0  0  0  0  0  0
   21.6833    1.0285   14.7825 C   0  0  0  0  0  0  0  0  0  0  0  0
   20.5716    1.1327   13.7147 C   0  0  0  0  0  0  0  0  0  0  0  0
   19.1986    1.2689   14.3465 C   0  0  0  0  0  0  0  0  0  0  0  0
   18.1142    1.6488   13.3599 C   0  0  0  0  0  0  0  0  0  0  0  0
   16.6859    1.5840   13.9168 C   0  0  2  0  0  0  0  0  0  0  0  0
   15.7480   -0.0593   13.6242 S   0  0  0  0  0  0  0  0  0  0  0  0
   14.1634    0.8848   14.1168 C   0  0  0  0  0  0  0  0  0  0  0  0
   14.3611    2.3238   13.5571 C   0  0  2  0  0  0  0  0  0  0  0  0
   13.7572    2.3034   12.1273 N   0  0  0  0  0  0  0  0  0  0  0  0
   14.5937    2.5911   11.2270 C   0  0  0  0  0  0  0  0  0  0  0  0
   14.4979    2.5162    9.9507 O   0  0  0  0  0  0  0  0  0  0  0  0
   15.9490    2.7149   11.7121 N   0  0  0  0  0  0  0  0  0  0  0  0
   15.8115    2.6371   13.2324 C   0  0  2  0  0  0  0  0  0  0  0  0
  1  2  1  0  0  0  0
  1  3  2  0  0  0  0
  1  4  1  0  0  0  0
  4  5  1  0  0  0  0
  5  6  1  0  0  0  0
  6  7  1  0  0  0  0
  8  7  1  6  0  0  0
  8  9  1  0  0  0  0
  8 16  1  0  0  0  0
  9 10  1  0  0  0  0
 11 10  1  6  0  0  0
 11 12  1  0  0  0  0
 11 16  1  0  0  0  0
 12 13  1  0  0  0  0
 13 14  2  0  0  0  0
 13 15  1  0  0  0  0
 16 15  1  6  0  0  0
M  CHG  1   2  -1
M  END
>  <CHROM.1>
-139.14105532,55.81769491,168.50204775,171.00653813,-93.63512627,17.36342780
1.21066086,13.61182627,0.53015039,0.08712666,2.23410492

>  <Name>
1f27 biotin aptamer (Xray 1.3A)

>  <RI>
0

>  <Rbt.Current_Directory>
/home/itssahil/PROJECTS/Mol_Feturizer/New_Systems/rnas/1f27

>  <Rbt.Executable>
rbdock ($Id: //depot/dev/client3/rdock/2013.1/src/exe/rbdock.cxx#4 $)

>  <Rbt.Library>
libRbt.so (2013.1, Build901 2013/11/27)

>  <Rbt.Parameter_File>
/export/apps/rDock/src/rDock_2013.1_src/data/scripts/dock_solv.prm

>  <Rbt.Receptor>
prm/pocket_docking_4.prm

>  <SCORE>
-30.743

>  <SCORE.INTER>
-30.8114

>  <SCORE.INTER.CONST>
1

>  <SCORE.INTER.POLAR>
-2.18366

>  <SCORE.INTER.ROT>
5

>  <SCORE.INTER.SOLV>
11.2286

>  <SCORE.INTER.VDW>
-23.9382

>  <SCORE.INTER.norm>
-1.92571

>  <SCORE.INTRA>
0.0683995

>  <SCORE.INTRA.DIHEDRAL>
-1.02384

>  <SCORE.INTRA.DIHEDRAL.0>
6.87082

>  <SCORE.INTRA.POLAR>
0

>  <SCORE.INTRA.POLAR.0>
0

>  <SCORE.INTRA.REPUL>
0

>  <SCORE.INTRA.REPUL.0>
0

>  <SCORE.INTRA.SOLV>
0.275726

>  <SCORE.INTRA.SOLV.lig_0>
-42.5944

>  <SCORE.INTRA.VDW>
0.442459

>  <SCORE.INTRA.VDW.0>
-1.067

>  <SCORE.INTRA.norm>
0.00427497

>  <SCORE.RESTR>
0

>  <SCORE.RESTR.CAVITY>
0

>  <SCORE.RESTR.norm>
0

>  <SCORE.SYSTEM>
0

>  <SCORE.SYSTEM.CONST>
0

>  <SCORE.SYSTEM.DIHEDRAL>
0

>  <SCORE.SYSTEM.SOLV>
0

>  <SCORE.SYSTEM.norm>
0

>  <SCORE.heavy>
16

>  <SCORE.norm>
-1.92144

>  <RMSD>
1.903

$$$$
1f27 biotin aptamer (Xray 1.3A)
 OpenBabel11021811393D
libRbt.so/2013.1/901 2013/11/27
 16 17  0  0  0  0  0  0  0  0999 V2000
   21.2457   -0.4612   15.6097 C   0  0  0  0  0  0  0  0  0  0  0  0
   22.4524   -0.6829   15.6174 O   0  5  0  0  0  0  0  0  0  0  0  0
   20.4787   -1.2303   16.1865 O   0  0  0  0  0  0  0  0  0  0  0  0
   20.7042    0.7988   14.9465 C   0  0  0  0  0  0  0  0  0  0  0  0
   19.7560    0.5244   13.7580 C   0  0  0  0  0  0  0  0  0  0  0  0
   19.1547    1.8067   13.2131 C   0  0  0  0  0  0  0  0  0  0  0  0
   18.1037    2.4141   14.1186 C   0  0  0  0  0  0  0  0  0  0  0  0
   16.8428    1.5598   14.3048 C   0  0  2  0  0  0  0  0  0  0  0  0
   16.4340    0.3503   12.8779 S   0  0  0  0  0  0  0  0  0  0  0  0
   14.7047    0.1759   13.6680 C   0  0  0  0  0  0  0  0  0  0  0  0
   14.3779    1.5871   14.2380 C   0  0  2  0  0  0  0  0  0  0  0  0
   13.6451    2.3404   13.0957 N   0  0  0  0  0  0  0  0  0  0  0  0
   14.2379    3.3931   12.7301 C   0  0  0  0  0  0  0  0  0  0  0  0
   14.0194    4.1633   11.7287 O   0  0  0  0  0  0  0  0  0  0  0  0
   15.5352    3.5706   13.3409 N   0  0  0  0  0  0  0  0  0  0  0  0
   15.6099    2.4622   14.3907 C   0  0  2  0  0  0  0  0  0  0  0  0
  1  2  1  0  0  0  0
  1  3  2  0  0  0  0
  1  4  1  0  0  0  0
  4  5  1  0  0  0  0
  5  6  1  0  0  0  0
  6  7  1  0  0  0  0
  8  7  1  6  0  0  0
  8  9  1  0  0  0  0
  8 16  1  0  0  0  0
  9 10  1  0  0  0  0
 11 10  1  6  0  0  0
 11 12  1  0  0  0  0
 11 16  1  0  0  0  0
 12 13  1  0  0  0  0
 13 14  2  0  0  0  0
 13 15  1  0  0  0  0
 16 15  1  6  0  0  0
M  CHG  1   2  -1
M  END
>  <CHROM.1>
118.12248526,175.10717850,-72.74706184,-64.68098059,-25.99000601,17.29635643
1.33511112,13.90327668,0.49075883,0.17662637,2.79166490

>  <Name>
1f27 biotin aptamer (Xray 1.3A)

>  <RI>
0

>  <Rbt.Current_Directory>
/home/itssahil/PROJECTS/Mol_Feturizer/New_Systems/rnas/1f27

>  <Rbt.Executable>
rbdock ($Id: //depot/dev/client3/rdock/2013.1/src/exe/rbdock.cxx#4 $)

>  <Rbt.Library>
libRbt.so (2013.1, Build901 2013/11/27)

>  <Rbt.Parameter_File>
/export/apps/rDock/src/rDock_2013.1_src/data/scripts/dock_solv.prm

>  <Rbt.Receptor>
prm/pocket_docking_5.prm

>  <SCORE>
-26.0225

>  <SCORE.INTER>
-26.0098

>  <SCORE.INTER.CONST>
1

>  <SCORE.INTER.POLAR>
-1.75995

>  <SCORE.INTER.ROT>
5

>  <SCORE.INTER.SOLV>
9.6672

>  <SCORE.INTER.VDW>
-21.6291

>  <SCORE.INTER.norm>
-1.62561

>  <SCORE.INTRA>
-0.0126908

>  <SCORE.INTRA.DIHEDRAL>
-1.09662

>  <SCORE.INTRA.DIHEDRAL.0>
6.87082

>  <SCORE.INTRA.POLAR>
0

>  <SCORE.INTRA.POLAR.0>
0

>  <SCORE.INTRA.REPUL>
0

>  <SCORE.INTRA.REPUL.0>
0

>  <SCORE.INTRA.SOLV>
-0.699237

>  <SCORE.INTRA.SOLV.lig_0>
-42.5944

>  <SCORE.INTRA.VDW>
0.885237

>  <SCORE.INTRA.VDW.0>
-1.067

>  <SCORE.INTRA.norm>
-0.000793172

>  <SCORE.RESTR>
0

>  <SCORE.RESTR.CAVITY>
0

>  <SCORE.RESTR.norm>
0

>  <SCORE.SYSTEM>
0

>  <SCORE.SYSTEM.CONST>
0

>  <SCORE.SYSTEM.DIHEDRAL>
0

>  <SCORE.SYSTEM.SOLV>
0

>  <SCORE.SYSTEM.norm>
0

>  <SCORE.heavy>
16

>  <SCORE.norm>
-1.6264

>  <RMSD>
1.906

$$$$
1f27 biotin aptamer (Xray 1.3A)
 OpenBabel11021811393D
libRbt.so/2013.1/901 2013/11/27
 16 17  0  0  0  0  0  0  0  0999 V2000
   19.7691   -0.8884   13.2268 C   0  0  0  0  0  0  0  0  0  0  0  0
   20.4078   -0.7978   14.2705 O   0  5  0  0  0  0  0  0  0  0  0  0
   19.0009   -1.8341   13.0599 O   0  0  0  0  0  0  0  0  0  0  0  0
   19.8747    0.2025   12.1688 C   0  0  0  0  0  0  0  0  0  0  0  0
   19.4000    1.5917   12.6504 C   0  0  0  0  0  0  0  0  0  0  0  0
   17.9056    1.6133   12.9133 C   0  0  0  0  0  0  0  0  0  0  0  0
   17.4674    2.7456   13.8186 C   0  0  0  0  0  0  0  0  0  0  0  0
   15.9737    2.7478   14.1697 C   0  0  2  0  0  0  0  0  0  0  0  0
   15.1346    1.0295   14.2652 S   0  0  0  0  0  0  0  0  0  0  0  0
   13.4693    1.9626   14.2284 C   0  0  0  0  0  0  0  0  0  0  0  0
   13.7109    3.1813   13.2905 C   0  0  2  0  0  0  0  0  0  0  0  0
   13.3301    2.6955   11.8664 N   0  0  0  0  0  0  0  0  0  0  0  0
   14.2847    2.7619   11.0434 C   0  0  0  0  0  0  0  0  0  0  0  0
   14.3843    2.3056    9.8494 O   0  0  0  0  0  0  0  0  0  0  0  0
   15.5477    3.1195   11.6473 N   0  0  0  0  0  0  0  0  0  0  0  0
   15.1848    3.4861   13.0860 C   0  0  2  0  0  0  0  0  0  0  0  0
  1  2  1  0  0  0  0
  1  3  2  0  0  0  0
  1  4  1  0  0  0  0
  4  5  1  0  0  0  0
  5  6  1  0  0  0  0
  6  7  1  0  0  0  0
  8  7  1  6  0  0  0
  8  9  1  0  0  0  0
  8 16  1  0  0  0  0
  9 10  1  0  0  0  0
 11 10  1  1  0  0  0
 11 12  1  0  0  0  0
 11 16  1  0  0  0  0
 12 13  1  0  0  0  0
 13 14  2  0  0  0  0
 13 15  1  0  0  0  0
 16 15  1  6  0  0  0
M  CHG  1   2  -1
M  END
>  <CHROM.1>
-61.64342396,-67.25049753,159.87724941,-176.63012820,31.31640197,16.47571299
1.53572873,12.93281534,-0.28589088,0.44622738,-1.25504960

>  <Name>
1f27 biotin aptamer (Xray 1.3A)

>  <RI>
0

>  <Rbt.Current_Directory>
/home/itssahil/PROJECTS/Mol_Feturizer/New_Systems/rnas/1f27

>  <Rbt.Executable>
rbdock ($Id: //depot/dev/client3/rdock/2013.1/src/exe/rbdock.cxx#4 $)

>  <Rbt.Library>
libRbt.so (2013.1, Build901 2013/11/27)

>  <Rbt.Parameter_File>
/export/apps/rDock/src/rDock_2013.1_src/data/scripts/dock_solv.prm

>  <Rbt.Receptor>
prm/pocket_docking_3.prm

>  <SCORE>
-27.8034

>  <SCORE.INTER>
-27.794

>  <SCORE.INTER.CONST>
1

>  <SCORE.INTER.POLAR>
-1.77728

>  <SCORE.INTER.ROT>
5

>  <SCORE.INTER.SOLV>
9.83708

>  <SCORE.INTER.VDW>
-22.8174

>  <SCORE.INTER.norm>
-1.73712

>  <SCORE.INTRA>
-0.00939544

>  <SCORE.INTRA.DIHEDRAL>
-1.03877

>  <SCORE.INTRA.DIHEDRAL.0>
6.87082

>  <SCORE.INTRA.POLAR>
0

>  <SCORE.INTRA.POLAR.0>
0

>  <SCORE.INTRA.REPUL>
0

>  <SCORE.INTRA.REPUL.0>
0

>  <SCORE.INTRA.SOLV>
0.57612

>  <SCORE.INTRA.SOLV.lig_0>
-42.5944

>  <SCORE.INTRA.VDW>
0.22193

>  <SCORE.INTRA.VDW.0>
-1.067

>  <SCORE.INTRA.norm>
-0.000587215

>  <SCORE.RESTR>
0

>  <SCORE.RESTR.CAVITY>
0

>  <SCORE.RESTR.norm>
0

>  <SCORE.SYSTEM>
0

>  <SCORE.SYSTEM.CONST>
0

>  <SCORE.SYSTEM.DIHEDRAL>
0

>  <SCORE.SYSTEM.SOLV>
0

>  <SCORE.SYSTEM.norm>
0

>  <SCORE.heavy>
16

>  <SCORE.norm>
-1.73771

>  <RMSD>
1.912

$$$$
1f27 biotin aptamer (Xray 1.3A)
 OpenBabel11021811393D
libRbt.so/2013.1/901 2013/11/27
 16 17  0  0  0  0  0  0  0  0999 V2000
   20.6513   -0.3640   13.6469 C   0  0  0  0  0  0  0  0  0  0  0  0
   21.6555   -0.1484   14.3181 O   0  5  0  0  0  0  0  0  0  0  0  0
   20.3397    0.4125   12.7455 O   0  0  0  0  0  0  0  0  0  0  0  0
   19.8302   -1.6252   13.8829 C   0  0  0  0  0  0  0  0  0  0  0  0
   18.3771   -1.5338   13.3661 C   0  0  0  0  0  0  0  0  0  0  0  0
   17.6199   -0.3935   14.0214 C   0  0  0  0  0  0  0  0  0  0  0  0
   16.1488   -0.3602   13.6633 C   0  0  0  0  0  0  0  0  0  0  0  0
   15.3808    0.8511   14.2085 C   0  0  2  0  0  0  0  0  0  0  0  0
   13.5113    0.9092   13.7997 S   0  0  0  0  0  0  0  0  0  0  0  0
   13.5598    2.7368   14.3496 C   0  0  0  0  0  0  0  0  0  0  0  0
   14.9527    3.2588   13.8909 C   0  0  2  0  0  0  0  0  0  0  0  0
   14.7382    3.8225   12.4607 N   0  0  0  0  0  0  0  0  0  0  0  0
   15.4433    3.2477   11.5857 C   0  0  0  0  0  0  0  0  0  0  0  0
   15.4117    3.3336   10.3068 O   0  0  0  0  0  0  0  0  0  0  0  0
   16.1633    2.0983   12.0837 N   0  0  0  0  0  0  0  0  0  0  0  0
   15.9348    2.1388   13.5944 C   0  0  2  0  0  0  0  0  0  0  0  0
  1  2  1  0  0  0  0
  1  3  2  0  0  0  0
  1  4  1  0  0  0  0
  4  5  1  0  0  0  0
  5  6  1  0  0  0  0
  6  7  1  0  0  0  0
  8  7  1  6  0  0  0
  8  9  1  0  0  0  0
  8 16  1  0  0  0  0
  9 10  1  0  0  0  0
 11 10  1  6  0  0  0
 11 12  1  0  0  0  0
 11 16  1  0  0  0  0
 12 13  1  0  0  0  0
 13 14  2  0  0  0  0
 13 15  1  0  0  0  0
 16 15  1  6  0  0  0
M  CHG  1   2  -1
M  END
>  <CHROM.1>
159.13433898,-59.09272343,-173.51637263,-174.81834116,-178.98063358,16.65086397
1.13134306,13.25829661,-0.45962448,0.22052412,-0.64625218

>  <Name>
1f27 biotin aptamer (Xray 1.3A)

>  <RI>
0

>  <Rbt.Current_Directory>
/home/itssahil/PROJECTS/Mol_Feturizer/New_Systems/rnas/1f27

>  <Rbt.Executable>
rbdock ($Id: //depot/dev/client3/rdock/2013.1/src/exe/rbdock.cxx#4 $)

>  <Rbt.Library>
libRbt.so (2013.1, Build901 2013/11/27)

>  <Rbt.Parameter_File>
/export/apps/rDock/src/rDock_2013.1_src/data/scripts/dock_solv.prm

>  <Rbt.Receptor>
prm/pocket_docking_5.prm

>  <SCORE>
-25.4117

>  <SCORE.INTER>
-23.8465

>  <SCORE.INTER.CONST>
1

>  <SCORE.INTER.POLAR>
-1.29579

>  <SCORE.INTER.ROT>
5

>  <SCORE.INTER.SOLV>
12.5211

>  <SCORE.INTER.VDW>
-22.6854

>  <SCORE.INTER.norm>
-1.49041

>  <SCORE.INTRA>
-1.5652

>  <SCORE.INTRA.DIHEDRAL>
-5.30811

>  <SCORE.INTRA.DIHEDRAL.0>
6.87082

>  <SCORE.INTRA.POLAR>
0

>  <SCORE.INTRA.POLAR.0>
0

>  <SCORE.INTRA.REPUL>
0

>  <SCORE.INTRA.REPUL.0>
0

>  <SCORE.INTRA.SOLV>
0.509845

>  <SCORE.INTRA.SOLV.lig_0>
-42.5944

>  <SCORE.INTRA.VDW>
0.83394

>  <SCORE.INTRA.VDW.0>
-1.067

>  <SCORE.INTRA.norm>
-0.0978247

>  <SCORE.RESTR>
0

>  <SCORE.RESTR.CAVITY>
0

>  <SCORE.RESTR.norm>
0

>  <SCORE.SYSTEM>
0

>  <SCORE.SYSTEM.CONST>
0

>  <SCORE.SYSTEM.DIHEDRAL>
0

>  <SCORE.SYSTEM.SOLV>
0

>  <SCORE.SYSTEM.norm>
0

>  <SCORE.heavy>
16

>  <SCORE.norm>
-1.58823

>  <RMSD>
1.918

$$$$
1f27 biotin aptamer (Xray 1.3A)
 OpenBabel11021811393D
libRbt.so/2013.1/901 2013/11/27
 16 17  0  0  0  0  0  0  0  0999 V2000
   20.1531   -0.9394   13.7081 C   0  0  0  0  0  0  0  0  0  0  0  0
   19.6265   -2.0359   13.5476 O   0  5  0  0  0  0  0  0  0  0  0  0
   20.7592   -0.6986   14.7508 O   0  0  0  0  0  0  0  0  0  0  0  0
   20.1160    0.0973   12.5925 C   0  0  0  0  0  0  0  0  0  0  0  0
   18.8423    0.9718   12.5908 C   0  0  0  0  0  0  0  0  0  0  0  0
   18.7666    1.8541   13.8231 C   0  0  0  0  0  0  0  0  0  0  0  0
   17.5433    2.7466   13.8533 C   0  0  0  0  0  0  0  0  0  0  0  0
   16.2420    2.0415   14.2578 C   0  0  2  0  0  0  0  0  0  0  0  0
   15.7340    0.5418   13.1813 S   0  0  0  0  0  0  0  0  0  0  0  0
   14.0166    0.6719   14.0051 C   0  0  0  0  0  0  0  0  0  0  0  0
   13.7814    2.1973   14.2079 C   0  0  2  0  0  0  0  0  0  0  0  0
   13.0649    2.6851   12.9203 N   0  0  0  0  0  0  0  0  0  0  0  0
   13.7062    3.5769   12.2985 C   0  0  0  0  0  0  0  0  0  0  0  0
   13.5073    4.0857   11.1387 O   0  0  0  0  0  0  0  0  0  0  0  0
   15.0251    3.8235   12.8344 N   0  0  0  0  0  0  0  0  0  0  0  0
   15.0630    3.0083   14.1267 C   0  0  2  0  0  0  0  0  0  0  0  0
  1  2  1  0  0  0  0
  1  3  2  0  0  0  0
  1  4  1  0  0  0  0
  4  5  1  0  0  0  0
  5  6  1  0  0  0  0
  6  7  1  0  0  0  0
  8  7  1  6  0  0  0
  8  9  1  0  0  0  0
  8 16  1  0  0  0  0
  9 10  1  0  0  0  0
 11 10  1  6  0  0  0
 11 12  1  0  0  0  0
 11 16  1  0  0  0  0
 12 13  1  0  0  0  0
 13 14  2  0  0  0  0
 13 15  1  0  0  0  0
 16 15  1  6  0  0  0
M  CHG  1   2  -1
M  END
>  <CHROM.1>
86.22645633,65.82460610,179.07719473,77.62976566,-57.25139026,16.58131752
1.44637960,13.33442415,0.54524295,-0.04658298,2.82326664

>  <Name>
1f27 biotin aptamer (Xray 1.3A)

>  <RI>
0

>  <Rbt.Current_Directory>
/home/itssahil/PROJECTS/Mol_Feturizer/New_Systems/rnas/1f27

>  <Rbt.Executable>
rbdock ($Id: //depot/dev/client3/rdock/2013.1/src/exe/rbdock.cxx#4 $)

>  <Rbt.Library>
libRbt.so (2013.1, Build901 2013/11/27)

>  <Rbt.Parameter_File>
/export/apps/rDock/src/rDock_2013.1_src/data/scripts/dock_solv.prm

>  <Rbt.Receptor>
prm/pocket_docking_8.prm

>  <SCORE>
-26.8087

>  <SCORE.INTER>
-24.9473

>  <SCORE.INTER.CONST>
1

>  <SCORE.INTER.POLAR>
-0.848528

>  <SCORE.INTER.ROT>
5

>  <SCORE.INTER.SOLV>
8.13559

>  <SCORE.INTER.VDW>
-23.4483

>  <SCORE.INTER.norm>
-1.55921

>  <SCORE.INTRA>
-1.8614

>  <SCORE.INTRA.DIHEDRAL>
-4.02857

>  <SCORE.INTRA.DIHEDRAL.0>
6.87082

>  <SCORE.INTRA.POLAR>
0

>  <SCORE.INTRA.POLAR.0>
0

>  <SCORE.INTRA.REPUL>
0

>  <SCORE.INTRA.REPUL.0>
0

>  <SCORE.INTRA.SOLV>
0.153841

>  <SCORE.INTRA.SOLV.lig_0>
-42.5944

>  <SCORE.INTRA.VDW>
0.075967

>  <SCORE.INTRA.VDW.0>
-1.067

>  <SCORE.INTRA.norm>
-0.116337

>  <SCORE.RESTR>
0

>  <SCORE.RESTR.CAVITY>
0

>  <SCORE.RESTR.norm>
0

>  <SCORE.SYSTEM>
0

>  <SCORE.SYSTEM.CONST>
0

>  <SCORE.SYSTEM.DIHEDRAL>
0

>  <SCORE.SYSTEM.SOLV>
0

>  <SCORE.SYSTEM.norm>
0

>  <SCORE.heavy>
16

>  <SCORE.norm>
-1.67555

>  <RMSD>
1.918

$$$$
1f27 biotin aptamer (Xray 1.3A)
 OpenBabel11021811393D
libRbt.so/2013.1/901 2013/11/27
 16 17  0  0  0  0  0  0  0  0999 V2000
   20.8176    0.5897   14.2996 C   0  0  0  0  0  0  0  0  0  0  0  0
   21.4296   -0.0889   15.1183 O   0  5  0  0  0  0  0  0  0  0  0  0
   20.6062    1.7796   14.5272 O   0  0  0  0  0  0  0  0  0  0  0  0
   20.3800   -0.0213   12.9746 C   0  0  0  0  0  0  0  0  0  0  0  0
   19.2407   -1.0565   13.1067 C   0  0  0  0  0  0  0  0  0  0  0  0
   18.0592   -0.4945   13.8755 C   0  0  0  0  0  0  0  0  0  0  0  0
   17.5569    0.8265   13.3310 C   0  0  0  0  0  0  0  0  0  0  0  0
   16.2845    1.3580   14.0040 C   0  0  2  0  0  0  0  0  0  0  0  0
   14.6748    0.3908   13.6312 S   0  0  0  0  0  0  0  0  0  0  0  0
   13.7376    1.8874   14.3569 C   0  0  0  0  0  0  0  0  0  0  0  0
   14.5718    3.1306   13.9307 C   0  0  2  0  0  0  0  0  0  0  0  0
   13.9848    3.5806   12.5661 N   0  0  0  0  0  0  0  0  0  0  0  0
   14.8295    3.5638   11.6283 C   0  0  0  0  0  0  0  0  0  0  0  0
   14.6695    3.7104   10.3647 O   0  0  0  0  0  0  0  0  0  0  0  0
   16.0980    2.9806   12.0003 N   0  0  0  0  0  0  0  0  0  0  0  0
   15.9878    2.7760   13.5109 C   0  0  2  0  0  0  0  0  0  0  0  0
  1  2  1  0  0  0  0
  1  3  2  0  0  0  0
  1  4  1  0  0  0  0
  4  5  1  0  0  0  0
  5  6  1  0  0  0  0
  6  7  1  0  0  0  0
  8  7  1  6  0  0  0
  8  9  1  0  0  0  0
  8 16  1  0  0  0  0
  9 10  1  0  0  0  0
 11 10  1  6  0  0  0
 11 12  1  0  0  0  0
 11 16  1  0  0  0  0
 12 13  1  0  0  0  0
 13 14  2  0  0  0  0
 13 15  1  0  0  0  0
 16 15  1  6  0  0  0
M  CHG  1   2  -1
M  END
>  <CHROM.1>
70.51857459,52.61564430,52.56657193,174.64426936,-70.32243864,16.91400556
1.47157035,13.33771117,-0.47620185,0.04224592,-0.61732514

>  <Name>
1f27 biotin aptamer (Xray 1.3A)

>  <RI>
0

>  <Rbt.Current_Directory>
/home/itssahil/PROJECTS/Mol_Feturizer/New_Systems/rnas/1f27

>  <Rbt.Executable>
rbdock ($Id: //depot/dev/client3/rdock/2013.1/src/exe/rbdock.cxx#4 $)

>  <Rbt.Library>
libRbt.so (2013.1, Build901 2013/11/27)

>  <Rbt.Parameter_File>
/export/apps/rDock/src/rDock_2013.1_src/data/scripts/dock_solv.prm

>  <Rbt.Receptor>
prm/blind_docking_100.prm

>  <SCORE>
-23.4316

>  <SCORE.INTER>
-22.8726

>  <SCORE.INTER.CONST>
1

>  <SCORE.INTER.POLAR>
-0.822977

>  <SCORE.INTER.ROT>
5

>  <SCORE.INTER.SOLV>
13.6374

>  <SCORE.INTER.VDW>
-23.9843

>  <SCORE.INTER.norm>
-1.42954

>  <SCORE.INTRA>
-0.559015

>  <SCORE.INTRA.DIHEDRAL>
-4.50582

>  <SCORE.INTRA.DIHEDRAL.0>
6.87082

>  <SCORE.INTRA.POLAR>
0

>  <SCORE.INTRA.POLAR.0>
0

>  <SCORE.INTRA.REPUL>
0

>  <SCORE.INTRA.REPUL.0>
0

>  <SCORE.INTRA.SOLV>
1.11943

>  <SCORE.INTRA.SOLV.lig_0>
-42.5944

>  <SCORE.INTRA.VDW>
1.13418

>  <SCORE.INTRA.VDW.0>
-1.067

>  <SCORE.INTRA.norm>
-0.0349385

>  <SCORE.RESTR>
0

>  <SCORE.RESTR.CAVITY>
0

>  <SCORE.RESTR.norm>
0

>  <SCORE.SYSTEM>
0

>  <SCORE.SYSTEM.CONST>
0

>  <SCORE.SYSTEM.DIHEDRAL>
0

>  <SCORE.SYSTEM.SOLV>
0

>  <SCORE.SYSTEM.norm>
0

>  <SCORE.heavy>
16

>  <SCORE.norm>
-1.46448

>  <RMSD>
1.923

$$$$
1f27 biotin aptamer (Xray 1.3A)
 OpenBabel11021811393D
libRbt.so/2013.1/901 2013/11/27
 16 17  0  0  0  0  0  0  0  0999 V2000
   20.2559    0.0378   14.4430 C   0  0  0  0  0  0  0  0  0  0  0  0
   20.7146    1.0046   15.0431 O   0  5  0  0  0  0  0  0  0  0  0  0
   19.8130   -0.9203   15.0742 O   0  0  0  0  0  0  0  0  0  0  0  0
   20.1718    0.0517   12.9220 C   0  0  0  0  0  0  0  0  0  0  0  0
   18.7588    0.3528   12.3744 C   0  0  0  0  0  0  0  0  0  0  0  0
   18.3806    1.8094   12.5699 C   0  0  0  0  0  0  0  0  0  0  0  0
   17.8680    2.1194   13.9609 C   0  0  0  0  0  0  0  0  0  0  0  0
   16.3919    1.7725   14.1951 C   0  0  2  0  0  0  0  0  0  0  0  0
   15.8184    0.0689   13.5360 S   0  0  0  0  0  0  0  0  0  0  0  0
   14.0326    0.6969   13.7842 C   0  0  0  0  0  0  0  0  0  0  0  0
   14.0869    2.2134   13.4374 C   0  0  2  0  0  0  0  0  0  0  0  0
   13.7782    2.3069   11.9191 N   0  0  0  0  0  0  0  0  0  0  0  0
   14.7097    2.8352   11.2510 C   0  0  0  0  0  0  0  0  0  0  0  0
   14.8723    2.9268    9.9826 O   0  0  0  0  0  0  0  0  0  0  0  0
   15.9072    3.0834   12.0204 N   0  0  0  0  0  0  0  0  0  0  0  0
   15.4983    2.7743   13.4603 C   0  0  2  0  0  0  0  0  0  0  0  0
  1  2  1  0  0  0  0
  1  3  2  0  0  0  0
  1  4  1  0  0  0  0
  4  5  1  0  0  0  0
  5  6  1  0  0  0  0
  6  7  1  0  0  0  0
  8  7  1  6  0  0  0
  8  9  1  0  0  0  0
  8 16  1  0  0  0  0
  9 10  1  0  0  0  0
 11 10  1  6  0  0  0
 11 12  1  0  0  0  0
 11 16  1  0  0  0  0
 12 13  1  0  0  0  0
 13 14  2  0  0  0  0
 13 15  1  0  0  0  0
 16 15  1  6  0  0  0
M  CHG  1   2  -1
M  END
>  <CHROM.1>
-101.51973339,72.44871513,-81.66756805,-81.35840803,44.72423109,16.88895550
1.33315233,13.14452856,-0.51290164,0.05954811,-0.90897096

>  <Name>
1f27 biotin aptamer (Xray 1.3A)

>  <RI>
0

>  <Rbt.Current_Directory>
/home/itssahil/PROJECTS/Mol_Feturizer/New_Systems/rnas/1f27

>  <Rbt.Executable>
rbdock ($Id: //depot/dev/client3/rdock/2013.1/src/exe/rbdock.cxx#4 $)

>  <Rbt.Library>
libRbt.so (2013.1, Build901 2013/11/27)

>  <Rbt.Parameter_File>
/export/apps/rDock/src/rDock_2013.1_src/data/scripts/dock_solv.prm

>  <Rbt.Receptor>
prm/pocket_docking_2.prm

>  <SCORE>
-27.616

>  <SCORE.INTER>
-29.3497

>  <SCORE.INTER.CONST>
1

>  <SCORE.INTER.POLAR>
-1.80449

>  <SCORE.INTER.ROT>
5

>  <SCORE.INTER.SOLV>
11.8598

>  <SCORE.INTER.VDW>
-24.4381

>  <SCORE.INTER.norm>
-1.83436

>  <SCORE.INTRA>
1.73372

>  <SCORE.INTRA.DIHEDRAL>
-0.678499

>  <SCORE.INTRA.DIHEDRAL.0>
6.87082

>  <SCORE.INTRA.POLAR>
0

>  <SCORE.INTRA.POLAR.0>
0

>  <SCORE.INTRA.REPUL>
0

>  <SCORE.INTRA.REPUL.0>
0

>  <SCORE.INTRA.SOLV>
2.21815

>  <SCORE.INTRA.SOLV.lig_0>
-42.5944

>  <SCORE.INTRA.VDW>
0.963891

>  <SCORE.INTRA.VDW.0>
-1.067

>  <SCORE.INTRA.norm>
0.108357

>  <SCORE.RESTR>
0

>  <SCORE.RESTR.CAVITY>
0

>  <SCORE.RESTR.norm>
0

>  <SCORE.SYSTEM>
0

>  <SCORE.SYSTEM.CONST>
0

>  <SCORE.SYSTEM.DIHEDRAL>
0

>  <SCORE.SYSTEM.SOLV>
0

>  <SCORE.SYSTEM.norm>
0

>  <SCORE.heavy>
16

>  <SCORE.norm>
-1.726

>  <RMSD>
1.923

$$$$
1f27 biotin aptamer (Xray 1.3A)
 OpenBabel11021811393D
libRbt.so/2013.1/901 2013/11/27
 16 17  0  0  0  0  0  0  0  0999 V2000
   21.4026   -0.4635   15.6307 C   0  0  0  0  0  0  0  0  0  0  0  0
   21.2694   -1.6827   15.6624 O   0  5  0  0  0  0  0  0  0  0  0  0
   21.7857    0.1363   16.6336 O   0  0  0  0  0  0  0  0  0  0  0  0
   21.1604    0.2986   14.3341 C   0  0  0  0  0  0  0  0  0  0  0  0
   20.1889    1.4911   14.4792 C   0  0  0  0  0  0  0  0  0  0  0  0
   18.7410    1.0369   14.4851 C   0  0  0  0  0  0  0  0  0  0  0  0
   17.7651    2.1227   14.0820 C   0  0  0  0  0  0  0  0  0  0  0  0
   16.2855    1.7539   14.2522 C   0  0  2  0  0  0  0  0  0  0  0  0
   15.7697    0.0354   13.5842 S   0  0  0  0  0  0  0  0  0  0  0  0
   13.9648    0.6365   13.7449 C   0  0  0  0  0  0  0  0  0  0  0  0
   14.0108    2.1506   13.3865 C   0  0  2  0  0  0  0  0  0  0  0  0
   13.7701    2.2256   11.8549 N   0  0  0  0  0  0  0  0  0  0  0  0
   14.7226    2.7630   11.2247 C   0  0  0  0  0  0  0  0  0  0  0  0
   14.9414    2.8460    9.9642 O   0  0  0  0  0  0  0  0  0  0  0  0
   15.8798    3.0374   12.0453 N   0  0  0  0  0  0  0  0  0  0  0  0
   15.4106    2.7345   13.4680 C   0  0  2  0  0  0  0  0  0  0  0  0
  1  2  1  0  0  0  0
  1  3  2  0  0  0  0
  1  4  1  0  0  0  0
  4  5  1  0  0  0  0
  5  6  1  0  0  0  0
  6  7  1  0  0  0  0
  8  7  1  6  0  0  0
  8  9  1  0  0  0  0
  8 16  1  0  0  0  0
  9 10  1  0  0  0  0
 11 10  1  6  0  0  0
 11 12  1  0  0  0  0
 11 16  1  0  0  0  0
 12 13  1  0  0  0  0
 13 14  2  0  0  0  0
 13 15  1  0  0  0  0
 16 15  1  6  0  0  0
M  CHG  1   2  -1
M  END
>  <CHROM.1>
128.54487473,-79.73149445,-157.31133998,-172.41920113,-46.67192924,17.24443063
1.20552970,13.66647148,-0.55176047,-0.13704108,-0.74837541

>  <Name>
1f27 biotin aptamer (Xray 1.3A)

>  <RI>
0

>  <Rbt.Current_Directory>
/home/itssahil/PROJECTS/Mol_Feturizer/New_Systems/rnas/1f27

>  <Rbt.Executable>
rbdock ($Id: //depot/dev/client3/rdock/2013.1/src/exe/rbdock.cxx#4 $)

>  <Rbt.Library>
libRbt.so (2013.1, Build901 2013/11/27)

>  <Rbt.Parameter_File>
/export/apps/rDock/src/rDock_2013.1_src/data/scripts/dock_solv.prm

>  <Rbt.Receptor>
prm/pocket_docking_4.prm

>  <SCORE>
-31.8758

>  <SCORE.INTER>
-31.3233

>  <SCORE.INTER.CONST>
1

>  <SCORE.INTER.POLAR>
-2.37147

>  <SCORE.INTER.ROT>
5

>  <SCORE.INTER.SOLV>
10.9122

>  <SCORE.INTER.VDW>
-23.5481

>  <SCORE.INTER.norm>
-1.95771

>  <SCORE.INTRA>
-0.552479

>  <SCORE.INTRA.DIHEDRAL>
-1.38021

>  <SCORE.INTRA.DIHEDRAL.0>
6.87082

>  <SCORE.INTRA.POLAR>
0

>  <SCORE.INTRA.POLAR.0>
0

>  <SCORE.INTRA.REPUL>
0

>  <SCORE.INTRA.REPUL.0>
0

>  <SCORE.INTRA.SOLV>
-0.116824

>  <SCORE.INTRA.SOLV.lig_0>
-42.5944

>  <SCORE.INTRA.VDW>
0.196037

>  <SCORE.INTRA.VDW.0>
-1.067

>  <SCORE.INTRA.norm>
-0.0345299

>  <SCORE.RESTR>
0

>  <SCORE.RESTR.CAVITY>
0

>  <SCORE.RESTR.norm>
0

>  <SCORE.SYSTEM>
0

>  <SCORE.SYSTEM.CONST>
0

>  <SCORE.SYSTEM.DIHEDRAL>
0

>  <SCORE.SYSTEM.SOLV>
0

>  <SCORE.SYSTEM.norm>
0

>  <SCORE.heavy>
16

>  <SCORE.norm>
-1.99224

>  <RMSD>
1.927

$$$$
1f27 biotin aptamer (Xray 1.3A)
 OpenBabel11021811393D
libRbt.so/2013.1/901 2013/11/27
 16 17  0  0  0  0  0  0  0  0999 V2000
   22.2827    0.2449   14.9452 C   0  0  0  0  0  0  0  0  0  0  0  0
   22.7369    1.3719   15.1154 O   0  5  0  0  0  0  0  0  0  0  0  0
   23.0469   -0.7031   14.7725 O   0  0  0  0  0  0  0  0  0  0  0  0
   20.7796    0.0077   15.0158 C   0  0  0  0  0  0  0  0  0  0  0  0
   19.9343    1.1601   14.4287 C   0  0  0  0  0  0  0  0  0  0  0  0
   18.4479    0.8693   14.5232 C   0  0  0  0  0  0  0  0  0  0  0  0
   17.5765    2.0185   14.0608 C   0  0  0  0  0  0  0  0  0  0  0  0
   16.0685    1.7912   14.2294 C   0  0  2  0  0  0  0  0  0  0  0  0
   15.4001    0.1121   13.5973 S   0  0  0  0  0  0  0  0  0  0  0  0
   13.6573    0.8799   13.7320 C   0  0  0  0  0  0  0  0  0  0  0  0
   13.8439    2.3746   13.3393 C   0  0  2  0  0  0  0  0  0  0  0  0
   13.6184    2.4355   11.8048 N   0  0  0  0  0  0  0  0  0  0  0  0
   14.6192    2.8683   11.1690 C   0  0  0  0  0  0  0  0  0  0  0  0
   14.8506    2.9014    9.9084 O   0  0  0  0  0  0  0  0  0  0  0  0
   15.7928    3.0545   11.9910 N   0  0  0  0  0  0  0  0  0  0  0  0
   15.2911    2.8293   13.4170 C   0  0  2  0  0  0  0  0  0  0  0  0
  1  2  1  0  0  0  0
  1  3  2  0  0  0  0
  1  4  1  0  0  0  0
  4  5  1  0  0  0  0
  5  6  1  0  0  0  0
  6  7  1  0  0  0  0
  8  7  1  6  0  0  0
  8  9  1  0  0  0  0
  8 16  1  0  0  0  0
  9 10  1  0  0  0  0
 11 10  1  6  0  0  0
 11 12  1  0  0  0  0
 11 16  1  0  0  0  0
 12 13  1  0  0  0  0
 13 14  2  0  0  0  0
 13 15  1  0  0  0  0
 16 15  1  6  0  0  0
M  CHG  1   2  -1
M  END
>  <CHROM.1>
36.70337028,179.90008553,175.39527489,-176.19582201,-47.93399489,17.28373077
1.40061443,13.49329721,-0.40383341,-0.05519781,-0.84380058

>  <Name>
1f27 biotin aptamer (Xray 1.3A)

>  <RI>
0

>  <Rbt.Current_Directory>
/home/itssahil/PROJECTS/Mol_Feturizer/New_Systems/rnas/1f27

>  <Rbt.Executable>
rbdock ($Id: //depot/dev/client3/rdock/2013.1/src/exe/rbdock.cxx#4 $)

>  <Rbt.Library>
libRbt.so (2013.1, Build901 2013/11/27)

>  <Rbt.Parameter_File>
/export/apps/rDock/src/rDock_2013.1_src/data/scripts/dock_solv.prm

>  <Rbt.Receptor>
prm/pocket_docking_7.prm

>  <SCORE>
-29.3839

>  <SCORE.INTER>
-26.9817

>  <SCORE.INTER.CONST>
1

>  <SCORE.INTER.POLAR>
-1.83554

>  <SCORE.INTER.ROT>
5

>  <SCORE.INTER.SOLV>
15.6002

>  <SCORE.INTER.VDW>
-24.0027

>  <SCORE.INTER.norm>
-1.68635

>  <SCORE.INTRA>
-2.40221

>  <SCORE.INTRA.DIHEDRAL>
-4.88074

>  <SCORE.INTRA.DIHEDRAL.0>
6.87082

>  <SCORE.INTRA.POLAR>
0

>  <SCORE.INTRA.POLAR.0>
0

>  <SCORE.INTRA.REPUL>
0

>  <SCORE.INTRA.REPUL.0>
0

>  <SCORE.INTRA.SOLV>
-0.791891

>  <SCORE.INTRA.SOLV.lig_0>
-42.5944

>  <SCORE.INTRA.VDW>
0.434099

>  <SCORE.INTRA.VDW.0>
-1.067

>  <SCORE.INTRA.norm>
-0.150138

>  <SCORE.RESTR>
0

>  <SCORE.RESTR.CAVITY>
0

>  <SCORE.RESTR.norm>
0

>  <SCORE.SYSTEM>
0

>  <SCORE.SYSTEM.CONST>
0

>  <SCORE.SYSTEM.DIHEDRAL>
0

>  <SCORE.SYSTEM.SOLV>
0

>  <SCORE.SYSTEM.norm>
0

>  <SCORE.heavy>
16

>  <SCORE.norm>
-1.83649

>  <RMSD>
1.927

$$$$
1f27 biotin aptamer (Xray 1.3A)
 OpenBabel11021811393D
libRbt.so/2013.1/901 2013/11/27
 16 17  0  0  0  0  0  0  0  0999 V2000
   19.8995   -0.6697   13.6116 C   0  0  0  0  0  0  0  0  0  0  0  0
   20.7533   -0.5515   14.4848 O   0  5  0  0  0  0  0  0  0  0  0  0
   18.9616   -1.4483   13.7745 O   0  0  0  0  0  0  0  0  0  0  0  0
   19.9625    0.1946   12.3588 C   0  0  0  0  0  0  0  0  0  0  0  0
   19.3905    1.6172   12.5486 C   0  0  0  0  0  0  0  0  0  0  0  0
   17.9004    1.5885   12.8347 C   0  0  0  0  0  0  0  0  0  0  0  0
   17.4461    2.6776   13.7839 C   0  0  0  0  0  0  0  0  0  0  0  0
   15.9549    2.6376   14.1432 C   0  0  2  0  0  0  0  0  0  0  0  0
   15.1460    0.9023   14.1638 S   0  0  0  0  0  0  0  0  0  0  0  0
   13.4648    1.8069   14.1795 C   0  0  0  0  0  0  0  0  0  0  0  0
   13.6793    3.0717   13.2978 C   0  0  2  0  0  0  0  0  0  0  0  0
   13.2978    2.6456   11.8549 N   0  0  0  0  0  0  0  0  0  0  0  0
   14.2458    2.7666   11.0304 C   0  0  0  0  0  0  0  0  0  0  0  0
   14.3455    2.3676    9.8161 O   0  0  0  0  0  0  0  0  0  0  0  0
   15.5063    3.1179   11.6431 N   0  0  0  0  0  0  0  0  0  0  0  0
   15.1464    3.4112   13.0992 C   0  0  2  0  0  0  0  0  0  0  0  0
  1  2  1  0  0  0  0
  1  3  2  0  0  0  0
  1  4  1  0  0  0  0
  4  5  1  0  0  0  0
  5  6  1  0  0  0  0
  6  7  1  0  0  0  0
  8  7  1  6  0  0  0
  8  9  1  0  0  0  0
  8 16  1  0  0  0  0
  9 10  1  0  0  0  0
 11 10  1  1  0  0  0
 11 12  1  0  0  0  0
 11 16  1  0  0  0  0
 12 13  1  0  0  0  0
 13 14  2  0  0  0  0
 13 15  1  0  0  0  0
 16 15  1  6  0  0  0
M  CHG  1   2  -1
M  END
>  <CHROM.1>
-81.09846733,-65.18816254,145.57113761,-177.38471110,30.78640573,16.49275453
1.54352692,12.99106650,0.37406475,-0.33927454,2.00308116

>  <Name>
1f27 biotin aptamer (Xray 1.3A)

>  <RI>
0

>  <Rbt.Current_Directory>
/home/itssahil/PROJECTS/Mol_Feturizer/New_Systems/rnas/1f27

>  <Rbt.Executable>
rbdock ($Id: //depot/dev/client3/rdock/2013.1/src/exe/rbdock.cxx#4 $)

>  <Rbt.Library>
libRbt.so (2013.1, Build901 2013/11/27)

>  <Rbt.Parameter_File>
/export/apps/rDock/src/rDock_2013.1_src/data/scripts/dock_solv.prm

>  <Rbt.Receptor>
prm/pocket_docking_8.prm

>  <SCORE>
-27.0976

>  <SCORE.INTER>
-28.1634

>  <SCORE.INTER.CONST>
1

>  <SCORE.INTER.POLAR>
-1.70853

>  <SCORE.INTER.ROT>
5

>  <SCORE.INTER.SOLV>
8.93389

>  <SCORE.INTER.VDW>
-22.9918

>  <SCORE.INTER.norm>
-1.76021

>  <SCORE.INTRA>
1.06586

>  <SCORE.INTRA.DIHEDRAL>
1.06594

>  <SCORE.INTRA.DIHEDRAL.0>
6.87082

>  <SCORE.INTRA.POLAR>
0

>  <SCORE.INTRA.POLAR.0>
0

>  <SCORE.INTRA.REPUL>
0

>  <SCORE.INTRA.REPUL.0>
0

>  <SCORE.INTRA.SOLV>
0.853652

>  <SCORE.INTRA.SOLV.lig_0>
-42.5944

>  <SCORE.INTRA.VDW>
0.106064

>  <SCORE.INTRA.VDW.0>
-1.067

>  <SCORE.INTRA.norm>
0.0666162

>  <SCORE.RESTR>
0

>  <SCORE.RESTR.CAVITY>
0

>  <SCORE.RESTR.norm>
0

>  <SCORE.SYSTEM>
0

>  <SCORE.SYSTEM.CONST>
0

>  <SCORE.SYSTEM.DIHEDRAL>
0

>  <SCORE.SYSTEM.SOLV>
0

>  <SCORE.SYSTEM.norm>
0

>  <SCORE.heavy>
16

>  <SCORE.norm>
-1.6936

>  <RMSD>
1.927

$$$$
1f27 biotin aptamer (Xray 1.3A)
 OpenBabel11021811393D
libRbt.so/2013.1/901 2013/11/27
 16 17  0  0  0  0  0  0  0  0999 V2000
   21.6424    0.0655   15.6478 C   0  0  0  0  0  0  0  0  0  0  0  0
   22.4946    0.5340   14.8998 O   0  5  0  0  0  0  0  0  0  0  0  0
   21.7510    0.2083   16.8645 O   0  0  0  0  0  0  0  0  0  0  0  0
   20.4176   -0.6318   15.0696 C   0  0  0  0  0  0  0  0  0  0  0  0
   19.1629    0.2663   14.9913 C   0  0  0  0  0  0  0  0  0  0  0  0
   19.1353    1.0804   13.7109 C   0  0  0  0  0  0  0  0  0  0  0  0
   18.0757    2.1624   13.7053 C   0  0  0  0  0  0  0  0  0  0  0  0
   16.6509    1.6695   13.9906 C   0  0  2  0  0  0  0  0  0  0  0  0
   16.1710   -0.0057   13.1976 S   0  0  0  0  0  0  0  0  0  0  0  0
   14.3620    0.4404   13.6141 C   0  0  0  0  0  0  0  0  0  0  0  0
   14.2722    1.9823   13.4203 C   0  0  2  0  0  0  0  0  0  0  0  0
   13.8549    2.1946   11.9404 N   0  0  0  0  0  0  0  0  0  0  0  0
   14.6942    2.8624   11.2750 C   0  0  0  0  0  0  0  0  0  0  0  0
   14.7627    3.0891   10.0150 O   0  0  0  0  0  0  0  0  0  0  0  0
   15.9176    3.1370   11.9928 N   0  0  0  0  0  0  0  0  0  0  0  0
   15.6330    2.6571   13.4158 C   0  0  2  0  0  0  0  0  0  0  0  0
  1  2  1  0  0  0  0
  1  3  2  0  0  0  0
  1  4  1  0  0  0  0
  4  5  1  0  0  0  0
  5  6  1  0  0  0  0
  6  7  1  0  0  0  0
  8  7  1  6  0  0  0
  8  9  1  0  0  0  0
  8 16  1  0  0  0  0
  9 10  1  0  0  0  0
 11 10  1  6  0  0  0
 11 12  1  0  0  0  0
 11 16  1  0  0  0  0
 12 13  1  0  0  0  0
 13 14  2  0  0  0  0
 13 15  1  0  0  0  0
 16 15  1  6  0  0  0
M  CHG  1   2  -1
M  END
>  <CHROM.1>
-97.81117526,85.90075628,-168.95949374,-54.79525670,-39.35282460,17.38846591
1.25379452,13.57232781,-0.52673253,-0.18596110,-0.73807458

>  <Name>
1f27 biotin aptamer (Xray 1.3A)

>  <RI>
0

>  <Rbt.Current_Directory>
/home/itssahil/PROJECTS/Mol_Feturizer/New_Systems/rnas/1f27

>  <Rbt.Executable>
rbdock ($Id: //depot/dev/client3/rdock/2013.1/src/exe/rbdock.cxx#4 $)

>  <Rbt.Library>
libRbt.so (2013.1, Build901 2013/11/27)

>  <Rbt.Parameter_File>
/export/apps/rDock/src/rDock_2013.1_src/data/scripts/dock_solv.prm

>  <Rbt.Receptor>
prm/pocket_docking_7.prm

>  <SCORE>
-26.3711

>  <SCORE.INTER>
-26.0863

>  <SCORE.INTER.CONST>
1

>  <SCORE.INTER.POLAR>
-1.99993

>  <SCORE.INTER.ROT>
5

>  <SCORE.INTER.SOLV>
13.7159

>  <SCORE.INTER.VDW>
-22.2297

>  <SCORE.INTER.norm>
-1.63039

>  <SCORE.INTRA>
-0.284784

>  <SCORE.INTRA.DIHEDRAL>
-1.30676

>  <SCORE.INTRA.DIHEDRAL.0>
6.87082

>  <SCORE.INTRA.POLAR>
0

>  <SCORE.INTRA.POLAR.0>
0

>  <SCORE.INTRA.REPUL>
0

>  <SCORE.INTRA.REPUL.0>
0

>  <SCORE.INTRA.SOLV>
-0.0408762

>  <SCORE.INTRA.SOLV.lig_0>
-42.5944

>  <SCORE.INTRA.VDW>
0.389036

>  <SCORE.INTRA.VDW.0>
-1.067

>  <SCORE.INTRA.norm>
-0.017799

>  <SCORE.RESTR>
0

>  <SCORE.RESTR.CAVITY>
0

>  <SCORE.RESTR.norm>
0

>  <SCORE.SYSTEM>
0

>  <SCORE.SYSTEM.CONST>
0

>  <SCORE.SYSTEM.DIHEDRAL>
0

>  <SCORE.SYSTEM.SOLV>
0

>  <SCORE.SYSTEM.norm>
0

>  <SCORE.heavy>
16

>  <SCORE.norm>
-1.64819

>  <RMSD>
1.929

$$$$
1f27 biotin aptamer (Xray 1.3A)
 OpenBabel11021811393D
libRbt.so/2013.1/901 2013/11/27
 16 17  0  0  0  0  0  0  0  0999 V2000
   20.7640   -0.1259   12.5770 C   0  0  0  0  0  0  0  0  0  0  0  0
   19.7913   -0.8731   12.5464 O   0  5  0  0  0  0  0  0  0  0  0  0
   21.8887   -0.5769   12.3665 O   0  0  0  0  0  0  0  0  0  0  0  0
   20.5737    1.3679   12.8069 C   0  0  0  0  0  0  0  0  0  0  0  0
   20.2041    1.7368   14.2610 C   0  0  0  0  0  0  0  0  0  0  0  0
   18.8419    1.1917   14.6486 C   0  0  0  0  0  0  0  0  0  0  0  0
   17.7001    2.1333   14.3268 C   0  0  0  0  0  0  0  0  0  0  0  0
   16.3009    1.5190   14.4645 C   0  0  2  0  0  0  0  0  0  0  0  0
   15.8220    0.2236   13.1384 S   0  0  0  0  0  0  0  0  0  0  0  0
   14.0245    0.4239   13.7498 C   0  0  0  0  0  0  0  0  0  0  0  0
   13.8925    1.9282   14.1276 C   0  0  2  0  0  0  0  0  0  0  0  0
   13.4039    2.6421   12.8388 N   0  0  0  0  0  0  0  0  0  0  0  0
   14.1973    3.5345   12.4300 C   0  0  0  0  0  0  0  0  0  0  0  0
   14.2036    4.2007   11.3346 O   0  0  0  0  0  0  0  0  0  0  0  0
   15.4459    3.5778   13.1559 N   0  0  0  0  0  0  0  0  0  0  0  0
   15.2366    2.6091   14.3194 C   0  0  2  0  0  0  0  0  0  0  0  0
  1  2  1  0  0  0  0
  1  3  2  0  0  0  0
  1  4  1  0  0  0  0
  4  5  1  0  0  0  0
  5  6  1  0  0  0  0
  6  7  1  0  0  0  0
  8  7  1  6  0  0  0
  8  9  1  0  0  0  0
  8 16  1  0  0  0  0
  9 10  1  0  0  0  0
 11 10  1  6  0  0  0
 11 12  1  0  0  0  0
 11 16  1  0  0  0  0
 12 13  1  0  0  0  0
 13 14  2  0  0  0  0
 13 15  1  0  0  0  0
 16 15  1  6  0  0  0
M  CHG  1   2  -1
M  END
>  <CHROM.1>
73.49132905,-65.54909683,-88.75154313,169.31994571,-70.82861469,16.96275262
1.48302183,13.27042491,0.35956762,-0.06587514,2.96968704

>  <Name>
1f27 biotin aptamer (Xray 1.3A)

>  <RI>
0

>  <Rbt.Current_Directory>
/home/itssahil/PROJECTS/Mol_Feturizer/New_Systems/rnas/1f27

>  <Rbt.Executable>
rbdock ($Id: //depot/dev/client3/rdock/2013.1/src/exe/rbdock.cxx#4 $)

>  <Rbt.Library>
libRbt.so (2013.1, Build901 2013/11/27)

>  <Rbt.Parameter_File>
/export/apps/rDock/src/rDock_2013.1_src/data/scripts/dock_solv.prm

>  <Rbt.Receptor>
prm/pocket_docking_3.prm

>  <SCORE>
-32.4857

>  <SCORE.INTER>
-32.0108

>  <SCORE.INTER.CONST>
1

>  <SCORE.INTER.POLAR>
-2.44266

>  <SCORE.INTER.ROT>
5

>  <SCORE.INTER.SOLV>
14.5975

>  <SCORE.INTER.VDW>
-24.9975

>  <SCORE.INTER.norm>
-2.00067

>  <SCORE.INTRA>
-0.545806

>  <SCORE.INTRA.DIHEDRAL>
-1.55942

>  <SCORE.INTRA.DIHEDRAL.0>
6.87082

>  <SCORE.INTRA.POLAR>
0

>  <SCORE.INTRA.POLAR.0>
0

>  <SCORE.INTRA.REPUL>
0

>  <SCORE.INTRA.REPUL.0>
0

>  <SCORE.INTRA.SOLV>
0.621821

>  <SCORE.INTRA.SOLV.lig_0>
-42.5944

>  <SCORE.INTRA.VDW>
-0.0770061

>  <SCORE.INTRA.VDW.0>
-1.067

>  <SCORE.INTRA.norm>
-0.0341129

>  <SCORE.RESTR>
0.0709142

>  <SCORE.RESTR.CAVITY>
0.0709142

>  <SCORE.RESTR.norm>
0.00443214

>  <SCORE.SYSTEM>
0

>  <SCORE.SYSTEM.CONST>
0

>  <SCORE.SYSTEM.DIHEDRAL>
0

>  <SCORE.SYSTEM.SOLV>
0

>  <SCORE.SYSTEM.norm>
0

>  <SCORE.heavy>
16

>  <SCORE.norm>
-2.03036

>  <RMSD>
1.932

$$$$
1f27 biotin aptamer (Xray 1.3A)
 OpenBabel11021811393D
libRbt.so/2013.1/901 2013/11/27
 16 17  0  0  0  0  0  0  0  0999 V2000
   21.0884   -0.6348   16.2137 C   0  0  0  0  0  0  0  0  0  0  0  0
   21.7612   -0.0527   17.0586 O   0  5  0  0  0  0  0  0  0  0  0  0
   20.6196   -1.7441   16.4631 O   0  0  0  0  0  0  0  0  0  0  0  0
   20.7765    0.0423   14.8853 C   0  0  0  0  0  0  0  0  0  0  0  0
   19.4939    0.9033   14.9057 C   0  0  0  0  0  0  0  0  0  0  0  0
   19.1913    1.4907   13.5396 C   0  0  0  0  0  0  0  0  0  0  0  0
   18.0315    2.4646   13.5437 C   0  0  0  0  0  0  0  0  0  0  0  0
   16.7115    1.8914   14.0760 C   0  0  2  0  0  0  0  0  0  0  0  0
   16.0792    0.3051   13.2104 S   0  0  0  0  0  0  0  0  0  0  0  0
   14.4066    0.6347   14.0700 C   0  0  0  0  0  0  0  0  0  0  0  0
   14.2631    2.1846   14.0914 C   0  0  2  0  0  0  0  0  0  0  0  0
   13.5218    2.5544   12.7787 N   0  0  0  0  0  0  0  0  0  0  0  0
   14.1844    3.3252   12.0304 C   0  0  0  0  0  0  0  0  0  0  0  0
   13.9659    3.7007   10.8242 O   0  0  0  0  0  0  0  0  0  0  0  0
   15.5357    3.5567   12.4865 N   0  0  0  0  0  0  0  0  0  0  0  0
   15.5824    2.9030   13.8673 C   0  0  2  0  0  0  0  0  0  0  0  0
  1  2  1  0  0  0  0
  1  3  2  0  0  0  0
  1  4  1  0  0  0  0
  4  5  1  0  0  0  0
  5  6  1  0  0  0  0
  6  7  1  0  0  0  0
  8  7  1  6  0  0  0
  8  9  1  0  0  0  0
  8 16  1  0  0  0  0
  9 10  1  0  0  0  0
 11 10  1  6  0  0  0
 11 12  1  0  0  0  0
 11 16  1  0  0  0  0
 12 13  1  0  0  0  0
 13 14  2  0  0  0  0
 13 15  1  0  0  0  0
 16 15  1  6  0  0  0
M  CHG  1   2  -1
M  END
>  <CHROM.1>
-88.39613781,-176.87597391,-173.61496604,-57.03956593,-55.34156668,17.14703427
1.36846433,13.94660604,0.60112091,0.19453077,2.57258730

>  <Name>
1f27 biotin aptamer (Xray 1.3A)

>  <RI>
0

>  <Rbt.Current_Directory>
/home/itssahil/PROJECTS/Mol_Feturizer/New_Systems/rnas/1f27

>  <Rbt.Executable>
rbdock ($Id: //depot/dev/client3/rdock/2013.1/src/exe/rbdock.cxx#4 $)

>  <Rbt.Library>
libRbt.so (2013.1, Build901 2013/11/27)

>  <Rbt.Parameter_File>
/export/apps/rDock/src/rDock_2013.1_src/data/scripts/dock_solv.prm

>  <Rbt.Receptor>
prm/pocket_docking_4.prm

>  <SCORE>
-29.4093

>  <SCORE.INTER>
-26.6238

>  <SCORE.INTER.CONST>
1

>  <SCORE.INTER.POLAR>
-1.646

>  <SCORE.INTER.ROT>
5

>  <SCORE.INTER.SOLV>
9.53635

>  <SCORE.INTER.VDW>
-22.3746

>  <SCORE.INTER.norm>
-1.66399

>  <SCORE.INTRA>
-2.78555

>  <SCORE.INTRA.DIHEDRAL>
-5.27741

>  <SCORE.INTRA.DIHEDRAL.0>
6.87082

>  <SCORE.INTRA.POLAR>
0

>  <SCORE.INTRA.POLAR.0>
0

>  <SCORE.INTRA.REPUL>
0

>  <SCORE.INTRA.REPUL.0>
0

>  <SCORE.INTRA.SOLV>
-0.791739

>  <SCORE.INTRA.SOLV.lig_0>
-42.5944

>  <SCORE.INTRA.VDW>
0.249022

>  <SCORE.INTRA.VDW.0>
-1.067

>  <SCORE.INTRA.norm>
-0.174097

>  <SCORE.RESTR>
0

>  <SCORE.RESTR.CAVITY>
0

>  <SCORE.RESTR.norm>
0

>  <SCORE.SYSTEM>
0

>  <SCORE.SYSTEM.CONST>
0

>  <SCORE.SYSTEM.DIHEDRAL>
0

>  <SCORE.SYSTEM.SOLV>
0

>  <SCORE.SYSTEM.norm>
0

>  <SCORE.heavy>
16

>  <SCORE.norm>
-1.83808

>  <RMSD>
1.933

$$$$
1f27 biotin aptamer (Xray 1.3A)
 OpenBabel11021811393D
libRbt.so/2013.1/901 2013/11/27
 16 17  0  0  0  0  0  0  0  0999 V2000
   21.7755    0.1862   15.4680 C   0  0  0  0  0  0  0  0  0  0  0  0
   20.9631    0.1239   16.3853 O   0  5  0  0  0  0  0  0  0  0  0  0
   22.5491   -0.7493   15.2714 O   0  0  0  0  0  0  0  0  0  0  0  0
   21.7813    1.3883   14.5323 C   0  0  0  0  0  0  0  0  0  0  0  0
   20.6479    1.3717   13.4824 C   0  0  0  0  0  0  0  0  0  0  0  0
   19.2985    1.6690   14.1097 C   0  0  0  0  0  0  0  0  0  0  0  0
   18.1469    0.9547   13.4334 C   0  0  0  0  0  0  0  0  0  0  0  0
   16.7617    1.2786   14.0082 C   0  0  2  0  0  0  0  0  0  0  0  0
   15.3752    0.0203   13.6084 S   0  0  0  0  0  0  0  0  0  0  0  0
   14.1445    1.3554   14.1983 C   0  0  0  0  0  0  0  0  0  0  0  0
   14.7691    2.7075   13.7455 C   0  0  2  0  0  0  0  0  0  0  0  0
   14.1960    2.9797   12.3290 N   0  0  0  0  0  0  0  0  0  0  0  0
   15.0860    3.0718   11.4387 C   0  0  0  0  0  0  0  0  0  0  0  0
   14.9800    3.1279   10.1622 O   0  0  0  0  0  0  0  0  0  0  0  0
   16.4127    2.7453   11.9084 N   0  0  0  0  0  0  0  0  0  0  0  0
   16.2485    2.5951   13.4205 C   0  0  2  0  0  0  0  0  0  0  0  0
  1  2  1  0  0  0  0
  1  3  2  0  0  0  0
  1  4  1  0  0  0  0
  4  5  1  0  0  0  0
  5  6  1  0  0  0  0
  6  7  1  0  0  0  0
  8  7  1  6  0  0  0
  8  9  1  0  0  0  0
  8 16  1  0  0  0  0
  9 10  1  0  0  0  0
 11 10  1  6  0  0  0
 11 12  1  0  0  0  0
 11 16  1  0  0  0  0
 12 13  1  0  0  0  0
 13 14  2  0  0  0  0
 13 15  1  0  0  0  0
 16 15  1  6  0  0  0
M  CHG  1   2  -1
M  END
>  <CHROM.1>
-76.68399984,72.69115766,-147.53183320,-177.64011085,-160.68759712,17.55724394
1.42209441,13.58879738,0.47203352,0.04300027,2.27957849

>  <Name>
1f27 biotin aptamer (Xray 1.3A)

>  <RI>
0

>  <Rbt.Current_Directory>
/home/itssahil/PROJECTS/Mol_Feturizer/New_Systems/rnas/1f27

>  <Rbt.Executable>
rbdock ($Id: //depot/dev/client3/rdock/2013.1/src/exe/rbdock.cxx#4 $)

>  <Rbt.Library>
libRbt.so (2013.1, Build901 2013/11/27)

>  <Rbt.Parameter_File>
/export/apps/rDock/src/rDock_2013.1_src/data/scripts/dock_solv.prm

>  <Rbt.Receptor>
prm/pocket_docking_7.prm

>  <SCORE>
-26.3169

>  <SCORE.INTER>
-26.3361

>  <SCORE.INTER.CONST>
1

>  <SCORE.INTER.POLAR>
-1.18777

>  <SCORE.INTER.ROT>
5

>  <SCORE.INTER.SOLV>
12.7511

>  <SCORE.INTER.VDW>
-24.7819

>  <SCORE.INTER.norm>
-1.646

>  <SCORE.INTRA>
0.0191401

>  <SCORE.INTRA.DIHEDRAL>
-0.151874

>  <SCORE.INTRA.DIHEDRAL.0>
6.87082

>  <SCORE.INTRA.POLAR>
0

>  <SCORE.INTRA.POLAR.0>
0

>  <SCORE.INTRA.REPUL>
0

>  <SCORE.INTRA.REPUL.0>
0

>  <SCORE.INTRA.SOLV>
0.370923

>  <SCORE.INTRA.SOLV.lig_0>
-42.5944

>  <SCORE.INTRA.VDW>
-0.0903844

>  <SCORE.INTRA.VDW.0>
-1.067

>  <SCORE.INTRA.norm>
0.00119625

>  <SCORE.RESTR>
0

>  <SCORE.RESTR.CAVITY>
0

>  <SCORE.RESTR.norm>
0

>  <SCORE.SYSTEM>
0

>  <SCORE.SYSTEM.CONST>
0

>  <SCORE.SYSTEM.DIHEDRAL>
0

>  <SCORE.SYSTEM.SOLV>
0

>  <SCORE.SYSTEM.norm>
0

>  <SCORE.heavy>
16

>  <SCORE.norm>
-1.64481

>  <RMSD>
1.933

$$$$
1f27 biotin aptamer (Xray 1.3A)
 OpenBabel11021811393D
libRbt.so/2013.1/901 2013/11/27
 16 17  0  0  0  0  0  0  0  0999 V2000
   22.2517   -1.0326   15.8062 C   0  0  0  0  0  0  0  0  0  0  0  0
   21.8089   -1.1059   16.9481 O   0  5  0  0  0  0  0  0  0  0  0  0
   22.8959   -1.9700   15.3386 O   0  0  0  0  0  0  0  0  0  0  0  0
   21.9469    0.1863   14.9449 C   0  0  0  0  0  0  0  0  0  0  0  0
   20.4919    0.6918   15.0652 C   0  0  0  0  0  0  0  0  0  0  0  0
   20.1994    1.7998   14.0705 C   0  0  0  0  0  0  0  0  0  0  0  0
   18.8345    2.4304   14.2520 C   0  0  0  0  0  0  0  0  0  0  0  0
   17.6605    1.4428   14.2261 C   0  0  2  0  0  0  0  0  0  0  0  0
   17.7228    0.1054   12.8575 S   0  0  0  0  0  0  0  0  0  0  0  0
   15.8848   -0.2275   13.2522 C   0  0  0  0  0  0  0  0  0  0  0  0
   15.2897    1.1666   13.6064 C   0  0  2  0  0  0  0  0  0  0  0  0
   14.7690    1.7521   12.2666 N   0  0  0  0  0  0  0  0  0  0  0  0
   15.3181    2.8439   11.9509 C   0  0  0  0  0  0  0  0  0  0  0  0
   15.2602    3.5174   10.8615 O   0  0  0  0  0  0  0  0  0  0  0  0
   16.4120    3.2155   12.8186 N   0  0  0  0  0  0  0  0  0  0  0  0
   16.3547    2.1926   13.9529 C   0  0  2  0  0  0  0  0  0  0  0  0
  1  2  1  0  0  0  0
  1  3  2  0  0  0  0
  1  4  1  0  0  0  0
  4  5  1  0  0  0  0
  5  6  1  0  0  0  0
  6  7  1  0  0  0  0
  8  7  1  6  0  0  0
  8  9  1  0  0  0  0
  8 16  1  0  0  0  0
  9 10  1  0  0  0  0
 11 10  1  6  0  0  0
 11 12  1  0  0  0  0
 11 16  1  0  0  0  0
 12 13  1  0  0  0  0
 13 14  2  0  0  0  0
 13 15  1  0  0  0  0
 16 15  1  6  0  0  0
M  CHG  1   2  -1
M  END
>  <CHROM.1>
-40.98910696,-173.33664359,-173.69072265,-54.87054165,-43.82661440,18.30826531
0.97849502,13.80983789,0.48452614,0.38753273,2.93570096

>  <Name>
1f27 biotin aptamer (Xray 1.3A)

>  <RI>
0

>  <Rbt.Current_Directory>
/home/itssahil/PROJECTS/Mol_Feturizer/New_Systems/rnas/1f27

>  <Rbt.Executable>
rbdock ($Id: //depot/dev/client3/rdock/2013.1/src/exe/rbdock.cxx#4 $)

>  <Rbt.Library>
libRbt.so (2013.1, Build901 2013/11/27)

>  <Rbt.Parameter_File>
/export/apps/rDock/src/rDock_2013.1_src/data/scripts/dock_solv.prm

>  <Rbt.Receptor>
prm/pocket_docking_7.prm

>  <SCORE>
-25.6367

>  <SCORE.INTER>
-23.9725

>  <SCORE.INTER.CONST>
1

>  <SCORE.INTER.POLAR>
-1.59535

>  <SCORE.INTER.ROT>
5

>  <SCORE.INTER.SOLV>
8.80066

>  <SCORE.INTER.VDW>
-20.5307

>  <SCORE.INTER.norm>
-1.49828

>  <SCORE.INTRA>
-1.66691

>  <SCORE.INTRA.DIHEDRAL>
-3.98011

>  <SCORE.INTRA.DIHEDRAL.0>
6.87082

>  <SCORE.INTRA.POLAR>
0

>  <SCORE.INTRA.POLAR.0>
0

>  <SCORE.INTRA.REPUL>
0

>  <SCORE.INTRA.REPUL.0>
0

>  <SCORE.INTRA.SOLV>
-0.724602

>  <SCORE.INTRA.SOLV.lig_0>
-42.5944

>  <SCORE.INTRA.VDW>
0.685451

>  <SCORE.INTRA.VDW.0>
-1.067

>  <SCORE.INTRA.norm>
-0.104182

>  <SCORE.RESTR>
0.00273841

>  <SCORE.RESTR.CAVITY>
0.00273841

>  <SCORE.RESTR.norm>
0.000171151

>  <SCORE.SYSTEM>
0

>  <SCORE.SYSTEM.CONST>
0

>  <SCORE.SYSTEM.DIHEDRAL>
0

>  <SCORE.SYSTEM.SOLV>
0

>  <SCORE.SYSTEM.norm>
0

>  <SCORE.heavy>
16

>  <SCORE.norm>
-1.60229

>  <RMSD>
1.937

$$$$
1f27 biotin aptamer (Xray 1.3A)
 OpenBabel11021811393D
libRbt.so/2013.1/901 2013/11/27
 16 17  0  0  0  0  0  0  0  0999 V2000
   21.1394   -0.2342   15.1319 C   0  0  0  0  0  0  0  0  0  0  0  0
   21.0194   -1.4549   15.1033 O   0  5  0  0  0  0  0  0  0  0  0  0
   21.4459    0.3259   16.1830 O   0  0  0  0  0  0  0  0  0  0  0  0
   20.9768    0.5801   13.8548 C   0  0  0  0  0  0  0  0  0  0  0  0
   20.0248    1.7885   13.9980 C   0  0  0  0  0  0  0  0  0  0  0  0
   18.5953    1.3485   14.2543 C   0  0  0  0  0  0  0  0  0  0  0  0
   17.5833    2.4656   14.1068 C   0  0  0  0  0  0  0  0  0  0  0  0
   16.1193    2.0322   14.2592 C   0  0  2  0  0  0  0  0  0  0  0  0
   15.6956    0.2781   13.6196 S   0  0  0  0  0  0  0  0  0  0  0  0
   13.8622    0.7979   13.7359 C   0  0  0  0  0  0  0  0  0  0  0  0
   13.8451    2.3048   13.3457 C   0  0  2  0  0  0  0  0  0  0  0  0
   13.6294    2.3367   11.8089 N   0  0  0  0  0  0  0  0  0  0  0  0
   14.5675    2.9045   11.1839 C   0  0  0  0  0  0  0  0  0  0  0  0
   14.8054    2.9713    9.9258 O   0  0  0  0  0  0  0  0  0  0  0  0
   15.6955    3.2493   12.0183 N   0  0  0  0  0  0  0  0  0  0  0  0
   15.2147    2.9546   13.4389 C   0  0  2  0  0  0  0  0  0  0  0  0
  1  2  1  0  0  0  0
  1  3  2  0  0  0  0
  1  4  1  0  0  0  0
  4  5  1  0  0  0  0
  5  6  1  0  0  0  0
  6  7  1  0  0  0  0
  8  7  1  6  0  0  0
  8  9  1  0  0  0  0
  8 16  1  0  0  0  0
  9 10  1  0  0  0  0
 11 10  1  6  0  0  0
 11 12  1  0  0  0  0
 11 16  1  0  0  0  0
 12 13  1  0  0  0  0
 13 14  2  0  0  0  0
 13 15  1  0  0  0  0
 16 15  1  6  0  0  0
M  CHG  1   2  -1
M  END
>  <CHROM.1>
130.77971873,-65.95486415,-167.59192369,175.76734455,-33.79871091,17.07320571
1.42670269,13.49993968,-0.52138415,-0.07496625,-0.78124571

>  <Name>
1f27 biotin aptamer (Xray 1.3A)

>  <RI>
0

>  <Rbt.Current_Directory>
/home/itssahil/PROJECTS/Mol_Feturizer/New_Systems/rnas/1f27

>  <Rbt.Executable>
rbdock ($Id: //depot/dev/client3/rdock/2013.1/src/exe/rbdock.cxx#4 $)

>  <Rbt.Library>
libRbt.so (2013.1, Build901 2013/11/27)

>  <Rbt.Parameter_File>
/export/apps/rDock/src/rDock_2013.1_src/data/scripts/dock_solv.prm

>  <Rbt.Receptor>
prm/pocket_docking_5.prm

>  <SCORE>
-30.1827

>  <SCORE.INTER>
-29.4759

>  <SCORE.INTER.CONST>
1

>  <SCORE.INTER.POLAR>
-1.869

>  <SCORE.INTER.ROT>
5

>  <SCORE.INTER.SOLV>
10.8419

>  <SCORE.INTER.VDW>
-23.9679

>  <SCORE.INTER.norm>
-1.84224

>  <SCORE.INTRA>
-0.706813

>  <SCORE.INTRA.DIHEDRAL>
-2.35938

>  <SCORE.INTRA.DIHEDRAL.0>
6.87082

>  <SCORE.INTRA.POLAR>
0

>  <SCORE.INTRA.POLAR.0>
0

>  <SCORE.INTRA.REPUL>
0

>  <SCORE.INTRA.REPUL.0>
0

>  <SCORE.INTRA.SOLV>
0.0960591

>  <SCORE.INTRA.SOLV.lig_0>
-42.5944

>  <SCORE.INTRA.VDW>
0.424846

>  <SCORE.INTRA.VDW.0>
-1.067

>  <SCORE.INTRA.norm>
-0.0441758

>  <SCORE.RESTR>
0

>  <SCORE.RESTR.CAVITY>
0

>  <SCORE.RESTR.norm>
0

>  <SCORE.SYSTEM>
0

>  <SCORE.SYSTEM.CONST>
0

>  <SCORE.SYSTEM.DIHEDRAL>
0

>  <SCORE.SYSTEM.SOLV>
0

>  <SCORE.SYSTEM.norm>
0

>  <SCORE.heavy>
16

>  <SCORE.norm>
-1.88642

>  <RMSD>
1.941

$$$$
1f27 biotin aptamer (Xray 1.3A)
 OpenBabel11021811393D
libRbt.so/2013.1/901 2013/11/27
 16 17  0  0  0  0  0  0  0  0999 V2000
   20.8768   -0.0738   13.3177 C   0  0  0  0  0  0  0  0  0  0  0  0
   20.7319   -0.5984   14.4173 O   0  5  0  0  0  0  0  0  0  0  0  0
   20.8061   -0.7591   12.2989 O   0  0  0  0  0  0  0  0  0  0  0  0
   21.0755    1.4326   13.2096 C   0  0  0  0  0  0  0  0  0  0  0  0
   19.8056    2.2043   12.7867 C   0  0  0  0  0  0  0  0  0  0  0  0
   18.6529    1.9525   13.7410 C   0  0  0  0  0  0  0  0  0  0  0  0
   17.4179    2.7707   13.4264 C   0  0  0  0  0  0  0  0  0  0  0  0
   16.1180    2.2369   14.0425 C   0  0  2  0  0  0  0  0  0  0  0  0
   15.5003    0.5559   13.3655 S   0  0  0  0  0  0  0  0  0  0  0  0
   13.8369    0.9491   14.2160 C   0  0  0  0  0  0  0  0  0  0  0  0
   13.6652    2.4896   14.0725 C   0  0  2  0  0  0  0  0  0  0  0  0
   12.8950    2.7027   12.7419 N   0  0  0  0  0  0  0  0  0  0  0  0
   13.5304    3.3987   11.9022 C   0  0  0  0  0  0  0  0  0  0  0  0
   13.2844    3.6376   10.6668 O   0  0  0  0  0  0  0  0  0  0  0  0
   14.8848    3.7005   12.3049 N   0  0  0  0  0  0  0  0  0  0  0  0
   14.9670    3.2012   13.7471 C   0  0  2  0  0  0  0  0  0  0  0  0
  1  2  1  0  0  0  0
  1  3  2  0  0  0  0
  1  4  1  0  0  0  0
  4  5  1  0  0  0  0
  5  6  1  0  0  0  0
  6  7  1  0  0  0  0
  8  7  1  6  0  0  0
  8  9  1  0  0  0  0
  8 16  1  0  0  0  0
  9 10  1  0  0  0  0
 11 10  1  6  0  0  0
 11 12  1  0  0  0  0
 11 16  1  0  0  0  0
 12 13  1  0  0  0  0
 13 14  2  0  0  0  0
 13 15  1  0  0  0  0
 16 15  1  6  0  0  0
M  CHG  1   2  -1
M  END
>  <CHROM.1>
-101.52932971,57.37860681,175.60074680,160.86220253,-66.84876874,16.68813572
1.74355529,13.13163652,0.33985266,-0.10909420,2.56995512

>  <Name>
1f27 biotin aptamer (Xray 1.3A)

>  <RI>
0

>  <Rbt.Current_Directory>
/home/itssahil/PROJECTS/Mol_Feturizer/New_Systems/rnas/1f27

>  <Rbt.Executable>
rbdock ($Id: //depot/dev/client3/rdock/2013.1/src/exe/rbdock.cxx#4 $)

>  <Rbt.Library>
libRbt.so (2013.1, Build901 2013/11/27)

>  <Rbt.Parameter_File>
/export/apps/rDock/src/rDock_2013.1_src/data/scripts/dock_solv.prm

>  <Rbt.Receptor>
prm/blind_docking_40.prm

>  <SCORE>
-26.9285

>  <SCORE.INTER>
-25.1479

>  <SCORE.INTER.CONST>
1

>  <SCORE.INTER.POLAR>
-0.839134

>  <SCORE.INTER.ROT>
5

>  <SCORE.INTER.SOLV>
10.1552

>  <SCORE.INTER.VDW>
-24.2865

>  <SCORE.INTER.norm>
-1.57174

>  <SCORE.INTRA>
-1.78061

>  <SCORE.INTRA.DIHEDRAL>
-3.89188

>  <SCORE.INTRA.DIHEDRAL.0>
6.87082

>  <SCORE.INTRA.POLAR>
0

>  <SCORE.INTRA.POLAR.0>
0

>  <SCORE.INTRA.REPUL>
0

>  <SCORE.INTRA.REPUL.0>
0

>  <SCORE.INTRA.SOLV>
0.173395

>  <SCORE.INTRA.SOLV.lig_0>
-42.5944

>  <SCORE.INTRA.VDW>
0.0786351

>  <SCORE.INTRA.VDW.0>
-1.067

>  <SCORE.INTRA.norm>
-0.111288

>  <SCORE.RESTR>
0

>  <SCORE.RESTR.CAVITY>
0

>  <SCORE.RESTR.norm>
0

>  <SCORE.SYSTEM>
0

>  <SCORE.SYSTEM.CONST>
0

>  <SCORE.SYSTEM.DIHEDRAL>
0

>  <SCORE.SYSTEM.SOLV>
0

>  <SCORE.SYSTEM.norm>
0

>  <SCORE.heavy>
16

>  <SCORE.norm>
-1.68303

>  <RMSD>
1.958

$$$$
1f27 biotin aptamer (Xray 1.3A)
 OpenBabel11021811393D
libRbt.so/2013.1/901 2013/11/27
 16 17  0  0  0  0  0  0  0  0999 V2000
   21.1811   -0.1496   15.8423 C   0  0  0  0  0  0  0  0  0  0  0  0
   20.9235   -1.2844   15.4533 O   0  5  0  0  0  0  0  0  0  0  0  0
   21.5506    0.0306   17.0013 O   0  0  0  0  0  0  0  0  0  0  0  0
   21.1098    1.0248   14.8747 C   0  0  0  0  0  0  0  0  0  0  0  0
   20.2947    0.7347   13.5947 C   0  0  0  0  0  0  0  0  0  0  0  0
   18.8290    0.4946   13.9061 C   0  0  0  0  0  0  0  0  0  0  0  0
   17.9912    1.7561   13.8813 C   0  0  0  0  0  0  0  0  0  0  0  0
   16.4993    1.5438   14.1702 C   0  0  2  0  0  0  0  0  0  0  0  0
   15.7453   -0.0903   13.5169 S   0  0  0  0  0  0  0  0  0  0  0  0
   14.0364    0.6964   13.8419 C   0  0  0  0  0  0  0  0  0  0  0  0
   14.2178    2.2062   13.5089 C   0  0  2  0  0  0  0  0  0  0  0  0
   13.8610    2.3489   12.0051 N   0  0  0  0  0  0  0  0  0  0  0  0
   14.8111    2.7981   11.3061 C   0  0  0  0  0  0  0  0  0  0  0  0
   14.9327    2.8919   10.0332 O   0  0  0  0  0  0  0  0  0  0  0  0
   16.0552    2.9239   12.0300 N   0  0  0  0  0  0  0  0  0  0  0  0
   15.6750    2.6339   13.4817 C   0  0  2  0  0  0  0  0  0  0  0  0
  1  2  1  0  0  0  0
  1  3  2  0  0  0  0
  1  4  1  0  0  0  0
  4  5  1  0  0  0  0
  5  6  1  0  0  0  0
  6  7  1  0  0  0  0
  8  7  1  6  0  0  0
  8  9  1  0  0  0  0
  8 16  1  0  0  0  0
  9 10  1  0  0  0  0
 11 10  1  6  0  0  0
 11 12  1  0  0  0  0
 11 16  1  0  0  0  0
 12 13  1  0  0  0  0
 13 14  2  0  0  0  0
 13 15  1  0  0  0  0
 16 15  1  6  0  0  0
M  CHG  1   2  -1
M  END
>  <CHROM.1>
18.19276646,65.13052919,90.10804082,179.06154760,-34.77764697,17.27407134
1.16480065,13.63908925,0.56833385,0.10329389,2.30541898

>  <Name>
1f27 biotin aptamer (Xray 1.3A)

>  <RI>
0

>  <Rbt.Current_Directory>
/home/itssahil/PROJECTS/Mol_Feturizer/New_Systems/rnas/1f27

>  <Rbt.Executable>
rbdock ($Id: //depot/dev/client3/rdock/2013.1/src/exe/rbdock.cxx#4 $)

>  <Rbt.Library>
libRbt.so (2013.1, Build901 2013/11/27)

>  <Rbt.Parameter_File>
/export/apps/rDock/src/rDock_2013.1_src/data/scripts/dock_solv.prm

>  <Rbt.Receptor>
prm/pocket_docking_5.prm

>  <SCORE>
-30.5455

>  <SCORE.INTER>
-31.5655

>  <SCORE.INTER.CONST>
1

>  <SCORE.INTER.POLAR>
-2.40257

>  <SCORE.INTER.ROT>
5

>  <SCORE.INTER.SOLV>
10.882

>  <SCORE.INTER.VDW>
-23.5957

>  <SCORE.INTER.norm>
-1.97284

>  <SCORE.INTRA>
1.01999

>  <SCORE.INTRA.DIHEDRAL>
-0.187899

>  <SCORE.INTRA.DIHEDRAL.0>
6.87082

>  <SCORE.INTRA.POLAR>
0

>  <SCORE.INTRA.POLAR.0>
0

>  <SCORE.INTRA.REPUL>
0

>  <SCORE.INTRA.REPUL.0>
0

>  <SCORE.INTRA.SOLV>
0.293671

>  <SCORE.INTRA.SOLV.lig_0>
-42.5944

>  <SCORE.INTRA.VDW>
0.967105

>  <SCORE.INTRA.VDW.0>
-1.067

>  <SCORE.INTRA.norm>
0.0637495

>  <SCORE.RESTR>
0

>  <SCORE.RESTR.CAVITY>
0

>  <SCORE.RESTR.norm>
0

>  <SCORE.SYSTEM>
0

>  <SCORE.SYSTEM.CONST>
0

>  <SCORE.SYSTEM.DIHEDRAL>
0

>  <SCORE.SYSTEM.SOLV>
0

>  <SCORE.SYSTEM.norm>
0

>  <SCORE.heavy>
16

>  <SCORE.norm>
-1.90909

>  <RMSD>
1.961

$$$$
1f27 biotin aptamer (Xray 1.3A)
 OpenBabel11021811393D
libRbt.so/2013.1/901 2013/11/27
 16 17  0  0  0  0  0  0  0  0999 V2000
   21.1629   -0.0357   15.6936 C   0  0  0  0  0  0  0  0  0  0  0  0
   20.8193   -1.1454   15.2988 O   0  5  0  0  0  0  0  0  0  0  0  0
   21.6348    0.0931   16.8219 O   0  0  0  0  0  0  0  0  0  0  0  0
   21.0698    1.1686   14.7653 C   0  0  0  0  0  0  0  0  0  0  0  0
   20.2506    0.9093   13.4813 C   0  0  0  0  0  0  0  0  0  0  0  0
   18.7936    0.6228   13.7944 C   0  0  0  0  0  0  0  0  0  0  0  0
   17.9397    1.8699   13.8916 C   0  0  0  0  0  0  0  0  0  0  0  0
   16.4517    1.6116   14.1629 C   0  0  2  0  0  0  0  0  0  0  0  0
   15.7540   -0.0407   13.4931 S   0  0  0  0  0  0  0  0  0  0  0  0
   14.0189    0.6930   13.8033 C   0  0  0  0  0  0  0  0  0  0  0  0
   14.1588    2.2092   13.4800 C   0  0  2  0  0  0  0  0  0  0  0  0
   13.8142    2.3494   11.9730 N   0  0  0  0  0  0  0  0  0  0  0  0
   14.7580    2.8305   11.2868 C   0  0  0  0  0  0  0  0  0  0  0  0
   14.8905    2.9347   10.0159 O   0  0  0  0  0  0  0  0  0  0  0  0
   15.9898    2.9894   12.0250 N   0  0  0  0  0  0  0  0  0  0  0  0
   15.6027    2.6804   13.4709 C   0  0  2  0  0  0  0  0  0  0  0  0
  1  2  1  0  0  0  0
  1  3  2  0  0  0  0
  1  4  1  0  0  0  0
  4  5  1  0  0  0  0
  5  6  1  0  0  0  0
  6  7  1  0  0  0  0
  8  7  1  6  0  0  0
  8  9  1  0  0  0  0
  8 16  1  0  0  0  0
  9 10  1  0  0  0  0
 11 10  1  6  0  0  0
 11 12  1  0  0  0  0
 11 16  1  0  0  0  0
 12 13  1  0  0  0  0
 13 14  2  0  0  0  0
 13 15  1  0  0  0  0
 16 15  1  6  0  0  0
M  CHG  1   2  -1
M  END
>  <CHROM.1>
12.55474801,64.45287050,87.31173874,178.13621722,-29.48399623,17.24028556
1.23710609,13.57884665,0.54701198,0.11014431,2.31970179

>  <Name>
1f27 biotin aptamer (Xray 1.3A)

>  <RI>
0

>  <Rbt.Current_Directory>
/home/itssahil/PROJECTS/Mol_Feturizer/New_Systems/rnas/1f27

>  <Rbt.Executable>
rbdock ($Id: //depot/dev/client3/rdock/2013.1/src/exe/rbdock.cxx#4 $)

>  <Rbt.Library>
libRbt.so (2013.1, Build901 2013/11/27)

>  <Rbt.Parameter_File>
/export/apps/rDock/src/rDock_2013.1_src/data/scripts/dock_solv.prm

>  <Rbt.Receptor>
prm/pocket_docking_6.prm

>  <SCORE>
-30.3975

>  <SCORE.INTER>
-31.8402

>  <SCORE.INTER.CONST>
1

>  <SCORE.INTER.POLAR>
-2.37778

>  <SCORE.INTER.ROT>
5

>  <SCORE.INTER.SOLV>
10.994

>  <SCORE.INTER.VDW>
-23.8988

>  <SCORE.INTER.norm>
-1.99001

>  <SCORE.INTRA>
1.44264

>  <SCORE.INTRA.DIHEDRAL>
0.179195

>  <SCORE.INTRA.DIHEDRAL.0>
6.87082

>  <SCORE.INTRA.POLAR>
0

>  <SCORE.INTRA.POLAR.0>
0

>  <SCORE.INTRA.REPUL>
0

>  <SCORE.INTRA.REPUL.0>
0

>  <SCORE.INTRA.SOLV>
0.373767

>  <SCORE.INTRA.SOLV.lig_0>
-42.5944

>  <SCORE.INTRA.VDW>
1.16616

>  <SCORE.INTRA.VDW.0>
-1.067

>  <SCORE.INTRA.norm>
0.0901648

>  <SCORE.RESTR>
0

>  <SCORE.RESTR.CAVITY>
0

>  <SCORE.RESTR.norm>
0

>  <SCORE.SYSTEM>
0

>  <SCORE.SYSTEM.CONST>
0

>  <SCORE.SYSTEM.DIHEDRAL>
0

>  <SCORE.SYSTEM.SOLV>
0

>  <SCORE.SYSTEM.norm>
0

>  <SCORE.heavy>
16

>  <SCORE.norm>
-1.89985

>  <RMSD>
1.971

$$$$
1f27 biotin aptamer (Xray 1.3A)
 OpenBabel11021811393D
libRbt.so/2013.1/901 2013/11/27
 16 17  0  0  0  0  0  0  0  0999 V2000
   21.2000   -0.9620   16.6610 C   0  0  0  0  0  0  0  0  0  0  0  0
   21.6525   -0.0982   17.4056 O   0  5  0  0  0  0  0  0  0  0  0  0
   21.0827   -2.1176   17.0650 O   0  0  0  0  0  0  0  0  0  0  0  0
   20.7207   -0.5919   15.2632 C   0  0  0  0  0  0  0  0  0  0  0  0
   19.5464    0.4120   15.2478 C   0  0  0  0  0  0  0  0  0  0  0  0
   19.1343    0.7707   13.8320 C   0  0  0  0  0  0  0  0  0  0  0  0
   18.1560    1.9247   13.7612 C   0  0  0  0  0  0  0  0  0  0  0  0
   16.7003    1.5547   14.0747 C   0  0  2  0  0  0  0  0  0  0  0  0
   16.0889   -0.1131   13.3604 S   0  0  0  0  0  0  0  0  0  0  0  0
   14.3221    0.4872   13.7641 C   0  0  0  0  0  0  0  0  0  0  0  0
   14.3478    2.0213   13.5011 C   0  0  2  0  0  0  0  0  0  0  0  0
   13.9362    2.1981   12.0150 N   0  0  0  0  0  0  0  0  0  0  0  0
   14.8184    2.7699   11.3164 C   0  0  0  0  0  0  0  0  0  0  0  0
   14.8942    2.9340   10.0471 O   0  0  0  0  0  0  0  0  0  0  0  0
   16.0647    2.9827   12.0158 N   0  0  0  0  0  0  0  0  0  0  0  0
   15.7556    2.5900   13.4602 C   0  0  2  0  0  0  0  0  0  0  0  0
  1  2  1  0  0  0  0
  1  3  2  0  0  0  0
  1  4  1  0  0  0  0
  4  5  1  0  0  0  0
  5  6  1  0  0  0  0
  6  7  1  0  0  0  0
  8  7  1  6  0  0  0
  8  9  1  0  0  0  0
  8 16  1  0  0  0  0
  9 10  1  0  0  0  0
 11 10  1  6  0  0  0
 11 12  1  0  0  0  0
 11 16  1  0  0  0  0
 12 13  1  0  0  0  0
 13 14  2  0  0  0  0
 13 15  1  0  0  0  0
 16 15  1  6  0  0  0
M  CHG  1   2  -1
M  END
>  <CHROM.1>
-61.68411117,178.56340301,-169.99189270,-79.09884380,-40.24551470,17.34044873
0.94437635,13.88796129,-0.68737195,-0.23753490,-0.70110084

>  <Name>
1f27 biotin aptamer (Xray 1.3A)

>  <RI>
0

>  <Rbt.Current_Directory>
/home/itssahil/PROJECTS/Mol_Feturizer/New_Systems/rnas/1f27

>  <Rbt.Executable>
rbdock ($Id: //depot/dev/client3/rdock/2013.1/src/exe/rbdock.cxx#4 $)

>  <Rbt.Library>
libRbt.so (2013.1, Build901 2013/11/27)

>  <Rbt.Parameter_File>
/export/apps/rDock/src/rDock_2013.1_src/data/scripts/dock_solv.prm

>  <Rbt.Receptor>
prm/pocket_docking_5.prm

>  <SCORE>
-31.349

>  <SCORE.INTER>
-30.0689

>  <SCORE.INTER.CONST>
1

>  <SCORE.INTER.POLAR>
-2.498

>  <SCORE.INTER.ROT>
5

>  <SCORE.INTER.SOLV>
10.0353

>  <SCORE.INTER.VDW>
-21.9977

>  <SCORE.INTER.norm>
-1.87931

>  <SCORE.INTRA>
-1.2801

>  <SCORE.INTRA.DIHEDRAL>
-2.24935

>  <SCORE.INTRA.DIHEDRAL.0>
6.87082

>  <SCORE.INTRA.POLAR>
0

>  <SCORE.INTRA.POLAR.0>
0

>  <SCORE.INTRA.REPUL>
0

>  <SCORE.INTRA.REPUL.0>
0

>  <SCORE.INTRA.SOLV>
-0.759274

>  <SCORE.INTRA.SOLV.lig_0>
-42.5944

>  <SCORE.INTRA.VDW>
0.224212

>  <SCORE.INTRA.VDW.0>
-1.067

>  <SCORE.INTRA.norm>
-0.0800062

>  <SCORE.RESTR>
0

>  <SCORE.RESTR.CAVITY>
0

>  <SCORE.RESTR.norm>
0

>  <SCORE.SYSTEM>
0

>  <SCORE.SYSTEM.CONST>
0

>  <SCORE.SYSTEM.DIHEDRAL>
0

>  <SCORE.SYSTEM.SOLV>
0

>  <SCORE.SYSTEM.norm>
0

>  <SCORE.heavy>
16

>  <SCORE.norm>
-1.95931

>  <RMSD>
1.975

$$$$
1f27 biotin aptamer (Xray 1.3A)
 OpenBabel11021811393D
libRbt.so/2013.1/901 2013/11/27
 16 17  0  0  0  0  0  0  0  0999 V2000
   20.9482   -0.0746   13.4560 C   0  0  0  0  0  0  0  0  0  0  0  0
   21.6288    0.1338   12.4567 O   0  5  0  0  0  0  0  0  0  0  0  0
   21.4147    0.1497   14.5716 O   0  0  0  0  0  0  0  0  0  0  0  0
   19.5061   -0.5447   13.3144 C   0  0  0  0  0  0  0  0  0  0  0  0
   18.5115    0.5815   12.9544 C   0  0  0  0  0  0  0  0  0  0  0  0
   18.4664    1.6536   14.0274 C   0  0  0  0  0  0  0  0  0  0  0  0
   17.3128    2.6216   13.8666 C   0  0  0  0  0  0  0  0  0  0  0  0
   15.9453    2.0692   14.2897 C   0  0  2  0  0  0  0  0  0  0  0  0
   15.3753    0.4740   13.3974 S   0  0  0  0  0  0  0  0  0  0  0  0
   13.6370    0.8330   14.1008 C   0  0  0  0  0  0  0  0  0  0  0  0
   13.5081    2.3842   14.0844 C   0  0  2  0  0  0  0  0  0  0  0  0
   12.8891    2.7382   12.7057 N   0  0  0  0  0  0  0  0  0  0  0  0
   13.6229    3.4902   12.0063 C   0  0  0  0  0  0  0  0  0  0  0  0
   13.5152    3.8471   10.7796 O   0  0  0  0  0  0  0  0  0  0  0  0
   14.9311    3.7175   12.5759 N   0  0  0  0  0  0  0  0  0  0  0  0
   14.8493    3.0871   13.9659 C   0  0  2  0  0  0  0  0  0  0  0  0
  1  2  1  0  0  0  0
  1  3  2  0  0  0  0
  1  4  1  0  0  0  0
  4  5  1  0  0  0  0
  5  6  1  0  0  0  0
  6  7  1  0  0  0  0
  8  7  1  6  0  0  0
  8  9  1  0  0  0  0
  8 16  1  0  0  0  0
  9 10  1  0  0  0  0
 11 10  1  6  0  0  0
 11 12  1  0  0  0  0
 11 16  1  0  0  0  0
 12 13  1  0  0  0  0
 13 14  2  0  0  0  0
 13 15  1  0  0  0  0
 16 15  1  6  0  0  0
M  CHG  1   2  -1
M  END
>  <CHROM.1>
-78.29555452,-61.47072771,-168.03485256,76.07273466,-57.43581724,16.57939909
1.60171681,13.26670722,-0.35045036,0.15203493,-0.67422828

>  <Name>
1f27 biotin aptamer (Xray 1.3A)

>  <RI>
0

>  <Rbt.Current_Directory>
/home/itssahil/PROJECTS/Mol_Feturizer/New_Systems/rnas/1f27

>  <Rbt.Executable>
rbdock ($Id: //depot/dev/client3/rdock/2013.1/src/exe/rbdock.cxx#4 $)

>  <Rbt.Library>
libRbt.so (2013.1, Build901 2013/11/27)

>  <Rbt.Parameter_File>
/export/apps/rDock/src/rDock_2013.1_src/data/scripts/dock_solv.prm

>  <Rbt.Receptor>
prm/blind_docking_100.prm

>  <SCORE>
-28.4671

>  <SCORE.INTER>
-26.9843

>  <SCORE.INTER.CONST>
1

>  <SCORE.INTER.POLAR>
-1.61191

>  <SCORE.INTER.ROT>
5

>  <SCORE.INTER.SOLV>
12.8129

>  <SCORE.INTER.VDW>
-23.8208

>  <SCORE.INTER.norm>
-1.68652

>  <SCORE.INTRA>
-1.53852

>  <SCORE.INTRA.DIHEDRAL>
-3.95707

>  <SCORE.INTRA.DIHEDRAL.0>
6.87082

>  <SCORE.INTRA.POLAR>
0

>  <SCORE.INTRA.POLAR.0>
0

>  <SCORE.INTRA.REPUL>
0

>  <SCORE.INTRA.REPUL.0>
0

>  <SCORE.INTRA.SOLV>
0.245441

>  <SCORE.INTRA.SOLV.lig_0>
-42.5944

>  <SCORE.INTRA.VDW>
0.317299

>  <SCORE.INTRA.VDW.0>
-1.067

>  <SCORE.INTRA.norm>
-0.0961574

>  <SCORE.RESTR>
0.0557139

>  <SCORE.RESTR.CAVITY>
0.0557139

>  <SCORE.RESTR.norm>
0.00348212

>  <SCORE.SYSTEM>
0

>  <SCORE.SYSTEM.CONST>
0

>  <SCORE.SYSTEM.DIHEDRAL>
0

>  <SCORE.SYSTEM.SOLV>
0

>  <SCORE.SYSTEM.norm>
0

>  <SCORE.heavy>
16

>  <SCORE.norm>
-1.77919

>  <RMSD>
1.982

$$$$
1f27 biotin aptamer (Xray 1.3A)
 OpenBabel11021811393D
libRbt.so/2013.1/901 2013/11/27
 16 17  0  0  0  0  0  0  0  0999 V2000
   20.7066   -0.1799   12.8140 C   0  0  0  0  0  0  0  0  0  0  0  0
   19.8822   -1.0807   12.9330 O   0  5  0  0  0  0  0  0  0  0  0  0
   21.8041   -0.4173   12.3124 O   0  0  0  0  0  0  0  0  0  0  0  0
   20.3483    1.2432   13.2227 C   0  0  0  0  0  0  0  0  0  0  0  0
   19.3644    1.9439   12.2594 C   0  0  0  0  0  0  0  0  0  0  0  0
   17.9211    1.7167   12.6694 C   0  0  0  0  0  0  0  0  0  0  0  0
   17.4793    2.5823   13.8309 C   0  0  0  0  0  0  0  0  0  0  0  0
   15.9829    2.5021   14.1608 C   0  0  2  0  0  0  0  0  0  0  0  0
   15.2027    0.7553   14.0869 S   0  0  0  0  0  0  0  0  0  0  0  0
   13.5067    1.6316   14.1137 C   0  0  0  0  0  0  0  0  0  0  0  0
   13.7156    2.9390   13.2952 C   0  0  2  0  0  0  0  0  0  0  0  0
   13.3663    2.5743   11.8275 N   0  0  0  0  0  0  0  0  0  0  0  0
   14.3264    2.7483   11.0269 C   0  0  0  0  0  0  0  0  0  0  0  0
   14.4538    2.4076    9.7974 O   0  0  0  0  0  0  0  0  0  0  0  0
   15.5701    3.0906   11.6778 N   0  0  0  0  0  0  0  0  0  0  0  0
   15.1800    3.3105   13.1391 C   0  0  2  0  0  0  0  0  0  0  0  0
  1  2  1  0  0  0  0
  1  3  2  0  0  0  0
  1  4  1  0  0  0  0
  4  5  1  0  0  0  0
  5  6  1  0  0  0  0
  6  7  1  0  0  0  0
  8  7  1  6  0  0  0
  8  9  1  0  0  0  0
  8 16  1  0  0  0  0
  9 10  1  0  0  0  0
 11 10  1  1  0  0  0
 11 12  1  0  0  0  0
 11 16  1  0  0  0  0
 12 13  1  0  0  0  0
 13 14  2  0  0  0  0
 13 15  1  0  0  0  0
 16 15  1  6  0  0  0
M  CHG  1   2  -1
M  END
>  <CHROM.1>
-72.45672698,90.42914135,77.76210123,172.93820575,41.08382041,16.72055706
1.62844384,12.76782248,-0.16833843,0.30482058,-1.18498165

>  <Name>
1f27 biotin aptamer (Xray 1.3A)

>  <RI>
0

>  <Rbt.Current_Directory>
/home/itssahil/PROJECTS/Mol_Feturizer/New_Systems/rnas/1f27

>  <Rbt.Executable>
rbdock ($Id: //depot/dev/client3/rdock/2013.1/src/exe/rbdock.cxx#4 $)

>  <Rbt.Library>
libRbt.so (2013.1, Build901 2013/11/27)

>  <Rbt.Parameter_File>
/export/apps/rDock/src/rDock_2013.1_src/data/scripts/dock_solv.prm

>  <Rbt.Receptor>
prm/blind_docking_40.prm

>  <SCORE>
-31.3515

>  <SCORE.INTER>
-32.29

>  <SCORE.INTER.CONST>
1

>  <SCORE.INTER.POLAR>
-2.53685

>  <SCORE.INTER.ROT>
5

>  <SCORE.INTER.SOLV>
13.2429

>  <SCORE.INTER.VDW>
-24.4181

>  <SCORE.INTER.norm>
-2.01812

>  <SCORE.INTRA>
0.938485

>  <SCORE.INTRA.DIHEDRAL>
-0.0916398

>  <SCORE.INTRA.DIHEDRAL.0>
6.87082

>  <SCORE.INTRA.POLAR>
0

>  <SCORE.INTRA.POLAR.0>
0

>  <SCORE.INTRA.REPUL>
0

>  <SCORE.INTRA.REPUL.0>
0

>  <SCORE.INTRA.SOLV>
0.475413

>  <SCORE.INTRA.SOLV.lig_0>
-42.5944

>  <SCORE.INTRA.VDW>
0.746598

>  <SCORE.INTRA.VDW.0>
-1.067

>  <SCORE.INTRA.norm>
0.0586553

>  <SCORE.RESTR>
0

>  <SCORE.RESTR.CAVITY>
0

>  <SCORE.RESTR.norm>
0

>  <SCORE.SYSTEM>
0

>  <SCORE.SYSTEM.CONST>
0

>  <SCORE.SYSTEM.DIHEDRAL>
0

>  <SCORE.SYSTEM.SOLV>
0

>  <SCORE.SYSTEM.norm>
0

>  <SCORE.heavy>
16

>  <SCORE.norm>
-1.95947

>  <RMSD>
1.985

$$$$
1f27 biotin aptamer (Xray 1.3A)
 OpenBabel11021811393D
libRbt.so/2013.1/901 2013/11/27
 16 17  0  0  0  0  0  0  0  0999 V2000
   20.0303   -0.2889   12.6852 C   0  0  0  0  0  0  0  0  0  0  0  0
   20.6945    0.7416   12.7315 O   0  5  0  0  0  0  0  0  0  0  0  0
   20.5961   -1.3802   12.6468 O   0  0  0  0  0  0  0  0  0  0  0  0
   18.5096   -0.2215   12.7442 C   0  0  0  0  0  0  0  0  0  0  0  0
   17.9501    0.1091   14.1459 C   0  0  0  0  0  0  0  0  0  0  0  0
   18.2323    1.5480   14.5369 C   0  0  0  0  0  0  0  0  0  0  0  0
   17.4361    2.5587   13.7380 C   0  0  0  0  0  0  0  0  0  0  0  0
   15.9456    2.6313   14.0950 C   0  0  2  0  0  0  0  0  0  0  0  0
   15.0204    0.9567   14.1672 S   0  0  0  0  0  0  0  0  0  0  0  0
   13.4047    1.9736   14.1514 C   0  0  0  0  0  0  0  0  0  0  0  0
   13.7050    3.1931   13.2317 C   0  0  2  0  0  0  0  0  0  0  0  0
   13.2955    2.7496   11.8017 N   0  0  0  0  0  0  0  0  0  0  0  0
   14.2497    2.7803   10.9760 C   0  0  0  0  0  0  0  0  0  0  0  0
   14.3221    2.3383    9.7748 O   0  0  0  0  0  0  0  0  0  0  0  0
   15.5311    3.0637   11.5804 N   0  0  0  0  0  0  0  0  0  0  0  0
   15.1918    3.4257   13.0260 C   0  0  2  0  0  0  0  0  0  0  0  0
  1  2  1  0  0  0  0
  1  3  2  0  0  0  0
  1  4  1  0  0  0  0
  4  5  1  0  0  0  0
  5  6  1  0  0  0  0
  6  7  1  0  0  0  0
  8  7  1  6  0  0  0
  8  9  1  0  0  0  0
  8 16  1  0  0  0  0
  9 10  1  0  0  0  0
 11 10  1  1  0  0  0
 11 12  1  0  0  0  0
 11 16  1  0  0  0  0
 12 13  1  0  0  0  0
 13 14  2  0  0  0  0
 13 15  1  0  0  0  0
 16 15  1  6  0  0  0
M  CHG  1   2  -1
M  END
>  <CHROM.1>
-73.70706895,70.48176601,69.90605012,73.00521322,-49.26722492,16.43781362
1.55717446,12.94198634,-0.18302878,0.42299748,-1.41211060

>  <Name>
1f27 biotin aptamer (Xray 1.3A)

>  <RI>
0

>  <Rbt.Current_Directory>
/home/itssahil/PROJECTS/Mol_Feturizer/New_Systems/rnas/1f27

>  <Rbt.Executable>
rbdock ($Id: //depot/dev/client3/rdock/2013.1/src/exe/rbdock.cxx#4 $)

>  <Rbt.Library>
libRbt.so (2013.1, Build901 2013/11/27)

>  <Rbt.Parameter_File>
/export/apps/rDock/src/rDock_2013.1_src/data/scripts/dock_solv.prm

>  <Rbt.Receptor>
prm/blind_docking_40.prm

>  <SCORE>
-26.7861

>  <SCORE.INTER>
-26.3088

>  <SCORE.INTER.CONST>
1

>  <SCORE.INTER.POLAR>
-1.70619

>  <SCORE.INTER.ROT>
5

>  <SCORE.INTER.SOLV>
11.9282

>  <SCORE.INTER.VDW>
-22.7613

>  <SCORE.INTER.norm>
-1.6443

>  <SCORE.INTRA>
-0.477257

>  <SCORE.INTRA.DIHEDRAL>
-3.64004

>  <SCORE.INTRA.DIHEDRAL.0>
6.87082

>  <SCORE.INTRA.POLAR>
0

>  <SCORE.INTRA.POLAR.0>
0

>  <SCORE.INTRA.REPUL>
0

>  <SCORE.INTRA.REPUL.0>
0

>  <SCORE.INTRA.SOLV>
0.635191

>  <SCORE.INTRA.SOLV.lig_0>
-42.5944

>  <SCORE.INTRA.VDW>
1.02517

>  <SCORE.INTRA.VDW.0>
-1.067

>  <SCORE.INTRA.norm>
-0.0298286

>  <SCORE.RESTR>
0

>  <SCORE.RESTR.CAVITY>
0

>  <SCORE.RESTR.norm>
0

>  <SCORE.SYSTEM>
0

>  <SCORE.SYSTEM.CONST>
0

>  <SCORE.SYSTEM.DIHEDRAL>
0

>  <SCORE.SYSTEM.SOLV>
0

>  <SCORE.SYSTEM.norm>
0

>  <SCORE.heavy>
16

>  <SCORE.norm>
-1.67413

>  <RMSD>
1.987

$$$$
1f27 biotin aptamer (Xray 1.3A)
 OpenBabel11021811393D
libRbt.so/2013.1/901 2013/11/27
 16 17  0  0  0  0  0  0  0  0999 V2000
   21.2836    0.2095   14.7383 C   0  0  0  0  0  0  0  0  0  0  0  0
   20.8312    0.2837   15.8763 O   0  5  0  0  0  0  0  0  0  0  0  0
   22.3434   -0.3817   14.5387 O   0  0  0  0  0  0  0  0  0  0  0  0
   20.5020    0.7878   13.5656 C   0  0  0  0  0  0  0  0  0  0  0  0
   19.7504    2.0964   13.8969 C   0  0  0  0  0  0  0  0  0  0  0  0
   18.8434    2.5253   12.7583 C   0  0  0  0  0  0  0  0  0  0  0  0
   17.6727    1.5913   12.5333 C   0  0  0  0  0  0  0  0  0  0  0  0
   16.6058    1.6192   13.6357 C   0  0  2  0  0  0  0  0  0  0  0  0
   15.2342    0.2897   13.5060 S   0  0  0  0  0  0  0  0  0  0  0  0
   14.2674    1.3193   14.7906 C   0  0  0  0  0  0  0  0  0  0  0  0
   14.6022    2.8017   14.4535 C   0  0  2  0  0  0  0  0  0  0  0  0
   13.5117    3.2588   13.4479 N   0  0  0  0  0  0  0  0  0  0  0  0
   13.9806    3.6310   12.3367 C   0  0  0  0  0  0  0  0  0  0  0  0
   13.3847    3.9119   11.2368 O   0  0  0  0  0  0  0  0  0  0  0  0
   15.3995    3.3967   12.1977 N   0  0  0  0  0  0  0  0  0  0  0  0
   15.8428    2.9450   13.5889 C   0  0  2  0  0  0  0  0  0  0  0  0
  1  2  1  0  0  0  0
  1  3  2  0  0  0  0
  1  4  1  0  0  0  0
  4  5  1  0  0  0  0
  5  6  1  0  0  0  0
  6  7  1  0  0  0  0
  8  7  1  6  0  0  0
  8  9  1  0  0  0  0
  8 16  1  0  0  0  0
  9 10  1  0  0  0  0
 11 10  1  6  0  0  0
 11 12  1  0  0  0  0
 11 16  1  0  0  0  0
 12 13  1  0  0  0  0
 13 14  2  0  0  0  0
 13 15  1  0  0  0  0
 16 15  1  6  0  0  0
M  CHG  1   2  -1
M  END
>  <CHROM.1>
36.75024771,-172.29216908,67.53968349,69.91928769,-172.12357622,17.01576474
1.76363742,13.55969662,0.39972401,-0.05457014,2.41828219

>  <Name>
1f27 biotin aptamer (Xray 1.3A)

>  <RI>
0

>  <Rbt.Current_Directory>
/home/itssahil/PROJECTS/Mol_Feturizer/New_Systems/rnas/1f27

>  <Rbt.Executable>
rbdock ($Id: //depot/dev/client3/rdock/2013.1/src/exe/rbdock.cxx#4 $)

>  <Rbt.Library>
libRbt.so (2013.1, Build901 2013/11/27)

>  <Rbt.Parameter_File>
/export/apps/rDock/src/rDock_2013.1_src/data/scripts/dock_solv.prm

>  <Rbt.Receptor>
prm/pocket_docking_3.prm

>  <SCORE>
-22.863

>  <SCORE.INTER>
-21.1775

>  <SCORE.INTER.CONST>
1

>  <SCORE.INTER.POLAR>
0

>  <SCORE.INTER.ROT>
5

>  <SCORE.INTER.SOLV>
12.6993

>  <SCORE.INTER.VDW>
-25.2847

>  <SCORE.INTER.norm>
-1.32359

>  <SCORE.INTRA>
-1.68705

>  <SCORE.INTRA.DIHEDRAL>
-4.49851

>  <SCORE.INTRA.DIHEDRAL.0>
6.87082

>  <SCORE.INTRA.POLAR>
0

>  <SCORE.INTRA.POLAR.0>
0

>  <SCORE.INTRA.REPUL>
0

>  <SCORE.INTRA.REPUL.0>
0

>  <SCORE.INTRA.SOLV>
-0.666038

>  <SCORE.INTRA.SOLV.lig_0>
-42.5944

>  <SCORE.INTRA.VDW>
0.895218

>  <SCORE.INTRA.VDW.0>
-1.067

>  <SCORE.INTRA.norm>
-0.105441

>  <SCORE.RESTR>
0.00154768

>  <SCORE.RESTR.CAVITY>
0.00154768

>  <SCORE.RESTR.norm>
9.67297e-05

>  <SCORE.SYSTEM>
0

>  <SCORE.SYSTEM.CONST>
0

>  <SCORE.SYSTEM.DIHEDRAL>
0

>  <SCORE.SYSTEM.SOLV>
0

>  <SCORE.SYSTEM.norm>
0

>  <SCORE.heavy>
16

>  <SCORE.norm>
-1.42894

>  <RMSD>
1.990

$$$$
1f27 biotin aptamer (Xray 1.3A)
 OpenBabel11021811393D
libRbt.so/2013.1/901 2013/11/27
 16 17  0  0  0  0  0  0  0  0999 V2000
   19.8539   -0.5503   13.6211 C   0  0  0  0  0  0  0  0  0  0  0  0
   18.7773   -1.1377   13.6570 O   0  5  0  0  0  0  0  0  0  0  0  0
   20.7555   -0.9694   12.8972 O   0  0  0  0  0  0  0  0  0  0  0  0
   20.0515    0.7331   14.4176 C   0  0  0  0  0  0  0  0  0  0  0  0
   19.5891    2.0082   13.6778 C   0  0  0  0  0  0  0  0  0  0  0  0
   18.2003    2.4367   14.1141 C   0  0  0  0  0  0  0  0  0  0  0  0
   17.1297    1.4066   13.8203 C   0  0  0  0  0  0  0  0  0  0  0  0
   15.6931    1.8791   14.0799 C   0  0  2  0  0  0  0  0  0  0  0  0
   14.3216    0.5693   13.8174 S   0  0  0  0  0  0  0  0  0  0  0  0
   13.0815    2.0205   13.8532 C   0  0  0  0  0  0  0  0  0  0  0  0
   13.8244    3.2025   13.1646 C   0  0  2  0  0  0  0  0  0  0  0  0
   13.4704    3.0979   11.6570 N   0  0  0  0  0  0  0  0  0  0  0  0
   14.4806    2.9476   10.9153 C   0  0  0  0  0  0  0  0  0  0  0  0
   14.5590    2.6680    9.6666 O   0  0  0  0  0  0  0  0  0  0  0  0
   15.7115    2.7467   11.6449 N   0  0  0  0  0  0  0  0  0  0  0  0
   15.3284    2.9990   13.1028 C   0  0  2  0  0  0  0  0  0  0  0  0
  1  2  1  0  0  0  0
  1  3  2  0  0  0  0
  1  4  1  0  0  0  0
  4  5  1  0  0  0  0
  5  6  1  0  0  0  0
  6  7  1  0  0  0  0
  8  7  1  6  0  0  0
  8  9  1  0  0  0  0
  8 16  1  0  0  0  0
  9 10  1  0  0  0  0
 11 10  1  1  0  0  0
 11 12  1  0  0  0  0
 11 16  1  0  0  0  0
 12 13  1  0  0  0  0
 13 14  2  0  0  0  0
 13 15  1  0  0  0  0
 16 15  1  6  0  0  0
M  CHG  1   2  -1
M  END
>  <CHROM.1>
-85.84216865,98.08765549,-61.67408191,-172.40903974,-176.54060341,16.41573546
1.51859703,13.03651458,-0.41516443,0.22093227,-0.99934284

>  <Name>
1f27 biotin aptamer (Xray 1.3A)

>  <RI>
0

>  <Rbt.Current_Directory>
/home/itssahil/PROJECTS/Mol_Feturizer/New_Systems/rnas/1f27

>  <Rbt.Executable>
rbdock ($Id: //depot/dev/client3/rdock/2013.1/src/exe/rbdock.cxx#4 $)

>  <Rbt.Library>
libRbt.so (2013.1, Build901 2013/11/27)

>  <Rbt.Parameter_File>
/export/apps/rDock/src/rDock_2013.1_src/data/scripts/dock_solv.prm

>  <Rbt.Receptor>
prm/blind_docking_40.prm

>  <SCORE>
-24.6153

>  <SCORE.INTER>
-24.9884

>  <SCORE.INTER.CONST>
1

>  <SCORE.INTER.POLAR>
-1.01562

>  <SCORE.INTER.ROT>
5

>  <SCORE.INTER.SOLV>
10.2445

>  <SCORE.INTER.VDW>
-23.6218

>  <SCORE.INTER.norm>
-1.56178

>  <SCORE.INTRA>
0.373162

>  <SCORE.INTRA.DIHEDRAL>
-1.51844

>  <SCORE.INTRA.DIHEDRAL.0>
6.87082

>  <SCORE.INTRA.POLAR>
0

>  <SCORE.INTRA.POLAR.0>
0

>  <SCORE.INTRA.REPUL>
0

>  <SCORE.INTRA.REPUL.0>
0

>  <SCORE.INTRA.SOLV>
0.998896

>  <SCORE.INTRA.SOLV.lig_0>
-42.5944

>  <SCORE.INTRA.VDW>
0.632932

>  <SCORE.INTRA.VDW.0>
-1.067

>  <SCORE.INTRA.norm>
0.0233226

>  <SCORE.RESTR>
0

>  <SCORE.RESTR.CAVITY>
0

>  <SCORE.RESTR.norm>
0

>  <SCORE.SYSTEM>
0

>  <SCORE.SYSTEM.CONST>
0

>  <SCORE.SYSTEM.DIHEDRAL>
0

>  <SCORE.SYSTEM.SOLV>
0

>  <SCORE.SYSTEM.norm>
0

>  <SCORE.heavy>
16

>  <SCORE.norm>
-1.53846

>  <RMSD>
1.992

$$$$
1f27 biotin aptamer (Xray 1.3A)
 OpenBabel11021811393D
libRbt.so/2013.1/901 2013/11/27
 16 17  0  0  0  0  0  0  0  0999 V2000
   21.4719   -0.6216   16.1141 C   0  0  0  0  0  0  0  0  0  0  0  0
   22.0324   -0.1004   17.0731 O   0  5  0  0  0  0  0  0  0  0  0  0
   21.2131   -1.8237   16.1361 O   0  0  0  0  0  0  0  0  0  0  0  0
   21.0358    0.2294   14.9283 C   0  0  0  0  0  0  0  0  0  0  0  0
   19.5601    0.6828   14.9903 C   0  0  0  0  0  0  0  0  0  0  0  0
   19.2112    1.6139   13.8439 C   0  0  0  0  0  0  0  0  0  0  0  0
   17.9861    2.4643   14.1073 C   0  0  0  0  0  0  0  0  0  0  0  0
   16.6855    1.6752   14.3073 C   0  0  2  0  0  0  0  0  0  0  0  0
   16.2815    0.3742   12.9618 S   0  0  0  0  0  0  0  0  0  0  0  0
   14.5183    0.3272   13.6925 C   0  0  0  0  0  0  0  0  0  0  0  0
   14.2279    1.7899   14.1391 C   0  0  2  0  0  0  0  0  0  0  0  0
   13.5695    2.4787   12.9138 N   0  0  0  0  0  0  0  0  0  0  0  0
   14.2178    3.4766   12.4930 C   0  0  0  0  0  0  0  0  0  0  0  0
   14.0683    4.1740   11.4276 O   0  0  0  0  0  0  0  0  0  0  0  0
   15.4975    3.6523   13.1403 N   0  0  0  0  0  0  0  0  0  0  0  0
   15.4879    2.6273   14.2740 C   0  0  2  0  0  0  0  0  0  0  0  0
  1  2  1  0  0  0  0
  1  3  2  0  0  0  0
  1  4  1  0  0  0  0
  4  5  1  0  0  0  0
  5  6  1  0  0  0  0
  6  7  1  0  0  0  0
  8  7  1  6  0  0  0
  8  9  1  0  0  0  0
  8 16  1  0  0  0  0
  9 10  1  0  0  0  0
 11 10  1  6  0  0  0
 11 12  1  0  0  0  0
 11 16  1  0  0  0  0
 12 13  1  0  0  0  0
 13 14  2  0  0  0  0
 13 15  1  0  0  0  0
 16 15  1  6  0  0  0
M  CHG  1   2  -1
M  END
>  <CHROM.1>
-95.54825406,175.54701776,-159.29325438,-62.32409814,-50.78130113,17.27407869
1.35050714,14.07210608,0.49500268,0.31910754,2.88348451

>  <Name>
1f27 biotin aptamer (Xray 1.3A)

>  <RI>
0

>  <Rbt.Current_Directory>
/home/itssahil/PROJECTS/Mol_Feturizer/New_Systems/rnas/1f27

>  <Rbt.Executable>
rbdock ($Id: //depot/dev/client3/rdock/2013.1/src/exe/rbdock.cxx#4 $)

>  <Rbt.Library>
libRbt.so (2013.1, Build901 2013/11/27)

>  <Rbt.Parameter_File>
/export/apps/rDock/src/rDock_2013.1_src/data/scripts/dock_solv.prm

>  <Rbt.Receptor>
prm/pocket_docking_4.prm

>  <SCORE>
-31.9101

>  <SCORE.INTER>
-29.9559

>  <SCORE.INTER.CONST>
1

>  <SCORE.INTER.POLAR>
-2.55098

>  <SCORE.INTER.ROT>
5

>  <SCORE.INTER.SOLV>
9.92117

>  <SCORE.INTER.VDW>
-21.7077

>  <SCORE.INTER.norm>
-1.87224

>  <SCORE.INTRA>
-1.95688

>  <SCORE.INTRA.DIHEDRAL>
-3.53528

>  <SCORE.INTRA.DIHEDRAL.0>
6.87082

>  <SCORE.INTRA.POLAR>
0

>  <SCORE.INTRA.POLAR.0>
0

>  <SCORE.INTRA.REPUL>
0

>  <SCORE.INTRA.REPUL.0>
0

>  <SCORE.INTRA.SOLV>
-0.781737

>  <SCORE.INTRA.SOLV.lig_0>
-42.5944

>  <SCORE.INTRA.VDW>
0.201623

>  <SCORE.INTRA.VDW.0>
-1.067

>  <SCORE.INTRA.norm>
-0.122305

>  <SCORE.RESTR>
0.002661

>  <SCORE.RESTR.CAVITY>
0.002661

>  <SCORE.RESTR.norm>
0.000166313

>  <SCORE.SYSTEM>
0

>  <SCORE.SYSTEM.CONST>
0

>  <SCORE.SYSTEM.DIHEDRAL>
0

>  <SCORE.SYSTEM.SOLV>
0

>  <SCORE.SYSTEM.norm>
0

>  <SCORE.heavy>
16

>  <SCORE.norm>
-1.99438

>  <RMSD>
1.995

$$$$
1f27 biotin aptamer (Xray 1.3A)
 OpenBabel11021811393D
libRbt.so/2013.1/901 2013/11/27
 16 17  0  0  0  0  0  0  0  0999 V2000
   21.4153   -0.2582   15.5895 C   0  0  0  0  0  0  0  0  0  0  0  0
   21.8492    0.1077   16.6772 O   0  5  0  0  0  0  0  0  0  0  0  0
   20.9011   -1.3699   15.4786 O   0  0  0  0  0  0  0  0  0  0  0  0
   21.4508    0.6867   14.3951 C   0  0  0  0  0  0  0  0  0  0  0  0
   20.3157    1.7348   14.3903 C   0  0  0  0  0  0  0  0  0  0  0  0
   18.9484    1.0798   14.3220 C   0  0  0  0  0  0  0  0  0  0  0  0
   17.8030    2.0705   14.3220 C   0  0  0  0  0  0  0  0  0  0  0  0
   16.4075    1.4411   14.4263 C   0  0  2  0  0  0  0  0  0  0  0  0
   15.9410    0.2069   13.0390 S   0  0  0  0  0  0  0  0  0  0  0  0
   14.1405    0.3660   13.6538 C   0  0  0  0  0  0  0  0  0  0  0  0
   13.9974    1.8498   14.1019 C   0  0  2  0  0  0  0  0  0  0  0  0
   13.5074    2.6206   12.8469 N   0  0  0  0  0  0  0  0  0  0  0  0
   14.2958    3.5367   12.4832 C   0  0  0  0  0  0  0  0  0  0  0  0
   14.3005    4.2540   11.4206 O   0  0  0  0  0  0  0  0  0  0  0  0
   15.5421    3.5539   13.2141 N   0  0  0  0  0  0  0  0  0  0  0  0
   15.3363    2.5297   14.3298 C   0  0  2  0  0  0  0  0  0  0  0  0
  1  2  1  0  0  0  0
  1  3  2  0  0  0  0
  1  4  1  0  0  0  0
  4  5  1  0  0  0  0
  5  6  1  0  0  0  0
  6  7  1  0  0  0  0
  8  7  1  6  0  0  0
  8  9  1  0  0  0  0
  8 16  1  0  0  0  0
  9 10  1  0  0  0  0
 11 10  1  6  0  0  0
 11 12  1  0  0  0  0
 11 16  1  0  0  0  0
 12 13  1  0  0  0  0
 13 14  2  0  0  0  0
 13 15  1  0  0  0  0
 16 15  1  6  0  0  0
M  CHG  1   2  -1
M  END
>  <CHROM.1>
-79.53508439,-61.63769130,179.71042532,-172.89470956,-58.99556603,17.19693476
1.42217352,13.96629031,0.43133772,0.24407015,2.84294066

>  <Name>
1f27 biotin aptamer (Xray 1.3A)

>  <RI>
0

>  <Rbt.Current_Directory>
/home/itssahil/PROJECTS/Mol_Feturizer/New_Systems/rnas/1f27

>  <Rbt.Executable>
rbdock ($Id: //depot/dev/client3/rdock/2013.1/src/exe/rbdock.cxx#4 $)

>  <Rbt.Library>
libRbt.so (2013.1, Build901 2013/11/27)

>  <Rbt.Parameter_File>
/export/apps/rDock/src/rDock_2013.1_src/data/scripts/dock_solv.prm

>  <Rbt.Receptor>
prm/pocket_docking_7.prm

>  <SCORE>
-32.7651

>  <SCORE.INTER>
-30.232

>  <SCORE.INTER.CONST>
1

>  <SCORE.INTER.POLAR>
-2.28587

>  <SCORE.INTER.ROT>
5

>  <SCORE.INTER.SOLV>
10.9678

>  <SCORE.INTER.VDW>
-23.1244

>  <SCORE.INTER.norm>
-1.8895

>  <SCORE.INTRA>
-2.53313

>  <SCORE.INTRA.DIHEDRAL>
-5.3752

>  <SCORE.INTRA.DIHEDRAL.0>
6.87082

>  <SCORE.INTRA.POLAR>
0

>  <SCORE.INTRA.POLAR.0>
0

>  <SCORE.INTRA.REPUL>
0

>  <SCORE.INTRA.REPUL.0>
0

>  <SCORE.INTRA.SOLV>
0.143718

>  <SCORE.INTRA.SOLV.lig_0>
-42.5944

>  <SCORE.INTRA.VDW>
0.0826099

>  <SCORE.INTRA.VDW.0>
-1.067

>  <SCORE.INTRA.norm>
-0.158321

>  <SCORE.RESTR>
0

>  <SCORE.RESTR.CAVITY>
0

>  <SCORE.RESTR.norm>
0

>  <SCORE.SYSTEM>
0

>  <SCORE.SYSTEM.CONST>
0

>  <SCORE.SYSTEM.DIHEDRAL>
0

>  <SCORE.SYSTEM.SOLV>
0

>  <SCORE.SYSTEM.norm>
0

>  <SCORE.heavy>
16

>  <SCORE.norm>
-2.04782

>  <RMSD>
1.995

$$$$
1f27 biotin aptamer (Xray 1.3A)
 OpenBabel11021811393D
libRbt.so/2013.1/901 2013/11/27
 16 17  0  0  0  0  0  0  0  0999 V2000
   21.0951   -0.7095   16.5844 C   0  0  0  0  0  0  0  0  0  0  0  0
   21.7498   -0.1256   17.4421 O   0  5  0  0  0  0  0  0  0  0  0  0
   20.5620   -1.7858   16.8490 O   0  0  0  0  0  0  0  0  0  0  0  0
   20.8851   -0.0719   15.2169 C   0  0  0  0  0  0  0  0  0  0  0  0
   19.5823    0.7505   15.1015 C   0  0  0  0  0  0  0  0  0  0  0  0
   19.4491    1.4008   13.7368 C   0  0  0  0  0  0  0  0  0  0  0  0
   18.2944    2.3761   13.6420 C   0  0  0  0  0  0  0  0  0  0  0  0
   16.9195    1.7799   13.9715 C   0  0  2  0  0  0  0  0  0  0  0  0
   16.5051    0.1143   13.1230 S   0  0  0  0  0  0  0  0  0  0  0  0
   14.6954    0.4235   13.6469 C   0  0  0  0  0  0  0  0  0  0  0  0
   14.5000    1.9635   13.5318 C   0  0  2  0  0  0  0  0  0  0  0  0
   13.9953    2.2144   12.0856 N   0  0  0  0  0  0  0  0  0  0  0  0
   14.7562    2.9643   11.4134 C   0  0  0  0  0  0  0  0  0  0  0  0
   14.7461    3.2512   10.1639 O   0  0  0  0  0  0  0  0  0  0  0  0
   15.9952    3.2849   12.0840 N   0  0  0  0  0  0  0  0  0  0  0  0
   15.8140    2.7244   13.4943 C   0  0  2  0  0  0  0  0  0  0  0  0
  1  2  1  0  0  0  0
  1  3  2  0  0  0  0
  1  4  1  0  0  0  0
  4  5  1  0  0  0  0
  5  6  1  0  0  0  0
  6  7  1  0  0  0  0
  8  7  1  6  0  0  0
  8  9  1  0  0  0  0
  8 16  1  0  0  0  0
  9 10  1  0  0  0  0
 11 10  1  6  0  0  0
 11 12  1  0  0  0  0
 11 16  1  0  0  0  0
 12 13  1  0  0  0  0
 13 14  2  0  0  0  0
 13 15  1  0  0  0  0
 16 15  1  6  0  0  0
M  CHG  1   2  -1
M  END
>  <CHROM.1>
-93.26950482,178.02092838,-171.64119130,-57.39812445,-47.59301803,17.43085385
1.18151273,13.82989670,0.66446650,0.30237660,2.51668377

>  <Name>
1f27 biotin aptamer (Xray 1.3A)

>  <RI>
0

>  <Rbt.Current_Directory>
/home/itssahil/PROJECTS/Mol_Feturizer/New_Systems/rnas/1f27

>  <Rbt.Executable>
rbdock ($Id: //depot/dev/client3/rdock/2013.1/src/exe/rbdock.cxx#4 $)

>  <Rbt.Library>
libRbt.so (2013.1, Build901 2013/11/27)

>  <Rbt.Parameter_File>
/export/apps/rDock/src/rDock_2013.1_src/data/scripts/dock_solv.prm

>  <Rbt.Receptor>
prm/pocket_docking_7.prm

>  <SCORE>
-31.8837

>  <SCORE.INTER>
-29.4781

>  <SCORE.INTER.CONST>
1

>  <SCORE.INTER.POLAR>
-2.35821

>  <SCORE.INTER.ROT>
5

>  <SCORE.INTER.SOLV>
10.4826

>  <SCORE.INTER.VDW>
-22.2189

>  <SCORE.INTER.norm>
-1.84238

>  <SCORE.INTRA>
-2.40568

>  <SCORE.INTRA.DIHEDRAL>
-4.66769

>  <SCORE.INTRA.DIHEDRAL.0>
6.87082

>  <SCORE.INTRA.POLAR>
0

>  <SCORE.INTRA.POLAR.0>
0

>  <SCORE.INTRA.REPUL>
0

>  <SCORE.INTRA.REPUL.0>
0

>  <SCORE.INTRA.SOLV>
-0.767036

>  <SCORE.INTRA.SOLV.lig_0>
-42.5944

>  <SCORE.INTRA.VDW>
0.311685

>  <SCORE.INTRA.VDW.0>
-1.067

>  <SCORE.INTRA.norm>
-0.150355

>  <SCORE.RESTR>
0

>  <SCORE.RESTR.CAVITY>
0

>  <SCORE.RESTR.norm>
0

>  <SCORE.SYSTEM>
0

>  <SCORE.SYSTEM.CONST>
0

>  <SCORE.SYSTEM.DIHEDRAL>
0

>  <SCORE.SYSTEM.SOLV>
0

>  <SCORE.SYSTEM.norm>
0

>  <SCORE.heavy>
16

>  <SCORE.norm>
-1.99273

>  <RMSD>
1.995

$$$$
1f27 biotin aptamer (Xray 1.3A)
 OpenBabel11021811393D
libRbt.so/2013.1/901 2013/11/27
 16 17  0  0  0  0  0  0  0  0999 V2000
   21.0766    0.3718   13.5722 C   0  0  0  0  0  0  0  0  0  0  0  0
   21.6039    1.1796   14.3303 O   0  5  0  0  0  0  0  0  0  0  0  0
   21.6519    0.0380   12.5377 O   0  0  0  0  0  0  0  0  0  0  0  0
   19.7451   -0.2684   13.9432 C   0  0  0  0  0  0  0  0  0  0  0  0
   18.6723    0.7404   14.4103 C   0  0  0  0  0  0  0  0  0  0  0  0
   18.3363    1.7447   13.3233 C   0  0  0  0  0  0  0  0  0  0  0  0
   17.2605    2.7323   13.7244 C   0  0  0  0  0  0  0  0  0  0  0  0
   15.9366    2.0968   14.1692 C   0  0  2  0  0  0  0  0  0  0  0  0
   15.3970    0.5303   13.2096 S   0  0  0  0  0  0  0  0  0  0  0  0
   13.6766    0.7716   14.0015 C   0  0  0  0  0  0  0  0  0  0  0  0
   13.4818    2.3140   14.0800 C   0  0  2  0  0  0  0  0  0  0  0  0
   12.7905    2.7168   12.7500 N   0  0  0  0  0  0  0  0  0  0  0  0
   13.4616    3.5388   12.0664 C   0  0  0  0  0  0  0  0  0  0  0  0
   13.2870    3.9587   10.8677 O   0  0  0  0  0  0  0  0  0  0  0  0
   14.7821    3.7918   12.5955 N   0  0  0  0  0  0  0  0  0  0  0  0
   14.7860    3.0814   13.9488 C   0  0  2  0  0  0  0  0  0  0  0  0
  1  2  1  0  0  0  0
  1  3  2  0  0  0  0
  1  4  1  0  0  0  0
  4  5  1  0  0  0  0
  5  6  1  0  0  0  0
  6  7  1  0  0  0  0
  8  7  1  6  0  0  0
  8  9  1  0  0  0  0
  8 16  1  0  0  0  0
  9 10  1  0  0  0  0
 11 10  1  6  0  0  0
 11 12  1  0  0  0  0
 11 16  1  0  0  0  0
 12 13  1  0  0  0  0
 13 14  2  0  0  0  0
 13 15  1  0  0  0  0
 16 15  1  6  0  0  0
M  CHG  1   2  -1
M  END
>  <CHROM.1>
48.65201731,61.20404841,178.45790065,-56.60351081,-37.32695453,16.57372330
1.73635748,13.30800144,-0.33345818,0.05935744,-0.55767772

>  <Name>
1f27 biotin aptamer (Xray 1.3A)

>  <RI>
0

>  <Rbt.Current_Directory>
/home/itssahil/PROJECTS/Mol_Feturizer/New_Systems/rnas/1f27

>  <Rbt.Executable>
rbdock ($Id: //depot/dev/client3/rdock/2013.1/src/exe/rbdock.cxx#4 $)

>  <Rbt.Library>
libRbt.so (2013.1, Build901 2013/11/27)

>  <Rbt.Parameter_File>
/export/apps/rDock/src/rDock_2013.1_src/data/scripts/dock_solv.prm

>  <Rbt.Receptor>
prm/blind_docking_100.prm

>  <SCORE>
-26.5806

>  <SCORE.INTER>
-25.664

>  <SCORE.INTER.CONST>
1

>  <SCORE.INTER.POLAR>
-1.56625

>  <SCORE.INTER.ROT>
5

>  <SCORE.INTER.SOLV>
14.8751

>  <SCORE.INTER.VDW>
-23.7802

>  <SCORE.INTER.norm>
-1.604

>  <SCORE.INTRA>
-0.972479

>  <SCORE.INTRA.DIHEDRAL>
-3.65782

>  <SCORE.INTRA.DIHEDRAL.0>
6.87082

>  <SCORE.INTRA.POLAR>
0

>  <SCORE.INTRA.POLAR.0>
0

>  <SCORE.INTRA.REPUL>
0

>  <SCORE.INTRA.REPUL.0>
0

>  <SCORE.INTRA.SOLV>
0.281419

>  <SCORE.INTRA.SOLV.lig_0>
-42.5944

>  <SCORE.INTRA.VDW>
0.715723

>  <SCORE.INTRA.VDW.0>
-1.067

>  <SCORE.INTRA.norm>
-0.0607799

>  <SCORE.RESTR>
0.0558315

>  <SCORE.RESTR.CAVITY>
0.0558315

>  <SCORE.RESTR.norm>
0.00348947

>  <SCORE.SYSTEM>
0

>  <SCORE.SYSTEM.CONST>
0

>  <SCORE.SYSTEM.DIHEDRAL>
0

>  <SCORE.SYSTEM.SOLV>
0

>  <SCORE.SYSTEM.norm>
0

>  <SCORE.heavy>
16

>  <SCORE.norm>
-1.66129

>  <RMSD>
2.000

$$$$
1f27 biotin aptamer (Xray 1.3A)
 OpenBabel11021811393D
libRbt.so/2013.1/901 2013/11/27
 16 17  0  0  0  0  0  0  0  0999 V2000
   21.7705    0.0626   15.0782 C   0  0  0  0  0  0  0  0  0  0  0  0
   22.5120    0.6220   15.8798 O   0  5  0  0  0  0  0  0  0  0  0  0
   21.3311   -1.0581   15.3305 O   0  0  0  0  0  0  0  0  0  0  0  0
   21.3395    0.7804   13.8057 C   0  0  0  0  0  0  0  0  0  0  0  0
   20.2230    1.8262   14.0226 C   0  0  0  0  0  0  0  0  0  0  0  0
   18.8774    1.1675   14.2640 C   0  0  0  0  0  0  0  0  0  0  0  0
   17.7279    2.1507   14.3393 C   0  0  0  0  0  0  0  0  0  0  0  0
   16.3379    1.5093   14.4424 C   0  0  2  0  0  0  0  0  0  0  0  0
   15.8974    0.2437   13.0749 S   0  0  0  0  0  0  0  0  0  0  0  0
   14.0895    0.3964   13.6691 C   0  0  0  0  0  0  0  0  0  0  0  0
   13.9271    1.8871   14.0869 C   0  0  2  0  0  0  0  0  0  0  0  0
   13.4418    2.6284   12.8125 N   0  0  0  0  0  0  0  0  0  0  0  0
   14.2246    3.5453   12.4386 C   0  0  0  0  0  0  0  0  0  0  0  0
   14.2326    4.2419   11.3624 O   0  0  0  0  0  0  0  0  0  0  0  0
   15.4634    3.5893   13.1810 N   0  0  0  0  0  0  0  0  0  0  0  0
   15.2569    2.5849   14.3144 C   0  0  2  0  0  0  0  0  0  0  0  0
  1  2  1  0  0  0  0
  1  3  2  0  0  0  0
  1  4  1  0  0  0  0
  4  5  1  0  0  0  0
  5  6  1  0  0  0  0
  6  7  1  0  0  0  0
  8  7  1  6  0  0  0
  8  9  1  0  0  0  0
  8 16  1  0  0  0  0
  9 10  1  0  0  0  0
 11 10  1  6  0  0  0
 11 12  1  0  0  0  0
 11 16  1  0  0  0  0
 12 13  1  0  0  0  0
 13 14  2  0  0  0  0
 13 15  1  0  0  0  0
 16 15  1  6  0  0  0
M  CHG  1   2  -1
M  END
>  <CHROM.1>
-77.76731194,-73.82300517,-174.02381928,174.17975313,-54.57926951,17.22885664
1.53012919,13.81598281,-0.37127569,-0.17656800,-0.32032080

>  <Name>
1f27 biotin aptamer (Xray 1.3A)

>  <RI>
0

>  <Rbt.Current_Directory>
/home/itssahil/PROJECTS/Mol_Feturizer/New_Systems/rnas/1f27

>  <Rbt.Executable>
rbdock ($Id: //depot/dev/client3/rdock/2013.1/src/exe/rbdock.cxx#4 $)

>  <Rbt.Library>
libRbt.so (2013.1, Build901 2013/11/27)

>  <Rbt.Parameter_File>
/export/apps/rDock/src/rDock_2013.1_src/data/scripts/dock_solv.prm

>  <Rbt.Receptor>
prm/pocket_docking_6.prm

>  <SCORE>
-29.6112

>  <SCORE.INTER>
-27.3143

>  <SCORE.INTER.CONST>
1

>  <SCORE.INTER.POLAR>
-1.68016

>  <SCORE.INTER.ROT>
5

>  <SCORE.INTER.SOLV>
11.884

>  <SCORE.INTER.VDW>
-23.5037

>  <SCORE.INTER.norm>
-1.70715

>  <SCORE.INTRA>
-2.29683

>  <SCORE.INTRA.DIHEDRAL>
-4.50883

>  <SCORE.INTRA.DIHEDRAL.0>
6.87082

>  <SCORE.INTRA.POLAR>
0

>  <SCORE.INTRA.POLAR.0>
0

>  <SCORE.INTRA.REPUL>
0

>  <SCORE.INTRA.REPUL.0>
0

>  <SCORE.INTRA.SOLV>
-0.00383744

>  <SCORE.INTRA.SOLV.lig_0>
-42.5944

>  <SCORE.INTRA.VDW>
-0.0404917

>  <SCORE.INTRA.VDW.0>
-1.067

>  <SCORE.INTRA.norm>
-0.143552

>  <SCORE.RESTR>
0

>  <SCORE.RESTR.CAVITY>
0

>  <SCORE.RESTR.norm>
0

>  <SCORE.SYSTEM>
0

>  <SCORE.SYSTEM.CONST>
0

>  <SCORE.SYSTEM.DIHEDRAL>
0

>  <SCORE.SYSTEM.SOLV>
0

>  <SCORE.SYSTEM.norm>
0

>  <SCORE.heavy>
16

>  <SCORE.norm>
-1.8507

>  <RMSD>
2.003

$$$$
1f27 biotin aptamer (Xray 1.3A)
 OpenBabel11021811393D
libRbt.so/2013.1/901 2013/11/27
 16 17  0  0  0  0  0  0  0  0999 V2000
   21.4877   -0.0996   14.7234 C   0  0  0  0  0  0  0  0  0  0  0  0
   21.2476   -1.2992   14.8166 O   0  5  0  0  0  0  0  0  0  0  0  0
   22.0757    0.4792   15.6354 O   0  0  0  0  0  0  0  0  0  0  0  0
   21.1203    0.6572   13.4534 C   0  0  0  0  0  0  0  0  0  0  0  0
   20.0243    1.7272   13.6554 C   0  0  0  0  0  0  0  0  0  0  0  0
   18.7258    1.1138   14.1459 C   0  0  0  0  0  0  0  0  0  0  0  0
   17.6100    2.1223   14.3235 C   0  0  0  0  0  0  0  0  0  0  0  0
   16.2086    1.5136   14.4650 C   0  0  2  0  0  0  0  0  0  0  0  0
   15.6985    0.2643   13.1067 S   0  0  0  0  0  0  0  0  0  0  0  0
   13.9128    0.4574   13.7540 C   0  0  0  0  0  0  0  0  0  0  0  0
   13.7982    1.9499   14.1813 C   0  0  2  0  0  0  0  0  0  0  0  0
   13.2938    2.7076   12.9240 N   0  0  0  0  0  0  0  0  0  0  0  0
   14.0870    3.6071   12.5305 C   0  0  0  0  0  0  0  0  0  0  0  0
   14.0803    4.3077   11.4568 O   0  0  0  0  0  0  0  0  0  0  0  0
   15.3476    3.6187   13.2365 N   0  0  0  0  0  0  0  0  0  0  0  0
   15.1503    2.6150   14.3722 C   0  0  2  0  0  0  0  0  0  0  0  0
  1  2  1  0  0  0  0
  1  3  2  0  0  0  0
  1  4  1  0  0  0  0
  4  5  1  0  0  0  0
  5  6  1  0  0  0  0
  6  7  1  0  0  0  0
  8  7  1  6  0  0  0
  8  9  1  0  0  0  0
  8 16  1  0  0  0  0
  9 10  1  0  0  0  0
 11 10  1  6  0  0  0
 11 12  1  0  0  0  0
 11 16  1  0  0  0  0
 12 13  1  0  0  0  0
 13 14  2  0  0  0  0
 13 15  1  0  0  0  0
 16 15  1  6  0  0  0
M  CHG  1   2  -1
M  END
>  <CHROM.1>
114.24353695,-60.82991260,-178.48186061,165.06430364,-51.83240609,17.05200695
1.50485909,13.73889940,-0.38992129,-0.11200897,-0.31445043

>  <Name>
1f27 biotin aptamer (Xray 1.3A)

>  <RI>
0

>  <Rbt.Current_Directory>
/home/itssahil/PROJECTS/Mol_Feturizer/New_Systems/rnas/1f27

>  <Rbt.Executable>
rbdock ($Id: //depot/dev/client3/rdock/2013.1/src/exe/rbdock.cxx#4 $)

>  <Rbt.Library>
libRbt.so (2013.1, Build901 2013/11/27)

>  <Rbt.Parameter_File>
/export/apps/rDock/src/rDock_2013.1_src/data/scripts/dock_solv.prm

>  <Rbt.Receptor>
prm/pocket_docking_3.prm

>  <SCORE>
-28.9274

>  <SCORE.INTER>
-26.9507

>  <SCORE.INTER.CONST>
1

>  <SCORE.INTER.POLAR>
-1.55367

>  <SCORE.INTER.ROT>
5

>  <SCORE.INTER.SOLV>
11.43

>  <SCORE.INTER.VDW>
-23.5316

>  <SCORE.INTER.norm>
-1.68442

>  <SCORE.INTRA>
-1.9767

>  <SCORE.INTRA.DIHEDRAL>
-4.29206

>  <SCORE.INTRA.DIHEDRAL.0>
6.87082

>  <SCORE.INTRA.POLAR>
0

>  <SCORE.INTRA.POLAR.0>
0

>  <SCORE.INTRA.REPUL>
0

>  <SCORE.INTRA.REPUL.0>
0

>  <SCORE.INTRA.SOLV>
0.107962

>  <SCORE.INTRA.SOLV.lig_0>
-42.5944

>  <SCORE.INTRA.VDW>
0.115352

>  <SCORE.INTRA.VDW.0>
-1.067

>  <SCORE.INTRA.norm>
-0.123544

>  <SCORE.RESTR>
0

>  <SCORE.RESTR.CAVITY>
0

>  <SCORE.RESTR.norm>
0

>  <SCORE.SYSTEM>
0

>  <SCORE.SYSTEM.CONST>
0

>  <SCORE.SYSTEM.DIHEDRAL>
0

>  <SCORE.SYSTEM.SOLV>
0

>  <SCORE.SYSTEM.norm>
0

>  <SCORE.heavy>
16

>  <SCORE.norm>
-1.80796

>  <RMSD>
2.011

$$$$
1f27 biotin aptamer (Xray 1.3A)
 OpenBabel11021811393D
libRbt.so/2013.1/901 2013/11/27
 16 17  0  0  0  0  0  0  0  0999 V2000
   21.4077   -0.2360   15.5977 C   0  0  0  0  0  0  0  0  0  0  0  0
   21.8568    0.1486   16.6728 O   0  5  0  0  0  0  0  0  0  0  0  0
   20.8736   -1.3409   15.5180 O   0  0  0  0  0  0  0  0  0  0  0  0
   21.4495    0.6789   14.3805 C   0  0  0  0  0  0  0  0  0  0  0  0
   20.3157    1.7278   14.3446 C   0  0  0  0  0  0  0  0  0  0  0  0
   18.9464    1.0738   14.3634 C   0  0  0  0  0  0  0  0  0  0  0  0
   17.8024    2.0662   14.3591 C   0  0  0  0  0  0  0  0  0  0  0  0
   16.4066    1.4400   14.4764 C   0  0  2  0  0  0  0  0  0  0  0  0
   15.9299    0.1957   13.1015 S   0  0  0  0  0  0  0  0  0  0  0  0
   14.1334    0.3627   13.7255 C   0  0  0  0  0  0  0  0  0  0  0  0
   13.9952    1.8503   14.1629 C   0  0  2  0  0  0  0  0  0  0  0  0
   13.4992    2.6121   12.9048 N   0  0  0  0  0  0  0  0  0  0  0  0
   14.2871    3.5239   12.5293 C   0  0  0  0  0  0  0  0  0  0  0  0
   14.2868    4.2330   11.4611 O   0  0  0  0  0  0  0  0  0  0  0  0
   15.5376    3.5447   13.2528 N   0  0  0  0  0  0  0  0  0  0  0  0
   15.3366    2.5297   14.3777 C   0  0  2  0  0  0  0  0  0  0  0  0
  1  2  1  0  0  0  0
  1  3  2  0  0  0  0
  1  4  1  0  0  0  0
  4  5  1  0  0  0  0
  5  6  1  0  0  0  0
  6  7  1  0  0  0  0
  8  7  1  6  0  0  0
  8  9  1  0  0  0  0
  8 16  1  0  0  0  0
  9 10  1  0  0  0  0
 11 10  1  6  0  0  0
 11 12  1  0  0  0  0
 11 16  1  0  0  0  0
 12 13  1  0  0  0  0
 13 14  2  0  0  0  0
 13 15  1  0  0  0  0
 16 15  1  6  0  0  0
M  CHG  1   2  -1
M  END
>  <CHROM.1>
-80.69830355,-58.52200912,178.77279265,-175.93552182,-59.12657536,17.19087502
1.42159277,14.00182474,0.42981509,0.23212728,2.82853413

>  <Name>
1f27 biotin aptamer (Xray 1.3A)

>  <RI>
0

>  <Rbt.Current_Directory>
/home/itssahil/PROJECTS/Mol_Feturizer/New_Systems/rnas/1f27

>  <Rbt.Executable>
rbdock ($Id: //depot/dev/client3/rdock/2013.1/src/exe/rbdock.cxx#4 $)

>  <Rbt.Library>
libRbt.so (2013.1, Build901 2013/11/27)

>  <Rbt.Parameter_File>
/export/apps/rDock/src/rDock_2013.1_src/data/scripts/dock_solv.prm

>  <Rbt.Receptor>
prm/pocket_docking_6.prm

>  <SCORE>
-32.6642

>  <SCORE.INTER>
-30.1358

>  <SCORE.INTER.CONST>
1

>  <SCORE.INTER.POLAR>
-2.27399

>  <SCORE.INTER.ROT>
5

>  <SCORE.INTER.SOLV>
11.1549

>  <SCORE.INTER.VDW>
-23.1622

>  <SCORE.INTER.norm>
-1.88349

>  <SCORE.INTRA>
-2.52838

>  <SCORE.INTRA.DIHEDRAL>
-5.51525

>  <SCORE.INTRA.DIHEDRAL.0>
6.87082

>  <SCORE.INTRA.POLAR>
0

>  <SCORE.INTRA.POLAR.0>
0

>  <SCORE.INTRA.REPUL>
0

>  <SCORE.INTRA.REPUL.0>
0

>  <SCORE.INTRA.SOLV>
0.198068

>  <SCORE.INTRA.SOLV.lig_0>
-42.5944

>  <SCORE.INTRA.VDW>
0.130212

>  <SCORE.INTRA.VDW.0>
-1.067

>  <SCORE.INTRA.norm>
-0.158024

>  <SCORE.RESTR>
0

>  <SCORE.RESTR.CAVITY>
0

>  <SCORE.RESTR.norm>
0

>  <SCORE.SYSTEM>
0

>  <SCORE.SYSTEM.CONST>
0

>  <SCORE.SYSTEM.DIHEDRAL>
0

>  <SCORE.SYSTEM.SOLV>
0

>  <SCORE.SYSTEM.norm>
0

>  <SCORE.heavy>
16

>  <SCORE.norm>
-2.04151

>  <RMSD>
2.014

$$$$
1f27 biotin aptamer (Xray 1.3A)
 OpenBabel11021811393D
libRbt.so/2013.1/901 2013/11/27
 16 17  0  0  0  0  0  0  0  0999 V2000
   20.7070   -0.8057   15.8033 C   0  0  0  0  0  0  0  0  0  0  0  0
   21.8948   -1.0591   15.9776 O   0  5  0  0  0  0  0  0  0  0  0  0
   19.8820   -1.1227   16.6584 O   0  0  0  0  0  0  0  0  0  0  0  0
   20.2626   -0.0398   14.5638 C   0  0  0  0  0  0  0  0  0  0  0  0
   19.1003    0.9457   14.8183 C   0  0  0  0  0  0  0  0  0  0  0  0
   18.6986    1.6778   13.5512 C   0  0  0  0  0  0  0  0  0  0  0  0
   17.5519    2.6468   13.7506 C   0  0  0  0  0  0  0  0  0  0  0  0
   16.2400    2.0039   14.2195 C   0  0  2  0  0  0  0  0  0  0  0  0
   15.6346    0.5002   13.2006 S   0  0  0  0  0  0  0  0  0  0  0  0
   13.9552    0.7182   14.0822 C   0  0  0  0  0  0  0  0  0  0  0  0
   13.7871    2.2561   14.2546 C   0  0  2  0  0  0  0  0  0  0  0  0
   13.0429    2.7411   12.9817 N   0  0  0  0  0  0  0  0  0  0  0  0
   13.6948    3.5915   12.3147 C   0  0  0  0  0  0  0  0  0  0  0  0
   13.4730    4.0798   11.1502 O   0  0  0  0  0  0  0  0  0  0  0  0
   15.0414    3.7982   12.7962 N   0  0  0  0  0  0  0  0  0  0  0  0
   15.0954    3.0135   14.1066 C   0  0  2  0  0  0  0  0  0  0  0  0
  1  2  1  0  0  0  0
  1  3  2  0  0  0  0
  1  4  1  0  0  0  0
  4  5  1  0  0  0  0
  5  6  1  0  0  0  0
  6  7  1  0  0  0  0
  8  7  1  6  0  0  0
  8  9  1  0  0  0  0
  8 16  1  0  0  0  0
  9 10  1  0  0  0  0
 11 10  1  6  0  0  0
 11 12  1  0  0  0  0
 11 16  1  0  0  0  0
 12 13  1  0  0  0  0
 13 14  2  0  0  0  0
 13 15  1  0  0  0  0
 16 15  1  6  0  0  0
M  CHG  1   2  -1
M  END
>  <CHROM.1>
-143.19217839,-179.91575127,179.45916249,-61.39822168,-50.77125340,16.70208751
1.46480669,13.95294687,0.59415879,0.08634967,2.57901614

>  <Name>
1f27 biotin aptamer (Xray 1.3A)

>  <RI>
0

>  <Rbt.Current_Directory>
/home/itssahil/PROJECTS/Mol_Feturizer/New_Systems/rnas/1f27

>  <Rbt.Executable>
rbdock ($Id: //depot/dev/client3/rdock/2013.1/src/exe/rbdock.cxx#4 $)

>  <Rbt.Library>
libRbt.so (2013.1, Build901 2013/11/27)

>  <Rbt.Parameter_File>
/export/apps/rDock/src/rDock_2013.1_src/data/scripts/dock_solv.prm

>  <Rbt.Receptor>
prm/pocket_docking_4.prm

>  <SCORE>
-25.452

>  <SCORE.INTER>
-23.1068

>  <SCORE.INTER.CONST>
1

>  <SCORE.INTER.POLAR>
-0.848528

>  <SCORE.INTER.ROT>
5

>  <SCORE.INTER.SOLV>
9.94836

>  <SCORE.INTER.VDW>
-22.8255

>  <SCORE.INTER.norm>
-1.44417

>  <SCORE.INTRA>
-2.34519

>  <SCORE.INTRA.DIHEDRAL>
-5.04857

>  <SCORE.INTRA.DIHEDRAL.0>
6.87082

>  <SCORE.INTRA.POLAR>
0

>  <SCORE.INTRA.POLAR.0>
0

>  <SCORE.INTRA.REPUL>
0

>  <SCORE.INTRA.REPUL.0>
0

>  <SCORE.INTRA.SOLV>
-0.736064

>  <SCORE.INTRA.SOLV.lig_0>
-42.5944

>  <SCORE.INTRA.VDW>
0.547123

>  <SCORE.INTRA.VDW.0>
-1.067

>  <SCORE.INTRA.norm>
-0.146575

>  <SCORE.RESTR>
0

>  <SCORE.RESTR.CAVITY>
0

>  <SCORE.RESTR.norm>
0

>  <SCORE.SYSTEM>
0

>  <SCORE.SYSTEM.CONST>
0

>  <SCORE.SYSTEM.DIHEDRAL>
0

>  <SCORE.SYSTEM.SOLV>
0

>  <SCORE.SYSTEM.norm>
0

>  <SCORE.heavy>
16

>  <SCORE.norm>
-1.59075

>  <RMSD>
2.015

$$$$
1f27 biotin aptamer (Xray 1.3A)
 OpenBabel11021811393D
libRbt.so/2013.1/901 2013/11/27
 16 17  0  0  0  0  0  0  0  0999 V2000
   21.2946    0.0179   13.8095 C   0  0  0  0  0  0  0  0  0  0  0  0
   22.0811   -0.0282   14.7501 O   0  5  0  0  0  0  0  0  0  0  0  0
   21.7151   -0.0576   12.6563 O   0  0  0  0  0  0  0  0  0  0  0  0
   19.7958    0.0994   14.0695 C   0  0  0  0  0  0  0  0  0  0  0  0
   19.2066    1.5180   13.9045 C   0  0  0  0  0  0  0  0  0  0  0  0
   17.7394    1.5637   14.2895 C   0  0  0  0  0  0  0  0  0  0  0  0
   17.0371    2.8299   13.8454 C   0  0  0  0  0  0  0  0  0  0  0  0
   15.5208    2.8411   14.0801 C   0  0  2  0  0  0  0  0  0  0  0  0
   14.6724    1.1261   14.1484 S   0  0  0  0  0  0  0  0  0  0  0  0
   13.0174    2.0594   13.9626 C   0  0  0  0  0  0  0  0  0  0  0  0
   13.3336    3.2569   13.0196 C   0  0  2  0  0  0  0  0  0  0  0  0
   13.0625    2.7399   11.5814 N   0  0  0  0  0  0  0  0  0  0  0  0
   14.0780    2.7873   10.8332 C   0  0  0  0  0  0  0  0  0  0  0  0
   14.2681    2.3044    9.6609 O   0  0  0  0  0  0  0  0  0  0  0  0
   15.2915    3.1571   11.5247 N   0  0  0  0  0  0  0  0  0  0  0  0
   14.8196    3.5558   12.9227 C   0  0  2  0  0  0  0  0  0  0  0  0
  1  2  1  0  0  0  0
  1  3  2  0  0  0  0
  1  4  1  0  0  0  0
  4  5  1  0  0  0  0
  5  6  1  0  0  0  0
  6  7  1  0  0  0  0
  8  7  1  6  0  0  0
  8  9  1  0  0  0  0
  8 16  1  0  0  0  0
  9 10  1  0  0  0  0
 11 10  1  1  0  0  0
 11 12  1  0  0  0  0
 11 16  1  0  0  0  0
 12 13  1  0  0  0  0
 13 14  2  0  0  0  0
 13 15  1  0  0  0  0
 16 15  1  6  0  0  0
M  CHG  1   2  -1
M  END
>  <CHROM.1>
101.45894073,-175.12711583,-166.47274178,173.52223960,-25.48811302,16.58860373
1.77694818,13.12269956,-0.26758020,0.27967725,-1.40486095

>  <Name>
1f27 biotin aptamer (Xray 1.3A)

>  <RI>
0

>  <Rbt.Current_Directory>
/home/itssahil/PROJECTS/Mol_Feturizer/New_Systems/rnas/1f27

>  <Rbt.Executable>
rbdock ($Id: //depot/dev/client3/rdock/2013.1/src/exe/rbdock.cxx#4 $)

>  <Rbt.Library>
libRbt.so (2013.1, Build901 2013/11/27)

>  <Rbt.Parameter_File>
/export/apps/rDock/src/rDock_2013.1_src/data/scripts/dock_solv.prm

>  <Rbt.Receptor>
prm/blind_docking_40.prm

>  <SCORE>
-28.1295

>  <SCORE.INTER>
-27.7585

>  <SCORE.INTER.CONST>
1

>  <SCORE.INTER.POLAR>
-2.23869

>  <SCORE.INTER.ROT>
5

>  <SCORE.INTER.SOLV>
12.9138

>  <SCORE.INTER.VDW>
-22.2813

>  <SCORE.INTER.norm>
-1.73491

>  <SCORE.INTRA>
-0.37756

>  <SCORE.INTRA.DIHEDRAL>
-0.787028

>  <SCORE.INTRA.DIHEDRAL.0>
6.87082

>  <SCORE.INTRA.POLAR>
0

>  <SCORE.INTRA.POLAR.0>
0

>  <SCORE.INTRA.REPUL>
0

>  <SCORE.INTRA.REPUL.0>
0

>  <SCORE.INTRA.SOLV>
-0.782655

>  <SCORE.INTRA.SOLV.lig_0>
-42.5944

>  <SCORE.INTRA.VDW>
0.407281

>  <SCORE.INTRA.VDW.0>
-1.067

>  <SCORE.INTRA.norm>
-0.0235975

>  <SCORE.RESTR>
0.00662001

>  <SCORE.RESTR.CAVITY>
0.00662001

>  <SCORE.RESTR.norm>
0.000413751

>  <SCORE.SYSTEM>
0

>  <SCORE.SYSTEM.CONST>
0

>  <SCORE.SYSTEM.DIHEDRAL>
0

>  <SCORE.SYSTEM.SOLV>
0

>  <SCORE.SYSTEM.norm>
0

>  <SCORE.heavy>
16

>  <SCORE.norm>
-1.75809

>  <RMSD>
2.017

$$$$
1f27 biotin aptamer (Xray 1.3A)
 OpenBabel11021811393D
libRbt.so/2013.1/901 2013/11/27
 16 17  0  0  0  0  0  0  0  0999 V2000
   21.5017   -0.0675   15.7113 C   0  0  0  0  0  0  0  0  0  0  0  0
   20.8320   -0.8331   16.3974 O   0  5  0  0  0  0  0  0  0  0  0  0
   22.4834    0.4907   16.1985 O   0  0  0  0  0  0  0  0  0  0  0  0
   21.1601    0.1392   14.2413 C   0  0  0  0  0  0  0  0  0  0  0  0
   20.2303    1.3444   13.9766 C   0  0  0  0  0  0  0  0  0  0  0  0
   18.7938    1.0385   14.3585 C   0  0  0  0  0  0  0  0  0  0  0  0
   17.8227    2.1411   13.9910 C   0  0  0  0  0  0  0  0  0  0  0  0
   16.3439    1.7961   14.2109 C   0  0  2  0  0  0  0  0  0  0  0  0
   15.7776    0.0877   13.5578 S   0  0  0  0  0  0  0  0  0  0  0  0
   13.9893    0.7178   13.7810 C   0  0  0  0  0  0  0  0  0  0  0  0
   14.0478    2.2318   13.4239 C   0  0  2  0  0  0  0  0  0  0  0  0
   13.7564    2.3143   11.9016 N   0  0  0  0  0  0  0  0  0  0  0  0
   14.6955    2.8376   11.2403 C   0  0  0  0  0  0  0  0  0  0  0  0
   14.8726    2.9200    9.9732 O   0  0  0  0  0  0  0  0  0  0  0  0
   15.8843    3.0912   12.0215 N   0  0  0  0  0  0  0  0  0  0  0  0
   15.4589    2.7926   13.4588 C   0  0  2  0  0  0  0  0  0  0  0  0
  1  2  1  0  0  0  0
  1  3  2  0  0  0  0
  1  4  1  0  0  0  0
  4  5  1  0  0  0  0
  5  6  1  0  0  0  0
  6  7  1  0  0  0  0
  8  7  1  6  0  0  0
  8  9  1  0  0  0  0
  8 16  1  0  0  0  0
  9 10  1  0  0  0  0
 11 10  1  6  0  0  0
 11 12  1  0  0  0  0
 11 16  1  0  0  0  0
 12 13  1  0  0  0  0
 13 14  2  0  0  0  0
 13 15  1  0  0  0  0
 16 15  1  6  0  0  0
M  CHG  1   2  -1
M  END
>  <CHROM.1>
93.64524054,-75.82821329,-174.33855505,173.09389603,-46.66633015,17.27876049
1.32640967,13.64398382,-0.52932352,-0.10593620,-0.84496671

>  <Name>
1f27 biotin aptamer (Xray 1.3A)

>  <RI>
0

>  <Rbt.Current_Directory>
/home/itssahil/PROJECTS/Mol_Feturizer/New_Systems/rnas/1f27

>  <Rbt.Executable>
rbdock ($Id: //depot/dev/client3/rdock/2013.1/src/exe/rbdock.cxx#4 $)

>  <Rbt.Library>
libRbt.so (2013.1, Build901 2013/11/27)

>  <Rbt.Parameter_File>
/export/apps/rDock/src/rDock_2013.1_src/data/scripts/dock_solv.prm

>  <Rbt.Receptor>
prm/pocket_docking_5.prm

>  <SCORE>
-30.4093

>  <SCORE.INTER>
-28.6469

>  <SCORE.INTER.CONST>
1

>  <SCORE.INTER.POLAR>
-1.8669

>  <SCORE.INTER.ROT>
5

>  <SCORE.INTER.SOLV>
12.5687

>  <SCORE.INTER.VDW>
-23.9978

>  <SCORE.INTER.norm>
-1.79043

>  <SCORE.INTRA>
-1.76238

>  <SCORE.INTRA.DIHEDRAL>
-3.49915

>  <SCORE.INTRA.DIHEDRAL.0>
6.87082

>  <SCORE.INTRA.POLAR>
0

>  <SCORE.INTRA.POLAR.0>
0

>  <SCORE.INTRA.REPUL>
0

>  <SCORE.INTRA.REPUL.0>
0

>  <SCORE.INTRA.SOLV>
-0.0541271

>  <SCORE.INTRA.SOLV.lig_0>
-42.5944

>  <SCORE.INTRA.VDW>
0.0142602

>  <SCORE.INTRA.VDW.0>
-1.067

>  <SCORE.INTRA.norm>
-0.110149

>  <SCORE.RESTR>
0

>  <SCORE.RESTR.CAVITY>
0

>  <SCORE.RESTR.norm>
0

>  <SCORE.SYSTEM>
0

>  <SCORE.SYSTEM.CONST>
0

>  <SCORE.SYSTEM.DIHEDRAL>
0

>  <SCORE.SYSTEM.SOLV>
0

>  <SCORE.SYSTEM.norm>
0

>  <SCORE.heavy>
16

>  <SCORE.norm>
-1.90058

>  <RMSD>
2.018

$$$$
1f27 biotin aptamer (Xray 1.3A)
 OpenBabel11021811393D
libRbt.so/2013.1/901 2013/11/27
 16 17  0  0  0  0  0  0  0  0999 V2000
   20.3901    0.2928   14.5179 C   0  0  0  0  0  0  0  0  0  0  0  0
   20.6786   -0.0460   15.6613 O   0  5  0  0  0  0  0  0  0  0  0  0
   20.0335   -0.5541   13.7005 O   0  0  0  0  0  0  0  0  0  0  0  0
   20.4070    1.7657   14.1297 C   0  0  0  0  0  0  0  0  0  0  0  0
   19.6133    2.0847   12.8431 C   0  0  0  0  0  0  0  0  0  0  0  0
   18.1581    1.6723   12.9655 C   0  0  0  0  0  0  0  0  0  0  0  0
   17.4619    2.2633   14.1737 C   0  0  0  0  0  0  0  0  0  0  0  0
   15.9697    1.9245   14.2866 C   0  0  2  0  0  0  0  0  0  0  0  0
   15.4528    0.1984   13.6391 S   0  0  0  0  0  0  0  0  0  0  0  0
   13.6538    0.8342   13.7037 C   0  0  0  0  0  0  0  0  0  0  0  0
   13.7432    2.3376   13.3101 C   0  0  2  0  0  0  0  0  0  0  0  0
   13.5722    2.3773   11.7679 N   0  0  0  0  0  0  0  0  0  0  0  0
   14.5614    2.8819   11.1678 C   0  0  0  0  0  0  0  0  0  0  0  0
   14.8374    2.9287    9.9167 O   0  0  0  0  0  0  0  0  0  0  0  0
   15.6858    3.1575   12.0324 N   0  0  0  0  0  0  0  0  0  0  0  0
   15.1484    2.8994   13.4397 C   0  0  2  0  0  0  0  0  0  0  0  0
  1  2  1  0  0  0  0
  1  3  2  0  0  0  0
  1  4  1  0  0  0  0
  4  5  1  0  0  0  0
  5  6  1  0  0  0  0
  6  7  1  0  0  0  0
  8  7  1  6  0  0  0
  8  9  1  0  0  0  0
  8 16  1  0  0  0  0
  9 10  1  0  0  0  0
 11 10  1  6  0  0  0
 11 12  1  0  0  0  0
 11 16  1  0  0  0  0
 12 13  1  0  0  0  0
 13 14  2  0  0  0  0
 13 15  1  0  0  0  0
 16 15  1  6  0  0  0
M  CHG  1   2  -1
M  END
>  <CHROM.1>
-161.61039448,58.48108230,54.47952771,176.97153474,33.52307219,16.76888129
1.55744714,13.21915625,0.45197836,0.03192419,2.28660482

>  <Name>
1f27 biotin aptamer (Xray 1.3A)

>  <RI>
0

>  <Rbt.Current_Directory>
/home/itssahil/PROJECTS/Mol_Feturizer/New_Systems/rnas/1f27

>  <Rbt.Executable>
rbdock ($Id: //depot/dev/client3/rdock/2013.1/src/exe/rbdock.cxx#4 $)

>  <Rbt.Library>
libRbt.so (2013.1, Build901 2013/11/27)

>  <Rbt.Parameter_File>
/export/apps/rDock/src/rDock_2013.1_src/data/scripts/dock_solv.prm

>  <Rbt.Receptor>
prm/blind_docking_100.prm

>  <SCORE>
-29.9598

>  <SCORE.INTER>
-31.107

>  <SCORE.INTER.CONST>
1

>  <SCORE.INTER.POLAR>
-1.86315

>  <SCORE.INTER.ROT>
5

>  <SCORE.INTER.SOLV>
10.5458

>  <SCORE.INTER.VDW>
-24.9761

>  <SCORE.INTER.norm>
-1.94419

>  <SCORE.INTRA>
1.14721

>  <SCORE.INTRA.DIHEDRAL>
-2.88578

>  <SCORE.INTRA.DIHEDRAL.0>
6.87082

>  <SCORE.INTRA.POLAR>
0

>  <SCORE.INTRA.POLAR.0>
0

>  <SCORE.INTRA.REPUL>
0

>  <SCORE.INTRA.REPUL.0>
0

>  <SCORE.INTRA.SOLV>
1.38315

>  <SCORE.INTRA.SOLV.lig_0>
-42.5944

>  <SCORE.INTRA.VDW>
1.89852

>  <SCORE.INTRA.VDW.0>
-1.067

>  <SCORE.INTRA.norm>
0.0717004

>  <SCORE.RESTR>
0

>  <SCORE.RESTR.CAVITY>
0

>  <SCORE.RESTR.norm>
0

>  <SCORE.SYSTEM>
0

>  <SCORE.SYSTEM.CONST>
0

>  <SCORE.SYSTEM.DIHEDRAL>
0

>  <SCORE.SYSTEM.SOLV>
0

>  <SCORE.SYSTEM.norm>
0

>  <SCORE.heavy>
16

>  <SCORE.norm>
-1.87249

>  <RMSD>
2.019

$$$$
1f27 biotin aptamer (Xray 1.3A)
 OpenBabel11021811393D
libRbt.so/2013.1/901 2013/11/27
 16 17  0  0  0  0  0  0  0  0999 V2000
   21.0918    0.1521   13.8753 C   0  0  0  0  0  0  0  0  0  0  0  0
   21.6807   -0.5331   13.0453 O   0  5  0  0  0  0  0  0  0  0  0  0
   21.2875   -0.0371   15.0747 O   0  0  0  0  0  0  0  0  0  0  0  0
   20.1729    1.2796   13.4226 C   0  0  0  0  0  0  0  0  0  0  0  0
   18.8343    0.7953   12.8220 C   0  0  0  0  0  0  0  0  0  0  0  0
   17.9119    1.9565   12.4999 C   0  0  0  0  0  0  0  0  0  0  0  0
   17.4206    2.6965   13.7266 C   0  0  0  0  0  0  0  0  0  0  0  0
   15.9393    2.4768   14.0606 C   0  0  2  0  0  0  0  0  0  0  0  0
   15.3090    0.6742   13.9214 S   0  0  0  0  0  0  0  0  0  0  0  0
   13.5453    1.4017   13.9916 C   0  0  0  0  0  0  0  0  0  0  0  0
   13.6359    2.7531   13.2244 C   0  0  2  0  0  0  0  0  0  0  0  0
   13.3064    2.4176   11.7452 N   0  0  0  0  0  0  0  0  0  0  0  0
   14.2416    2.7036   10.9473 C   0  0  0  0  0  0  0  0  0  0  0  0
   14.3871    2.4233    9.7047 O   0  0  0  0  0  0  0  0  0  0  0  0
   15.4573    3.1246   11.6050 N   0  0  0  0  0  0  0  0  0  0  0  0
   15.0623    3.2533   13.0758 C   0  0  2  0  0  0  0  0  0  0  0  0
  1  2  1  0  0  0  0
  1  3  2  0  0  0  0
  1  4  1  0  0  0  0
  4  5  1  0  0  0  0
  5  6  1  0  0  0  0
  6  7  1  0  0  0  0
  8  7  1  6  0  0  0
  8  9  1  0  0  0  0
  8 16  1  0  0  0  0
  9 10  1  0  0  0  0
 11 10  1  1  0  0  0
 11 12  1  0  0  0  0
 11 16  1  0  0  0  0
 12 13  1  0  0  0  0
 13 14  2  0  0  0  0
 13 15  1  0  0  0  0
 16 15  1  6  0  0  0
M  CHG  1   2  -1
M  END
>  <CHROM.1>
73.38690924,175.07626115,-66.89441783,-108.46729255,43.18803055,16.76347509
1.61520208,12.97641237,-0.32122268,0.21676154,-1.23212167

>  <Name>
1f27 biotin aptamer (Xray 1.3A)

>  <RI>
0

>  <Rbt.Current_Directory>
/home/itssahil/PROJECTS/Mol_Feturizer/New_Systems/rnas/1f27

>  <Rbt.Executable>
rbdock ($Id: //depot/dev/client3/rdock/2013.1/src/exe/rbdock.cxx#4 $)

>  <Rbt.Library>
libRbt.so (2013.1, Build901 2013/11/27)

>  <Rbt.Parameter_File>
/export/apps/rDock/src/rDock_2013.1_src/data/scripts/dock_solv.prm

>  <Rbt.Receptor>
prm/blind_docking_40.prm

>  <SCORE>
-25.2788

>  <SCORE.INTER>
-27.0249

>  <SCORE.INTER.CONST>
1

>  <SCORE.INTER.POLAR>
-1.48559

>  <SCORE.INTER.ROT>
5

>  <SCORE.INTER.SOLV>
11.4915

>  <SCORE.INTER.VDW>
-23.8285

>  <SCORE.INTER.norm>
-1.68905

>  <SCORE.INTRA>
1.74604

>  <SCORE.INTRA.DIHEDRAL>
1.4645

>  <SCORE.INTRA.DIHEDRAL.0>
6.87082

>  <SCORE.INTRA.POLAR>
0

>  <SCORE.INTRA.POLAR.0>
0

>  <SCORE.INTRA.REPUL>
0

>  <SCORE.INTRA.REPUL.0>
0

>  <SCORE.INTRA.SOLV>
-0.31602

>  <SCORE.INTRA.SOLV.lig_0>
-42.5944

>  <SCORE.INTRA.VDW>
1.1718

>  <SCORE.INTRA.VDW.0>
-1.067

>  <SCORE.INTRA.norm>
0.109127

>  <SCORE.RESTR>
0

>  <SCORE.RESTR.CAVITY>
0

>  <SCORE.RESTR.norm>
0

>  <SCORE.SYSTEM>
0

>  <SCORE.SYSTEM.CONST>
0

>  <SCORE.SYSTEM.DIHEDRAL>
0

>  <SCORE.SYSTEM.SOLV>
0

>  <SCORE.SYSTEM.norm>
0

>  <SCORE.heavy>
16

>  <SCORE.norm>
-1.57993

>  <RMSD>
2.020

$$$$
1f27 biotin aptamer (Xray 1.3A)
 OpenBabel11021811393D
libRbt.so/2013.1/901 2013/11/27
 16 17  0  0  0  0  0  0  0  0999 V2000
   20.9205   -0.5159   12.6901 C   0  0  0  0  0  0  0  0  0  0  0  0
   22.0313   -0.8000   12.2532 O   0  5  0  0  0  0  0  0  0  0  0  0
   20.1510   -1.4115   13.0339 O   0  0  0  0  0  0  0  0  0  0  0  0
   20.5203    0.9428   12.8709 C   0  0  0  0  0  0  0  0  0  0  0  0
   19.0467    1.2381   12.5126 C   0  0  0  0  0  0  0  0  0  0  0  0
   18.7291    2.7180   12.6220 C   0  0  0  0  0  0  0  0  0  0  0  0
   17.2888    3.0530   12.2948 C   0  0  0  0  0  0  0  0  0  0  0  0
   16.2636    2.5614   13.3251 C   0  0  2  0  0  0  0  0  0  0  0  0
   15.6334    0.7691   13.0883 S   0  0  0  0  0  0  0  0  0  0  0  0
   14.2436    1.2118   14.3201 C   0  0  0  0  0  0  0  0  0  0  0  0
   13.9032    2.7019   14.0251 C   0  0  2  0  0  0  0  0  0  0  0  0
   12.7781    2.6705   12.9562 N   0  0  0  0  0  0  0  0  0  0  0  0
   13.0912    3.2567   11.8832 C   0  0  0  0  0  0  0  0  0  0  0  0
   12.4918    3.2898   10.7503 O   0  0  0  0  0  0  0  0  0  0  0  0
   14.4719    3.6796   11.8345 N   0  0  0  0  0  0  0  0  0  0  0  0
   14.9952    3.4140   13.2457 C   0  0  2  0  0  0  0  0  0  0  0  0
  1  2  1  0  0  0  0
  1  3  2  0  0  0  0
  1  4  1  0  0  0  0
  4  5  1  0  0  0  0
  5  6  1  0  0  0  0
  6  7  1  0  0  0  0
  8  7  1  6  0  0  0
  8  9  1  0  0  0  0
  8 16  1  0  0  0  0
  9 10  1  0  0  0  0
 11 10  1  6  0  0  0
 11 12  1  0  0  0  0
 11 16  1  0  0  0  0
 12 13  1  0  0  0  0
 13 14  2  0  0  0  0
 13 15  1  0  0  0  0
 16 15  1  6  0  0  0
M  CHG  1   2  -1
M  END
>  <CHROM.1>
141.82308314,-176.19238597,-179.33347680,69.48930827,-86.44949469,16.60951225
1.69167486,12.73255317,0.36526550,-0.17628114,2.65231517

>  <Name>
1f27 biotin aptamer (Xray 1.3A)

>  <RI>
0

>  <Rbt.Current_Directory>
/home/itssahil/PROJECTS/Mol_Feturizer/New_Systems/rnas/1f27

>  <Rbt.Executable>
rbdock ($Id: //depot/dev/client3/rdock/2013.1/src/exe/rbdock.cxx#4 $)

>  <Rbt.Library>
libRbt.so (2013.1, Build901 2013/11/27)

>  <Rbt.Parameter_File>
/export/apps/rDock/src/rDock_2013.1_src/data/scripts/dock_solv.prm

>  <Rbt.Receptor>
prm/blind_docking_40.prm

>  <SCORE>
-27.0187

>  <SCORE.INTER>
-25.7399

>  <SCORE.INTER.CONST>
1

>  <SCORE.INTER.POLAR>
-1.33208

>  <SCORE.INTER.ROT>
5

>  <SCORE.INTER.SOLV>
11.807

>  <SCORE.INTER.VDW>
-23.5887

>  <SCORE.INTER.norm>
-1.60875

>  <SCORE.INTRA>
-1.5942

>  <SCORE.INTRA.DIHEDRAL>
-2.81342

>  <SCORE.INTRA.DIHEDRAL.0>
6.87082

>  <SCORE.INTRA.POLAR>
0

>  <SCORE.INTRA.POLAR.0>
0

>  <SCORE.INTRA.REPUL>
0

>  <SCORE.INTRA.REPUL.0>
0

>  <SCORE.INTRA.SOLV>
-0.797279

>  <SCORE.INTRA.SOLV.lig_0>
-42.5944

>  <SCORE.INTRA.VDW>
0.211151

>  <SCORE.INTRA.VDW.0>
-1.067

>  <SCORE.INTRA.norm>
-0.0996372

>  <SCORE.RESTR>
0.315386

>  <SCORE.RESTR.CAVITY>
0.315386

>  <SCORE.RESTR.norm>
0.0197116

>  <SCORE.SYSTEM>
0

>  <SCORE.SYSTEM.CONST>
0

>  <SCORE.SYSTEM.DIHEDRAL>
0

>  <SCORE.SYSTEM.SOLV>
0

>  <SCORE.SYSTEM.norm>
0

>  <SCORE.heavy>
16

>  <SCORE.norm>
-1.68867

>  <RMSD>
2.021

$$$$
1f27 biotin aptamer (Xray 1.3A)
 OpenBabel11021811393D
libRbt.so/2013.1/901 2013/11/27
 16 17  0  0  0  0  0  0  0  0999 V2000
   20.6573   -0.3301   13.5626 C   0  0  0  0  0  0  0  0  0  0  0  0
   20.8258    0.1127   14.6944 O   0  5  0  0  0  0  0  0  0  0  0  0
   20.8841   -1.5162   13.3297 O   0  0  0  0  0  0  0  0  0  0  0  0
   20.1035    0.5689   12.4646 C   0  0  0  0  0  0  0  0  0  0  0  0
   18.6461    1.0237   12.7015 C   0  0  0  0  0  0  0  0  0  0  0  0
   18.5364    1.9543   13.8953 C   0  0  0  0  0  0  0  0  0  0  0  0
   17.2784    2.7975   13.8908 C   0  0  0  0  0  0  0  0  0  0  0  0
   16.0024    2.0521   14.3037 C   0  0  2  0  0  0  0  0  0  0  0  0
   15.5338    0.5381   13.2295 S   0  0  0  0  0  0  0  0  0  0  0  0
   13.8189    0.6143   14.0653 C   0  0  0  0  0  0  0  0  0  0  0  0
   13.5379    2.1315   14.2710 C   0  0  2  0  0  0  0  0  0  0  0  0
   12.7977    2.5977   12.9888 N   0  0  0  0  0  0  0  0  0  0  0  0
   13.4066    3.5093   12.3633 C   0  0  0  0  0  0  0  0  0  0  0  0
   13.1840    4.0124   11.2053 O   0  0  0  0  0  0  0  0  0  0  0  0
   14.7210    3.7964   12.8902 N   0  0  0  0  0  0  0  0  0  0  0  0
   14.7931    2.9820   14.1816 C   0  0  2  0  0  0  0  0  0  0  0  0
  1  2  1  0  0  0  0
  1  3  2  0  0  0  0
  1  4  1  0  0  0  0
  4  5  1  0  0  0  0
  5  6  1  0  0  0  0
  6  7  1  0  0  0  0
  8  7  1  6  0  0  0
  8  9  1  0  0  0  0
  8 16  1  0  0  0  0
  9 10  1  0  0  0  0
 11 10  1  6  0  0  0
 11 12  1  0  0  0  0
 11 16  1  0  0  0  0
 12 13  1  0  0  0  0
 13 14  2  0  0  0  0
 13 15  1  0  0  0  0
 16 15  1  6  0  0  0
M  CHG  1   2  -1
M  END
>  <CHROM.1>
-65.96317921,67.21730369,159.79124164,76.54856006,-59.16272101,16.50329183
1.57946205,13.34838647,-0.42155555,0.07356629,-0.38120195

>  <Name>
1f27 biotin aptamer (Xray 1.3A)

>  <RI>
0

>  <Rbt.Current_Directory>
/home/itssahil/PROJECTS/Mol_Feturizer/New_Systems/rnas/1f27

>  <Rbt.Executable>
rbdock ($Id: //depot/dev/client3/rdock/2013.1/src/exe/rbdock.cxx#4 $)

>  <Rbt.Library>
libRbt.so (2013.1, Build901 2013/11/27)

>  <Rbt.Parameter_File>
/export/apps/rDock/src/rDock_2013.1_src/data/scripts/dock_solv.prm

>  <Rbt.Receptor>
prm/blind_docking_60.prm

>  <SCORE>
-25.4739

>  <SCORE.INTER>
-24.6202

>  <SCORE.INTER.CONST>
1

>  <SCORE.INTER.POLAR>
-0.848528

>  <SCORE.INTER.ROT>
5

>  <SCORE.INTER.SOLV>
9.32648

>  <SCORE.INTER.VDW>
-23.6272

>  <SCORE.INTER.norm>
-1.53876

>  <SCORE.INTRA>
-0.853704

>  <SCORE.INTRA.DIHEDRAL>
-2.71482

>  <SCORE.INTRA.DIHEDRAL.0>
6.87082

>  <SCORE.INTRA.POLAR>
0

>  <SCORE.INTRA.POLAR.0>
0

>  <SCORE.INTRA.REPUL>
0

>  <SCORE.INTRA.REPUL.0>
0

>  <SCORE.INTRA.SOLV>
0.294997

>  <SCORE.INTRA.SOLV.lig_0>
-42.5944

>  <SCORE.INTRA.VDW>
0.356206

>  <SCORE.INTRA.VDW.0>
-1.067

>  <SCORE.INTRA.norm>
-0.0533565

>  <SCORE.RESTR>
0

>  <SCORE.RESTR.CAVITY>
0

>  <SCORE.RESTR.norm>
0

>  <SCORE.SYSTEM>
0

>  <SCORE.SYSTEM.CONST>
0

>  <SCORE.SYSTEM.DIHEDRAL>
0

>  <SCORE.SYSTEM.SOLV>
0

>  <SCORE.SYSTEM.norm>
0

>  <SCORE.heavy>
16

>  <SCORE.norm>
-1.59212

>  <RMSD>
2.023

$$$$
1f27 biotin aptamer (Xray 1.3A)
 OpenBabel11021811393D
libRbt.so/2013.1/901 2013/11/27
 16 17  0  0  0  0  0  0  0  0999 V2000
   21.1536   -0.2687   16.0069 C   0  0  0  0  0  0  0  0  0  0  0  0
   21.6809   -0.0430   17.0915 O   0  5  0  0  0  0  0  0  0  0  0  0
   20.6870   -1.3824   15.7735 O   0  0  0  0  0  0  0  0  0  0  0  0
   21.0153    0.8456   14.9774 C   0  0  0  0  0  0  0  0  0  0  0  0
   19.5710    1.0556   14.4703 C   0  0  0  0  0  0  0  0  0  0  0  0
   19.3618    2.4625   13.9413 C   0  0  0  0  0  0  0  0  0  0  0  0
   18.0637    2.6354   13.1807 C   0  0  0  0  0  0  0  0  0  0  0  0
   16.7949    2.4009   14.0111 C   0  0  2  0  0  0  0  0  0  0  0  0
   16.1326    0.6047   14.0371 S   0  0  0  0  0  0  0  0  0  0  0  0
   14.5187    1.3268   14.7573 C   0  0  0  0  0  0  0  0  0  0  0  0
   14.3486    2.7080   14.0597 C   0  0  2  0  0  0  0  0  0  0  0  0
   13.5106    2.4316   12.7828 N   0  0  0  0  0  0  0  0  0  0  0  0
   14.1049    2.7503   11.7159 C   0  0  0  0  0  0  0  0  0  0  0  0
   13.7956    2.5201   10.4932 O   0  0  0  0  0  0  0  0  0  0  0  0
   15.4803    3.1459   11.9137 N   0  0  0  0  0  0  0  0  0  0  0  0
   15.6356    3.2153   13.4326 C   0  0  2  0  0  0  0  0  0  0  0  0
  1  2  1  0  0  0  0
  1  3  2  0  0  0  0
  1  4  1  0  0  0  0
  4  5  1  0  0  0  0
  5  6  1  0  0  0  0
  6  7  1  0  0  0  0
  8  7  1  6  0  0  0
  8  9  1  0  0  0  0
  8 16  1  0  0  0  0
  9 10  1  0  0  0  0
 11 10  1  6  0  0  0
 11 12  1  0  0  0  0
 11 16  1  0  0  0  0
 12 13  1  0  0  0  0
 13 14  2  0  0  0  0
 13 15  1  0  0  0  0
 16 15  1  6  0  0  0
M  CHG  1   2  -1
M  END
>  <CHROM.1>
-125.86229583,156.07495667,168.24770088,62.53844166,-89.95027305,17.18520737
1.54280541,13.92361878,0.56644129,0.08710245,2.33865230

>  <Name>
1f27 biotin aptamer (Xray 1.3A)

>  <RI>
0

>  <Rbt.Current_Directory>
/home/itssahil/PROJECTS/Mol_Feturizer/New_Systems/rnas/1f27

>  <Rbt.Executable>
rbdock ($Id: //depot/dev/client3/rdock/2013.1/src/exe/rbdock.cxx#4 $)

>  <Rbt.Library>
libRbt.so (2013.1, Build901 2013/11/27)

>  <Rbt.Parameter_File>
/export/apps/rDock/src/rDock_2013.1_src/data/scripts/dock_solv.prm

>  <Rbt.Receptor>
prm/pocket_docking_5.prm

>  <SCORE>
-27.6276

>  <SCORE.INTER>
-27.379

>  <SCORE.INTER.CONST>
1

>  <SCORE.INTER.POLAR>
-1.62355

>  <SCORE.INTER.ROT>
5

>  <SCORE.INTER.SOLV>
10.4148

>  <SCORE.INTER.VDW>
-23.2458

>  <SCORE.INTER.norm>
-1.71119

>  <SCORE.INTRA>
-0.24859

>  <SCORE.INTRA.DIHEDRAL>
-0.13942

>  <SCORE.INTRA.DIHEDRAL.0>
6.87082

>  <SCORE.INTRA.POLAR>
0

>  <SCORE.INTRA.POLAR.0>
0

>  <SCORE.INTRA.REPUL>
0

>  <SCORE.INTRA.REPUL.0>
0

>  <SCORE.INTRA.SOLV>
-0.75113

>  <SCORE.INTRA.SOLV.lig_0>
-42.5944

>  <SCORE.INTRA.VDW>
0.196685

>  <SCORE.INTRA.VDW.0>
-1.067

>  <SCORE.INTRA.norm>
-0.0155369

>  <SCORE.RESTR>
0

>  <SCORE.RESTR.CAVITY>
0

>  <SCORE.RESTR.norm>
0

>  <SCORE.SYSTEM>
0

>  <SCORE.SYSTEM.CONST>
0

>  <SCORE.SYSTEM.DIHEDRAL>
0

>  <SCORE.SYSTEM.SOLV>
0

>  <SCORE.SYSTEM.norm>
0

>  <SCORE.heavy>
16

>  <SCORE.norm>
-1.72673

>  <RMSD>
2.023

$$$$
1f27 biotin aptamer (Xray 1.3A)
 OpenBabel11021811393D
libRbt.so/2013.1/901 2013/11/27
 16 17  0  0  0  0  0  0  0  0999 V2000
   22.0818    0.3234   15.3469 C   0  0  0  0  0  0  0  0  0  0  0  0
   22.8011   -0.4952   15.9108 O   0  5  0  0  0  0  0  0  0  0  0  0
   22.5618    1.3777   14.9342 O   0  0  0  0  0  0  0  0  0  0  0  0
   20.6129    0.0064   15.0971 C   0  0  0  0  0  0  0  0  0  0  0  0
   19.8415    1.1343   14.3760 C   0  0  0  0  0  0  0  0  0  0  0  0
   18.3448    0.8840   14.3850 C   0  0  0  0  0  0  0  0  0  0  0  0
   17.5450    1.9775   13.7080 C   0  0  0  0  0  0  0  0  0  0  0  0
   16.0526    1.9978   14.0638 C   0  0  2  0  0  0  0  0  0  0  0  0
   15.1179    0.3414   13.8438 S   0  0  0  0  0  0  0  0  0  0  0  0
   13.5078    1.3566   13.9928 C   0  0  0  0  0  0  0  0  0  0  0  0
   13.8209    2.7131   13.2964 C   0  0  2  0  0  0  0  0  0  0  0  0
   13.4184    2.5229   11.8094 N   0  0  0  0  0  0  0  0  0  0  0  0
   14.3783    2.6879   11.0065 C   0  0  0  0  0  0  0  0  0  0  0  0
   14.4563    2.4569    9.7479 O   0  0  0  0  0  0  0  0  0  0  0  0
   15.6572    2.8557   11.6576 N   0  0  0  0  0  0  0  0  0  0  0  0
   15.3102    2.9678   13.1419 C   0  0  2  0  0  0  0  0  0  0  0  0
  1  2  1  0  0  0  0
  1  3  2  0  0  0  0
  1  4  1  0  0  0  0
  4  5  1  0  0  0  0
  5  6  1  0  0  0  0
  6  7  1  0  0  0  0
  8  7  1  6  0  0  0
  8  9  1  0  0  0  0
  8 16  1  0  0  0  0
  9 10  1  0  0  0  0
 11 10  1  1  0  0  0
 11 12  1  0  0  0  0
 11 16  1  0  0  0  0
 12 13  1  0  0  0  0
 13 14  2  0  0  0  0
 13 15  1  0  0  0  0
 16 15  1  6  0  0  0
M  CHG  1   2  -1
M  END
>  <CHROM.1>
-179.89743460,-169.28099452,179.04724408,-161.89079764,-52.35836172,17.11756412
1.46411770,13.53230999,-0.44686317,-0.02062263,-0.99842715

>  <Name>
1f27 biotin aptamer (Xray 1.3A)

>  <RI>
0

>  <Rbt.Current_Directory>
/home/itssahil/PROJECTS/Mol_Feturizer/New_Systems/rnas/1f27

>  <Rbt.Executable>
rbdock ($Id: //depot/dev/client3/rdock/2013.1/src/exe/rbdock.cxx#4 $)

>  <Rbt.Library>
libRbt.so (2013.1, Build901 2013/11/27)

>  <Rbt.Parameter_File>
/export/apps/rDock/src/rDock_2013.1_src/data/scripts/dock_solv.prm

>  <Rbt.Receptor>
prm/pocket_docking_4.prm

>  <SCORE>
-27.0233

>  <SCORE.INTER>
-25.5758

>  <SCORE.INTER.CONST>
1

>  <SCORE.INTER.POLAR>
-1.52278

>  <SCORE.INTER.ROT>
5

>  <SCORE.INTER.SOLV>
14.8384

>  <SCORE.INTER.VDW>
-23.854

>  <SCORE.INTER.norm>
-1.59849

>  <SCORE.INTRA>
-1.44755

>  <SCORE.INTRA.DIHEDRAL>
-3.58191

>  <SCORE.INTRA.DIHEDRAL.0>
6.87082

>  <SCORE.INTRA.POLAR>
0

>  <SCORE.INTRA.POLAR.0>
0

>  <SCORE.INTRA.REPUL>
0

>  <SCORE.INTRA.REPUL.0>
0

>  <SCORE.INTRA.SOLV>
-0.753066

>  <SCORE.INTRA.SOLV.lig_0>
-42.5944

>  <SCORE.INTRA.VDW>
0.719937

>  <SCORE.INTRA.VDW.0>
-1.067

>  <SCORE.INTRA.norm>
-0.0904719

>  <SCORE.RESTR>
0

>  <SCORE.RESTR.CAVITY>
0

>  <SCORE.RESTR.norm>
0

>  <SCORE.SYSTEM>
0

>  <SCORE.SYSTEM.CONST>
0

>  <SCORE.SYSTEM.DIHEDRAL>
0

>  <SCORE.SYSTEM.SOLV>
0

>  <SCORE.SYSTEM.norm>
0

>  <SCORE.heavy>
16

>  <SCORE.norm>
-1.68896

>  <RMSD>
2.027

$$$$
1f27 biotin aptamer (Xray 1.3A)
 OpenBabel11021811393D
libRbt.so/2013.1/901 2013/11/27
 16 17  0  0  0  0  0  0  0  0999 V2000
   21.6917   -0.2523   15.2790 C   0  0  0  0  0  0  0  0  0  0  0  0
   21.8087   -1.4686   15.1685 O   0  5  0  0  0  0  0  0  0  0  0  0
   21.8825    0.2842   16.3691 O   0  0  0  0  0  0  0  0  0  0  0  0
   21.3782    0.5998   14.0558 C   0  0  0  0  0  0  0  0  0  0  0  0
   20.2661    1.6468   14.2887 C   0  0  0  0  0  0  0  0  0  0  0  0
   18.8969    0.9990   14.3807 C   0  0  0  0  0  0  0  0  0  0  0  0
   17.7610    1.9966   14.4707 C   0  0  0  0  0  0  0  0  0  0  0  0
   16.3600    1.3735   14.5281 C   0  0  2  0  0  0  0  0  0  0  0  0
   15.9217    0.1688   13.1060 S   0  0  0  0  0  0  0  0  0  0  0  0
   14.1073    0.3266   13.6787 C   0  0  0  0  0  0  0  0  0  0  0  0
   13.9609    1.8024   14.1517 C   0  0  2  0  0  0  0  0  0  0  0  0
   13.5066    2.6000   12.9000 N   0  0  0  0  0  0  0  0  0  0  0  0
   14.3088    3.5182   12.5738 C   0  0  0  0  0  0  0  0  0  0  0  0
   14.3439    4.2557   11.5256 O   0  0  0  0  0  0  0  0  0  0  0  0
   15.5365    3.5141   13.3356 N   0  0  0  0  0  0  0  0  0  0  0  0
   15.2974    2.4700   14.4259 C   0  0  2  0  0  0  0  0  0  0  0  0
  1  2  1  0  0  0  0
  1  3  2  0  0  0  0
  1  4  1  0  0  0  0
  4  5  1  0  0  0  0
  5  6  1  0  0  0  0
  6  7  1  0  0  0  0
  8  7  1  6  0  0  0
  8  9  1  0  0  0  0
  8 16  1  0  0  0  0
  9 10  1  0  0  0  0
 11 10  1  6  0  0  0
 11 12  1  0  0  0  0
 11 16  1  0  0  0  0
 12 13  1  0  0  0  0
 13 14  2  0  0  0  0
 13 15  1  0  0  0  0
 16 15  1  6  0  0  0
M  CHG  1   2  -1
M  END
>  <CHROM.1>
134.11546950,-72.75392641,-174.25129877,178.47681057,-54.84818684,17.25216624
1.38746630,13.94255165,-0.40138286,-0.20649041,-0.25146520

>  <Name>
1f27 biotin aptamer (Xray 1.3A)

>  <RI>
0

>  <Rbt.Current_Directory>
/home/itssahil/PROJECTS/Mol_Feturizer/New_Systems/rnas/1f27

>  <Rbt.Executable>
rbdock ($Id: //depot/dev/client3/rdock/2013.1/src/exe/rbdock.cxx#4 $)

>  <Rbt.Library>
libRbt.so (2013.1, Build901 2013/11/27)

>  <Rbt.Parameter_File>
/export/apps/rDock/src/rDock_2013.1_src/data/scripts/dock_solv.prm

>  <Rbt.Receptor>
prm/pocket_docking_6.prm

>  <SCORE>
-30.0194

>  <SCORE.INTER>
-27.8112

>  <SCORE.INTER.CONST>
1

>  <SCORE.INTER.POLAR>
-2.03065

>  <SCORE.INTER.ROT>
5

>  <SCORE.INTER.SOLV>
11.3121

>  <SCORE.INTER.VDW>
-22.476

>  <SCORE.INTER.norm>
-1.7382

>  <SCORE.INTRA>
-2.20821

>  <SCORE.INTRA.DIHEDRAL>
-4.73432

>  <SCORE.INTRA.DIHEDRAL.0>
6.87082

>  <SCORE.INTRA.POLAR>
0

>  <SCORE.INTRA.POLAR.0>
0

>  <SCORE.INTRA.REPUL>
0

>  <SCORE.INTRA.REPUL.0>
0

>  <SCORE.INTRA.SOLV>
-0.0369858

>  <SCORE.INTRA.SOLV.lig_0>
-42.5944

>  <SCORE.INTRA.VDW>
0.177441

>  <SCORE.INTRA.VDW.0>
-1.067

>  <SCORE.INTRA.norm>
-0.138013

>  <SCORE.RESTR>
0

>  <SCORE.RESTR.CAVITY>
0

>  <SCORE.RESTR.norm>
0

>  <SCORE.SYSTEM>
0

>  <SCORE.SYSTEM.CONST>
0

>  <SCORE.SYSTEM.DIHEDRAL>
0

>  <SCORE.SYSTEM.SOLV>
0

>  <SCORE.SYSTEM.norm>
0

>  <SCORE.heavy>
16

>  <SCORE.norm>
-1.87622

>  <RMSD>
2.027

$$$$
1f27 biotin aptamer (Xray 1.3A)
 OpenBabel11021811393D
libRbt.so/2013.1/901 2013/11/27
 16 17  0  0  0  0  0  0  0  0999 V2000
   20.8049   -0.5787   16.3338 C   0  0  0  0  0  0  0  0  0  0  0  0
   20.7486   -1.8023   16.4032 O   0  5  0  0  0  0  0  0  0  0  0  0
   21.5355    0.0447   17.1019 O   0  0  0  0  0  0  0  0  0  0  0  0
   20.0254    0.1625   15.2550 C   0  0  0  0  0  0  0  0  0  0  0  0
   20.8787    1.1548   14.4341 C   0  0  0  0  0  0  0  0  0  0  0  0
   20.2508    1.4510   13.0847 C   0  0  0  0  0  0  0  0  0  0  0  0
   19.0526    2.3738   13.1650 C   0  0  0  0  0  0  0  0  0  0  0  0
   17.7745    1.7233   13.7102 C   0  0  2  0  0  0  0  0  0  0  0  0
   17.3018    0.0349   12.9410 S   0  0  0  0  0  0  0  0  0  0  0  0
   15.5870    0.2722   13.7461 C   0  0  0  0  0  0  0  0  0  0  0  0
   15.3102    1.8017   13.6614 C   0  0  2  0  0  0  0  0  0  0  0  0
   14.5715    2.0193   12.3138 N   0  0  0  0  0  0  0  0  0  0  0  0
   15.1831    2.7949   11.5278 C   0  0  0  0  0  0  0  0  0  0  0  0
   14.9620    3.0708   10.2954 O   0  0  0  0  0  0  0  0  0  0  0  0
   16.4982    3.1727   11.9919 N   0  0  0  0  0  0  0  0  0  0  0  0
   16.5678    2.6166   13.4139 C   0  0  2  0  0  0  0  0  0  0  0  0
  1  2  1  0  0  0  0
  1  3  2  0  0  0  0
  1  4  1  0  0  0  0
  4  5  1  0  0  0  0
  5  6  1  0  0  0  0
  6  7  1  0  0  0  0
  8  7  1  6  0  0  0
  8  9  1  0  0  0  0
  8 16  1  0  0  0  0
  9 10  1  0  0  0  0
 11 10  1  6  0  0  0
 11 12  1  0  0  0  0
 11 16  1  0  0  0  0
 12 13  1  0  0  0  0
 13 14  2  0  0  0  0
 13 15  1  0  0  0  0
 16 15  1  6  0  0  0
M  CHG  1   2  -1
M  END
>  <CHROM.1>
-128.51446583,157.82067485,74.95439312,-74.56459069,-47.98587418,17.91696777
1.16178669,13.65766176,0.68687078,0.25447313,2.45326010

>  <Name>
1f27 biotin aptamer (Xray 1.3A)

>  <RI>
0

>  <Rbt.Current_Directory>
/home/itssahil/PROJECTS/Mol_Feturizer/New_Systems/rnas/1f27

>  <Rbt.Executable>
rbdock ($Id: //depot/dev/client3/rdock/2013.1/src/exe/rbdock.cxx#4 $)

>  <Rbt.Library>
libRbt.so (2013.1, Build901 2013/11/27)

>  <Rbt.Parameter_File>
/export/apps/rDock/src/rDock_2013.1_src/data/scripts/dock_solv.prm

>  <Rbt.Receptor>
prm/pocket_docking_4.prm

>  <SCORE>
-27.4769

>  <SCORE.INTER>
-26.9086

>  <SCORE.INTER.CONST>
1

>  <SCORE.INTER.POLAR>
-1.6484

>  <SCORE.INTER.ROT>
5

>  <SCORE.INTER.SOLV>
11.3196

>  <SCORE.INTER.VDW>
-23.1509

>  <SCORE.INTER.norm>
-1.68179

>  <SCORE.INTRA>
-0.570216

>  <SCORE.INTRA.DIHEDRAL>
-1.52405

>  <SCORE.INTRA.DIHEDRAL.0>
6.87082

>  <SCORE.INTRA.POLAR>
0

>  <SCORE.INTRA.POLAR.0>
0

>  <SCORE.INTRA.REPUL>
0

>  <SCORE.INTRA.REPUL.0>
0

>  <SCORE.INTRA.SOLV>
-0.661548

>  <SCORE.INTRA.SOLV.lig_0>
-42.5944

>  <SCORE.INTRA.VDW>
0.522583

>  <SCORE.INTRA.VDW.0>
-1.067

>  <SCORE.INTRA.norm>
-0.0356385

>  <SCORE.RESTR>
0.00194416

>  <SCORE.RESTR.CAVITY>
0.00194416

>  <SCORE.RESTR.norm>
0.00012151

>  <SCORE.SYSTEM>
0

>  <SCORE.SYSTEM.CONST>
0

>  <SCORE.SYSTEM.DIHEDRAL>
0

>  <SCORE.SYSTEM.SOLV>
0

>  <SCORE.SYSTEM.norm>
0

>  <SCORE.heavy>
16

>  <SCORE.norm>
-1.7173

>  <RMSD>
2.030

$$$$
1f27 biotin aptamer (Xray 1.3A)
 OpenBabel11021811393D
libRbt.so/2013.1/901 2013/11/27
 16 17  0  0  0  0  0  0  0  0999 V2000
   21.0588   -0.6707   16.3146 C   0  0  0  0  0  0  0  0  0  0  0  0
   20.6605   -1.8019   16.5738 O   0  5  0  0  0  0  0  0  0  0  0  0
   21.7680   -0.0721   17.1216 O   0  0  0  0  0  0  0  0  0  0  0  0
   20.7337   -0.0353   14.9689 C   0  0  0  0  0  0  0  0  0  0  0  0
   19.4384    0.8069   14.9692 C   0  0  0  0  0  0  0  0  0  0  0  0
   19.1242    1.3523   13.5884 C   0  0  0  0  0  0  0  0  0  0  0  0
   17.9894    2.3551   13.5784 C   0  0  0  0  0  0  0  0  0  0  0  0
   16.6468    1.8130   14.0862 C   0  0  2  0  0  0  0  0  0  0  0  0
   15.9776    0.2608   13.1870 S   0  0  0  0  0  0  0  0  0  0  0  0
   14.3058    0.6262   14.0334 C   0  0  0  0  0  0  0  0  0  0  0  0
   14.2081    2.1791   14.0793 C   0  0  2  0  0  0  0  0  0  0  0  0
   13.4936    2.5926   12.7649 N   0  0  0  0  0  0  0  0  0  0  0  0
   14.1875    3.3554   12.0370 C   0  0  0  0  0  0  0  0  0  0  0  0
   13.9943    3.7572   10.8350 O   0  0  0  0  0  0  0  0  0  0  0  0
   15.5397    3.5388   12.5119 N   0  0  0  0  0  0  0  0  0  0  0  0
   15.5508    2.8613   13.8820 C   0  0  2  0  0  0  0  0  0  0  0  0
  1  2  1  0  0  0  0
  1  3  2  0  0  0  0
  1  4  1  0  0  0  0
  4  5  1  0  0  0  0
  5  6  1  0  0  0  0
  6  7  1  0  0  0  0
  8  7  1  6  0  0  0
  8  9  1  0  0  0  0
  8 16  1  0  0  0  0
  9 10  1  0  0  0  0
 11 10  1  6  0  0  0
 11 12  1  0  0  0  0
 11 16  1  0  0  0  0
 12 13  1  0  0  0  0
 13 14  2  0  0  0  0
 13 15  1  0  0  0  0
 16 15  1  6  0  0  0
M  CHG  1   2  -1
M  END
>  <CHROM.1>
91.92294123,-176.90158708,-171.07343153,-60.13843384,-56.13029408,17.11001877
1.33079415,13.97355187,0.60666434,0.20742019,2.58369185

>  <Name>
1f27 biotin aptamer (Xray 1.3A)

>  <RI>
0

>  <Rbt.Current_Directory>
/home/itssahil/PROJECTS/Mol_Feturizer/New_Systems/rnas/1f27

>  <Rbt.Executable>
rbdock ($Id: //depot/dev/client3/rdock/2013.1/src/exe/rbdock.cxx#4 $)

>  <Rbt.Library>
libRbt.so (2013.1, Build901 2013/11/27)

>  <Rbt.Parameter_File>
/export/apps/rDock/src/rDock_2013.1_src/data/scripts/dock_solv.prm

>  <Rbt.Receptor>
prm/pocket_docking_5.prm

>  <SCORE>
-29.5026

>  <SCORE.INTER>
-26.7828

>  <SCORE.INTER.CONST>
1

>  <SCORE.INTER.POLAR>
-1.68022

>  <SCORE.INTER.ROT>
5

>  <SCORE.INTER.SOLV>
9.48604

>  <SCORE.INTER.VDW>
-22.3498

>  <SCORE.INTER.norm>
-1.67392

>  <SCORE.INTRA>
-2.71987

>  <SCORE.INTRA.DIHEDRAL>
-4.97136

>  <SCORE.INTRA.DIHEDRAL.0>
6.87082

>  <SCORE.INTRA.POLAR>
0

>  <SCORE.INTRA.POLAR.0>
0

>  <SCORE.INTRA.REPUL>
0

>  <SCORE.INTRA.REPUL.0>
0

>  <SCORE.INTRA.SOLV>
-0.833029

>  <SCORE.INTRA.SOLV.lig_0>
-42.5944

>  <SCORE.INTRA.VDW>
0.182329

>  <SCORE.INTRA.VDW.0>
-1.067

>  <SCORE.INTRA.norm>
-0.169992

>  <SCORE.RESTR>
0

>  <SCORE.RESTR.CAVITY>
0

>  <SCORE.RESTR.norm>
0

>  <SCORE.SYSTEM>
0

>  <SCORE.SYSTEM.CONST>
0

>  <SCORE.SYSTEM.DIHEDRAL>
0

>  <SCORE.SYSTEM.SOLV>
0

>  <SCORE.SYSTEM.norm>
0

>  <SCORE.heavy>
16

>  <SCORE.norm>
-1.84392

>  <RMSD>
2.030

$$$$
1f27 biotin aptamer (Xray 1.3A)
 OpenBabel11021811393D
libRbt.so/2013.1/901 2013/11/27
 16 17  0  0  0  0  0  0  0  0999 V2000
   20.8028    0.6759   12.6567 C   0  0  0  0  0  0  0  0  0  0  0  0
   21.0618    1.7924   13.0944 O   0  5  0  0  0  0  0  0  0  0  0  0
   21.7092   -0.1350   12.4739 O   0  0  0  0  0  0  0  0  0  0  0  0
   19.3562    0.2702   12.4047 C   0  0  0  0  0  0  0  0  0  0  0  0
   18.5665   -0.0677   13.6889 C   0  0  0  0  0  0  0  0  0  0  0  0
   18.4579    1.1319   14.6120 C   0  0  0  0  0  0  0  0  0  0  0  0
   17.5379    2.2155   14.0895 C   0  0  0  0  0  0  0  0  0  0  0  0
   16.0406    1.9212   14.2499 C   0  0  2  0  0  0  0  0  0  0  0  0
   15.4512    0.2137   13.6153 S   0  0  0  0  0  0  0  0  0  0  0  0
   13.6752    0.9030   13.7398 C   0  0  0  0  0  0  0  0  0  0  0  0
   13.7972    2.4044   13.3472 C   0  0  2  0  0  0  0  0  0  0  0  0
   13.5776    2.4546   11.8115 N   0  0  0  0  0  0  0  0  0  0  0  0
   14.5616    2.9313   11.1809 C   0  0  0  0  0  0  0  0  0  0  0  0
   14.7983    2.9741    9.9216 O   0  0  0  0  0  0  0  0  0  0  0  0
   15.7212    3.1700   12.0092 N   0  0  0  0  0  0  0  0  0  0  0  0
   15.2221    2.9233   13.4326 C   0  0  2  0  0  0  0  0  0  0  0  0
  1  2  1  0  0  0  0
  1  3  2  0  0  0  0
  1  4  1  0  0  0  0
  4  5  1  0  0  0  0
  5  6  1  0  0  0  0
  6  7  1  0  0  0  0
  8  7  1  6  0  0  0
  8  9  1  0  0  0  0
  8 16  1  0  0  0  0
  9 10  1  0  0  0  0
 11 10  1  6  0  0  0
 11 12  1  0  0  0  0
 11 16  1  0  0  0  0
 12 13  1  0  0  0  0
 13 14  2  0  0  0  0
 13 15  1  0  0  0  0
 16 15  1  6  0  0  0
M  CHG  1   2  -1
M  END
>  <CHROM.1>
-75.83704001,62.41605807,70.80696950,77.10979145,-50.44527853,16.83688030
1.50223434,12.91801529,-0.22978644,0.15722859,-0.98241215

>  <Name>
1f27 biotin aptamer (Xray 1.3A)

>  <RI>
0

>  <Rbt.Current_Directory>
/home/itssahil/PROJECTS/Mol_Feturizer/New_Systems/rnas/1f27

>  <Rbt.Executable>
rbdock ($Id: //depot/dev/client3/rdock/2013.1/src/exe/rbdock.cxx#4 $)

>  <Rbt.Library>
libRbt.so (2013.1, Build901 2013/11/27)

>  <Rbt.Parameter_File>
/export/apps/rDock/src/rDock_2013.1_src/data/scripts/dock_solv.prm

>  <Rbt.Receptor>
prm/blind_docking_100.prm

>  <SCORE>
-32.2753

>  <SCORE.INTER>
-31.8445

>  <SCORE.INTER.CONST>
1

>  <SCORE.INTER.POLAR>
-2.63522

>  <SCORE.INTER.ROT>
5

>  <SCORE.INTER.SOLV>
16.5051

>  <SCORE.INTER.VDW>
-24.8806

>  <SCORE.INTER.norm>
-1.99028

>  <SCORE.INTRA>
-0.658904

>  <SCORE.INTRA.DIHEDRAL>
-3.57334

>  <SCORE.INTRA.DIHEDRAL.0>
6.87082

>  <SCORE.INTRA.POLAR>
0

>  <SCORE.INTRA.POLAR.0>
0

>  <SCORE.INTRA.REPUL>
0

>  <SCORE.INTRA.REPUL.0>
0

>  <SCORE.INTRA.SOLV>
0.778842

>  <SCORE.INTRA.SOLV.lig_0>
-42.5944

>  <SCORE.INTRA.VDW>
0.738345

>  <SCORE.INTRA.VDW.0>
-1.067

>  <SCORE.INTRA.norm>
-0.0411815

>  <SCORE.RESTR>
0.228081

>  <SCORE.RESTR.CAVITY>
0.228081

>  <SCORE.RESTR.norm>
0.0142551

>  <SCORE.SYSTEM>
0

>  <SCORE.SYSTEM.CONST>
0

>  <SCORE.SYSTEM.DIHEDRAL>
0

>  <SCORE.SYSTEM.SOLV>
0

>  <SCORE.SYSTEM.norm>
0

>  <SCORE.heavy>
16

>  <SCORE.norm>
-2.01721

>  <RMSD>
2.033

$$$$
1f27 biotin aptamer (Xray 1.3A)
 OpenBabel11021811393D
libRbt.so/2013.1/901 2013/11/27
 16 17  0  0  0  0  0  0  0  0999 V2000
   18.7548   -2.9943   14.3396 C   0  0  0  0  0  0  0  0  0  0  0  0
   17.9126   -3.8729   14.4951 O   0  5  0  0  0  0  0  0  0  0  0  0
   19.8331   -3.0698   14.9262 O   0  0  0  0  0  0  0  0  0  0  0  0
   18.4941   -1.8484   13.3703 C   0  0  0  0  0  0  0  0  0  0  0  0
   18.0555   -0.5347   14.0550 C   0  0  0  0  0  0  0  0  0  0  0  0
   17.9226    0.6004   13.0567 C   0  0  0  0  0  0  0  0  0  0  0  0
   17.4857    1.9083   13.6831 C   0  0  0  0  0  0  0  0  0  0  0  0
   15.9987    1.9791   14.0544 C   0  0  2  0  0  0  0  0  0  0  0  0
   15.0097    0.3513   13.8600 S   0  0  0  0  0  0  0  0  0  0  0  0
   13.4343    1.4184   14.0164 C   0  0  0  0  0  0  0  0  0  0  0  0
   13.7825    2.7579   13.3039 C   0  0  2  0  0  0  0  0  0  0  0  0
   13.3581    2.5670   11.8231 N   0  0  0  0  0  0  0  0  0  0  0  0
   14.3139    2.6941   11.0086 C   0  0  0  0  0  0  0  0  0  0  0  0
   14.3709    2.4492    9.7514 O   0  0  0  0  0  0  0  0  0  0  0  0
   15.6045    2.8271   11.6445 N   0  0  0  0  0  0  0  0  0  0  0  0
   15.2774    2.9637   13.1312 C   0  0  2  0  0  0  0  0  0  0  0  0
  1  2  1  0  0  0  0
  1  3  2  0  0  0  0
  1  4  1  0  0  0  0
  4  5  1  0  0  0  0
  5  6  1  0  0  0  0
  6  7  1  0  0  0  0
  8  7  1  6  0  0  0
  8  9  1  0  0  0  0
  8 16  1  0  0  0  0
  9 10  1  0  0  0  0
 11 10  1  1  0  0  0
 11 12  1  0  0  0  0
 11 16  1  0  0  0  0
 12 13  1  0  0  0  0
 13 14  2  0  0  0  0
 13 15  1  0  0  0  0
 16 15  1  6  0  0  0
M  CHG  1   2  -1
M  END
>  <CHROM.1>
101.23517396,175.24021845,179.65453690,-75.58679496,7.01840208,16.15851780
0.56903030,13.19609014,-0.84500589,0.38379772,-0.75292704

>  <Name>
1f27 biotin aptamer (Xray 1.3A)

>  <RI>
0

>  <Rbt.Current_Directory>
/home/itssahil/PROJECTS/Mol_Feturizer/New_Systems/rnas/1f27

>  <Rbt.Executable>
rbdock ($Id: //depot/dev/client3/rdock/2013.1/src/exe/rbdock.cxx#4 $)

>  <Rbt.Library>
libRbt.so (2013.1, Build901 2013/11/27)

>  <Rbt.Parameter_File>
/export/apps/rDock/src/rDock_2013.1_src/data/scripts/dock_solv.prm

>  <Rbt.Receptor>
prm/pocket_docking_6.prm

>  <SCORE>
-25.6668

>  <SCORE.INTER>
-26.8889

>  <SCORE.INTER.CONST>
1

>  <SCORE.INTER.POLAR>
-1.53196

>  <SCORE.INTER.ROT>
5

>  <SCORE.INTER.SOLV>
10.487

>  <SCORE.INTER.VDW>
-23.2484

>  <SCORE.INTER.norm>
-1.68056

>  <SCORE.INTRA>
1.22206

>  <SCORE.INTRA.DIHEDRAL>
1.27615

>  <SCORE.INTRA.DIHEDRAL.0>
6.87082

>  <SCORE.INTRA.POLAR>
0

>  <SCORE.INTRA.POLAR.0>
0

>  <SCORE.INTRA.REPUL>
0

>  <SCORE.INTRA.REPUL.0>
0

>  <SCORE.INTRA.SOLV>
-0.548664

>  <SCORE.INTRA.SOLV.lig_0>
-42.5944

>  <SCORE.INTRA.VDW>
0.858321

>  <SCORE.INTRA.VDW.0>
-1.067

>  <SCORE.INTRA.norm>
0.0763789

>  <SCORE.RESTR>
0

>  <SCORE.RESTR.CAVITY>
0

>  <SCORE.RESTR.norm>
0

>  <SCORE.SYSTEM>
0

>  <SCORE.SYSTEM.CONST>
0

>  <SCORE.SYSTEM.DIHEDRAL>
0

>  <SCORE.SYSTEM.SOLV>
0

>  <SCORE.SYSTEM.norm>
0

>  <SCORE.heavy>
16

>  <SCORE.norm>
-1.60418

>  <RMSD>
2.039

$$$$
1f27 biotin aptamer (Xray 1.3A)
 OpenBabel11021811393D
libRbt.so/2013.1/901 2013/11/27
 16 17  0  0  0  0  0  0  0  0999 V2000
   20.6513    0.7172   12.5831 C   0  0  0  0  0  0  0  0  0  0  0  0
   21.6596    0.0248   12.4877 O   0  5  0  0  0  0  0  0  0  0  0  0
   20.7540    1.9404   12.6584 O   0  0  0  0  0  0  0  0  0  0  0  0
   19.2728    0.0704   12.5395 C   0  0  0  0  0  0  0  0  0  0  0  0
   18.6217   -0.1135   13.9285 C   0  0  0  0  0  0  0  0  0  0  0  0
   18.5210    1.2017   14.6788 C   0  0  0  0  0  0  0  0  0  0  0  0
   17.5743    2.1936   14.0356 C   0  0  0  0  0  0  0  0  0  0  0  0
   16.0853    1.8612   14.1990 C   0  0  2  0  0  0  0  0  0  0  0  0
   15.5313    0.1543   13.5319 S   0  0  0  0  0  0  0  0  0  0  0  0
   13.7407    0.7994   13.6821 C   0  0  0  0  0  0  0  0  0  0  0  0
   13.8253    2.3111   13.3208 C   0  0  2  0  0  0  0  0  0  0  0  0
   13.5943    2.3886   11.7879 N   0  0  0  0  0  0  0  0  0  0  0  0
   14.5628    2.9014   11.1615 C   0  0  0  0  0  0  0  0  0  0  0  0
   14.7900    2.9763    9.9019 O   0  0  0  0  0  0  0  0  0  0  0  0
   15.7221    3.1494   11.9874 N   0  0  0  0  0  0  0  0  0  0  0  0
   15.2384    2.8611   13.4084 C   0  0  2  0  0  0  0  0  0  0  0  0
  1  2  1  0  0  0  0
  1  3  2  0  0  0  0
  1  4  1  0  0  0  0
  4  5  1  0  0  0  0
  5  6  1  0  0  0  0
  6  7  1  0  0  0  0
  8  7  1  6  0  0  0
  8  9  1  0  0  0  0
  8 16  1  0  0  0  0
  9 10  1  0  0  0  0
 11 10  1  6  0  0  0
 11 12  1  0  0  0  0
 11 16  1  0  0  0  0
 12 13  1  0  0  0  0
 13 14  2  0  0  0  0
 13 15  1  0  0  0  0
 16 15  1  6  0  0  0
M  CHG  1   2  -1
M  END
>  <CHROM.1>
100.58566904,56.22779710,66.20537428,73.37803108,-57.53759022,16.82968211
1.48119212,12.88413434,-0.23880398,0.14106947,-0.95068494

>  <Name>
1f27 biotin aptamer (Xray 1.3A)

>  <RI>
0

>  <Rbt.Current_Directory>
/home/itssahil/PROJECTS/Mol_Feturizer/New_Systems/rnas/1f27

>  <Rbt.Executable>
rbdock ($Id: //depot/dev/client3/rdock/2013.1/src/exe/rbdock.cxx#4 $)

>  <Rbt.Library>
libRbt.so (2013.1, Build901 2013/11/27)

>  <Rbt.Parameter_File>
/export/apps/rDock/src/rDock_2013.1_src/data/scripts/dock_solv.prm

>  <Rbt.Receptor>
prm/blind_docking_100.prm

>  <SCORE>
-32.1309

>  <SCORE.INTER>
-31.2345

>  <SCORE.INTER.CONST>
1

>  <SCORE.INTER.POLAR>
-2.58842

>  <SCORE.INTER.ROT>
5

>  <SCORE.INTER.SOLV>
16.782

>  <SCORE.INTER.VDW>
-24.7223

>  <SCORE.INTER.norm>
-1.95216

>  <SCORE.INTRA>
-0.965503

>  <SCORE.INTRA.DIHEDRAL>
-4.45102

>  <SCORE.INTRA.DIHEDRAL.0>
6.87082

>  <SCORE.INTRA.POLAR>
0

>  <SCORE.INTRA.POLAR.0>
0

>  <SCORE.INTRA.REPUL>
0

>  <SCORE.INTRA.REPUL.0>
0

>  <SCORE.INTRA.SOLV>
0.8887

>  <SCORE.INTRA.SOLV.lig_0>
-42.5944

>  <SCORE.INTRA.VDW>
0.815658

>  <SCORE.INTRA.VDW.0>
-1.067

>  <SCORE.INTRA.norm>
-0.060344

>  <SCORE.RESTR>
0.0690923

>  <SCORE.RESTR.CAVITY>
0.0690923

>  <SCORE.RESTR.norm>
0.00431827

>  <SCORE.SYSTEM>
0

>  <SCORE.SYSTEM.CONST>
0

>  <SCORE.SYSTEM.DIHEDRAL>
0

>  <SCORE.SYSTEM.SOLV>
0

>  <SCORE.SYSTEM.norm>
0

>  <SCORE.heavy>
16

>  <SCORE.norm>
-2.00818

>  <RMSD>
2.047

$$$$
1f27 biotin aptamer (Xray 1.3A)
 OpenBabel11021811393D
libRbt.so/2013.1/901 2013/11/27
 16 17  0  0  0  0  0  0  0  0999 V2000
   20.2338   -0.6455   13.7192 C   0  0  0  0  0  0  0  0  0  0  0  0
   19.4634   -1.5986   13.7782 O   0  5  0  0  0  0  0  0  0  0  0  0
   21.1203   -0.5224   14.5627 O   0  0  0  0  0  0  0  0  0  0  0  0
   20.1372    0.3455   12.5663 C   0  0  0  0  0  0  0  0  0  0  0  0
   18.8270    1.1641   12.5507 C   0  0  0  0  0  0  0  0  0  0  0  0
   18.6888    2.0244   13.7931 C   0  0  0  0  0  0  0  0  0  0  0  0
   17.4187    2.8489   13.8192 C   0  0  0  0  0  0  0  0  0  0  0  0
   16.1589    2.0775   14.2342 C   0  0  2  0  0  0  0  0  0  0  0  0
   15.7022    0.5725   13.1424 S   0  0  0  0  0  0  0  0  0  0  0  0
   13.9956    0.6093   13.9973 C   0  0  0  0  0  0  0  0  0  0  0  0
   13.6933    2.1187   14.2288 C   0  0  2  0  0  0  0  0  0  0  0  0
   12.9321    2.5923   12.9617 N   0  0  0  0  0  0  0  0  0  0  0  0
   13.5200    3.5226   12.3437 C   0  0  0  0  0  0  0  0  0  0  0  0
   13.2770    4.0393   11.1957 O   0  0  0  0  0  0  0  0  0  0  0  0
   14.8354    3.8223   12.8609 N   0  0  0  0  0  0  0  0  0  0  0  0
   14.9341    2.9900   14.1390 C   0  0  2  0  0  0  0  0  0  0  0  0
  1  2  1  0  0  0  0
  1  3  2  0  0  0  0
  1  4  1  0  0  0  0
  4  5  1  0  0  0  0
  5  6  1  0  0  0  0
  6  7  1  0  0  0  0
  8  7  1  6  0  0  0
  8  9  1  0  0  0  0
  8 16  1  0  0  0  0
  9 10  1  0  0  0  0
 11 10  1  6  0  0  0
 11 12  1  0  0  0  0
 11 16  1  0  0  0  0
 12 13  1  0  0  0  0
 13 14  2  0  0  0  0
 13 15  1  0  0  0  0
 16 15  1  6  0  0  0
M  CHG  1   2  -1
M  END
>  <CHROM.1>
65.77557339,62.28059893,179.83704770,79.17657920,-58.96500553,16.52120486
1.52799418,13.33538980,0.48566294,-0.04478106,2.79615650

>  <Name>
1f27 biotin aptamer (Xray 1.3A)

>  <RI>
0

>  <Rbt.Current_Directory>
/home/itssahil/PROJECTS/Mol_Feturizer/New_Systems/rnas/1f27

>  <Rbt.Executable>
rbdock ($Id: //depot/dev/client3/rdock/2013.1/src/exe/rbdock.cxx#4 $)

>  <Rbt.Library>
libRbt.so (2013.1, Build901 2013/11/27)

>  <Rbt.Parameter_File>
/export/apps/rDock/src/rDock_2013.1_src/data/scripts/dock_solv.prm

>  <Rbt.Receptor>
prm/blind_docking_60.prm

>  <SCORE>
-26.695

>  <SCORE.INTER>
-24.8394

>  <SCORE.INTER.CONST>
1

>  <SCORE.INTER.POLAR>
-0.848528

>  <SCORE.INTER.ROT>
5

>  <SCORE.INTER.SOLV>
8.50701

>  <SCORE.INTER.VDW>
-23.5002

>  <SCORE.INTER.norm>
-1.55246

>  <SCORE.INTRA>
-1.85559

>  <SCORE.INTRA.DIHEDRAL>
-4.03989

>  <SCORE.INTRA.DIHEDRAL.0>
6.87082

>  <SCORE.INTRA.POLAR>
0

>  <SCORE.INTRA.POLAR.0>
0

>  <SCORE.INTRA.REPUL>
0

>  <SCORE.INTRA.REPUL.0>
0

>  <SCORE.INTRA.SOLV>
0.308713

>  <SCORE.INTRA.SOLV.lig_0>
-42.5944

>  <SCORE.INTRA.VDW>
0.00999343

>  <SCORE.INTRA.VDW.0>
-1.067

>  <SCORE.INTRA.norm>
-0.115975

>  <SCORE.RESTR>
0

>  <SCORE.RESTR.CAVITY>
0

>  <SCORE.RESTR.norm>
0

>  <SCORE.SYSTEM>
0

>  <SCORE.SYSTEM.CONST>
0

>  <SCORE.SYSTEM.DIHEDRAL>
0

>  <SCORE.SYSTEM.SOLV>
0

>  <SCORE.SYSTEM.norm>
0

>  <SCORE.heavy>
16

>  <SCORE.norm>
-1.66844

>  <RMSD>
2.048

$$$$
1f27 biotin aptamer (Xray 1.3A)
 OpenBabel11021811393D
libRbt.so/2013.1/901 2013/11/27
 16 17  0  0  0  0  0  0  0  0999 V2000
   20.3840    0.3245   14.4401 C   0  0  0  0  0  0  0  0  0  0  0  0
   21.0432    0.9011   15.2993 O   0  5  0  0  0  0  0  0  0  0  0  0
   19.5728   -0.5395   14.7688 O   0  0  0  0  0  0  0  0  0  0  0  0
   20.5192    0.7243   12.9764 C   0  0  0  0  0  0  0  0  0  0  0  0
   19.6634    1.9475   12.5784 C   0  0  0  0  0  0  0  0  0  0  0  0
   18.1796    1.6654   12.7261 C   0  0  0  0  0  0  0  0  0  0  0  0
   17.6181    2.0718   14.0726 C   0  0  0  0  0  0  0  0  0  0  0  0
   16.1150    1.8174   14.2466 C   0  0  2  0  0  0  0  0  0  0  0  0
   15.4747    0.1264   13.6171 S   0  0  0  0  0  0  0  0  0  0  0  0
   13.7188    0.8627   13.7579 C   0  0  0  0  0  0  0  0  0  0  0  0
   13.8771    2.3604   13.3643 C   0  0  2  0  0  0  0  0  0  0  0  0
   13.6450    2.4170   11.8307 N   0  0  0  0  0  0  0  0  0  0  0  0
   14.6356    2.8676   11.1913 C   0  0  0  0  0  0  0  0  0  0  0  0
   14.8618    2.9046    9.9298 O   0  0  0  0  0  0  0  0  0  0  0  0
   15.8085    3.0751   12.0090 N   0  0  0  0  0  0  0  0  0  0  0  0
   15.3161    2.8411   13.4369 C   0  0  2  0  0  0  0  0  0  0  0  0
  1  2  1  0  0  0  0
  1  3  2  0  0  0  0
  1  4  1  0  0  0  0
  4  5  1  0  0  0  0
  5  6  1  0  0  0  0
  6  7  1  0  0  0  0
  8  7  1  6  0  0  0
  8  9  1  0  0  0  0
  8 16  1  0  0  0  0
  9 10  1  0  0  0  0
 11 10  1  6  0  0  0
 11 12  1  0  0  0  0
 11 16  1  0  0  0  0
 12 13  1  0  0  0  0
 13 14  2  0  0  0  0
 13 15  1  0  0  0  0
 16 15  1  6  0  0  0
M  CHG  1   2  -1
M  END
>  <CHROM.1>
-82.88206404,-63.49139079,92.78616643,179.18707274,43.88244104,16.82958133
1.52248440,13.16567026,0.42727508,-0.00256456,2.22265713

>  <Name>
1f27 biotin aptamer (Xray 1.3A)

>  <RI>
0

>  <Rbt.Current_Directory>
/home/itssahil/PROJECTS/Mol_Feturizer/New_Systems/rnas/1f27

>  <Rbt.Executable>
rbdock ($Id: //depot/dev/client3/rdock/2013.1/src/exe/rbdock.cxx#4 $)

>  <Rbt.Library>
libRbt.so (2013.1, Build901 2013/11/27)

>  <Rbt.Parameter_File>
/export/apps/rDock/src/rDock_2013.1_src/data/scripts/dock_solv.prm

>  <Rbt.Receptor>
prm/pocket_docking_6.prm

>  <SCORE>
-29.8023

>  <SCORE.INTER>
-30.9337

>  <SCORE.INTER.CONST>
1

>  <SCORE.INTER.POLAR>
-1.85555

>  <SCORE.INTER.ROT>
5

>  <SCORE.INTER.SOLV>
12.4633

>  <SCORE.INTER.VDW>
-25.5251

>  <SCORE.INTER.norm>
-1.93336

>  <SCORE.INTRA>
1.13142

>  <SCORE.INTRA.DIHEDRAL>
-1.09146

>  <SCORE.INTRA.DIHEDRAL.0>
6.87082

>  <SCORE.INTRA.POLAR>
0

>  <SCORE.INTRA.POLAR.0>
0

>  <SCORE.INTRA.REPUL>
0

>  <SCORE.INTRA.REPUL.0>
0

>  <SCORE.INTRA.SOLV>
2.11941

>  <SCORE.INTRA.SOLV.lig_0>
-42.5944

>  <SCORE.INTRA.VDW>
0.617444

>  <SCORE.INTRA.VDW.0>
-1.067

>  <SCORE.INTRA.norm>
0.0707135

>  <SCORE.RESTR>
0

>  <SCORE.RESTR.CAVITY>
0

>  <SCORE.RESTR.norm>
0

>  <SCORE.SYSTEM>
0

>  <SCORE.SYSTEM.CONST>
0

>  <SCORE.SYSTEM.DIHEDRAL>
0

>  <SCORE.SYSTEM.SOLV>
0

>  <SCORE.SYSTEM.norm>
0

>  <SCORE.heavy>
16

>  <SCORE.norm>
-1.86264

>  <RMSD>
2.049

$$$$
1f27 biotin aptamer (Xray 1.3A)
 OpenBabel11021811393D
libRbt.so/2013.1/901 2013/11/27
 16 17  0  0  0  0  0  0  0  0999 V2000
   21.0244   -0.7041   16.5029 C   0  0  0  0  0  0  0  0  0  0  0  0
   20.6267   -1.8346   16.7660 O   0  5  0  0  0  0  0  0  0  0  0  0
   21.7001   -0.0868   17.3244 O   0  0  0  0  0  0  0  0  0  0  0  0
   20.7412   -0.0926   15.1368 C   0  0  0  0  0  0  0  0  0  0  0  0
   19.4337    0.7282   15.0756 C   0  0  0  0  0  0  0  0  0  0  0  0
   19.2425    1.3774   13.7174 C   0  0  0  0  0  0  0  0  0  0  0  0
   18.1268    2.4011   13.6883 C   0  0  0  0  0  0  0  0  0  0  0  0
   16.7309    1.8407   13.9914 C   0  0  2  0  0  0  0  0  0  0  0  0
   16.3234    0.1422   13.2074 S   0  0  0  0  0  0  0  0  0  0  0  0
   14.4999    0.5013   13.6441 C   0  0  0  0  0  0  0  0  0  0  0  0
   14.3334    2.0366   13.4483 C   0  0  2  0  0  0  0  0  0  0  0  0
   13.8892    2.2246   11.9730 N   0  0  0  0  0  0  0  0  0  0  0  0
   14.6874    2.9305   11.2964 C   0  0  0  0  0  0  0  0  0  0  0  0
   14.7302    3.1570   10.0352 O   0  0  0  0  0  0  0  0  0  0  0  0
   15.9044    3.2658   11.9994 N   0  0  0  0  0  0  0  0  0  0  0  0
   15.6598    2.7764   13.4265 C   0  0  2  0  0  0  0  0  0  0  0  0
  1  2  1  0  0  0  0
  1  3  2  0  0  0  0
  1  4  1  0  0  0  0
  4  5  1  0  0  0  0
  5  6  1  0  0  0  0
  6  7  1  0  0  0  0
  8  7  1  6  0  0  0
  8  9  1  0  0  0  0
  8 16  1  0  0  0  0
  9 10  1  0  0  0  0
 11 10  1  6  0  0  0
 11 12  1  0  0  0  0
 11 16  1  0  0  0  0
 12 13  1  0  0  0  0
 13 14  2  0  0  0  0
 13 15  1  0  0  0  0
 16 15  1  6  0  0  0
M  CHG  1   2  -1
M  END
>  <CHROM.1>
91.43502469,176.76947735,-168.82570063,-62.37868770,-40.78954197,17.31096397
1.18828350,13.78559784,0.66601318,0.28545136,2.49947912

>  <Name>
1f27 biotin aptamer (Xray 1.3A)

>  <RI>
0

>  <Rbt.Current_Directory>
/home/itssahil/PROJECTS/Mol_Feturizer/New_Systems/rnas/1f27

>  <Rbt.Executable>
rbdock ($Id: //depot/dev/client3/rdock/2013.1/src/exe/rbdock.cxx#4 $)

>  <Rbt.Library>
libRbt.so (2013.1, Build901 2013/11/27)

>  <Rbt.Parameter_File>
/export/apps/rDock/src/rDock_2013.1_src/data/scripts/dock_solv.prm

>  <Rbt.Receptor>
prm/pocket_docking_5.prm

>  <SCORE>
-31.8113

>  <SCORE.INTER>
-29.9832

>  <SCORE.INTER.CONST>
1

>  <SCORE.INTER.POLAR>
-2.47371

>  <SCORE.INTER.ROT>
5

>  <SCORE.INTER.SOLV>
10.4983

>  <SCORE.INTER.VDW>
-22.1759

>  <SCORE.INTER.norm>
-1.87395

>  <SCORE.INTRA>
-1.83532

>  <SCORE.INTRA.DIHEDRAL>
-3.45083

>  <SCORE.INTRA.DIHEDRAL.0>
6.87082

>  <SCORE.INTRA.POLAR>
0

>  <SCORE.INTRA.POLAR.0>
0

>  <SCORE.INTRA.REPUL>
0

>  <SCORE.INTRA.REPUL.0>
0

>  <SCORE.INTRA.SOLV>
-0.783316

>  <SCORE.INTRA.SOLV.lig_0>
-42.5944

>  <SCORE.INTRA.VDW>
0.281754

>  <SCORE.INTRA.VDW.0>
-1.067

>  <SCORE.INTRA.norm>
-0.114707

>  <SCORE.RESTR>
0.00728342

>  <SCORE.RESTR.CAVITY>
0.00728342

>  <SCORE.RESTR.norm>
0.000455214

>  <SCORE.SYSTEM>
0

>  <SCORE.SYSTEM.CONST>
0

>  <SCORE.SYSTEM.DIHEDRAL>
0

>  <SCORE.SYSTEM.SOLV>
0

>  <SCORE.SYSTEM.norm>
0

>  <SCORE.heavy>
16

>  <SCORE.norm>
-1.9882

>  <RMSD>
2.055

$$$$
1f27 biotin aptamer (Xray 1.3A)
 OpenBabel11021811393D
libRbt.so/2013.1/901 2013/11/27
 16 17  0  0  0  0  0  0  0  0999 V2000
   21.2835    0.3688   13.7936 C   0  0  0  0  0  0  0  0  0  0  0  0
   21.7137    0.1549   12.6647 O   0  5  0  0  0  0  0  0  0  0  0  0
   21.9258    1.0743   14.5696 O   0  0  0  0  0  0  0  0  0  0  0  0
   19.9254   -0.1807   14.2110 C   0  0  0  0  0  0  0  0  0  0  0  0
   18.9059    0.9072   14.6160 C   0  0  0  0  0  0  0  0  0  0  0  0
   18.5173    1.7783   13.4358 C   0  0  0  0  0  0  0  0  0  0  0  0
   17.4018    2.7545   13.7463 C   0  0  0  0  0  0  0  0  0  0  0  0
   16.0856    2.1062   14.1956 C   0  0  2  0  0  0  0  0  0  0  0  0
   15.5159    0.5831   13.1851 S   0  0  0  0  0  0  0  0  0  0  0  0
   13.8159    0.7980   14.0268 C   0  0  0  0  0  0  0  0  0  0  0  0
   13.6305    2.3365   14.1738 C   0  0  2  0  0  0  0  0  0  0  0  0
   12.9101    2.7969   12.8784 N   0  0  0  0  0  0  0  0  0  0  0  0
   13.5689    3.6439   12.2138 C   0  0  0  0  0  0  0  0  0  0  0  0
   13.3682    4.1140   11.0380 O   0  0  0  0  0  0  0  0  0  0  0  0
   14.9027    3.8696   12.7214 N   0  0  0  0  0  0  0  0  0  0  0  0
   14.9350    3.1036   14.0436 C   0  0  2  0  0  0  0  0  0  0  0  0
  1  2  1  0  0  0  0
  1  3  2  0  0  0  0
  1  4  1  0  0  0  0
  4  5  1  0  0  0  0
  5  6  1  0  0  0  0
  6  7  1  0  0  0  0
  8  7  1  6  0  0  0
  8  9  1  0  0  0  0
  8 16  1  0  0  0  0
  9 10  1  0  0  0  0
 11 10  1  6  0  0  0
 11 12  1  0  0  0  0
 11 16  1  0  0  0  0
 12 13  1  0  0  0  0
 13 14  2  0  0  0  0
 13 15  1  0  0  0  0
 16 15  1  6  0  0  0
M  CHG  1   2  -1
M  END
>  <CHROM.1>
-119.69104705,66.26107345,173.29666716,-59.84679817,-44.23643812,16.72459082
1.79149586,13.42201501,-0.34367396,0.03510324,-0.52417933

>  <Name>
1f27 biotin aptamer (Xray 1.3A)

>  <RI>
0

>  <Rbt.Current_Directory>
/home/itssahil/PROJECTS/Mol_Feturizer/New_Systems/rnas/1f27

>  <Rbt.Executable>
rbdock ($Id: //depot/dev/client3/rdock/2013.1/src/exe/rbdock.cxx#4 $)

>  <Rbt.Library>
libRbt.so (2013.1, Build901 2013/11/27)

>  <Rbt.Parameter_File>
/export/apps/rDock/src/rDock_2013.1_src/data/scripts/dock_solv.prm

>  <Rbt.Receptor>
prm/blind_docking_40.prm

>  <SCORE>
-27.1441

>  <SCORE.INTER>
-25.5114

>  <SCORE.INTER.CONST>
1

>  <SCORE.INTER.POLAR>
-1.48384

>  <SCORE.INTER.ROT>
5

>  <SCORE.INTER.SOLV>
15.2833

>  <SCORE.INTER.VDW>
-24.0892

>  <SCORE.INTER.norm>
-1.59446

>  <SCORE.INTRA>
-1.6328

>  <SCORE.INTRA.DIHEDRAL>
-4.21181

>  <SCORE.INTRA.DIHEDRAL.0>
6.87082

>  <SCORE.INTRA.POLAR>
0

>  <SCORE.INTRA.POLAR.0>
0

>  <SCORE.INTRA.REPUL>
0

>  <SCORE.INTRA.REPUL.0>
0

>  <SCORE.INTRA.SOLV>
0.169452

>  <SCORE.INTRA.SOLV.lig_0>
-42.5944

>  <SCORE.INTRA.VDW>
0.388383

>  <SCORE.INTRA.VDW.0>
-1.067

>  <SCORE.INTRA.norm>
-0.10205

>  <SCORE.RESTR>
0

>  <SCORE.RESTR.CAVITY>
0

>  <SCORE.RESTR.norm>
0

>  <SCORE.SYSTEM>
0

>  <SCORE.SYSTEM.CONST>
0

>  <SCORE.SYSTEM.DIHEDRAL>
0

>  <SCORE.SYSTEM.SOLV>
0

>  <SCORE.SYSTEM.norm>
0

>  <SCORE.heavy>
16

>  <SCORE.norm>
-1.69651

>  <RMSD>
2.057

$$$$
1f27 biotin aptamer (Xray 1.3A)
 OpenBabel11021811393D
libRbt.so/2013.1/901 2013/11/27
 16 17  0  0  0  0  0  0  0  0999 V2000
   21.5352    0.7122   14.2161 C   0  0  0  0  0  0  0  0  0  0  0  0
   22.2023    1.4026   14.9801 O   0  5  0  0  0  0  0  0  0  0  0  0
   21.4332   -0.4971   14.4157 O   0  0  0  0  0  0  0  0  0  0  0  0
   20.7790    1.3599   13.0632 C   0  0  0  0  0  0  0  0  0  0  0  0
   19.3894    0.7394   12.7970 C   0  0  0  0  0  0  0  0  0  0  0  0
   18.3855    1.1343   13.8642 C   0  0  0  0  0  0  0  0  0  0  0  0
   17.0460    0.4426   13.7197 C   0  0  0  0  0  0  0  0  0  0  0  0
   15.8389    1.2769   14.1682 C   0  0  2  0  0  0  0  0  0  0  0  0
   14.1186    0.5063   13.8329 S   0  0  0  0  0  0  0  0  0  0  0  0
   13.3956    2.2370   14.1888 C   0  0  0  0  0  0  0  0  0  0  0  0
   14.4455    3.2367   13.6217 C   0  0  2  0  0  0  0  0  0  0  0  0
   14.0233    3.4976   12.1510 N   0  0  0  0  0  0  0  0  0  0  0  0
   14.9091    3.1750   11.3117 C   0  0  0  0  0  0  0  0  0  0  0  0
   14.8520    3.0976   10.0332 O   0  0  0  0  0  0  0  0  0  0  0  0
   16.0408    2.4924   11.8957 N   0  0  0  0  0  0  0  0  0  0  0  0
   15.8076    2.6014   13.4023 C   0  0  2  0  0  0  0  0  0  0  0  0
  1  2  1  0  0  0  0
  1  3  2  0  0  0  0
  1  4  1  0  0  0  0
  4  5  1  0  0  0  0
  5  6  1  0  0  0  0
  6  7  1  0  0  0  0
  8  7  1  6  0  0  0
  8  9  1  0  0  0  0
  8 16  1  0  0  0  0
  9 10  1  0  0  0  0
 11 10  1  6  0  0  0
 11 12  1  0  0  0  0
 11 16  1  0  0  0  0
 12 13  1  0  0  0  0
 13 14  2  0  0  0  0
 13 15  1  0  0  0  0
 16 15  1  6  0  0  0
M  CHG  1   2  -1
M  END
>  <CHROM.1>
-141.49808982,73.35324793,-174.39709362,-147.25492267,173.93972542,16.95737245
1.61307794,13.25989367,-0.31271381,0.06880713,-0.92190810

>  <Name>
1f27 biotin aptamer (Xray 1.3A)

>  <RI>
0

>  <Rbt.Current_Directory>
/home/itssahil/PROJECTS/Mol_Feturizer/New_Systems/rnas/1f27

>  <Rbt.Executable>
rbdock ($Id: //depot/dev/client3/rdock/2013.1/src/exe/rbdock.cxx#4 $)

>  <Rbt.Library>
libRbt.so (2013.1, Build901 2013/11/27)

>  <Rbt.Parameter_File>
/export/apps/rDock/src/rDock_2013.1_src/data/scripts/dock_solv.prm

>  <Rbt.Receptor>
prm/blind_docking_60.prm

>  <SCORE>
-26.1321

>  <SCORE.INTER>
-26.3712

>  <SCORE.INTER.CONST>
1

>  <SCORE.INTER.POLAR>
-1.26639

>  <SCORE.INTER.ROT>
5

>  <SCORE.INTER.SOLV>
14.5716

>  <SCORE.INTER.VDW>
-25.15

>  <SCORE.INTER.norm>
-1.6482

>  <SCORE.INTRA>
0.239085

>  <SCORE.INTRA.DIHEDRAL>
-1.00843

>  <SCORE.INTRA.DIHEDRAL.0>
6.87082

>  <SCORE.INTRA.POLAR>
0

>  <SCORE.INTRA.POLAR.0>
0

>  <SCORE.INTRA.REPUL>
0

>  <SCORE.INTRA.REPUL.0>
0

>  <SCORE.INTRA.SOLV>
0.427102

>  <SCORE.INTRA.SOLV.lig_0>
-42.5944

>  <SCORE.INTRA.VDW>
0.52975

>  <SCORE.INTRA.VDW.0>
-1.067

>  <SCORE.INTRA.norm>
0.0149428

>  <SCORE.RESTR>
0

>  <SCORE.RESTR.CAVITY>
0

>  <SCORE.RESTR.norm>
0

>  <SCORE.SYSTEM>
0

>  <SCORE.SYSTEM.CONST>
0

>  <SCORE.SYSTEM.DIHEDRAL>
0

>  <SCORE.SYSTEM.SOLV>
0

>  <SCORE.SYSTEM.norm>
0

>  <SCORE.heavy>
16

>  <SCORE.norm>
-1.63326

>  <RMSD>
2.058

$$$$
1f27 biotin aptamer (Xray 1.3A)
 OpenBabel11021811393D
libRbt.so/2013.1/901 2013/11/27
 16 17  0  0  0  0  0  0  0  0999 V2000
   20.2865   -1.0331   16.0949 C   0  0  0  0  0  0  0  0  0  0  0  0
   19.8226   -1.2091   17.2170 O   0  5  0  0  0  0  0  0  0  0  0  0
   21.3300   -1.5964   15.7691 O   0  0  0  0  0  0  0  0  0  0  0  0
   19.5374   -0.1742   15.0841 C   0  0  0  0  0  0  0  0  0  0  0  0
   20.2772    1.1248   14.6939 C   0  0  0  0  0  0  0  0  0  0  0  0
   19.5560    1.8692   13.5855 C   0  0  0  0  0  0  0  0  0  0  0  0
   18.2754    2.5378   14.0402 C   0  0  0  0  0  0  0  0  0  0  0  0
   17.0891    1.5860   14.2428 C   0  0  2  0  0  0  0  0  0  0  0  0
   16.7250    0.3841   12.7975 S   0  0  0  0  0  0  0  0  0  0  0  0
   15.0409    0.0599   13.6363 C   0  0  0  0  0  0  0  0  0  0  0  0
   14.6282    1.4279   14.2538 C   0  0  2  0  0  0  0  0  0  0  0  0
   13.8034    2.1510   13.1556 N   0  0  0  0  0  0  0  0  0  0  0  0
   14.3031    3.2542   12.8000 C   0  0  0  0  0  0  0  0  0  0  0  0
   13.9943    4.0298   11.8270 O   0  0  0  0  0  0  0  0  0  0  0  0
   15.6030    3.5147   13.3745 N   0  0  0  0  0  0  0  0  0  0  0  0
   15.7955    2.3900   14.3914 C   0  0  2  0  0  0  0  0  0  0  0  0
  1  2  1  0  0  0  0
  1  3  2  0  0  0  0
  1  4  1  0  0  0  0
  4  5  1  0  0  0  0
  5  6  1  0  0  0  0
  6  7  1  0  0  0  0
  8  7  1  6  0  0  0
  8  9  1  0  0  0  0
  8 16  1  0  0  0  0
  9 10  1  0  0  0  0
 11 10  1  6  0  0  0
 11 12  1  0  0  0  0
 11 16  1  0  0  0  0
 12 13  1  0  0  0  0
 13 14  2  0  0  0  0
 13 15  1  0  0  0  0
 16 15  1  6  0  0  0
M  CHG  1   2  -1
M  END
>  <CHROM.1>
114.58484651,174.26510806,72.44836775,-76.04632949,-49.87810863,17.23738627
1.19346211,14.08472586,0.62945679,0.19165274,2.69811160

>  <Name>
1f27 biotin aptamer (Xray 1.3A)

>  <RI>
0

>  <Rbt.Current_Directory>
/home/itssahil/PROJECTS/Mol_Feturizer/New_Systems/rnas/1f27

>  <Rbt.Executable>
rbdock ($Id: //depot/dev/client3/rdock/2013.1/src/exe/rbdock.cxx#4 $)

>  <Rbt.Library>
libRbt.so (2013.1, Build901 2013/11/27)

>  <Rbt.Parameter_File>
/export/apps/rDock/src/rDock_2013.1_src/data/scripts/dock_solv.prm

>  <Rbt.Receptor>
prm/pocket_docking_7.prm

>  <SCORE>
-26.9551

>  <SCORE.INTER>
-25.3506

>  <SCORE.INTER.CONST>
1

>  <SCORE.INTER.POLAR>
-1.58075

>  <SCORE.INTER.ROT>
5

>  <SCORE.INTER.SOLV>
10.2641

>  <SCORE.INTER.VDW>
-21.9859

>  <SCORE.INTER.norm>
-1.58441

>  <SCORE.INTRA>
-1.60452

>  <SCORE.INTRA.DIHEDRAL>
-3.2897

>  <SCORE.INTRA.DIHEDRAL.0>
6.87082

>  <SCORE.INTRA.POLAR>
0

>  <SCORE.INTRA.POLAR.0>
0

>  <SCORE.INTRA.REPUL>
0

>  <SCORE.INTRA.REPUL.0>
0

>  <SCORE.INTRA.SOLV>
-0.736256

>  <SCORE.INTRA.SOLV.lig_0>
-42.5944

>  <SCORE.INTRA.VDW>
0.408454

>  <SCORE.INTRA.VDW.0>
-1.067

>  <SCORE.INTRA.norm>
-0.100283

>  <SCORE.RESTR>
0

>  <SCORE.RESTR.CAVITY>
0

>  <SCORE.RESTR.norm>
0

>  <SCORE.SYSTEM>
0

>  <SCORE.SYSTEM.CONST>
0

>  <SCORE.SYSTEM.DIHEDRAL>
0

>  <SCORE.SYSTEM.SOLV>
0

>  <SCORE.SYSTEM.norm>
0

>  <SCORE.heavy>
16

>  <SCORE.norm>
-1.68469

>  <RMSD>
2.058

$$$$
1f27 biotin aptamer (Xray 1.3A)
 OpenBabel11021811393D
libRbt.so/2013.1/901 2013/11/27
 16 17  0  0  0  0  0  0  0  0999 V2000
   21.2028    0.3684   14.4216 C   0  0  0  0  0  0  0  0  0  0  0  0
   22.0690    0.9868   15.0319 O   0  5  0  0  0  0  0  0  0  0  0  0
   20.5570   -0.5070   14.9953 O   0  0  0  0  0  0  0  0  0  0  0  0
   20.8799    0.7294   12.9773 C   0  0  0  0  0  0  0  0  0  0  0  0
   19.8350    1.8581   12.8312 C   0  0  0  0  0  0  0  0  0  0  0  0
   18.5170    1.4901   13.4874 C   0  0  0  0  0  0  0  0  0  0  0  0
   17.5185    2.6284   13.5182 C   0  0  0  0  0  0  0  0  0  0  0  0
   16.0891    2.2206   13.8988 C   0  0  2  0  0  0  0  0  0  0  0  0
   15.6352    0.3850   13.5989 S   0  0  0  0  0  0  0  0  0  0  0  0
   13.8148    0.9110   13.8325 C   0  0  0  0  0  0  0  0  0  0  0  0
   13.7239    2.3351   13.2105 C   0  0  2  0  0  0  0  0  0  0  0  0
   13.3420    2.1181   11.7219 N   0  0  0  0  0  0  0  0  0  0  0  0
   14.1946    2.5806   10.9143 C   0  0  0  0  0  0  0  0  0  0  0  0
   14.2930    2.4444    9.6432 O   0  0  0  0  0  0  0  0  0  0  0  0
   15.3991    3.0590   11.5529 N   0  0  0  0  0  0  0  0  0  0  0  0
   15.0817    2.9958   13.0467 C   0  0  2  0  0  0  0  0  0  0  0  0
  1  2  1  0  0  0  0
  1  3  2  0  0  0  0
  1  4  1  0  0  0  0
  4  5  1  0  0  0  0
  5  6  1  0  0  0  0
  6  7  1  0  0  0  0
  8  7  1  6  0  0  0
  8  9  1  0  0  0  0
  8 16  1  0  0  0  0
  9 10  1  0  0  0  0
 11 10  1  1  0  0  0
 11 12  1  0  0  0  0
 11 16  1  0  0  0  0
 12 13  1  0  0  0  0
 13 14  2  0  0  0  0
 13 15  1  0  0  0  0
 16 15  1  6  0  0  0
M  CHG  1   2  -1
M  END
>  <CHROM.1>
-86.55609342,-59.31957829,172.94935714,167.73643762,-23.17030294,16.94772137
1.55051467,13.07551813,0.39458061,0.00005565,2.14455268

>  <Name>
1f27 biotin aptamer (Xray 1.3A)

>  <RI>
0

>  <Rbt.Current_Directory>
/home/itssahil/PROJECTS/Mol_Feturizer/New_Systems/rnas/1f27

>  <Rbt.Executable>
rbdock ($Id: //depot/dev/client3/rdock/2013.1/src/exe/rbdock.cxx#4 $)

>  <Rbt.Library>
libRbt.so (2013.1, Build901 2013/11/27)

>  <Rbt.Parameter_File>
/export/apps/rDock/src/rDock_2013.1_src/data/scripts/dock_solv.prm

>  <Rbt.Receptor>
prm/blind_docking_100.prm

>  <SCORE>
-25.3022

>  <SCORE.INTER>
-25.6123

>  <SCORE.INTER.CONST>
1

>  <SCORE.INTER.POLAR>
-1.23266

>  <SCORE.INTER.ROT>
5

>  <SCORE.INTER.SOLV>
12.9887

>  <SCORE.INTER.VDW>
-24.2289

>  <SCORE.INTER.norm>
-1.60077

>  <SCORE.INTRA>
0.300292

>  <SCORE.INTRA.DIHEDRAL>
-0.826353

>  <SCORE.INTRA.DIHEDRAL.0>
6.87082

>  <SCORE.INTRA.POLAR>
0

>  <SCORE.INTRA.POLAR.0>
0

>  <SCORE.INTRA.REPUL>
0

>  <SCORE.INTRA.REPUL.0>
0

>  <SCORE.INTRA.SOLV>
0.349937

>  <SCORE.INTRA.SOLV.lig_0>
-42.5944

>  <SCORE.INTRA.VDW>
0.5385

>  <SCORE.INTRA.VDW.0>
-1.067

>  <SCORE.INTRA.norm>
0.0187683

>  <SCORE.RESTR>
0.00978764

>  <SCORE.RESTR.CAVITY>
0.00978764

>  <SCORE.RESTR.norm>
0.000611728

>  <SCORE.SYSTEM>
0

>  <SCORE.SYSTEM.CONST>
0

>  <SCORE.SYSTEM.DIHEDRAL>
0

>  <SCORE.SYSTEM.SOLV>
0

>  <SCORE.SYSTEM.norm>
0

>  <SCORE.heavy>
16

>  <SCORE.norm>
-1.58139

>  <RMSD>
2.062

$$$$
1f27 biotin aptamer (Xray 1.3A)
 OpenBabel11021811393D
libRbt.so/2013.1/901 2013/11/27
 16 17  0  0  0  0  0  0  0  0999 V2000
   20.8311    0.0241   15.6547 C   0  0  0  0  0  0  0  0  0  0  0  0
   19.9887   -0.4990   16.3772 O   0  5  0  0  0  0  0  0  0  0  0  0
   21.8814    0.4396   16.1412 O   0  0  0  0  0  0  0  0  0  0  0  0
   20.6079    0.0977   14.1496 C   0  0  0  0  0  0  0  0  0  0  0  0
   20.1742    1.4929   13.6470 C   0  0  0  0  0  0  0  0  0  0  0  0
   18.8046    1.8780   14.1749 C   0  0  0  0  0  0  0  0  0  0  0  0
   17.6943    0.9651   13.6979 C   0  0  0  0  0  0  0  0  0  0  0  0
   16.2861    1.3738   14.1496 C   0  0  2  0  0  0  0  0  0  0  0  0
   14.8804    0.1477   13.7177 S   0  0  0  0  0  0  0  0  0  0  0  0
   13.6675    1.5602   14.1402 C   0  0  0  0  0  0  0  0  0  0  0  0
   14.3791    2.8593   13.6615 C   0  0  2  0  0  0  0  0  0  0  0  0
   13.9215    3.0706   12.1935 N   0  0  0  0  0  0  0  0  0  0  0  0
   14.8763    3.0773   11.3680 C   0  0  0  0  0  0  0  0  0  0  0  0
   14.8651    3.0634   10.0861 O   0  0  0  0  0  0  0  0  0  0  0  0
   16.1510    2.7286   11.9522 N   0  0  0  0  0  0  0  0  0  0  0  0
   15.8721    2.6725   13.4539 C   0  0  2  0  0  0  0  0  0  0  0  0
  1  2  1  0  0  0  0
  1  3  2  0  0  0  0
  1  4  1  0  0  0  0
  4  5  1  0  0  0  0
  5  6  1  0  0  0  0
  6  7  1  0  0  0  0
  8  7  1  6  0  0  0
  8  9  1  0  0  0  0
  8 16  1  0  0  0  0
  9 10  1  0  0  0  0
 11 10  1  6  0  0  0
 11 12  1  0  0  0  0
 11 16  1  0  0  0  0
 12 13  1  0  0  0  0
 13 14  2  0  0  0  0
 13 15  1  0  0  0  0
 16 15  1  6  0  0  0
M  CHG  1   2  -1
M  END
>  <CHROM.1>
103.16703249,-65.72191645,-63.25052726,-176.70498727,-173.97020155,17.04319038
1.44296778,13.66280550,0.54325830,0.03162546,2.22676948

>  <Name>
1f27 biotin aptamer (Xray 1.3A)

>  <RI>
0

>  <Rbt.Current_Directory>
/home/itssahil/PROJECTS/Mol_Feturizer/New_Systems/rnas/1f27

>  <Rbt.Executable>
rbdock ($Id: //depot/dev/client3/rdock/2013.1/src/exe/rbdock.cxx#4 $)

>  <Rbt.Library>
libRbt.so (2013.1, Build901 2013/11/27)

>  <Rbt.Parameter_File>
/export/apps/rDock/src/rDock_2013.1_src/data/scripts/dock_solv.prm

>  <Rbt.Receptor>
prm/pocket_docking_4.prm

>  <SCORE>
-27.1632

>  <SCORE.INTER>
-25.5877

>  <SCORE.INTER.CONST>
1

>  <SCORE.INTER.POLAR>
-1.40744

>  <SCORE.INTER.ROT>
5

>  <SCORE.INTER.SOLV>
13.9127

>  <SCORE.INTER.VDW>
-23.9379

>  <SCORE.INTER.norm>
-1.59923

>  <SCORE.INTRA>
-1.57547

>  <SCORE.INTRA.DIHEDRAL>
-5.05757

>  <SCORE.INTRA.DIHEDRAL.0>
6.87082

>  <SCORE.INTRA.POLAR>
0

>  <SCORE.INTRA.POLAR.0>
0

>  <SCORE.INTRA.REPUL>
0

>  <SCORE.INTRA.REPUL.0>
0

>  <SCORE.INTRA.SOLV>
0.620542

>  <SCORE.INTRA.SOLV.lig_0>
-42.5944

>  <SCORE.INTRA.VDW>
0.643045

>  <SCORE.INTRA.VDW.0>
-1.067

>  <SCORE.INTRA.norm>
-0.0984669

>  <SCORE.RESTR>
0

>  <SCORE.RESTR.CAVITY>
0

>  <SCORE.RESTR.norm>
0

>  <SCORE.SYSTEM>
0

>  <SCORE.SYSTEM.CONST>
0

>  <SCORE.SYSTEM.DIHEDRAL>
0

>  <SCORE.SYSTEM.SOLV>
0

>  <SCORE.SYSTEM.norm>
0

>  <SCORE.heavy>
16

>  <SCORE.norm>
-1.6977

>  <RMSD>
2.064

$$$$
1f27 biotin aptamer (Xray 1.3A)
 OpenBabel11021811393D
libRbt.so/2013.1/901 2013/11/27
 16 17  0  0  0  0  0  0  0  0999 V2000
   20.5012   -0.0943   14.3548 C   0  0  0  0  0  0  0  0  0  0  0  0
   19.5593   -0.5609   14.9875 O   0  5  0  0  0  0  0  0  0  0  0  0
   21.5723    0.1189   14.9203 O   0  0  0  0  0  0  0  0  0  0  0  0
   20.3675    0.1566   12.8582 C   0  0  0  0  0  0  0  0  0  0  0  0
   19.0614    0.8780   12.4572 C   0  0  0  0  0  0  0  0  0  0  0  0
   18.9460    2.2380   13.1205 C   0  0  0  0  0  0  0  0  0  0  0  0
   17.6132    2.9162   12.8810 C   0  0  0  0  0  0  0  0  0  0  0  0
   16.4384    2.3237   13.6703 C   0  0  2  0  0  0  0  0  0  0  0  0
   15.8528    0.5859   13.1199 S   0  0  0  0  0  0  0  0  0  0  0  0
   14.2865    0.9034   14.1644 C   0  0  0  0  0  0  0  0  0  0  0  0
   13.9973    2.4246   14.0049 C   0  0  2  0  0  0  0  0  0  0  0  0
   13.0544    2.5450   12.7778 N   0  0  0  0  0  0  0  0  0  0  0  0
   13.5327    3.2506   11.8469 C   0  0  0  0  0  0  0  0  0  0  0  0
   13.1192    3.4324   10.6471 O   0  0  0  0  0  0  0  0  0  0  0  0
   14.9041    3.6491   12.0667 N   0  0  0  0  0  0  0  0  0  0  0  0
   15.1986    3.2043   13.4990 C   0  0  2  0  0  0  0  0  0  0  0  0
  1  2  1  0  0  0  0
  1  3  2  0  0  0  0
  1  4  1  0  0  0  0
  4  5  1  0  0  0  0
  5  6  1  0  0  0  0
  6  7  1  0  0  0  0
  8  7  1  6  0  0  0
  8  9  1  0  0  0  0
  8 16  1  0  0  0  0
  9 10  1  0  0  0  0
 11 10  1  6  0  0  0
 11 12  1  0  0  0  0
 11 16  1  0  0  0  0
 12 13  1  0  0  0  0
 13 14  2  0  0  0  0
 13 15  1  0  0  0  0
 16 15  1  6  0  0  0
M  CHG  1   2  -1
M  END
>  <CHROM.1>
46.76943202,59.96030620,-173.54303216,73.92852937,-70.31485912,16.70683395
1.64635053,13.19775914,0.44487800,-0.07156329,2.41041815

>  <Name>
1f27 biotin aptamer (Xray 1.3A)

>  <RI>
0

>  <Rbt.Current_Directory>
/home/itssahil/PROJECTS/Mol_Feturizer/New_Systems/rnas/1f27

>  <Rbt.Executable>
rbdock ($Id: //depot/dev/client3/rdock/2013.1/src/exe/rbdock.cxx#4 $)

>  <Rbt.Library>
libRbt.so (2013.1, Build901 2013/11/27)

>  <Rbt.Parameter_File>
/export/apps/rDock/src/rDock_2013.1_src/data/scripts/dock_solv.prm

>  <Rbt.Receptor>
prm/blind_docking_100.prm

>  <SCORE>
-24.6348

>  <SCORE.INTER>
-22.9234

>  <SCORE.INTER.CONST>
1

>  <SCORE.INTER.POLAR>
-0.844294

>  <SCORE.INTER.ROT>
5

>  <SCORE.INTER.SOLV>
9.75531

>  <SCORE.INTER.VDW>
-22.653

>  <SCORE.INTER.norm>
-1.43271

>  <SCORE.INTRA>
-1.72608

>  <SCORE.INTRA.DIHEDRAL>
-4.22371

>  <SCORE.INTRA.DIHEDRAL.0>
6.87082

>  <SCORE.INTRA.POLAR>
0

>  <SCORE.INTRA.POLAR.0>
0

>  <SCORE.INTRA.REPUL>
0

>  <SCORE.INTRA.REPUL.0>
0

>  <SCORE.INTRA.SOLV>
0.57801

>  <SCORE.INTRA.SOLV.lig_0>
-42.5944

>  <SCORE.INTRA.VDW>
0.0967724

>  <SCORE.INTRA.VDW.0>
-1.067

>  <SCORE.INTRA.norm>
-0.10788

>  <SCORE.RESTR>
0.0146223

>  <SCORE.RESTR.CAVITY>
0.0146223

>  <SCORE.RESTR.norm>
0.000913893

>  <SCORE.SYSTEM>
0

>  <SCORE.SYSTEM.CONST>
0

>  <SCORE.SYSTEM.DIHEDRAL>
0

>  <SCORE.SYSTEM.SOLV>
0

>  <SCORE.SYSTEM.norm>
0

>  <SCORE.heavy>
16

>  <SCORE.norm>
-1.53968

>  <RMSD>
2.066

$$$$
1f27 biotin aptamer (Xray 1.3A)
 OpenBabel11021811393D
libRbt.so/2013.1/901 2013/11/27
 16 17  0  0  0  0  0  0  0  0999 V2000
   20.9115    0.1558   14.5339 C   0  0  0  0  0  0  0  0  0  0  0  0
   20.0054   -0.5936   14.8845 O   0  5  0  0  0  0  0  0  0  0  0  0
   21.9314    0.2431   15.2156 O   0  0  0  0  0  0  0  0  0  0  0  0
   20.8039    0.9243   13.2230 C   0  0  0  0  0  0  0  0  0  0  0  0
   19.3916    1.4811   12.9361 C   0  0  0  0  0  0  0  0  0  0  0  0
   18.7894    2.1408   14.1629 C   0  0  0  0  0  0  0  0  0  0  0  0
   17.5833    3.0033   13.8548 C   0  0  0  0  0  0  0  0  0  0  0  0
   16.2295    2.3014   14.0249 C   0  0  2  0  0  0  0  0  0  0  0  0
   16.0749    0.5745   13.2126 S   0  0  0  0  0  0  0  0  0  0  0  0
   14.1908    0.7429   13.4711 C   0  0  0  0  0  0  0  0  0  0  0  0
   13.8877    2.2542   13.2537 C   0  0  2  0  0  0  0  0  0  0  0  0
   13.5699    2.4041   11.7419 N   0  0  0  0  0  0  0  0  0  0  0  0
   14.3528    3.1918   11.1420 C   0  0  0  0  0  0  0  0  0  0  0  0
   14.4928    3.4286    9.8898 O   0  0  0  0  0  0  0  0  0  0  0  0
   15.4561    3.6458   11.9569 N   0  0  0  0  0  0  0  0  0  0  0  0
   15.1273    3.1259   13.3561 C   0  0  2  0  0  0  0  0  0  0  0  0
  1  2  1  0  0  0  0
  1  3  2  0  0  0  0
  1  4  1  0  0  0  0
  4  5  1  0  0  0  0
  5  6  1  0  0  0  0
  6  7  1  0  0  0  0
  8  7  1  6  0  0  0
  8  9  1  0  0  0  0
  8 16  1  0  0  0  0
  9 10  1  0  0  0  0
 11 10  1  6  0  0  0
 11 12  1  0  0  0  0
 11 16  1  0  0  0  0
 12 13  1  0  0  0  0
 13 14  2  0  0  0  0
 13 15  1  0  0  0  0
 16 15  1  6  0  0  0
M  CHG  1   2  -1
M  END
>  <CHROM.1>
39.97128915,45.20507613,165.15435484,95.06439269,-48.00913907,17.01457444
1.70594220,13.17181952,0.48764422,0.07292333,2.42593400

>  <Name>
1f27 biotin aptamer (Xray 1.3A)

>  <RI>
0

>  <Rbt.Current_Directory>
/home/itssahil/PROJECTS/Mol_Feturizer/New_Systems/rnas/1f27

>  <Rbt.Executable>
rbdock ($Id: //depot/dev/client3/rdock/2013.1/src/exe/rbdock.cxx#4 $)

>  <Rbt.Library>
libRbt.so (2013.1, Build901 2013/11/27)

>  <Rbt.Parameter_File>
/export/apps/rDock/src/rDock_2013.1_src/data/scripts/dock_solv.prm

>  <Rbt.Receptor>
prm/blind_docking_40.prm

>  <SCORE>
-25.6505

>  <SCORE.INTER>
-26.7811

>  <SCORE.INTER.CONST>
1

>  <SCORE.INTER.POLAR>
-1.57255

>  <SCORE.INTER.ROT>
5

>  <SCORE.INTER.SOLV>
10.8696

>  <SCORE.INTER.VDW>
-23.1687

>  <SCORE.INTER.norm>
-1.67382

>  <SCORE.INTRA>
1.1306

>  <SCORE.INTRA.DIHEDRAL>
0.476927

>  <SCORE.INTRA.DIHEDRAL.0>
6.87082

>  <SCORE.INTRA.POLAR>
0

>  <SCORE.INTRA.POLAR.0>
0

>  <SCORE.INTRA.REPUL>
0

>  <SCORE.INTRA.REPUL.0>
0

>  <SCORE.INTRA.SOLV>
0.647041

>  <SCORE.INTRA.SOLV.lig_0>
-42.5944

>  <SCORE.INTRA.VDW>
0.568613

>  <SCORE.INTRA.VDW.0>
-1.067

>  <SCORE.INTRA.norm>
0.0706623

>  <SCORE.RESTR>
0

>  <SCORE.RESTR.CAVITY>
0

>  <SCORE.RESTR.norm>
0

>  <SCORE.SYSTEM>
0

>  <SCORE.SYSTEM.CONST>
0

>  <SCORE.SYSTEM.DIHEDRAL>
0

>  <SCORE.SYSTEM.SOLV>
0

>  <SCORE.SYSTEM.norm>
0

>  <SCORE.heavy>
16

>  <SCORE.norm>
-1.60315

>  <RMSD>
2.067

$$$$
1f27 biotin aptamer (Xray 1.3A)
 OpenBabel11021811393D
libRbt.so/2013.1/901 2013/11/27
 16 17  0  0  0  0  0  0  0  0999 V2000
   21.8232    0.0779   14.9168 C   0  0  0  0  0  0  0  0  0  0  0  0
   21.3905   -1.0404   15.1768 O   0  5  0  0  0  0  0  0  0  0  0  0
   22.6915    0.5787   15.6293 O   0  0  0  0  0  0  0  0  0  0  0  0
   21.3370    0.8164   13.6763 C   0  0  0  0  0  0  0  0  0  0  0  0
   20.2274    1.8539   13.9583 C   0  0  0  0  0  0  0  0  0  0  0  0
   18.8934    1.1861   14.2364 C   0  0  0  0  0  0  0  0  0  0  0  0
   17.7410    2.1621   14.3502 C   0  0  0  0  0  0  0  0  0  0  0  0
   16.3546    1.5123   14.4497 C   0  0  2  0  0  0  0  0  0  0  0  0
   15.9050    0.2828   13.0526 S   0  0  0  0  0  0  0  0  0  0  0  0
   14.1027    0.4117   13.6690 C   0  0  0  0  0  0  0  0  0  0  0  0
   13.9388    1.8897   14.1291 C   0  0  2  0  0  0  0  0  0  0  0  0
   13.4376    2.6636   12.8805 N   0  0  0  0  0  0  0  0  0  0  0  0
   14.2130    3.5936   12.5240 C   0  0  0  0  0  0  0  0  0  0  0  0
   14.2073    4.3195   11.4672 O   0  0  0  0  0  0  0  0  0  0  0  0
   15.4591    3.6224   13.2547 N   0  0  0  0  0  0  0  0  0  0  0  0
   15.2681    2.5865   14.3622 C   0  0  2  0  0  0  0  0  0  0  0  0
  1  2  1  0  0  0  0
  1  3  2  0  0  0  0
  1  4  1  0  0  0  0
  4  5  1  0  0  0  0
  5  6  1  0  0  0  0
  6  7  1  0  0  0  0
  8  7  1  6  0  0  0
  8  9  1  0  0  0  0
  8 16  1  0  0  0  0
  9 10  1  0  0  0  0
 11 10  1  6  0  0  0
 11 12  1  0  0  0  0
 11 16  1  0  0  0  0
 12 13  1  0  0  0  0
 13 14  2  0  0  0  0
 13 15  1  0  0  0  0
 16 15  1  6  0  0  0
M  CHG  1   2  -1
M  END
>  <CHROM.1>
98.45244426,-74.14715735,-172.90594870,172.45942520,-54.58152383,17.25004700
1.55279386,13.79145532,-0.36067831,-0.15452264,-0.29652599

>  <Name>
1f27 biotin aptamer (Xray 1.3A)

>  <RI>
0

>  <Rbt.Current_Directory>
/home/itssahil/PROJECTS/Mol_Feturizer/New_Systems/rnas/1f27

>  <Rbt.Executable>
rbdock ($Id: //depot/dev/client3/rdock/2013.1/src/exe/rbdock.cxx#4 $)

>  <Rbt.Library>
libRbt.so (2013.1, Build901 2013/11/27)

>  <Rbt.Parameter_File>
/export/apps/rDock/src/rDock_2013.1_src/data/scripts/dock_solv.prm

>  <Rbt.Receptor>
prm/pocket_docking_5.prm

>  <SCORE>
-29.5514

>  <SCORE.INTER>
-27.4006

>  <SCORE.INTER.CONST>
1

>  <SCORE.INTER.POLAR>
-1.73797

>  <SCORE.INTER.ROT>
5

>  <SCORE.INTER.SOLV>
12.1878

>  <SCORE.INTER.VDW>
-23.4698

>  <SCORE.INTER.norm>
-1.71254

>  <SCORE.INTRA>
-2.1508

>  <SCORE.INTRA.DIHEDRAL>
-4.13504

>  <SCORE.INTRA.DIHEDRAL.0>
6.87082

>  <SCORE.INTRA.POLAR>
0

>  <SCORE.INTRA.POLAR.0>
0

>  <SCORE.INTRA.REPUL>
0

>  <SCORE.INTRA.REPUL.0>
0

>  <SCORE.INTRA.SOLV>
-0.0569322

>  <SCORE.INTRA.SOLV.lig_0>
-42.5944

>  <SCORE.INTRA.VDW>
-0.0548161

>  <SCORE.INTRA.VDW.0>
-1.067

>  <SCORE.INTRA.norm>
-0.134425

>  <SCORE.RESTR>
0

>  <SCORE.RESTR.CAVITY>
0

>  <SCORE.RESTR.norm>
0

>  <SCORE.SYSTEM>
0

>  <SCORE.SYSTEM.CONST>
0

>  <SCORE.SYSTEM.DIHEDRAL>
0

>  <SCORE.SYSTEM.SOLV>
0

>  <SCORE.SYSTEM.norm>
0

>  <SCORE.heavy>
16

>  <SCORE.norm>
-1.84696

>  <RMSD>
2.069

$$$$
1f27 biotin aptamer (Xray 1.3A)
 OpenBabel11021811393D
libRbt.so/2013.1/901 2013/11/27
 16 17  0  0  0  0  0  0  0  0999 V2000
   21.5206    0.2285   14.2795 C   0  0  0  0  0  0  0  0  0  0  0  0
   21.0153   -0.5162   13.4457 O   0  5  0  0  0  0  0  0  0  0  0  0
   22.4299   -0.1844   14.9973 O   0  0  0  0  0  0  0  0  0  0  0  0
   21.0713    1.6806   14.3799 C   0  0  0  0  0  0  0  0  0  0  0  0
   19.8736    2.0312   13.4691 C   0  0  0  0  0  0  0  0  0  0  0  0
   18.5500    1.6839   14.1252 C   0  0  0  0  0  0  0  0  0  0  0  0
   17.3953    2.5390   13.6465 C   0  0  0  0  0  0  0  0  0  0  0  0
   16.0167    2.1066   14.1631 C   0  0  2  0  0  0  0  0  0  0  0  0
   15.3795    0.4155   13.5307 S   0  0  0  0  0  0  0  0  0  0  0  0
   13.6655    0.9390   14.1889 C   0  0  0  0  0  0  0  0  0  0  0  0
   13.5886    2.4733   13.9372 C   0  0  2  0  0  0  0  0  0  0  0  0
   12.9604    2.6351   12.5271 N   0  0  0  0  0  0  0  0  0  0  0  0
   13.7081    3.2453   11.7136 C   0  0  0  0  0  0  0  0  0  0  0  0
   13.5933    3.4148   10.4479 O   0  0  0  0  0  0  0  0  0  0  0  0
   15.0319    3.5098   12.2283 N   0  0  0  0  0  0  0  0  0  0  0  0
   14.9507    3.1017   13.6989 C   0  0  2  0  0  0  0  0  0  0  0  0
  1  2  1  0  0  0  0
  1  3  2  0  0  0  0
  1  4  1  0  0  0  0
  4  5  1  0  0  0  0
  5  6  1  0  0  0  0
  6  7  1  0  0  0  0
  8  7  1  6  0  0  0
  8  9  1  0  0  0  0
  8 16  1  0  0  0  0
  9 10  1  0  0  0  0
 11 10  1  6  0  0  0
 11 12  1  0  0  0  0
 11 16  1  0  0  0  0
 12 13  1  0  0  0  0
 13 14  2  0  0  0  0
 13 15  1  0  0  0  0
 16 15  1  6  0  0  0
M  CHG  1   2  -1
M  END
>  <CHROM.1>
5.99582073,84.43417107,152.83968108,173.06812498,-66.64102876,16.84810174
1.70659086,13.40938704,-0.35034645,-0.01696740,-0.63652512

>  <Name>
1f27 biotin aptamer (Xray 1.3A)

>  <RI>
0

>  <Rbt.Current_Directory>
/home/itssahil/PROJECTS/Mol_Feturizer/New_Systems/rnas/1f27

>  <Rbt.Executable>
rbdock ($Id: //depot/dev/client3/rdock/2013.1/src/exe/rbdock.cxx#4 $)

>  <Rbt.Library>
libRbt.so (2013.1, Build901 2013/11/27)

>  <Rbt.Parameter_File>
/export/apps/rDock/src/rDock_2013.1_src/data/scripts/dock_solv.prm

>  <Rbt.Receptor>
prm/blind_docking_60.prm

>  <SCORE>
-24.8504

>  <SCORE.INTER>
-25.0533

>  <SCORE.INTER.CONST>
1

>  <SCORE.INTER.POLAR>
-0.848528

>  <SCORE.INTER.ROT>
5

>  <SCORE.INTER.SOLV>
10.6537

>  <SCORE.INTER.VDW>
-24.3583

>  <SCORE.INTER.norm>
-1.56583

>  <SCORE.INTRA>
0.118426

>  <SCORE.INTRA.DIHEDRAL>
-0.642775

>  <SCORE.INTRA.DIHEDRAL.0>
6.87082

>  <SCORE.INTRA.POLAR>
0

>  <SCORE.INTRA.POLAR.0>
0

>  <SCORE.INTRA.REPUL>
0

>  <SCORE.INTRA.REPUL.0>
0

>  <SCORE.INTRA.SOLV>
-0.131782

>  <SCORE.INTRA.SOLV.lig_0>
-42.5944

>  <SCORE.INTRA.VDW>
0.505705

>  <SCORE.INTRA.VDW.0>
-1.067

>  <SCORE.INTRA.norm>
0.00740164

>  <SCORE.RESTR>
0.0844003

>  <SCORE.RESTR.CAVITY>
0.0844003

>  <SCORE.RESTR.norm>
0.00527502

>  <SCORE.SYSTEM>
0

>  <SCORE.SYSTEM.CONST>
0

>  <SCORE.SYSTEM.DIHEDRAL>
0

>  <SCORE.SYSTEM.SOLV>
0

>  <SCORE.SYSTEM.norm>
0

>  <SCORE.heavy>
16

>  <SCORE.norm>
-1.55315

>  <RMSD>
2.074

$$$$
1f27 biotin aptamer (Xray 1.3A)
 OpenBabel11021811393D
libRbt.so/2013.1/901 2013/11/27
 16 17  0  0  0  0  0  0  0  0999 V2000
   21.1137   -0.3735   16.1217 C   0  0  0  0  0  0  0  0  0  0  0  0
   20.4530   -1.3970   16.2672 O   0  5  0  0  0  0  0  0  0  0  0  0
   21.6753    0.1350   17.0905 O   0  0  0  0  0  0  0  0  0  0  0  0
   21.2951    0.2286   14.7342 C   0  0  0  0  0  0  0  0  0  0  0  0
   20.3426    1.4069   14.4320 C   0  0  0  0  0  0  0  0  0  0  0  0
   18.8868    0.9939   14.5453 C   0  0  0  0  0  0  0  0  0  0  0  0
   17.9262    1.9903   13.9304 C   0  0  0  0  0  0  0  0  0  0  0  0
   16.4421    1.6940   14.1832 C   0  0  2  0  0  0  0  0  0  0  0  0
   15.8044    0.0076   13.5388 S   0  0  0  0  0  0  0  0  0  0  0  0
   14.0436    0.6960   13.8045 C   0  0  0  0  0  0  0  0  0  0  0  0
   14.1445    2.2084   13.4500 C   0  0  2  0  0  0  0  0  0  0  0  0
   13.8214    2.3056   11.9350 N   0  0  0  0  0  0  0  0  0  0  0  0
   14.7621    2.7995   11.2537 C   0  0  0  0  0  0  0  0  0  0  0  0
   14.9129    2.8801    9.9830 O   0  0  0  0  0  0  0  0  0  0  0  0
   15.9761    3.0108   12.0081 N   0  0  0  0  0  0  0  0  0  0  0  0
   15.5739    2.7219   13.4540 C   0  0  2  0  0  0  0  0  0  0  0  0
  1  2  1  0  0  0  0
  1  3  2  0  0  0  0
  1  4  1  0  0  0  0
  4  5  1  0  0  0  0
  5  6  1  0  0  0  0
  6  7  1  0  0  0  0
  8  7  1  6  0  0  0
  8  9  1  0  0  0  0
  8 16  1  0  0  0  0
  9 10  1  0  0  0  0
 11 10  1  6  0  0  0
 11 12  1  0  0  0  0
 11 16  1  0  0  0  0
 12 13  1  0  0  0  0
 13 14  2  0  0  0  0
 13 15  1  0  0  0  0
 16 15  1  6  0  0  0
M  CHG  1   2  -1
M  END
>  <CHROM.1>
98.99908724,-58.80780077,-165.46854672,-172.58353345,-59.46473803,17.24591414
1.21602061,13.77734075,0.60131656,0.16909313,2.35146436

>  <Name>
1f27 biotin aptamer (Xray 1.3A)

>  <RI>
0

>  <Rbt.Current_Directory>
/home/itssahil/PROJECTS/Mol_Feturizer/New_Systems/rnas/1f27

>  <Rbt.Executable>
rbdock ($Id: //depot/dev/client3/rdock/2013.1/src/exe/rbdock.cxx#4 $)

>  <Rbt.Library>
libRbt.so (2013.1, Build901 2013/11/27)

>  <Rbt.Parameter_File>
/export/apps/rDock/src/rDock_2013.1_src/data/scripts/dock_solv.prm

>  <Rbt.Receptor>
prm/pocket_docking_5.prm

>  <SCORE>
-34.4369

>  <SCORE.INTER>
-32.4677

>  <SCORE.INTER.CONST>
1

>  <SCORE.INTER.POLAR>
-2.53163

>  <SCORE.INTER.ROT>
5

>  <SCORE.INTER.SOLV>
11.9899

>  <SCORE.INTER.VDW>
-24.1363

>  <SCORE.INTER.norm>
-2.02923

>  <SCORE.INTRA>
-1.96915

>  <SCORE.INTRA.DIHEDRAL>
-4.3287

>  <SCORE.INTRA.DIHEDRAL.0>
6.87082

>  <SCORE.INTRA.POLAR>
0

>  <SCORE.INTRA.POLAR.0>
0

>  <SCORE.INTRA.REPUL>
0

>  <SCORE.INTRA.REPUL.0>
0

>  <SCORE.INTRA.SOLV>
0.104178

>  <SCORE.INTRA.SOLV.lig_0>
-42.5944

>  <SCORE.INTRA.VDW>
0.143115

>  <SCORE.INTRA.VDW.0>
-1.067

>  <SCORE.INTRA.norm>
-0.123072

>  <SCORE.RESTR>
0

>  <SCORE.RESTR.CAVITY>
0

>  <SCORE.RESTR.norm>
0

>  <SCORE.SYSTEM>
0

>  <SCORE.SYSTEM.CONST>
0

>  <SCORE.SYSTEM.DIHEDRAL>
0

>  <SCORE.SYSTEM.SOLV>
0

>  <SCORE.SYSTEM.norm>
0

>  <SCORE.heavy>
16

>  <SCORE.norm>
-2.1523

>  <RMSD>
2.074

$$$$
1f27 biotin aptamer (Xray 1.3A)
 OpenBabel11021811393D
libRbt.so/2013.1/901 2013/11/27
 16 17  0  0  0  0  0  0  0  0999 V2000
   21.4633   -0.0368   15.7938 C   0  0  0  0  0  0  0  0  0  0  0  0
   20.5387   -0.2275   16.5774 O   0  5  0  0  0  0  0  0  0  0  0  0
   22.6218   -0.2387   16.1539 O   0  0  0  0  0  0  0  0  0  0  0  0
   21.1746    0.3829   14.3582 C   0  0  0  0  0  0  0  0  0  0  0  0
   20.2185    1.5905   14.2377 C   0  0  0  0  0  0  0  0  0  0  0  0
   18.7718    1.1831   14.4475 C   0  0  0  0  0  0  0  0  0  0  0  0
   17.7769    2.2323   13.9968 C   0  0  0  0  0  0  0  0  0  0  0  0
   16.3044    1.8547   14.2053 C   0  0  2  0  0  0  0  0  0  0  0  0
   15.7803    0.1355   13.5454 S   0  0  0  0  0  0  0  0  0  0  0  0
   13.9771    0.7260   13.7565 C   0  0  0  0  0  0  0  0  0  0  0  0
   14.0051    2.2415   13.4022 C   0  0  2  0  0  0  0  0  0  0  0  0
   13.7231    2.3202   11.8779 N   0  0  0  0  0  0  0  0  0  0  0  0
   14.6554    2.8650   11.2243 C   0  0  0  0  0  0  0  0  0  0  0  0
   14.8398    2.9534    9.9587 O   0  0  0  0  0  0  0  0  0  0  0  0
   15.8326    3.1432   12.0145 N   0  0  0  0  0  0  0  0  0  0  0  0
   15.4034    2.8330   13.4483 C   0  0  2  0  0  0  0  0  0  0  0  0
  1  2  1  0  0  0  0
  1  3  2  0  0  0  0
  1  4  1  0  0  0  0
  4  5  1  0  0  0  0
  5  6  1  0  0  0  0
  6  7  1  0  0  0  0
  8  7  1  6  0  0  0
  8  9  1  0  0  0  0
  8 16  1  0  0  0  0
  9 10  1  0  0  0  0
 11 10  1  6  0  0  0
 11 12  1  0  0  0  0
 11 16  1  0  0  0  0
 12 13  1  0  0  0  0
 13 14  2  0  0  0  0
 13 15  1  0  0  0  0
 16 15  1  6  0  0  0
M  CHG  1   2  -1
M  END
>  <CHROM.1>
50.86202829,-78.20728895,-165.19981851,-179.56454664,-50.18145832,17.24585887
1.38131791,13.67551459,-0.54040157,-0.09926941,-0.87149343

>  <Name>
1f27 biotin aptamer (Xray 1.3A)

>  <RI>
0

>  <Rbt.Current_Directory>
/home/itssahil/PROJECTS/Mol_Feturizer/New_Systems/rnas/1f27

>  <Rbt.Executable>
rbdock ($Id: //depot/dev/client3/rdock/2013.1/src/exe/rbdock.cxx#4 $)

>  <Rbt.Library>
libRbt.so (2013.1, Build901 2013/11/27)

>  <Rbt.Parameter_File>
/export/apps/rDock/src/rDock_2013.1_src/data/scripts/dock_solv.prm

>  <Rbt.Receptor>
prm/pocket_docking_5.prm

>  <SCORE>
-30.4008

>  <SCORE.INTER>
-29.0678

>  <SCORE.INTER.CONST>
1

>  <SCORE.INTER.POLAR>
-1.82196

>  <SCORE.INTER.ROT>
5

>  <SCORE.INTER.SOLV>
12.9594

>  <SCORE.INTER.VDW>
-24.5585

>  <SCORE.INTER.norm>
-1.81674

>  <SCORE.INTRA>
-1.33293

>  <SCORE.INTRA.DIHEDRAL>
-3.16692

>  <SCORE.INTRA.DIHEDRAL.0>
6.87082

>  <SCORE.INTRA.POLAR>
0

>  <SCORE.INTRA.POLAR.0>
0

>  <SCORE.INTRA.REPUL>
0

>  <SCORE.INTRA.REPUL.0>
0

>  <SCORE.INTRA.SOLV>
0.0760531

>  <SCORE.INTRA.SOLV.lig_0>
-42.5944

>  <SCORE.INTRA.VDW>
0.212501

>  <SCORE.INTRA.VDW.0>
-1.067

>  <SCORE.INTRA.norm>
-0.0833082

>  <SCORE.RESTR>
0

>  <SCORE.RESTR.CAVITY>
0

>  <SCORE.RESTR.norm>
0

>  <SCORE.SYSTEM>
0

>  <SCORE.SYSTEM.CONST>
0

>  <SCORE.SYSTEM.DIHEDRAL>
0

>  <SCORE.SYSTEM.SOLV>
0

>  <SCORE.SYSTEM.norm>
0

>  <SCORE.heavy>
16

>  <SCORE.norm>
-1.90005

>  <RMSD>
2.077

$$$$
1f27 biotin aptamer (Xray 1.3A)
 OpenBabel11021811393D
libRbt.so/2013.1/901 2013/11/27
 16 17  0  0  0  0  0  0  0  0999 V2000
   20.9589    0.4742   13.9737 C   0  0  0  0  0  0  0  0  0  0  0  0
   21.3281   -0.0928   12.9502 O   0  5  0  0  0  0  0  0  0  0  0  0
   21.0433   -0.1023   15.0568 O   0  0  0  0  0  0  0  0  0  0  0  0
   20.4613    1.9127   13.9139 C   0  0  0  0  0  0  0  0  0  0  0  0
   19.5289    2.2048   12.7171 C   0  0  0  0  0  0  0  0  0  0  0  0
   18.1465    1.6149   12.9266 C   0  0  0  0  0  0  0  0  0  0  0  0
   17.4700    2.0953   14.1936 C   0  0  0  0  0  0  0  0  0  0  0  0
   15.9732    1.7710   14.2868 C   0  0  2  0  0  0  0  0  0  0  0  0
   15.4432    0.0637   13.6011 S   0  0  0  0  0  0  0  0  0  0  0  0
   13.6507    0.7181   13.6626 C   0  0  0  0  0  0  0  0  0  0  0  0
   13.7602    2.2278   13.2993 C   0  0  2  0  0  0  0  0  0  0  0  0
   13.6033    2.2996   11.7568 N   0  0  0  0  0  0  0  0  0  0  0  0
   14.6033    2.8048   11.1754 C   0  0  0  0  0  0  0  0  0  0  0  0
   14.8909    2.8730    9.9279 O   0  0  0  0  0  0  0  0  0  0  0  0
   15.7229    3.0509   12.0549 N   0  0  0  0  0  0  0  0  0  0  0  0
   15.1703    2.7713   13.4522 C   0  0  2  0  0  0  0  0  0  0  0  0
  1  2  1  0  0  0  0
  1  3  2  0  0  0  0
  1  4  1  0  0  0  0
  4  5  1  0  0  0  0
  5  6  1  0  0  0  0
  6  7  1  0  0  0  0
  8  7  1  6  0  0  0
  8  9  1  0  0  0  0
  8 16  1  0  0  0  0
  9 10  1  0  0  0  0
 11 10  1  6  0  0  0
 11 12  1  0  0  0  0
 11 16  1  0  0  0  0
 12 13  1  0  0  0  0
 13 14  2  0  0  0  0
 13 15  1  0  0  0  0
 16 15  1  6  0  0  0
M  CHG  1   2  -1
M  END
>  <CHROM.1>
42.68198705,74.64281075,56.85405240,167.24465588,38.16452015,16.91478655
1.53129378,13.07694679,-0.32782339,0.01505804,-0.89217489

>  <Name>
1f27 biotin aptamer (Xray 1.3A)

>  <RI>
0

>  <Rbt.Current_Directory>
/home/itssahil/PROJECTS/Mol_Feturizer/New_Systems/rnas/1f27

>  <Rbt.Executable>
rbdock ($Id: //depot/dev/client3/rdock/2013.1/src/exe/rbdock.cxx#4 $)

>  <Rbt.Library>
libRbt.so (2013.1, Build901 2013/11/27)

>  <Rbt.Parameter_File>
/export/apps/rDock/src/rDock_2013.1_src/data/scripts/dock_solv.prm

>  <Rbt.Receptor>
prm/blind_docking_100.prm

>  <SCORE>
-29.455

>  <SCORE.INTER>
-30.0351

>  <SCORE.INTER.CONST>
1

>  <SCORE.INTER.POLAR>
-1.85305

>  <SCORE.INTER.ROT>
5

>  <SCORE.INTER.SOLV>
12.1189

>  <SCORE.INTER.VDW>
-24.8195

>  <SCORE.INTER.norm>
-1.87719

>  <SCORE.INTRA>
0.577791

>  <SCORE.INTRA.DIHEDRAL>
-2.45356

>  <SCORE.INTRA.DIHEDRAL.0>
6.87082

>  <SCORE.INTRA.POLAR>
0

>  <SCORE.INTRA.POLAR.0>
0

>  <SCORE.INTRA.REPUL>
0

>  <SCORE.INTRA.REPUL.0>
0

>  <SCORE.INTRA.SOLV>
0.800291

>  <SCORE.INTRA.SOLV.lig_0>
-42.5944

>  <SCORE.INTRA.VDW>
1.40443

>  <SCORE.INTRA.VDW.0>
-1.067

>  <SCORE.INTRA.norm>
0.0361119

>  <SCORE.RESTR>
0.00233856

>  <SCORE.RESTR.CAVITY>
0.00233856

>  <SCORE.RESTR.norm>
0.00014616

>  <SCORE.SYSTEM>
0

>  <SCORE.SYSTEM.CONST>
0

>  <SCORE.SYSTEM.DIHEDRAL>
0

>  <SCORE.SYSTEM.SOLV>
0

>  <SCORE.SYSTEM.norm>
0

>  <SCORE.heavy>
16

>  <SCORE.norm>
-1.84094

>  <RMSD>
2.079

$$$$
1f27 biotin aptamer (Xray 1.3A)
 OpenBabel11021811393D
libRbt.so/2013.1/901 2013/11/27
 16 17  0  0  0  0  0  0  0  0999 V2000
   21.1940   -0.6529   16.5772 C   0  0  0  0  0  0  0  0  0  0  0  0
   20.7722   -1.7881   16.7740 O   0  5  0  0  0  0  0  0  0  0  0  0
   21.8498   -0.0844   17.4486 O   0  0  0  0  0  0  0  0  0  0  0  0
   20.9656    0.0252   15.2324 C   0  0  0  0  0  0  0  0  0  0  0  0
   19.5901    0.7171   15.1041 C   0  0  0  0  0  0  0  0  0  0  0  0
   19.3947    1.3249   13.7274 C   0  0  0  0  0  0  0  0  0  0  0  0
   18.2573    2.3228   13.6631 C   0  0  0  0  0  0  0  0  0  0  0  0
   16.8726    1.7418   13.9783 C   0  0  2  0  0  0  0  0  0  0  0  0
   16.4709    0.0528   13.1709 S   0  0  0  0  0  0  0  0  0  0  0  0
   14.6509    0.3842   13.6428 C   0  0  0  0  0  0  0  0  0  0  0  0
   14.4648    1.9207   13.4768 C   0  0  2  0  0  0  0  0  0  0  0  0
   13.9949    2.1296   12.0123 N   0  0  0  0  0  0  0  0  0  0  0  0
   14.7745    2.8560   11.3358 C   0  0  0  0  0  0  0  0  0  0  0  0
   14.7947    3.1050   10.0783 O   0  0  0  0  0  0  0  0  0  0  0  0
   15.9989    3.1924   12.0251 N   0  0  0  0  0  0  0  0  0  0  0  0
   15.7826    2.6754   13.4471 C   0  0  2  0  0  0  0  0  0  0  0  0
  1  2  1  0  0  0  0
  1  3  2  0  0  0  0
  1  4  1  0  0  0  0
  4  5  1  0  0  0  0
  5  6  1  0  0  0  0
  6  7  1  0  0  0  0
  8  7  1  6  0  0  0
  8  9  1  0  0  0  0
  8 16  1  0  0  0  0
  9 10  1  0  0  0  0
 11 10  1  6  0  0  0
 11 12  1  0  0  0  0
 11 16  1  0  0  0  0
 12 13  1  0  0  0  0
 13 14  2  0  0  0  0
 13 15  1  0  0  0  0
 16 15  1  6  0  0  0
M  CHG  1   2  -1
M  END
>  <CHROM.1>
84.02473624,-177.64293267,-164.17876747,-62.11463027,-43.83792088,17.44717701
1.13976566,13.81008345,0.64903350,0.30381193,2.50506826

>  <Name>
1f27 biotin aptamer (Xray 1.3A)

>  <RI>
0

>  <Rbt.Current_Directory>
/home/itssahil/PROJECTS/Mol_Feturizer/New_Systems/rnas/1f27

>  <Rbt.Executable>
rbdock ($Id: //depot/dev/client3/rdock/2013.1/src/exe/rbdock.cxx#4 $)

>  <Rbt.Library>
libRbt.so (2013.1, Build901 2013/11/27)

>  <Rbt.Parameter_File>
/export/apps/rDock/src/rDock_2013.1_src/data/scripts/dock_solv.prm

>  <Rbt.Receptor>
prm/pocket_docking_7.prm

>  <SCORE>
-31.8279

>  <SCORE.INTER>
-30.0134

>  <SCORE.INTER.CONST>
1

>  <SCORE.INTER.POLAR>
-2.43582

>  <SCORE.INTER.ROT>
5

>  <SCORE.INTER.SOLV>
10.4602

>  <SCORE.INTER.VDW>
-22.3096

>  <SCORE.INTER.norm>
-1.87584

>  <SCORE.INTRA>
-1.81449

>  <SCORE.INTRA.DIHEDRAL>
-3.37411

>  <SCORE.INTRA.DIHEDRAL.0>
6.87082

>  <SCORE.INTRA.POLAR>
0

>  <SCORE.INTRA.POLAR.0>
0

>  <SCORE.INTRA.REPUL>
0

>  <SCORE.INTRA.REPUL.0>
0

>  <SCORE.INTRA.SOLV>
-0.796791

>  <SCORE.INTRA.SOLV.lig_0>
-42.5944

>  <SCORE.INTRA.VDW>
0.270959

>  <SCORE.INTRA.VDW.0>
-1.067

>  <SCORE.INTRA.norm>
-0.113406

>  <SCORE.RESTR>
0

>  <SCORE.RESTR.CAVITY>
0

>  <SCORE.RESTR.norm>
0

>  <SCORE.SYSTEM>
0

>  <SCORE.SYSTEM.CONST>
0

>  <SCORE.SYSTEM.DIHEDRAL>
0

>  <SCORE.SYSTEM.SOLV>
0

>  <SCORE.SYSTEM.norm>
0

>  <SCORE.heavy>
16

>  <SCORE.norm>
-1.98925

>  <RMSD>
2.079

$$$$
1f27 biotin aptamer (Xray 1.3A)
 OpenBabel11021811393D
libRbt.so/2013.1/901 2013/11/27
 16 17  0  0  0  0  0  0  0  0999 V2000
   21.0200   -0.0657   13.7894 C   0  0  0  0  0  0  0  0  0  0  0  0
   20.4682   -1.1137   13.4694 O   0  5  0  0  0  0  0  0  0  0  0  0
   21.7862   -0.0467   14.7512 O   0  0  0  0  0  0  0  0  0  0  0  0
   20.8111    1.1933   12.9577 C   0  0  0  0  0  0  0  0  0  0  0  0
   19.8044    2.1914   13.5721 C   0  0  0  0  0  0  0  0  0  0  0  0
   18.4545    1.5444   13.8208 C   0  0  0  0  0  0  0  0  0  0  0  0
   17.3340    2.5427   14.0248 C   0  0  0  0  0  0  0  0  0  0  0  0
   15.9750    1.9224   14.3747 C   0  0  2  0  0  0  0  0  0  0  0  0
   15.4303    0.4381   13.2949 S   0  0  0  0  0  0  0  0  0  0  0  0
   13.6863    0.6829   14.0322 C   0  0  0  0  0  0  0  0  0  0  0  0
   13.5333    2.2225   14.2030 C   0  0  2  0  0  0  0  0  0  0  0  0
   12.9097    2.7309   12.8756 N   0  0  0  0  0  0  0  0  0  0  0  0
   13.6322    3.5731   12.2740 C   0  0  0  0  0  0  0  0  0  0  0  0
   13.5197    4.0738   11.0991 O   0  0  0  0  0  0  0  0  0  0  0  0
   14.9364    3.7499   12.8701 N   0  0  0  0  0  0  0  0  0  0  0  0
   14.8636    2.9550   14.1735 C   0  0  2  0  0  0  0  0  0  0  0  0
  1  2  1  0  0  0  0
  1  3  2  0  0  0  0
  1  4  1  0  0  0  0
  4  5  1  0  0  0  0
  5  6  1  0  0  0  0
  6  7  1  0  0  0  0
  8  7  1  6  0  0  0
  8  9  1  0  0  0  0
  8 16  1  0  0  0  0
  9 10  1  0  0  0  0
 11 10  1  6  0  0  0
 11 12  1  0  0  0  0
 11 16  1  0  0  0  0
 12 13  1  0  0  0  0
 13 14  2  0  0  0  0
 13 15  1  0  0  0  0
 16 15  1  6  0  0  0
M  CHG  1   2  -1
M  END
>  <CHROM.1>
101.58464645,-56.40684557,-162.81004558,-175.96792135,-46.72879917,16.69750123
1.67334793,13.44130598,0.36550833,-0.00730258,2.75780343

>  <Name>
1f27 biotin aptamer (Xray 1.3A)

>  <RI>
0

>  <Rbt.Current_Directory>
/home/itssahil/PROJECTS/Mol_Feturizer/New_Systems/rnas/1f27

>  <Rbt.Executable>
rbdock ($Id: //depot/dev/client3/rdock/2013.1/src/exe/rbdock.cxx#4 $)

>  <Rbt.Library>
libRbt.so (2013.1, Build901 2013/11/27)

>  <Rbt.Parameter_File>
/export/apps/rDock/src/rDock_2013.1_src/data/scripts/dock_solv.prm

>  <Rbt.Receptor>
prm/blind_docking_40.prm

>  <SCORE>
-26.3614

>  <SCORE.INTER>
-24.9751

>  <SCORE.INTER.CONST>
1

>  <SCORE.INTER.POLAR>
-0.848528

>  <SCORE.INTER.ROT>
5

>  <SCORE.INTER.SOLV>
9.99614

>  <SCORE.INTER.VDW>
-24.0871

>  <SCORE.INTER.norm>
-1.56095

>  <SCORE.INTRA>
-1.38621

>  <SCORE.INTRA.DIHEDRAL>
-3.44793

>  <SCORE.INTRA.DIHEDRAL.0>
6.87082

>  <SCORE.INTRA.POLAR>
0

>  <SCORE.INTRA.POLAR.0>
0

>  <SCORE.INTRA.REPUL>
0

>  <SCORE.INTRA.REPUL.0>
0

>  <SCORE.INTRA.SOLV>
0.159479

>  <SCORE.INTRA.SOLV.lig_0>
-42.5944

>  <SCORE.INTRA.VDW>
0.258014

>  <SCORE.INTRA.VDW.0>
-1.067

>  <SCORE.INTRA.norm>
-0.0866382

>  <SCORE.RESTR>
0

>  <SCORE.RESTR.CAVITY>
0

>  <SCORE.RESTR.norm>
0

>  <SCORE.SYSTEM>
0

>  <SCORE.SYSTEM.CONST>
0

>  <SCORE.SYSTEM.DIHEDRAL>
0

>  <SCORE.SYSTEM.SOLV>
0

>  <SCORE.SYSTEM.norm>
0

>  <SCORE.heavy>
16

>  <SCORE.norm>
-1.64758

>  <RMSD>
2.080

$$$$
1f27 biotin aptamer (Xray 1.3A)
 OpenBabel11021811393D
libRbt.so/2013.1/901 2013/11/27
 16 17  0  0  0  0  0  0  0  0999 V2000
   21.7899    0.0860   14.9790 C   0  0  0  0  0  0  0  0  0  0  0  0
   21.3023   -0.9993   15.2787 O   0  5  0  0  0  0  0  0  0  0  0  0
   22.6830    0.5681   15.6736 O   0  0  0  0  0  0  0  0  0  0  0  0
   21.3395    0.8030   13.7126 C   0  0  0  0  0  0  0  0  0  0  0  0
   20.2200    1.8422   13.9444 C   0  0  0  0  0  0  0  0  0  0  0  0
   18.8918    1.1760   14.2526 C   0  0  0  0  0  0  0  0  0  0  0  0
   17.7384    2.1509   14.3661 C   0  0  0  0  0  0  0  0  0  0  0  0
   16.3521    1.4999   14.4594 C   0  0  2  0  0  0  0  0  0  0  0  0
   15.9046    0.2803   13.0530 S   0  0  0  0  0  0  0  0  0  0  0  0
   14.1015    0.4041   13.6684 C   0  0  0  0  0  0  0  0  0  0  0  0
   13.9366    1.8788   14.1389 C   0  0  2  0  0  0  0  0  0  0  0  0
   13.4365    2.6614   12.8953 N   0  0  0  0  0  0  0  0  0  0  0  0
   14.2119    3.5942   12.5463 C   0  0  0  0  0  0  0  0  0  0  0  0
   14.2071    4.3276   11.4947 O   0  0  0  0  0  0  0  0  0  0  0  0
   15.4572    3.6182   13.2786 N   0  0  0  0  0  0  0  0  0  0  0  0
   15.2654    2.5744   14.3784 C   0  0  2  0  0  0  0  0  0  0  0  0
  1  2  1  0  0  0  0
  1  3  2  0  0  0  0
  1  4  1  0  0  0  0
  4  5  1  0  0  0  0
  5  6  1  0  0  0  0
  6  7  1  0  0  0  0
  8  7  1  6  0  0  0
  8  9  1  0  0  0  0
  8 16  1  0  0  0  0
  9 10  1  0  0  0  0
 11 10  1  6  0  0  0
 11 12  1  0  0  0  0
 11 16  1  0  0  0  0
 12 13  1  0  0  0  0
 13 14  2  0  0  0  0
 13 15  1  0  0  0  0
 16 15  1  6  0  0  0
M  CHG  1   2  -1
M  END
>  <CHROM.1>
94.82974880,-71.69418536,-174.87925720,170.94056382,-54.83627927,17.24074569
1.55006443,13.81451583,-0.36251847,-0.15827658,-0.30176079

>  <Name>
1f27 biotin aptamer (Xray 1.3A)

>  <RI>
0

>  <Rbt.Current_Directory>
/home/itssahil/PROJECTS/Mol_Feturizer/New_Systems/rnas/1f27

>  <Rbt.Executable>
rbdock ($Id: //depot/dev/client3/rdock/2013.1/src/exe/rbdock.cxx#4 $)

>  <Rbt.Library>
libRbt.so (2013.1, Build901 2013/11/27)

>  <Rbt.Parameter_File>
/export/apps/rDock/src/rDock_2013.1_src/data/scripts/dock_solv.prm

>  <Rbt.Receptor>
prm/pocket_docking_5.prm

>  <SCORE>
-29.6058

>  <SCORE.INTER>
-27.3732

>  <SCORE.INTER.CONST>
1

>  <SCORE.INTER.POLAR>
-1.75305

>  <SCORE.INTER.ROT>
5

>  <SCORE.INTER.SOLV>
12.1923

>  <SCORE.INTER.VDW>
-23.4027

>  <SCORE.INTER.norm>
-1.71083

>  <SCORE.INTRA>
-2.23257

>  <SCORE.INTRA.DIHEDRAL>
-4.35341

>  <SCORE.INTRA.DIHEDRAL.0>
6.87082

>  <SCORE.INTRA.POLAR>
0

>  <SCORE.INTRA.POLAR.0>
0

>  <SCORE.INTRA.REPUL>
0

>  <SCORE.INTRA.REPUL.0>
0

>  <SCORE.INTRA.SOLV>
-0.0230884

>  <SCORE.INTRA.SOLV.lig_0>
-42.5944

>  <SCORE.INTRA.VDW>
-0.0443251

>  <SCORE.INTRA.VDW.0>
-1.067

>  <SCORE.INTRA.norm>
-0.139536

>  <SCORE.RESTR>
0

>  <SCORE.RESTR.CAVITY>
0

>  <SCORE.RESTR.norm>
0

>  <SCORE.SYSTEM>
0

>  <SCORE.SYSTEM.CONST>
0

>  <SCORE.SYSTEM.DIHEDRAL>
0

>  <SCORE.SYSTEM.SOLV>
0

>  <SCORE.SYSTEM.norm>
0

>  <SCORE.heavy>
16

>  <SCORE.norm>
-1.85036

>  <RMSD>
2.086

$$$$
1f27 biotin aptamer (Xray 1.3A)
 OpenBabel11021811393D
libRbt.so/2013.1/901 2013/11/27
 16 17  0  0  0  0  0  0  0  0999 V2000
   21.4680   -0.6600   16.1666 C   0  0  0  0  0  0  0  0  0  0  0  0
   21.4995   -1.8840   16.0877 O   0  5  0  0  0  0  0  0  0  0  0  0
   21.8388   -0.1038   17.1989 O   0  0  0  0  0  0  0  0  0  0  0  0
   21.0363    0.1726   14.9662 C   0  0  0  0  0  0  0  0  0  0  0  0
   19.5992    0.7298   15.0733 C   0  0  0  0  0  0  0  0  0  0  0  0
   19.2607    1.6356   13.9038 C   0  0  0  0  0  0  0  0  0  0  0  0
   18.0125    2.4648   14.1229 C   0  0  0  0  0  0  0  0  0  0  0  0
   16.7238    1.6523   14.3057 C   0  0  2  0  0  0  0  0  0  0  0  0
   16.3396    0.3737   12.9334 S   0  0  0  0  0  0  0  0  0  0  0  0
   14.5771    0.2852   13.6620 C   0  0  0  0  0  0  0  0  0  0  0  0
   14.2648    1.7338   14.1386 C   0  0  2  0  0  0  0  0  0  0  0  0
   13.5965    2.4380   12.9276 N   0  0  0  0  0  0  0  0  0  0  0  0
   14.2299    3.4540   12.5278 C   0  0  0  0  0  0  0  0  0  0  0  0
   14.0702    4.1709   11.4770 O   0  0  0  0  0  0  0  0  0  0  0  0
   15.5067    3.6353   13.1793 N   0  0  0  0  0  0  0  0  0  0  0  0
   15.5121    2.5870   14.2915 C   0  0  2  0  0  0  0  0  0  0  0  0
  1  2  1  0  0  0  0
  1  3  2  0  0  0  0
  1  4  1  0  0  0  0
  4  5  1  0  0  0  0
  5  6  1  0  0  0  0
  6  7  1  0  0  0  0
  8  7  1  6  0  0  0
  8  9  1  0  0  0  0
  8 16  1  0  0  0  0
  9 10  1  0  0  0  0
 11 10  1  6  0  0  0
 11 12  1  0  0  0  0
 11 16  1  0  0  0  0
 12 13  1  0  0  0  0
 13 14  2  0  0  0  0
 13 15  1  0  0  0  0
 16 15  1  6  0  0  0
M  CHG  1   2  -1
M  END
>  <CHROM.1>
103.47938038,175.65750179,-165.97822146,-62.21494886,-53.37017067,17.30594495
1.33144923,14.09469083,0.48309820,0.34403606,2.92784265

>  <Name>
1f27 biotin aptamer (Xray 1.3A)

>  <RI>
0

>  <Rbt.Current_Directory>
/home/itssahil/PROJECTS/Mol_Feturizer/New_Systems/rnas/1f27

>  <Rbt.Executable>
rbdock ($Id: //depot/dev/client3/rdock/2013.1/src/exe/rbdock.cxx#4 $)

>  <Rbt.Library>
libRbt.so (2013.1, Build901 2013/11/27)

>  <Rbt.Parameter_File>
/export/apps/rDock/src/rDock_2013.1_src/data/scripts/dock_solv.prm

>  <Rbt.Receptor>
prm/pocket_docking_5.prm

>  <SCORE>
-32.1381

>  <SCORE.INTER>
-29.7351

>  <SCORE.INTER.CONST>
1

>  <SCORE.INTER.POLAR>
-2.62309

>  <SCORE.INTER.ROT>
5

>  <SCORE.INTER.SOLV>
10.026

>  <SCORE.INTER.VDW>
-21.3551

>  <SCORE.INTER.norm>
-1.85845

>  <SCORE.INTRA>
-2.40971

>  <SCORE.INTRA.DIHEDRAL>
-4.3593

>  <SCORE.INTRA.DIHEDRAL.0>
6.87082

>  <SCORE.INTRA.POLAR>
0

>  <SCORE.INTRA.POLAR.0>
0

>  <SCORE.INTRA.REPUL>
0

>  <SCORE.INTRA.REPUL.0>
0

>  <SCORE.INTRA.SOLV>
-0.823365

>  <SCORE.INTRA.SOLV.lig_0>
-42.5944

>  <SCORE.INTRA.VDW>
0.181623

>  <SCORE.INTRA.VDW.0>
-1.067

>  <SCORE.INTRA.norm>
-0.150607

>  <SCORE.RESTR>
0.00678701

>  <SCORE.RESTR.CAVITY>
0.00678701

>  <SCORE.RESTR.norm>
0.000424188

>  <SCORE.SYSTEM>
0

>  <SCORE.SYSTEM.CONST>
0

>  <SCORE.SYSTEM.DIHEDRAL>
0

>  <SCORE.SYSTEM.SOLV>
0

>  <SCORE.SYSTEM.norm>
0

>  <SCORE.heavy>
16

>  <SCORE.norm>
-2.00863

>  <RMSD>
2.086

$$$$
1f27 biotin aptamer (Xray 1.3A)
 OpenBabel11021811393D
libRbt.so/2013.1/901 2013/11/27
 16 17  0  0  0  0  0  0  0  0999 V2000
   21.3641   -0.0464   13.9317 C   0  0  0  0  0  0  0  0  0  0  0  0
   21.7430   -0.1251   12.7674 O   0  5  0  0  0  0  0  0  0  0  0  0
   22.1899    0.0064   14.8416 O   0  0  0  0  0  0  0  0  0  0  0  0
   19.8771    0.0548   14.2466 C   0  0  0  0  0  0  0  0  0  0  0  0
   19.2615    1.4363   13.9312 C   0  0  0  0  0  0  0  0  0  0  0  0
   17.7945    1.4970   14.3151 C   0  0  0  0  0  0  0  0  0  0  0  0
   17.0818    2.7245   13.7869 C   0  0  0  0  0  0  0  0  0  0  0  0
   15.5682    2.7477   14.0376 C   0  0  2  0  0  0  0  0  0  0  0  0
   14.6992    1.0419   14.0674 S   0  0  0  0  0  0  0  0  0  0  0  0
   13.0542    2.0003   13.9248 C   0  0  0  0  0  0  0  0  0  0  0  0
   13.3758    3.2195   13.0119 C   0  0  2  0  0  0  0  0  0  0  0  0
   13.0838    2.7460   11.5629 N   0  0  0  0  0  0  0  0  0  0  0  0
   14.0922    2.8017   10.8058 C   0  0  0  0  0  0  0  0  0  0  0  0
   14.2644    2.3494    9.6186 O   0  0  0  0  0  0  0  0  0  0  0  0
   15.3172    3.1373   11.4945 N   0  0  0  0  0  0  0  0  0  0  0  0
   14.8644    3.5028   12.9078 C   0  0  2  0  0  0  0  0  0  0  0  0
  1  2  1  0  0  0  0
  1  3  2  0  0  0  0
  1  4  1  0  0  0  0
  4  5  1  0  0  0  0
  5  6  1  0  0  0  0
  6  7  1  0  0  0  0
  8  7  1  6  0  0  0
  8  9  1  0  0  0  0
  8 16  1  0  0  0  0
  9 10  1  0  0  0  0
 11 10  1  1  0  0  0
 11 12  1  0  0  0  0
 11 16  1  0  0  0  0
 12 13  1  0  0  0  0
 13 14  2  0  0  0  0
 13 15  1  0  0  0  0
 16 15  1  6  0  0  0
M  CHG  1   2  -1
M  END
>  <CHROM.1>
-74.05400537,-177.73013871,-168.86379314,174.19623617,-31.38179969,16.63077903
1.73300545,13.12837508,-0.29687879,0.26688812,-1.37230756

>  <Name>
1f27 biotin aptamer (Xray 1.3A)

>  <RI>
0

>  <Rbt.Current_Directory>
/home/itssahil/PROJECTS/Mol_Feturizer/New_Systems/rnas/1f27

>  <Rbt.Executable>
rbdock ($Id: //depot/dev/client3/rdock/2013.1/src/exe/rbdock.cxx#4 $)

>  <Rbt.Library>
libRbt.so (2013.1, Build901 2013/11/27)

>  <Rbt.Parameter_File>
/export/apps/rDock/src/rDock_2013.1_src/data/scripts/dock_solv.prm

>  <Rbt.Receptor>
prm/blind_docking_40.prm

>  <SCORE>
-28.7528

>  <SCORE.INTER>
-27.6878

>  <SCORE.INTER.CONST>
1

>  <SCORE.INTER.POLAR>
-2.12253

>  <SCORE.INTER.ROT>
5

>  <SCORE.INTER.SOLV>
12.7074

>  <SCORE.INTER.VDW>
-22.5525

>  <SCORE.INTER.norm>
-1.73048

>  <SCORE.INTRA>
-1.15489

>  <SCORE.INTRA.DIHEDRAL>
-2.1834

>  <SCORE.INTRA.DIHEDRAL.0>
6.87082

>  <SCORE.INTRA.POLAR>
0

>  <SCORE.INTRA.POLAR.0>
0

>  <SCORE.INTRA.REPUL>
0

>  <SCORE.INTRA.REPUL.0>
0

>  <SCORE.INTRA.SOLV>
-0.766286

>  <SCORE.INTRA.SOLV.lig_0>
-42.5944

>  <SCORE.INTRA.VDW>
0.319956

>  <SCORE.INTRA.VDW.0>
-1.067

>  <SCORE.INTRA.norm>
-0.0721805

>  <SCORE.RESTR>
0.0898616

>  <SCORE.RESTR.CAVITY>
0.0898616

>  <SCORE.RESTR.norm>
0.00561635

>  <SCORE.SYSTEM>
0

>  <SCORE.SYSTEM.CONST>
0

>  <SCORE.SYSTEM.DIHEDRAL>
0

>  <SCORE.SYSTEM.SOLV>
0

>  <SCORE.SYSTEM.norm>
0

>  <SCORE.heavy>
16

>  <SCORE.norm>
-1.79705

>  <RMSD>
2.089

$$$$
1f27 biotin aptamer (Xray 1.3A)
 OpenBabel11021811393D
libRbt.so/2013.1/901 2013/11/27
 16 17  0  0  0  0  0  0  0  0999 V2000
   20.9026   -0.7369   16.8874 C   0  0  0  0  0  0  0  0  0  0  0  0
   21.6127    0.0129   17.5499 O   0  5  0  0  0  0  0  0  0  0  0  0
   20.3200   -1.6708   17.4359 O   0  0  0  0  0  0  0  0  0  0  0  0
   20.6876   -0.4725   15.4027 C   0  0  0  0  0  0  0  0  0  0  0  0
   19.5282    0.5030   15.1004 C   0  0  0  0  0  0  0  0  0  0  0  0
   19.2474    0.5958   13.6120 C   0  0  0  0  0  0  0  0  0  0  0  0
   18.2633    1.6884   13.2495 C   0  0  0  0  0  0  0  0  0  0  0  0
   16.8537    1.5023   13.8261 C   0  0  2  0  0  0  0  0  0  0  0  0
   16.0092   -0.1735   13.4462 S   0  0  0  0  0  0  0  0  0  0  0  0
   14.3821    0.6401   14.0257 C   0  0  0  0  0  0  0  0  0  0  0  0
   14.4818    2.1205   13.5551 C   0  0  2  0  0  0  0  0  0  0  0  0
   13.8498    2.1527   12.1379 N   0  0  0  0  0  0  0  0  0  0  0  0
   14.6482    2.5463   11.2430 C   0  0  0  0  0  0  0  0  0  0  0  0
   14.5297    2.5454    9.9664 O   0  0  0  0  0  0  0  0  0  0  0  0
   16.0038    2.7217   11.7111 N   0  0  0  0  0  0  0  0  0  0  0  0
   15.9037    2.5409   13.2255 C   0  0  2  0  0  0  0  0  0  0  0  0
  1  2  1  0  0  0  0
  1  3  2  0  0  0  0
  1  4  1  0  0  0  0
  4  5  1  0  0  0  0
  5  6  1  0  0  0  0
  6  7  1  0  0  0  0
  8  7  1  6  0  0  0
  8  9  1  0  0  0  0
  8 16  1  0  0  0  0
  9 10  1  0  0  0  0
 11 10  1  6  0  0  0
 11 12  1  0  0  0  0
 11 16  1  0  0  0  0
 12 13  1  0  0  0  0
 13 14  2  0  0  0  0
 13 15  1  0  0  0  0
 16 15  1  6  0  0  0
M  CHG  1   2  -1
M  END
>  <CHROM.1>
-86.39110771,-172.90372297,-171.41295761,-63.33661718,-53.94764938,17.25698454
0.92545708,13.87376907,0.72495850,0.13864235,2.23773202

>  <Name>
1f27 biotin aptamer (Xray 1.3A)

>  <RI>
0

>  <Rbt.Current_Directory>
/home/itssahil/PROJECTS/Mol_Feturizer/New_Systems/rnas/1f27

>  <Rbt.Executable>
rbdock ($Id: //depot/dev/client3/rdock/2013.1/src/exe/rbdock.cxx#4 $)

>  <Rbt.Library>
libRbt.so (2013.1, Build901 2013/11/27)

>  <Rbt.Parameter_File>
/export/apps/rDock/src/rDock_2013.1_src/data/scripts/dock_solv.prm

>  <Rbt.Receptor>
prm/pocket_docking_7.prm

>  <SCORE>
-31.5139

>  <SCORE.INTER>
-28.8062

>  <SCORE.INTER.CONST>
1

>  <SCORE.INTER.POLAR>
-2.26463

>  <SCORE.INTER.ROT>
5

>  <SCORE.INTER.SOLV>
11.8197

>  <SCORE.INTER.VDW>
-22.5286

>  <SCORE.INTER.norm>
-1.80039

>  <SCORE.INTRA>
-2.70771

>  <SCORE.INTRA.DIHEDRAL>
-4.9241

>  <SCORE.INTRA.DIHEDRAL.0>
6.87082

>  <SCORE.INTRA.POLAR>
0

>  <SCORE.INTRA.POLAR.0>
0

>  <SCORE.INTRA.REPUL>
0

>  <SCORE.INTRA.REPUL.0>
0

>  <SCORE.INTRA.SOLV>
-0.789841

>  <SCORE.INTRA.SOLV.lig_0>
-42.5944

>  <SCORE.INTRA.VDW>
0.149256

>  <SCORE.INTRA.VDW.0>
-1.067

>  <SCORE.INTRA.norm>
-0.169232

>  <SCORE.RESTR>
0

>  <SCORE.RESTR.CAVITY>
0

>  <SCORE.RESTR.norm>
0

>  <SCORE.SYSTEM>
0

>  <SCORE.SYSTEM.CONST>
0

>  <SCORE.SYSTEM.DIHEDRAL>
0

>  <SCORE.SYSTEM.SOLV>
0

>  <SCORE.SYSTEM.norm>
0

>  <SCORE.heavy>
16

>  <SCORE.norm>
-1.96962

>  <RMSD>
2.104

$$$$
1f27 biotin aptamer (Xray 1.3A)
 OpenBabel11021811393D
libRbt.so/2013.1/901 2013/11/27
 16 17  0  0  0  0  0  0  0  0999 V2000
   21.3906   -0.1498   15.4214 C   0  0  0  0  0  0  0  0  0  0  0  0
   20.9600   -1.2863   15.2530 O   0  5  0  0  0  0  0  0  0  0  0  0
   21.8656    0.1694   16.5100 O   0  0  0  0  0  0  0  0  0  0  0  0
   21.4002    0.8431   14.2662 C   0  0  0  0  0  0  0  0  0  0  0  0
   20.2470    1.8703   14.3119 C   0  0  0  0  0  0  0  0  0  0  0  0
   18.8904    1.1902   14.3127 C   0  0  0  0  0  0  0  0  0  0  0  0
   17.7279    2.1603   14.3432 C   0  0  0  0  0  0  0  0  0  0  0  0
   16.3444    1.5042   14.4425 C   0  0  2  0  0  0  0  0  0  0  0  0
   15.9170    0.2416   13.0682 S   0  0  0  0  0  0  0  0  0  0  0  0
   14.1075    0.3727   13.6629 C   0  0  0  0  0  0  0  0  0  0  0  0
   13.9299    1.8595   14.0886 C   0  0  2  0  0  0  0  0  0  0  0  0
   13.4373    2.6026   12.8181 N   0  0  0  0  0  0  0  0  0  0  0  0
   14.2108    3.5293   12.4492 C   0  0  0  0  0  0  0  0  0  0  0  0
   14.2119    4.2318   11.3767 O   0  0  0  0  0  0  0  0  0  0  0  0
   15.4490    3.5819   13.1921 N   0  0  0  0  0  0  0  0  0  0  0  0
   15.2525    2.5695   14.3201 C   0  0  2  0  0  0  0  0  0  0  0  0
  1  2  1  0  0  0  0
  1  3  2  0  0  0  0
  1  4  1  0  0  0  0
  4  5  1  0  0  0  0
  5  6  1  0  0  0  0
  6  7  1  0  0  0  0
  8  7  1  6  0  0  0
  8  9  1  0  0  0  0
  8 16  1  0  0  0  0
  9 10  1  0  0  0  0
 11 10  1  6  0  0  0
 11 12  1  0  0  0  0
 11 16  1  0  0  0  0
 12 13  1  0  0  0  0
 13 14  2  0  0  0  0
 13 15  1  0  0  0  0
 16 15  1  6  0  0  0
M  CHG  1   2  -1
M  END
>  <CHROM.1>
101.24457941,-58.15093187,-179.43092298,-175.96905511,-56.66065685,17.14949432
1.47518047,13.91718093,0.41348691,0.22776285,2.84381328

>  <Name>
1f27 biotin aptamer (Xray 1.3A)

>  <RI>
0

>  <Rbt.Current_Directory>
/home/itssahil/PROJECTS/Mol_Feturizer/New_Systems/rnas/1f27

>  <Rbt.Executable>
rbdock ($Id: //depot/dev/client3/rdock/2013.1/src/exe/rbdock.cxx#4 $)

>  <Rbt.Library>
libRbt.so (2013.1, Build901 2013/11/27)

>  <Rbt.Parameter_File>
/export/apps/rDock/src/rDock_2013.1_src/data/scripts/dock_solv.prm

>  <Rbt.Receptor>
prm/pocket_docking_6.prm

>  <SCORE>
-32.4653

>  <SCORE.INTER>
-30.0356

>  <SCORE.INTER.CONST>
1

>  <SCORE.INTER.POLAR>
-2.21747

>  <SCORE.INTER.ROT>
5

>  <SCORE.INTER.SOLV>
11.0691

>  <SCORE.INTER.VDW>
-23.2552

>  <SCORE.INTER.norm>
-1.87723

>  <SCORE.INTRA>
-2.42972

>  <SCORE.INTRA.DIHEDRAL>
-5.2824

>  <SCORE.INTRA.DIHEDRAL.0>
6.87082

>  <SCORE.INTRA.POLAR>
0

>  <SCORE.INTRA.POLAR.0>
0

>  <SCORE.INTRA.REPUL>
0

>  <SCORE.INTRA.REPUL.0>
0

>  <SCORE.INTRA.SOLV>
0.122753

>  <SCORE.INTRA.SOLV.lig_0>
-42.5944

>  <SCORE.INTRA.VDW>
0.1501

>  <SCORE.INTRA.VDW.0>
-1.067

>  <SCORE.INTRA.norm>
-0.151858

>  <SCORE.RESTR>
0

>  <SCORE.RESTR.CAVITY>
0

>  <SCORE.RESTR.norm>
0

>  <SCORE.SYSTEM>
0

>  <SCORE.SYSTEM.CONST>
0

>  <SCORE.SYSTEM.DIHEDRAL>
0

>  <SCORE.SYSTEM.SOLV>
0

>  <SCORE.SYSTEM.norm>
0

>  <SCORE.heavy>
16

>  <SCORE.norm>
-2.02908

>  <RMSD>
2.105

$$$$
1f27 biotin aptamer (Xray 1.3A)
 OpenBabel11021811393D
libRbt.so/2013.1/901 2013/11/27
 16 17  0  0  0  0  0  0  0  0999 V2000
   21.3097    0.0716   15.6471 C   0  0  0  0  0  0  0  0  0  0  0  0
   20.4617   -0.4721   16.3477 O   0  5  0  0  0  0  0  0  0  0  0  0
   22.4286    0.2971   16.1051 O   0  0  0  0  0  0  0  0  0  0  0  0
   21.0010    0.4047   14.1931 C   0  0  0  0  0  0  0  0  0  0  0  0
   20.0599    1.6167   14.0131 C   0  0  0  0  0  0  0  0  0  0  0  0
   18.6360    1.2859   14.4203 C   0  0  0  0  0  0  0  0  0  0  0  0
   17.6319    2.3486   14.0252 C   0  0  0  0  0  0  0  0  0  0  0  0
   16.1626    1.9436   14.2023 C   0  0  2  0  0  0  0  0  0  0  0  0
   15.6852    0.2147   13.5323 S   0  0  0  0  0  0  0  0  0  0  0  0
   13.8670    0.7713   13.7042 C   0  0  0  0  0  0  0  0  0  0  0  0
   13.8743    2.2870   13.3496 C   0  0  2  0  0  0  0  0  0  0  0  0
   13.6238    2.3601   11.8195 N   0  0  0  0  0  0  0  0  0  0  0  0
   14.5596    2.9221   11.1858 C   0  0  0  0  0  0  0  0  0  0  0  0
   14.7696    3.0136    9.9243 O   0  0  0  0  0  0  0  0  0  0  0  0
   15.7140    3.2224   12.0010 N   0  0  0  0  0  0  0  0  0  0  0  0
   15.2599    2.9046   13.4253 C   0  0  2  0  0  0  0  0  0  0  0  0
  1  2  1  0  0  0  0
  1  3  2  0  0  0  0
  1  4  1  0  0  0  0
  4  5  1  0  0  0  0
  5  6  1  0  0  0  0
  6  7  1  0  0  0  0
  8  7  1  6  0  0  0
  8  9  1  0  0  0  0
  8 16  1  0  0  0  0
  9 10  1  0  0  0  0
 11 10  1  6  0  0  0
 11 12  1  0  0  0  0
 11 16  1  0  0  0  0
 12 13  1  0  0  0  0
 13 14  2  0  0  0  0
 13 15  1  0  0  0  0
 16 15  1  6  0  0  0
M  CHG  1   2  -1
M  END
>  <CHROM.1>
74.54142943,-71.91225348,-169.31767949,169.98245871,-46.67061154,17.12130978
1.45941460,13.61000507,-0.52856655,-0.10604143,-0.85777609

>  <Name>
1f27 biotin aptamer (Xray 1.3A)

>  <RI>
0

>  <Rbt.Current_Directory>
/home/itssahil/PROJECTS/Mol_Feturizer/New_Systems/rnas/1f27

>  <Rbt.Executable>
rbdock ($Id: //depot/dev/client3/rdock/2013.1/src/exe/rbdock.cxx#4 $)

>  <Rbt.Library>
libRbt.so (2013.1, Build901 2013/11/27)

>  <Rbt.Parameter_File>
/export/apps/rDock/src/rDock_2013.1_src/data/scripts/dock_solv.prm

>  <Rbt.Receptor>
prm/pocket_docking_7.prm

>  <SCORE>
-30.3888

>  <SCORE.INTER>
-28.8532

>  <SCORE.INTER.CONST>
1

>  <SCORE.INTER.POLAR>
-1.80845

>  <SCORE.INTER.ROT>
5

>  <SCORE.INTER.SOLV>
13.3213

>  <SCORE.INTER.VDW>
-24.581

>  <SCORE.INTER.norm>
-1.80332

>  <SCORE.INTRA>
-1.53565

>  <SCORE.INTRA.DIHEDRAL>
-3.35683

>  <SCORE.INTRA.DIHEDRAL.0>
6.87082

>  <SCORE.INTRA.POLAR>
0

>  <SCORE.INTRA.POLAR.0>
0

>  <SCORE.INTRA.REPUL>
0

>  <SCORE.INTRA.REPUL.0>
0

>  <SCORE.INTRA.SOLV>
0.0894473

>  <SCORE.INTRA.SOLV.lig_0>
-42.5944

>  <SCORE.INTRA.VDW>
0.0980375

>  <SCORE.INTRA.VDW.0>
-1.067

>  <SCORE.INTRA.norm>
-0.0959784

>  <SCORE.RESTR>
0

>  <SCORE.RESTR.CAVITY>
0

>  <SCORE.RESTR.norm>
0

>  <SCORE.SYSTEM>
0

>  <SCORE.SYSTEM.CONST>
0

>  <SCORE.SYSTEM.DIHEDRAL>
0

>  <SCORE.SYSTEM.SOLV>
0

>  <SCORE.SYSTEM.norm>
0

>  <SCORE.heavy>
16

>  <SCORE.norm>
-1.8993

>  <RMSD>
2.111

$$$$
1f27 biotin aptamer (Xray 1.3A)
 OpenBabel11021811393D
libRbt.so/2013.1/901 2013/11/27
 16 17  0  0  0  0  0  0  0  0999 V2000
   21.5239    0.0332   15.4170 C   0  0  0  0  0  0  0  0  0  0  0  0
   21.1921   -1.0585   14.9658 O   0  5  0  0  0  0  0  0  0  0  0  0
   21.9149    0.1214   16.5796 O   0  0  0  0  0  0  0  0  0  0  0  0
   21.5173    1.2649   14.5206 C   0  0  0  0  0  0  0  0  0  0  0  0
   20.2091    1.4513   13.7201 C   0  0  0  0  0  0  0  0  0  0  0  0
   18.9843    1.2336   14.5892 C   0  0  0  0  0  0  0  0  0  0  0  0
   17.8318    2.1565   14.2518 C   0  0  0  0  0  0  0  0  0  0  0  0
   16.4390    1.5352   14.4203 C   0  0  2  0  0  0  0  0  0  0  0  0
   15.9344    0.2432   13.1005 S   0  0  0  0  0  0  0  0  0  0  0  0
   14.1512    0.4326   13.7556 C   0  0  0  0  0  0  0  0  0  0  0  0
   14.0215    1.9348   14.1428 C   0  0  2  0  0  0  0  0  0  0  0  0
   13.4990    2.6517   12.8691 N   0  0  0  0  0  0  0  0  0  0  0  0
   14.2784    3.5495   12.4453 C   0  0  0  0  0  0  0  0  0  0  0  0
   14.2555    4.2202   11.3529 O   0  0  0  0  0  0  0  0  0  0  0  0
   15.5437    3.5955   13.1413 N   0  0  0  0  0  0  0  0  0  0  0  0
   15.3668    2.6210   14.3054 C   0  0  2  0  0  0  0  0  0  0  0  0
  1  2  1  0  0  0  0
  1  3  2  0  0  0  0
  1  4  1  0  0  0  0
  4  5  1  0  0  0  0
  5  6  1  0  0  0  0
  6  7  1  0  0  0  0
  8  7  1  6  0  0  0
  8  9  1  0  0  0  0
  8 16  1  0  0  0  0
  9 10  1  0  0  0  0
 11 10  1  6  0  0  0
 11 12  1  0  0  0  0
 11 16  1  0  0  0  0
 12 13  1  0  0  0  0
 13 14  2  0  0  0  0
 13 15  1  0  0  0  0
 16 15  1  6  0  0  0
M  CHG  1   2  -1
M  END
>  <CHROM.1>
49.24643915,45.09398892,143.60314852,145.53111846,-72.88046005,17.22721531
1.51460839,13.90263527,-0.41019717,-0.20153030,-0.34533907

>  <Name>
1f27 biotin aptamer (Xray 1.3A)

>  <RI>
0

>  <Rbt.Current_Directory>
/home/itssahil/PROJECTS/Mol_Feturizer/New_Systems/rnas/1f27

>  <Rbt.Executable>
rbdock ($Id: //depot/dev/client3/rdock/2013.1/src/exe/rbdock.cxx#4 $)

>  <Rbt.Library>
libRbt.so (2013.1, Build901 2013/11/27)

>  <Rbt.Parameter_File>
/export/apps/rDock/src/rDock_2013.1_src/data/scripts/dock_solv.prm

>  <Rbt.Receptor>
prm/pocket_docking_3.prm

>  <SCORE>
-27.8255

>  <SCORE.INTER>
-30.513

>  <SCORE.INTER.CONST>
1

>  <SCORE.INTER.POLAR>
-2.1395

>  <SCORE.INTER.ROT>
5

>  <SCORE.INTER.SOLV>
11.0824

>  <SCORE.INTER.VDW>
-23.8378

>  <SCORE.INTER.norm>
-1.90706

>  <SCORE.INTRA>
2.51116

>  <SCORE.INTRA.DIHEDRAL>
3.66923

>  <SCORE.INTRA.DIHEDRAL.0>
6.87082

>  <SCORE.INTRA.POLAR>
0

>  <SCORE.INTRA.POLAR.0>
0

>  <SCORE.INTRA.REPUL>
0

>  <SCORE.INTRA.REPUL.0>
0

>  <SCORE.INTRA.SOLV>
0.302748

>  <SCORE.INTRA.SOLV.lig_0>
-42.5944

>  <SCORE.INTRA.VDW>
0.525168

>  <SCORE.INTRA.VDW.0>
-1.067

>  <SCORE.INTRA.norm>
0.156947

>  <SCORE.RESTR>
0.176317

>  <SCORE.RESTR.CAVITY>
0.176317

>  <SCORE.RESTR.norm>
0.0110198

>  <SCORE.SYSTEM>
0

>  <SCORE.SYSTEM.CONST>
0

>  <SCORE.SYSTEM.DIHEDRAL>
0

>  <SCORE.SYSTEM.SOLV>
0

>  <SCORE.SYSTEM.norm>
0

>  <SCORE.heavy>
16

>  <SCORE.norm>
-1.73909

>  <RMSD>
2.113

$$$$
1f27 biotin aptamer (Xray 1.3A)
 OpenBabel11021811393D
libRbt.so/2013.1/901 2013/11/27
 16 17  0  0  0  0  0  0  0  0999 V2000
   21.4350   -0.1709   15.4636 C   0  0  0  0  0  0  0  0  0  0  0  0
   20.9873   -1.3058   15.3335 O   0  5  0  0  0  0  0  0  0  0  0  0
   21.9411    0.1683   16.5319 O   0  0  0  0  0  0  0  0  0  0  0  0
   21.4266    0.7940   14.2849 C   0  0  0  0  0  0  0  0  0  0  0  0
   20.2807    1.8294   14.3297 C   0  0  0  0  0  0  0  0  0  0  0  0
   18.9191    1.1602   14.2955 C   0  0  0  0  0  0  0  0  0  0  0  0
   17.7636    2.1384   14.3334 C   0  0  0  0  0  0  0  0  0  0  0  0
   16.3763    1.4921   14.4423 C   0  0  2  0  0  0  0  0  0  0  0  0
   15.9083    0.2752   13.0402 S   0  0  0  0  0  0  0  0  0  0  0  0
   14.1129    0.4046   13.6765 C   0  0  0  0  0  0  0  0  0  0  0  0
   13.9585    1.8795   14.1500 C   0  0  2  0  0  0  0  0  0  0  0  0
   13.4467    2.6648   12.9129 N   0  0  0  0  0  0  0  0  0  0  0  0
   14.2212    3.5952   12.5557 C   0  0  0  0  0  0  0  0  0  0  0  0
   14.2068    4.3295   11.5048 O   0  0  0  0  0  0  0  0  0  0  0  0
   15.4750    3.6144   13.2735 N   0  0  0  0  0  0  0  0  0  0  0  0
   15.2924    2.5703   14.3747 C   0  0  2  0  0  0  0  0  0  0  0  0
  1  2  1  0  0  0  0
  1  3  2  0  0  0  0
  1  4  1  0  0  0  0
  4  5  1  0  0  0  0
  5  6  1  0  0  0  0
  6  7  1  0  0  0  0
  8  7  1  6  0  0  0
  8  9  1  0  0  0  0
  8 16  1  0  0  0  0
  9 10  1  0  0  0  0
 11 10  1  6  0  0  0
 11 12  1  0  0  0  0
 11 16  1  0  0  0  0
 12 13  1  0  0  0  0
 13 14  2  0  0  0  0
 13 15  1  0  0  0  0
 16 15  1  6  0  0  0
M  CHG  1   2  -1
M  END
>  <CHROM.1>
100.82679950,-61.36279404,-179.82539634,-174.14952444,-58.58392555,17.17246587
1.48694577,13.95446733,0.41422672,0.22867919,2.86649769

>  <Name>
1f27 biotin aptamer (Xray 1.3A)

>  <RI>
0

>  <Rbt.Current_Directory>
/home/itssahil/PROJECTS/Mol_Feturizer/New_Systems/rnas/1f27

>  <Rbt.Executable>
rbdock ($Id: //depot/dev/client3/rdock/2013.1/src/exe/rbdock.cxx#4 $)

>  <Rbt.Library>
libRbt.so (2013.1, Build901 2013/11/27)

>  <Rbt.Parameter_File>
/export/apps/rDock/src/rDock_2013.1_src/data/scripts/dock_solv.prm

>  <Rbt.Receptor>
prm/pocket_docking_7.prm

>  <SCORE>
-32.662

>  <SCORE.INTER>
-30.1616

>  <SCORE.INTER.CONST>
1

>  <SCORE.INTER.POLAR>
-2.26788

>  <SCORE.INTER.ROT>
5

>  <SCORE.INTER.SOLV>
11.2009

>  <SCORE.INTER.VDW>
-23.2151

>  <SCORE.INTER.norm>
-1.8851

>  <SCORE.INTRA>
-2.50038

>  <SCORE.INTRA.DIHEDRAL>
-5.25256

>  <SCORE.INTRA.DIHEDRAL.0>
6.87082

>  <SCORE.INTRA.POLAR>
0

>  <SCORE.INTRA.POLAR.0>
0

>  <SCORE.INTRA.REPUL>
0

>  <SCORE.INTRA.REPUL.0>
0

>  <SCORE.INTRA.SOLV>
0.082162

>  <SCORE.INTRA.SOLV.lig_0>
-42.5944

>  <SCORE.INTRA.VDW>
0.0848154

>  <SCORE.INTRA.VDW.0>
-1.067

>  <SCORE.INTRA.norm>
-0.156274

>  <SCORE.RESTR>
0

>  <SCORE.RESTR.CAVITY>
0

>  <SCORE.RESTR.norm>
0

>  <SCORE.SYSTEM>
0

>  <SCORE.SYSTEM.CONST>
0

>  <SCORE.SYSTEM.DIHEDRAL>
0

>  <SCORE.SYSTEM.SOLV>
0

>  <SCORE.SYSTEM.norm>
0

>  <SCORE.heavy>
16

>  <SCORE.norm>
-2.04138

>  <RMSD>
2.113

$$$$
1f27 biotin aptamer (Xray 1.3A)
 OpenBabel11021811393D
libRbt.so/2013.1/901 2013/11/27
 16 17  0  0  0  0  0  0  0  0999 V2000
   21.0124   -0.3220   16.2049 C   0  0  0  0  0  0  0  0  0  0  0  0
   20.2819   -1.3020   16.3116 O   0  5  0  0  0  0  0  0  0  0  0  0
   21.5765    0.1316   17.1991 O   0  0  0  0  0  0  0  0  0  0  0  0
   21.2751    0.2903   14.8350 C   0  0  0  0  0  0  0  0  0  0  0  0
   20.3058    1.4343   14.4627 C   0  0  0  0  0  0  0  0  0  0  0  0
   18.8598    0.9745   14.4889 C   0  0  0  0  0  0  0  0  0  0  0  0
   17.8895    1.9995   13.9397 C   0  0  0  0  0  0  0  0  0  0  0  0
   16.4086    1.6771   14.1791 C   0  0  2  0  0  0  0  0  0  0  0  0
   15.8012   -0.0103   13.5089 S   0  0  0  0  0  0  0  0  0  0  0  0
   14.0283    0.6474   13.7722 C   0  0  0  0  0  0  0  0  0  0  0  0
   14.1079    2.1657   13.4380 C   0  0  2  0  0  0  0  0  0  0  0  0
   13.7928    2.2776   11.9223 N   0  0  0  0  0  0  0  0  0  0  0  0
   14.7300    2.7949   11.2535 C   0  0  0  0  0  0  0  0  0  0  0  0
   14.8874    2.8943    9.9850 O   0  0  0  0  0  0  0  0  0  0  0  0
   15.9359    3.0149   12.0183 N   0  0  0  0  0  0  0  0  0  0  0  0
   15.5292    2.7010   13.4578 C   0  0  2  0  0  0  0  0  0  0  0  0
  1  2  1  0  0  0  0
  1  3  2  0  0  0  0
  1  4  1  0  0  0  0
  4  5  1  0  0  0  0
  5  6  1  0  0  0  0
  6  7  1  0  0  0  0
  8  7  1  6  0  0  0
  8  9  1  0  0  0  0
  8 16  1  0  0  0  0
  9 10  1  0  0  0  0
 11 10  1  6  0  0  0
 11 12  1  0  0  0  0
 11 16  1  0  0  0  0
 12 13  1  0  0  0  0
 13 14  2  0  0  0  0
 13 15  1  0  0  0  0
 16 15  1  6  0  0  0
M  CHG  1   2  -1
M  END
>  <CHROM.1>
92.53774306,-57.87566091,-171.66790334,-169.56444262,-56.59667832,17.20127962
1.21894080,13.78987547,0.60573696,0.18766978,2.35317223

>  <Name>
1f27 biotin aptamer (Xray 1.3A)

>  <RI>
0

>  <Rbt.Current_Directory>
/home/itssahil/PROJECTS/Mol_Feturizer/New_Systems/rnas/1f27

>  <Rbt.Executable>
rbdock ($Id: //depot/dev/client3/rdock/2013.1/src/exe/rbdock.cxx#4 $)

>  <Rbt.Library>
libRbt.so (2013.1, Build901 2013/11/27)

>  <Rbt.Parameter_File>
/export/apps/rDock/src/rDock_2013.1_src/data/scripts/dock_solv.prm

>  <Rbt.Receptor>
prm/pocket_docking_8.prm

>  <SCORE>
-34.6867

>  <SCORE.INTER>
-32.6572

>  <SCORE.INTER.CONST>
1

>  <SCORE.INTER.POLAR>
-2.55559

>  <SCORE.INTER.ROT>
5

>  <SCORE.INTER.SOLV>
12.5373

>  <SCORE.INTER.VDW>
-24.3653

>  <SCORE.INTER.norm>
-2.04108

>  <SCORE.INTRA>
-2.02947

>  <SCORE.INTRA.DIHEDRAL>
-4.60035

>  <SCORE.INTRA.DIHEDRAL.0>
6.87082

>  <SCORE.INTRA.POLAR>
0

>  <SCORE.INTRA.POLAR.0>
0

>  <SCORE.INTRA.REPUL>
0

>  <SCORE.INTRA.REPUL.0>
0

>  <SCORE.INTRA.SOLV>
0.161614

>  <SCORE.INTRA.SOLV.lig_0>
-42.5944

>  <SCORE.INTRA.VDW>
0.189899

>  <SCORE.INTRA.VDW.0>
-1.067

>  <SCORE.INTRA.norm>
-0.126842

>  <SCORE.RESTR>
0

>  <SCORE.RESTR.CAVITY>
0

>  <SCORE.RESTR.norm>
0

>  <SCORE.SYSTEM>
0

>  <SCORE.SYSTEM.CONST>
0

>  <SCORE.SYSTEM.DIHEDRAL>
0

>  <SCORE.SYSTEM.SOLV>
0

>  <SCORE.SYSTEM.norm>
0

>  <SCORE.heavy>
16

>  <SCORE.norm>
-2.16792

>  <RMSD>
2.126

$$$$
1f27 biotin aptamer (Xray 1.3A)
 OpenBabel11021811393D
libRbt.so/2013.1/901 2013/11/27
 16 17  0  0  0  0  0  0  0  0999 V2000
   19.4898   -0.5937   13.3318 C   0  0  0  0  0  0  0  0  0  0  0  0
   18.9230   -1.5970   12.9107 O   0  5  0  0  0  0  0  0  0  0  0  0
   19.9899   -0.5996   14.4553 O   0  0  0  0  0  0  0  0  0  0  0  0
   19.6344    0.6334   12.4407 C   0  0  0  0  0  0  0  0  0  0  0  0
   19.8201    1.9553   13.2186 C   0  0  0  0  0  0  0  0  0  0  0  0
   18.6398    2.2406   14.1287 C   0  0  0  0  0  0  0  0  0  0  0  0
   17.4226    2.7629   13.3943 C   0  0  0  0  0  0  0  0  0  0  0  0
   16.0770    2.3733   14.0201 C   0  0  2  0  0  0  0  0  0  0  0  0
   15.4221    0.6296   13.5768 S   0  0  0  0  0  0  0  0  0  0  0  0
   13.7407    1.2035   14.2756 C   0  0  0  0  0  0  0  0  0  0  0  0
   13.6372    2.7086   13.8917 C   0  0  2  0  0  0  0  0  0  0  0  0
   12.9343    2.7403   12.5082 N   0  0  0  0  0  0  0  0  0  0  0  0
   13.6328    3.2777   11.6046 C   0  0  0  0  0  0  0  0  0  0  0  0
   13.4502    3.3322   10.3368 O   0  0  0  0  0  0  0  0  0  0  0  0
   14.9796    3.5928   12.0224 N   0  0  0  0  0  0  0  0  0  0  0  0
   14.9794    3.3183   13.5260 C   0  0  2  0  0  0  0  0  0  0  0  0
  1  2  1  0  0  0  0
  1  3  2  0  0  0  0
  1  4  1  0  0  0  0
  4  5  1  0  0  0  0
  5  6  1  0  0  0  0
  6  7  1  0  0  0  0
  8  7  1  6  0  0  0
  8  9  1  0  0  0  0
  8 16  1  0  0  0  0
  9 10  1  0  0  0  0
 11 10  1  6  0  0  0
 11 12  1  0  0  0  0
 11 16  1  0  0  0  0
 12 13  1  0  0  0  0
 13 14  2  0  0  0  0
 13 15  1  0  0  0  0
 16 15  1  6  0  0  0
M  CHG  1   2  -1
M  END
>  <CHROM.1>
156.38464521,-60.10921947,-76.90488206,148.75233577,-82.24654664,16.36979644
1.63728772,13.11642099,0.48573703,-0.04737020,2.67821430

>  <Name>
1f27 biotin aptamer (Xray 1.3A)

>  <RI>
0

>  <Rbt.Current_Directory>
/home/itssahil/PROJECTS/Mol_Feturizer/New_Systems/rnas/1f27

>  <Rbt.Executable>
rbdock ($Id: //depot/dev/client3/rdock/2013.1/src/exe/rbdock.cxx#4 $)

>  <Rbt.Library>
libRbt.so (2013.1, Build901 2013/11/27)

>  <Rbt.Parameter_File>
/export/apps/rDock/src/rDock_2013.1_src/data/scripts/dock_solv.prm

>  <Rbt.Receptor>
prm/blind_docking_100.prm

>  <SCORE>
-23.6125

>  <SCORE.INTER>
-24.5387

>  <SCORE.INTER.CONST>
1

>  <SCORE.INTER.POLAR>
-0.848528

>  <SCORE.INTER.ROT>
5

>  <SCORE.INTER.SOLV>
9.81103

>  <SCORE.INTER.VDW>
-23.7344

>  <SCORE.INTER.norm>
-1.53367

>  <SCORE.INTRA>
0.926238

>  <SCORE.INTRA.DIHEDRAL>
0.521405

>  <SCORE.INTRA.DIHEDRAL.0>
6.87082

>  <SCORE.INTRA.POLAR>
0

>  <SCORE.INTRA.POLAR.0>
0

>  <SCORE.INTRA.REPUL>
0

>  <SCORE.INTRA.REPUL.0>
0

>  <SCORE.INTRA.SOLV>
0.735372

>  <SCORE.INTRA.SOLV.lig_0>
-42.5944

>  <SCORE.INTRA.VDW>
0.297849

>  <SCORE.INTRA.VDW.0>
-1.067

>  <SCORE.INTRA.norm>
0.0578899

>  <SCORE.RESTR>
0

>  <SCORE.RESTR.CAVITY>
0

>  <SCORE.RESTR.norm>
0

>  <SCORE.SYSTEM>
0

>  <SCORE.SYSTEM.CONST>
0

>  <SCORE.SYSTEM.DIHEDRAL>
0

>  <SCORE.SYSTEM.SOLV>
0

>  <SCORE.SYSTEM.norm>
0

>  <SCORE.heavy>
16

>  <SCORE.norm>
-1.47578

>  <RMSD>
2.131

$$$$
1f27 biotin aptamer (Xray 1.3A)
 OpenBabel11021811393D
libRbt.so/2013.1/901 2013/11/27
 16 17  0  0  0  0  0  0  0  0999 V2000
   20.5674   -0.4673   16.3200 C   0  0  0  0  0  0  0  0  0  0  0  0
   19.7501   -1.3154   16.6637 O   0  5  0  0  0  0  0  0  0  0  0  0
   21.2436    0.1104   17.1694 O   0  0  0  0  0  0  0  0  0  0  0  0
   20.7940   -0.1789   14.8414 C   0  0  0  0  0  0  0  0  0  0  0  0
   19.5490    0.3734   14.1120 C   0  0  0  0  0  0  0  0  0  0  0  0
   19.2784    1.8200   14.4821 C   0  0  0  0  0  0  0  0  0  0  0  0
   18.1446    2.4434   13.6951 C   0  0  0  0  0  0  0  0  0  0  0  0
   16.7567    1.8622   13.9954 C   0  0  2  0  0  0  0  0  0  0  0  0
   16.3790    0.1543   13.2167 S   0  0  0  0  0  0  0  0  0  0  0  0
   14.5485    0.4862   13.6456 C   0  0  0  0  0  0  0  0  0  0  0  0
   14.3584    2.0179   13.4430 C   0  0  2  0  0  0  0  0  0  0  0  0
   13.9166    2.1930   11.9654 N   0  0  0  0  0  0  0  0  0  0  0  0
   14.7059    2.9088   11.2888 C   0  0  0  0  0  0  0  0  0  0  0  0
   14.7498    3.1309   10.0269 O   0  0  0  0  0  0  0  0  0  0  0  0
   15.9149    3.2661   11.9947 N   0  0  0  0  0  0  0  0  0  0  0  0
   15.6730    2.7785   13.4229 C   0  0  2  0  0  0  0  0  0  0  0  0
  1  2  1  0  0  0  0
  1  3  2  0  0  0  0
  1  4  1  0  0  0  0
  4  5  1  0  0  0  0
  5  6  1  0  0  0  0
  6  7  1  0  0  0  0
  8  7  1  6  0  0  0
  8  9  1  0  0  0  0
  8 16  1  0  0  0  0
  9 10  1  0  0  0  0
 11 10  1  6  0  0  0
 11 12  1  0  0  0  0
 11 16  1  0  0  0  0
 12 13  1  0  0  0  0
 13 14  2  0  0  0  0
 13 15  1  0  0  0  0
 16 15  1  6  0  0  0
M  CHG  1   2  -1
M  END
>  <CHROM.1>
62.80549222,74.09313799,174.65548029,67.42217561,-76.44482541,17.23164011
1.24586701,13.73091106,0.67183353,0.27687100,2.46717512

>  <Name>
1f27 biotin aptamer (Xray 1.3A)

>  <RI>
0

>  <Rbt.Current_Directory>
/home/itssahil/PROJECTS/Mol_Feturizer/New_Systems/rnas/1f27

>  <Rbt.Executable>
rbdock ($Id: //depot/dev/client3/rdock/2013.1/src/exe/rbdock.cxx#4 $)

>  <Rbt.Library>
libRbt.so (2013.1, Build901 2013/11/27)

>  <Rbt.Parameter_File>
/export/apps/rDock/src/rDock_2013.1_src/data/scripts/dock_solv.prm

>  <Rbt.Receptor>
prm/pocket_docking_5.prm

>  <SCORE>
-29.6768

>  <SCORE.INTER>
-27.9849

>  <SCORE.INTER.CONST>
1

>  <SCORE.INTER.POLAR>
-2.1673

>  <SCORE.INTER.ROT>
5

>  <SCORE.INTER.SOLV>
13.142

>  <SCORE.INTER.VDW>
-22.7463

>  <SCORE.INTER.norm>
-1.74906

>  <SCORE.INTRA>
-1.69184

>  <SCORE.INTRA.DIHEDRAL>
-3.45171

>  <SCORE.INTRA.DIHEDRAL.0>
6.87082

>  <SCORE.INTRA.POLAR>
0

>  <SCORE.INTRA.POLAR.0>
0

>  <SCORE.INTRA.REPUL>
0

>  <SCORE.INTRA.REPUL.0>
0

>  <SCORE.INTRA.SOLV>
-0.014248

>  <SCORE.INTRA.SOLV.lig_0>
-42.5944

>  <SCORE.INTRA.VDW>
0.041135

>  <SCORE.INTRA.VDW.0>
-1.067

>  <SCORE.INTRA.norm>
-0.10574

>  <SCORE.RESTR>
0

>  <SCORE.RESTR.CAVITY>
0

>  <SCORE.RESTR.norm>
0

>  <SCORE.SYSTEM>
0

>  <SCORE.SYSTEM.CONST>
0

>  <SCORE.SYSTEM.DIHEDRAL>
0

>  <SCORE.SYSTEM.SOLV>
0

>  <SCORE.SYSTEM.norm>
0

>  <SCORE.heavy>
16

>  <SCORE.norm>
-1.8548

>  <RMSD>
2.131

$$$$
1f27 biotin aptamer (Xray 1.3A)
 OpenBabel11021811393D
libRbt.so/2013.1/901 2013/11/27
 16 17  0  0  0  0  0  0  0  0999 V2000
   21.0124    0.1935   14.9865 C   0  0  0  0  0  0  0  0  0  0  0  0
   21.6016    0.5554   16.0000 O   0  5  0  0  0  0  0  0  0  0  0  0
   20.4145   -0.8811   14.9771 O   0  0  0  0  0  0  0  0  0  0  0  0
   20.9633    1.1026   13.7651 C   0  0  0  0  0  0  0  0  0  0  0  0
   19.8569    2.1792   13.8283 C   0  0  0  0  0  0  0  0  0  0  0  0
   18.4804    1.5598   13.9843 C   0  0  0  0  0  0  0  0  0  0  0  0
   17.3522    2.5675   13.9111 C   0  0  0  0  0  0  0  0  0  0  0  0
   15.9737    2.0201   14.3039 C   0  0  2  0  0  0  0  0  0  0  0  0
   15.3985    0.4525   13.3672 S   0  0  0  0  0  0  0  0  0  0  0  0
   13.6553    0.8135   14.0570 C   0  0  0  0  0  0  0  0  0  0  0  0
   13.5428    2.3660   14.0755 C   0  0  2  0  0  0  0  0  0  0  0  0
   12.9452    2.7588   12.6979 N   0  0  0  0  0  0  0  0  0  0  0  0
   13.6957    3.5191   12.0257 C   0  0  0  0  0  0  0  0  0  0  0  0
   13.6075    3.9057   10.8065 O   0  0  0  0  0  0  0  0  0  0  0  0
   14.9988    3.7189   12.6169 N   0  0  0  0  0  0  0  0  0  0  0  0
   14.8927    3.0570   13.9904 C   0  0  2  0  0  0  0  0  0  0  0  0
  1  2  1  0  0  0  0
  1  3  2  0  0  0  0
  1  4  1  0  0  0  0
  4  5  1  0  0  0  0
  5  6  1  0  0  0  0
  6  7  1  0  0  0  0
  8  7  1  6  0  0  0
  8  9  1  0  0  0  0
  8 16  1  0  0  0  0
  9 10  1  0  0  0  0
 11 10  1  6  0  0  0
 11 12  1  0  0  0  0
 11 16  1  0  0  0  0
 12 13  1  0  0  0  0
 13 14  2  0  0  0  0
 13 15  1  0  0  0  0
 16 15  1  6  0  0  0
M  CHG  1   2  -1
M  END
>  <CHROM.1>
-82.78234296,-58.26018908,-174.19379491,-169.92233075,-53.94387240,16.70680953
1.75098036,13.67825741,0.41433590,0.10514705,2.60527721

>  <Name>
1f27 biotin aptamer (Xray 1.3A)

>  <RI>
0

>  <Rbt.Current_Directory>
/home/itssahil/PROJECTS/Mol_Feturizer/New_Systems/rnas/1f27

>  <Rbt.Executable>
rbdock ($Id: //depot/dev/client3/rdock/2013.1/src/exe/rbdock.cxx#4 $)

>  <Rbt.Library>
libRbt.so (2013.1, Build901 2013/11/27)

>  <Rbt.Parameter_File>
/export/apps/rDock/src/rDock_2013.1_src/data/scripts/dock_solv.prm

>  <Rbt.Receptor>
prm/blind_docking_100.prm

>  <SCORE>
-27.0178

>  <SCORE.INTER>
-25.2215

>  <SCORE.INTER.CONST>
1

>  <SCORE.INTER.POLAR>
-0.851749

>  <SCORE.INTER.ROT>
5

>  <SCORE.INTER.SOLV>
11.3529

>  <SCORE.INTER.VDW>
-24.6928

>  <SCORE.INTER.norm>
-1.57634

>  <SCORE.INTRA>
-2.1347

>  <SCORE.INTRA.DIHEDRAL>
-4.88617

>  <SCORE.INTRA.DIHEDRAL.0>
6.87082

>  <SCORE.INTRA.POLAR>
0

>  <SCORE.INTRA.POLAR.0>
0

>  <SCORE.INTRA.REPUL>
0

>  <SCORE.INTRA.REPUL.0>
0

>  <SCORE.INTRA.SOLV>
0.207762

>  <SCORE.INTRA.SOLV.lig_0>
-42.5944

>  <SCORE.INTRA.VDW>
0.204507

>  <SCORE.INTRA.VDW.0>
-1.067

>  <SCORE.INTRA.norm>
-0.133419

>  <SCORE.RESTR>
0.338362

>  <SCORE.RESTR.CAVITY>
0.338362

>  <SCORE.RESTR.norm>
0.0211476

>  <SCORE.SYSTEM>
0

>  <SCORE.SYSTEM.CONST>
0

>  <SCORE.SYSTEM.DIHEDRAL>
0

>  <SCORE.SYSTEM.SOLV>
0

>  <SCORE.SYSTEM.norm>
0

>  <SCORE.heavy>
16

>  <SCORE.norm>
-1.68861

>  <RMSD>
2.135

$$$$
1f27 biotin aptamer (Xray 1.3A)
 OpenBabel11021811393D
libRbt.so/2013.1/901 2013/11/27
 16 17  0  0  0  0  0  0  0  0999 V2000
   21.6775   -0.5830   16.1958 C   0  0  0  0  0  0  0  0  0  0  0  0
   21.7821   -1.7986   16.0667 O   0  5  0  0  0  0  0  0  0  0  0  0
   21.9887   -0.0519   17.2605 O   0  0  0  0  0  0  0  0  0  0  0  0
   21.2289    0.2749   15.0197 C   0  0  0  0  0  0  0  0  0  0  0  0
   19.7540    0.7280   15.1000 C   0  0  0  0  0  0  0  0  0  0  0  0
   19.3871    1.6484   13.9506 C   0  0  0  0  0  0  0  0  0  0  0  0
   18.1020    2.4168   14.1781 C   0  0  0  0  0  0  0  0  0  0  0  0
   16.8470    1.5451   14.3178 C   0  0  2  0  0  0  0  0  0  0  0  0
   16.5011    0.3392   12.8715 S   0  0  0  0  0  0  0  0  0  0  0  0
   14.7493    0.1378   13.6033 C   0  0  0  0  0  0  0  0  0  0  0  0
   14.3854    1.5411   14.1702 C   0  0  2  0  0  0  0  0  0  0  0  0
   13.6808    2.2919   13.0087 N   0  0  0  0  0  0  0  0  0  0  0  0
   14.2714    3.3543   12.6688 C   0  0  0  0  0  0  0  0  0  0  0  0
   14.0758    4.1277   11.6651 O   0  0  0  0  0  0  0  0  0  0  0  0
   15.5455    3.5448   13.3229 N   0  0  0  0  0  0  0  0  0  0  0  0
   15.6002    2.4311   14.3683 C   0  0  2  0  0  0  0  0  0  0  0  0
  1  2  1  0  0  0  0
  1  3  2  0  0  0  0
  1  4  1  0  0  0  0
  4  5  1  0  0  0  0
  5  6  1  0  0  0  0
  6  7  1  0  0  0  0
  8  7  1  6  0  0  0
  8  9  1  0  0  0  0
  8 16  1  0  0  0  0
  9 10  1  0  0  0  0
 11 10  1  6  0  0  0
 11 12  1  0  0  0  0
 11 16  1  0  0  0  0
 12 13  1  0  0  0  0
 13 14  2  0  0  0  0
 13 15  1  0  0  0  0
 16 15  1  6  0  0  0
M  CHG  1   2  -1
M  END
>  <CHROM.1>
102.68366044,176.44100107,-164.03887708,-62.58507129,-55.46421102,17.43611550
1.28837583,14.13750798,0.43012566,0.36845015,3.00180112

>  <Name>
1f27 biotin aptamer (Xray 1.3A)

>  <RI>
0

>  <Rbt.Current_Directory>
/home/itssahil/PROJECTS/Mol_Feturizer/New_Systems/rnas/1f27

>  <Rbt.Executable>
rbdock ($Id: //depot/dev/client3/rdock/2013.1/src/exe/rbdock.cxx#4 $)

>  <Rbt.Library>
libRbt.so (2013.1, Build901 2013/11/27)

>  <Rbt.Parameter_File>
/export/apps/rDock/src/rDock_2013.1_src/data/scripts/dock_solv.prm

>  <Rbt.Receptor>
prm/pocket_docking_7.prm

>  <SCORE>
-32.4317

>  <SCORE.INTER>
-30.0551

>  <SCORE.INTER.CONST>
1

>  <SCORE.INTER.POLAR>
-2.75927

>  <SCORE.INTER.ROT>
5

>  <SCORE.INTER.SOLV>
10.1272

>  <SCORE.INTER.VDW>
-21.1482

>  <SCORE.INTER.norm>
-1.87844

>  <SCORE.INTRA>
-2.37663

>  <SCORE.INTRA.DIHEDRAL>
-4.24718

>  <SCORE.INTRA.DIHEDRAL.0>
6.87082

>  <SCORE.INTRA.POLAR>
0

>  <SCORE.INTRA.POLAR.0>
0

>  <SCORE.INTRA.REPUL>
0

>  <SCORE.INTRA.REPUL.0>
0

>  <SCORE.INTRA.SOLV>
-0.830527

>  <SCORE.INTRA.SOLV.lig_0>
-42.5944

>  <SCORE.INTRA.VDW>
0.162223

>  <SCORE.INTRA.VDW.0>
-1.067

>  <SCORE.INTRA.norm>
-0.14854

>  <SCORE.RESTR>
0

>  <SCORE.RESTR.CAVITY>
0

>  <SCORE.RESTR.norm>
0

>  <SCORE.SYSTEM>
0

>  <SCORE.SYSTEM.CONST>
0

>  <SCORE.SYSTEM.DIHEDRAL>
0

>  <SCORE.SYSTEM.SOLV>
0

>  <SCORE.SYSTEM.norm>
0

>  <SCORE.heavy>
16

>  <SCORE.norm>
-2.02698

>  <RMSD>
2.139

$$$$
1f27 biotin aptamer (Xray 1.3A)
 OpenBabel11021811393D
libRbt.so/2013.1/901 2013/11/27
 16 17  0  0  0  0  0  0  0  0999 V2000
   20.9700   -0.2951   16.2455 C   0  0  0  0  0  0  0  0  0  0  0  0
   20.2162   -1.2559   16.3644 O   0  5  0  0  0  0  0  0  0  0  0  0
   21.5396    0.1617   17.2351 O   0  0  0  0  0  0  0  0  0  0  0  0
   21.2537    0.2880   14.8671 C   0  0  0  0  0  0  0  0  0  0  0  0
   20.3001    1.4342   14.4622 C   0  0  0  0  0  0  0  0  0  0  0  0
   18.8493    0.9895   14.4819 C   0  0  0  0  0  0  0  0  0  0  0  0
   17.8905    2.0307   13.9430 C   0  0  0  0  0  0  0  0  0  0  0  0
   16.4069    1.7314   14.1951 C   0  0  2  0  0  0  0  0  0  0  0  0
   15.7706    0.0481   13.5412 S   0  0  0  0  0  0  0  0  0  0  0  0
   14.0093    0.7331   13.8122 C   0  0  0  0  0  0  0  0  0  0  0  0
   14.1083    2.2477   13.4665 C   0  0  2  0  0  0  0  0  0  0  0  0
   13.7840    2.3535   11.9523 N   0  0  0  0  0  0  0  0  0  0  0  0
   14.7238    2.8524   11.2733 C   0  0  0  0  0  0  0  0  0  0  0  0
   14.8737    2.9406   10.0030 O   0  0  0  0  0  0  0  0  0  0  0  0
   15.9381    3.0605   12.0281 N   0  0  0  0  0  0  0  0  0  0  0  0
   15.5372    2.7626   13.4726 C   0  0  2  0  0  0  0  0  0  0  0  0
  1  2  1  0  0  0  0
  1  3  2  0  0  0  0
  1  4  1  0  0  0  0
  4  5  1  0  0  0  0
  5  6  1  0  0  0  0
  6  7  1  0  0  0  0
  8  7  1  6  0  0  0
  8  9  1  0  0  0  0
  8 16  1  0  0  0  0
  9 10  1  0  0  0  0
 11 10  1  6  0  0  0
 11 12  1  0  0  0  0
 11 16  1  0  0  0  0
 12 13  1  0  0  0  0
 13 14  2  0  0  0  0
 13 15  1  0  0  0  0
 16 15  1  6  0  0  0
M  CHG  1   2  -1
M  END
>  <CHROM.1>
91.68841502,-57.84732615,-173.49910742,-168.72965385,-56.07338574,17.18391720
1.26438858,13.81368851,0.61424548,0.17588129,2.33997382

>  <Name>
1f27 biotin aptamer (Xray 1.3A)

>  <RI>
0

>  <Rbt.Current_Directory>
/home/itssahil/PROJECTS/Mol_Feturizer/New_Systems/rnas/1f27

>  <Rbt.Executable>
rbdock ($Id: //depot/dev/client3/rdock/2013.1/src/exe/rbdock.cxx#4 $)

>  <Rbt.Library>
libRbt.so (2013.1, Build901 2013/11/27)

>  <Rbt.Parameter_File>
/export/apps/rDock/src/rDock_2013.1_src/data/scripts/dock_solv.prm

>  <Rbt.Receptor>
prm/pocket_docking_8.prm

>  <SCORE>
-34.6812

>  <SCORE.INTER>
-32.6526

>  <SCORE.INTER.CONST>
1

>  <SCORE.INTER.POLAR>
-2.55422

>  <SCORE.INTER.ROT>
5

>  <SCORE.INTER.SOLV>
12.6917

>  <SCORE.INTER.VDW>
-24.4183

>  <SCORE.INTER.norm>
-2.04079

>  <SCORE.INTRA>
-2.02856

>  <SCORE.INTRA.DIHEDRAL>
-4.62293

>  <SCORE.INTRA.DIHEDRAL.0>
6.87082

>  <SCORE.INTRA.POLAR>
0

>  <SCORE.INTRA.POLAR.0>
0

>  <SCORE.INTRA.REPUL>
0

>  <SCORE.INTRA.REPUL.0>
0

>  <SCORE.INTRA.SOLV>
0.172093

>  <SCORE.INTRA.SOLV.lig_0>
-42.5944

>  <SCORE.INTRA.VDW>
0.196865

>  <SCORE.INTRA.VDW.0>
-1.067

>  <SCORE.INTRA.norm>
-0.126785

>  <SCORE.RESTR>
0

>  <SCORE.RESTR.CAVITY>
0

>  <SCORE.RESTR.norm>
0

>  <SCORE.SYSTEM>
0

>  <SCORE.SYSTEM.CONST>
0

>  <SCORE.SYSTEM.DIHEDRAL>
0

>  <SCORE.SYSTEM.SOLV>
0

>  <SCORE.SYSTEM.norm>
0

>  <SCORE.heavy>
16

>  <SCORE.norm>
-2.16757

>  <RMSD>
2.141

$$$$
1f27 biotin aptamer (Xray 1.3A)
 OpenBabel11021811393D
libRbt.so/2013.1/901 2013/11/27
 16 17  0  0  0  0  0  0  0  0999 V2000
   20.6917    0.7367   12.6062 C   0  0  0  0  0  0  0  0  0  0  0  0
   21.6567   -0.0127   12.4949 O   0  5  0  0  0  0  0  0  0  0  0  0
   20.8693    1.9384   12.7981 O   0  0  0  0  0  0  0  0  0  0  0  0
   19.2784    0.1933   12.4391 C   0  0  0  0  0  0  0  0  0  0  0  0
   18.4787    0.1085   13.7583 C   0  0  0  0  0  0  0  0  0  0  0  0
   18.3895    1.4576   14.4473 C   0  0  0  0  0  0  0  0  0  0  0  0
   17.5128    2.4530   13.7163 C   0  0  0  0  0  0  0  0  0  0  0  0
   16.0272    2.4032   14.0967 C   0  0  2  0  0  0  0  0  0  0  0  0
   15.2048    0.6755   14.0321 S   0  0  0  0  0  0  0  0  0  0  0  0
   13.5314    1.5897   14.1261 C   0  0  0  0  0  0  0  0  0  0  0  0
   13.7422    2.9009   13.3140 C   0  0  2  0  0  0  0  0  0  0  0  0
   13.3347    2.5600   11.8556 N   0  0  0  0  0  0  0  0  0  0  0  0
   14.2706    2.7208   11.0242 C   0  0  0  0  0  0  0  0  0  0  0  0
   14.3480    2.3906    9.7878 O   0  0  0  0  0  0  0  0  0  0  0  0
   15.5434    3.0277   11.6353 N   0  0  0  0  0  0  0  0  0  0  0  0
   15.2087    3.2406   13.1114 C   0  0  2  0  0  0  0  0  0  0  0  0
  1  2  1  0  0  0  0
  1  3  2  0  0  0  0
  1  4  1  0  0  0  0
  4  5  1  0  0  0  0
  5  6  1  0  0  0  0
  6  7  1  0  0  0  0
  8  7  1  6  0  0  0
  8  9  1  0  0  0  0
  8 16  1  0  0  0  0
  9 10  1  0  0  0  0
 11 10  1  1  0  0  0
 11 12  1  0  0  0  0
 11 16  1  0  0  0  0
 12 13  1  0  0  0  0
 13 14  2  0  0  0  0
 13 15  1  0  0  0  0
 16 15  1  6  0  0  0
M  CHG  1   2  -1
M  END
>  <CHROM.1>
108.22567790,57.00874083,69.67301104,88.15622765,-51.22673927,16.68481180
1.67889891,12.88574335,-0.16538568,0.21225880,-1.23094386

>  <Name>
1f27 biotin aptamer (Xray 1.3A)

>  <RI>
0

>  <Rbt.Current_Directory>
/home/itssahil/PROJECTS/Mol_Feturizer/New_Systems/rnas/1f27

>  <Rbt.Executable>
rbdock ($Id: //depot/dev/client3/rdock/2013.1/src/exe/rbdock.cxx#4 $)

>  <Rbt.Library>
libRbt.so (2013.1, Build901 2013/11/27)

>  <Rbt.Parameter_File>
/export/apps/rDock/src/rDock_2013.1_src/data/scripts/dock_solv.prm

>  <Rbt.Receptor>
prm/blind_docking_100.prm

>  <SCORE>
-29.5618

>  <SCORE.INTER>
-29.5616

>  <SCORE.INTER.CONST>
1

>  <SCORE.INTER.POLAR>
-2.40145

>  <SCORE.INTER.ROT>
5

>  <SCORE.INTER.SOLV>
16.5657

>  <SCORE.INTER.VDW>
-24.1581

>  <SCORE.INTER.norm>
-1.8476

>  <SCORE.INTRA>
-0.0714442

>  <SCORE.INTRA.DIHEDRAL>
-1.94214

>  <SCORE.INTRA.DIHEDRAL.0>
6.87082

>  <SCORE.INTRA.POLAR>
0

>  <SCORE.INTRA.POLAR.0>
0

>  <SCORE.INTRA.REPUL>
0

>  <SCORE.INTRA.REPUL.0>
0

>  <SCORE.INTRA.SOLV>
0.845922

>  <SCORE.INTRA.SOLV.lig_0>
-42.5944

>  <SCORE.INTRA.VDW>
0.476664

>  <SCORE.INTRA.VDW.0>
-1.067

>  <SCORE.INTRA.norm>
-0.00446526

>  <SCORE.RESTR>
0.0712354

>  <SCORE.RESTR.CAVITY>
0.0712354

>  <SCORE.RESTR.norm>
0.00445222

>  <SCORE.SYSTEM>
0

>  <SCORE.SYSTEM.CONST>
0

>  <SCORE.SYSTEM.DIHEDRAL>
0

>  <SCORE.SYSTEM.SOLV>
0

>  <SCORE.SYSTEM.norm>
0

>  <SCORE.heavy>
16

>  <SCORE.norm>
-1.84761

>  <RMSD>
2.146

$$$$
1f27 biotin aptamer (Xray 1.3A)
 OpenBabel11021811393D
libRbt.so/2013.1/901 2013/11/27
 16 17  0  0  0  0  0  0  0  0999 V2000
   20.2944    0.3305   14.4366 C   0  0  0  0  0  0  0  0  0  0  0  0
   19.4889   -0.5374   14.7581 O   0  5  0  0  0  0  0  0  0  0  0  0
   21.0064    0.8519   15.2932 O   0  0  0  0  0  0  0  0  0  0  0  0
   20.4615    0.7136   12.9717 C   0  0  0  0  0  0  0  0  0  0  0  0
   19.6749    1.9781   12.5601 C   0  0  0  0  0  0  0  0  0  0  0  0
   18.1765    1.7693   12.6785 C   0  0  0  0  0  0  0  0  0  0  0  0
   17.6206    2.1365   14.0386 C   0  0  0  0  0  0  0  0  0  0  0  0
   16.1246    1.8490   14.2216 C   0  0  2  0  0  0  0  0  0  0  0  0
   15.5143    0.1521   13.5781 S   0  0  0  0  0  0  0  0  0  0  0  0
   13.7448    0.8501   13.7412 C   0  0  0  0  0  0  0  0  0  0  0  0
   13.8688    2.3552   13.3634 C   0  0  2  0  0  0  0  0  0  0  0  0
   13.6231    2.4240   11.8324 N   0  0  0  0  0  0  0  0  0  0  0  0
   14.5988    2.9023   11.1902 C   0  0  0  0  0  0  0  0  0  0  0  0
   14.8140    2.9580    9.9276 O   0  0  0  0  0  0  0  0  0  0  0  0
   15.7739    3.1249   12.0009 N   0  0  0  0  0  0  0  0  0  0  0  0
   15.2981    2.8649   13.4299 C   0  0  2  0  0  0  0  0  0  0  0  0
  1  2  1  0  0  0  0
  1  3  2  0  0  0  0
  1  4  1  0  0  0  0
  4  5  1  0  0  0  0
  5  6  1  0  0  0  0
  6  7  1  0  0  0  0
  8  7  1  6  0  0  0
  8  9  1  0  0  0  0
  8 16  1  0  0  0  0
  9 10  1  0  0  0  0
 11 10  1  6  0  0  0
 11 12  1  0  0  0  0
 11 16  1  0  0  0  0
 12 13  1  0  0  0  0
 13 14  2  0  0  0  0
 13 15  1  0  0  0  0
 16 15  1  6  0  0  0
M  CHG  1   2  -1
M  END
>  <CHROM.1>
98.05200460,-64.32319551,89.90753077,-176.11047187,44.44808803,16.81188987
1.54466857,13.14991963,0.43603118,0.00042848,2.23725151

>  <Name>
1f27 biotin aptamer (Xray 1.3A)

>  <RI>
0

>  <Rbt.Current_Directory>
/home/itssahil/PROJECTS/Mol_Feturizer/New_Systems/rnas/1f27

>  <Rbt.Executable>
rbdock ($Id: //depot/dev/client3/rdock/2013.1/src/exe/rbdock.cxx#4 $)

>  <Rbt.Library>
libRbt.so (2013.1, Build901 2013/11/27)

>  <Rbt.Parameter_File>
/export/apps/rDock/src/rDock_2013.1_src/data/scripts/dock_solv.prm

>  <Rbt.Receptor>
prm/pocket_docking_7.prm

>  <SCORE>
-29.8173

>  <SCORE.INTER>
-30.8994

>  <SCORE.INTER.CONST>
1

>  <SCORE.INTER.POLAR>
-1.83973

>  <SCORE.INTER.ROT>
5

>  <SCORE.INTER.SOLV>
12.3503

>  <SCORE.INTER.VDW>
-25.5172

>  <SCORE.INTER.norm>
-1.93121

>  <SCORE.INTRA>
1.08214

>  <SCORE.INTRA.DIHEDRAL>
-1.3288

>  <SCORE.INTRA.DIHEDRAL.0>
6.87082

>  <SCORE.INTRA.POLAR>
0

>  <SCORE.INTRA.POLAR.0>
0

>  <SCORE.INTRA.REPUL>
0

>  <SCORE.INTRA.REPUL.0>
0

>  <SCORE.INTRA.SOLV>
2.1247

>  <SCORE.INTRA.SOLV.lig_0>
-42.5944

>  <SCORE.INTRA.VDW>
0.684192

>  <SCORE.INTRA.VDW.0>
-1.067

>  <SCORE.INTRA.norm>
0.0676336

>  <SCORE.RESTR>
0

>  <SCORE.RESTR.CAVITY>
0

>  <SCORE.RESTR.norm>
0

>  <SCORE.SYSTEM>
0

>  <SCORE.SYSTEM.CONST>
0

>  <SCORE.SYSTEM.DIHEDRAL>
0

>  <SCORE.SYSTEM.SOLV>
0

>  <SCORE.SYSTEM.norm>
0

>  <SCORE.heavy>
16

>  <SCORE.norm>
-1.86358

>  <RMSD>
2.149

$$$$
1f27 biotin aptamer (Xray 1.3A)
 OpenBabel11021811393D
libRbt.so/2013.1/901 2013/11/27
 16 17  0  0  0  0  0  0  0  0999 V2000
   20.2941    0.3334   14.3750 C   0  0  0  0  0  0  0  0  0  0  0  0
   19.5076   -0.5678   14.6482 O   0  5  0  0  0  0  0  0  0  0  0  0
   20.9788    0.8381   15.2633 O   0  0  0  0  0  0  0  0  0  0  0  0
   20.4729    0.7800   12.9296 C   0  0  0  0  0  0  0  0  0  0  0  0
   19.6580    2.0383   12.5562 C   0  0  0  0  0  0  0  0  0  0  0  0
   18.1649    1.7953   12.6773 C   0  0  0  0  0  0  0  0  0  0  0  0
   17.6068    2.1311   14.0446 C   0  0  0  0  0  0  0  0  0  0  0  0
   16.1119    1.8331   14.2206 C   0  0  2  0  0  0  0  0  0  0  0  0
   15.5154    0.1347   13.5685 S   0  0  0  0  0  0  0  0  0  0  0  0
   13.7407    0.8205   13.7271 C   0  0  0  0  0  0  0  0  0  0  0  0
   13.8563    2.3276   13.3553 C   0  0  2  0  0  0  0  0  0  0  0  0
   13.6161    2.4005   11.8236 N   0  0  0  0  0  0  0  0  0  0  0  0
   14.5912    2.8875   11.1871 C   0  0  0  0  0  0  0  0  0  0  0  0
   14.8109    2.9493    9.9255 O   0  0  0  0  0  0  0  0  0  0  0  0
   15.7616    3.1149   12.0032 N   0  0  0  0  0  0  0  0  0  0  0  0
   15.2819    2.8465   13.4294 C   0  0  2  0  0  0  0  0  0  0  0  0
  1  2  1  0  0  0  0
  1  3  2  0  0  0  0
  1  4  1  0  0  0  0
  4  5  1  0  0  0  0
  5  6  1  0  0  0  0
  6  7  1  0  0  0  0
  8  7  1  6  0  0  0
  8  9  1  0  0  0  0
  8 16  1  0  0  0  0
  9 10  1  0  0  0  0
 11 10  1  6  0  0  0
 11 12  1  0  0  0  0
 11 16  1  0  0  0  0
 12 13  1  0  0  0  0
 13 14  2  0  0  0  0
 13 15  1  0  0  0  0
 16 15  1  6  0  0  0
M  CHG  1   2  -1
M  END
>  <CHROM.1>
98.00545272,-62.80177520,90.63241702,-177.20708794,45.47773525,16.80544553
1.53972566,13.13201280,0.42707323,0.00454225,2.24824749

>  <Name>
1f27 biotin aptamer (Xray 1.3A)

>  <RI>
0

>  <Rbt.Current_Directory>
/home/itssahil/PROJECTS/Mol_Feturizer/New_Systems/rnas/1f27

>  <Rbt.Executable>
rbdock ($Id: //depot/dev/client3/rdock/2013.1/src/exe/rbdock.cxx#4 $)

>  <Rbt.Library>
libRbt.so (2013.1, Build901 2013/11/27)

>  <Rbt.Parameter_File>
/export/apps/rDock/src/rDock_2013.1_src/data/scripts/dock_solv.prm

>  <Rbt.Receptor>
prm/blind_docking_100.prm

>  <SCORE>
-29.773

>  <SCORE.INTER>
-30.9738

>  <SCORE.INTER.CONST>
1

>  <SCORE.INTER.POLAR>
-1.83802

>  <SCORE.INTER.ROT>
5

>  <SCORE.INTER.SOLV>
12.1489

>  <SCORE.INTER.VDW>
-25.5054

>  <SCORE.INTER.norm>
-1.93586

>  <SCORE.INTRA>
1.20073

>  <SCORE.INTRA.DIHEDRAL>
-1.39358

>  <SCORE.INTRA.DIHEDRAL.0>
6.87082

>  <SCORE.INTRA.POLAR>
0

>  <SCORE.INTRA.POLAR.0>
0

>  <SCORE.INTRA.REPUL>
0

>  <SCORE.INTRA.REPUL.0>
0

>  <SCORE.INTRA.SOLV>
2.1491

>  <SCORE.INTRA.SOLV.lig_0>
-42.5944

>  <SCORE.INTRA.VDW>
0.822965

>  <SCORE.INTRA.VDW.0>
-1.067

>  <SCORE.INTRA.norm>
0.0750455

>  <SCORE.RESTR>
0

>  <SCORE.RESTR.CAVITY>
0

>  <SCORE.RESTR.norm>
0

>  <SCORE.SYSTEM>
0

>  <SCORE.SYSTEM.CONST>
0

>  <SCORE.SYSTEM.DIHEDRAL>
0

>  <SCORE.SYSTEM.SOLV>
0

>  <SCORE.SYSTEM.norm>
0

>  <SCORE.heavy>
16

>  <SCORE.norm>
-1.86082

>  <RMSD>
2.155

$$$$
1f27 biotin aptamer (Xray 1.3A)
 OpenBabel11021811393D
libRbt.so/2013.1/901 2013/11/27
 16 17  0  0  0  0  0  0  0  0999 V2000
   21.3048   -0.2001   15.7893 C   0  0  0  0  0  0  0  0  0  0  0  0
   20.7500   -1.2939   15.7540 O   0  5  0  0  0  0  0  0  0  0  0  0
   21.8303    0.1858   16.8320 O   0  0  0  0  0  0  0  0  0  0  0  0
   21.4029    0.6484   14.5280 C   0  0  0  0  0  0  0  0  0  0  0  0
   20.2861    1.7079   14.3960 C   0  0  0  0  0  0  0  0  0  0  0  0
   18.9069    1.0760   14.4339 C   0  0  0  0  0  0  0  0  0  0  0  0
   17.7786    2.0803   14.3248 C   0  0  0  0  0  0  0  0  0  0  0  0
   16.3711    1.4846   14.4605 C   0  0  2  0  0  0  0  0  0  0  0  0
   15.8666    0.2166   13.1176 S   0  0  0  0  0  0  0  0  0  0  0  0
   14.0753    0.4340   13.7412 C   0  0  0  0  0  0  0  0  0  0  0  0
   13.9674    1.9342   14.1422 C   0  0  2  0  0  0  0  0  0  0  0  0
   13.4830    2.6745   12.8669 N   0  0  0  0  0  0  0  0  0  0  0  0
   14.2875    3.5613   12.4674 C   0  0  0  0  0  0  0  0  0  0  0  0
   14.2982    4.2438   11.3821 O   0  0  0  0  0  0  0  0  0  0  0  0
   15.5401    3.5753   13.1874 N   0  0  0  0  0  0  0  0  0  0  0  0
   15.3224    2.5923   14.3373 C   0  0  2  0  0  0  0  0  0  0  0  0
  1  2  1  0  0  0  0
  1  3  2  0  0  0  0
  1  4  1  0  0  0  0
  4  5  1  0  0  0  0
  5  6  1  0  0  0  0
  6  7  1  0  0  0  0
  8  7  1  6  0  0  0
  8  9  1  0  0  0  0
  8 16  1  0  0  0  0
  9 10  1  0  0  0  0
 11 10  1  6  0  0  0
 11 12  1  0  0  0  0
 11 16  1  0  0  0  0
 12 13  1  0  0  0  0
 13 14  2  0  0  0  0
 13 15  1  0  0  0  0
 16 15  1  6  0  0  0
M  CHG  1   2  -1
M  END
>  <CHROM.1>
95.67483206,-57.11116009,179.28679792,-175.83421485,-62.61342582,17.15200028
1.45227478,14.03507233,0.44847514,0.24464491,2.79368309

>  <Name>
1f27 biotin aptamer (Xray 1.3A)

>  <RI>
0

>  <Rbt.Current_Directory>
/home/itssahil/PROJECTS/Mol_Feturizer/New_Systems/rnas/1f27

>  <Rbt.Executable>
rbdock ($Id: //depot/dev/client3/rdock/2013.1/src/exe/rbdock.cxx#4 $)

>  <Rbt.Library>
libRbt.so (2013.1, Build901 2013/11/27)

>  <Rbt.Parameter_File>
/export/apps/rDock/src/rDock_2013.1_src/data/scripts/dock_solv.prm

>  <Rbt.Receptor>
prm/pocket_docking_8.prm

>  <SCORE>
-32.7713

>  <SCORE.INTER>
-30.3478

>  <SCORE.INTER.CONST>
1

>  <SCORE.INTER.POLAR>
-2.23928

>  <SCORE.INTER.ROT>
5

>  <SCORE.INTER.SOLV>
11.5296

>  <SCORE.INTER.VDW>
-23.5442

>  <SCORE.INTER.norm>
-1.89674

>  <SCORE.INTRA>
-2.42346

>  <SCORE.INTRA.DIHEDRAL>
-5.27238

>  <SCORE.INTRA.DIHEDRAL.0>
6.87082

>  <SCORE.INTRA.POLAR>
0

>  <SCORE.INTRA.POLAR.0>
0

>  <SCORE.INTRA.REPUL>
0

>  <SCORE.INTRA.REPUL.0>
0

>  <SCORE.INTRA.SOLV>
0.160053

>  <SCORE.INTRA.SOLV.lig_0>
-42.5944

>  <SCORE.INTRA.VDW>
0.132704

>  <SCORE.INTRA.VDW.0>
-1.067

>  <SCORE.INTRA.norm>
-0.151466

>  <SCORE.RESTR>
0

>  <SCORE.RESTR.CAVITY>
0

>  <SCORE.RESTR.norm>
0

>  <SCORE.SYSTEM>
0

>  <SCORE.SYSTEM.CONST>
0

>  <SCORE.SYSTEM.DIHEDRAL>
0

>  <SCORE.SYSTEM.SOLV>
0

>  <SCORE.SYSTEM.norm>
0

>  <SCORE.heavy>
16

>  <SCORE.norm>
-2.04821

>  <RMSD>
2.157

$$$$
1f27 biotin aptamer (Xray 1.3A)
 OpenBabel11021811393D
libRbt.so/2013.1/901 2013/11/27
 16 17  0  0  0  0  0  0  0  0999 V2000
   20.7287   -0.6009   16.3883 C   0  0  0  0  0  0  0  0  0  0  0  0
   21.4645    0.0799   17.0957 O   0  5  0  0  0  0  0  0  0  0  0  0
   20.7073   -1.8228   16.5255 O   0  0  0  0  0  0  0  0  0  0  0  0
   19.7936    0.0695   15.3899 C   0  0  0  0  0  0  0  0  0  0  0  0
   20.4091    1.2956   14.6793 C   0  0  0  0  0  0  0  0  0  0  0  0
   19.5210    1.7961   13.5551 C   0  0  0  0  0  0  0  0  0  0  0  0
   18.2631    2.4860   14.0401 C   0  0  0  0  0  0  0  0  0  0  0  0
   17.0608    1.5569   14.2536 C   0  0  2  0  0  0  0  0  0  0  0  0
   16.6655    0.3568   12.8151 S   0  0  0  0  0  0  0  0  0  0  0  0
   14.9811    0.0666   13.6657 C   0  0  0  0  0  0  0  0  0  0  0  0
   14.5975    1.4442   14.2807 C   0  0  2  0  0  0  0  0  0  0  0  0
   13.7792    2.1784   13.1851 N   0  0  0  0  0  0  0  0  0  0  0  0
   14.2967    3.2710   12.8223 C   0  0  0  0  0  0  0  0  0  0  0  0
   13.9960    4.0486   11.8483 O   0  0  0  0  0  0  0  0  0  0  0  0
   15.6048    3.5095   13.3876 N   0  0  0  0  0  0  0  0  0  0  0  0
   15.7831    2.3851   14.4073 C   0  0  2  0  0  0  0  0  0  0  0  0
  1  2  1  0  0  0  0
  1  3  2  0  0  0  0
  1  4  1  0  0  0  0
  4  5  1  0  0  0  0
  5  6  1  0  0  0  0
  6  7  1  0  0  0  0
  8  7  1  6  0  0  0
  8  9  1  0  0  0  0
  8 16  1  0  0  0  0
  9 10  1  0  0  0  0
 11 10  1  6  0  0  0
 11 12  1  0  0  0  0
 11 16  1  0  0  0  0
 12 13  1  0  0  0  0
 13 14  2  0  0  0  0
 13 15  1  0  0  0  0
 16 15  1  6  0  0  0
M  CHG  1   2  -1
M  END
>  <CHROM.1>
38.58693242,171.49585776,71.94684821,-89.19666219,-48.79647610,17.32920531
1.30065152,14.16801461,0.52479010,0.32147702,2.82073101

>  <Name>
1f27 biotin aptamer (Xray 1.3A)

>  <RI>
0

>  <Rbt.Current_Directory>
/home/itssahil/PROJECTS/Mol_Feturizer/New_Systems/rnas/1f27

>  <Rbt.Executable>
rbdock ($Id: //depot/dev/client3/rdock/2013.1/src/exe/rbdock.cxx#4 $)

>  <Rbt.Library>
libRbt.so (2013.1, Build901 2013/11/27)

>  <Rbt.Parameter_File>
/export/apps/rDock/src/rDock_2013.1_src/data/scripts/dock_solv.prm

>  <Rbt.Receptor>
prm/pocket_docking_7.prm

>  <SCORE>
-29.1729

>  <SCORE.INTER>
-28.6526

>  <SCORE.INTER.CONST>
1

>  <SCORE.INTER.POLAR>
-2.29051

>  <SCORE.INTER.ROT>
5

>  <SCORE.INTER.SOLV>
11.1269

>  <SCORE.INTER.VDW>
-22.109

>  <SCORE.INTER.norm>
-1.79078

>  <SCORE.INTRA>
-0.520349

>  <SCORE.INTRA.DIHEDRAL>
-1.33021

>  <SCORE.INTRA.DIHEDRAL.0>
6.87082

>  <SCORE.INTRA.POLAR>
0

>  <SCORE.INTRA.POLAR.0>
0

>  <SCORE.INTRA.REPUL>
0

>  <SCORE.INTRA.REPUL.0>
0

>  <SCORE.INTRA.SOLV>
-0.742247

>  <SCORE.INTRA.SOLV.lig_0>
-42.5944

>  <SCORE.INTRA.VDW>
0.515879

>  <SCORE.INTRA.VDW.0>
-1.067

>  <SCORE.INTRA.norm>
-0.0325218

>  <SCORE.RESTR>
0

>  <SCORE.RESTR.CAVITY>
0

>  <SCORE.RESTR.norm>
0

>  <SCORE.SYSTEM>
0

>  <SCORE.SYSTEM.CONST>
0

>  <SCORE.SYSTEM.DIHEDRAL>
0

>  <SCORE.SYSTEM.SOLV>
0

>  <SCORE.SYSTEM.norm>
0

>  <SCORE.heavy>
16

>  <SCORE.norm>
-1.82331

>  <RMSD>
2.159

$$$$
1f27 biotin aptamer (Xray 1.3A)
 OpenBabel11021811393D
libRbt.so/2013.1/901 2013/11/27
 16 17  0  0  0  0  0  0  0  0999 V2000
   20.8690   -0.3280   12.8604 C   0  0  0  0  0  0  0  0  0  0  0  0
   21.9942   -0.6150   12.4644 O   0  5  0  0  0  0  0  0  0  0  0  0
   20.1229   -1.2126   13.2768 O   0  0  0  0  0  0  0  0  0  0  0  0
   20.4208    1.1274   12.9010 C   0  0  0  0  0  0  0  0  0  0  0  0
   18.9464    1.3415   12.4920 C   0  0  0  0  0  0  0  0  0  0  0  0
   18.5785    2.8137   12.4717 C   0  0  0  0  0  0  0  0  0  0  0  0
   17.1124    3.0666   12.1885 C   0  0  0  0  0  0  0  0  0  0  0  0
   16.1519    2.5740   13.2789 C   0  0  2  0  0  0  0  0  0  0  0  0
   15.4937    0.7883   13.0692 S   0  0  0  0  0  0  0  0  0  0  0  0
   14.1896    1.2310   14.3914 C   0  0  0  0  0  0  0  0  0  0  0  0
   13.8426    2.7259   14.1306 C   0  0  2  0  0  0  0  0  0  0  0  0
   12.6508    2.7116   13.1364 N   0  0  0  0  0  0  0  0  0  0  0  0
   12.8988    3.3044   12.0499 C   0  0  0  0  0  0  0  0  0  0  0  0
   12.2279    3.3513   10.9584 O   0  0  0  0  0  0  0  0  0  0  0  0
   14.2767    3.7176   11.9156 N   0  0  0  0  0  0  0  0  0  0  0  0
   14.8877    3.4365   13.2881 C   0  0  2  0  0  0  0  0  0  0  0  0
  1  2  1  0  0  0  0
  1  3  2  0  0  0  0
  1  4  1  0  0  0  0
  4  5  1  0  0  0  0
  5  6  1  0  0  0  0
  6  7  1  0  0  0  0
  8  7  1  6  0  0  0
  8  9  1  0  0  0  0
  8 16  1  0  0  0  0
  9 10  1  0  0  0  0
 11 10  1  6  0  0  0
 11 12  1  0  0  0  0
 11 16  1  0  0  0  0
 12 13  1  0  0  0  0
 13 14  2  0  0  0  0
 13 15  1  0  0  0  0
 16 15  1  6  0  0  0
M  CHG  1   2  -1
M  END
>  <CHROM.1>
141.47871813,-176.65035959,-175.19684341,66.14300028,-91.00063951,16.48889428
1.76723591,12.80178660,0.34263355,-0.17495428,2.61573891

>  <Name>
1f27 biotin aptamer (Xray 1.3A)

>  <RI>
0

>  <Rbt.Current_Directory>
/home/itssahil/PROJECTS/Mol_Feturizer/New_Systems/rnas/1f27

>  <Rbt.Executable>
rbdock ($Id: //depot/dev/client3/rdock/2013.1/src/exe/rbdock.cxx#4 $)

>  <Rbt.Library>
libRbt.so (2013.1, Build901 2013/11/27)

>  <Rbt.Parameter_File>
/export/apps/rDock/src/rDock_2013.1_src/data/scripts/dock_solv.prm

>  <Rbt.Receptor>
prm/blind_docking_40.prm

>  <SCORE>
-26.1198

>  <SCORE.INTER>
-24.859

>  <SCORE.INTER.CONST>
1

>  <SCORE.INTER.POLAR>
-1.07074

>  <SCORE.INTER.ROT>
5

>  <SCORE.INTER.SOLV>
11.3974

>  <SCORE.INTER.VDW>
-23.736

>  <SCORE.INTER.norm>
-1.55369

>  <SCORE.INTRA>
-1.30272

>  <SCORE.INTRA.DIHEDRAL>
-2.25026

>  <SCORE.INTRA.DIHEDRAL.0>
6.87082

>  <SCORE.INTRA.POLAR>
0

>  <SCORE.INTRA.POLAR.0>
0

>  <SCORE.INTRA.REPUL>
0

>  <SCORE.INTRA.REPUL.0>
0

>  <SCORE.INTRA.SOLV>
-0.802813

>  <SCORE.INTRA.SOLV.lig_0>
-42.5944

>  <SCORE.INTRA.VDW>
0.22382

>  <SCORE.INTRA.VDW.0>
-1.067

>  <SCORE.INTRA.norm>
-0.0814199

>  <SCORE.RESTR>
0.0419478

>  <SCORE.RESTR.CAVITY>
0.0419478

>  <SCORE.RESTR.norm>
0.00262174

>  <SCORE.SYSTEM>
0

>  <SCORE.SYSTEM.CONST>
0

>  <SCORE.SYSTEM.DIHEDRAL>
0

>  <SCORE.SYSTEM.SOLV>
0

>  <SCORE.SYSTEM.norm>
0

>  <SCORE.heavy>
16

>  <SCORE.norm>
-1.63249

>  <RMSD>
2.163

$$$$
1f27 biotin aptamer (Xray 1.3A)
 OpenBabel11021811393D
libRbt.so/2013.1/901 2013/11/27
 16 17  0  0  0  0  0  0  0  0999 V2000
   21.2647    0.7534   14.4408 C   0  0  0  0  0  0  0  0  0  0  0  0
   22.1224    1.5455   14.8180 O   0  5  0  0  0  0  0  0  0  0  0  0
   20.7686   -0.0380   15.2409 O   0  0  0  0  0  0  0  0  0  0  0  0
   20.7656    0.7947   13.0022 C   0  0  0  0  0  0  0  0  0  0  0  0
   20.0456    2.1087   12.6253 C   0  0  0  0  0  0  0  0  0  0  0  0
   18.7483    2.2774   13.3944 C   0  0  0  0  0  0  0  0  0  0  0  0
   17.6738    1.2890   12.9916 C   0  0  0  0  0  0  0  0  0  0  0  0
   16.3537    1.4239   13.7619 C   0  0  2  0  0  0  0  0  0  0  0  0
   15.1453   -0.0540   13.6156 S   0  0  0  0  0  0  0  0  0  0  0  0
   13.8148    1.1031   14.3476 C   0  0  0  0  0  0  0  0  0  0  0  0
   14.1397    2.5099   13.7656 C   0  0  2  0  0  0  0  0  0  0  0  0
   13.3291    2.6142   12.4460 N   0  0  0  0  0  0  0  0  0  0  0  0
   14.0525    2.7961   11.4278 C   0  0  0  0  0  0  0  0  0  0  0  0
   13.7532    2.7672   10.1814 O   0  0  0  0  0  0  0  0  0  0  0  0
   15.4688    2.7050   11.6984 N   0  0  0  0  0  0  0  0  0  0  0  0
   15.5541    2.6116   13.2215 C   0  0  2  0  0  0  0  0  0  0  0  0
  1  2  1  0  0  0  0
  1  3  2  0  0  0  0
  1  4  1  0  0  0  0
  4  5  1  0  0  0  0
  5  6  1  0  0  0  0
  6  7  1  0  0  0  0
  8  7  1  6  0  0  0
  8  9  1  0  0  0  0
  8 16  1  0  0  0  0
  9 10  1  0  0  0  0
 11 10  1  6  0  0  0
 11 12  1  0  0  0  0
 11 16  1  0  0  0  0
 12 13  1  0  0  0  0
 13 14  2  0  0  0  0
 13 15  1  0  0  0  0
 16 15  1  6  0  0  0
M  CHG  1   2  -1
M  END
>  <CHROM.1>
-63.54136314,-65.98912810,-68.89030320,179.38595386,-164.96089645,16.95302361
1.56404024,13.21064100,0.29654805,0.04798155,2.26060962

>  <Name>
1f27 biotin aptamer (Xray 1.3A)

>  <RI>
0

>  <Rbt.Current_Directory>
/home/itssahil/PROJECTS/Mol_Feturizer/New_Systems/rnas/1f27

>  <Rbt.Executable>
rbdock ($Id: //depot/dev/client3/rdock/2013.1/src/exe/rbdock.cxx#4 $)

>  <Rbt.Library>
libRbt.so (2013.1, Build901 2013/11/27)

>  <Rbt.Parameter_File>
/export/apps/rDock/src/rDock_2013.1_src/data/scripts/dock_solv.prm

>  <Rbt.Receptor>
prm/pocket_docking_5.prm

>  <SCORE>
-23.6477

>  <SCORE.INTER>
-22.2334

>  <SCORE.INTER.CONST>
1

>  <SCORE.INTER.POLAR>
-0.579654

>  <SCORE.INTER.ROT>
5

>  <SCORE.INTER.SOLV>
14.831

>  <SCORE.INTER.VDW>
-24.7671

>  <SCORE.INTER.norm>
-1.38959

>  <SCORE.INTRA>
-1.41425

>  <SCORE.INTRA.DIHEDRAL>
-4.19831

>  <SCORE.INTRA.DIHEDRAL.0>
6.87082

>  <SCORE.INTRA.POLAR>
0

>  <SCORE.INTRA.POLAR.0>
0

>  <SCORE.INTRA.REPUL>
0

>  <SCORE.INTRA.REPUL.0>
0

>  <SCORE.INTRA.SOLV>
0.513661

>  <SCORE.INTRA.SOLV.lig_0>
-42.5944

>  <SCORE.INTRA.VDW>
0.428072

>  <SCORE.INTRA.VDW.0>
-1.067

>  <SCORE.INTRA.norm>
-0.0883907

>  <SCORE.RESTR>
0

>  <SCORE.RESTR.CAVITY>
0

>  <SCORE.RESTR.norm>
0

>  <SCORE.SYSTEM>
0

>  <SCORE.SYSTEM.CONST>
0

>  <SCORE.SYSTEM.DIHEDRAL>
0

>  <SCORE.SYSTEM.SOLV>
0

>  <SCORE.SYSTEM.norm>
0

>  <SCORE.heavy>
16

>  <SCORE.norm>
-1.47798

>  <RMSD>
2.163

$$$$
1f27 biotin aptamer (Xray 1.3A)
 OpenBabel11021811393D
libRbt.so/2013.1/901 2013/11/27
 16 17  0  0  0  0  0  0  0  0999 V2000
   20.9663    0.6105   13.7607 C   0  0  0  0  0  0  0  0  0  0  0  0
   21.6742    0.7436   12.7675 O   0  5  0  0  0  0  0  0  0  0  0  0
   21.1137   -0.3685   14.4902 O   0  0  0  0  0  0  0  0  0  0  0  0
   19.9542    1.6881   14.1281 C   0  0  0  0  0  0  0  0  0  0  0  0
   18.5447    1.4514   13.5414 C   0  0  0  0  0  0  0  0  0  0  0  0
   17.8922    0.2151   14.1319 C   0  0  0  0  0  0  0  0  0  0  0  0
   16.4993   -0.0467   13.5981 C   0  0  0  0  0  0  0  0  0  0  0  0
   15.4324    0.9517   14.0662 C   0  0  2  0  0  0  0  0  0  0  0  0
   13.6247    0.5213   13.6052 S   0  0  0  0  0  0  0  0  0  0  0  0
   13.1930    2.3216   14.0716 C   0  0  0  0  0  0  0  0  0  0  0  0
   14.4268    3.1601   13.6269 C   0  0  2  0  0  0  0  0  0  0  0  0
   14.1318    3.5971   12.1671 N   0  0  0  0  0  0  0  0  0  0  0  0
   14.9908    3.1860   11.3387 C   0  0  0  0  0  0  0  0  0  0  0  0
   14.9868    3.2129   10.0569 O   0  0  0  0  0  0  0  0  0  0  0  0
   15.9567    2.2748   11.9082 N   0  0  0  0  0  0  0  0  0  0  0  0
   15.6687    2.3133   13.4088 C   0  0  2  0  0  0  0  0  0  0  0  0
  1  2  1  0  0  0  0
  1  3  2  0  0  0  0
  1  4  1  0  0  0  0
  4  5  1  0  0  0  0
  5  6  1  0  0  0  0
  6  7  1  0  0  0  0
  8  7  1  6  0  0  0
  8  9  1  0  0  0  0
  8 16  1  0  0  0  0
  9 10  1  0  0  0  0
 11 10  1  6  0  0  0
 11 12  1  0  0  0  0
 11 16  1  0  0  0  0
 12 13  1  0  0  0  0
 13 14  2  0  0  0  0
 13 15  1  0  0  0  0
 16 15  1  6  0  0  0
M  CHG  1   2  -1
M  END
>  <CHROM.1>
92.30773820,65.89383406,179.25627452,-70.34604280,-172.12952512,16.62495837
1.52310695,13.17257831,-0.29280477,0.08621686,-0.81916369

>  <Name>
1f27 biotin aptamer (Xray 1.3A)

>  <RI>
0

>  <Rbt.Current_Directory>
/home/itssahil/PROJECTS/Mol_Feturizer/New_Systems/rnas/1f27

>  <Rbt.Executable>
rbdock ($Id: //depot/dev/client3/rdock/2013.1/src/exe/rbdock.cxx#4 $)

>  <Rbt.Library>
libRbt.so (2013.1, Build901 2013/11/27)

>  <Rbt.Parameter_File>
/export/apps/rDock/src/rDock_2013.1_src/data/scripts/dock_solv.prm

>  <Rbt.Receptor>
prm/pocket_docking_6.prm

>  <SCORE>
-29.1412

>  <SCORE.INTER>
-27.6998

>  <SCORE.INTER.CONST>
1

>  <SCORE.INTER.POLAR>
-1.53263

>  <SCORE.INTER.ROT>
5

>  <SCORE.INTER.SOLV>
14.0173

>  <SCORE.INTER.VDW>
-24.9636

>  <SCORE.INTER.norm>
-1.73124

>  <SCORE.INTRA>
-1.44142

>  <SCORE.INTRA.DIHEDRAL>
-4.57816

>  <SCORE.INTRA.DIHEDRAL.0>
6.87082

>  <SCORE.INTRA.POLAR>
0

>  <SCORE.INTRA.POLAR.0>
0

>  <SCORE.INTRA.REPUL>
0

>  <SCORE.INTRA.REPUL.0>
0

>  <SCORE.INTRA.SOLV>
0.521008

>  <SCORE.INTRA.SOLV.lig_0>
-42.5944

>  <SCORE.INTRA.VDW>
0.58716

>  <SCORE.INTRA.VDW.0>
-1.067

>  <SCORE.INTRA.norm>
-0.0900885

>  <SCORE.RESTR>
0

>  <SCORE.RESTR.CAVITY>
0

>  <SCORE.RESTR.norm>
0

>  <SCORE.SYSTEM>
0

>  <SCORE.SYSTEM.CONST>
0

>  <SCORE.SYSTEM.DIHEDRAL>
0

>  <SCORE.SYSTEM.SOLV>
0

>  <SCORE.SYSTEM.norm>
0

>  <SCORE.heavy>
16

>  <SCORE.norm>
-1.82133

>  <RMSD>
2.164

$$$$
1f27 biotin aptamer (Xray 1.3A)
 OpenBabel11021811393D
libRbt.so/2013.1/901 2013/11/27
 16 17  0  0  0  0  0  0  0  0999 V2000
   20.9490    0.2353   13.2600 C   0  0  0  0  0  0  0  0  0  0  0  0
   20.5966   -0.0654   12.1239 O   0  5  0  0  0  0  0  0  0  0  0  0
   21.4880   -0.6066   13.9764 O   0  0  0  0  0  0  0  0  0  0  0  0
   20.7824    1.6650   13.7589 C   0  0  0  0  0  0  0  0  0  0  0  0
   19.3111    2.1229   13.8714 C   0  0  0  0  0  0  0  0  0  0  0  0
   18.5980    2.0511   12.5338 C   0  0  0  0  0  0  0  0  0  0  0  0
   17.3476    2.9032   12.4689 C   0  0  0  0  0  0  0  0  0  0  0  0
   16.2344    2.4878   13.4396 C   0  0  2  0  0  0  0  0  0  0  0  0
   15.5156    0.7315   13.1855 S   0  0  0  0  0  0  0  0  0  0  0  0
   14.0816    1.2729   14.3237 C   0  0  0  0  0  0  0  0  0  0  0  0
   13.8480    2.7754   13.9907 C   0  0  2  0  0  0  0  0  0  0  0  0
   12.7903    2.7928   12.8549 N   0  0  0  0  0  0  0  0  0  0  0  0
   13.2022    3.3433   11.7964 C   0  0  0  0  0  0  0  0  0  0  0  0
   12.6760    3.3937   10.6283 O   0  0  0  0  0  0  0  0  0  0  0  0
   14.6057    3.6848   11.8281 N   0  0  0  0  0  0  0  0  0  0  0  0
   15.0255    3.4111   13.2720 C   0  0  2  0  0  0  0  0  0  0  0  0
  1  2  1  0  0  0  0
  1  3  2  0  0  0  0
  1  4  1  0  0  0  0
  4  5  1  0  0  0  0
  5  6  1  0  0  0  0
  6  7  1  0  0  0  0
  8  7  1  6  0  0  0
  8  9  1  0  0  0  0
  8 16  1  0  0  0  0
  9 10  1  0  0  0  0
 11 10  1  6  0  0  0
 11 12  1  0  0  0  0
 11 16  1  0  0  0  0
 12 13  1  0  0  0  0
 13 14  2  0  0  0  0
 13 15  1  0  0  0  0
 16 15  1  6  0  0  0
M  CHG  1   2  -1
M  END
>  <CHROM.1>
64.74198281,-59.44953654,-160.34214226,-63.50570438,-61.96720186,16.62967521
1.89302910,12.94828419,-0.32110512,0.12056827,-0.71285965

>  <Name>
1f27 biotin aptamer (Xray 1.3A)

>  <RI>
0

>  <Rbt.Current_Directory>
/home/itssahil/PROJECTS/Mol_Feturizer/New_Systems/rnas/1f27

>  <Rbt.Executable>
rbdock ($Id: //depot/dev/client3/rdock/2013.1/src/exe/rbdock.cxx#4 $)

>  <Rbt.Library>
libRbt.so (2013.1, Build901 2013/11/27)

>  <Rbt.Parameter_File>
/export/apps/rDock/src/rDock_2013.1_src/data/scripts/dock_solv.prm

>  <Rbt.Receptor>
prm/blind_docking_40.prm

>  <SCORE>
-23.7577

>  <SCORE.INTER>
-22.4816

>  <SCORE.INTER.CONST>
1

>  <SCORE.INTER.POLAR>
-0.495692

>  <SCORE.INTER.ROT>
5

>  <SCORE.INTER.SOLV>
11.7089

>  <SCORE.INTER.VDW>
-24.1717

>  <SCORE.INTER.norm>
-1.4051

>  <SCORE.INTRA>
-1.28271

>  <SCORE.INTRA.DIHEDRAL>
-3.9391

>  <SCORE.INTRA.DIHEDRAL.0>
6.87082

>  <SCORE.INTRA.POLAR>
0

>  <SCORE.INTRA.POLAR.0>
0

>  <SCORE.INTRA.REPUL>
0

>  <SCORE.INTRA.REPUL.0>
0

>  <SCORE.INTRA.SOLV>
0.330242

>  <SCORE.INTRA.SOLV.lig_0>
-42.5944

>  <SCORE.INTRA.VDW>
0.52172

>  <SCORE.INTRA.VDW.0>
-1.067

>  <SCORE.INTRA.norm>
-0.0801692

>  <SCORE.RESTR>
0.00661892

>  <SCORE.RESTR.CAVITY>
0.00661892

>  <SCORE.RESTR.norm>
0.000413682

>  <SCORE.SYSTEM>
0

>  <SCORE.SYSTEM.CONST>
0

>  <SCORE.SYSTEM.DIHEDRAL>
0

>  <SCORE.SYSTEM.SOLV>
0

>  <SCORE.SYSTEM.norm>
0

>  <SCORE.heavy>
16

>  <SCORE.norm>
-1.48486

>  <RMSD>
2.166

$$$$
1f27 biotin aptamer (Xray 1.3A)
 OpenBabel11021811393D
libRbt.so/2013.1/901 2013/11/27
 16 17  0  0  0  0  0  0  0  0999 V2000
   20.8175   -0.6649   16.9960 C   0  0  0  0  0  0  0  0  0  0  0  0
   21.5285    0.0961   17.6446 O   0  5  0  0  0  0  0  0  0  0  0  0
   20.2150   -1.5734   17.5653 O   0  0  0  0  0  0  0  0  0  0  0  0
   20.6265   -0.4446   15.5008 C   0  0  0  0  0  0  0  0  0  0  0  0
   19.4906    0.5429   15.1521 C   0  0  0  0  0  0  0  0  0  0  0  0
   19.2650    0.6312   13.6541 C   0  0  0  0  0  0  0  0  0  0  0  0
   18.2655    1.6968   13.2551 C   0  0  0  0  0  0  0  0  0  0  0  0
   16.8558    1.5047   13.8299 C   0  0  2  0  0  0  0  0  0  0  0  0
   16.0256   -0.1811   13.4628 S   0  0  0  0  0  0  0  0  0  0  0  0
   14.3907    0.6246   14.0309 C   0  0  0  0  0  0  0  0  0  0  0  0
   14.4799    2.1016   13.5474 C   0  0  2  0  0  0  0  0  0  0  0  0
   13.8513    2.1161   12.1283 N   0  0  0  0  0  0  0  0  0  0  0  0
   14.6488    2.5080   11.2320 C   0  0  0  0  0  0  0  0  0  0  0  0
   14.5336    2.4948    9.9552 O   0  0  0  0  0  0  0  0  0  0  0  0
   16.0018    2.6983   11.7019 N   0  0  0  0  0  0  0  0  0  0  0  0
   15.8992    2.5303   13.2176 C   0  0  2  0  0  0  0  0  0  0  0  0
  1  2  1  0  0  0  0
  1  3  2  0  0  0  0
  1  4  1  0  0  0  0
  4  5  1  0  0  0  0
  5  6  1  0  0  0  0
  6  7  1  0  0  0  0
  8  7  1  6  0  0  0
  8  9  1  0  0  0  0
  8 16  1  0  0  0  0
  9 10  1  0  0  0  0
 11 10  1  6  0  0  0
 11 12  1  0  0  0  0
 11 16  1  0  0  0  0
 12 13  1  0  0  0  0
 13 14  2  0  0  0  0
 13 15  1  0  0  0  0
 16 15  1  6  0  0  0
M  CHG  1   2  -1
M  END
>  <CHROM.1>
-86.01571144,-175.01186531,-173.72929785,-60.64988343,-55.19692936,17.23851047
0.93501477,13.90467226,0.73519679,0.14929231,2.22023843

>  <Name>
1f27 biotin aptamer (Xray 1.3A)

>  <RI>
0

>  <Rbt.Current_Directory>
/home/itssahil/PROJECTS/Mol_Feturizer/New_Systems/rnas/1f27

>  <Rbt.Executable>
rbdock ($Id: //depot/dev/client3/rdock/2013.1/src/exe/rbdock.cxx#4 $)

>  <Rbt.Library>
libRbt.so (2013.1, Build901 2013/11/27)

>  <Rbt.Parameter_File>
/export/apps/rDock/src/rDock_2013.1_src/data/scripts/dock_solv.prm

>  <Rbt.Receptor>
prm/pocket_docking_8.prm

>  <SCORE>
-31.4849

>  <SCORE.INTER>
-28.6423

>  <SCORE.INTER.CONST>
1

>  <SCORE.INTER.POLAR>
-2.27549

>  <SCORE.INTER.ROT>
5

>  <SCORE.INTER.SOLV>
12.6248

>  <SCORE.INTER.VDW>
-22.6515

>  <SCORE.INTER.norm>
-1.79014

>  <SCORE.INTRA>
-2.84262

>  <SCORE.INTRA.DIHEDRAL>
-5.25656

>  <SCORE.INTRA.DIHEDRAL.0>
6.87082

>  <SCORE.INTRA.POLAR>
0

>  <SCORE.INTRA.POLAR.0>
0

>  <SCORE.INTRA.REPUL>
0

>  <SCORE.INTRA.REPUL.0>
0

>  <SCORE.INTRA.SOLV>
-0.793302

>  <SCORE.INTRA.SOLV.lig_0>
-42.5944

>  <SCORE.INTRA.VDW>
0.182312

>  <SCORE.INTRA.VDW.0>
-1.067

>  <SCORE.INTRA.norm>
-0.177664

>  <SCORE.RESTR>
0

>  <SCORE.RESTR.CAVITY>
0

>  <SCORE.RESTR.norm>
0

>  <SCORE.SYSTEM>
0

>  <SCORE.SYSTEM.CONST>
0

>  <SCORE.SYSTEM.DIHEDRAL>
0

>  <SCORE.SYSTEM.SOLV>
0

>  <SCORE.SYSTEM.norm>
0

>  <SCORE.heavy>
16

>  <SCORE.norm>
-1.9678

>  <RMSD>
2.174

$$$$
1f27 biotin aptamer (Xray 1.3A)
 OpenBabel11021811393D
libRbt.so/2013.1/901 2013/11/27
 16 17  0  0  0  0  0  0  0  0999 V2000
   20.8002    1.2279   13.2299 C   0  0  0  0  0  0  0  0  0  0  0  0
   21.7373    0.4586   13.0419 O   0  5  0  0  0  0  0  0  0  0  0  0
   20.5730    2.1247   12.4196 O   0  0  0  0  0  0  0  0  0  0  0  0
   19.8784    1.0319   14.4267 C   0  0  0  0  0  0  0  0  0  0  0  0
   18.7401    0.0162   14.1823 C   0  0  0  0  0  0  0  0  0  0  0  0
   18.0356    0.2708   12.8626 C   0  0  0  0  0  0  0  0  0  0  0  0
   17.3095    1.5989   12.8113 C   0  0  0  0  0  0  0  0  0  0  0  0
   16.0570    1.6823   13.6938 C   0  0  2  0  0  0  0  0  0  0  0  0
   14.8751    0.1783   13.6125 S   0  0  0  0  0  0  0  0  0  0  0  0
   13.5854    1.2839   14.4839 C   0  0  0  0  0  0  0  0  0  0  0  0
   13.8269    2.7117   13.9126 C   0  0  2  0  0  0  0  0  0  0  0  0
   12.9046    2.8267   12.6695 N   0  0  0  0  0  0  0  0  0  0  0  0
   13.5341    3.0506   11.5987 C   0  0  0  0  0  0  0  0  0  0  0  0
   13.1305    3.0435   10.3818 O   0  0  0  0  0  0  0  0  0  0  0  0
   14.9701    2.9889   11.7460 N   0  0  0  0  0  0  0  0  0  0  0  0
   15.1871    2.8619   13.2536 C   0  0  2  0  0  0  0  0  0  0  0  0
  1  2  1  0  0  0  0
  1  3  2  0  0  0  0
  1  4  1  0  0  0  0
  4  5  1  0  0  0  0
  5  6  1  0  0  0  0
  6  7  1  0  0  0  0
  8  7  1  6  0  0  0
  8  9  1  0  0  0  0
  8 16  1  0  0  0  0
  9 10  1  0  0  0  0
 11 10  1  6  0  0  0
 11 12  1  0  0  0  0
 11 16  1  0  0  0  0
 12 13  1  0  0  0  0
 13 14  2  0  0  0  0
 13 15  1  0  0  0  0
 16 15  1  6  0  0  0
M  CHG  1   2  -1
M  END
>  <CHROM.1>
-84.37327617,-47.48025414,-64.61353588,-70.37444024,-45.26616306,16.47854865
1.59389311,13.03124214,-0.23013675,0.08629210,-0.84302819

>  <Name>
1f27 biotin aptamer (Xray 1.3A)

>  <RI>
0

>  <Rbt.Current_Directory>
/home/itssahil/PROJECTS/Mol_Feturizer/New_Systems/rnas/1f27

>  <Rbt.Executable>
rbdock ($Id: //depot/dev/client3/rdock/2013.1/src/exe/rbdock.cxx#4 $)

>  <Rbt.Library>
libRbt.so (2013.1, Build901 2013/11/27)

>  <Rbt.Parameter_File>
/export/apps/rDock/src/rDock_2013.1_src/data/scripts/dock_solv.prm

>  <Rbt.Receptor>
prm/blind_docking_40.prm

>  <SCORE>
-22.6745

>  <SCORE.INTER>
-22.3139

>  <SCORE.INTER.CONST>
1

>  <SCORE.INTER.POLAR>
-0.669295

>  <SCORE.INTER.ROT>
5

>  <SCORE.INTER.SOLV>
15.5345

>  <SCORE.INTER.VDW>
-24.7564

>  <SCORE.INTER.norm>
-1.39462

>  <SCORE.INTRA>
-0.360663

>  <SCORE.INTRA.DIHEDRAL>
-3.67942

>  <SCORE.INTRA.DIHEDRAL.0>
6.87082

>  <SCORE.INTRA.POLAR>
0

>  <SCORE.INTRA.POLAR.0>
0

>  <SCORE.INTRA.REPUL>
0

>  <SCORE.INTRA.REPUL.0>
0

>  <SCORE.INTRA.SOLV>
1.11259

>  <SCORE.INTRA.SOLV.lig_0>
-42.5944

>  <SCORE.INTRA.VDW>
0.92275

>  <SCORE.INTRA.VDW.0>
-1.067

>  <SCORE.INTRA.norm>
-0.0225414

>  <SCORE.RESTR>
0

>  <SCORE.RESTR.CAVITY>
0

>  <SCORE.RESTR.norm>
0

>  <SCORE.SYSTEM>
0

>  <SCORE.SYSTEM.CONST>
0

>  <SCORE.SYSTEM.DIHEDRAL>
0

>  <SCORE.SYSTEM.SOLV>
0

>  <SCORE.SYSTEM.norm>
0

>  <SCORE.heavy>
16

>  <SCORE.norm>
-1.41716

>  <RMSD>
2.180

$$$$
1f27 biotin aptamer (Xray 1.3A)
 OpenBabel11021811393D
libRbt.so/2013.1/901 2013/11/27
 16 17  0  0  0  0  0  0  0  0999 V2000
   21.4065    0.4785   14.4837 C   0  0  0  0  0  0  0  0  0  0  0  0
   22.3361    1.1343   14.9433 O   0  5  0  0  0  0  0  0  0  0  0  0
   20.9840   -0.4987   15.0993 O   0  0  0  0  0  0  0  0  0  0  0  0
   20.7317    0.9124   13.1887 C   0  0  0  0  0  0  0  0  0  0  0  0
   19.5169    1.8442   13.3957 C   0  0  0  0  0  0  0  0  0  0  0  0
   18.6675    1.9446   12.1422 C   0  0  0  0  0  0  0  0  0  0  0  0
   17.4844    2.8790   12.2869 C   0  0  0  0  0  0  0  0  0  0  0  0
   16.4493    2.4494   13.3349 C   0  0  2  0  0  0  0  0  0  0  0  0
   15.7512    0.6769   13.1434 S   0  0  0  0  0  0  0  0  0  0  0  0
   14.3880    1.1990   14.3738 C   0  0  0  0  0  0  0  0  0  0  0  0
   14.1010    2.6937   14.0471 C   0  0  2  0  0  0  0  0  0  0  0  0
   12.9676    2.6801   12.9867 N   0  0  0  0  0  0  0  0  0  0  0  0
   13.2943    3.2298   11.8985 C   0  0  0  0  0  0  0  0  0  0  0  0
   12.6881    3.2597   10.7691 O   0  0  0  0  0  0  0  0  0  0  0  0
   14.6894    3.5997   11.8310 N   0  0  0  0  0  0  0  0  0  0  0  0
   15.2129    3.3467   13.2445 C   0  0  2  0  0  0  0  0  0  0  0  0
  1  2  1  0  0  0  0
  1  3  2  0  0  0  0
  1  4  1  0  0  0  0
  4  5  1  0  0  0  0
  5  6  1  0  0  0  0
  6  7  1  0  0  0  0
  8  7  1  6  0  0  0
  8  9  1  0  0  0  0
  8 16  1  0  0  0  0
  9 10  1  0  0  0  0
 11 10  1  6  0  0  0
 11 12  1  0  0  0  0
 11 16  1  0  0  0  0
 12 13  1  0  0  0  0
 13 14  2  0  0  0  0
 13 15  1  0  0  0  0
 16 15  1  6  0  0  0
M  CHG  1   2  -1
M  END
>  <CHROM.1>
-91.40093236,-164.66949256,-178.41353324,-63.41031368,-54.07051032,16.85940203
1.87602870,13.19060565,0.36227772,-0.03049731,2.32836488

>  <Name>
1f27 biotin aptamer (Xray 1.3A)

>  <RI>
0

>  <Rbt.Current_Directory>
/home/itssahil/PROJECTS/Mol_Feturizer/New_Systems/rnas/1f27

>  <Rbt.Executable>
rbdock ($Id: //depot/dev/client3/rdock/2013.1/src/exe/rbdock.cxx#4 $)

>  <Rbt.Library>
libRbt.so (2013.1, Build901 2013/11/27)

>  <Rbt.Parameter_File>
/export/apps/rDock/src/rDock_2013.1_src/data/scripts/dock_solv.prm

>  <Rbt.Receptor>
prm/blind_docking_60.prm

>  <SCORE>
-24.6646

>  <SCORE.INTER>
-22.1223

>  <SCORE.INTER.CONST>
1

>  <SCORE.INTER.POLAR>
-0.45786

>  <SCORE.INTER.ROT>
5

>  <SCORE.INTER.SOLV>
12.3852

>  <SCORE.INTER.VDW>
-24.2837

>  <SCORE.INTER.norm>
-1.38264

>  <SCORE.INTRA>
-2.54235

>  <SCORE.INTRA.DIHEDRAL>
-4.58438

>  <SCORE.INTRA.DIHEDRAL.0>
6.87082

>  <SCORE.INTRA.POLAR>
0

>  <SCORE.INTRA.POLAR.0>
0

>  <SCORE.INTRA.REPUL>
0

>  <SCORE.INTRA.REPUL.0>
0

>  <SCORE.INTRA.SOLV>
-0.77389

>  <SCORE.INTRA.SOLV.lig_0>
-42.5944

>  <SCORE.INTRA.VDW>
0.136785

>  <SCORE.INTRA.VDW.0>
-1.067

>  <SCORE.INTRA.norm>
-0.158897

>  <SCORE.RESTR>
0

>  <SCORE.RESTR.CAVITY>
0

>  <SCORE.RESTR.norm>
0

>  <SCORE.SYSTEM>
0

>  <SCORE.SYSTEM.CONST>
0

>  <SCORE.SYSTEM.DIHEDRAL>
0

>  <SCORE.SYSTEM.SOLV>
0

>  <SCORE.SYSTEM.norm>
0

>  <SCORE.heavy>
16

>  <SCORE.norm>
-1.54154

>  <RMSD>
2.181

$$$$
1f27 biotin aptamer (Xray 1.3A)
 OpenBabel11021811393D
libRbt.so/2013.1/901 2013/11/27
 16 17  0  0  0  0  0  0  0  0999 V2000
   21.1931    0.0200   13.7312 C   0  0  0  0  0  0  0  0  0  0  0  0
   21.6763    0.0103   12.6035 O   0  5  0  0  0  0  0  0  0  0  0  0
   21.9328    0.0150   14.7138 O   0  0  0  0  0  0  0  0  0  0  0  0
   19.6835    0.1073   13.9154 C   0  0  0  0  0  0  0  0  0  0  0  0
   19.1308    1.5499   13.8916 C   0  0  0  0  0  0  0  0  0  0  0  0
   17.6530    1.5896   14.2341 C   0  0  0  0  0  0  0  0  0  0  0  0
   16.9655    2.8666   13.7979 C   0  0  0  0  0  0  0  0  0  0  0  0
   15.4456    2.8835   14.0078 C   0  0  2  0  0  0  0  0  0  0  0  0
   14.5919    1.1711   14.0769 S   0  0  0  0  0  0  0  0  0  0  0  0
   12.9424    2.1069   13.8564 C   0  0  0  0  0  0  0  0  0  0  0  0
   13.2770    3.2955   12.9085 C   0  0  2  0  0  0  0  0  0  0  0  0
   13.0279    2.7669   11.4705 N   0  0  0  0  0  0  0  0  0  0  0  0
   14.0555    2.8055   10.7386 C   0  0  0  0  0  0  0  0  0  0  0  0
   14.2634    2.3122    9.5736 O   0  0  0  0  0  0  0  0  0  0  0  0
   15.2586    3.1783   11.4465 N   0  0  0  0  0  0  0  0  0  0  0  0
   14.7651    3.5900   12.8332 C   0  0  2  0  0  0  0  0  0  0  0  0
  1  2  1  0  0  0  0
  1  3  2  0  0  0  0
  1  4  1  0  0  0  0
  4  5  1  0  0  0  0
  5  6  1  0  0  0  0
  6  7  1  0  0  0  0
  8  7  1  6  0  0  0
  8  9  1  0  0  0  0
  8 16  1  0  0  0  0
  9 10  1  0  0  0  0
 11 10  1  1  0  0  0
 11 12  1  0  0  0  0
 11 16  1  0  0  0  0
 12 13  1  0  0  0  0
 13 14  2  0  0  0  0
 13 15  1  0  0  0  0
 16 15  1  6  0  0  0
M  CHG  1   2  -1
M  END
>  <CHROM.1>
-84.93995549,-173.57502950,-161.21594009,174.40976343,-24.11641198,16.52088954
1.80946993,13.04520435,-0.26946254,0.28186313,-1.41092595

>  <Name>
1f27 biotin aptamer (Xray 1.3A)

>  <RI>
0

>  <Rbt.Current_Directory>
/home/itssahil/PROJECTS/Mol_Feturizer/New_Systems/rnas/1f27

>  <Rbt.Executable>
rbdock ($Id: //depot/dev/client3/rdock/2013.1/src/exe/rbdock.cxx#4 $)

>  <Rbt.Library>
libRbt.so (2013.1, Build901 2013/11/27)

>  <Rbt.Parameter_File>
/export/apps/rDock/src/rDock_2013.1_src/data/scripts/dock_solv.prm

>  <Rbt.Receptor>
prm/blind_docking_100.prm

>  <SCORE>
-27.0663

>  <SCORE.INTER>
-27.4667

>  <SCORE.INTER.CONST>
1

>  <SCORE.INTER.POLAR>
-2.1961

>  <SCORE.INTER.ROT>
5

>  <SCORE.INTER.SOLV>
12.9286

>  <SCORE.INTER.VDW>
-22.2337

>  <SCORE.INTER.norm>
-1.71667

>  <SCORE.INTRA>
-0.00866588

>  <SCORE.INTRA.DIHEDRAL>
-0.133634

>  <SCORE.INTRA.DIHEDRAL.0>
6.87082

>  <SCORE.INTRA.POLAR>
0

>  <SCORE.INTRA.POLAR.0>
0

>  <SCORE.INTRA.REPUL>
0

>  <SCORE.INTRA.REPUL.0>
0

>  <SCORE.INTRA.SOLV>
-0.742016

>  <SCORE.INTRA.SOLV.lig_0>
-42.5944

>  <SCORE.INTRA.VDW>
0.429159

>  <SCORE.INTRA.VDW.0>
-1.067

>  <SCORE.INTRA.norm>
-0.000541617

>  <SCORE.RESTR>
0.409084

>  <SCORE.RESTR.CAVITY>
0.409084

>  <SCORE.RESTR.norm>
0.0255677

>  <SCORE.SYSTEM>
0

>  <SCORE.SYSTEM.CONST>
0

>  <SCORE.SYSTEM.DIHEDRAL>
0

>  <SCORE.SYSTEM.SOLV>
0

>  <SCORE.SYSTEM.norm>
0

>  <SCORE.heavy>
16

>  <SCORE.norm>
-1.69164

>  <RMSD>
2.188

$$$$
1f27 biotin aptamer (Xray 1.3A)
 OpenBabel11021811393D
libRbt.so/2013.1/901 2013/11/27
 16 17  0  0  0  0  0  0  0  0999 V2000
   21.0270    0.4094   13.6441 C   0  0  0  0  0  0  0  0  0  0  0  0
   21.6016   -0.0019   14.6471 O   0  5  0  0  0  0  0  0  0  0  0  0
   21.6131    0.4168   12.5630 O   0  0  0  0  0  0  0  0  0  0  0  0
   19.5696    0.8458   13.7229 C   0  0  0  0  0  0  0  0  0  0  0  0
   18.5708   -0.2024   13.1836 C   0  0  0  0  0  0  0  0  0  0  0  0
   17.1794    0.0046   13.7529 C   0  0  0  0  0  0  0  0  0  0  0  0
   16.5629    1.3350   13.3740 C   0  0  0  0  0  0  0  0  0  0  0  0
   15.2376    1.6543   14.0781 C   0  0  2  0  0  0  0  0  0  0  0  0
   13.7773    0.4805   13.6839 S   0  0  0  0  0  0  0  0  0  0  0  0
   12.6465    1.8004   14.4741 C   0  0  0  0  0  0  0  0  0  0  0  0
   13.2884    3.1648   14.0874 C   0  0  2  0  0  0  0  0  0  0  0  0
   12.6235    3.5749   12.7462 N   0  0  0  0  0  0  0  0  0  0  0  0
   13.4483    3.7130   11.8008 C   0  0  0  0  0  0  0  0  0  0  0  0
   13.2508    3.8807   10.5452 O   0  0  0  0  0  0  0  0  0  0  0  0
   14.7923    3.3045   12.1389 N   0  0  0  0  0  0  0  0  0  0  0  0
   14.7343    3.0320   13.6417 C   0  0  2  0  0  0  0  0  0  0  0  0
  1  2  1  0  0  0  0
  1  3  2  0  0  0  0
  1  4  1  0  0  0  0
  4  5  1  0  0  0  0
  5  6  1  0  0  0  0
  6  7  1  0  0  0  0
  8  7  1  6  0  0  0
  8  9  1  0  0  0  0
  8 16  1  0  0  0  0
  9 10  1  0  0  0  0
 11 10  1  6  0  0  0
 11 12  1  0  0  0  0
 11 16  1  0  0  0  0
 12 13  1  0  0  0  0
 13 14  2  0  0  0  0
 13 15  1  0  0  0  0
 16 15  1  6  0  0  0
M  CHG  1   2  -1
M  END
>  <CHROM.1>
-101.44538104,157.69011500,62.53931180,-172.43639963,-63.85510971,16.10940855
1.61243860,13.26131015,-0.31571446,0.16146517,-0.75675097

>  <Name>
1f27 biotin aptamer (Xray 1.3A)

>  <RI>
0

>  <Rbt.Current_Directory>
/home/itssahil/PROJECTS/Mol_Feturizer/New_Systems/rnas/1f27

>  <Rbt.Executable>
rbdock ($Id: //depot/dev/client3/rdock/2013.1/src/exe/rbdock.cxx#4 $)

>  <Rbt.Library>
libRbt.so (2013.1, Build901 2013/11/27)

>  <Rbt.Parameter_File>
/export/apps/rDock/src/rDock_2013.1_src/data/scripts/dock_solv.prm

>  <Rbt.Receptor>
prm/blind_docking_100.prm

>  <SCORE>
-23.2934

>  <SCORE.INTER>
-21.7615

>  <SCORE.INTER.CONST>
1

>  <SCORE.INTER.POLAR>
-0.654718

>  <SCORE.INTER.ROT>
5

>  <SCORE.INTER.SOLV>
13.4939

>  <SCORE.INTER.VDW>
-23.7566

>  <SCORE.INTER.norm>
-1.3601

>  <SCORE.INTRA>
-1.54827

>  <SCORE.INTRA.DIHEDRAL>
-3.636

>  <SCORE.INTRA.DIHEDRAL.0>
6.87082

>  <SCORE.INTRA.POLAR>
0

>  <SCORE.INTRA.POLAR.0>
0

>  <SCORE.INTRA.REPUL>
0

>  <SCORE.INTRA.REPUL.0>
0

>  <SCORE.INTRA.SOLV>
-0.798793

>  <SCORE.INTRA.SOLV.lig_0>
-42.5944

>  <SCORE.INTRA.VDW>
0.669127

>  <SCORE.INTRA.VDW.0>
-1.067

>  <SCORE.INTRA.norm>
-0.0967667

>  <SCORE.RESTR>
0.0164099

>  <SCORE.RESTR.CAVITY>
0.0164099

>  <SCORE.RESTR.norm>
0.00102562

>  <SCORE.SYSTEM>
0

>  <SCORE.SYSTEM.CONST>
0

>  <SCORE.SYSTEM.DIHEDRAL>
0

>  <SCORE.SYSTEM.SOLV>
0

>  <SCORE.SYSTEM.norm>
0

>  <SCORE.heavy>
16

>  <SCORE.norm>
-1.45584

>  <RMSD>
2.204

$$$$
1f27 biotin aptamer (Xray 1.3A)
 OpenBabel11021811393D
libRbt.so/2013.1/901 2013/11/27
 16 17  0  0  0  0  0  0  0  0999 V2000
   20.6432    0.2646   13.0831 C   0  0  0  0  0  0  0  0  0  0  0  0
   19.8927   -0.5734   13.5730 O   0  5  0  0  0  0  0  0  0  0  0  0
   21.7006   -0.0898   12.5646 O   0  0  0  0  0  0  0  0  0  0  0  0
   20.2361    1.7323   13.0555 C   0  0  0  0  0  0  0  0  0  0  0  0
   18.9980    2.0236   12.1785 C   0  0  0  0  0  0  0  0  0  0  0  0
   17.7108    1.6229   12.8753 C   0  0  0  0  0  0  0  0  0  0  0  0
   17.2464    2.6259   13.9107 C   0  0  0  0  0  0  0  0  0  0  0  0
   15.7384    2.6079   14.1932 C   0  0  2  0  0  0  0  0  0  0  0  0
   14.9042    0.8847   14.1730 S   0  0  0  0  0  0  0  0  0  0  0  0
   13.2378    1.8137   14.1025 C   0  0  0  0  0  0  0  0  0  0  0  0
   13.5156    3.0743   13.2324 C   0  0  2  0  0  0  0  0  0  0  0  0
   13.2021    2.6522   11.7720 N   0  0  0  0  0  0  0  0  0  0  0  0
   14.1928    2.7585   10.9971 C   0  0  0  0  0  0  0  0  0  0  0  0
   14.3486    2.3568    9.7896 O   0  0  0  0  0  0  0  0  0  0  0  0
   15.4253    3.0920   11.6733 N   0  0  0  0  0  0  0  0  0  0  0  0
   14.9957    3.3922   13.1091 C   0  0  2  0  0  0  0  0  0  0  0  0
  1  2  1  0  0  0  0
  1  3  2  0  0  0  0
  1  4  1  0  0  0  0
  4  5  1  0  0  0  0
  5  6  1  0  0  0  0
  6  7  1  0  0  0  0
  8  7  1  6  0  0  0
  8  9  1  0  0  0  0
  8 16  1  0  0  0  0
  9 10  1  0  0  0  0
 11 10  1  1  0  0  0
 11 12  1  0  0  0  0
 11 16  1  0  0  0  0
 12 13  1  0  0  0  0
 13 14  2  0  0  0  0
 13 15  1  0  0  0  0
 16 15  1  6  0  0  0
M  CHG  1   2  -1
M  END
>  <CHROM.1>
-64.63257113,77.34048315,78.84642995,154.91798469,36.90975397,16.53716551
1.78192755,12.84378675,-0.17661383,0.25048600,-1.20547194

>  <Name>
1f27 biotin aptamer (Xray 1.3A)

>  <RI>
0

>  <Rbt.Current_Directory>
/home/itssahil/PROJECTS/Mol_Feturizer/New_Systems/rnas/1f27

>  <Rbt.Executable>
rbdock ($Id: //depot/dev/client3/rdock/2013.1/src/exe/rbdock.cxx#4 $)

>  <Rbt.Library>
libRbt.so (2013.1, Build901 2013/11/27)

>  <Rbt.Parameter_File>
/export/apps/rDock/src/rDock_2013.1_src/data/scripts/dock_solv.prm

>  <Rbt.Receptor>
prm/blind_docking_100.prm

>  <SCORE>
-29.6161

>  <SCORE.INTER>
-31.2155

>  <SCORE.INTER.CONST>
1

>  <SCORE.INTER.POLAR>
-2.36851

>  <SCORE.INTER.ROT>
5

>  <SCORE.INTER.SOLV>
11.8299

>  <SCORE.INTER.VDW>
-23.792

>  <SCORE.INTER.norm>
-1.95097

>  <SCORE.INTRA>
1.43017

>  <SCORE.INTRA.DIHEDRAL>
1.01425

>  <SCORE.INTRA.DIHEDRAL.0>
6.87082

>  <SCORE.INTRA.POLAR>
0

>  <SCORE.INTRA.POLAR.0>
0

>  <SCORE.INTRA.REPUL>
0

>  <SCORE.INTRA.REPUL.0>
0

>  <SCORE.INTRA.SOLV>
0.797064

>  <SCORE.INTRA.SOLV.lig_0>
-42.5944

>  <SCORE.INTRA.VDW>
0.524514

>  <SCORE.INTRA.VDW.0>
-1.067

>  <SCORE.INTRA.norm>
0.0893857

>  <SCORE.RESTR>
0.169242

>  <SCORE.RESTR.CAVITY>
0.169242

>  <SCORE.RESTR.norm>
0.0105776

>  <SCORE.SYSTEM>
0

>  <SCORE.SYSTEM.CONST>
0

>  <SCORE.SYSTEM.DIHEDRAL>
0

>  <SCORE.SYSTEM.SOLV>
0

>  <SCORE.SYSTEM.norm>
0

>  <SCORE.heavy>
16

>  <SCORE.norm>
-1.85101

>  <RMSD>
2.210

$$$$
1f27 biotin aptamer (Xray 1.3A)
 OpenBabel11021811393D
libRbt.so/2013.1/901 2013/11/27
 16 17  0  0  0  0  0  0  0  0999 V2000
   20.4758    0.3450   12.7679 C   0  0  0  0  0  0  0  0  0  0  0  0
   19.6222   -0.4981   13.0247 O   0  5  0  0  0  0  0  0  0  0  0  0
   21.6244   -0.0077   12.5056 O   0  0  0  0  0  0  0  0  0  0  0  0
   20.0996    1.8198   12.7065 C   0  0  0  0  0  0  0  0  0  0  0  0
   19.6324    2.4050   14.0580 C   0  0  0  0  0  0  0  0  0  0  0  0
   18.1522    2.7390   14.0423 C   0  0  0  0  0  0  0  0  0  0  0  0
   17.2613    1.5285   13.8560 C   0  0  0  0  0  0  0  0  0  0  0  0
   15.7787    1.7656   14.1723 C   0  0  2  0  0  0  0  0  0  0  0  0
   14.6212    0.2595   13.9323 S   0  0  0  0  0  0  0  0  0  0  0  0
   13.1708    1.4967   14.0361 C   0  0  0  0  0  0  0  0  0  0  0  0
   13.6937    2.7896   13.3445 C   0  0  2  0  0  0  0  0  0  0  0  0
   13.3063    2.6496   11.8480 N   0  0  0  0  0  0  0  0  0  0  0  0
   14.3002    2.6696   11.0701 C   0  0  0  0  0  0  0  0  0  0  0  0
   14.3764    2.4216    9.8146 O   0  0  0  0  0  0  0  0  0  0  0  0
   15.5728    2.6558   11.7542 N   0  0  0  0  0  0  0  0  0  0  0  0
   15.2077    2.8263   13.2285 C   0  0  2  0  0  0  0  0  0  0  0  0
  1  2  1  0  0  0  0
  1  3  2  0  0  0  0
  1  4  1  0  0  0  0
  4  5  1  0  0  0  0
  5  6  1  0  0  0  0
  6  7  1  0  0  0  0
  8  7  1  6  0  0  0
  8  9  1  0  0  0  0
  8 16  1  0  0  0  0
  9 10  1  0  0  0  0
 11 10  1  1  0  0  0
 11 12  1  0  0  0  0
 11 16  1  0  0  0  0
 12 13  1  0  0  0  0
 13 14  2  0  0  0  0
 13 15  1  0  0  0  0
 16 15  1  6  0  0  0
M  CHG  1   2  -1
M  END
>  <CHROM.1>
64.76033277,-111.00669180,63.52420220,165.81757881,179.48017752,16.56538185
1.60645269,12.93114782,-0.16768731,0.14717746,-1.11213046

>  <Name>
1f27 biotin aptamer (Xray 1.3A)

>  <RI>
0

>  <Rbt.Current_Directory>
/home/itssahil/PROJECTS/Mol_Feturizer/New_Systems/rnas/1f27

>  <Rbt.Executable>
rbdock ($Id: //depot/dev/client3/rdock/2013.1/src/exe/rbdock.cxx#4 $)

>  <Rbt.Library>
libRbt.so (2013.1, Build901 2013/11/27)

>  <Rbt.Parameter_File>
/export/apps/rDock/src/rDock_2013.1_src/data/scripts/dock_solv.prm

>  <Rbt.Receptor>
prm/blind_docking_100.prm

>  <SCORE>
-29.0867

>  <SCORE.INTER>
-30.217

>  <SCORE.INTER.CONST>
1

>  <SCORE.INTER.POLAR>
-2.20452

>  <SCORE.INTER.ROT>
5

>  <SCORE.INTER.SOLV>
13.7582

>  <SCORE.INTER.VDW>
-24.3156

>  <SCORE.INTER.norm>
-1.88856

>  <SCORE.INTRA>
1.08359

>  <SCORE.INTRA.DIHEDRAL>
0.450307

>  <SCORE.INTRA.DIHEDRAL.0>
6.87082

>  <SCORE.INTRA.POLAR>
0

>  <SCORE.INTRA.POLAR.0>
0

>  <SCORE.INTRA.REPUL>
0

>  <SCORE.INTRA.REPUL.0>
0

>  <SCORE.INTRA.SOLV>
0.457103

>  <SCORE.INTRA.SOLV.lig_0>
-42.5944

>  <SCORE.INTRA.VDW>
0.629883

>  <SCORE.INTRA.VDW.0>
-1.067

>  <SCORE.INTRA.norm>
0.0677243

>  <SCORE.RESTR>
0.0467127

>  <SCORE.RESTR.CAVITY>
0.0467127

>  <SCORE.RESTR.norm>
0.00291954

>  <SCORE.SYSTEM>
0

>  <SCORE.SYSTEM.CONST>
0

>  <SCORE.SYSTEM.DIHEDRAL>
0

>  <SCORE.SYSTEM.SOLV>
0

>  <SCORE.SYSTEM.norm>
0

>  <SCORE.heavy>
16

>  <SCORE.norm>
-1.81792

>  <RMSD>
2.223

$$$$
1f27 biotin aptamer (Xray 1.3A)
 OpenBabel11021811393D
libRbt.so/2013.1/901 2013/11/27
 16 17  0  0  0  0  0  0  0  0999 V2000
   21.4324    0.5477   14.4856 C   0  0  0  0  0  0  0  0  0  0  0  0
   21.0032   -0.4252   15.0975 O   0  5  0  0  0  0  0  0  0  0  0  0
   22.3771    1.1895   14.9420 O   0  0  0  0  0  0  0  0  0  0  0  0
   20.8430    0.9200   13.1311 C   0  0  0  0  0  0  0  0  0  0  0  0
   19.7709    2.0306   13.1972 C   0  0  0  0  0  0  0  0  0  0  0  0
   18.5122    1.5535   13.8979 C   0  0  0  0  0  0  0  0  0  0  0  0
   17.3942    2.5751   13.8943 C   0  0  0  0  0  0  0  0  0  0  0  0
   16.0248    2.0323   14.3239 C   0  0  2  0  0  0  0  0  0  0  0  0
   15.4273    0.4566   13.4153 S   0  0  0  0  0  0  0  0  0  0  0  0
   13.7007    0.8252   14.1419 C   0  0  0  0  0  0  0  0  0  0  0  0
   13.5894    2.3778   14.1487 C   0  0  2  0  0  0  0  0  0  0  0  0
   12.9603    2.7584   12.7818 N   0  0  0  0  0  0  0  0  0  0  0  0
   13.6954    3.5119   12.0854 C   0  0  0  0  0  0  0  0  0  0  0  0
   13.5792    3.8874   10.8650 O   0  0  0  0  0  0  0  0  0  0  0  0
   15.0120    3.7162   12.6443 N   0  0  0  0  0  0  0  0  0  0  0  0
   14.9374    3.0671   14.0260 C   0  0  2  0  0  0  0  0  0  0  0  0
  1  2  1  0  0  0  0
  1  3  2  0  0  0  0
  1  4  1  0  0  0  0
  4  5  1  0  0  0  0
  5  6  1  0  0  0  0
  6  7  1  0  0  0  0
  8  7  1  6  0  0  0
  8  9  1  0  0  0  0
  8 16  1  0  0  0  0
  9 10  1  0  0  0  0
 11 10  1  6  0  0  0
 11 12  1  0  0  0  0
 11 16  1  0  0  0  0
 12 13  1  0  0  0  0
 13 14  2  0  0  0  0
 13 15  1  0  0  0  0
 16 15  1  6  0  0  0
M  CHG  1   2  -1
M  END
>  <CHROM.1>
97.42228442,-68.12434467,-175.64581519,167.72543072,-51.62750752,16.82345377
1.82239320,13.54476175,-0.33110437,-0.02602447,-0.60846158

>  <Name>
1f27 biotin aptamer (Xray 1.3A)

>  <RI>
0

>  <Rbt.Current_Directory>
/home/itssahil/PROJECTS/Mol_Feturizer/New_Systems/rnas/1f27

>  <Rbt.Executable>
rbdock ($Id: //depot/dev/client3/rdock/2013.1/src/exe/rbdock.cxx#4 $)

>  <Rbt.Library>
libRbt.so (2013.1, Build901 2013/11/27)

>  <Rbt.Parameter_File>
/export/apps/rDock/src/rDock_2013.1_src/data/scripts/dock_solv.prm

>  <Rbt.Receptor>
prm/blind_docking_60.prm

>  <SCORE>
-27.3947

>  <SCORE.INTER>
-25.3265

>  <SCORE.INTER.CONST>
1

>  <SCORE.INTER.POLAR>
-0.848528

>  <SCORE.INTER.ROT>
5

>  <SCORE.INTER.SOLV>
13.3595

>  <SCORE.INTER.VDW>
-25.4424

>  <SCORE.INTER.norm>
-1.58291

>  <SCORE.INTRA>
-2.06822

>  <SCORE.INTRA.DIHEDRAL>
-4.18911

>  <SCORE.INTRA.DIHEDRAL.0>
6.87082

>  <SCORE.INTRA.POLAR>
0

>  <SCORE.INTRA.POLAR.0>
0

>  <SCORE.INTRA.REPUL>
0

>  <SCORE.INTRA.REPUL.0>
0

>  <SCORE.INTRA.SOLV>
0.0266154

>  <SCORE.INTRA.SOLV.lig_0>
-42.5944

>  <SCORE.INTRA.VDW>
0.01303

>  <SCORE.INTRA.VDW.0>
-1.067

>  <SCORE.INTRA.norm>
-0.129264

>  <SCORE.RESTR>
0

>  <SCORE.RESTR.CAVITY>
0

>  <SCORE.RESTR.norm>
0

>  <SCORE.SYSTEM>
0

>  <SCORE.SYSTEM.CONST>
0

>  <SCORE.SYSTEM.DIHEDRAL>
0

>  <SCORE.SYSTEM.SOLV>
0

>  <SCORE.SYSTEM.norm>
0

>  <SCORE.heavy>
16

>  <SCORE.norm>
-1.71217

>  <RMSD>
2.224

$$$$
1f27 biotin aptamer (Xray 1.3A)
 OpenBabel11021811393D
libRbt.so/2013.1/901 2013/11/27
 16 17  0  0  0  0  0  0  0  0999 V2000
   20.9439    0.7789   14.2580 C   0  0  0  0  0  0  0  0  0  0  0  0
   21.3517   -0.0930   15.0188 O   0  5  0  0  0  0  0  0  0  0  0  0
   21.0790    1.9641   14.5573 O   0  0  0  0  0  0  0  0  0  0  0  0
   20.3337    0.3977   12.9153 C   0  0  0  0  0  0  0  0  0  0  0  0
   18.9562   -0.2933   13.0256 C   0  0  0  0  0  0  0  0  0  0  0  0
   17.9385    0.5931   13.7194 C   0  0  0  0  0  0  0  0  0  0  0  0
   16.5211    0.0662   13.6355 C   0  0  0  0  0  0  0  0  0  0  0  0
   15.4380    1.0590   14.0779 C   0  0  2  0  0  0  0  0  0  0  0  0
   13.6393    0.5967   13.6124 S   0  0  0  0  0  0  0  0  0  0  0  0
   13.1811    2.3995   14.0426 C   0  0  0  0  0  0  0  0  0  0  0  0
   14.4071    3.2457   13.5911 C   0  0  2  0  0  0  0  0  0  0  0  0
   14.1169    3.6520   12.1214 N   0  0  0  0  0  0  0  0  0  0  0  0
   14.9869    3.2369   11.3066 C   0  0  0  0  0  0  0  0  0  0  0  0
   14.9917    3.2403   10.0246 O   0  0  0  0  0  0  0  0  0  0  0  0
   15.9605    2.3490   11.8995 N   0  0  0  0  0  0  0  0  0  0  0  0
   15.6614    2.4113   13.3971 C   0  0  2  0  0  0  0  0  0  0  0  0
  1  2  1  0  0  0  0
  1  3  2  0  0  0  0
  1  4  1  0  0  0  0
  4  5  1  0  0  0  0
  5  6  1  0  0  0  0
  6  7  1  0  0  0  0
  8  7  1  6  0  0  0
  8  9  1  0  0  0  0
  8 16  1  0  0  0  0
  9 10  1  0  0  0  0
 11 10  1  6  0  0  0
 11 12  1  0  0  0  0
 11 16  1  0  0  0  0
 12 13  1  0  0  0  0
 13 14  2  0  0  0  0
 13 15  1  0  0  0  0
 16 15  1  6  0  0  0
M  CHG  1   2  -1
M  END
>  <CHROM.1>
70.05877879,59.53836715,169.81269739,-168.53102089,166.33701846,16.64945424
1.52531209,13.21860461,-0.35250884,0.04600966,-0.80960859

>  <Name>
1f27 biotin aptamer (Xray 1.3A)

>  <RI>
0

>  <Rbt.Current_Directory>
/home/itssahil/PROJECTS/Mol_Feturizer/New_Systems/rnas/1f27

>  <Rbt.Executable>
rbdock ($Id: //depot/dev/client3/rdock/2013.1/src/exe/rbdock.cxx#4 $)

>  <Rbt.Library>
libRbt.so (2013.1, Build901 2013/11/27)

>  <Rbt.Parameter_File>
/export/apps/rDock/src/rDock_2013.1_src/data/scripts/dock_solv.prm

>  <Rbt.Receptor>
prm/blind_docking_100.prm

>  <SCORE>
-25.8626

>  <SCORE.INTER>
-24.9304

>  <SCORE.INTER.CONST>
1

>  <SCORE.INTER.POLAR>
-1.17504

>  <SCORE.INTER.ROT>
5

>  <SCORE.INTER.SOLV>
15.563

>  <SCORE.INTER.VDW>
-24.8244

>  <SCORE.INTER.norm>
-1.55815

>  <SCORE.INTRA>
-0.93225

>  <SCORE.INTRA.DIHEDRAL>
-3.79689

>  <SCORE.INTRA.DIHEDRAL.0>
6.87082

>  <SCORE.INTRA.POLAR>
0

>  <SCORE.INTRA.POLAR.0>
0

>  <SCORE.INTRA.REPUL>
0

>  <SCORE.INTRA.REPUL.0>
0

>  <SCORE.INTRA.SOLV>
0.402506

>  <SCORE.INTRA.SOLV.lig_0>
-42.5944

>  <SCORE.INTRA.VDW>
0.76494

>  <SCORE.INTRA.VDW.0>
-1.067

>  <SCORE.INTRA.norm>
-0.0582656

>  <SCORE.RESTR>
0

>  <SCORE.RESTR.CAVITY>
0

>  <SCORE.RESTR.norm>
0

>  <SCORE.SYSTEM>
0

>  <SCORE.SYSTEM.CONST>
0

>  <SCORE.SYSTEM.DIHEDRAL>
0

>  <SCORE.SYSTEM.SOLV>
0

>  <SCORE.SYSTEM.norm>
0

>  <SCORE.heavy>
16

>  <SCORE.norm>
-1.61641

>  <RMSD>
2.227

$$$$
1f27 biotin aptamer (Xray 1.3A)
 OpenBabel11021811393D
libRbt.so/2013.1/901 2013/11/27
 16 17  0  0  0  0  0  0  0  0999 V2000
   20.5694    0.3363   12.9848 C   0  0  0  0  0  0  0  0  0  0  0  0
   21.6492    0.0007   12.5087 O   0  5  0  0  0  0  0  0  0  0  0  0
   19.7683   -0.5225   13.3497 O   0  0  0  0  0  0  0  0  0  0  0  0
   20.2486    1.8117   13.1872 C   0  0  0  0  0  0  0  0  0  0  0  0
   19.1233    2.3407   12.2702 C   0  0  0  0  0  0  0  0  0  0  0  0
   17.7506    1.9450   12.7821 C   0  0  0  0  0  0  0  0  0  0  0  0
   17.2591    2.8095   13.9243 C   0  0  0  0  0  0  0  0  0  0  0  0
   15.7572    2.6961   14.2174 C   0  0  2  0  0  0  0  0  0  0  0  0
   15.0321    0.9243   14.1941 S   0  0  0  0  0  0  0  0  0  0  0  0
   13.3105    1.7477   14.1402 C   0  0  0  0  0  0  0  0  0  0  0  0
   13.5027    3.0273   13.2748 C   0  0  2  0  0  0  0  0  0  0  0  0
   13.2054    2.5934   11.8145 N   0  0  0  0  0  0  0  0  0  0  0  0
   14.1817    2.7651   11.0332 C   0  0  0  0  0  0  0  0  0  0  0  0
   14.3534    2.3797    9.8225 O   0  0  0  0  0  0  0  0  0  0  0  0
   15.3960    3.1717   11.7023 N   0  0  0  0  0  0  0  0  0  0  0  0
   14.9591    3.4376   13.1426 C   0  0  2  0  0  0  0  0  0  0  0  0
  1  2  1  0  0  0  0
  1  3  2  0  0  0  0
  1  4  1  0  0  0  0
  4  5  1  0  0  0  0
  5  6  1  0  0  0  0
  6  7  1  0  0  0  0
  8  7  1  6  0  0  0
  8  9  1  0  0  0  0
  8 16  1  0  0  0  0
  9 10  1  0  0  0  0
 11 10  1  1  0  0  0
 11 12  1  0  0  0  0
 11 16  1  0  0  0  0
 12 13  1  0  0  0  0
 13 14  2  0  0  0  0
 13 15  1  0  0  0  0
 16 15  1  6  0  0  0
M  CHG  1   2  -1
M  END
>  <CHROM.1>
112.34747941,78.64497498,78.95863256,164.39971356,42.93929103,16.55054417
1.85594905,12.84752630,-0.16081501,0.23969721,-1.20379978

>  <Name>
1f27 biotin aptamer (Xray 1.3A)

>  <RI>
0

>  <Rbt.Current_Directory>
/home/itssahil/PROJECTS/Mol_Feturizer/New_Systems/rnas/1f27

>  <Rbt.Executable>
rbdock ($Id: //depot/dev/client3/rdock/2013.1/src/exe/rbdock.cxx#4 $)

>  <Rbt.Library>
libRbt.so (2013.1, Build901 2013/11/27)

>  <Rbt.Parameter_File>
/export/apps/rDock/src/rDock_2013.1_src/data/scripts/dock_solv.prm

>  <Rbt.Receptor>
prm/blind_docking_100.prm

>  <SCORE>
-29.54

>  <SCORE.INTER>
-30.43

>  <SCORE.INTER.CONST>
1

>  <SCORE.INTER.POLAR>
-2.36531

>  <SCORE.INTER.ROT>
5

>  <SCORE.INTER.SOLV>
12.5267

>  <SCORE.INTER.VDW>
-23.5112

>  <SCORE.INTER.norm>
-1.90188

>  <SCORE.INTRA>
0.840862

>  <SCORE.INTRA.DIHEDRAL>
-0.849278

>  <SCORE.INTRA.DIHEDRAL.0>
6.87082

>  <SCORE.INTRA.POLAR>
0

>  <SCORE.INTRA.POLAR.0>
0

>  <SCORE.INTRA.REPUL>
0

>  <SCORE.INTRA.REPUL.0>
0

>  <SCORE.INTRA.SOLV>
0.739889

>  <SCORE.INTRA.SOLV.lig_0>
-42.5944

>  <SCORE.INTRA.VDW>
0.895556

>  <SCORE.INTRA.VDW.0>
-1.067

>  <SCORE.INTRA.norm>
0.0525539

>  <SCORE.RESTR>
0.0491902

>  <SCORE.RESTR.CAVITY>
0.0491902

>  <SCORE.RESTR.norm>
0.00307439

>  <SCORE.SYSTEM>
0

>  <SCORE.SYSTEM.CONST>
0

>  <SCORE.SYSTEM.DIHEDRAL>
0

>  <SCORE.SYSTEM.SOLV>
0

>  <SCORE.SYSTEM.norm>
0

>  <SCORE.heavy>
16

>  <SCORE.norm>
-1.84625

>  <RMSD>
2.231

$$$$
1f27 biotin aptamer (Xray 1.3A)
 OpenBabel11021811393D
libRbt.so/2013.1/901 2013/11/27
 16 17  0  0  0  0  0  0  0  0999 V2000
   21.0434   -0.1133   13.4335 C   0  0  0  0  0  0  0  0  0  0  0  0
   20.6925   -0.6102   14.4990 O   0  5  0  0  0  0  0  0  0  0  0  0
   22.0981   -0.4691   12.9105 O   0  0  0  0  0  0  0  0  0  0  0  0
   20.1433    0.8910   12.7251 C   0  0  0  0  0  0  0  0  0  0  0  0
   19.0971    1.5557   13.6473 C   0  0  0  0  0  0  0  0  0  0  0  0
   18.1522    2.4519   12.8683 C   0  0  0  0  0  0  0  0  0  0  0  0
   17.0821    3.0934   13.7268 C   0  0  0  0  0  0  0  0  0  0  0  0
   15.9654    2.1438   14.1801 C   0  0  2  0  0  0  0  0  0  0  0  0
   15.5510    0.7084   12.9827 S   0  0  0  0  0  0  0  0  0  0  0  0
   13.9565    0.4629   14.0038 C   0  0  0  0  0  0  0  0  0  0  0  0
   13.5242    1.8972   14.4271 C   0  0  2  0  0  0  0  0  0  0  0  0
   12.5801    2.3990   13.3019 N   0  0  0  0  0  0  0  0  0  0  0  0
   12.9934    3.4470   12.7327 C   0  0  0  0  0  0  0  0  0  0  0  0
   12.5701    4.0404   11.6779 O   0  0  0  0  0  0  0  0  0  0  0  0
   14.3193    3.8468   13.1445 N   0  0  0  0  0  0  0  0  0  0  0  0
   14.6481    2.9120   14.3082 C   0  0  2  0  0  0  0  0  0  0  0  0
  1  2  1  0  0  0  0
  1  3  2  0  0  0  0
  1  4  1  0  0  0  0
  4  5  1  0  0  0  0
  5  6  1  0  0  0  0
  6  7  1  0  0  0  0
  8  7  1  6  0  0  0
  8  9  1  0  0  0  0
  8 16  1  0  0  0  0
  9 10  1  0  0  0  0
 11 10  1  6  0  0  0
 11 12  1  0  0  0  0
 11 16  1  0  0  0  0
 12 13  1  0  0  0  0
 13 14  2  0  0  0  0
 13 15  1  0  0  0  0
 16 15  1  6  0  0  0
M  CHG  1   2  -1
M  END
>  <CHROM.1>
20.22173859,-174.99812900,178.27391640,-73.85461861,-30.67124265,16.48851830
1.69860242,13.35953285,0.34154200,-0.08720441,2.78886393

>  <Name>
1f27 biotin aptamer (Xray 1.3A)

>  <RI>
0

>  <Rbt.Current_Directory>
/home/itssahil/PROJECTS/Mol_Feturizer/New_Systems/rnas/1f27

>  <Rbt.Executable>
rbdock ($Id: //depot/dev/client3/rdock/2013.1/src/exe/rbdock.cxx#4 $)

>  <Rbt.Library>
libRbt.so (2013.1, Build901 2013/11/27)

>  <Rbt.Parameter_File>
/export/apps/rDock/src/rDock_2013.1_src/data/scripts/dock_solv.prm

>  <Rbt.Receptor>
prm/blind_docking_40.prm

>  <SCORE>
-23.0851

>  <SCORE.INTER>
-22.6521

>  <SCORE.INTER.CONST>
1

>  <SCORE.INTER.POLAR>
-1.24476

>  <SCORE.INTER.ROT>
5

>  <SCORE.INTER.SOLV>
11.866

>  <SCORE.INTER.VDW>
-21.8409

>  <SCORE.INTER.norm>
-1.41576

>  <SCORE.INTRA>
-0.443114

>  <SCORE.INTRA.DIHEDRAL>
-1.87595

>  <SCORE.INTRA.DIHEDRAL.0>
6.87082

>  <SCORE.INTRA.POLAR>
0

>  <SCORE.INTRA.POLAR.0>
0

>  <SCORE.INTRA.REPUL>
0

>  <SCORE.INTRA.REPUL.0>
0

>  <SCORE.INTRA.SOLV>
-0.650483

>  <SCORE.INTRA.SOLV.lig_0>
-42.5944

>  <SCORE.INTRA.VDW>
0.820103

>  <SCORE.INTRA.VDW.0>
-1.067

>  <SCORE.INTRA.norm>
-0.0276946

>  <SCORE.RESTR>
0.0101511

>  <SCORE.RESTR.CAVITY>
0.0101511

>  <SCORE.RESTR.norm>
0.000634443

>  <SCORE.SYSTEM>
0

>  <SCORE.SYSTEM.CONST>
0

>  <SCORE.SYSTEM.DIHEDRAL>
0

>  <SCORE.SYSTEM.SOLV>
0

>  <SCORE.SYSTEM.norm>
0

>  <SCORE.heavy>
16

>  <SCORE.norm>
-1.44282

>  <RMSD>
2.232

$$$$
1f27 biotin aptamer (Xray 1.3A)
 OpenBabel11021811393D
libRbt.so/2013.1/901 2013/11/27
 16 17  0  0  0  0  0  0  0  0999 V2000
   20.4350    0.0830   12.9629 C   0  0  0  0  0  0  0  0  0  0  0  0
   21.2602   -0.4736   13.6801 O   0  5  0  0  0  0  0  0  0  0  0  0
   20.2423   -0.3273   11.8196 O   0  0  0  0  0  0  0  0  0  0  0  0
   19.6018    1.2358   13.5083 C   0  0  0  0  0  0  0  0  0  0  0  0
   18.4683    0.7949   14.4610 C   0  0  0  0  0  0  0  0  0  0  0  0
   17.4100   -0.0155   13.7356 C   0  0  0  0  0  0  0  0  0  0  0  0
   16.4995    0.8229   12.8627 C   0  0  0  0  0  0  0  0  0  0  0  0
   15.5173    1.7179   13.6299 C   0  0  2  0  0  0  0  0  0  0  0  0
   13.9814    0.8393   14.3611 S   0  0  0  0  0  0  0  0  0  0  0  0
   13.2380    2.5807   14.6057 C   0  0  0  0  0  0  0  0  0  0  0  0
   13.7377    3.4073   13.3850 C   0  0  2  0  0  0  0  0  0  0  0  0
   12.6529    3.2321   12.2887 N   0  0  0  0  0  0  0  0  0  0  0  0
   13.0939    2.7095   11.2278 C   0  0  0  0  0  0  0  0  0  0  0  0
   12.4700    2.2736   10.1960 O   0  0  0  0  0  0  0  0  0  0  0  0
   14.4594    2.2489   11.3318 N   0  0  0  0  0  0  0  0  0  0  0  0
   14.9289    2.7717   12.6891 C   0  0  2  0  0  0  0  0  0  0  0  0
  1  2  1  0  0  0  0
  1  3  2  0  0  0  0
  1  4  1  0  0  0  0
  4  5  1  0  0  0  0
  5  6  1  0  0  0  0
  6  7  1  0  0  0  0
  8  7  1  6  0  0  0
  8  9  1  0  0  0  0
  8 16  1  0  0  0  0
  9 10  1  0  0  0  0
 11 10  1  1  0  0  0
 11 12  1  0  0  0  0
 11 16  1  0  0  0  0
 12 13  1  0  0  0  0
 13 14  2  0  0  0  0
 13 15  1  0  0  0  0
 16 15  1  6  0  0  0
M  CHG  1   2  -1
M  END
>  <CHROM.1>
-75.32178604,-66.11579697,-75.05632703,-70.95980318,-77.61206459,15.99499677
1.41747807,13.00181085,-0.16449256,0.32245366,-1.41260647

>  <Name>
1f27 biotin aptamer (Xray 1.3A)

>  <RI>
0

>  <Rbt.Current_Directory>
/home/itssahil/PROJECTS/Mol_Feturizer/New_Systems/rnas/1f27

>  <Rbt.Executable>
rbdock ($Id: //depot/dev/client3/rdock/2013.1/src/exe/rbdock.cxx#4 $)

>  <Rbt.Library>
libRbt.so (2013.1, Build901 2013/11/27)

>  <Rbt.Parameter_File>
/export/apps/rDock/src/rDock_2013.1_src/data/scripts/dock_solv.prm

>  <Rbt.Receptor>
prm/blind_docking_60.prm

>  <SCORE>
-21.3291

>  <SCORE.INTER>
-20.2956

>  <SCORE.INTER.CONST>
1

>  <SCORE.INTER.POLAR>
-0.635473

>  <SCORE.INTER.ROT>
5

>  <SCORE.INTER.SOLV>
12.825

>  <SCORE.INTER.VDW>
-22.6205

>  <SCORE.INTER.norm>
-1.26847

>  <SCORE.INTRA>
-1.03352

>  <SCORE.INTRA.DIHEDRAL>
-2.91925

>  <SCORE.INTRA.DIHEDRAL.0>
6.87082

>  <SCORE.INTRA.POLAR>
0

>  <SCORE.INTRA.POLAR.0>
0

>  <SCORE.INTRA.REPUL>
0

>  <SCORE.INTRA.REPUL.0>
0

>  <SCORE.INTRA.SOLV>
0.406529

>  <SCORE.INTRA.SOLV.lig_0>
-42.5944

>  <SCORE.INTRA.VDW>
0.222837

>  <SCORE.INTRA.VDW.0>
-1.067

>  <SCORE.INTRA.norm>
-0.0645951

>  <SCORE.RESTR>
0

>  <SCORE.RESTR.CAVITY>
0

>  <SCORE.RESTR.norm>
0

>  <SCORE.SYSTEM>
0

>  <SCORE.SYSTEM.CONST>
0

>  <SCORE.SYSTEM.DIHEDRAL>
0

>  <SCORE.SYSTEM.SOLV>
0

>  <SCORE.SYSTEM.norm>
0

>  <SCORE.heavy>
16

>  <SCORE.norm>
-1.33307

>  <RMSD>
2.241

$$$$
1f27 biotin aptamer (Xray 1.3A)
 OpenBabel11021811393D
libRbt.so/2013.1/901 2013/11/27
 16 17  0  0  0  0  0  0  0  0999 V2000
   21.3010    0.6021   14.1880 C   0  0  0  0  0  0  0  0  0  0  0  0
   20.9478   -0.4966   14.6045 O   0  5  0  0  0  0  0  0  0  0  0  0
   22.0779    1.2870   14.8513 O   0  0  0  0  0  0  0  0  0  0  0  0
   20.8337    1.0883   12.8221 C   0  0  0  0  0  0  0  0  0  0  0  0
   19.7260    2.1637   12.8840 C   0  0  0  0  0  0  0  0  0  0  0  0
   18.4907    1.6551   13.6039 C   0  0  0  0  0  0  0  0  0  0  0  0
   17.3595    2.6611   13.6477 C   0  0  0  0  0  0  0  0  0  0  0  0
   16.0266    2.1086   14.1696 C   0  0  2  0  0  0  0  0  0  0  0  0
   15.4222    0.4812   13.3619 S   0  0  0  0  0  0  0  0  0  0  0  0
   13.7257    0.8445   14.1587 C   0  0  0  0  0  0  0  0  0  0  0  0
   13.5779    2.3932   14.1036 C   0  0  2  0  0  0  0  0  0  0  0  0
   12.8725    2.6986   12.7551 N   0  0  0  0  0  0  0  0  0  0  0  0
   13.5538    3.4360   11.9901 C   0  0  0  0  0  0  0  0  0  0  0  0
   13.3680    3.7540   10.7621 O   0  0  0  0  0  0  0  0  0  0  0  0
   14.8914    3.6935   12.4720 N   0  0  0  0  0  0  0  0  0  0  0  0
   14.9013    3.1052   13.8826 C   0  0  2  0  0  0  0  0  0  0  0  0
  1  2  1  0  0  0  0
  1  3  2  0  0  0  0
  1  4  1  0  0  0  0
  4  5  1  0  0  0  0
  5  6  1  0  0  0  0
  6  7  1  0  0  0  0
  8  7  1  6  0  0  0
  8  9  1  0  0  0  0
  8 16  1  0  0  0  0
  9 10  1  0  0  0  0
 11 10  1  6  0  0  0
 11 12  1  0  0  0  0
 11 16  1  0  0  0  0
 12 13  1  0  0  0  0
 13 14  2  0  0  0  0
 13 15  1  0  0  0  0
 16 15  1  6  0  0  0
M  CHG  1   2  -1
M  END
>  <CHROM.1>
104.61762663,-59.37832627,-178.04305104,170.86390881,-50.05750270,16.75168767
1.84851240,13.37652236,0.30876611,0.00197516,2.51229396

>  <Name>
1f27 biotin aptamer (Xray 1.3A)

>  <RI>
0

>  <Rbt.Current_Directory>
/home/itssahil/PROJECTS/Mol_Feturizer/New_Systems/rnas/1f27

>  <Rbt.Executable>
rbdock ($Id: //depot/dev/client3/rdock/2013.1/src/exe/rbdock.cxx#4 $)

>  <Rbt.Library>
libRbt.so (2013.1, Build901 2013/11/27)

>  <Rbt.Parameter_File>
/export/apps/rDock/src/rDock_2013.1_src/data/scripts/dock_solv.prm

>  <Rbt.Receptor>
prm/blind_docking_40.prm

>  <SCORE>
-26.888

>  <SCORE.INTER>
-24.759

>  <SCORE.INTER.CONST>
1

>  <SCORE.INTER.POLAR>
-0.846128

>  <SCORE.INTER.ROT>
5

>  <SCORE.INTER.SOLV>
12.7071

>  <SCORE.INTER.VDW>
-24.8546

>  <SCORE.INTER.norm>
-1.54744

>  <SCORE.INTRA>
-2.13284

>  <SCORE.INTRA.DIHEDRAL>
-4.66373

>  <SCORE.INTRA.DIHEDRAL.0>
6.87082

>  <SCORE.INTRA.POLAR>
0

>  <SCORE.INTRA.POLAR.0>
0

>  <SCORE.INTRA.REPUL>
0

>  <SCORE.INTRA.REPUL.0>
0

>  <SCORE.INTRA.SOLV>
0.126887

>  <SCORE.INTRA.SOLV.lig_0>
-42.5944

>  <SCORE.INTRA.VDW>
0.13558

>  <SCORE.INTRA.VDW.0>
-1.067

>  <SCORE.INTRA.norm>
-0.133303

>  <SCORE.RESTR>
0.00378486

>  <SCORE.RESTR.CAVITY>
0.00378486

>  <SCORE.RESTR.norm>
0.000236554

>  <SCORE.SYSTEM>
0

>  <SCORE.SYSTEM.CONST>
0

>  <SCORE.SYSTEM.DIHEDRAL>
0

>  <SCORE.SYSTEM.SOLV>
0

>  <SCORE.SYSTEM.norm>
0

>  <SCORE.heavy>
16

>  <SCORE.norm>
-1.6805

>  <RMSD>
2.261

$$$$
1f27 biotin aptamer (Xray 1.3A)
 OpenBabel11021811393D
libRbt.so/2013.1/901 2013/11/27
 16 17  0  0  0  0  0  0  0  0999 V2000
   20.5915    0.7772   12.6724 C   0  0  0  0  0  0  0  0  0  0  0  0
   21.7412    1.2053   12.6560 O   0  5  0  0  0  0  0  0  0  0  0  0
   20.3791   -0.3939   12.9823 O   0  0  0  0  0  0  0  0  0  0  0  0
   19.4240    1.7100   12.3769 C   0  0  0  0  0  0  0  0  0  0  0  0
   18.6968    2.2245   13.6392 C   0  0  0  0  0  0  0  0  0  0  0  0
   18.1063    1.0852   14.4493 C   0  0  0  0  0  0  0  0  0  0  0  0
   16.8192    0.5357   13.8707 C   0  0  0  0  0  0  0  0  0  0  0  0
   15.5606    1.3403   14.2213 C   0  0  2  0  0  0  0  0  0  0  0  0
   13.8903    0.5135   13.7827 S   0  0  0  0  0  0  0  0  0  0  0  0
   13.0951    2.2271   14.0587 C   0  0  0  0  0  0  0  0  0  0  0  0
   14.1522    3.2491   13.5476 C   0  0  2  0  0  0  0  0  0  0  0  0
   13.8248    3.4749   12.0472 N   0  0  0  0  0  0  0  0  0  0  0  0
   14.7751    3.1663   11.2760 C   0  0  0  0  0  0  0  0  0  0  0  0
   14.8082    3.0678    9.9981 O   0  0  0  0  0  0  0  0  0  0  0  0
   15.8831    2.5267   11.9474 N   0  0  0  0  0  0  0  0  0  0  0  0
   15.5439    2.6515   13.4325 C   0  0  2  0  0  0  0  0  0  0  0  0
  1  2  1  0  0  0  0
  1  3  2  0  0  0  0
  1  4  1  0  0  0  0
  4  5  1  0  0  0  0
  5  6  1  0  0  0  0
  6  7  1  0  0  0  0
  8  7  1  6  0  0  0
  8  9  1  0  0  0  0
  8 16  1  0  0  0  0
  9 10  1  0  0  0  0
 11 10  1  6  0  0  0
 11 12  1  0  0  0  0
 11 16  1  0  0  0  0
 12 13  1  0  0  0  0
 13 14  2  0  0  0  0
 13 15  1  0  0  0  0
 16 15  1  6  0  0  0
M  CHG  1   2  -1
M  END
>  <CHROM.1>
-99.61343243,-60.73344538,-77.78007521,-81.71084532,-169.31987591,16.54056745
1.72381000,12.96707150,-0.15531548,0.16468052,-0.90710335

>  <Name>
1f27 biotin aptamer (Xray 1.3A)

>  <RI>
0

>  <Rbt.Current_Directory>
/home/itssahil/PROJECTS/Mol_Feturizer/New_Systems/rnas/1f27

>  <Rbt.Executable>
rbdock ($Id: //depot/dev/client3/rdock/2013.1/src/exe/rbdock.cxx#4 $)

>  <Rbt.Library>
libRbt.so (2013.1, Build901 2013/11/27)

>  <Rbt.Parameter_File>
/export/apps/rDock/src/rDock_2013.1_src/data/scripts/dock_solv.prm

>  <Rbt.Receptor>
prm/blind_docking_100.prm

>  <SCORE>
-28.4819

>  <SCORE.INTER>
-28.2938

>  <SCORE.INTER.CONST>
1

>  <SCORE.INTER.POLAR>
-1.6808

>  <SCORE.INTER.ROT>
5

>  <SCORE.INTER.SOLV>
15.4922

>  <SCORE.INTER.VDW>
-25.3572

>  <SCORE.INTER.norm>
-1.76836

>  <SCORE.INTRA>
-0.290734

>  <SCORE.INTRA.DIHEDRAL>
-2.12836

>  <SCORE.INTRA.DIHEDRAL.0>
6.87082

>  <SCORE.INTRA.POLAR>
0

>  <SCORE.INTRA.POLAR.0>
0

>  <SCORE.INTRA.REPUL>
0

>  <SCORE.INTRA.REPUL.0>
0

>  <SCORE.INTRA.SOLV>
1.17245

>  <SCORE.INTRA.SOLV.lig_0>
-42.5944

>  <SCORE.INTRA.VDW>
0.187226

>  <SCORE.INTRA.VDW.0>
-1.067

>  <SCORE.INTRA.norm>
-0.0181708

>  <SCORE.RESTR>
0.102612

>  <SCORE.RESTR.CAVITY>
0.102612

>  <SCORE.RESTR.norm>
0.00641322

>  <SCORE.SYSTEM>
0

>  <SCORE.SYSTEM.CONST>
0

>  <SCORE.SYSTEM.DIHEDRAL>
0

>  <SCORE.SYSTEM.SOLV>
0

>  <SCORE.SYSTEM.norm>
0

>  <SCORE.heavy>
16

>  <SCORE.norm>
-1.78012

>  <RMSD>
2.265

$$$$
1f27 biotin aptamer (Xray 1.3A)
 OpenBabel11021811393D
libRbt.so/2013.1/901 2013/11/27
 16 17  0  0  0  0  0  0  0  0999 V2000
   21.4615    0.7339   14.3494 C   0  0  0  0  0  0  0  0  0  0  0  0
   21.2146   -0.3200   14.9271 O   0  5  0  0  0  0  0  0  0  0  0  0
   22.2188    1.5527   14.8677 O   0  0  0  0  0  0  0  0  0  0  0  0
   20.8871    0.9990   12.9637 C   0  0  0  0  0  0  0  0  0  0  0  0
   19.7672    2.0632   12.9418 C   0  0  0  0  0  0  0  0  0  0  0  0
   18.5592    1.6222   13.7475 C   0  0  0  0  0  0  0  0  0  0  0  0
   17.4107    2.6085   13.7040 C   0  0  0  0  0  0  0  0  0  0  0  0
   16.0716    2.0602   14.2143 C   0  0  2  0  0  0  0  0  0  0  0  0
   15.4542    0.4513   13.3801 S   0  0  0  0  0  0  0  0  0  0  0  0
   13.7593    0.8177   14.1787 C   0  0  0  0  0  0  0  0  0  0  0  0
   13.6259    2.3684   14.1475 C   0  0  2  0  0  0  0  0  0  0  0  0
   12.9264    2.7013   12.8025 N   0  0  0  0  0  0  0  0  0  0  0  0
   13.6162    3.4442   12.0505 C   0  0  0  0  0  0  0  0  0  0  0  0
   13.4361    3.7830   10.8272 O   0  0  0  0  0  0  0  0  0  0  0  0
   14.9549    3.6818   12.5393 N   0  0  0  0  0  0  0  0  0  0  0  0
   14.9562    3.0715   13.9406 C   0  0  2  0  0  0  0  0  0  0  0  0
  1  2  1  0  0  0  0
  1  3  2  0  0  0  0
  1  4  1  0  0  0  0
  4  5  1  0  0  0  0
  5  6  1  0  0  0  0
  6  7  1  0  0  0  0
  8  7  1  6  0  0  0
  8  9  1  0  0  0  0
  8 16  1  0  0  0  0
  9 10  1  0  0  0  0
 11 10  1  6  0  0  0
 11 12  1  0  0  0  0
 11 16  1  0  0  0  0
 12 13  1  0  0  0  0
 13 14  2  0  0  0  0
 13 15  1  0  0  0  0
 16 15  1  6  0  0  0
M  CHG  1   2  -1
M  END
>  <CHROM.1>
108.33304899,-63.16816071,-177.44725796,166.03987116,-54.55746815,16.82767353
1.85884377,13.45554130,-0.30051401,-0.02323788,-0.62517535

>  <Name>
1f27 biotin aptamer (Xray 1.3A)

>  <RI>
0

>  <Rbt.Current_Directory>
/home/itssahil/PROJECTS/Mol_Feturizer/New_Systems/rnas/1f27

>  <Rbt.Executable>
rbdock ($Id: //depot/dev/client3/rdock/2013.1/src/exe/rbdock.cxx#4 $)

>  <Rbt.Library>
libRbt.so (2013.1, Build901 2013/11/27)

>  <Rbt.Parameter_File>
/export/apps/rDock/src/rDock_2013.1_src/data/scripts/dock_solv.prm

>  <Rbt.Receptor>
prm/blind_docking_60.prm

>  <SCORE>
-27.2627

>  <SCORE.INTER>
-25.1233

>  <SCORE.INTER.CONST>
1

>  <SCORE.INTER.POLAR>
-0.848528

>  <SCORE.INTER.ROT>
5

>  <SCORE.INTER.SOLV>
14.083

>  <SCORE.INTER.VDW>
-25.5481

>  <SCORE.INTER.norm>
-1.57021

>  <SCORE.INTRA>
-2.15672

>  <SCORE.INTRA.DIHEDRAL>
-4.46767

>  <SCORE.INTRA.DIHEDRAL.0>
6.87082

>  <SCORE.INTRA.POLAR>
0

>  <SCORE.INTRA.POLAR.0>
0

>  <SCORE.INTRA.REPUL>
0

>  <SCORE.INTRA.REPUL.0>
0

>  <SCORE.INTRA.SOLV>
0.0740383

>  <SCORE.INTRA.SOLV.lig_0>
-42.5944

>  <SCORE.INTRA.VDW>
0.0400915

>  <SCORE.INTRA.VDW.0>
-1.067

>  <SCORE.INTRA.norm>
-0.134795

>  <SCORE.RESTR>
0.0173279

>  <SCORE.RESTR.CAVITY>
0.0173279

>  <SCORE.RESTR.norm>
0.001083

>  <SCORE.SYSTEM>
0

>  <SCORE.SYSTEM.CONST>
0

>  <SCORE.SYSTEM.DIHEDRAL>
0

>  <SCORE.SYSTEM.SOLV>
0

>  <SCORE.SYSTEM.norm>
0

>  <SCORE.heavy>
16

>  <SCORE.norm>
-1.70392

>  <RMSD>
2.278

$$$$
1f27 biotin aptamer (Xray 1.3A)
 OpenBabel11021811393D
libRbt.so/2013.1/901 2013/11/27
 16 17  0  0  0  0  0  0  0  0999 V2000
   19.4270    0.0418   14.6549 C   0  0  0  0  0  0  0  0  0  0  0  0
   18.4369   -0.6388   14.4062 O   0  5  0  0  0  0  0  0  0  0  0  0
   20.4675   -0.5026   15.0203 O   0  0  0  0  0  0  0  0  0  0  0  0
   19.3897    1.5503   14.4465 C   0  0  0  0  0  0  0  0  0  0  0  0
   19.7692    1.9957   13.0166 C   0  0  0  0  0  0  0  0  0  0  0  0
   18.6472    1.7293   12.0302 C   0  0  0  0  0  0  0  0  0  0  0  0
   17.4887    2.6966   12.1568 C   0  0  0  0  0  0  0  0  0  0  0  0
   16.4681    2.3396   13.2454 C   0  0  2  0  0  0  0  0  0  0  0  0
   15.7103    0.5846   13.1381 S   0  0  0  0  0  0  0  0  0  0  0  0
   14.3962    1.1953   14.3812 C   0  0  0  0  0  0  0  0  0  0  0  0
   14.1477    2.6854   14.0054 C   0  0  2  0  0  0  0  0  0  0  0  0
   12.9875    2.6691   12.9745 N   0  0  0  0  0  0  0  0  0  0  0  0
   13.3030    3.1674   11.8585 C   0  0  0  0  0  0  0  0  0  0  0  0
   12.6691    3.1750   10.7441 O   0  0  0  0  0  0  0  0  0  0  0  0
   14.7067    3.4895   11.7428 N   0  0  0  0  0  0  0  0  0  0  0  0
   15.2584    3.2722   13.1516 C   0  0  2  0  0  0  0  0  0  0  0  0
  1  2  1  0  0  0  0
  1  3  2  0  0  0  0
  1  4  1  0  0  0  0
  4  5  1  0  0  0  0
  5  6  1  0  0  0  0
  6  7  1  0  0  0  0
  8  7  1  6  0  0  0
  8  9  1  0  0  0  0
  8 16  1  0  0  0  0
  9 10  1  0  0  0  0
 11 10  1  6  0  0  0
 11 12  1  0  0  0  0
 11 16  1  0  0  0  0
 12 13  1  0  0  0  0
 13 14  2  0  0  0  0
 13 15  1  0  0  0  0
 16 15  1  6  0  0  0
M  CHG  1   2  -1
M  END
>  <CHROM.1>
-87.58239424,75.20731670,74.44286466,-83.38252593,-54.80910252,16.40995475
1.72135026,13.17324087,0.48727507,-0.04186399,2.38883654

>  <Name>
1f27 biotin aptamer (Xray 1.3A)

>  <RI>
0

>  <Rbt.Current_Directory>
/home/itssahil/PROJECTS/Mol_Feturizer/New_Systems/rnas/1f27

>  <Rbt.Executable>
rbdock ($Id: //depot/dev/client3/rdock/2013.1/src/exe/rbdock.cxx#4 $)

>  <Rbt.Library>
libRbt.so (2013.1, Build901 2013/11/27)

>  <Rbt.Parameter_File>
/export/apps/rDock/src/rDock_2013.1_src/data/scripts/dock_solv.prm

>  <Rbt.Receptor>
prm/blind_docking_100.prm

>  <SCORE>
-23.3272

>  <SCORE.INTER>
-22.788

>  <SCORE.INTER.CONST>
1

>  <SCORE.INTER.POLAR>
-0.405085

>  <SCORE.INTER.ROT>
5

>  <SCORE.INTER.SOLV>
9.2196

>  <SCORE.INTER.VDW>
-23.8483

>  <SCORE.INTER.norm>
-1.42425

>  <SCORE.INTRA>
-0.539156

>  <SCORE.INTRA.DIHEDRAL>
-1.83552

>  <SCORE.INTRA.DIHEDRAL.0>
6.87082

>  <SCORE.INTRA.POLAR>
0

>  <SCORE.INTRA.POLAR.0>
0

>  <SCORE.INTRA.REPUL>
0

>  <SCORE.INTRA.REPUL.0>
0

>  <SCORE.INTRA.SOLV>
1.61397

>  <SCORE.INTRA.SOLV.lig_0>
-42.5944

>  <SCORE.INTRA.VDW>
-0.428382

>  <SCORE.INTRA.VDW.0>
-1.067

>  <SCORE.INTRA.norm>
-0.0336972

>  <SCORE.RESTR>
0

>  <SCORE.RESTR.CAVITY>
0

>  <SCORE.RESTR.norm>
0

>  <SCORE.SYSTEM>
0

>  <SCORE.SYSTEM.CONST>
0

>  <SCORE.SYSTEM.DIHEDRAL>
0

>  <SCORE.SYSTEM.SOLV>
0

>  <SCORE.SYSTEM.norm>
0

>  <SCORE.heavy>
16

>  <SCORE.norm>
-1.45795

>  <RMSD>
2.325

$$$$
1f27 biotin aptamer (Xray 1.3A)
 OpenBabel11021811393D
libRbt.so/2013.1/901 2013/11/27
 16 17  0  0  0  0  0  0  0  0999 V2000
   20.8760    0.2574   12.9850 C   0  0  0  0  0  0  0  0  0  0  0  0
   21.7658   -0.3346   12.3824 O   0  5  0  0  0  0  0  0  0  0  0  0
   21.1656    1.1393   13.7917 O   0  0  0  0  0  0  0  0  0  0  0  0
   19.4144   -0.0503   12.6857 C   0  0  0  0  0  0  0  0  0  0  0  0
   18.5153   -0.1068   13.9408 C   0  0  0  0  0  0  0  0  0  0  0  0
   17.0786   -0.4434   13.5864 C   0  0  0  0  0  0  0  0  0  0  0  0
   16.3865    0.6352   12.7793 C   0  0  0  0  0  0  0  0  0  0  0  0
   15.5122    1.5922   13.6002 C   0  0  2  0  0  0  0  0  0  0  0  0
   13.9296    0.8321   14.3641 S   0  0  0  0  0  0  0  0  0  0  0  0
   13.3505    2.6247   14.6739 C   0  0  0  0  0  0  0  0  0  0  0  0
   13.8808    3.4359   13.4557 C   0  0  2  0  0  0  0  0  0  0  0  0
   12.7498    3.3841   12.3940 N   0  0  0  0  0  0  0  0  0  0  0  0
   13.1084    2.8525   11.3068 C   0  0  0  0  0  0  0  0  0  0  0  0
   12.4154    2.4993   10.2876 O   0  0  0  0  0  0  0  0  0  0  0  0
   14.4308    2.2723   11.3529 N   0  0  0  0  0  0  0  0  0  0  0  0
   14.9883    2.7172   12.7047 C   0  0  2  0  0  0  0  0  0  0  0  0
  1  2  1  0  0  0  0
  1  3  2  0  0  0  0
  1  4  1  0  0  0  0
  4  5  1  0  0  0  0
  5  6  1  0  0  0  0
  6  7  1  0  0  0  0
  8  7  1  6  0  0  0
  8  9  1  0  0  0  0
  8 16  1  0  0  0  0
  9 10  1  0  0  0  0
 11 10  1  1  0  0  0
 11 12  1  0  0  0  0
 11 16  1  0  0  0  0
 12 13  1  0  0  0  0
 13 14  2  0  0  0  0
 13 15  1  0  0  0  0
 16 15  1  6  0  0  0
M  CHG  1   2  -1
M  END
>  <CHROM.1>
139.33922892,-178.86417357,-66.45370271,-97.50270424,-68.38159463,16.08841145
1.39651391,12.98154362,-0.18184213,0.27974899,-1.23161417

>  <Name>
1f27 biotin aptamer (Xray 1.3A)

>  <RI>
0

>  <Rbt.Current_Directory>
/home/itssahil/PROJECTS/Mol_Feturizer/New_Systems/rnas/1f27

>  <Rbt.Executable>
rbdock ($Id: //depot/dev/client3/rdock/2013.1/src/exe/rbdock.cxx#4 $)

>  <Rbt.Library>
libRbt.so (2013.1, Build901 2013/11/27)

>  <Rbt.Parameter_File>
/export/apps/rDock/src/rDock_2013.1_src/data/scripts/dock_solv.prm

>  <Rbt.Receptor>
prm/pocket_docking_6.prm

>  <SCORE>
-23.9503

>  <SCORE.INTER>
-23.7662

>  <SCORE.INTER.CONST>
1

>  <SCORE.INTER.POLAR>
-1.57072

>  <SCORE.INTER.ROT>
5

>  <SCORE.INTER.SOLV>
15.0412

>  <SCORE.INTER.VDW>
-22.5555

>  <SCORE.INTER.norm>
-1.48539

>  <SCORE.INTRA>
-0.184051

>  <SCORE.INTRA.DIHEDRAL>
-0.914339

>  <SCORE.INTRA.DIHEDRAL.0>
6.87082

>  <SCORE.INTRA.POLAR>
0

>  <SCORE.INTRA.POLAR.0>
0

>  <SCORE.INTRA.REPUL>
0

>  <SCORE.INTRA.REPUL.0>
0

>  <SCORE.INTRA.SOLV>
-0.827586

>  <SCORE.INTRA.SOLV.lig_0>
-42.5944

>  <SCORE.INTRA.VDW>
0.686912

>  <SCORE.INTRA.VDW.0>
-1.067

>  <SCORE.INTRA.norm>
-0.0115032

>  <SCORE.RESTR>
0

>  <SCORE.RESTR.CAVITY>
0

>  <SCORE.RESTR.norm>
0

>  <SCORE.SYSTEM>
0

>  <SCORE.SYSTEM.CONST>
0

>  <SCORE.SYSTEM.DIHEDRAL>
0

>  <SCORE.SYSTEM.SOLV>
0

>  <SCORE.SYSTEM.norm>
0

>  <SCORE.heavy>
16

>  <SCORE.norm>
-1.49689

>  <RMSD>
2.359

$$$$
1f27 biotin aptamer (Xray 1.3A)
 OpenBabel11021811393D
libRbt.so/2013.1/901 2013/11/27
 16 17  0  0  0  0  0  0  0  0999 V2000
   21.5965    0.4469   13.9603 C   0  0  0  0  0  0  0  0  0  0  0  0
   21.9955   -0.6117   13.4854 O   0  5  0  0  0  0  0  0  0  0  0  0
   22.0106    0.8202   15.0565 O   0  0  0  0  0  0  0  0  0  0  0  0
   20.6439    1.3306   13.1652 C   0  0  0  0  0  0  0  0  0  0  0  0
   19.3600    1.7183   13.9322 C   0  0  0  0  0  0  0  0  0  0  0  0
   18.3878    2.4788   13.0494 C   0  0  0  0  0  0  0  0  0  0  0  0
   17.2240    3.0798   13.8097 C   0  0  0  0  0  0  0  0  0  0  0  0
   16.1385    2.0773   14.2229 C   0  0  2  0  0  0  0  0  0  0  0  0
   15.7857    0.6662   12.9778 S   0  0  0  0  0  0  0  0  0  0  0  0
   14.1928    0.3323   13.9757 C   0  0  0  0  0  0  0  0  0  0  0  0
   13.7058    1.7363   14.4392 C   0  0  2  0  0  0  0  0  0  0  0  0
   12.7536    2.2390   13.3213 N   0  0  0  0  0  0  0  0  0  0  0  0
   13.1336    3.3184   12.7886 C   0  0  0  0  0  0  0  0  0  0  0  0
   12.6980    3.9290   11.7488 O   0  0  0  0  0  0  0  0  0  0  0  0
   14.4409    3.7521   13.2250 N   0  0  0  0  0  0  0  0  0  0  0  0
   14.7934    2.7937   14.3623 C   0  0  2  0  0  0  0  0  0  0  0  0
  1  2  1  0  0  0  0
  1  3  2  0  0  0  0
  1  4  1  0  0  0  0
  4  5  1  0  0  0  0
  5  6  1  0  0  0  0
  6  7  1  0  0  0  0
  8  7  1  6  0  0  0
  8  9  1  0  0  0  0
  8 16  1  0  0  0  0
  9 10  1  0  0  0  0
 11 10  1  6  0  0  0
 11 12  1  0  0  0  0
 11 16  1  0  0  0  0
 12 13  1  0  0  0  0
 13 14  2  0  0  0  0
 13 15  1  0  0  0  0
 16 15  1  6  0  0  0
M  CHG  1   2  -1
M  END
>  <CHROM.1>
126.94399538,-174.28153283,-170.33338074,-76.21728962,-36.00092205,16.76637535
1.78547575,13.53418802,0.27034485,0.05243976,2.95101344

>  <Name>
1f27 biotin aptamer (Xray 1.3A)

>  <RI>
0

>  <Rbt.Current_Directory>
/home/itssahil/PROJECTS/Mol_Feturizer/New_Systems/rnas/1f27

>  <Rbt.Executable>
rbdock ($Id: //depot/dev/client3/rdock/2013.1/src/exe/rbdock.cxx#4 $)

>  <Rbt.Library>
libRbt.so (2013.1, Build901 2013/11/27)

>  <Rbt.Parameter_File>
/export/apps/rDock/src/rDock_2013.1_src/data/scripts/dock_solv.prm

>  <Rbt.Receptor>
prm/blind_docking_40.prm

>  <SCORE>
-22.9842

>  <SCORE.INTER>
-21.9801

>  <SCORE.INTER.CONST>
1

>  <SCORE.INTER.POLAR>
-1.0154

>  <SCORE.INTER.ROT>
5

>  <SCORE.INTER.SOLV>
14.6889

>  <SCORE.INTER.VDW>
-23.0984

>  <SCORE.INTER.norm>
-1.37376

>  <SCORE.INTRA>
-1.01576

>  <SCORE.INTRA.DIHEDRAL>
-1.95225

>  <SCORE.INTRA.DIHEDRAL.0>
6.87082

>  <SCORE.INTRA.POLAR>
0

>  <SCORE.INTRA.POLAR.0>
0

>  <SCORE.INTRA.REPUL>
0

>  <SCORE.INTRA.REPUL.0>
0

>  <SCORE.INTRA.SOLV>
-0.764792

>  <SCORE.INTRA.SOLV.lig_0>
-42.5944

>  <SCORE.INTRA.VDW>
0.34276

>  <SCORE.INTRA.VDW.0>
-1.067

>  <SCORE.INTRA.norm>
-0.0634851

>  <SCORE.RESTR>
0.0117405

>  <SCORE.RESTR.CAVITY>
0.0117405

>  <SCORE.RESTR.norm>
0.000733781

>  <SCORE.SYSTEM>
0

>  <SCORE.SYSTEM.CONST>
0

>  <SCORE.SYSTEM.DIHEDRAL>
0

>  <SCORE.SYSTEM.SOLV>
0

>  <SCORE.SYSTEM.norm>
0

>  <SCORE.heavy>
16

>  <SCORE.norm>
-1.43651

>  <RMSD>
2.376

$$$$
1f27 biotin aptamer (Xray 1.3A)
 OpenBabel11021811393D
libRbt.so/2013.1/901 2013/11/27
 16 17  0  0  0  0  0  0  0  0999 V2000
   20.8350    0.4673   12.9183 C   0  0  0  0  0  0  0  0  0  0  0  0
   21.1105    1.3829   13.6873 O   0  5  0  0  0  0  0  0  0  0  0  0
   21.7360   -0.2064   12.4217 O   0  0  0  0  0  0  0  0  0  0  0  0
   19.3794    0.1210   12.6323 C   0  0  0  0  0  0  0  0  0  0  0  0
   18.5181   -0.0669   13.9011 C   0  0  0  0  0  0  0  0  0  0  0  0
   17.0919   -0.4555   13.5578 C   0  0  0  0  0  0  0  0  0  0  0  0
   16.3472    0.6071   12.7768 C   0  0  0  0  0  0  0  0  0  0  0  0
   15.4652    1.5312   13.6267 C   0  0  2  0  0  0  0  0  0  0  0  0
   13.8697    0.7452   14.3355 S   0  0  0  0  0  0  0  0  0  0  0  0
   13.2928    2.5251   14.7152 C   0  0  0  0  0  0  0  0  0  0  0  0
   13.8425    3.3861   13.5406 C   0  0  2  0  0  0  0  0  0  0  0  0
   12.7258    3.3852   12.4626 N   0  0  0  0  0  0  0  0  0  0  0  0
   13.0973    2.8999   11.3582 C   0  0  0  0  0  0  0  0  0  0  0  0
   12.4170    2.5941   10.3154 O   0  0  0  0  0  0  0  0  0  0  0  0
   14.4169    2.3127   11.3968 N   0  0  0  0  0  0  0  0  0  0  0  0
   14.9575    2.6962   12.7740 C   0  0  2  0  0  0  0  0  0  0  0  0
  1  2  1  0  0  0  0
  1  3  2  0  0  0  0
  1  4  1  0  0  0  0
  4  5  1  0  0  0  0
  5  6  1  0  0  0  0
  6  7  1  0  0  0  0
  8  7  1  6  0  0  0
  8  9  1  0  0  0  0
  8 16  1  0  0  0  0
  9 10  1  0  0  0  0
 11 10  1  1  0  0  0
 11 12  1  0  0  0  0
 11 16  1  0  0  0  0
 12 13  1  0  0  0  0
 13 14  2  0  0  0  0
 13 15  1  0  0  0  0
 16 15  1  6  0  0  0
M  CHG  1   2  -1
M  END
>  <CHROM.1>
-50.51861277,-178.08079140,-63.35329361,-96.43227401,-71.99393679,16.05727574
1.42820346,12.98633343,-0.18561371,0.24888044,-1.14689649

>  <Name>
1f27 biotin aptamer (Xray 1.3A)

>  <RI>
0

>  <Rbt.Current_Directory>
/home/itssahil/PROJECTS/Mol_Feturizer/New_Systems/rnas/1f27

>  <Rbt.Executable>
rbdock ($Id: //depot/dev/client3/rdock/2013.1/src/exe/rbdock.cxx#4 $)

>  <Rbt.Library>
libRbt.so (2013.1, Build901 2013/11/27)

>  <Rbt.Parameter_File>
/export/apps/rDock/src/rDock_2013.1_src/data/scripts/dock_solv.prm

>  <Rbt.Receptor>
prm/blind_docking_40.prm

>  <SCORE>
-23.9513

>  <SCORE.INTER>
-23.8512

>  <SCORE.INTER.CONST>
1

>  <SCORE.INTER.POLAR>
-1.50344

>  <SCORE.INTER.ROT>
5

>  <SCORE.INTER.SOLV>
15.5823

>  <SCORE.INTER.VDW>
-23.0167

>  <SCORE.INTER.norm>
-1.4907

>  <SCORE.INTRA>
-0.100175

>  <SCORE.INTRA.DIHEDRAL>
-0.786539

>  <SCORE.INTRA.DIHEDRAL.0>
6.87082

>  <SCORE.INTRA.POLAR>
0

>  <SCORE.INTRA.POLAR.0>
0

>  <SCORE.INTRA.REPUL>
0

>  <SCORE.INTRA.REPUL.0>
0

>  <SCORE.INTRA.SOLV>
-0.832121

>  <SCORE.INTRA.SOLV.lig_0>
-42.5944

>  <SCORE.INTRA.VDW>
0.709156

>  <SCORE.INTRA.VDW.0>
-1.067

>  <SCORE.INTRA.norm>
-0.00626091

>  <SCORE.RESTR>
0

>  <SCORE.RESTR.CAVITY>
0

>  <SCORE.RESTR.norm>
0

>  <SCORE.SYSTEM>
0

>  <SCORE.SYSTEM.CONST>
0

>  <SCORE.SYSTEM.DIHEDRAL>
0

>  <SCORE.SYSTEM.SOLV>
0

>  <SCORE.SYSTEM.norm>
0

>  <SCORE.heavy>
16

>  <SCORE.norm>
-1.49696

>  <RMSD>
2.384

$$$$
1f27 biotin aptamer (Xray 1.3A)
 OpenBabel11021811393D
libRbt.so/2013.1/901 2013/11/27
 16 17  0  0  0  0  0  0  0  0999 V2000
   20.6325    1.3159   13.0681 C   0  0  0  0  0  0  0  0  0  0  0  0
   20.3968    2.1208   12.1726 O   0  5  0  0  0  0  0  0  0  0  0  0
   21.6472    0.6229   13.0163 O   0  0  0  0  0  0  0  0  0  0  0  0
   19.7079    1.2226   14.2751 C   0  0  0  0  0  0  0  0  0  0  0  0
   18.6306    0.1216   14.1567 C   0  0  0  0  0  0  0  0  0  0  0  0
   17.8520    0.2365   12.8591 C   0  0  0  0  0  0  0  0  0  0  0  0
   17.0496    1.5160   12.7469 C   0  0  0  0  0  0  0  0  0  0  0  0
   15.9145    1.6557   13.7697 C   0  0  2  0  0  0  0  0  0  0  0  0
   14.5472    0.3179   13.6896 S   0  0  0  0  0  0  0  0  0  0  0  0
   13.5054    1.4729   14.7967 C   0  0  0  0  0  0  0  0  0  0  0  0
   13.8688    2.9131   14.3311 C   0  0  2  0  0  0  0  0  0  0  0  0
   12.8473    3.2627   13.2160 N   0  0  0  0  0  0  0  0  0  0  0  0
   13.3882    3.5192   12.1048 C   0  0  0  0  0  0  0  0  0  0  0  0
   12.8655    3.6844   10.9459 O   0  0  0  0  0  0  0  0  0  0  0  0
   14.8119    3.2739   12.0821 N   0  0  0  0  0  0  0  0  0  0  0  0
   15.1629    2.9685   13.5379 C   0  0  2  0  0  0  0  0  0  0  0  0
  1  2  1  0  0  0  0
  1  3  2  0  0  0  0
  1  4  1  0  0  0  0
  4  5  1  0  0  0  0
  5  6  1  0  0  0  0
  6  7  1  0  0  0  0
  8  7  1  6  0  0  0
  8  9  1  0  0  0  0
  8 16  1  0  0  0  0
  9 10  1  0  0  0  0
 11 10  1  6  0  0  0
 11 12  1  0  0  0  0
 11 16  1  0  0  0  0
 12 13  1  0  0  0  0
 13 14  2  0  0  0  0
 13 15  1  0  0  0  0
 16 15  1  6  0  0  0
M  CHG  1   2  -1
M  END
>  <CHROM.1>
95.35652929,-52.18056215,-63.93500738,-65.05623326,-61.30115292,16.31831482
1.77371332,13.17780559,-0.20937608,0.14285602,-0.73279553

>  <Name>
1f27 biotin aptamer (Xray 1.3A)

>  <RI>
0

>  <Rbt.Current_Directory>
/home/itssahil/PROJECTS/Mol_Feturizer/New_Systems/rnas/1f27

>  <Rbt.Executable>
rbdock ($Id: //depot/dev/client3/rdock/2013.1/src/exe/rbdock.cxx#4 $)

>  <Rbt.Library>
libRbt.so (2013.1, Build901 2013/11/27)

>  <Rbt.Parameter_File>
/export/apps/rDock/src/rDock_2013.1_src/data/scripts/dock_solv.prm

>  <Rbt.Receptor>
prm/blind_docking_100.prm

>  <SCORE>
-22.3498

>  <SCORE.INTER>
-21.0146

>  <SCORE.INTER.CONST>
1

>  <SCORE.INTER.POLAR>
-0.286477

>  <SCORE.INTER.ROT>
5

>  <SCORE.INTER.SOLV>
16.2388

>  <SCORE.INTER.VDW>
-25.4011

>  <SCORE.INTER.norm>
-1.31341

>  <SCORE.INTRA>
-1.3474

>  <SCORE.INTRA.DIHEDRAL>
-5.00294

>  <SCORE.INTRA.DIHEDRAL.0>
6.87082

>  <SCORE.INTRA.POLAR>
0

>  <SCORE.INTRA.POLAR.0>
0

>  <SCORE.INTRA.REPUL>
0

>  <SCORE.INTRA.REPUL.0>
0

>  <SCORE.INTRA.SOLV>
0.868251

>  <SCORE.INTRA.SOLV.lig_0>
-42.5944

>  <SCORE.INTRA.VDW>
0.719949

>  <SCORE.INTRA.VDW.0>
-1.067

>  <SCORE.INTRA.norm>
-0.0842123

>  <SCORE.RESTR>
0.0122012

>  <SCORE.RESTR.CAVITY>
0.0122012

>  <SCORE.RESTR.norm>
0.000762575

>  <SCORE.SYSTEM>
0

>  <SCORE.SYSTEM.CONST>
0

>  <SCORE.SYSTEM.DIHEDRAL>
0

>  <SCORE.SYSTEM.SOLV>
0

>  <SCORE.SYSTEM.norm>
0

>  <SCORE.heavy>
16

>  <SCORE.norm>
-1.39686

>  <RMSD>
2.406

$$$$
1f27 biotin aptamer (Xray 1.3A)
 OpenBabel11021811393D
libRbt.so/2013.1/901 2013/11/27
 16 17  0  0  0  0  0  0  0  0999 V2000
   21.1569   -1.5551   16.2385 C   0  0  0  0  0  0  0  0  0  0  0  0
   21.0605   -1.2088   17.4116 O   0  5  0  0  0  0  0  0  0  0  0  0
   21.9225   -0.9564   15.4849 O   0  0  0  0  0  0  0  0  0  0  0  0
   20.3830   -2.7657   15.7327 C   0  0  0  0  0  0  0  0  0  0  0  0
   18.9689   -2.4318   15.2074 C   0  0  0  0  0  0  0  0  0  0  0  0
   19.0237   -1.6638   13.8997 C   0  0  0  0  0  0  0  0  0  0  0  0
   17.6578   -1.3438   13.3290 C   0  0  0  0  0  0  0  0  0  0  0  0
   16.8602   -0.2963   14.1170 C   0  0  2  0  0  0  0  0  0  0  0  0
   15.0545   -0.0163   13.5454 S   0  0  0  0  0  0  0  0  0  0  0  0
   15.0818    1.5724   14.6038 C   0  0  0  0  0  0  0  0  0  0  0  0
   16.5316    2.1224   14.4679 C   0  0  2  0  0  0  0  0  0  0  0  0
   16.5025    3.0822   13.2484 N   0  0  0  0  0  0  0  0  0  0  0  0
   17.2924    2.7414   12.3248 C   0  0  0  0  0  0  0  0  0  0  0  0
   17.4152    3.1905   11.1302 O   0  0  0  0  0  0  0  0  0  0  0  0
   17.9200    1.4582   12.5418 N   0  0  0  0  0  0  0  0  0  0  0  0
   17.5145    1.0789   13.9658 C   0  0  2  0  0  0  0  0  0  0  0  0
  1  2  1  0  0  0  0
  1  3  2  0  0  0  0
  1  4  1  0  0  0  0
  4  5  1  0  0  0  0
  5  6  1  0  0  0  0
  6  7  1  0  0  0  0
  8  7  1  6  0  0  0
  8  9  1  0  0  0  0
  8 16  1  0  0  0  0
  9 10  1  0  0  0  0
 11 10  1  6  0  0  0
 11 12  1  0  0  0  0
 11 16  1  0  0  0  0
 12 13  1  0  0  0  0
 13 14  2  0  0  0  0
 13 15  1  0  0  0  0
 16 15  1  6  0  0  0
M  CHG  1   2  -1
M  END
>  <CHROM.1>
89.15068620,70.43243216,178.58424109,70.10533724,-173.13409997,17.95470497
0.17867795,14.15111283,-0.80155428,-0.16938850,-0.51252082

>  <Name>
1f27 biotin aptamer (Xray 1.3A)

>  <RI>
0

>  <Rbt.Current_Directory>
/home/itssahil/PROJECTS/Mol_Feturizer/New_Systems/rnas/1f27

>  <Rbt.Executable>
rbdock ($Id: //depot/dev/client3/rdock/2013.1/src/exe/rbdock.cxx#4 $)

>  <Rbt.Library>
libRbt.so (2013.1, Build901 2013/11/27)

>  <Rbt.Parameter_File>
/export/apps/rDock/src/rDock_2013.1_src/data/scripts/dock_solv.prm

>  <Rbt.Receptor>
prm/pocket_docking_8.prm

>  <SCORE>
-14.0833

>  <SCORE.INTER>
-12.0711

>  <SCORE.INTER.CONST>
1

>  <SCORE.INTER.POLAR>
0

>  <SCORE.INTER.ROT>
5

>  <SCORE.INTER.SOLV>
9.48426

>  <SCORE.INTER.VDW>
-18.1421

>  <SCORE.INTER.norm>
-0.754442

>  <SCORE.INTRA>
-2.01225

>  <SCORE.INTRA.DIHEDRAL>
-4.38746

>  <SCORE.INTRA.DIHEDRAL.0>
6.87082

>  <SCORE.INTRA.POLAR>
0

>  <SCORE.INTRA.POLAR.0>
0

>  <SCORE.INTRA.REPUL>
0

>  <SCORE.INTRA.REPUL.0>
0

>  <SCORE.INTRA.SOLV>
0.0959206

>  <SCORE.INTRA.SOLV.lig_0>
-42.5944

>  <SCORE.INTRA.VDW>
0.133523

>  <SCORE.INTRA.VDW.0>
-1.067

>  <SCORE.INTRA.norm>
-0.125765

>  <SCORE.RESTR>
0

>  <SCORE.RESTR.CAVITY>
0

>  <SCORE.RESTR.norm>
0

>  <SCORE.SYSTEM>
0

>  <SCORE.SYSTEM.CONST>
0

>  <SCORE.SYSTEM.DIHEDRAL>
0

>  <SCORE.SYSTEM.SOLV>
0

>  <SCORE.SYSTEM.norm>
0

>  <SCORE.heavy>
16

>  <SCORE.norm>
-0.880207

>  <RMSD>
2.430

$$$$
1f27 biotin aptamer (Xray 1.3A)
 OpenBabel11021811393D
libRbt.so/2013.1/901 2013/11/27
 16 17  0  0  0  0  0  0  0  0999 V2000
   21.0246    0.8426   14.6143 C   0  0  0  0  0  0  0  0  0  0  0  0
   20.7770   -0.0482   15.4209 O   0  5  0  0  0  0  0  0  0  0  0  0
   22.1003    1.4362   14.6696 O   0  0  0  0  0  0  0  0  0  0  0  0
   20.0325    1.1667   13.5048 C   0  0  0  0  0  0  0  0  0  0  0  0
   19.1771    2.4245   13.7757 C   0  0  0  0  0  0  0  0  0  0  0  0
   18.2338    2.7194   12.6241 C   0  0  0  0  0  0  0  0  0  0  0  0
   17.1033    1.7196   12.4975 C   0  0  0  0  0  0  0  0  0  0  0  0
   16.0819    1.7544   13.6420 C   0  0  2  0  0  0  0  0  0  0  0  0
   14.7911    0.3404   13.6542 S   0  0  0  0  0  0  0  0  0  0  0  0
   13.8148    1.3906   14.9147 C   0  0  0  0  0  0  0  0  0  0  0  0
   14.0435    2.8657   14.4732 C   0  0  2  0  0  0  0  0  0  0  0  0
   12.8873    3.1925   13.4906 N   0  0  0  0  0  0  0  0  0  0  0  0
   13.2872    3.5204   12.3392 C   0  0  0  0  0  0  0  0  0  0  0  0
   12.6313    3.6948   11.2514 O   0  0  0  0  0  0  0  0  0  0  0  0
   14.7111    3.3621   12.1525 N   0  0  0  0  0  0  0  0  0  0  0  0
   15.2371    3.0270   13.5479 C   0  0  2  0  0  0  0  0  0  0  0  0
  1  2  1  0  0  0  0
  1  3  2  0  0  0  0
  1  4  1  0  0  0  0
  4  5  1  0  0  0  0
  5  6  1  0  0  0  0
  6  7  1  0  0  0  0
  8  7  1  6  0  0  0
  8  9  1  0  0  0  0
  8 16  1  0  0  0  0
  9 10  1  0  0  0  0
 11 10  1  6  0  0  0
 11 12  1  0  0  0  0
 11 16  1  0  0  0  0
 12 13  1  0  0  0  0
 13 14  2  0  0  0  0
 13 15  1  0  0  0  0
 16 15  1  6  0  0  0
M  CHG  1   2  -1
M  END
>  <CHROM.1>
101.69195180,178.53394026,70.36872822,67.74375254,-171.23059016,16.51559863
1.95155471,13.53881198,0.30592367,0.00216712,2.42796519

>  <Name>
1f27 biotin aptamer (Xray 1.3A)

>  <RI>
0

>  <Rbt.Current_Directory>
/home/itssahil/PROJECTS/Mol_Feturizer/New_Systems/rnas/1f27

>  <Rbt.Executable>
rbdock ($Id: //depot/dev/client3/rdock/2013.1/src/exe/rbdock.cxx#4 $)

>  <Rbt.Library>
libRbt.so (2013.1, Build901 2013/11/27)

>  <Rbt.Parameter_File>
/export/apps/rDock/src/rDock_2013.1_src/data/scripts/dock_solv.prm

>  <Rbt.Receptor>
prm/blind_docking_40.prm

>  <SCORE>
-22.8717

>  <SCORE.INTER>
-20.8362

>  <SCORE.INTER.CONST>
1

>  <SCORE.INTER.POLAR>
0

>  <SCORE.INTER.ROT>
5

>  <SCORE.INTER.SOLV>
15.1972

>  <SCORE.INTER.VDW>
-25.8899

>  <SCORE.INTER.norm>
-1.30226

>  <SCORE.INTRA>
-2.03547

>  <SCORE.INTRA.DIHEDRAL>
-4.40509

>  <SCORE.INTRA.DIHEDRAL.0>
6.87082

>  <SCORE.INTRA.POLAR>
0

>  <SCORE.INTRA.POLAR.0>
0

>  <SCORE.INTRA.REPUL>
0

>  <SCORE.INTRA.REPUL.0>
0

>  <SCORE.INTRA.SOLV>
-0.758282

>  <SCORE.INTRA.SOLV.lig_0>
-42.5944

>  <SCORE.INTRA.VDW>
0.54622

>  <SCORE.INTRA.VDW.0>
-1.067

>  <SCORE.INTRA.norm>
-0.127217

>  <SCORE.RESTR>
0

>  <SCORE.RESTR.CAVITY>
0

>  <SCORE.RESTR.norm>
0

>  <SCORE.SYSTEM>
0

>  <SCORE.SYSTEM.CONST>
0

>  <SCORE.SYSTEM.DIHEDRAL>
0

>  <SCORE.SYSTEM.SOLV>
0

>  <SCORE.SYSTEM.norm>
0

>  <SCORE.heavy>
16

>  <SCORE.norm>
-1.42948

>  <RMSD>
2.450

$$$$
1f27 biotin aptamer (Xray 1.3A)
 OpenBabel11021811393D
libRbt.so/2013.1/901 2013/11/27
 16 17  0  0  0  0  0  0  0  0999 V2000
   20.7986    0.5157   12.7803 C   0  0  0  0  0  0  0  0  0  0  0  0
   21.6959   -0.1576   12.2834 O   0  5  0  0  0  0  0  0  0  0  0  0
   21.0660    1.3487   13.6447 O   0  0  0  0  0  0  0  0  0  0  0  0
   19.3670    0.3698   12.2806 C   0  0  0  0  0  0  0  0  0  0  0  0
   18.4958   -0.5739   13.1393 C   0  0  0  0  0  0  0  0  0  0  0  0
   17.4178    0.1864   13.8895 C   0  0  0  0  0  0  0  0  0  0  0  0
   16.4978    0.9804   12.9857 C   0  0  0  0  0  0  0  0  0  0  0  0
   15.4301    1.8042   13.7175 C   0  0  2  0  0  0  0  0  0  0  0  0
   13.9104    0.8279   14.3524 S   0  0  0  0  0  0  0  0  0  0  0  0
   13.0601    2.5206   14.5904 C   0  0  0  0  0  0  0  0  0  0  0  0
   13.5740    3.3989   13.4124 C   0  0  2  0  0  0  0  0  0  0  0  0
   12.5573    3.1882   12.2586 N   0  0  0  0  0  0  0  0  0  0  0  0
   13.0795    2.7129   11.2124 C   0  0  0  0  0  0  0  0  0  0  0  0
   12.5336    2.2657   10.1420 O   0  0  0  0  0  0  0  0  0  0  0  0
   14.4615    2.3253   11.3782 N   0  0  0  0  0  0  0  0  0  0  0  0
   14.8322    2.8441   12.7672 C   0  0  2  0  0  0  0  0  0  0  0  0
  1  2  1  0  0  0  0
  1  3  2  0  0  0  0
  1  4  1  0  0  0  0
  4  5  1  0  0  0  0
  5  6  1  0  0  0  0
  6  7  1  0  0  0  0
  8  7  1  6  0  0  0
  8  9  1  0  0  0  0
  8 16  1  0  0  0  0
  9 10  1  0  0  0  0
 11 10  1  1  0  0  0
 11 12  1  0  0  0  0
 11 16  1  0  0  0  0
 12 13  1  0  0  0  0
 13 14  2  0  0  0  0
 13 15  1  0  0  0  0
 16 15  1  6  0  0  0
M  CHG  1   2  -1
M  END
>  <CHROM.1>
97.15731184,111.22641191,57.58180347,-177.73853182,-78.24581739,16.04381896
1.46638303,12.89479902,-0.12526902,0.26369741,-1.29684615

>  <Name>
1f27 biotin aptamer (Xray 1.3A)

>  <RI>
0

>  <Rbt.Current_Directory>
/home/itssahil/PROJECTS/Mol_Feturizer/New_Systems/rnas/1f27

>  <Rbt.Executable>
rbdock ($Id: //depot/dev/client3/rdock/2013.1/src/exe/rbdock.cxx#4 $)

>  <Rbt.Library>
libRbt.so (2013.1, Build901 2013/11/27)

>  <Rbt.Parameter_File>
/export/apps/rDock/src/rDock_2013.1_src/data/scripts/dock_solv.prm

>  <Rbt.Receptor>
prm/blind_docking_40.prm

>  <SCORE>
-23.0206

>  <SCORE.INTER>
-24.004

>  <SCORE.INTER.CONST>
1

>  <SCORE.INTER.POLAR>
-1.45644

>  <SCORE.INTER.ROT>
5

>  <SCORE.INTER.SOLV>
15.996

>  <SCORE.INTER.VDW>
-23.4132

>  <SCORE.INTER.norm>
-1.50025

>  <SCORE.INTRA>
0.983365

>  <SCORE.INTRA.DIHEDRAL>
0.951926

>  <SCORE.INTRA.DIHEDRAL.0>
6.87082

>  <SCORE.INTRA.POLAR>
0

>  <SCORE.INTRA.POLAR.0>
0

>  <SCORE.INTRA.REPUL>
0

>  <SCORE.INTRA.REPUL.0>
0

>  <SCORE.INTRA.SOLV>
-0.422674

>  <SCORE.INTRA.SOLV.lig_0>
-42.5944

>  <SCORE.INTRA.VDW>
0.718739

>  <SCORE.INTRA.VDW.0>
-1.067

>  <SCORE.INTRA.norm>
0.0614603

>  <SCORE.RESTR>
0

>  <SCORE.RESTR.CAVITY>
0

>  <SCORE.RESTR.norm>
0

>  <SCORE.SYSTEM>
0

>  <SCORE.SYSTEM.CONST>
0

>  <SCORE.SYSTEM.DIHEDRAL>
0

>  <SCORE.SYSTEM.SOLV>
0

>  <SCORE.SYSTEM.norm>
0

>  <SCORE.heavy>
16

>  <SCORE.norm>
-1.43879

>  <RMSD>
2.478

$$$$
1f27 biotin aptamer (Xray 1.3A)
 OpenBabel11021811393D
libRbt.so/2013.1/901 2013/11/27
 16 17  0  0  0  0  0  0  0  0999 V2000
   18.4887   -0.1471   13.3437 C   0  0  0  0  0  0  0  0  0  0  0  0
   17.8908   -0.6012   14.3141 O   0  5  0  0  0  0  0  0  0  0  0  0
   17.9427   -0.1298   12.2419 O   0  0  0  0  0  0  0  0  0  0  0  0
   19.8769    0.4563   13.5149 C   0  0  0  0  0  0  0  0  0  0  0  0
   19.9157    1.9935   13.3651 C   0  0  0  0  0  0  0  0  0  0  0  0
   18.7408    2.6544   14.0620 C   0  0  0  0  0  0  0  0  0  0  0  0
   17.5227    2.8114   13.1758 C   0  0  0  0  0  0  0  0  0  0  0  0
   16.1870    2.8939   13.9263 C   0  0  2  0  0  0  0  0  0  0  0  0
   15.4047    1.2198   14.4276 S   0  0  0  0  0  0  0  0  0  0  0  0
   13.7975    2.1954   14.7596 C   0  0  0  0  0  0  0  0  0  0  0  0
   13.7694    3.3082   13.6714 C   0  0  2  0  0  0  0  0  0  0  0  0
   13.0044    2.6968   12.4672 N   0  0  0  0  0  0  0  0  0  0  0  0
   13.6908    2.6528   11.4089 C   0  0  0  0  0  0  0  0  0  0  0  0
   13.4514    2.0785   10.2879 O   0  0  0  0  0  0  0  0  0  0  0  0
   15.0730    3.0290   11.5976 N   0  0  0  0  0  0  0  0  0  0  0  0
   15.1278    3.5460   13.0348 C   0  0  2  0  0  0  0  0  0  0  0  0
  1  2  1  0  0  0  0
  1  3  2  0  0  0  0
  1  4  1  0  0  0  0
  4  5  1  0  0  0  0
  5  6  1  0  0  0  0
  6  7  1  0  0  0  0
  8  7  1  6  0  0  0
  8  9  1  0  0  0  0
  8 16  1  0  0  0  0
  9 10  1  0  0  0  0
 11 10  1  1  0  0  0
 11 12  1  0  0  0  0
 11 16  1  0  0  0  0
 12 13  1  0  0  0  0
 13 14  2  0  0  0  0
 13 15  1  0  0  0  0
 16 15  1  6  0  0  0
M  CHG  1   2  -1
M  END
>  <CHROM.1>
-108.69484010,41.96335515,-89.48240442,155.04666287,-83.07294432,16.18368268
1.82915398,13.17357483,-0.23927573,0.33550422,-1.49331483

>  <Name>
1f27 biotin aptamer (Xray 1.3A)

>  <RI>
224

>  <Rbt.Current_Directory>
/home/itssahil/PROJECTS/Mol_Feturizer/New_Systems/rnas/1f27

>  <Rbt.Executable>
rbdock ($Id: //depot/dev/client3/rdock/2013.1/src/exe/rbdock.cxx#4 $)

>  <Rbt.Library>
libRbt.so (2013.1, Build901 2013/11/27)

>  <Rbt.Parameter_File>
/export/apps/rDock/src/rDock_2013.1_src/data/scripts/dock_solv.prm

>  <Rbt.Receptor>
prm/blind_docking_80.prm

>  <SCORE>
-17.1603

>  <SCORE.INTER>
-20.0608

>  <SCORE.INTER.CONST>
1

>  <SCORE.INTER.POLAR>
-0.65328

>  <SCORE.INTER.ROT>
5

>  <SCORE.INTER.SOLV>
13.7469

>  <SCORE.INTER.VDW>
-22.7119

>  <SCORE.INTER.norm>
-1.2538

>  <SCORE.INTRA>
2.89923

>  <SCORE.INTRA.DIHEDRAL>
2.6558

>  <SCORE.INTRA.DIHEDRAL.0>
6.87082

>  <SCORE.INTRA.POLAR>
0

>  <SCORE.INTRA.POLAR.0>
0

>  <SCORE.INTRA.REPUL>
0

>  <SCORE.INTRA.REPUL.0>
0

>  <SCORE.INTRA.SOLV>
3.64647

>  <SCORE.INTRA.SOLV.lig_0>
-42.5944

>  <SCORE.INTRA.VDW>
-0.251902

>  <SCORE.INTRA.VDW.0>
-1.067

>  <SCORE.INTRA.norm>
0.181202

>  <SCORE.RESTR>
0.00124878

>  <SCORE.RESTR.CAVITY>
0.00124878

>  <SCORE.RESTR.norm>
7.80485e-05

>  <SCORE.SYSTEM>
0

>  <SCORE.SYSTEM.CONST>
0

>  <SCORE.SYSTEM.DIHEDRAL>
0

>  <SCORE.SYSTEM.SOLV>
0

>  <SCORE.SYSTEM.norm>
0

>  <SCORE.heavy>
16

>  <SCORE.norm>
-1.07252

>  <RMSD>
2.481

$$$$
1f27 biotin aptamer (Xray 1.3A)
 OpenBabel11021811393D
libRbt.so/2013.1/901 2013/11/27
 16 17  0  0  0  0  0  0  0  0999 V2000
   18.8612   -2.0851   15.0058 C   0  0  0  0  0  0  0  0  0  0  0  0
   19.4889   -1.1141   15.4162 O   0  5  0  0  0  0  0  0  0  0  0  0
   18.8051   -3.1088   15.6850 O   0  0  0  0  0  0  0  0  0  0  0  0
   18.0965   -2.0011   13.6910 C   0  0  0  0  0  0  0  0  0  0  0  0
   18.2169   -0.6340   12.9813 C   0  0  0  0  0  0  0  0  0  0  0  0
   17.3306    0.4137   13.6290 C   0  0  0  0  0  0  0  0  0  0  0  0
   15.8504    0.1458   13.4532 C   0  0  0  0  0  0  0  0  0  0  0  0
   14.9271    1.2129   14.0558 C   0  0  2  0  0  0  0  0  0  0  0  0
   13.0641    0.7745   14.1069 S   0  0  0  0  0  0  0  0  0  0  0  0
   12.7509    2.6242   14.4611 C   0  0  0  0  0  0  0  0  0  0  0  0
   13.8309    3.3813   13.6343 C   0  0  2  0  0  0  0  0  0  0  0  0
   13.1804    3.6617   12.2532 N   0  0  0  0  0  0  0  0  0  0  0  0
   13.8095    3.1432   11.2896 C   0  0  0  0  0  0  0  0  0  0  0  0
   13.4875    3.0292   10.0539 O   0  0  0  0  0  0  0  0  0  0  0  0
   14.8918    2.2790   11.7011 N   0  0  0  0  0  0  0  0  0  0  0  0
   14.9849    2.4885   13.2122 C   0  0  2  0  0  0  0  0  0  0  0  0
  1  2  1  0  0  0  0
  1  3  2  0  0  0  0
  1  4  1  0  0  0  0
  4  5  1  0  0  0  0
  5  6  1  0  0  0  0
  6  7  1  0  0  0  0
  8  7  1  6  0  0  0
  8  9  1  0  0  0  0
  8 16  1  0  0  0  0
  9 10  1  0  0  0  0
 11 10  1  1  0  0  0
 11 12  1  0  0  0  0
 11 16  1  0  0  0  0
 12 13  1  0  0  0  0
 13 14  2  0  0  0  0
 13 15  1  0  0  0  0
 16 15  1  6  0  0  0
M  CHG  1   2  -1
M  END
>  <CHROM.1>
0.58689482,-77.27294840,-67.44608047,-178.00856391,-170.42396188,15.55271358
0.85299931,13.46001383,0.64972691,-0.47044635,2.12839837

>  <Name>
1f27 biotin aptamer (Xray 1.3A)

>  <RI>
0

>  <Rbt.Current_Directory>
/home/itssahil/PROJECTS/Mol_Feturizer/New_Systems/rnas/1f27

>  <Rbt.Executable>
rbdock ($Id: //depot/dev/client3/rdock/2013.1/src/exe/rbdock.cxx#4 $)

>  <Rbt.Library>
libRbt.so (2013.1, Build901 2013/11/27)

>  <Rbt.Parameter_File>
/export/apps/rDock/src/rDock_2013.1_src/data/scripts/dock_solv.prm

>  <Rbt.Receptor>
prm/pocket_docking_5.prm

>  <SCORE>
-21.5105

>  <SCORE.INTER>
-20.856

>  <SCORE.INTER.CONST>
1

>  <SCORE.INTER.POLAR>
-0.527375

>  <SCORE.INTER.ROT>
5

>  <SCORE.INTER.SOLV>
11.0896

>  <SCORE.INTER.VDW>
-22.776

>  <SCORE.INTER.norm>
-1.3035

>  <SCORE.INTRA>
-0.654492

>  <SCORE.INTRA.DIHEDRAL>
-3.85754

>  <SCORE.INTRA.DIHEDRAL.0>
6.87082

>  <SCORE.INTRA.POLAR>
0

>  <SCORE.INTRA.POLAR.0>
0

>  <SCORE.INTRA.REPUL>
0

>  <SCORE.INTRA.REPUL.0>
0

>  <SCORE.INTRA.SOLV>
0.321003

>  <SCORE.INTRA.SOLV.lig_0>
-42.5944

>  <SCORE.INTRA.VDW>
1.11378

>  <SCORE.INTRA.VDW.0>
-1.067

>  <SCORE.INTRA.norm>
-0.0409058

>  <SCORE.RESTR>
0

>  <SCORE.RESTR.CAVITY>
0

>  <SCORE.RESTR.norm>
0

>  <SCORE.SYSTEM>
0

>  <SCORE.SYSTEM.CONST>
0

>  <SCORE.SYSTEM.DIHEDRAL>
0

>  <SCORE.SYSTEM.SOLV>
0

>  <SCORE.SYSTEM.norm>
0

>  <SCORE.heavy>
16

>  <SCORE.norm>
-1.34441

>  <RMSD>
2.482

$$$$
1f27 biotin aptamer (Xray 1.3A)
 OpenBabel11021811393D
libRbt.so/2013.1/901 2013/11/27
 16 17  0  0  0  0  0  0  0  0999 V2000
   21.3076    0.8255   14.0759 C   0  0  0  0  0  0  0  0  0  0  0  0
   22.0969    0.9932   15.0001 O   0  5  0  0  0  0  0  0  0  0  0  0
   21.7164    0.8186   12.9160 O   0  0  0  0  0  0  0  0  0  0  0  0
   19.8362    0.5584   14.3660 C   0  0  0  0  0  0  0  0  0  0  0  0
   18.8983    1.7227   13.9763 C   0  0  0  0  0  0  0  0  0  0  0  0
   17.4528    1.4183   14.3240 C   0  0  0  0  0  0  0  0  0  0  0  0
   16.4955    2.5335   13.9584 C   0  0  0  0  0  0  0  0  0  0  0  0
   15.0485    2.3169   14.4204 C   0  0  2  0  0  0  0  0  0  0  0  0
   14.2212    0.6893   13.8439 S   0  0  0  0  0  0  0  0  0  0  0  0
   12.5635    1.4712   14.3784 C   0  0  0  0  0  0  0  0  0  0  0  0
   12.7048    2.9845   14.0425 C   0  0  2  0  0  0  0  0  0  0  0  0
   12.1717    3.1431   12.5934 N   0  0  0  0  0  0  0  0  0  0  0  0
   13.0321    3.6006   11.7912 C   0  0  0  0  0  0  0  0  0  0  0  0
   13.0013    3.7082   10.5140 O   0  0  0  0  0  0  0  0  0  0  0  0
   14.3535    3.7196   12.3633 N   0  0  0  0  0  0  0  0  0  0  0  0
   14.1486    3.4137   13.8467 C   0  0  2  0  0  0  0  0  0  0  0  0
  1  2  1  0  0  0  0
  1  3  2  0  0  0  0
  1  4  1  0  0  0  0
  4  5  1  0  0  0  0
  5  6  1  0  0  0  0
  6  7  1  0  0  0  0
  8  7  1  6  0  0  0
  8  9  1  0  0  0  0
  8 16  1  0  0  0  0
  9 10  1  0  0  0  0
 11 10  1  6  0  0  0
 11 12  1  0  0  0  0
 11 16  1  0  0  0  0
 12 13  1  0  0  0  0
 13 14  2  0  0  0  0
 13 15  1  0  0  0  0
 16 15  1  6  0  0  0
M  CHG  1   2  -1
M  END
>  <CHROM.1>
110.26123538,-178.34785865,-179.96623829,-174.27219103,-55.42459904,16.09837700
2.00628191,13.52262173,-0.27076856,0.08482133,-0.90199296

>  <Name>
1f27 biotin aptamer (Xray 1.3A)

>  <RI>
0

>  <Rbt.Current_Directory>
/home/itssahil/PROJECTS/Mol_Feturizer/New_Systems/rnas/1f27

>  <Rbt.Executable>
rbdock ($Id: //depot/dev/client3/rdock/2013.1/src/exe/rbdock.cxx#4 $)

>  <Rbt.Library>
libRbt.so (2013.1, Build901 2013/11/27)

>  <Rbt.Parameter_File>
/export/apps/rDock/src/rDock_2013.1_src/data/scripts/dock_solv.prm

>  <Rbt.Receptor>
prm/blind_docking_100.prm

>  <SCORE>
-22.7644

>  <SCORE.INTER>
-19.8124

>  <SCORE.INTER.CONST>
1

>  <SCORE.INTER.POLAR>
-0.613127

>  <SCORE.INTER.ROT>
5

>  <SCORE.INTER.SOLV>
16.9719

>  <SCORE.INTER.VDW>
-23.7551

>  <SCORE.INTER.norm>
-1.23828

>  <SCORE.INTRA>
-2.95673

>  <SCORE.INTRA.DIHEDRAL>
-5.21091

>  <SCORE.INTRA.DIHEDRAL.0>
6.87082

>  <SCORE.INTRA.POLAR>
0

>  <SCORE.INTRA.POLAR.0>
0

>  <SCORE.INTRA.REPUL>
0

>  <SCORE.INTRA.REPUL.0>
0

>  <SCORE.INTRA.SOLV>
-0.86677

>  <SCORE.INTRA.SOLV.lig_0>
-42.5944

>  <SCORE.INTRA.VDW>
0.0821094

>  <SCORE.INTRA.VDW.0>
-1.067

>  <SCORE.INTRA.norm>
-0.184796

>  <SCORE.RESTR>
0.00469203

>  <SCORE.RESTR.CAVITY>
0.00469203

>  <SCORE.RESTR.norm>
0.000293252

>  <SCORE.SYSTEM>
0

>  <SCORE.SYSTEM.CONST>
0

>  <SCORE.SYSTEM.DIHEDRAL>
0

>  <SCORE.SYSTEM.SOLV>
0

>  <SCORE.SYSTEM.norm>
0

>  <SCORE.heavy>
16

>  <SCORE.norm>
-1.42278

>  <RMSD>
2.538

$$$$
1f27 biotin aptamer (Xray 1.3A)
 OpenBabel11021811393D
libRbt.so/2013.1/901 2013/11/27
 16 17  0  0  0  0  0  0  0  0999 V2000
   22.2369   -2.4458   11.4024 C   0  0  0  0  0  0  0  0  0  0  0  0
   23.4240   -2.5994   11.1334 O   0  5  0  0  0  0  0  0  0  0  0  0
   21.3833   -3.0870   10.7919 O   0  0  0  0  0  0  0  0  0  0  0  0
   21.8240   -1.5153   12.5356 C   0  0  0  0  0  0  0  0  0  0  0  0
   20.3102   -1.2091   12.5762 C   0  0  0  0  0  0  0  0  0  0  0  0
   19.9338   -0.4051   13.8070 C   0  0  0  0  0  0  0  0  0  0  0  0
   18.4422   -0.1878   13.9542 C   0  0  0  0  0  0  0  0  0  0  0  0
   17.8211    0.7454   12.9065 C   0  0  2  0  0  0  0  0  0  0  0  0
   18.2720    2.5993   13.0657 S   0  0  0  0  0  0  0  0  0  0  0  0
   16.8321    2.9402   11.8593 C   0  0  0  0  0  0  0  0  0  0  0  0
   15.7451    1.8863   12.2211 C   0  0  2  0  0  0  0  0  0  0  0  0
   14.8466    2.5622   13.2912 N   0  0  0  0  0  0  0  0  0  0  0  0
   14.8198    1.9384   14.3881 C   0  0  0  0  0  0  0  0  0  0  0  0
   14.3291    2.2766   15.5233 O   0  0  0  0  0  0  0  0  0  0  0  0
   15.7502    0.8347   14.4510 N   0  0  0  0  0  0  0  0  0  0  0  0
   16.2957    0.7230   13.0277 C   0  0  2  0  0  0  0  0  0  0  0  0
  1  2  1  0  0  0  0
  1  3  2  0  0  0  0
  1  4  1  0  0  0  0
  4  5  1  0  0  0  0
  5  6  1  0  0  0  0
  6  7  1  0  0  0  0
  8  7  1  1  0  0  0
  8  9  1  0  0  0  0
  8 16  1  0  0  0  0
  9 10  1  0  0  0  0
 11 10  1  1  0  0  0
 11 12  1  0  0  0  0
 11 16  1  0  0  0  0
 12 13  1  0  0  0  0
 13 14  2  0  0  0  0
 13 15  1  0  0  0  0
 16 15  1  1  0  0  0
M  CHG  1   2  -1
M  END
>  <CHROM.1>
168.59858305,173.77712236,-174.80100687,-68.97552127,-70.82633295,18.29278751
0.46213889,12.94587245,0.31649523,-0.57123010,2.57605868

>  <Name>
1f27 biotin aptamer (Xray 1.3A)

>  <RI>
0

>  <Rbt.Current_Directory>
/home/itssahil/PROJECTS/Mol_Feturizer/New_Systems/rnas/1f27

>  <Rbt.Executable>
rbdock ($Id: //depot/dev/client3/rdock/2013.1/src/exe/rbdock.cxx#4 $)

>  <Rbt.Library>
libRbt.so (2013.1, Build901 2013/11/27)

>  <Rbt.Parameter_File>
/export/apps/rDock/src/rDock_2013.1_src/data/scripts/dock_solv.prm

>  <Rbt.Receptor>
prm/pocket_docking_7.prm

>  <SCORE>
-22.1945

>  <SCORE.INTER>
-20.1357

>  <SCORE.INTER.CONST>
1

>  <SCORE.INTER.POLAR>
-1.19551

>  <SCORE.INTER.ROT>
5

>  <SCORE.INTER.SOLV>
11.1202

>  <SCORE.INTER.VDW>
-20.0788

>  <SCORE.INTER.norm>
-1.25848

>  <SCORE.INTRA>
-2.05877

>  <SCORE.INTRA.DIHEDRAL>
-4.5413

>  <SCORE.INTRA.DIHEDRAL.0>
6.87082

>  <SCORE.INTRA.POLAR>
0

>  <SCORE.INTRA.POLAR.0>
0

>  <SCORE.INTRA.REPUL>
0

>  <SCORE.INTRA.REPUL.0>
0

>  <SCORE.INTRA.SOLV>
-0.768781

>  <SCORE.INTRA.SOLV.lig_0>
-42.5944

>  <SCORE.INTRA.VDW>
0.596274

>  <SCORE.INTRA.VDW.0>
-1.067

>  <SCORE.INTRA.norm>
-0.128673

>  <SCORE.RESTR>
0

>  <SCORE.RESTR.CAVITY>
0

>  <SCORE.RESTR.norm>
0

>  <SCORE.SYSTEM>
0

>  <SCORE.SYSTEM.CONST>
0

>  <SCORE.SYSTEM.DIHEDRAL>
0

>  <SCORE.SYSTEM.SOLV>
0

>  <SCORE.SYSTEM.norm>
0

>  <SCORE.heavy>
16

>  <SCORE.norm>
-1.38716

>  <RMSD>
2.725

$$$$
1f27 biotin aptamer (Xray 1.3A)
 OpenBabel11021811393D
libRbt.so/2013.1/901 2013/11/27
 16 17  0  0  0  0  0  0  0  0999 V2000
   21.7613   -1.7053   12.5293 C   0  0  0  0  0  0  0  0  0  0  0  0
   22.1331   -0.5439   12.3938 O   0  5  0  0  0  0  0  0  0  0  0  0
   22.4284   -2.6210   12.0508 O   0  0  0  0  0  0  0  0  0  0  0  0
   20.5141   -2.0184   13.3461 C   0  0  0  0  0  0  0  0  0  0  0  0
   19.2716   -1.1981   12.9335 C   0  0  0  0  0  0  0  0  0  0  0  0
   18.1179   -1.4052   13.8974 C   0  0  0  0  0  0  0  0  0  0  0  0
   16.7979   -0.8684   13.3846 C   0  0  0  0  0  0  0  0  0  0  0  0
   16.7750    0.6438   13.1254 C   0  0  2  0  0  0  0  0  0  0  0  0
   17.5731    1.7366   14.4799 S   0  0  0  0  0  0  0  0  0  0  0  0
   16.7086    3.2172   13.6401 C   0  0  0  0  0  0  0  0  0  0  0  0
   15.3483    2.6551   13.1332 C   0  0  2  0  0  0  0  0  0  0  0  0
   14.3427    2.8835   14.2933 N   0  0  0  0  0  0  0  0  0  0  0  0
   13.8265    1.8157   14.7252 C   0  0  0  0  0  0  0  0  0  0  0  0
   13.0966    1.6055   15.7580 O   0  0  0  0  0  0  0  0  0  0  0  0
   14.4044    0.6201   14.1559 N   0  0  0  0  0  0  0  0  0  0  0  0
   15.3286    1.1384   13.0544 C   0  0  2  0  0  0  0  0  0  0  0  0
  1  2  1  0  0  0  0
  1  3  2  0  0  0  0
  1  4  1  0  0  0  0
  4  5  1  0  0  0  0
  5  6  1  0  0  0  0
  6  7  1  0  0  0  0
  8  7  1  1  0  0  0
  8  9  1  0  0  0  0
  8 16  1  0  0  0  0
  9 10  1  0  0  0  0
 11 10  1  1  0  0  0
 11 12  1  0  0  0  0
 11 16  1  0  0  0  0
 12 13  1  0  0  0  0
 13 14  2  0  0  0  0
 13 15  1  0  0  0  0
 16 15  1  1  0  0  0
M  CHG  1   2  -1
M  END
>  <CHROM.1>
51.48993866,-172.03108304,-167.60183569,-61.44134695,-44.36252752,17.44545432
0.45446442,13.63374240,-0.47415764,0.26517020,-0.01466803

>  <Name>
1f27 biotin aptamer (Xray 1.3A)

>  <RI>
0

>  <Rbt.Current_Directory>
/home/itssahil/PROJECTS/Mol_Feturizer/New_Systems/rnas/1f27

>  <Rbt.Executable>
rbdock ($Id: //depot/dev/client3/rdock/2013.1/src/exe/rbdock.cxx#4 $)

>  <Rbt.Library>
libRbt.so (2013.1, Build901 2013/11/27)

>  <Rbt.Parameter_File>
/export/apps/rDock/src/rDock_2013.1_src/data/scripts/dock_solv.prm

>  <Rbt.Receptor>
prm/pocket_docking_8.prm

>  <SCORE>
-26.8196

>  <SCORE.INTER>
-24.9995

>  <SCORE.INTER.CONST>
1

>  <SCORE.INTER.POLAR>
-2.23671

>  <SCORE.INTER.ROT>
5

>  <SCORE.INTER.SOLV>
14.5946

>  <SCORE.INTER.VDW>
-21.0088

>  <SCORE.INTER.norm>
-1.56247

>  <SCORE.INTRA>
-1.82018

>  <SCORE.INTRA.DIHEDRAL>
-3.75389

>  <SCORE.INTRA.DIHEDRAL.0>
6.87082

>  <SCORE.INTRA.POLAR>
0

>  <SCORE.INTRA.POLAR.0>
0

>  <SCORE.INTRA.REPUL>
0

>  <SCORE.INTRA.REPUL.0>
0

>  <SCORE.INTRA.SOLV>
-0.753175

>  <SCORE.INTRA.SOLV.lig_0>
-42.5944

>  <SCORE.INTRA.VDW>
0.433354

>  <SCORE.INTRA.VDW.0>
-1.067

>  <SCORE.INTRA.norm>
-0.113761

>  <SCORE.RESTR>
0

>  <SCORE.RESTR.CAVITY>
0

>  <SCORE.RESTR.norm>
0

>  <SCORE.SYSTEM>
0

>  <SCORE.SYSTEM.CONST>
0

>  <SCORE.SYSTEM.DIHEDRAL>
0

>  <SCORE.SYSTEM.SOLV>
0

>  <SCORE.SYSTEM.norm>
0

>  <SCORE.heavy>
16

>  <SCORE.norm>
-1.67623

>  <RMSD>
2.726

$$$$
1f27 biotin aptamer (Xray 1.3A)
 OpenBabel11021811393D
libRbt.so/2013.1/901 2013/11/27
 16 17  0  0  0  0  0  0  0  0999 V2000
   20.0930    1.5178   12.7809 C   0  0  0  0  0  0  0  0  0  0  0  0
   21.0046    1.9036   13.5058 O   0  5  0  0  0  0  0  0  0  0  0  0
   20.1298    0.3857   12.3019 O   0  0  0  0  0  0  0  0  0  0  0  0
   18.8855    2.4119   12.5294 C   0  0  0  0  0  0  0  0  0  0  0  0
   18.0836    2.7565   13.8042 C   0  0  0  0  0  0  0  0  0  0  0  0
   17.6900    1.5088   14.5731 C   0  0  0  0  0  0  0  0  0  0  0  0
   16.4759    0.8054   14.0033 C   0  0  0  0  0  0  0  0  0  0  0  0
   15.1492    1.5510   14.1988 C   0  0  2  0  0  0  0  0  0  0  0  0
   13.5734    0.6120   13.6505 S   0  0  0  0  0  0  0  0  0  0  0  0
   12.6662    2.2876   13.7699 C   0  0  0  0  0  0  0  0  0  0  0  0
   13.7108    3.3453   13.3082 C   0  0  2  0  0  0  0  0  0  0  0  0
   13.5136    3.4869   11.7752 N   0  0  0  0  0  0  0  0  0  0  0  0
   14.5468    3.2001   11.1094 C   0  0  0  0  0  0  0  0  0  0  0  0
   14.7044    3.0486    9.8461 O   0  0  0  0  0  0  0  0  0  0  0  0
   15.6195    2.6546   11.9089 N   0  0  0  0  0  0  0  0  0  0  0  0
   15.1368    2.8239   13.3492 C   0  0  2  0  0  0  0  0  0  0  0  0
  1  2  1  0  0  0  0
  1  3  2  0  0  0  0
  1  4  1  0  0  0  0
  4  5  1  0  0  0  0
  5  6  1  0  0  0  0
  6  7  1  0  0  0  0
  8  7  1  6  0  0  0
  8  9  1  0  0  0  0
  8 16  1  0  0  0  0
  9 10  1  0  0  0  0
 11 10  1  6  0  0  0
 11 12  1  0  0  0  0
 11 16  1  0  0  0  0
 12 13  1  0  0  0  0
 13 14  2  0  0  0  0
 13 15  1  0  0  0  0
 16 15  1  6  0  0  0
M  CHG  1   2  -1
M  END
>  <CHROM.1>
-61.61108385,-53.03445426,-80.18303228,-70.46771377,-174.03416525,16.15378410
2.01961794,12.92666796,-0.12503557,0.06918294,-0.99889923

>  <Name>
1f27 biotin aptamer (Xray 1.3A)

>  <RI>
224

>  <Rbt.Current_Directory>
/home/itssahil/PROJECTS/Mol_Feturizer/New_Systems/rnas/1f27

>  <Rbt.Executable>
rbdock ($Id: //depot/dev/client3/rdock/2013.1/src/exe/rbdock.cxx#4 $)

>  <Rbt.Library>
libRbt.so (2013.1, Build901 2013/11/27)

>  <Rbt.Parameter_File>
/export/apps/rDock/src/rDock_2013.1_src/data/scripts/dock_solv.prm

>  <Rbt.Receptor>
prm/blind_docking_80.prm

>  <SCORE>
-24.0532

>  <SCORE.INTER>
-24.6606

>  <SCORE.INTER.CONST>
1

>  <SCORE.INTER.POLAR>
-1.32029

>  <SCORE.INTER.ROT>
5

>  <SCORE.INTER.SOLV>
15.677

>  <SCORE.INTER.VDW>
-24.1984

>  <SCORE.INTER.norm>
-1.54129

>  <SCORE.INTRA>
0.0305172

>  <SCORE.INTRA.DIHEDRAL>
-3.19373

>  <SCORE.INTRA.DIHEDRAL.0>
6.87082

>  <SCORE.INTRA.POLAR>
0

>  <SCORE.INTRA.POLAR.0>
0

>  <SCORE.INTRA.REPUL>
0

>  <SCORE.INTRA.REPUL.0>
0

>  <SCORE.INTRA.SOLV>
1.34326

>  <SCORE.INTRA.SOLV.lig_0>
-42.5944

>  <SCORE.INTRA.VDW>
0.955751

>  <SCORE.INTRA.VDW.0>
-1.067

>  <SCORE.INTRA.norm>
0.00190732

>  <SCORE.RESTR>
0.576835

>  <SCORE.RESTR.CAVITY>
0.576835

>  <SCORE.RESTR.norm>
0.0360522

>  <SCORE.SYSTEM>
0

>  <SCORE.SYSTEM.CONST>
0

>  <SCORE.SYSTEM.DIHEDRAL>
0

>  <SCORE.SYSTEM.SOLV>
0

>  <SCORE.SYSTEM.norm>
0

>  <SCORE.heavy>
16

>  <SCORE.norm>
-1.50333

>  <RMSD>
2.746

$$$$
1f27 biotin aptamer (Xray 1.3A)
 OpenBabel11021811393D
libRbt.so/2013.1/901 2013/11/27
 16 17  0  0  0  0  0  0  0  0999 V2000
   19.8131    1.7890   13.6930 C   0  0  0  0  0  0  0  0  0  0  0  0
   19.2369    2.8601   13.8541 O   0  5  0  0  0  0  0  0  0  0  0  0
   20.6573    1.4199   14.5076 O   0  0  0  0  0  0  0  0  0  0  0  0
   19.4362    0.8862   12.5253 C   0  0  0  0  0  0  0  0  0  0  0  0
   18.4012   -0.2035   12.8832 C   0  0  0  0  0  0  0  0  0  0  0  0
   17.0028    0.3719   13.0106 C   0  0  0  0  0  0  0  0  0  0  0  0
   16.8069    1.2149   14.2535 C   0  0  0  0  0  0  0  0  0  0  0  0
   15.4032    1.8142   14.4101 C   0  0  2  0  0  0  0  0  0  0  0  0
   13.9467    0.6720   13.9205 S   0  0  0  0  0  0  0  0  0  0  0  0
   12.8539    2.2372   13.9473 C   0  0  0  0  0  0  0  0  0  0  0  0
   13.7728    3.3793   13.4234 C   0  0  2  0  0  0  0  0  0  0  0  0
   13.5662    3.4105   11.8854 N   0  0  0  0  0  0  0  0  0  0  0  0
   14.6279    3.2062   11.2340 C   0  0  0  0  0  0  0  0  0  0  0  0
   14.8063    3.0024    9.9809 O   0  0  0  0  0  0  0  0  0  0  0  0
   15.7529    2.8328   12.0601 N   0  0  0  0  0  0  0  0  0  0  0  0
   15.2488    3.0272   13.4899 C   0  0  2  0  0  0  0  0  0  0  0  0
  1  2  1  0  0  0  0
  1  3  2  0  0  0  0
  1  4  1  0  0  0  0
  4  5  1  0  0  0  0
  5  6  1  0  0  0  0
  6  7  1  0  0  0  0
  8  7  1  6  0  0  0
  8  9  1  0  0  0  0
  8 16  1  0  0  0  0
  9 10  1  0  0  0  0
 11 10  1  1  0  0  0
 11 12  1  0  0  0  0
 11 16  1  0  0  0  0
 12 13  1  0  0  0  0
 13 14  2  0  0  0  0
 13 15  1  0  0  0  0
 16 15  1  6  0  0  0
M  CHG  1   2  -1
M  END
>  <CHROM.1>
-94.85277016,75.60741094,-72.00592687,179.87393684,39.85888670,16.19308450
1.89850202,13.11265025,-0.25950102,0.06603273,-0.93426700

>  <Name>
1f27 biotin aptamer (Xray 1.3A)

>  <RI>
224

>  <Rbt.Current_Directory>
/home/itssahil/PROJECTS/Mol_Feturizer/New_Systems/rnas/1f27

>  <Rbt.Executable>
rbdock ($Id: //depot/dev/client3/rdock/2013.1/src/exe/rbdock.cxx#4 $)

>  <Rbt.Library>
libRbt.so (2013.1, Build901 2013/11/27)

>  <Rbt.Parameter_File>
/export/apps/rDock/src/rDock_2013.1_src/data/scripts/dock_solv.prm

>  <Rbt.Receptor>
prm/blind_docking_80.prm

>  <SCORE>
-25.767

>  <SCORE.INTER>
-26.4619

>  <SCORE.INTER.CONST>
1

>  <SCORE.INTER.POLAR>
-1.33576

>  <SCORE.INTER.ROT>
5

>  <SCORE.INTER.SOLV>
15.4366

>  <SCORE.INTER.VDW>
-25.2676

>  <SCORE.INTER.norm>
-1.65387

>  <SCORE.INTRA>
0.694957

>  <SCORE.INTRA.DIHEDRAL>
-2.71264

>  <SCORE.INTRA.DIHEDRAL.0>
6.87082

>  <SCORE.INTRA.POLAR>
0

>  <SCORE.INTRA.POLAR.0>
0

>  <SCORE.INTRA.REPUL>
0

>  <SCORE.INTRA.REPUL.0>
0

>  <SCORE.INTRA.SOLV>
2.80107

>  <SCORE.INTRA.SOLV.lig_0>
-42.5944

>  <SCORE.INTRA.VDW>
0.650742

>  <SCORE.INTRA.VDW.0>
-1.067

>  <SCORE.INTRA.norm>
0.0434348

>  <SCORE.RESTR>
0

>  <SCORE.RESTR.CAVITY>
0

>  <SCORE.RESTR.norm>
0

>  <SCORE.SYSTEM>
0

>  <SCORE.SYSTEM.CONST>
0

>  <SCORE.SYSTEM.DIHEDRAL>
0

>  <SCORE.SYSTEM.SOLV>
0

>  <SCORE.SYSTEM.norm>
0

>  <SCORE.heavy>
16

>  <SCORE.norm>
-1.61043

>  <RMSD>
2.793

$$$$
1f27 biotin aptamer (Xray 1.3A)
 OpenBabel11021811393D
libRbt.so/2013.1/901 2013/11/27
 16 17  0  0  0  0  0  0  0  0999 V2000
   20.9853   -0.7722   13.0112 C   0  0  0  0  0  0  0  0  0  0  0  0
   21.9051   -0.5167   12.2405 O   0  5  0  0  0  0  0  0  0  0  0  0
   20.1917   -1.6716   12.7398 O   0  0  0  0  0  0  0  0  0  0  0  0
   20.8657   -0.0247   14.3332 C   0  0  0  0  0  0  0  0  0  0  0  0
   20.0619    1.2914   14.2393 C   0  0  0  0  0  0  0  0  0  0  0  0
   18.6959    1.0707   13.6162 C   0  0  0  0  0  0  0  0  0  0  0  0
   17.8463    2.3233   13.5627 C   0  0  0  0  0  0  0  0  0  0  0  0
   16.6122    2.2258   12.6563 C   0  0  2  0  0  0  0  0  0  0  0  0
   15.5101    3.7892   12.5730 S   0  0  0  0  0  0  0  0  0  0  0  0
   14.1843    2.6777   11.7657 C   0  0  0  0  0  0  0  0  0  0  0  0
   14.3363    1.2957   12.4658 C   0  0  2  0  0  0  0  0  0  0  0  0
   13.3804    1.3383   13.6880 N   0  0  0  0  0  0  0  0  0  0  0  0
   13.9720    1.1783   14.7914 C   0  0  0  0  0  0  0  0  0  0  0  0
   13.5411    1.3136   15.9913 O   0  0  0  0  0  0  0  0  0  0  0  0
   15.4123    1.1537   14.6794 N   0  0  0  0  0  0  0  0  0  0  0  0
   15.6708    1.1355   13.1732 C   0  0  2  0  0  0  0  0  0  0  0  0
  1  2  1  0  0  0  0
  1  3  2  0  0  0  0
  1  4  1  0  0  0  0
  4  5  1  0  0  0  0
  5  6  1  0  0  0  0
  6  7  1  0  0  0  0
  8  7  1  1  0  0  0
  8  9  1  0  0  0  0
  8 16  1  0  0  0  0
  9 10  1  0  0  0  0
 11 10  1  1  0  0  0
 11 12  1  0  0  0  0
 11 16  1  0  0  0  0
 12 13  1  0  0  0  0
 13 14  2  0  0  0  0
 13 15  1  0  0  0  0
 16 15  1  1  0  0  0
M  CHG  1   2  -1
M  END
>  <CHROM.1>
87.87023034,53.34212994,177.31129566,166.23200736,179.67323428,16.98205472
1.28846955,13.41876993,0.21799990,-0.28827811,2.40832989

>  <Name>
1f27 biotin aptamer (Xray 1.3A)

>  <RI>
0

>  <Rbt.Current_Directory>
/home/itssahil/PROJECTS/Mol_Feturizer/New_Systems/rnas/1f27

>  <Rbt.Executable>
rbdock ($Id: //depot/dev/client3/rdock/2013.1/src/exe/rbdock.cxx#4 $)

>  <Rbt.Library>
libRbt.so (2013.1, Build901 2013/11/27)

>  <Rbt.Parameter_File>
/export/apps/rDock/src/rDock_2013.1_src/data/scripts/dock_solv.prm

>  <Rbt.Receptor>
prm/pocket_docking_6.prm

>  <SCORE>
-27.1671

>  <SCORE.INTER>
-25.6085

>  <SCORE.INTER.CONST>
1

>  <SCORE.INTER.POLAR>
-2.15547

>  <SCORE.INTER.ROT>
5

>  <SCORE.INTER.SOLV>
14.2163

>  <SCORE.INTER.VDW>
-21.5596

>  <SCORE.INTER.norm>
-1.60053

>  <SCORE.INTRA>
-1.55853

>  <SCORE.INTRA.DIHEDRAL>
-4.4481

>  <SCORE.INTRA.DIHEDRAL.0>
6.87082

>  <SCORE.INTRA.POLAR>
0

>  <SCORE.INTRA.POLAR.0>
0

>  <SCORE.INTRA.REPUL>
0

>  <SCORE.INTRA.REPUL.0>
0

>  <SCORE.INTRA.SOLV>
0.355132

>  <SCORE.INTRA.SOLV.lig_0>
-42.5944

>  <SCORE.INTRA.VDW>
0.487959

>  <SCORE.INTRA.VDW.0>
-1.067

>  <SCORE.INTRA.norm>
-0.0974079

>  <SCORE.RESTR>
0

>  <SCORE.RESTR.CAVITY>
0

>  <SCORE.RESTR.norm>
0

>  <SCORE.SYSTEM>
0

>  <SCORE.SYSTEM.CONST>
0

>  <SCORE.SYSTEM.DIHEDRAL>
0

>  <SCORE.SYSTEM.SOLV>
0

>  <SCORE.SYSTEM.norm>
0

>  <SCORE.heavy>
16

>  <SCORE.norm>
-1.69794

>  <RMSD>
2.801

$$$$
1f27 biotin aptamer (Xray 1.3A)
 OpenBabel11021811393D
libRbt.so/2013.1/901 2013/11/27
 16 17  0  0  0  0  0  0  0  0999 V2000
   20.7717    0.5934   13.4561 C   0  0  0  0  0  0  0  0  0  0  0  0
   20.8329   -0.3832   14.1963 O   0  5  0  0  0  0  0  0  0  0  0  0
   21.6467    0.7768   12.6116 O   0  0  0  0  0  0  0  0  0  0  0  0
   19.5802    1.5393   13.5354 C   0  0  0  0  0  0  0  0  0  0  0  0
   18.2119    0.8230   13.5755 C   0  0  0  0  0  0  0  0  0  0  0  0
   17.0723    1.8029   13.7851 C   0  0  0  0  0  0  0  0  0  0  0  0
   15.7091    1.1444   13.8286 C   0  0  0  0  0  0  0  0  0  0  0  0
   14.5365    2.1066   14.0594 C   0  0  2  0  0  0  0  0  0  0  0  0
   12.8370    1.2895   14.3908 S   0  0  0  0  0  0  0  0  0  0  0  0
   12.0706    3.0074   14.0646 C   0  0  0  0  0  0  0  0  0  0  0  0
   12.9542    3.6375   12.9486 C   0  0  2  0  0  0  0  0  0  0  0  0
   12.2925    3.2233   11.6070 N   0  0  0  0  0  0  0  0  0  0  0  0
   13.0554    2.5501   10.8600 C   0  0  0  0  0  0  0  0  0  0  0  0
   12.8048    1.9136    9.7757 O   0  0  0  0  0  0  0  0  0  0  0  0
   14.3049    2.1834   11.4859 N   0  0  0  0  0  0  0  0  0  0  0  0
   14.3028    2.9533   12.8063 C   0  0  2  0  0  0  0  0  0  0  0  0
  1  2  1  0  0  0  0
  1  3  2  0  0  0  0
  1  4  1  0  0  0  0
  4  5  1  0  0  0  0
  5  6  1  0  0  0  0
  6  7  1  0  0  0  0
  8  7  1  6  0  0  0
  8  9  1  0  0  0  0
  8 16  1  0  0  0  0
  9 10  1  0  0  0  0
 11 10  1  1  0  0  0
 11 12  1  0  0  0  0
 11 16  1  0  0  0  0
 12 13  1  0  0  0  0
 13 14  2  0  0  0  0
 13 15  1  0  0  0  0
 16 15  1  6  0  0  0
M  CHG  1   2  -1
M  END
>  <CHROM.1>
-46.48270331,174.65597863,179.89704643,179.17002457,-170.86969928,15.63803616
1.75384736,13.02111116,-0.17018042,0.21440993,-1.38072781

>  <Name>
1f27 biotin aptamer (Xray 1.3A)

>  <RI>
0

>  <Rbt.Current_Directory>
/home/itssahil/PROJECTS/Mol_Feturizer/New_Systems/rnas/1f27

>  <Rbt.Executable>
rbdock ($Id: //depot/dev/client3/rdock/2013.1/src/exe/rbdock.cxx#4 $)

>  <Rbt.Library>
libRbt.so (2013.1, Build901 2013/11/27)

>  <Rbt.Parameter_File>
/export/apps/rDock/src/rDock_2013.1_src/data/scripts/dock_solv.prm

>  <Rbt.Receptor>
prm/blind_docking_40.prm

>  <SCORE>
-25.0006

>  <SCORE.INTER>
-22.4449

>  <SCORE.INTER.CONST>
1

>  <SCORE.INTER.POLAR>
-1.21858

>  <SCORE.INTER.ROT>
5

>  <SCORE.INTER.SOLV>
13.3283

>  <SCORE.INTER.VDW>
-22.2775

>  <SCORE.INTER.norm>
-1.40281

>  <SCORE.INTRA>
-2.55561

>  <SCORE.INTRA.DIHEDRAL>
-4.9973

>  <SCORE.INTRA.DIHEDRAL.0>
6.87082

>  <SCORE.INTRA.POLAR>
0

>  <SCORE.INTRA.POLAR.0>
0

>  <SCORE.INTRA.REPUL>
0

>  <SCORE.INTRA.REPUL.0>
0

>  <SCORE.INTRA.SOLV>
-0.705513

>  <SCORE.INTRA.SOLV.lig_0>
-42.5944

>  <SCORE.INTRA.VDW>
0.295794

>  <SCORE.INTRA.VDW.0>
-1.067

>  <SCORE.INTRA.norm>
-0.159726

>  <SCORE.RESTR>
0

>  <SCORE.RESTR.CAVITY>
0

>  <SCORE.RESTR.norm>
0

>  <SCORE.SYSTEM>
0

>  <SCORE.SYSTEM.CONST>
0

>  <SCORE.SYSTEM.DIHEDRAL>
0

>  <SCORE.SYSTEM.SOLV>
0

>  <SCORE.SYSTEM.norm>
0

>  <SCORE.heavy>
16

>  <SCORE.norm>
-1.56253

>  <RMSD>
2.825

$$$$
1f27 biotin aptamer (Xray 1.3A)
 OpenBabel11021811393D
libRbt.so/2013.1/901 2013/11/27
 16 17  0  0  0  0  0  0  0  0999 V2000
   20.7704    0.6131   13.4780 C   0  0  0  0  0  0  0  0  0  0  0  0
   20.8397   -0.3254   14.2652 O   0  5  0  0  0  0  0  0  0  0  0  0
   21.6420    0.7599   12.6229 O   0  0  0  0  0  0  0  0  0  0  0  0
   19.5734    1.5546   13.5142 C   0  0  0  0  0  0  0  0  0  0  0  0
   18.2087    0.8326   13.5729 C   0  0  0  0  0  0  0  0  0  0  0  0
   17.0625    1.8133   13.7379 C   0  0  0  0  0  0  0  0  0  0  0  0
   15.7043    1.1480   13.8168 C   0  0  0  0  0  0  0  0  0  0  0  0
   14.5304    2.1071   14.0541 C   0  0  2  0  0  0  0  0  0  0  0  0
   12.8352    1.2856   14.3962 S   0  0  0  0  0  0  0  0  0  0  0  0
   12.0622    3.0012   14.0735 C   0  0  0  0  0  0  0  0  0  0  0  0
   12.9373    3.6330   12.9518 C   0  0  2  0  0  0  0  0  0  0  0  0
   12.2687    3.2162   11.6145 N   0  0  0  0  0  0  0  0  0  0  0  0
   13.0289    2.5446   10.8634 C   0  0  0  0  0  0  0  0  0  0  0  0
   12.7735    1.9067    9.7809 O   0  0  0  0  0  0  0  0  0  0  0  0
   14.2832    2.1817   11.4820 N   0  0  0  0  0  0  0  0  0  0  0  0
   14.2869    2.9524   12.8018 C   0  0  2  0  0  0  0  0  0  0  0  0
  1  2  1  0  0  0  0
  1  3  2  0  0  0  0
  1  4  1  0  0  0  0
  4  5  1  0  0  0  0
  5  6  1  0  0  0  0
  6  7  1  0  0  0  0
  8  7  1  6  0  0  0
  8  9  1  0  0  0  0
  8 16  1  0  0  0  0
  9 10  1  0  0  0  0
 11 10  1  1  0  0  0
 11 12  1  0  0  0  0
 11 16  1  0  0  0  0
 12 13  1  0  0  0  0
 13 14  2  0  0  0  0
 13 15  1  0  0  0  0
 16 15  1  6  0  0  0
M  CHG  1   2  -1
M  END
>  <CHROM.1>
-47.32338968,174.67146966,-179.32082605,177.08824042,-171.99782049,15.62769950
1.75734941,13.02429738,-0.17161890,0.21124478,-1.38308177

>  <Name>
1f27 biotin aptamer (Xray 1.3A)

>  <RI>
0

>  <Rbt.Current_Directory>
/home/itssahil/PROJECTS/Mol_Feturizer/New_Systems/rnas/1f27

>  <Rbt.Executable>
rbdock ($Id: //depot/dev/client3/rdock/2013.1/src/exe/rbdock.cxx#4 $)

>  <Rbt.Library>
libRbt.so (2013.1, Build901 2013/11/27)

>  <Rbt.Parameter_File>
/export/apps/rDock/src/rDock_2013.1_src/data/scripts/dock_solv.prm

>  <Rbt.Receptor>
prm/pocket_docking_8.prm

>  <SCORE>
-25.07

>  <SCORE.INTER>
-22.5012

>  <SCORE.INTER.CONST>
1

>  <SCORE.INTER.POLAR>
-1.23201

>  <SCORE.INTER.ROT>
5

>  <SCORE.INTER.SOLV>
13.3386

>  <SCORE.INTER.VDW>
-22.2736

>  <SCORE.INTER.norm>
-1.40632

>  <SCORE.INTRA>
-2.56884

>  <SCORE.INTRA.DIHEDRAL>
-5.04332

>  <SCORE.INTRA.DIHEDRAL.0>
6.87082

>  <SCORE.INTRA.POLAR>
0

>  <SCORE.INTRA.POLAR.0>
0

>  <SCORE.INTRA.REPUL>
0

>  <SCORE.INTRA.REPUL.0>
0

>  <SCORE.INTRA.SOLV>
-0.705529

>  <SCORE.INTRA.SOLV.lig_0>
-42.5944

>  <SCORE.INTRA.VDW>
0.305582

>  <SCORE.INTRA.VDW.0>
-1.067

>  <SCORE.INTRA.norm>
-0.160553

>  <SCORE.RESTR>
0

>  <SCORE.RESTR.CAVITY>
0

>  <SCORE.RESTR.norm>
0

>  <SCORE.SYSTEM>
0

>  <SCORE.SYSTEM.CONST>
0

>  <SCORE.SYSTEM.DIHEDRAL>
0

>  <SCORE.SYSTEM.SOLV>
0

>  <SCORE.SYSTEM.norm>
0

>  <SCORE.heavy>
16

>  <SCORE.norm>
-1.56688

>  <RMSD>
2.837

$$$$
1f27 biotin aptamer (Xray 1.3A)
 OpenBabel11021811393D
libRbt.so/2013.1/901 2013/11/27
 16 17  0  0  0  0  0  0  0  0999 V2000
   20.7361    0.5044   13.4253 C   0  0  0  0  0  0  0  0  0  0  0  0
   21.6195    0.6242   12.5823 O   0  5  0  0  0  0  0  0  0  0  0  0
   20.8376   -0.3542   14.2999 O   0  0  0  0  0  0  0  0  0  0  0  0
   19.5499    1.4601   13.4308 C   0  0  0  0  0  0  0  0  0  0  0  0
   18.1787    0.7577   13.5467 C   0  0  0  0  0  0  0  0  0  0  0  0
   17.0490    1.7575   13.7113 C   0  0  0  0  0  0  0  0  0  0  0  0
   15.6832    1.1131   13.8244 C   0  0  0  0  0  0  0  0  0  0  0  0
   14.5262    2.0934   14.0581 C   0  0  2  0  0  0  0  0  0  0  0  0
   12.8162    1.3028   14.3995 S   0  0  0  0  0  0  0  0  0  0  0  0
   12.0742    3.0313   14.0723 C   0  0  0  0  0  0  0  0  0  0  0  0
   12.9620    3.6452   12.9507 C   0  0  2  0  0  0  0  0  0  0  0  0
   12.2880    3.2377   11.6132 N   0  0  0  0  0  0  0  0  0  0  0  0
   13.0371    2.5511   10.8645 C   0  0  0  0  0  0  0  0  0  0  0  0
   12.7719    1.9157    9.7829 O   0  0  0  0  0  0  0  0  0  0  0  0
   14.2839    2.1673   11.4856 N   0  0  0  0  0  0  0  0  0  0  0  0
   14.2995    2.9404   12.8039 C   0  0  2  0  0  0  0  0  0  0  0  0
  1  2  1  0  0  0  0
  1  3  2  0  0  0  0
  1  4  1  0  0  0  0
  4  5  1  0  0  0  0
  5  6  1  0  0  0  0
  6  7  1  0  0  0  0
  8  7  1  6  0  0  0
  8  9  1  0  0  0  0
  8 16  1  0  0  0  0
  9 10  1  0  0  0  0
 11 10  1  1  0  0  0
 11 12  1  0  0  0  0
 11 16  1  0  0  0  0
 12 13  1  0  0  0  0
 13 14  2  0  0  0  0
 13 15  1  0  0  0  0
 16 15  1  6  0  0  0
M  CHG  1   2  -1
M  END
>  <CHROM.1>
132.22150910,173.31365764,179.80610627,177.25222797,-173.46808827,15.62078579
1.73081707,13.01485111,-0.16922240,0.22544454,-1.38443082

>  <Name>
1f27 biotin aptamer (Xray 1.3A)

>  <RI>
0

>  <Rbt.Current_Directory>
/home/itssahil/PROJECTS/Mol_Feturizer/New_Systems/rnas/1f27

>  <Rbt.Executable>
rbdock ($Id: //depot/dev/client3/rdock/2013.1/src/exe/rbdock.cxx#4 $)

>  <Rbt.Library>
libRbt.so (2013.1, Build901 2013/11/27)

>  <Rbt.Parameter_File>
/export/apps/rDock/src/rDock_2013.1_src/data/scripts/dock_solv.prm

>  <Rbt.Receptor>
prm/blind_docking_60.prm

>  <SCORE>
-25.3068

>  <SCORE.INTER>
-22.6519

>  <SCORE.INTER.CONST>
1

>  <SCORE.INTER.POLAR>
-1.31447

>  <SCORE.INTER.ROT>
5

>  <SCORE.INTER.SOLV>
13.0361

>  <SCORE.INTER.VDW>
-21.9984

>  <SCORE.INTER.norm>
-1.41575

>  <SCORE.INTRA>
-2.65486

>  <SCORE.INTRA.DIHEDRAL>
-5.19011

>  <SCORE.INTRA.DIHEDRAL.0>
6.87082

>  <SCORE.INTRA.POLAR>
0

>  <SCORE.INTRA.POLAR.0>
0

>  <SCORE.INTRA.REPUL>
0

>  <SCORE.INTRA.REPUL.0>
0

>  <SCORE.INTRA.SOLV>
-0.714246

>  <SCORE.INTRA.SOLV.lig_0>
-42.5944

>  <SCORE.INTRA.VDW>
0.297318

>  <SCORE.INTRA.VDW.0>
-1.067

>  <SCORE.INTRA.norm>
-0.165929

>  <SCORE.RESTR>
0

>  <SCORE.RESTR.CAVITY>
0

>  <SCORE.RESTR.norm>
0

>  <SCORE.SYSTEM>
0

>  <SCORE.SYSTEM.CONST>
0

>  <SCORE.SYSTEM.DIHEDRAL>
0

>  <SCORE.SYSTEM.SOLV>
0

>  <SCORE.SYSTEM.norm>
0

>  <SCORE.heavy>
16

>  <SCORE.norm>
-1.58167

>  <RMSD>
2.850

$$$$
1f27 biotin aptamer (Xray 1.3A)
 OpenBabel11021811393D
libRbt.so/2013.1/901 2013/11/27
 16 17  0  0  0  0  0  0  0  0999 V2000
   19.5261    1.9512   13.5439 C   0  0  0  0  0  0  0  0  0  0  0  0
   19.5989    2.7699   14.4548 O   0  5  0  0  0  0  0  0  0  0  0  0
   19.4335    2.3377   12.3800 O   0  0  0  0  0  0  0  0  0  0  0  0
   19.6191    0.4611   13.8461 C   0  0  0  0  0  0  0  0  0  0  0  0
   18.2590   -0.2018   14.1588 C   0  0  0  0  0  0  0  0  0  0  0  0
   17.3265   -0.1593   12.9624 C   0  0  0  0  0  0  0  0  0  0  0  0
   16.6804    1.1935   12.7473 C   0  0  0  0  0  0  0  0  0  0  0  0
   15.5777    1.5476   13.7538 C   0  0  2  0  0  0  0  0  0  0  0  0
   14.0574    0.3839   13.7723 S   0  0  0  0  0  0  0  0  0  0  0  0
   13.1713    1.7377   14.7858 C   0  0  0  0  0  0  0  0  0  0  0  0
   13.7039    3.0835   14.2128 C   0  0  2  0  0  0  0  0  0  0  0  0
   12.7249    3.4692   13.0718 N   0  0  0  0  0  0  0  0  0  0  0  0
   13.2854    3.5731   11.9456 C   0  0  0  0  0  0  0  0  0  0  0  0
   12.7787    3.7123   10.7762 O   0  0  0  0  0  0  0  0  0  0  0  0
   14.6685    3.1552   11.9451 N   0  0  0  0  0  0  0  0  0  0  0  0
   14.9897    2.9207   13.4209 C   0  0  2  0  0  0  0  0  0  0  0  0
  1  2  1  0  0  0  0
  1  3  2  0  0  0  0
  1  4  1  0  0  0  0
  4  5  1  0  0  0  0
  5  6  1  0  0  0  0
  6  7  1  0  0  0  0
  8  7  1  6  0  0  0
  8  9  1  0  0  0  0
  8 16  1  0  0  0  0
  9 10  1  0  0  0  0
 11 10  1  6  0  0  0
 11 12  1  0  0  0  0
 11 16  1  0  0  0  0
 12 13  1  0  0  0  0
 13 14  2  0  0  0  0
 13 15  1  0  0  0  0
 16 15  1  6  0  0  0
M  CHG  1   2  -1
M  END
>  <CHROM.1>
88.86770893,64.07194507,-77.53812026,-73.49104785,-61.56735136,15.84044393
1.89125109,13.25133506,-0.28596187,0.01959478,-0.56196467

>  <Name>
1f27 biotin aptamer (Xray 1.3A)

>  <RI>
224

>  <Rbt.Current_Directory>
/home/itssahil/PROJECTS/Mol_Feturizer/New_Systems/rnas/1f27

>  <Rbt.Executable>
rbdock ($Id: //depot/dev/client3/rdock/2013.1/src/exe/rbdock.cxx#4 $)

>  <Rbt.Library>
libRbt.so (2013.1, Build901 2013/11/27)

>  <Rbt.Parameter_File>
/export/apps/rDock/src/rDock_2013.1_src/data/scripts/dock_solv.prm

>  <Rbt.Receptor>
prm/blind_docking_80.prm

>  <SCORE>
-18.9905

>  <SCORE.INTER>
-18.5325

>  <SCORE.INTER.CONST>
1

>  <SCORE.INTER.POLAR>
0

>  <SCORE.INTER.ROT>
5

>  <SCORE.INTER.SOLV>
16.7324

>  <SCORE.INTER.VDW>
-24.8658

>  <SCORE.INTER.norm>
-1.15828

>  <SCORE.INTRA>
-0.462042

>  <SCORE.INTRA.DIHEDRAL>
-3.39731

>  <SCORE.INTRA.DIHEDRAL.0>
6.87082

>  <SCORE.INTRA.POLAR>
0

>  <SCORE.INTRA.POLAR.0>
0

>  <SCORE.INTRA.REPUL>
0

>  <SCORE.INTRA.REPUL.0>
0

>  <SCORE.INTRA.SOLV>
1.85116

>  <SCORE.INTRA.SOLV.lig_0>
-42.5944

>  <SCORE.INTRA.VDW>
0.311036

>  <SCORE.INTRA.VDW.0>
-1.067

>  <SCORE.INTRA.norm>
-0.0288776

>  <SCORE.RESTR>
0.00401063

>  <SCORE.RESTR.CAVITY>
0.00401063

>  <SCORE.RESTR.norm>
0.000250665

>  <SCORE.SYSTEM>
0

>  <SCORE.SYSTEM.CONST>
0

>  <SCORE.SYSTEM.DIHEDRAL>
0

>  <SCORE.SYSTEM.SOLV>
0

>  <SCORE.SYSTEM.norm>
0

>  <SCORE.heavy>
16

>  <SCORE.norm>
-1.18691

>  <RMSD>
2.855

$$$$
1f27 biotin aptamer (Xray 1.3A)
 OpenBabel11021811393D
libRbt.so/2013.1/901 2013/11/27
 16 17  0  0  0  0  0  0  0  0999 V2000
   20.2974   -1.8355   12.9598 C   0  0  0  0  0  0  0  0  0  0  0  0
   20.1938   -2.8565   12.2874 O   0  5  0  0  0  0  0  0  0  0  0  0
   20.0735   -1.8736   14.1685 O   0  0  0  0  0  0  0  0  0  0  0  0
   20.7683   -0.5390   12.3134 C   0  0  0  0  0  0  0  0  0  0  0  0
   20.0081    0.7158   12.7977 C   0  0  0  0  0  0  0  0  0  0  0  0
   18.5491    0.6826   12.3817 C   0  0  0  0  0  0  0  0  0  0  0  0
   17.7836    1.9330   12.7612 C   0  0  0  0  0  0  0  0  0  0  0  0
   16.3456    1.9938   12.2295 C   0  0  2  0  0  0  0  0  0  0  0  0
   15.4485    3.6728   12.4341 S   0  0  0  0  0  0  0  0  0  0  0  0
   13.8346    2.7345   12.0344 C   0  0  0  0  0  0  0  0  0  0  0  0
   14.0140    1.3301   12.6816 C   0  0  2  0  0  0  0  0  0  0  0  0
   13.4408    1.4553   14.1186 N   0  0  0  0  0  0  0  0  0  0  0  0
   14.2899    1.2072   15.0190 C   0  0  0  0  0  0  0  0  0  0  0  0
   14.2224    1.3657   16.2895 O   0  0  0  0  0  0  0  0  0  0  0  0
   15.6318    1.0227   14.5164 N   0  0  0  0  0  0  0  0  0  0  0  0
   15.4640    1.0063   12.9973 C   0  0  2  0  0  0  0  0  0  0  0  0
  1  2  1  0  0  0  0
  1  3  2  0  0  0  0
  1  4  1  0  0  0  0
  4  5  1  0  0  0  0
  5  6  1  0  0  0  0
  6  7  1  0  0  0  0
  8  7  1  1  0  0  0
  8  9  1  0  0  0  0
  8 16  1  0  0  0  0
  9 10  1  0  0  0  0
 11 10  1  1  0  0  0
 11 12  1  0  0  0  0
 11 16  1  0  0  0  0
 12 13  1  0  0  0  0
 13 14  2  0  0  0  0
 13 15  1  0  0  0  0
 16 15  1  1  0  0  0
M  CHG  1   2  -1
M  END
>  <CHROM.1>
139.64154522,-65.69599738,-176.45047612,174.00351182,-170.10639004,16.81484698
0.93568167,13.22052986,0.32416561,-0.46194214,2.41427217

>  <Name>
1f27 biotin aptamer (Xray 1.3A)

>  <RI>
0

>  <Rbt.Current_Directory>
/home/itssahil/PROJECTS/Mol_Feturizer/New_Systems/rnas/1f27

>  <Rbt.Executable>
rbdock ($Id: //depot/dev/client3/rdock/2013.1/src/exe/rbdock.cxx#4 $)

>  <Rbt.Library>
libRbt.so (2013.1, Build901 2013/11/27)

>  <Rbt.Parameter_File>
/export/apps/rDock/src/rDock_2013.1_src/data/scripts/dock_solv.prm

>  <Rbt.Receptor>
prm/pocket_docking_5.prm

>  <SCORE>
-24.4859

>  <SCORE.INTER>
-22.5093

>  <SCORE.INTER.CONST>
1

>  <SCORE.INTER.POLAR>
-0.87178

>  <SCORE.INTER.ROT>
5

>  <SCORE.INTER.SOLV>
10.9812

>  <SCORE.INTER.VDW>
-22.694

>  <SCORE.INTER.norm>
-1.40683

>  <SCORE.INTRA>
-1.97664

>  <SCORE.INTRA.DIHEDRAL>
-4.87589

>  <SCORE.INTRA.DIHEDRAL.0>
6.87082

>  <SCORE.INTRA.POLAR>
0

>  <SCORE.INTRA.POLAR.0>
0

>  <SCORE.INTRA.REPUL>
0

>  <SCORE.INTRA.REPUL.0>
0

>  <SCORE.INTRA.SOLV>
0.20517

>  <SCORE.INTRA.SOLV.lig_0>
-42.5944

>  <SCORE.INTRA.VDW>
0.358714

>  <SCORE.INTRA.VDW.0>
-1.067

>  <SCORE.INTRA.norm>
-0.12354

>  <SCORE.RESTR>
0

>  <SCORE.RESTR.CAVITY>
0

>  <SCORE.RESTR.norm>
0

>  <SCORE.SYSTEM>
0

>  <SCORE.SYSTEM.CONST>
0

>  <SCORE.SYSTEM.DIHEDRAL>
0

>  <SCORE.SYSTEM.SOLV>
0

>  <SCORE.SYSTEM.norm>
0

>  <SCORE.heavy>
16

>  <SCORE.norm>
-1.53037

>  <RMSD>
2.911

$$$$
1f27 biotin aptamer (Xray 1.3A)
 OpenBabel11021811393D
libRbt.so/2013.1/901 2013/11/27
 16 17  0  0  0  0  0  0  0  0999 V2000
   20.7615   -0.4037   12.9065 C   0  0  0  0  0  0  0  0  0  0  0  0
   19.8104   -0.9966   12.4071 O   0  5  0  0  0  0  0  0  0  0  0  0
   21.8406   -0.3727   12.3175 O   0  0  0  0  0  0  0  0  0  0  0  0
   20.5887    0.3501   14.2189 C   0  0  0  0  0  0  0  0  0  0  0  0
   20.3159    1.8607   14.0437 C   0  0  0  0  0  0  0  0  0  0  0  0
   19.1287    2.1140   13.1330 C   0  0  0  0  0  0  0  0  0  0  0  0
   17.8283    1.5471   13.6634 C   0  0  0  0  0  0  0  0  0  0  0  0
   16.6173    1.7431   12.7417 C   0  0  2  0  0  0  0  0  0  0  0  0
   15.8605    3.5016   12.7178 S   0  0  0  0  0  0  0  0  0  0  0  0
   14.3503    2.7208   11.8491 C   0  0  0  0  0  0  0  0  0  0  0  0
   14.2031    1.3091   12.4883 C   0  0  2  0  0  0  0  0  0  0  0  0
   13.2538    1.4961   13.7020 N   0  0  0  0  0  0  0  0  0  0  0  0
   13.7796    1.1722   14.8028 C   0  0  0  0  0  0  0  0  0  0  0  0
   13.3634    1.3430   16.0033 O   0  0  0  0  0  0  0  0  0  0  0  0
   15.1861    0.8569   14.7035 N   0  0  0  0  0  0  0  0  0  0  0  0
   15.4633    0.8489   13.2005 C   0  0  2  0  0  0  0  0  0  0  0  0
  1  2  1  0  0  0  0
  1  3  2  0  0  0  0
  1  4  1  0  0  0  0
  4  5  1  0  0  0  0
  5  6  1  0  0  0  0
  6  7  1  0  0  0  0
  8  7  1  1  0  0  0
  8  9  1  0  0  0  0
  8 16  1  0  0  0  0
  9 10  1  0  0  0  0
 11 10  1  1  0  0  0
 11 12  1  0  0  0  0
 11 16  1  0  0  0  0
 12 13  1  0  0  0  0
 13 14  2  0  0  0  0
 13 15  1  0  0  0  0
 16 15  1  1  0  0  0
M  CHG  1   2  -1
M  END
>  <CHROM.1>
-96.22111932,54.28751964,61.88677493,-177.93610395,-76.40135065,16.95921719
1.34776005,13.39170002,0.10979435,-0.24700390,2.43689410

>  <Name>
1f27 biotin aptamer (Xray 1.3A)

>  <RI>
0

>  <Rbt.Current_Directory>
/home/itssahil/PROJECTS/Mol_Feturizer/New_Systems/rnas/1f27

>  <Rbt.Executable>
rbdock ($Id: //depot/dev/client3/rdock/2013.1/src/exe/rbdock.cxx#4 $)

>  <Rbt.Library>
libRbt.so (2013.1, Build901 2013/11/27)

>  <Rbt.Parameter_File>
/export/apps/rDock/src/rDock_2013.1_src/data/scripts/dock_solv.prm

>  <Rbt.Receptor>
prm/blind_docking_40.prm

>  <SCORE>
-26.2859

>  <SCORE.INTER>
-25.1849

>  <SCORE.INTER.CONST>
1

>  <SCORE.INTER.POLAR>
-1.85616

>  <SCORE.INTER.ROT>
5

>  <SCORE.INTER.SOLV>
15.8779

>  <SCORE.INTER.VDW>
-22.8287

>  <SCORE.INTER.norm>
-1.57405

>  <SCORE.INTRA>
-1.10107

>  <SCORE.INTRA.DIHEDRAL>
-4.45534

>  <SCORE.INTRA.DIHEDRAL.0>
6.87082

>  <SCORE.INTRA.POLAR>
0

>  <SCORE.INTRA.POLAR.0>
0

>  <SCORE.INTRA.REPUL>
0

>  <SCORE.INTRA.REPUL.0>
0

>  <SCORE.INTRA.SOLV>
1.04332

>  <SCORE.INTRA.SOLV.lig_0>
-42.5944

>  <SCORE.INTRA.VDW>
0.604941

>  <SCORE.INTRA.VDW.0>
-1.067

>  <SCORE.INTRA.norm>
-0.0688166

>  <SCORE.RESTR>
0

>  <SCORE.RESTR.CAVITY>
0

>  <SCORE.RESTR.norm>
0

>  <SCORE.SYSTEM>
0

>  <SCORE.SYSTEM.CONST>
0

>  <SCORE.SYSTEM.DIHEDRAL>
0

>  <SCORE.SYSTEM.SOLV>
0

>  <SCORE.SYSTEM.norm>
0

>  <SCORE.heavy>
16

>  <SCORE.norm>
-1.64287

>  <RMSD>
2.973

$$$$
1f27 biotin aptamer (Xray 1.3A)
 OpenBabel11021811393D
libRbt.so/2013.1/901 2013/11/27
 16 17  0  0  0  0  0  0  0  0999 V2000
   20.3956   -1.8861   15.0980 C   0  0  0  0  0  0  0  0  0  0  0  0
   20.6307   -3.0755   14.9094 O   0  5  0  0  0  0  0  0  0  0  0  0
   21.3151   -1.1167   15.3717 O   0  0  0  0  0  0  0  0  0  0  0  0
   18.9800   -1.3501   14.9266 C   0  0  0  0  0  0  0  0  0  0  0  0
   18.5152   -1.2647   13.4557 C   0  0  0  0  0  0  0  0  0  0  0  0
   17.1051   -0.7149   13.3445 C   0  0  0  0  0  0  0  0  0  0  0  0
   16.9840    0.7307   13.7795 C   0  0  0  0  0  0  0  0  0  0  0  0
   16.0852    1.5979   12.8881 C   0  0  2  0  0  0  0  0  0  0  0  0
   15.9956    3.4549   13.3457 S   0  0  0  0  0  0  0  0  0  0  0  0
   14.4752    3.5522   12.1951 C   0  0  0  0  0  0  0  0  0  0  0  0
   13.7468    2.1881   12.3735 C   0  0  2  0  0  0  0  0  0  0  0  0
   12.7329    2.4029   13.5288 N   0  0  0  0  0  0  0  0  0  0  0  0
   12.9247    1.6347   14.5118 C   0  0  0  0  0  0  0  0  0  0  0  0
   12.3999    1.6371   15.6816 O   0  0  0  0  0  0  0  0  0  0  0  0
   14.1323    0.8484   14.4068 N   0  0  0  0  0  0  0  0  0  0  0  0
   14.6347    1.1207   12.9893 C   0  0  2  0  0  0  0  0  0  0  0  0
  1  2  1  0  0  0  0
  1  3  2  0  0  0  0
  1  4  1  0  0  0  0
  4  5  1  0  0  0  0
  5  6  1  0  0  0  0
  6  7  1  0  0  0  0
  8  7  1  1  0  0  0
  8  9  1  0  0  0  0
  8 16  1  0  0  0  0
  9 10  1  0  0  0  0
 11 10  1  1  0  0  0
 11 12  1  0  0  0  0
 11 16  1  0  0  0  0
 12 13  1  0  0  0  0
 13 14  2  0  0  0  0
 13 15  1  0  0  0  0
 16 15  1  1  0  0  0
M  CHG  1   2  -1
M  END
>  <CHROM.1>
-72.40532563,-179.54246605,66.18928368,138.58022661,-176.35827060,16.32360510
0.79357377,13.91963885,0.57183771,-0.19104865,2.57976021

>  <Name>
1f27 biotin aptamer (Xray 1.3A)

>  <RI>
0

>  <Rbt.Current_Directory>
/home/itssahil/PROJECTS/Mol_Feturizer/New_Systems/rnas/1f27

>  <Rbt.Executable>
rbdock ($Id: //depot/dev/client3/rdock/2013.1/src/exe/rbdock.cxx#4 $)

>  <Rbt.Library>
libRbt.so (2013.1, Build901 2013/11/27)

>  <Rbt.Parameter_File>
/export/apps/rDock/src/rDock_2013.1_src/data/scripts/dock_solv.prm

>  <Rbt.Receptor>
prm/pocket_docking_7.prm

>  <SCORE>
-21.4039

>  <SCORE.INTER>
-21.5308

>  <SCORE.INTER.CONST>
1

>  <SCORE.INTER.POLAR>
-0.848528

>  <SCORE.INTER.ROT>
5

>  <SCORE.INTER.SOLV>
7.6675

>  <SCORE.INTER.VDW>
-21.0146

>  <SCORE.INTER.norm>
-1.34567

>  <SCORE.INTRA>
0.126896

>  <SCORE.INTRA.DIHEDRAL>
-0.575999

>  <SCORE.INTRA.DIHEDRAL.0>
6.87082

>  <SCORE.INTRA.POLAR>
0

>  <SCORE.INTRA.POLAR.0>
0

>  <SCORE.INTRA.REPUL>
0

>  <SCORE.INTRA.REPUL.0>
0

>  <SCORE.INTRA.SOLV>
-0.697899

>  <SCORE.INTRA.SOLV.lig_0>
-42.5944

>  <SCORE.INTRA.VDW>
0.763845

>  <SCORE.INTRA.VDW.0>
-1.067

>  <SCORE.INTRA.norm>
0.00793098

>  <SCORE.RESTR>
0

>  <SCORE.RESTR.CAVITY>
0

>  <SCORE.RESTR.norm>
0

>  <SCORE.SYSTEM>
0

>  <SCORE.SYSTEM.CONST>
0

>  <SCORE.SYSTEM.DIHEDRAL>
0

>  <SCORE.SYSTEM.SOLV>
0

>  <SCORE.SYSTEM.norm>
0

>  <SCORE.heavy>
16

>  <SCORE.norm>
-1.33774

>  <RMSD>
3.006

$$$$
1f27 biotin aptamer (Xray 1.3A)
 OpenBabel11021811393D
libRbt.so/2013.1/901 2013/11/27
 16 17  0  0  0  0  0  0  0  0999 V2000
   21.1815    0.2711   13.7458 C   0  0  0  0  0  0  0  0  0  0  0  0
   21.8468    0.8290   14.6126 O   0  5  0  0  0  0  0  0  0  0  0  0
   21.7127   -0.0653   12.6888 O   0  0  0  0  0  0  0  0  0  0  0  0
   19.7185   -0.0660   14.0035 C   0  0  0  0  0  0  0  0  0  0  0  0
   18.8334   -0.0285   12.7377 C   0  0  0  0  0  0  0  0  0  0  0  0
   18.7730    1.3639   12.1372 C   0  0  0  0  0  0  0  0  0  0  0  0
   17.7716    2.2731   12.8186 C   0  0  0  0  0  0  0  0  0  0  0  0
   16.3421    2.1833   12.2683 C   0  0  2  0  0  0  0  0  0  0  0  0
   15.2666    3.7539   12.4740 S   0  0  0  0  0  0  0  0  0  0  0  0
   13.7684    2.6507   12.0457 C   0  0  0  0  0  0  0  0  0  0  0  0
   14.0903    1.2681   12.6844 C   0  0  2  0  0  0  0  0  0  0  0  0
   13.4893    1.3177   14.1146 N   0  0  0  0  0  0  0  0  0  0  0  0
   14.3489    1.1545   15.0243 C   0  0  0  0  0  0  0  0  0  0  0  0
   14.2491    1.2933   16.2949 O   0  0  0  0  0  0  0  0  0  0  0  0
   15.7091    1.1202   14.5380 N   0  0  0  0  0  0  0  0  0  0  0  0
   15.5628    1.0996   13.0168 C   0  0  2  0  0  0  0  0  0  0  0  0
  1  2  1  0  0  0  0
  1  3  2  0  0  0  0
  1  4  1  0  0  0  0
  4  5  1  0  0  0  0
  5  6  1  0  0  0  0
  6  7  1  0  0  0  0
  8  7  1  1  0  0  0
  8  9  1  0  0  0  0
  8 16  1  0  0  0  0
  9 10  1  0  0  0  0
 11 10  1  1  0  0  0
 11 12  1  0  0  0  0
 11 16  1  0  0  0  0
 12 13  1  0  0  0  0
 13 14  2  0  0  0  0
 13 15  1  0  0  0  0
 16 15  1  1  0  0  0
M  CHG  1   2  -1
M  END
>  <CHROM.1>
148.59735330,-63.28532705,-81.72359477,-87.09768675,-153.21326540,16.95266814
1.45192695,13.40900561,0.12655043,-0.22391862,2.14508912

>  <Name>
1f27 biotin aptamer (Xray 1.3A)

>  <RI>
0

>  <Rbt.Current_Directory>
/home/itssahil/PROJECTS/Mol_Feturizer/New_Systems/rnas/1f27

>  <Rbt.Executable>
rbdock ($Id: //depot/dev/client3/rdock/2013.1/src/exe/rbdock.cxx#4 $)

>  <Rbt.Library>
libRbt.so (2013.1, Build901 2013/11/27)

>  <Rbt.Parameter_File>
/export/apps/rDock/src/rDock_2013.1_src/data/scripts/dock_solv.prm

>  <Rbt.Receptor>
prm/pocket_docking_8.prm

>  <SCORE>
-22.3096

>  <SCORE.INTER>
-23.4387

>  <SCORE.INTER.CONST>
1

>  <SCORE.INTER.POLAR>
-1.4357

>  <SCORE.INTER.ROT>
5

>  <SCORE.INTER.SOLV>
16.354

>  <SCORE.INTER.VDW>
-23.2248

>  <SCORE.INTER.norm>
-1.46492

>  <SCORE.INTRA>
1.12918

>  <SCORE.INTRA.DIHEDRAL>
1.25723

>  <SCORE.INTRA.DIHEDRAL.0>
6.87082

>  <SCORE.INTRA.POLAR>
0

>  <SCORE.INTRA.POLAR.0>
0

>  <SCORE.INTRA.REPUL>
0

>  <SCORE.INTRA.REPUL.0>
0

>  <SCORE.INTRA.SOLV>
0.554939

>  <SCORE.INTRA.SOLV.lig_0>
-42.5944

>  <SCORE.INTRA.VDW>
0.2231

>  <SCORE.INTRA.VDW.0>
-1.067

>  <SCORE.INTRA.norm>
0.070574

>  <SCORE.RESTR>
0

>  <SCORE.RESTR.CAVITY>
0

>  <SCORE.RESTR.norm>
0

>  <SCORE.SYSTEM>
0

>  <SCORE.SYSTEM.CONST>
0

>  <SCORE.SYSTEM.DIHEDRAL>
0

>  <SCORE.SYSTEM.SOLV>
0

>  <SCORE.SYSTEM.norm>
0

>  <SCORE.heavy>
16

>  <SCORE.norm>
-1.39435

>  <RMSD>
3.023

$$$$
1f27 biotin aptamer (Xray 1.3A)
 OpenBabel11021811393D
libRbt.so/2013.1/901 2013/11/27
 16 17  0  0  0  0  0  0  0  0999 V2000
   20.3342   -0.2852   14.6781 C   0  0  0  0  0  0  0  0  0  0  0  0
   21.1230   -1.1078   14.2236 O   0  5  0  0  0  0  0  0  0  0  0  0
   19.4644   -0.6443   15.4699 O   0  0  0  0  0  0  0  0  0  0  0  0
   20.4735    1.1881   14.3169 C   0  0  0  0  0  0  0  0  0  0  0  0
   20.2855    1.4859   12.8126 C   0  0  0  0  0  0  0  0  0  0  0  0
   18.8521    1.2558   12.3706 C   0  0  0  0  0  0  0  0  0  0  0  0
   17.8768    2.2708   12.9295 C   0  0  0  0  0  0  0  0  0  0  0  0
   16.4768    2.2310   12.3030 C   0  0  2  0  0  0  0  0  0  0  0  0
   15.4337    3.8263   12.4846 S   0  0  0  0  0  0  0  0  0  0  0  0
   13.9318    2.7732   11.9551 C   0  0  0  0  0  0  0  0  0  0  0  0
   14.1827    1.3701   12.5808 C   0  0  2  0  0  0  0  0  0  0  0  0
   13.5080    1.4083   13.9781 N   0  0  0  0  0  0  0  0  0  0  0  0
   14.3134    1.2038   14.9281 C   0  0  0  0  0  0  0  0  0  0  0  0
   14.1499    1.3204   16.1944 O   0  0  0  0  0  0  0  0  0  0  0  0
   15.6961    1.1417   14.5135 N   0  0  0  0  0  0  0  0  0  0  0  0
   15.6304    1.1547   12.9866 C   0  0  2  0  0  0  0  0  0  0  0  0
  1  2  1  0  0  0  0
  1  3  2  0  0  0  0
  1  4  1  0  0  0  0
  4  5  1  0  0  0  0
  5  6  1  0  0  0  0
  6  7  1  0  0  0  0
  8  7  1  1  0  0  0
  8  9  1  0  0  0  0
  8 16  1  0  0  0  0
  9 10  1  0  0  0  0
 11 10  1  1  0  0  0
 11 12  1  0  0  0  0
 11 16  1  0  0  0  0
 12 13  1  0  0  0  0
 13 14  2  0  0  0  0
 13 15  1  0  0  0  0
 16 15  1  1  0  0  0
M  CHG  1   2  -1
M  END
>  <CHROM.1>
63.14514481,68.30567775,69.44241287,169.10124166,-158.73246037,16.89239448
1.45092457,13.62410252,0.31939384,-0.19366779,2.26299349

>  <Name>
1f27 biotin aptamer (Xray 1.3A)

>  <RI>
0

>  <Rbt.Current_Directory>
/home/itssahil/PROJECTS/Mol_Feturizer/New_Systems/rnas/1f27

>  <Rbt.Executable>
rbdock ($Id: //depot/dev/client3/rdock/2013.1/src/exe/rbdock.cxx#4 $)

>  <Rbt.Library>
libRbt.so (2013.1, Build901 2013/11/27)

>  <Rbt.Parameter_File>
/export/apps/rDock/src/rDock_2013.1_src/data/scripts/dock_solv.prm

>  <Rbt.Receptor>
prm/pocket_docking_5.prm

>  <SCORE>
-23.5762

>  <SCORE.INTER>
-22.7595

>  <SCORE.INTER.CONST>
1

>  <SCORE.INTER.POLAR>
-0.861016

>  <SCORE.INTER.ROT>
5

>  <SCORE.INTER.SOLV>
12.0021

>  <SCORE.INTER.VDW>
-23.237

>  <SCORE.INTER.norm>
-1.42247

>  <SCORE.INTRA>
-0.816645

>  <SCORE.INTRA.DIHEDRAL>
-2.74186

>  <SCORE.INTRA.DIHEDRAL.0>
6.87082

>  <SCORE.INTRA.POLAR>
0

>  <SCORE.INTRA.POLAR.0>
0

>  <SCORE.INTRA.REPUL>
0

>  <SCORE.INTRA.REPUL.0>
0

>  <SCORE.INTRA.SOLV>
0.615508

>  <SCORE.INTRA.SOLV.lig_0>
-42.5944

>  <SCORE.INTRA.VDW>
0.24653

>  <SCORE.INTRA.VDW.0>
-1.067

>  <SCORE.INTRA.norm>
-0.0510403

>  <SCORE.RESTR>
0

>  <SCORE.RESTR.CAVITY>
0

>  <SCORE.RESTR.norm>
0

>  <SCORE.SYSTEM>
0

>  <SCORE.SYSTEM.CONST>
0

>  <SCORE.SYSTEM.DIHEDRAL>
0

>  <SCORE.SYSTEM.SOLV>
0

>  <SCORE.SYSTEM.norm>
0

>  <SCORE.heavy>
16

>  <SCORE.norm>
-1.47351

>  <RMSD>
3.054

$$$$
1f27 biotin aptamer (Xray 1.3A)
 OpenBabel11021811393D
libRbt.so/2013.1/901 2013/11/27
 16 17  0  0  0  0  0  0  0  0999 V2000
   19.9238    1.6648   14.1663 C   0  0  0  0  0  0  0  0  0  0  0  0
   21.1024    1.5783   14.4962 O   0  5  0  0  0  0  0  0  0  0  0  0
   19.0399    1.4020   14.9800 O   0  0  0  0  0  0  0  0  0  0  0  0
   19.5540    2.1620   12.7747 C   0  0  0  0  0  0  0  0  0  0  0  0
   18.6522    1.1909   11.9805 C   0  0  0  0  0  0  0  0  0  0  0  0
   17.3333    0.9443   12.6895 C   0  0  0  0  0  0  0  0  0  0  0  0
   16.4425    2.1675   12.7517 C   0  0  0  0  0  0  0  0  0  0  0  0
   15.2998    2.0804   13.7719 C   0  0  2  0  0  0  0  0  0  0  0  0
   14.1536    0.5547   13.6157 S   0  0  0  0  0  0  0  0  0  0  0  0
   12.9476    1.4797   14.7712 C   0  0  0  0  0  0  0  0  0  0  0  0
   13.0858    2.9801   14.3802 C   0  0  2  0  0  0  0  0  0  0  0  0
   12.0223    3.2246   13.2763 N   0  0  0  0  0  0  0  0  0  0  0  0
   12.5171    3.6163   12.1832 C   0  0  0  0  0  0  0  0  0  0  0  0
   11.9746    3.7573   11.0301 O   0  0  0  0  0  0  0  0  0  0  0  0
   13.9615    3.5932   12.1586 N   0  0  0  0  0  0  0  0  0  0  0  0
   14.3558    3.2726   13.6001 C   0  0  2  0  0  0  0  0  0  0  0  0
  1  2  1  0  0  0  0
  1  3  2  0  0  0  0
  1  4  1  0  0  0  0
  4  5  1  0  0  0  0
  5  6  1  0  0  0  0
  6  7  1  0  0  0  0
  8  7  1  6  0  0  0
  8  9  1  0  0  0  0
  8 16  1  0  0  0  0
  9 10  1  0  0  0  0
 11 10  1  6  0  0  0
 11 12  1  0  0  0  0
 11 16  1  0  0  0  0
 12 13  1  0  0  0  0
 13 14  2  0  0  0  0
 13 15  1  0  0  0  0
 16 15  1  6  0  0  0
M  CHG  1   2  -1
M  END
>  <CHROM.1>
124.77179790,60.45017563,67.00828941,-163.90115342,-54.16671041,15.67873790
2.10162407,13.30521588,0.21756628,-0.08292526,2.20664820

>  <Name>
1f27 biotin aptamer (Xray 1.3A)

>  <RI>
224

>  <Rbt.Current_Directory>
/home/itssahil/PROJECTS/Mol_Feturizer/New_Systems/rnas/1f27

>  <Rbt.Executable>
rbdock ($Id: //depot/dev/client3/rdock/2013.1/src/exe/rbdock.cxx#4 $)

>  <Rbt.Library>
libRbt.so (2013.1, Build901 2013/11/27)

>  <Rbt.Parameter_File>
/export/apps/rDock/src/rDock_2013.1_src/data/scripts/dock_solv.prm

>  <Rbt.Receptor>
prm/blind_docking_80.prm

>  <SCORE>
-20.2816

>  <SCORE.INTER>
-19.5942

>  <SCORE.INTER.CONST>
1

>  <SCORE.INTER.POLAR>
0

>  <SCORE.INTER.ROT>
5

>  <SCORE.INTER.SOLV>
17.4788

>  <SCORE.INTER.VDW>
-25.8224

>  <SCORE.INTER.norm>
-1.22464

>  <SCORE.INTRA>
-0.689736

>  <SCORE.INTRA.DIHEDRAL>
-4.15251

>  <SCORE.INTRA.DIHEDRAL.0>
6.87082

>  <SCORE.INTRA.POLAR>
0

>  <SCORE.INTRA.POLAR.0>
0

>  <SCORE.INTRA.REPUL>
0

>  <SCORE.INTRA.REPUL.0>
0

>  <SCORE.INTRA.SOLV>
0.999298

>  <SCORE.INTRA.SOLV.lig_0>
-42.5944

>  <SCORE.INTRA.VDW>
0.886871

>  <SCORE.INTRA.VDW.0>
-1.067

>  <SCORE.INTRA.norm>
-0.0431085

>  <SCORE.RESTR>
0.00240199

>  <SCORE.RESTR.CAVITY>
0.00240199

>  <SCORE.RESTR.norm>
0.000150124

>  <SCORE.SYSTEM>
0

>  <SCORE.SYSTEM.CONST>
0

>  <SCORE.SYSTEM.DIHEDRAL>
0

>  <SCORE.SYSTEM.SOLV>
0

>  <SCORE.SYSTEM.norm>
0

>  <SCORE.heavy>
16

>  <SCORE.norm>
-1.2676

>  <RMSD>
3.071

$$$$
1f27 biotin aptamer (Xray 1.3A)
 OpenBabel11021811393D
libRbt.so/2013.1/901 2013/11/27
 16 17  0  0  0  0  0  0  0  0999 V2000
   21.4964   -1.0361   16.7783 C   0  0  0  0  0  0  0  0  0  0  0  0
   22.0765   -1.6691   17.6547 O   0  5  0  0  0  0  0  0  0  0  0  0
   21.3316    0.1759   16.9065 O   0  0  0  0  0  0  0  0  0  0  0  0
   21.0418   -1.7355   15.5037 C   0  0  0  0  0  0  0  0  0  0  0  0
   19.5265   -2.0340   15.4580 C   0  0  0  0  0  0  0  0  0  0  0  0
   18.8523   -1.3339   14.2926 C   0  0  0  0  0  0  0  0  0  0  0  0
   18.7444    0.1664   14.4692 C   0  0  0  0  0  0  0  0  0  0  0  0
   18.1991    0.9205   13.2493 C   0  0  2  0  0  0  0  0  0  0  0  0
   18.3149    2.8301   13.3261 S   0  0  0  0  0  0  0  0  0  0  0  0
   17.0998    2.8533   11.8537 C   0  0  0  0  0  0  0  0  0  0  0  0
   16.1420    1.6517   12.1025 C   0  0  2  0  0  0  0  0  0  0  0  0
   14.9592    2.2234   12.9291 N   0  0  0  0  0  0  0  0  0  0  0  0
   14.8191    1.6662   14.0530 C   0  0  0  0  0  0  0  0  0  0  0  0
   14.0716    1.9788   15.0466 O   0  0  0  0  0  0  0  0  0  0  0  0
   15.8808    0.7422   14.3790 N   0  0  0  0  0  0  0  0  0  0  0  0
   16.7017    0.6457   13.0934 C   0  0  2  0  0  0  0  0  0  0  0  0
  1  2  1  0  0  0  0
  1  3  2  0  0  0  0
  1  4  1  0  0  0  0
  4  5  1  0  0  0  0
  5  6  1  0  0  0  0
  6  7  1  0  0  0  0
  8  7  1  1  0  0  0
  8  9  1  0  0  0  0
  8 16  1  0  0  0  0
  9 10  1  0  0  0  0
 11 10  1  1  0  0  0
 11 12  1  0  0  0  0
 11 16  1  0  0  0  0
 12 13  1  0  0  0  0
 13 14  2  0  0  0  0
 13 15  1  0  0  0  0
 16 15  1  1  0  0  0
M  CHG  1   2  -1
M  END
>  <CHROM.1>
103.26171827,119.12802232,-71.35898777,174.02209487,-170.39904083,18.11060805
0.67242530,14.41154805,-0.70903905,-0.01279730,-0.75788500

>  <Name>
1f27 biotin aptamer (Xray 1.3A)

>  <RI>
0

>  <Rbt.Current_Directory>
/home/itssahil/PROJECTS/Mol_Feturizer/New_Systems/rnas/1f27

>  <Rbt.Executable>
rbdock ($Id: //depot/dev/client3/rdock/2013.1/src/exe/rbdock.cxx#4 $)

>  <Rbt.Library>
libRbt.so (2013.1, Build901 2013/11/27)

>  <Rbt.Parameter_File>
/export/apps/rDock/src/rDock_2013.1_src/data/scripts/dock_solv.prm

>  <Rbt.Receptor>
prm/pocket_docking_8.prm

>  <SCORE>
-19.6014

>  <SCORE.INTER>
-20.3794

>  <SCORE.INTER.CONST>
1

>  <SCORE.INTER.POLAR>
-1.70633

>  <SCORE.INTER.ROT>
5

>  <SCORE.INTER.SOLV>
9.24802

>  <SCORE.INTER.VDW>
-17.9145

>  <SCORE.INTER.norm>
-1.27371

>  <SCORE.INTRA>
0.777973

>  <SCORE.INTRA.DIHEDRAL>
0.997243

>  <SCORE.INTRA.DIHEDRAL.0>
6.87082

>  <SCORE.INTRA.POLAR>
0

>  <SCORE.INTRA.POLAR.0>
0

>  <SCORE.INTRA.REPUL>
0

>  <SCORE.INTRA.REPUL.0>
0

>  <SCORE.INTRA.SOLV>
0.136572

>  <SCORE.INTRA.SOLV.lig_0>
-42.5944

>  <SCORE.INTRA.VDW>
0.211065

>  <SCORE.INTRA.VDW.0>
-1.067

>  <SCORE.INTRA.norm>
0.0486233

>  <SCORE.RESTR>
0

>  <SCORE.RESTR.CAVITY>
0

>  <SCORE.RESTR.norm>
0

>  <SCORE.SYSTEM>
0

>  <SCORE.SYSTEM.CONST>
0

>  <SCORE.SYSTEM.DIHEDRAL>
0

>  <SCORE.SYSTEM.SOLV>
0

>  <SCORE.SYSTEM.norm>
0

>  <SCORE.heavy>
16

>  <SCORE.norm>
-1.22509

>  <RMSD>
3.103

$$$$
1f27 biotin aptamer (Xray 1.3A)
 OpenBabel11021811393D
libRbt.so/2013.1/901 2013/11/27
 16 17  0  0  0  0  0  0  0  0999 V2000
   21.2958   -0.6294   16.9412 C   0  0  0  0  0  0  0  0  0  0  0  0
   21.7944    0.0429   17.8383 O   0  5  0  0  0  0  0  0  0  0  0  0
   21.3951   -1.8549   16.9678 O   0  0  0  0  0  0  0  0  0  0  0  0
   20.4972    0.0457   15.8335 C   0  0  0  0  0  0  0  0  0  0  0  0
   20.6093   -0.6564   14.4618 C   0  0  0  0  0  0  0  0  0  0  0  0
   19.8031    0.0632   13.3964 C   0  0  0  0  0  0  0  0  0  0  0  0
   18.3058   -0.0386   13.5997 C   0  0  0  0  0  0  0  0  0  0  0  0
   17.4661    0.8084   12.6344 C   0  0  2  0  0  0  0  0  0  0  0  0
   17.7569    2.6993   12.7112 S   0  0  0  0  0  0  0  0  0  0  0  0
   16.1442    2.8774   11.7050 C   0  0  0  0  0  0  0  0  0  0  0  0
   15.2192    1.7367   12.2208 C   0  0  2  0  0  0  0  0  0  0  0  0
   14.4104    2.3519   13.3941 N   0  0  0  0  0  0  0  0  0  0  0  0
   14.5882    1.7544   14.4916 C   0  0  0  0  0  0  0  0  0  0  0  0
   14.2224    2.0726   15.6784 O   0  0  0  0  0  0  0  0  0  0  0  0
   15.6188    0.7430   14.4414 N   0  0  0  0  0  0  0  0  0  0  0  0
   15.9792    0.6484   12.9591 C   0  0  2  0  0  0  0  0  0  0  0  0
  1  2  1  0  0  0  0
  1  3  2  0  0  0  0
  1  4  1  0  0  0  0
  4  5  1  0  0  0  0
  5  6  1  0  0  0  0
  6  7  1  0  0  0  0
  8  7  1  1  0  0  0
  8  9  1  0  0  0  0
  8 16  1  0  0  0  0
  9 10  1  0  0  0  0
 11 10  1  1  0  0  0
 11 12  1  0  0  0  0
 11 16  1  0  0  0  0
 12 13  1  0  0  0  0
 13 14  2  0  0  0  0
 13 15  1  0  0  0  0
 16 15  1  1  0  0  0
M  CHG  1   2  -1
M  END
>  <CHROM.1>
147.26151643,-179.60591395,-68.82458112,173.36623202,-61.12029246,17.84044206
0.92377710,14.26845992,0.57051634,-0.28039754,1.86728458

>  <Name>
1f27 biotin aptamer (Xray 1.3A)

>  <RI>
0

>  <Rbt.Current_Directory>
/home/itssahil/PROJECTS/Mol_Feturizer/New_Systems/rnas/1f27

>  <Rbt.Executable>
rbdock ($Id: //depot/dev/client3/rdock/2013.1/src/exe/rbdock.cxx#4 $)

>  <Rbt.Library>
libRbt.so (2013.1, Build901 2013/11/27)

>  <Rbt.Parameter_File>
/export/apps/rDock/src/rDock_2013.1_src/data/scripts/dock_solv.prm

>  <Rbt.Receptor>
prm/pocket_docking_6.prm

>  <SCORE>
-26.9983

>  <SCORE.INTER>
-24.718

>  <SCORE.INTER.CONST>
1

>  <SCORE.INTER.POLAR>
-2.26175

>  <SCORE.INTER.ROT>
5

>  <SCORE.INTER.SOLV>
10.462

>  <SCORE.INTER.VDW>
-19.3602

>  <SCORE.INTER.norm>
-1.54488

>  <SCORE.INTRA>
-2.28034

>  <SCORE.INTRA.DIHEDRAL>
-5.101

>  <SCORE.INTRA.DIHEDRAL.0>
6.87082

>  <SCORE.INTRA.POLAR>
0

>  <SCORE.INTRA.POLAR.0>
0

>  <SCORE.INTRA.REPUL>
0

>  <SCORE.INTRA.REPUL.0>
0

>  <SCORE.INTRA.SOLV>
-0.797849

>  <SCORE.INTRA.SOLV.lig_0>
-42.5944

>  <SCORE.INTRA.VDW>
0.669087

>  <SCORE.INTRA.VDW.0>
-1.067

>  <SCORE.INTRA.norm>
-0.142521

>  <SCORE.RESTR>
0

>  <SCORE.RESTR.CAVITY>
0

>  <SCORE.RESTR.norm>
0

>  <SCORE.SYSTEM>
0

>  <SCORE.SYSTEM.CONST>
0

>  <SCORE.SYSTEM.DIHEDRAL>
0

>  <SCORE.SYSTEM.SOLV>
0

>  <SCORE.SYSTEM.norm>
0

>  <SCORE.heavy>
16

>  <SCORE.norm>
-1.6874

>  <RMSD>
3.107

$$$$
1f27 biotin aptamer (Xray 1.3A)
 OpenBabel11021811393D
libRbt.so/2013.1/901 2013/11/27
 16 17  0  0  0  0  0  0  0  0999 V2000
   19.8940    1.6751   13.6315 C   0  0  0  0  0  0  0  0  0  0  0  0
   19.8166    2.0472   12.4649 O   0  5  0  0  0  0  0  0  0  0  0  0
   20.9962    1.4631   14.1341 O   0  0  0  0  0  0  0  0  0  0  0  0
   18.6336    1.5417   14.4766 C   0  0  0  0  0  0  0  0  0  0  0  0
   17.6988    0.3945   14.0325 C   0  0  0  0  0  0  0  0  0  0  0  0
   17.0556    0.6840   12.6889 C   0  0  0  0  0  0  0  0  0  0  0  0
   16.1798    1.9196   12.6916 C   0  0  0  0  0  0  0  0  0  0  0  0
   15.0440    1.9011   13.7231 C   0  0  2  0  0  0  0  0  0  0  0  0
   13.7741    0.4796   13.5433 S   0  0  0  0  0  0  0  0  0  0  0  0
   12.6602    1.4712   14.7354 C   0  0  0  0  0  0  0  0  0  0  0  0
   12.9181    2.9645   14.3795 C   0  0  2  0  0  0  0  0  0  0  0  0
   11.8676    3.3237   13.2948 N   0  0  0  0  0  0  0  0  0  0  0  0
   12.3822    3.7008   12.2057 C   0  0  0  0  0  0  0  0  0  0  0  0
   11.8419    3.9153   11.0630 O   0  0  0  0  0  0  0  0  0  0  0  0
   13.8195    3.5594   12.1633 N   0  0  0  0  0  0  0  0  0  0  0  0
   14.2001    3.1710   13.5917 C   0  0  2  0  0  0  0  0  0  0  0  0
  1  2  1  0  0  0  0
  1  3  2  0  0  0  0
  1  4  1  0  0  0  0
  4  5  1  0  0  0  0
  5  6  1  0  0  0  0
  6  7  1  0  0  0  0
  8  7  1  6  0  0  0
  8  9  1  0  0  0  0
  8 16  1  0  0  0  0
  9 10  1  0  0  0  0
 11 10  1  6  0  0  0
 11 12  1  0  0  0  0
 11 16  1  0  0  0  0
 12 13  1  0  0  0  0
 13 14  2  0  0  0  0
 13 15  1  0  0  0  0
 16 15  1  6  0  0  0
M  CHG  1   2  -1
M  END
>  <CHROM.1>
68.46317190,-68.78779741,-61.71584502,-57.17352815,-60.21952468,15.45089774
2.01858881,13.29254497,-0.22425513,0.05604383,-0.68452045

>  <Name>
1f27 biotin aptamer (Xray 1.3A)

>  <RI>
224

>  <Rbt.Current_Directory>
/home/itssahil/PROJECTS/Mol_Feturizer/New_Systems/rnas/1f27

>  <Rbt.Executable>
rbdock ($Id: //depot/dev/client3/rdock/2013.1/src/exe/rbdock.cxx#4 $)

>  <Rbt.Library>
libRbt.so (2013.1, Build901 2013/11/27)

>  <Rbt.Parameter_File>
/export/apps/rDock/src/rDock_2013.1_src/data/scripts/dock_solv.prm

>  <Rbt.Receptor>
prm/blind_docking_80.prm

>  <SCORE>
-20.4823

>  <SCORE.INTER>
-19.0359

>  <SCORE.INTER.CONST>
1

>  <SCORE.INTER.POLAR>
0

>  <SCORE.INTER.ROT>
5

>  <SCORE.INTER.SOLV>
15.526

>  <SCORE.INTER.VDW>
-24.7993

>  <SCORE.INTER.norm>
-1.18975

>  <SCORE.INTRA>
-1.44636

>  <SCORE.INTRA.DIHEDRAL>
-5.14253

>  <SCORE.INTRA.DIHEDRAL.0>
6.87082

>  <SCORE.INTRA.POLAR>
0

>  <SCORE.INTRA.POLAR.0>
0

>  <SCORE.INTRA.REPUL>
0

>  <SCORE.INTRA.REPUL.0>
0

>  <SCORE.INTRA.SOLV>
0.585398

>  <SCORE.INTRA.SOLV.lig_0>
-42.5944

>  <SCORE.INTRA.VDW>
0.832209

>  <SCORE.INTRA.VDW.0>
-1.067

>  <SCORE.INTRA.norm>
-0.0903972

>  <SCORE.RESTR>
0

>  <SCORE.RESTR.CAVITY>
0

>  <SCORE.RESTR.norm>
0

>  <SCORE.SYSTEM>
0

>  <SCORE.SYSTEM.CONST>
0

>  <SCORE.SYSTEM.DIHEDRAL>
0

>  <SCORE.SYSTEM.SOLV>
0

>  <SCORE.SYSTEM.norm>
0

>  <SCORE.heavy>
16

>  <SCORE.norm>
-1.28014

>  <RMSD>
3.123

$$$$
1f27 biotin aptamer (Xray 1.3A)
 OpenBabel11021811393D
libRbt.so/2013.1/901 2013/11/27
 16 17  0  0  0  0  0  0  0  0999 V2000
   21.6740   -0.6069   16.3830 C   0  0  0  0  0  0  0  0  0  0  0  0
   21.9264   -1.7858   16.1551 O   0  5  0  0  0  0  0  0  0  0  0  0
   22.0575   -0.0908   17.4314 O   0  0  0  0  0  0  0  0  0  0  0  0
   20.9476    0.2346   15.3416 C   0  0  0  0  0  0  0  0  0  0  0  0
   19.4770   -0.1809   15.1138 C   0  0  0  0  0  0  0  0  0  0  0  0
   18.7758    0.7500   14.1419 C   0  0  0  0  0  0  0  0  0  0  0  0
   17.3153    0.4113   13.9274 C   0  0  0  0  0  0  0  0  0  0  0  0
   16.5593    1.3768   13.0051 C   0  0  2  0  0  0  0  0  0  0  0  0
   16.5516    3.2141   13.5435 S   0  0  0  0  0  0  0  0  0  0  0  0
   15.1503    3.4669   12.2718 C   0  0  0  0  0  0  0  0  0  0  0  0
   14.3206    2.1506   12.3193 C   0  0  2  0  0  0  0  0  0  0  0  0
   13.2234    2.3860   13.3916 N   0  0  0  0  0  0  0  0  0  0  0  0
   13.2751    1.5648   14.3487 C   0  0  0  0  0  0  0  0  0  0  0  0
   12.6488    1.5536   15.4673 O   0  0  0  0  0  0  0  0  0  0  0  0
   14.4328    0.7011   14.3103 N   0  0  0  0  0  0  0  0  0  0  0  0
   15.0773    0.9982   12.9567 C   0  0  2  0  0  0  0  0  0  0  0  0
  1  2  1  0  0  0  0
  1  3  2  0  0  0  0
  1  4  1  0  0  0  0
  4  5  1  0  0  0  0
  5  6  1  0  0  0  0
  6  7  1  0  0  0  0
  8  7  1  1  0  0  0
  8  9  1  0  0  0  0
  8 16  1  0  0  0  0
  9 10  1  0  0  0  0
 11 10  1  1  0  0  0
 11 12  1  0  0  0  0
 11 16  1  0  0  0  0
 12 13  1  0  0  0  0
 13 14  2  0  0  0  0
 13 15  1  0  0  0  0
 16 15  1  1  0  0  0
M  CHG  1   2  -1
M  END
>  <CHROM.1>
68.18096383,175.96595842,-177.85642631,177.02771175,-57.91204584,17.07923866
1.15274251,14.36986675,0.47412224,-0.01903635,2.33489093

>  <Name>
1f27 biotin aptamer (Xray 1.3A)

>  <RI>
0

>  <Rbt.Current_Directory>
/home/itssahil/PROJECTS/Mol_Feturizer/New_Systems/rnas/1f27

>  <Rbt.Executable>
rbdock ($Id: //depot/dev/client3/rdock/2013.1/src/exe/rbdock.cxx#4 $)

>  <Rbt.Library>
libRbt.so (2013.1, Build901 2013/11/27)

>  <Rbt.Parameter_File>
/export/apps/rDock/src/rDock_2013.1_src/data/scripts/dock_solv.prm

>  <Rbt.Receptor>
prm/pocket_docking_8.prm

>  <SCORE>
-28.8279

>  <SCORE.INTER>
-25.8048

>  <SCORE.INTER.CONST>
1

>  <SCORE.INTER.POLAR>
-1.90919

>  <SCORE.INTER.ROT>
5

>  <SCORE.INTER.SOLV>
9.73592

>  <SCORE.INTER.VDW>
-21.0179

>  <SCORE.INTER.norm>
-1.6128

>  <SCORE.INTRA>
-3.02317

>  <SCORE.INTRA.DIHEDRAL>
-5.33317

>  <SCORE.INTRA.DIHEDRAL.0>
6.87082

>  <SCORE.INTRA.POLAR>
0

>  <SCORE.INTRA.POLAR.0>
0

>  <SCORE.INTRA.REPUL>
0

>  <SCORE.INTRA.REPUL.0>
0

>  <SCORE.INTRA.SOLV>
-0.866574

>  <SCORE.INTRA.SOLV.lig_0>
-42.5944

>  <SCORE.INTRA.VDW>
0.0767006

>  <SCORE.INTRA.VDW.0>
-1.067

>  <SCORE.INTRA.norm>
-0.188948

>  <SCORE.RESTR>
0

>  <SCORE.RESTR.CAVITY>
0

>  <SCORE.RESTR.norm>
0

>  <SCORE.SYSTEM>
0

>  <SCORE.SYSTEM.CONST>
0

>  <SCORE.SYSTEM.DIHEDRAL>
0

>  <SCORE.SYSTEM.SOLV>
0

>  <SCORE.SYSTEM.norm>
0

>  <SCORE.heavy>
16

>  <SCORE.norm>
-1.80175

>  <RMSD>
3.131

$$$$
1f27 biotin aptamer (Xray 1.3A)
 OpenBabel11021811393D
libRbt.so/2013.1/901 2013/11/27
 16 17  0  0  0  0  0  0  0  0999 V2000
   18.8788   -4.2462   14.6590 C   0  0  0  0  0  0  0  0  0  0  0  0
   19.5009   -4.6584   15.6329 O   0  5  0  0  0  0  0  0  0  0  0  0
   18.5026   -5.0358   13.7944 O   0  0  0  0  0  0  0  0  0  0  0  0
   18.5133   -2.7711   14.5536 C   0  0  0  0  0  0  0  0  0  0  0  0
   19.0008   -2.0952   13.2527 C   0  0  0  0  0  0  0  0  0  0  0  0
   18.6155   -0.6282   13.2049 C   0  0  0  0  0  0  0  0  0  0  0  0
   17.1190   -0.3967   13.1818 C   0  0  0  0  0  0  0  0  0  0  0  0
   16.6957    1.0499   12.8948 C   0  0  2  0  0  0  0  0  0  0  0  0
   17.4177    2.3807   14.0668 S   0  0  0  0  0  0  0  0  0  0  0  0
   16.1025    3.5660   13.3526 C   0  0  0  0  0  0  0  0  0  0  0  0
   14.8518    2.6746   13.0990 C   0  0  2  0  0  0  0  0  0  0  0  0
   14.0204    2.7378   14.4083 N   0  0  0  0  0  0  0  0  0  0  0  0
   13.8493    1.6093   14.9470 C   0  0  0  0  0  0  0  0  0  0  0  0
   13.3659    1.3021   16.0941 O   0  0  0  0  0  0  0  0  0  0  0  0
   14.5959    0.5456   14.3156 N   0  0  0  0  0  0  0  0  0  0  0  0
   15.1810    1.1923   13.0604 C   0  0  2  0  0  0  0  0  0  0  0  0
  1  2  1  0  0  0  0
  1  3  2  0  0  0  0
  1  4  1  0  0  0  0
  4  5  1  0  0  0  0
  5  6  1  0  0  0  0
  6  7  1  0  0  0  0
  8  7  1  1  0  0  0
  8  9  1  0  0  0  0
  8 16  1  0  0  0  0
  9 10  1  0  0  0  0
 11 10  1  1  0  0  0
 11 12  1  0  0  0  0
 11 16  1  0  0  0  0
 12 13  1  0  0  0  0
 13 14  2  0  0  0  0
 13 15  1  0  0  0  0
 16 15  1  1  0  0  0
M  CHG  1   2  -1
M  END
>  <CHROM.1>
124.84264126,-179.72279461,-63.55366763,-170.10987803,-55.79759602,16.70530076
-0.03679056,14.06835120,0.93627806,-0.42989632,2.80656712

>  <Name>
1f27 biotin aptamer (Xray 1.3A)

>  <RI>
0

>  <Rbt.Current_Directory>
/home/itssahil/PROJECTS/Mol_Feturizer/New_Systems/rnas/1f27

>  <Rbt.Executable>
rbdock ($Id: //depot/dev/client3/rdock/2013.1/src/exe/rbdock.cxx#4 $)

>  <Rbt.Library>
libRbt.so (2013.1, Build901 2013/11/27)

>  <Rbt.Parameter_File>
/export/apps/rDock/src/rDock_2013.1_src/data/scripts/dock_solv.prm

>  <Rbt.Receptor>
prm/pocket_docking_5.prm

>  <SCORE>
-25.6366

>  <SCORE.INTER>
-23.4088

>  <SCORE.INTER.CONST>
1

>  <SCORE.INTER.POLAR>
-1.65144

>  <SCORE.INTER.ROT>
5

>  <SCORE.INTER.SOLV>
11.0836

>  <SCORE.INTER.VDW>
-20.7289

>  <SCORE.INTER.norm>
-1.46305

>  <SCORE.INTRA>
-2.2278

>  <SCORE.INTRA.DIHEDRAL>
-4.99402

>  <SCORE.INTRA.DIHEDRAL.0>
6.87082

>  <SCORE.INTRA.POLAR>
0

>  <SCORE.INTRA.POLAR.0>
0

>  <SCORE.INTRA.REPUL>
0

>  <SCORE.INTRA.REPUL.0>
0

>  <SCORE.INTRA.SOLV>
-0.839043

>  <SCORE.INTRA.SOLV.lig_0>
-42.5944

>  <SCORE.INTRA.VDW>
0.688737

>  <SCORE.INTRA.VDW.0>
-1.067

>  <SCORE.INTRA.norm>
-0.139237

>  <SCORE.RESTR>
0

>  <SCORE.RESTR.CAVITY>
0

>  <SCORE.RESTR.norm>
0

>  <SCORE.SYSTEM>
0

>  <SCORE.SYSTEM.CONST>
0

>  <SCORE.SYSTEM.DIHEDRAL>
0

>  <SCORE.SYSTEM.SOLV>
0

>  <SCORE.SYSTEM.norm>
0

>  <SCORE.heavy>
16

>  <SCORE.norm>
-1.60229

>  <RMSD>
3.148

$$$$
1f27 biotin aptamer (Xray 1.3A)
 OpenBabel11021811393D
libRbt.so/2013.1/901 2013/11/27
 16 17  0  0  0  0  0  0  0  0999 V2000
   21.1731   -0.5426   16.2575 C   0  0  0  0  0  0  0  0  0  0  0  0
   21.3036   -1.7573   16.1441 O   0  5  0  0  0  0  0  0  0  0  0  0
   21.7160    0.0464   17.1906 O   0  0  0  0  0  0  0  0  0  0  0  0
   20.3983    0.2443   15.2082 C   0  0  0  0  0  0  0  0  0  0  0  0
   19.1035   -0.4510   14.7319 C   0  0  0  0  0  0  0  0  0  0  0  0
   18.5659    0.1767   13.4591 C   0  0  0  0  0  0  0  0  0  0  0  0
   17.9169    1.5274   13.6785 C   0  0  0  0  0  0  0  0  0  0  0  0
   16.7201    1.8225   12.7648 C   0  0  2  0  0  0  0  0  0  0  0  0
   15.9973    3.5918   12.8787 S   0  0  0  0  0  0  0  0  0  0  0  0
   14.4822    2.9153   11.9344 C   0  0  0  0  0  0  0  0  0  0  0  0
   14.3010    1.4590   12.4537 C   0  0  2  0  0  0  0  0  0  0  0  0
   13.3421    1.5645   13.6697 N   0  0  0  0  0  0  0  0  0  0  0  0
   13.8494    1.1409   14.7449 C   0  0  0  0  0  0  0  0  0  0  0  0
   13.4233    1.2207   15.9515 O   0  0  0  0  0  0  0  0  0  0  0  0
   15.2507    0.8068   14.6334 N   0  0  0  0  0  0  0  0  0  0  0  0
   15.5442    0.9168   13.1374 C   0  0  2  0  0  0  0  0  0  0  0  0
  1  2  1  0  0  0  0
  1  3  2  0  0  0  0
  1  4  1  0  0  0  0
  4  5  1  0  0  0  0
  5  6  1  0  0  0  0
  6  7  1  0  0  0  0
  8  7  1  1  0  0  0
  8  9  1  0  0  0  0
  8 16  1  0  0  0  0
  9 10  1  0  0  0  0
 11 10  1  1  0  0  0
 11 12  1  0  0  0  0
 11 16  1  0  0  0  0
 12 13  1  0  0  0  0
 13 14  2  0  0  0  0
 13 15  1  0  0  0  0
 16 15  1  1  0  0  0
M  CHG  1   2  -1
M  END
>  <CHROM.1>
41.85141437,-165.33522931,-74.04268181,-145.73665523,-173.47613624,17.01883202
1.09658396,14.24930005,0.51486661,-0.07032450,2.23926455

>  <Name>
1f27 biotin aptamer (Xray 1.3A)

>  <RI>
0

>  <Rbt.Current_Directory>
/home/itssahil/PROJECTS/Mol_Feturizer/New_Systems/rnas/1f27

>  <Rbt.Executable>
rbdock ($Id: //depot/dev/client3/rdock/2013.1/src/exe/rbdock.cxx#4 $)

>  <Rbt.Library>
libRbt.so (2013.1, Build901 2013/11/27)

>  <Rbt.Parameter_File>
/export/apps/rDock/src/rDock_2013.1_src/data/scripts/dock_solv.prm

>  <Rbt.Receptor>
prm/pocket_docking_5.prm

>  <SCORE>
-23.1759

>  <SCORE.INTER>
-23.4534

>  <SCORE.INTER.CONST>
1

>  <SCORE.INTER.POLAR>
-1.80362

>  <SCORE.INTER.ROT>
5

>  <SCORE.INTER.SOLV>
11.4711

>  <SCORE.INTER.VDW>
-20.3805

>  <SCORE.INTER.norm>
-1.46584

>  <SCORE.INTRA>
0.277516

>  <SCORE.INTRA.DIHEDRAL>
-0.138028

>  <SCORE.INTRA.DIHEDRAL.0>
6.87082

>  <SCORE.INTRA.POLAR>
0

>  <SCORE.INTRA.POLAR.0>
0

>  <SCORE.INTRA.REPUL>
0

>  <SCORE.INTRA.REPUL.0>
0

>  <SCORE.INTRA.SOLV>
-0.555159

>  <SCORE.INTRA.SOLV.lig_0>
-42.5944

>  <SCORE.INTRA.VDW>
0.62411

>  <SCORE.INTRA.VDW.0>
-1.067

>  <SCORE.INTRA.norm>
0.0173448

>  <SCORE.RESTR>
0

>  <SCORE.RESTR.CAVITY>
0

>  <SCORE.RESTR.norm>
0

>  <SCORE.SYSTEM>
0

>  <SCORE.SYSTEM.CONST>
0

>  <SCORE.SYSTEM.DIHEDRAL>
0

>  <SCORE.SYSTEM.SOLV>
0

>  <SCORE.SYSTEM.norm>
0

>  <SCORE.heavy>
16

>  <SCORE.norm>
-1.44849

>  <RMSD>
3.151

$$$$
1f27 biotin aptamer (Xray 1.3A)
 OpenBabel11021811393D
libRbt.so/2013.1/901 2013/11/27
 16 17  0  0  0  0  0  0  0  0999 V2000
   20.7732   -0.3491   12.9462 C   0  0  0  0  0  0  0  0  0  0  0  0
   21.7548   -0.1141   12.2487 O   0  5  0  0  0  0  0  0  0  0  0  0
   20.9190   -0.8611   14.0548 O   0  0  0  0  0  0  0  0  0  0  0  0
   19.3832    0.0542   12.4709 C   0  0  0  0  0  0  0  0  0  0  0  0
   18.9516    1.4676   12.9213 C   0  0  0  0  0  0  0  0  0  0  0  0
   18.1623    1.4264   14.2168 C   0  0  0  0  0  0  0  0  0  0  0  0
   16.7579    0.8838   14.0520 C   0  0  0  0  0  0  0  0  0  0  0  0
   15.8746    1.6703   13.0745 C   0  0  2  0  0  0  0  0  0  0  0  0
   15.7202    3.5485   13.4125 S   0  0  0  0  0  0  0  0  0  0  0  0
   14.2456    3.5340   12.2000 C   0  0  0  0  0  0  0  0  0  0  0  0
   13.5450    2.1637   12.4338 C   0  0  2  0  0  0  0  0  0  0  0  0
   12.4800    2.4204   13.5335 N   0  0  0  0  0  0  0  0  0  0  0  0
   12.6511    1.7190   14.5688 C   0  0  0  0  0  0  0  0  0  0  0  0
   12.0795    1.7780   15.7149 O   0  0  0  0  0  0  0  0  0  0  0  0
   13.8812    0.9611   14.5596 N   0  0  0  0  0  0  0  0  0  0  0  0
   14.4336    1.1604   13.1485 C   0  0  2  0  0  0  0  0  0  0  0  0
  1  2  1  0  0  0  0
  1  3  2  0  0  0  0
  1  4  1  0  0  0  0
  4  5  1  0  0  0  0
  5  6  1  0  0  0  0
  6  7  1  0  0  0  0
  8  7  1  1  0  0  0
  8  9  1  0  0  0  0
  8 16  1  0  0  0  0
  9 10  1  0  0  0  0
 11 10  1  1  0  0  0
 11 12  1  0  0  0  0
 11 16  1  0  0  0  0
 12 13  1  0  0  0  0
 13 14  2  0  0  0  0
 13 15  1  0  0  0  0
 16 15  1  1  0  0  0
M  CHG  1   2  -1
M  END
>  <CHROM.1>
-90.73867324,-93.44439500,-73.09360793,-59.23082245,-54.07834731,16.33826324
1.48932990,13.49086139,0.16160583,-0.28031621,2.48119969

>  <Name>
1f27 biotin aptamer (Xray 1.3A)

>  <RI>
0

>  <Rbt.Current_Directory>
/home/itssahil/PROJECTS/Mol_Feturizer/New_Systems/rnas/1f27

>  <Rbt.Executable>
rbdock ($Id: //depot/dev/client3/rdock/2013.1/src/exe/rbdock.cxx#4 $)

>  <Rbt.Library>
libRbt.so (2013.1, Build901 2013/11/27)

>  <Rbt.Parameter_File>
/export/apps/rDock/src/rDock_2013.1_src/data/scripts/dock_solv.prm

>  <Rbt.Receptor>
prm/pocket_docking_5.prm

>  <SCORE>
-25.4127

>  <SCORE.INTER>
-24.9794

>  <SCORE.INTER.CONST>
1

>  <SCORE.INTER.POLAR>
-1.76578

>  <SCORE.INTER.ROT>
5

>  <SCORE.INTER.SOLV>
13.0143

>  <SCORE.INTER.VDW>
-22.0384

>  <SCORE.INTER.norm>
-1.56121

>  <SCORE.INTRA>
-0.43331

>  <SCORE.INTRA.DIHEDRAL>
-1.60265

>  <SCORE.INTRA.DIHEDRAL.0>
6.87082

>  <SCORE.INTRA.POLAR>
0

>  <SCORE.INTRA.POLAR.0>
0

>  <SCORE.INTRA.REPUL>
0

>  <SCORE.INTRA.REPUL.0>
0

>  <SCORE.INTRA.SOLV>
-0.0588656

>  <SCORE.INTRA.SOLV.lig_0>
-42.5944

>  <SCORE.INTRA.VDW>
0.397446

>  <SCORE.INTRA.VDW.0>
-1.067

>  <SCORE.INTRA.norm>
-0.0270819

>  <SCORE.RESTR>
0

>  <SCORE.RESTR.CAVITY>
0

>  <SCORE.RESTR.norm>
0

>  <SCORE.SYSTEM>
0

>  <SCORE.SYSTEM.CONST>
0

>  <SCORE.SYSTEM.DIHEDRAL>
0

>  <SCORE.SYSTEM.SOLV>
0

>  <SCORE.SYSTEM.norm>
0

>  <SCORE.heavy>
16

>  <SCORE.norm>
-1.58829

>  <RMSD>
3.152

$$$$
1f27 biotin aptamer (Xray 1.3A)
 OpenBabel11021811393D
libRbt.so/2013.1/901 2013/11/27
 16 17  0  0  0  0  0  0  0  0999 V2000
   21.4036    0.4210   15.1767 C   0  0  0  0  0  0  0  0  0  0  0  0
   22.2970    1.2190   14.9116 O   0  5  0  0  0  0  0  0  0  0  0  0
   21.6103   -0.4822   15.9855 O   0  0  0  0  0  0  0  0  0  0  0  0
   20.0213    0.5878   14.5587 C   0  0  0  0  0  0  0  0  0  0  0  0
   20.0308    0.6844   13.0167 C   0  0  0  0  0  0  0  0  0  0  0  0
   18.6240    0.7160   12.4485 C   0  0  0  0  0  0  0  0  0  0  0  0
   17.8652    1.9831   12.7833 C   0  0  0  0  0  0  0  0  0  0  0  0
   16.4389    2.0469   12.2212 C   0  0  2  0  0  0  0  0  0  0  0  0
   15.5339    3.7218   12.4246 S   0  0  0  0  0  0  0  0  0  0  0  0
   13.9311    2.7848   11.9797 C   0  0  0  0  0  0  0  0  0  0  0  0
   14.0995    1.3738   12.6153 C   0  0  2  0  0  0  0  0  0  0  0  0
   13.4950    1.4820   14.0408 N   0  0  0  0  0  0  0  0  0  0  0  0
   14.3249    1.2258   14.9567 C   0  0  0  0  0  0  0  0  0  0  0  0
   14.2295    1.3702   16.2270 O   0  0  0  0  0  0  0  0  0  0  0  0
   15.6778    1.0494   14.4813 N   0  0  0  0  0  0  0  0  0  0  0  0
   15.5430    1.0493   12.9588 C   0  0  2  0  0  0  0  0  0  0  0  0
  1  2  1  0  0  0  0
  1  3  2  0  0  0  0
  1  4  1  0  0  0  0
  4  5  1  0  0  0  0
  5  6  1  0  0  0  0
  6  7  1  0  0  0  0
  8  7  1  1  0  0  0
  8  9  1  0  0  0  0
  8 16  1  0  0  0  0
  9 10  1  0  0  0  0
 11 10  1  1  0  0  0
 11 12  1  0  0  0  0
 11 16  1  0  0  0  0
 12 13  1  0  0  0  0
 13 14  2  0  0  0  0
 13 15  1  0  0  0  0
 16 15  1  1  0  0  0
M  CHG  1   2  -1
M  END
>  <CHROM.1>
53.99470170,174.56934672,68.02700072,179.92145889,-172.20755529,17.11502344
1.49587735,13.74461244,0.29686951,-0.11355246,2.07654777

>  <Name>
1f27 biotin aptamer (Xray 1.3A)

>  <RI>
0

>  <Rbt.Current_Directory>
/home/itssahil/PROJECTS/Mol_Feturizer/New_Systems/rnas/1f27

>  <Rbt.Executable>
rbdock ($Id: //depot/dev/client3/rdock/2013.1/src/exe/rbdock.cxx#4 $)

>  <Rbt.Library>
libRbt.so (2013.1, Build901 2013/11/27)

>  <Rbt.Parameter_File>
/export/apps/rDock/src/rDock_2013.1_src/data/scripts/dock_solv.prm

>  <Rbt.Receptor>
prm/pocket_docking_8.prm

>  <SCORE>
-23.9296

>  <SCORE.INTER>
-21.7428

>  <SCORE.INTER.CONST>
1

>  <SCORE.INTER.POLAR>
-0.87178

>  <SCORE.INTER.ROT>
5

>  <SCORE.INTER.SOLV>
15.6463

>  <SCORE.INTER.VDW>
-23.738

>  <SCORE.INTER.norm>
-1.35892

>  <SCORE.INTRA>
-2.18688

>  <SCORE.INTRA.DIHEDRAL>
-4.92275

>  <SCORE.INTRA.DIHEDRAL.0>
6.87082

>  <SCORE.INTRA.POLAR>
0

>  <SCORE.INTRA.POLAR.0>
0

>  <SCORE.INTRA.REPUL>
0

>  <SCORE.INTRA.REPUL.0>
0

>  <SCORE.INTRA.SOLV>
-0.673023

>  <SCORE.INTRA.SOLV.lig_0>
-42.5944

>  <SCORE.INTRA.VDW>
0.611012

>  <SCORE.INTRA.VDW.0>
-1.067

>  <SCORE.INTRA.norm>
-0.13668

>  <SCORE.RESTR>
0

>  <SCORE.RESTR.CAVITY>
0

>  <SCORE.RESTR.norm>
0

>  <SCORE.SYSTEM>
0

>  <SCORE.SYSTEM.CONST>
0

>  <SCORE.SYSTEM.DIHEDRAL>
0

>  <SCORE.SYSTEM.SOLV>
0

>  <SCORE.SYSTEM.norm>
0

>  <SCORE.heavy>
16

>  <SCORE.norm>
-1.4956

>  <RMSD>
3.153

$$$$
1f27 biotin aptamer (Xray 1.3A)
 OpenBabel11021811393D
libRbt.so/2013.1/901 2013/11/27
 16 17  0  0  0  0  0  0  0  0999 V2000
   21.1439    0.0411   12.7537 C   0  0  0  0  0  0  0  0  0  0  0  0
   22.1538   -0.4413   12.2509 O   0  5  0  0  0  0  0  0  0  0  0  0
   21.1806    1.1723   13.2349 O   0  0  0  0  0  0  0  0  0  0  0  0
   19.8307   -0.7302   12.7215 C   0  0  0  0  0  0  0  0  0  0  0  0
   18.6206    0.0687   13.2548 C   0  0  0  0  0  0  0  0  0  0  0  0
   17.3557   -0.7698   13.2646 C   0  0  0  0  0  0  0  0  0  0  0  0
   16.1535   -0.0437   13.8311 C   0  0  0  0  0  0  0  0  0  0  0  0
   15.6311    1.1100   12.9648 C   0  0  2  0  0  0  0  0  0  0  0  0
   16.1035    2.8722   13.5455 S   0  0  0  0  0  0  0  0  0  0  0  0
   14.7657    3.5088   12.3414 C   0  0  0  0  0  0  0  0  0  0  0  0
   13.6348    2.4404   12.3941 C   0  0  2  0  0  0  0  0  0  0  0  0
   12.6708    2.9064   13.5178 N   0  0  0  0  0  0  0  0  0  0  0  0
   12.5493    2.0670   14.4525 C   0  0  0  0  0  0  0  0  0  0  0  0
   11.9806    2.1753   15.5965 O   0  0  0  0  0  0  0  0  0  0  0  0
   13.4513    0.9434   14.3444 N   0  0  0  0  0  0  0  0  0  0  0  0
   14.1008    1.1151   12.9715 C   0  0  2  0  0  0  0  0  0  0  0  0
  1  2  1  0  0  0  0
  1  3  2  0  0  0  0
  1  4  1  0  0  0  0
  4  5  1  0  0  0  0
  5  6  1  0  0  0  0
  6  7  1  0  0  0  0
  8  7  1  1  0  0  0
  8  9  1  0  0  0  0
  8 16  1  0  0  0  0
  9 10  1  0  0  0  0
 11 10  1  1  0  0  0
 11 12  1  0  0  0  0
 11 16  1  0  0  0  0
 12 13  1  0  0  0  0
 13 14  2  0  0  0  0
 13 15  1  0  0  0  0
 16 15  1  1  0  0  0
M  CHG  1   2  -1
M  END
>  <CHROM.1>
-173.69058037,-177.13593277,177.73998410,68.66641502,-102.42046228,16.35379147
1.27910352,13.37415083,-0.23589241,0.22844708,-0.28507817

>  <Name>
1f27 biotin aptamer (Xray 1.3A)

>  <RI>
0

>  <Rbt.Current_Directory>
/home/itssahil/PROJECTS/Mol_Feturizer/New_Systems/rnas/1f27

>  <Rbt.Executable>
rbdock ($Id: //depot/dev/client3/rdock/2013.1/src/exe/rbdock.cxx#4 $)

>  <Rbt.Library>
libRbt.so (2013.1, Build901 2013/11/27)

>  <Rbt.Parameter_File>
/export/apps/rDock/src/rDock_2013.1_src/data/scripts/dock_solv.prm

>  <Rbt.Receptor>
prm/pocket_docking_5.prm

>  <SCORE>
-24.1584

>  <SCORE.INTER>
-24.1496

>  <SCORE.INTER.CONST>
1

>  <SCORE.INTER.POLAR>
-1.66162

>  <SCORE.INTER.ROT>
5

>  <SCORE.INTER.SOLV>
17.1046

>  <SCORE.INTER.VDW>
-23.1958

>  <SCORE.INTER.norm>
-1.50935

>  <SCORE.INTRA>
-0.00879003

>  <SCORE.INTRA.DIHEDRAL>
-0.444128

>  <SCORE.INTRA.DIHEDRAL.0>
6.87082

>  <SCORE.INTRA.POLAR>
0

>  <SCORE.INTRA.POLAR.0>
0

>  <SCORE.INTRA.REPUL>
0

>  <SCORE.INTRA.REPUL.0>
0

>  <SCORE.INTRA.SOLV>
-0.751521

>  <SCORE.INTRA.SOLV.lig_0>
-42.5944

>  <SCORE.INTRA.VDW>
0.589035

>  <SCORE.INTRA.VDW.0>
-1.067

>  <SCORE.INTRA.norm>
-0.000549377

>  <SCORE.RESTR>
0

>  <SCORE.RESTR.CAVITY>
0

>  <SCORE.RESTR.norm>
0

>  <SCORE.SYSTEM>
0

>  <SCORE.SYSTEM.CONST>
0

>  <SCORE.SYSTEM.DIHEDRAL>
0

>  <SCORE.SYSTEM.SOLV>
0

>  <SCORE.SYSTEM.norm>
0

>  <SCORE.heavy>
16

>  <SCORE.norm>
-1.5099

>  <RMSD>
3.170

$$$$
1f27 biotin aptamer (Xray 1.3A)
 OpenBabel11021811393D
libRbt.so/2013.1/901 2013/11/27
 16 17  0  0  0  0  0  0  0  0999 V2000
   19.3272   -3.7245   14.4032 C   0  0  0  0  0  0  0  0  0  0  0  0
   19.0833   -4.8769   14.7462 O   0  5  0  0  0  0  0  0  0  0  0  0
   20.4381   -3.2436   14.6207 O   0  0  0  0  0  0  0  0  0  0  0  0
   18.2812   -2.9137   13.6489 C   0  0  0  0  0  0  0  0  0  0  0  0
   18.1776   -1.4419   14.1073 C   0  0  0  0  0  0  0  0  0  0  0  0
   17.1111   -0.6880   13.3347 C   0  0  0  0  0  0  0  0  0  0  0  0
   16.9296    0.7435   13.7947 C   0  0  0  0  0  0  0  0  0  0  0  0
   16.0551    1.6085   12.8774 C   0  0  2  0  0  0  0  0  0  0  0  0
   15.9658    3.4694   13.3186 S   0  0  0  0  0  0  0  0  0  0  0  0
   14.4712    3.5658   12.1346 C   0  0  0  0  0  0  0  0  0  0  0  0
   13.7317    2.2069   12.3075 C   0  0  2  0  0  0  0  0  0  0  0  0
   12.6941    2.4361   13.4389 N   0  0  0  0  0  0  0  0  0  0  0  0
   12.8604    1.6746   14.4317 C   0  0  0  0  0  0  0  0  0  0  0  0
   12.3104    1.6889   15.5898 O   0  0  0  0  0  0  0  0  0  0  0  0
   14.0657    0.8811   14.3591 N   0  0  0  0  0  0  0  0  0  0  0  0
   14.6002    1.1396   12.9507 C   0  0  2  0  0  0  0  0  0  0  0  0
  1  2  1  0  0  0  0
  1  3  2  0  0  0  0
  1  4  1  0  0  0  0
  4  5  1  0  0  0  0
  5  6  1  0  0  0  0
  6  7  1  0  0  0  0
  8  7  1  1  0  0  0
  8  9  1  0  0  0  0
  8 16  1  0  0  0  0
  9 10  1  0  0  0  0
 11 10  1  1  0  0  0
 11 12  1  0  0  0  0
 11 16  1  0  0  0  0
 12 13  1  0  0  0  0
 13 14  2  0  0  0  0
 13 15  1  0  0  0  0
 16 15  1  1  0  0  0
M  CHG  1   2  -1
M  END
>  <CHROM.1>
138.79386026,-179.33086109,177.33274895,169.19622940,-173.32144002,16.02483301
0.36115414,13.75768262,0.80733858,-0.28967443,2.73448010

>  <Name>
1f27 biotin aptamer (Xray 1.3A)

>  <RI>
0

>  <Rbt.Current_Directory>
/home/itssahil/PROJECTS/Mol_Feturizer/New_Systems/rnas/1f27

>  <Rbt.Executable>
rbdock ($Id: //depot/dev/client3/rdock/2013.1/src/exe/rbdock.cxx#4 $)

>  <Rbt.Library>
libRbt.so (2013.1, Build901 2013/11/27)

>  <Rbt.Parameter_File>
/export/apps/rDock/src/rDock_2013.1_src/data/scripts/dock_solv.prm

>  <Rbt.Receptor>
prm/pocket_docking_6.prm

>  <SCORE>
-24.7509

>  <SCORE.INTER>
-22.3149

>  <SCORE.INTER.CONST>
1

>  <SCORE.INTER.POLAR>
-0.848528

>  <SCORE.INTER.ROT>
5

>  <SCORE.INTER.SOLV>
8.00623

>  <SCORE.INTER.VDW>
-21.6502

>  <SCORE.INTER.norm>
-1.39468

>  <SCORE.INTRA>
-2.43598

>  <SCORE.INTRA.DIHEDRAL>
-4.89591

>  <SCORE.INTRA.DIHEDRAL.0>
6.87082

>  <SCORE.INTRA.POLAR>
0

>  <SCORE.INTRA.POLAR.0>
0

>  <SCORE.INTRA.REPUL>
0

>  <SCORE.INTRA.REPUL.0>
0

>  <SCORE.INTRA.SOLV>
-0.719614

>  <SCORE.INTRA.SOLV.lig_0>
-42.5944

>  <SCORE.INTRA.VDW>
0.371779

>  <SCORE.INTRA.VDW.0>
-1.067

>  <SCORE.INTRA.norm>
-0.152249

>  <SCORE.RESTR>
0

>  <SCORE.RESTR.CAVITY>
0

>  <SCORE.RESTR.norm>
0

>  <SCORE.SYSTEM>
0

>  <SCORE.SYSTEM.CONST>
0

>  <SCORE.SYSTEM.DIHEDRAL>
0

>  <SCORE.SYSTEM.SOLV>
0

>  <SCORE.SYSTEM.norm>
0

>  <SCORE.heavy>
16

>  <SCORE.norm>
-1.54693

>  <RMSD>
3.173

$$$$
1f27 biotin aptamer (Xray 1.3A)
 OpenBabel11021811393D
libRbt.so/2013.1/901 2013/11/27
 16 17  0  0  0  0  0  0  0  0999 V2000
   19.7393   -0.3990   13.7011 C   0  0  0  0  0  0  0  0  0  0  0  0
   19.1749   -1.2088   12.9724 O   0  5  0  0  0  0  0  0  0  0  0  0
   19.6250   -0.4913   14.9221 O   0  0  0  0  0  0  0  0  0  0  0  0
   20.6348    0.6765   13.0996 C   0  0  0  0  0  0  0  0  0  0  0  0
   19.8672    1.9085   12.5705 C   0  0  0  0  0  0  0  0  0  0  0  0
   19.1338    2.6327   13.6844 C   0  0  0  0  0  0  0  0  0  0  0  0
   17.8442    1.9554   14.0991 C   0  0  0  0  0  0  0  0  0  0  0  0
   16.7350    1.9789   13.0392 C   0  0  2  0  0  0  0  0  0  0  0  0
   15.8107    3.6428   12.8327 S   0  0  0  0  0  0  0  0  0  0  0  0
   14.4994    2.6662   11.8469 C   0  0  0  0  0  0  0  0  0  0  0  0
   14.4236    1.2764   12.5441 C   0  0  2  0  0  0  0  0  0  0  0  0
   13.3255    1.4135   13.6325 N   0  0  0  0  0  0  0  0  0  0  0  0
   13.7500    1.1971   14.8013 C   0  0  0  0  0  0  0  0  0  0  0  0
   13.1817    1.3750   15.9367 O   0  0  0  0  0  0  0  0  0  0  0  0
   15.1833    1.0312   14.8767 N   0  0  0  0  0  0  0  0  0  0  0  0
   15.6327    0.9867   13.4165 C   0  0  2  0  0  0  0  0  0  0  0  0
  1  2  1  0  0  0  0
  1  3  2  0  0  0  0
  1  4  1  0  0  0  0
  4  5  1  0  0  0  0
  5  6  1  0  0  0  0
  6  7  1  0  0  0  0
  8  7  1  1  0  0  0
  8  9  1  0  0  0  0
  8 16  1  0  0  0  0
  9 10  1  0  0  0  0
 11 10  1  1  0  0  0
 11 12  1  0  0  0  0
 11 16  1  0  0  0  0
 12 13  1  0  0  0  0
 13 14  2  0  0  0  0
 13 15  1  0  0  0  0
 16 15  1  1  0  0  0
M  CHG  1   2  -1
M  END
>  <CHROM.1>
82.03576987,62.88787123,-78.16920137,-67.55105519,-76.52024919,16.71888423
1.44390970,13.59399338,0.16907640,-0.19807733,2.53900074

>  <Name>
1f27 biotin aptamer (Xray 1.3A)

>  <RI>
0

>  <Rbt.Current_Directory>
/home/itssahil/PROJECTS/Mol_Feturizer/New_Systems/rnas/1f27

>  <Rbt.Executable>
rbdock ($Id: //depot/dev/client3/rdock/2013.1/src/exe/rbdock.cxx#4 $)

>  <Rbt.Library>
libRbt.so (2013.1, Build901 2013/11/27)

>  <Rbt.Parameter_File>
/export/apps/rDock/src/rDock_2013.1_src/data/scripts/dock_solv.prm

>  <Rbt.Receptor>
prm/blind_docking_100.prm

>  <SCORE>
-23.0142

>  <SCORE.INTER>
-22.8185

>  <SCORE.INTER.CONST>
1

>  <SCORE.INTER.POLAR>
-1.16894

>  <SCORE.INTER.ROT>
5

>  <SCORE.INTER.SOLV>
12.7826

>  <SCORE.INTER.VDW>
-22.5101

>  <SCORE.INTER.norm>
-1.42616

>  <SCORE.INTRA>
-0.199411

>  <SCORE.INTRA.DIHEDRAL>
-2.85274

>  <SCORE.INTRA.DIHEDRAL.0>
6.87082

>  <SCORE.INTRA.POLAR>
0

>  <SCORE.INTRA.POLAR.0>
0

>  <SCORE.INTRA.REPUL>
0

>  <SCORE.INTRA.REPUL.0>
0

>  <SCORE.INTRA.SOLV>
2.16171

>  <SCORE.INTRA.SOLV.lig_0>
-42.5944

>  <SCORE.INTRA.VDW>
0.146105

>  <SCORE.INTRA.VDW.0>
-1.067

>  <SCORE.INTRA.norm>
-0.0124632

>  <SCORE.RESTR>
0.00368932

>  <SCORE.RESTR.CAVITY>
0.00368932

>  <SCORE.RESTR.norm>
0.000230583

>  <SCORE.SYSTEM>
0

>  <SCORE.SYSTEM.CONST>
0

>  <SCORE.SYSTEM.DIHEDRAL>
0

>  <SCORE.SYSTEM.SOLV>
0

>  <SCORE.SYSTEM.norm>
0

>  <SCORE.heavy>
16

>  <SCORE.norm>
-1.43839

>  <RMSD>
3.174

$$$$
1f27 biotin aptamer (Xray 1.3A)
 OpenBabel11021811393D
libRbt.so/2013.1/901 2013/11/27
 16 17  0  0  0  0  0  0  0  0999 V2000
   20.9115    1.1799   13.7498 C   0  0  0  0  0  0  0  0  0  0  0  0
   21.7757    1.1711   12.8789 O   0  5  0  0  0  0  0  0  0  0  0  0
   20.2543    2.2001   13.9493 O   0  0  0  0  0  0  0  0  0  0  0  0
   20.6054   -0.0887   14.5358 C   0  0  0  0  0  0  0  0  0  0  0  0
   19.0987   -0.4148   14.6387 C   0  0  0  0  0  0  0  0  0  0  0  0
   18.4987   -0.7268   13.2802 C   0  0  0  0  0  0  0  0  0  0  0  0
   17.0131   -0.4446   13.1962 C   0  0  0  0  0  0  0  0  0  0  0  0
   16.6507    1.0215   12.9251 C   0  0  2  0  0  0  0  0  0  0  0  0
   17.3658    2.3012   14.1566 S   0  0  0  0  0  0  0  0  0  0  0  0
   16.1223    3.5458   13.4153 C   0  0  0  0  0  0  0  0  0  0  0  0
   14.8547    2.7033   13.0892 C   0  0  2  0  0  0  0  0  0  0  0  0
   13.9708    2.7667   14.3635 N   0  0  0  0  0  0  0  0  0  0  0  0
   13.7395    1.6333   14.8686 C   0  0  0  0  0  0  0  0  0  0  0  0
   13.1977    1.3181   15.9870 O   0  0  0  0  0  0  0  0  0  0  0  0
   14.4766    0.5585   14.2447 N   0  0  0  0  0  0  0  0  0  0  0  0
   15.1359    1.2118   13.0304 C   0  0  2  0  0  0  0  0  0  0  0  0
  1  2  1  0  0  0  0
  1  3  2  0  0  0  0
  1  4  1  0  0  0  0
  4  5  1  0  0  0  0
  5  6  1  0  0  0  0
  6  7  1  0  0  0  0
  8  7  1  1  0  0  0
  8  9  1  0  0  0  0
  8 16  1  0  0  0  0
  9 10  1  0  0  0  0
 11 10  1  1  0  0  0
 11 12  1  0  0  0  0
 11 16  1  0  0  0  0
 12 13  1  0  0  0  0
 13 14  2  0  0  0  0
 13 15  1  0  0  0  0
 16 15  1  1  0  0  0
M  CHG  1   2  -1
M  END
>  <CHROM.1>
-131.99694745,64.82850077,-154.04954012,82.24304970,-55.65108308,17.14644022
1.32756717,13.93342636,-0.14808612,0.13973468,-0.14746896

>  <Name>
1f27 biotin aptamer (Xray 1.3A)

>  <RI>
0

>  <Rbt.Current_Directory>
/home/itssahil/PROJECTS/Mol_Feturizer/New_Systems/rnas/1f27

>  <Rbt.Executable>
rbdock ($Id: //depot/dev/client3/rdock/2013.1/src/exe/rbdock.cxx#4 $)

>  <Rbt.Library>
libRbt.so (2013.1, Build901 2013/11/27)

>  <Rbt.Parameter_File>
/export/apps/rDock/src/rDock_2013.1_src/data/scripts/dock_solv.prm

>  <Rbt.Receptor>
prm/blind_docking_100.prm

>  <SCORE>
-24.166

>  <SCORE.INTER>
-24.5012

>  <SCORE.INTER.CONST>
1

>  <SCORE.INTER.POLAR>
-1.79217

>  <SCORE.INTER.ROT>
5

>  <SCORE.INTER.SOLV>
18.5941

>  <SCORE.INTER.VDW>
-23.4916

>  <SCORE.INTER.norm>
-1.53132

>  <SCORE.INTRA>
0.295113

>  <SCORE.INTRA.DIHEDRAL>
-1.00337

>  <SCORE.INTRA.DIHEDRAL.0>
6.87082

>  <SCORE.INTRA.POLAR>
0

>  <SCORE.INTRA.POLAR.0>
0

>  <SCORE.INTRA.REPUL>
0

>  <SCORE.INTRA.REPUL.0>
0

>  <SCORE.INTRA.SOLV>
1.85146

>  <SCORE.INTRA.SOLV.lig_0>
-42.5944

>  <SCORE.INTRA.VDW>
-0.128934

>  <SCORE.INTRA.VDW.0>
-1.067

>  <SCORE.INTRA.norm>
0.0184445

>  <SCORE.RESTR>
0.0400431

>  <SCORE.RESTR.CAVITY>
0.0400431

>  <SCORE.RESTR.norm>
0.00250269

>  <SCORE.SYSTEM>
0

>  <SCORE.SYSTEM.CONST>
0

>  <SCORE.SYSTEM.DIHEDRAL>
0

>  <SCORE.SYSTEM.SOLV>
0

>  <SCORE.SYSTEM.norm>
0

>  <SCORE.heavy>
16

>  <SCORE.norm>
-1.51038

>  <RMSD>
3.177

$$$$
1f27 biotin aptamer (Xray 1.3A)
 OpenBabel11021811393D
libRbt.so/2013.1/901 2013/11/27
 16 17  0  0  0  0  0  0  0  0999 V2000
   21.3125   -1.7860   16.9816 C   0  0  0  0  0  0  0  0  0  0  0  0
   22.5024   -1.4907   17.0268 O   0  5  0  0  0  0  0  0  0  0  0  0
   20.6124   -1.6599   17.9849 O   0  0  0  0  0  0  0  0  0  0  0  0
   20.6872   -2.2425   15.6697 C   0  0  0  0  0  0  0  0  0  0  0  0
   19.3876   -1.4934   15.2998 C   0  0  0  0  0  0  0  0  0  0  0  0
   18.8142   -1.9825   13.9827 C   0  0  0  0  0  0  0  0  0  0  0  0
   17.5117   -1.3094   13.6033 C   0  0  0  0  0  0  0  0  0  0  0  0
   17.6601    0.1135   13.0487 C   0  0  2  0  0  0  0  0  0  0  0  0
   18.5903    1.3554   14.1703 S   0  0  0  0  0  0  0  0  0  0  0  0
   17.8938    2.7283   13.0411 C   0  0  0  0  0  0  0  0  0  0  0  0
   16.4736    2.2357   12.6368 C   0  0  2  0  0  0  0  0  0  0  0  0
   15.5112    2.8035   13.7141 N   0  0  0  0  0  0  0  0  0  0  0  0
   14.8798    1.9091   14.3420 C   0  0  0  0  0  0  0  0  0  0  0  0
   14.1398    1.9931   15.3856 O   0  0  0  0  0  0  0  0  0  0  0  0
   15.3116    0.5661   14.0297 N   0  0  0  0  0  0  0  0  0  0  0  0
   16.2793    0.7460   12.8604 C   0  0  2  0  0  0  0  0  0  0  0  0
  1  2  1  0  0  0  0
  1  3  2  0  0  0  0
  1  4  1  0  0  0  0
  4  5  1  0  0  0  0
  5  6  1  0  0  0  0
  6  7  1  0  0  0  0
  8  7  1  1  0  0  0
  8  9  1  0  0  0  0
  8 16  1  0  0  0  0
  9 10  1  0  0  0  0
 11 10  1  1  0  0  0
 11 12  1  0  0  0  0
 11 16  1  0  0  0  0
 12 13  1  0  0  0  0
 13 14  2  0  0  0  0
 13 15  1  0  0  0  0
 16 15  1  1  0  0  0
M  CHG  1   2  -1
M  END
>  <CHROM.1>
-129.63257000,179.67799672,177.97312227,76.86149067,-55.74976248,18.03570124
0.23514773,14.63292312,0.58093823,-0.43575192,1.91301645

>  <Name>
1f27 biotin aptamer (Xray 1.3A)

>  <RI>
0

>  <Rbt.Current_Directory>
/home/itssahil/PROJECTS/Mol_Feturizer/New_Systems/rnas/1f27

>  <Rbt.Executable>
rbdock ($Id: //depot/dev/client3/rdock/2013.1/src/exe/rbdock.cxx#4 $)

>  <Rbt.Library>
libRbt.so (2013.1, Build901 2013/11/27)

>  <Rbt.Parameter_File>
/export/apps/rDock/src/rDock_2013.1_src/data/scripts/dock_solv.prm

>  <Rbt.Receptor>
prm/pocket_docking_6.prm

>  <SCORE>
-21.6574

>  <SCORE.INTER>
-19.6163

>  <SCORE.INTER.CONST>
1

>  <SCORE.INTER.POLAR>
-0.848528

>  <SCORE.INTER.ROT>
5

>  <SCORE.INTER.SOLV>
8.25431

>  <SCORE.INTER.VDW>
-19.9339

>  <SCORE.INTER.norm>
-1.22602

>  <SCORE.INTRA>
-2.04117

>  <SCORE.INTRA.DIHEDRAL>
-4.23513

>  <SCORE.INTRA.DIHEDRAL.0>
6.87082

>  <SCORE.INTRA.POLAR>
0

>  <SCORE.INTRA.POLAR.0>
0

>  <SCORE.INTRA.REPUL>
0

>  <SCORE.INTRA.REPUL.0>
0

>  <SCORE.INTRA.SOLV>
-0.71369

>  <SCORE.INTRA.SOLV.lig_0>
-42.5944

>  <SCORE.INTRA.VDW>
0.433241

>  <SCORE.INTRA.VDW.0>
-1.067

>  <SCORE.INTRA.norm>
-0.127573

>  <SCORE.RESTR>
0

>  <SCORE.RESTR.CAVITY>
0

>  <SCORE.RESTR.norm>
0

>  <SCORE.SYSTEM>
0

>  <SCORE.SYSTEM.CONST>
0

>  <SCORE.SYSTEM.DIHEDRAL>
0

>  <SCORE.SYSTEM.SOLV>
0

>  <SCORE.SYSTEM.norm>
0

>  <SCORE.heavy>
16

>  <SCORE.norm>
-1.35359

>  <RMSD>
3.181

$$$$
1f27 biotin aptamer (Xray 1.3A)
 OpenBabel11021811393D
libRbt.so/2013.1/901 2013/11/27
 16 17  0  0  0  0  0  0  0  0999 V2000
   20.5020    0.2041   14.8219 C   0  0  0  0  0  0  0  0  0  0  0  0
   21.4498    0.0715   15.5896 O   0  5  0  0  0  0  0  0  0  0  0  0
   19.5083   -0.5095   14.9478 O   0  0  0  0  0  0  0  0  0  0  0  0
   20.5260    1.2949   13.7588 C   0  0  0  0  0  0  0  0  0  0  0  0
   19.6174    2.5029   14.0785 C   0  0  0  0  0  0  0  0  0  0  0  0
   18.1472    2.1394   13.9816 C   0  0  0  0  0  0  0  0  0  0  0  0
   17.7571    1.5503   12.6420 C   0  0  0  0  0  0  0  0  0  0  0  0
   16.3197    1.8537   12.1994 C   0  0  2  0  0  0  0  0  0  0  0  0
   15.7065    3.6396   12.5158 S   0  0  0  0  0  0  0  0  0  0  0  0
   13.9474    2.9779   12.1804 C   0  0  0  0  0  0  0  0  0  0  0  0
   13.9409    1.5357   12.7662 C   0  0  2  0  0  0  0  0  0  0  0  0
   13.4718    1.6840   14.2383 N   0  0  0  0  0  0  0  0  0  0  0  0
   14.3189    1.2697   15.0773 C   0  0  0  0  0  0  0  0  0  0  0  0
   14.3449    1.3809   16.3543 O   0  0  0  0  0  0  0  0  0  0  0  0
   15.5871    0.9041   14.4894 N   0  0  0  0  0  0  0  0  0  0  0  0
   15.3377    0.9801   12.9834 C   0  0  2  0  0  0  0  0  0  0  0  0
  1  2  1  0  0  0  0
  1  3  2  0  0  0  0
  1  4  1  0  0  0  0
  4  5  1  0  0  0  0
  5  6  1  0  0  0  0
  6  7  1  0  0  0  0
  8  7  1  1  0  0  0
  8  9  1  0  0  0  0
  8 16  1  0  0  0  0
  9 10  1  0  0  0  0
 11 10  1  1  0  0  0
 11 12  1  0  0  0  0
 11 16  1  0  0  0  0
 12 13  1  0  0  0  0
 13 14  2  0  0  0  0
 13 15  1  0  0  0  0
 16 15  1  1  0  0  0
M  CHG  1   2  -1
M  END
>  <CHROM.1>
-105.07342542,-69.87311485,-55.45898315,-148.70899611,41.68917876,16.84655688
1.61193444,13.85768152,0.31150822,-0.08211769,2.22244142

>  <Name>
1f27 biotin aptamer (Xray 1.3A)

>  <RI>
0

>  <Rbt.Current_Directory>
/home/itssahil/PROJECTS/Mol_Feturizer/New_Systems/rnas/1f27

>  <Rbt.Executable>
rbdock ($Id: //depot/dev/client3/rdock/2013.1/src/exe/rbdock.cxx#4 $)

>  <Rbt.Library>
libRbt.so (2013.1, Build901 2013/11/27)

>  <Rbt.Parameter_File>
/export/apps/rDock/src/rDock_2013.1_src/data/scripts/dock_solv.prm

>  <Rbt.Receptor>
prm/blind_docking_40.prm

>  <SCORE>
-21.3988

>  <SCORE.INTER>
-23.2639

>  <SCORE.INTER.CONST>
1

>  <SCORE.INTER.POLAR>
-0.87178

>  <SCORE.INTER.ROT>
5

>  <SCORE.INTER.SOLV>
13.1368

>  <SCORE.INTER.VDW>
-23.9156

>  <SCORE.INTER.norm>
-1.45399

>  <SCORE.INTRA>
1.86505

>  <SCORE.INTRA.DIHEDRAL>
-0.645696

>  <SCORE.INTRA.DIHEDRAL.0>
6.87082

>  <SCORE.INTRA.POLAR>
0

>  <SCORE.INTRA.POLAR.0>
0

>  <SCORE.INTRA.REPUL>
0

>  <SCORE.INTRA.REPUL.0>
0

>  <SCORE.INTRA.SOLV>
1.43581

>  <SCORE.INTRA.SOLV.lig_0>
-42.5944

>  <SCORE.INTRA.VDW>
1.47

>  <SCORE.INTRA.VDW.0>
-1.067

>  <SCORE.INTRA.norm>
0.116566

>  <SCORE.RESTR>
0

>  <SCORE.RESTR.CAVITY>
0

>  <SCORE.RESTR.norm>
0

>  <SCORE.SYSTEM>
0

>  <SCORE.SYSTEM.CONST>
0

>  <SCORE.SYSTEM.DIHEDRAL>
0

>  <SCORE.SYSTEM.SOLV>
0

>  <SCORE.SYSTEM.norm>
0

>  <SCORE.heavy>
16

>  <SCORE.norm>
-1.33743

>  <RMSD>
3.214

$$$$
1f27 biotin aptamer (Xray 1.3A)
 OpenBabel11021811393D
libRbt.so/2013.1/901 2013/11/27
 16 17  0  0  0  0  0  0  0  0999 V2000
   18.8750   -4.2522   14.8088 C   0  0  0  0  0  0  0  0  0  0  0  0
   18.2688   -5.1121   14.1775 O   0  5  0  0  0  0  0  0  0  0  0  0
   19.8133   -4.5744   15.5356 O   0  0  0  0  0  0  0  0  0  0  0  0
   18.5118   -2.7823   14.6412 C   0  0  0  0  0  0  0  0  0  0  0  0
   18.9367   -2.1820   13.2825 C   0  0  0  0  0  0  0  0  0  0  0  0
   18.5837   -0.7093   13.1855 C   0  0  0  0  0  0  0  0  0  0  0  0
   17.0928   -0.4435   13.1888 C   0  0  0  0  0  0  0  0  0  0  0  0
   16.6978    1.0123   12.9077 C   0  0  2  0  0  0  0  0  0  0  0  0
   17.4298    2.3220   14.0971 S   0  0  0  0  0  0  0  0  0  0  0  0
   16.1432    3.5350   13.3772 C   0  0  0  0  0  0  0  0  0  0  0  0
   14.8801    2.6672   13.1036 C   0  0  2  0  0  0  0  0  0  0  0  0
   14.0356    2.7357   14.4042 N   0  0  0  0  0  0  0  0  0  0  0  0
   13.8391    1.6066   14.9329 C   0  0  0  0  0  0  0  0  0  0  0  0
   13.3379    1.2998   16.0723 O   0  0  0  0  0  0  0  0  0  0  0  0
   14.5740    0.5345   14.3019 N   0  0  0  0  0  0  0  0  0  0  0  0
   15.1841    1.1798   13.0579 C   0  0  2  0  0  0  0  0  0  0  0  0
  1  2  1  0  0  0  0
  1  3  2  0  0  0  0
  1  4  1  0  0  0  0
  4  5  1  0  0  0  0
  5  6  1  0  0  0  0
  6  7  1  0  0  0  0
  8  7  1  1  0  0  0
  8  9  1  0  0  0  0
  8 16  1  0  0  0  0
  9 10  1  0  0  0  0
 11 10  1  1  0  0  0
 11 12  1  0  0  0  0
 11 16  1  0  0  0  0
 12 13  1  0  0  0  0
 13 14  2  0  0  0  0
 13 15  1  0  0  0  0
 16 15  1  1  0  0  0
M  CHG  1   2  -1
M  END
>  <CHROM.1>
-71.70237691,-178.48071037,-65.61025403,-172.34896167,-57.54074886,16.70608440
-0.06331699,14.10357834,0.94230764,-0.39984243,2.81025695

>  <Name>
1f27 biotin aptamer (Xray 1.3A)

>  <RI>
0

>  <Rbt.Current_Directory>
/home/itssahil/PROJECTS/Mol_Feturizer/New_Systems/rnas/1f27

>  <Rbt.Executable>
rbdock ($Id: //depot/dev/client3/rdock/2013.1/src/exe/rbdock.cxx#4 $)

>  <Rbt.Library>
libRbt.so (2013.1, Build901 2013/11/27)

>  <Rbt.Parameter_File>
/export/apps/rDock/src/rDock_2013.1_src/data/scripts/dock_solv.prm

>  <Rbt.Receptor>
prm/pocket_docking_6.prm

>  <SCORE>
-25.649

>  <SCORE.INTER>
-23.1803

>  <SCORE.INTER.CONST>
1

>  <SCORE.INTER.POLAR>
-1.62966

>  <SCORE.INTER.ROT>
5

>  <SCORE.INTER.SOLV>
11.1385

>  <SCORE.INTER.VDW>
-20.6675

>  <SCORE.INTER.norm>
-1.44877

>  <SCORE.INTRA>
-2.46869

>  <SCORE.INTRA.DIHEDRAL>
-5.16402

>  <SCORE.INTRA.DIHEDRAL.0>
6.87082

>  <SCORE.INTRA.POLAR>
0

>  <SCORE.INTRA.POLAR.0>
0

>  <SCORE.INTRA.REPUL>
0

>  <SCORE.INTRA.REPUL.0>
0

>  <SCORE.INTRA.SOLV>
-0.821257

>  <SCORE.INTRA.SOLV.lig_0>
-42.5944

>  <SCORE.INTRA.VDW>
0.523952

>  <SCORE.INTRA.VDW.0>
-1.067

>  <SCORE.INTRA.norm>
-0.154293

>  <SCORE.RESTR>
0

>  <SCORE.RESTR.CAVITY>
0

>  <SCORE.RESTR.norm>
0

>  <SCORE.SYSTEM>
0

>  <SCORE.SYSTEM.CONST>
0

>  <SCORE.SYSTEM.DIHEDRAL>
0

>  <SCORE.SYSTEM.SOLV>
0

>  <SCORE.SYSTEM.norm>
0

>  <SCORE.heavy>
16

>  <SCORE.norm>
-1.60306

>  <RMSD>
3.246

$$$$
1f27 biotin aptamer (Xray 1.3A)
 OpenBabel11021811393D
libRbt.so/2013.1/901 2013/11/27
 16 17  0  0  0  0  0  0  0  0999 V2000
   21.1896    0.4845   13.4628 C   0  0  0  0  0  0  0  0  0  0  0  0
   21.4417   -0.5663   12.8817 O   0  5  0  0  0  0  0  0  0  0  0  0
   21.6708    0.6998   14.5739 O   0  0  0  0  0  0  0  0  0  0  0  0
   20.3390    1.5494   12.7823 C   0  0  0  0  0  0  0  0  0  0  0  0
   18.8644    1.1372   12.5758 C   0  0  0  0  0  0  0  0  0  0  0  0
   18.1455    0.9459   13.8985 C   0  0  0  0  0  0  0  0  0  0  0  0
   16.6815    0.5899   13.7449 C   0  0  0  0  0  0  0  0  0  0  0  0
   15.8702    1.5620   12.8783 C   0  0  2  0  0  0  0  0  0  0  0  0
   15.9135    3.3986   13.4173 S   0  0  0  0  0  0  0  0  0  0  0  0
   14.4288    3.6632   12.2465 C   0  0  0  0  0  0  0  0  0  0  0  0
   13.5948    2.3529   12.3508 C   0  0  2  0  0  0  0  0  0  0  0  0
   12.5768    2.5949   13.4972 N   0  0  0  0  0  0  0  0  0  0  0  0
   12.6891    1.7722   14.4478 C   0  0  0  0  0  0  0  0  0  0  0  0
   12.1422    1.7642   15.6073 O   0  0  0  0  0  0  0  0  0  0  0  0
   13.8349    0.9002   14.3281 N   0  0  0  0  0  0  0  0  0  0  0  0
   14.3857    1.1943   12.9331 C   0  0  2  0  0  0  0  0  0  0  0  0
  1  2  1  0  0  0  0
  1  3  2  0  0  0  0
  1  4  1  0  0  0  0
  4  5  1  0  0  0  0
  5  6  1  0  0  0  0
  6  7  1  0  0  0  0
  8  7  1  1  0  0  0
  8  9  1  0  0  0  0
  8 16  1  0  0  0  0
  9 10  1  0  0  0  0
 11 10  1  1  0  0  0
 11 12  1  0  0  0  0
 11 16  1  0  0  0  0
 12 13  1  0  0  0  0
 13 14  2  0  0  0  0
 13 15  1  0  0  0  0
 16 15  1  1  0  0  0
M  CHG  1   2  -1
M  END
>  <CHROM.1>
67.73891252,64.69342834,177.89849342,-54.00565667,-55.78562944,16.47749581
1.62834174,13.50149000,0.13634720,-0.18054749,2.46815484

>  <Name>
1f27 biotin aptamer (Xray 1.3A)

>  <RI>
0

>  <Rbt.Current_Directory>
/home/itssahil/PROJECTS/Mol_Feturizer/New_Systems/rnas/1f27

>  <Rbt.Executable>
rbdock ($Id: //depot/dev/client3/rdock/2013.1/src/exe/rbdock.cxx#4 $)

>  <Rbt.Library>
libRbt.so (2013.1, Build901 2013/11/27)

>  <Rbt.Parameter_File>
/export/apps/rDock/src/rDock_2013.1_src/data/scripts/dock_solv.prm

>  <Rbt.Receptor>
prm/blind_docking_40.prm

>  <SCORE>
-25.2867

>  <SCORE.INTER>
-23.1167

>  <SCORE.INTER.CONST>
1

>  <SCORE.INTER.POLAR>
-0.850579

>  <SCORE.INTER.ROT>
5

>  <SCORE.INTER.SOLV>
13.4077

>  <SCORE.INTER.VDW>
-23.9784

>  <SCORE.INTER.norm>
-1.44479

>  <SCORE.INTRA>
-2.17002

>  <SCORE.INTRA.DIHEDRAL>
-5.14676

>  <SCORE.INTRA.DIHEDRAL.0>
6.87082

>  <SCORE.INTRA.POLAR>
0

>  <SCORE.INTRA.POLAR.0>
0

>  <SCORE.INTRA.REPUL>
0

>  <SCORE.INTRA.REPUL.0>
0

>  <SCORE.INTRA.SOLV>
0.0932492

>  <SCORE.INTRA.SOLV.lig_0>
-42.5944

>  <SCORE.INTRA.VDW>
0.356738

>  <SCORE.INTRA.VDW.0>
-1.067

>  <SCORE.INTRA.norm>
-0.135626

>  <SCORE.RESTR>
0

>  <SCORE.RESTR.CAVITY>
0

>  <SCORE.RESTR.norm>
0

>  <SCORE.SYSTEM>
0

>  <SCORE.SYSTEM.CONST>
0

>  <SCORE.SYSTEM.DIHEDRAL>
0

>  <SCORE.SYSTEM.SOLV>
0

>  <SCORE.SYSTEM.norm>
0

>  <SCORE.heavy>
16

>  <SCORE.norm>
-1.58042

>  <RMSD>
3.255

$$$$
1f27 biotin aptamer (Xray 1.3A)
 OpenBabel11021811393D
libRbt.so/2013.1/901 2013/11/27
 16 17  0  0  0  0  0  0  0  0999 V2000
   19.6960    1.3269   13.3742 C   0  0  0  0  0  0  0  0  0  0  0  0
   19.9145    2.4638   12.9681 O   0  5  0  0  0  0  0  0  0  0  0  0
   20.0897    0.9894   14.4894 O   0  0  0  0  0  0  0  0  0  0  0  0
   18.8803    0.3567   12.5292 C   0  0  0  0  0  0  0  0  0  0  0  0
   17.5821   -0.1305   13.2105 C   0  0  0  0  0  0  0  0  0  0  0  0
   16.6591    1.0254   13.5493 C   0  0  0  0  0  0  0  0  0  0  0  0
   15.2555    0.5907   13.9160 C   0  0  0  0  0  0  0  0  0  0  0  0
   14.2761    1.7401   14.1883 C   0  0  2  0  0  0  0  0  0  0  0  0
   12.4493    1.2355   14.4605 S   0  0  0  0  0  0  0  0  0  0  0  0
   12.0187    3.0799   14.2207 C   0  0  0  0  0  0  0  0  0  0  0  0
   13.0237    3.5923   13.1480 C   0  0  2  0  0  0  0  0  0  0  0  0
   12.3219    3.3771   11.7804 N   0  0  0  0  0  0  0  0  0  0  0  0
   12.9613    2.6137   11.0048 C   0  0  0  0  0  0  0  0  0  0  0  0
   12.6178    2.0911    9.8856 O   0  0  0  0  0  0  0  0  0  0  0  0
   14.1102    1.9906   11.6208 N   0  0  0  0  0  0  0  0  0  0  0  0
   14.2256    2.6787   12.9806 C   0  0  2  0  0  0  0  0  0  0  0  0
  1  2  1  0  0  0  0
  1  3  2  0  0  0  0
  1  4  1  0  0  0  0
  4  5  1  0  0  0  0
  5  6  1  0  0  0  0
  6  7  1  0  0  0  0
  8  7  1  6  0  0  0
  8  9  1  0  0  0  0
  8 16  1  0  0  0  0
  9 10  1  0  0  0  0
 11 10  1  1  0  0  0
 11 12  1  0  0  0  0
 11 16  1  0  0  0  0
 12 13  1  0  0  0  0
 13 14  2  0  0  0  0
 13 15  1  0  0  0  0
 16 15  1  6  0  0  0
M  CHG  1   2  -1
M  END
>  <CHROM.1>
-119.06702263,59.32209617,166.54469015,-176.75855088,173.36786512,15.19973426
1.76452693,13.05055956,-0.16997742,0.15702477,-1.27279926

>  <Name>
1f27 biotin aptamer (Xray 1.3A)

>  <RI>
224

>  <Rbt.Current_Directory>
/home/itssahil/PROJECTS/Mol_Feturizer/New_Systems/rnas/1f27

>  <Rbt.Executable>
rbdock ($Id: //depot/dev/client3/rdock/2013.1/src/exe/rbdock.cxx#4 $)

>  <Rbt.Library>
libRbt.so (2013.1, Build901 2013/11/27)

>  <Rbt.Parameter_File>
/export/apps/rDock/src/rDock_2013.1_src/data/scripts/dock_solv.prm

>  <Rbt.Receptor>
prm/blind_docking_80.prm

>  <SCORE>
-21.442

>  <SCORE.INTER>
-19.9446

>  <SCORE.INTER.CONST>
1

>  <SCORE.INTER.POLAR>
-1.08545

>  <SCORE.INTER.ROT>
5

>  <SCORE.INTER.SOLV>
14.5166

>  <SCORE.INTER.VDW>
-21.4505

>  <SCORE.INTER.norm>
-1.24654

>  <SCORE.INTRA>
-1.50639

>  <SCORE.INTRA.DIHEDRAL>
-4.56148

>  <SCORE.INTRA.DIHEDRAL.0>
6.87082

>  <SCORE.INTRA.POLAR>
0

>  <SCORE.INTRA.POLAR.0>
0

>  <SCORE.INTRA.REPUL>
0

>  <SCORE.INTRA.REPUL.0>
0

>  <SCORE.INTRA.SOLV>
0.378285

>  <SCORE.INTRA.SOLV.lig_0>
-42.5944

>  <SCORE.INTRA.VDW>
0.585204

>  <SCORE.INTRA.VDW.0>
-1.067

>  <SCORE.INTRA.norm>
-0.0941495

>  <SCORE.RESTR>
0.00899016

>  <SCORE.RESTR.CAVITY>
0.00899016

>  <SCORE.RESTR.norm>
0.000561885

>  <SCORE.SYSTEM>
0

>  <SCORE.SYSTEM.CONST>
0

>  <SCORE.SYSTEM.DIHEDRAL>
0

>  <SCORE.SYSTEM.SOLV>
0

>  <SCORE.SYSTEM.norm>
0

>  <SCORE.heavy>
16

>  <SCORE.norm>
-1.34013

>  <RMSD>
3.313

$$$$
1f27 biotin aptamer (Xray 1.3A)
 OpenBabel11021811393D
libRbt.so/2013.1/901 2013/11/27
 16 17  0  0  0  0  0  0  0  0999 V2000
   19.3826    0.0014   14.0491 C   0  0  0  0  0  0  0  0  0  0  0  0
   19.0501   -1.1652   13.8651 O   0  5  0  0  0  0  0  0  0  0  0  0
   20.5717    0.3126   14.0066 O   0  0  0  0  0  0  0  0  0  0  0  0
   18.3222    1.0742   14.2617 C   0  0  0  0  0  0  0  0  0  0  0  0
   17.9179    1.8212   12.9711 C   0  0  0  0  0  0  0  0  0  0  0  0
   16.7451    2.7547   13.2079 C   0  0  0  0  0  0  0  0  0  0  0  0
   15.4716    2.0370   13.6035 C   0  0  0  0  0  0  0  0  0  0  0  0
   14.2169    2.9198   13.6303 C   0  0  2  0  0  0  0  0  0  0  0  0
   12.6000    2.0584   14.1865 S   0  0  0  0  0  0  0  0  0  0  0  0
   11.6792    3.5762   13.4841 C   0  0  0  0  0  0  0  0  0  0  0  0
   12.4981    3.9994   12.2297 C   0  0  2  0  0  0  0  0  0  0  0  0
   11.8726    3.2231   11.0401 N   0  0  0  0  0  0  0  0  0  0  0  0
   12.6912    2.4618   10.4539 C   0  0  0  0  0  0  0  0  0  0  0  0
   12.4961    1.5673    9.5564 O   0  0  0  0  0  0  0  0  0  0  0  0
   13.9709    2.3648   11.1175 N   0  0  0  0  0  0  0  0  0  0  0  0
   13.9030    3.4220   12.2192 C   0  0  2  0  0  0  0  0  0  0  0  0
  1  2  1  0  0  0  0
  1  3  2  0  0  0  0
  1  4  1  0  0  0  0
  4  5  1  0  0  0  0
  5  6  1  0  0  0  0
  6  7  1  0  0  0  0
  8  7  1  6  0  0  0
  8  9  1  0  0  0  0
  8 16  1  0  0  0  0
  9 10  1  0  0  0  0
 11 10  1  1  0  0  0
 11 12  1  0  0  0  0
 11 16  1  0  0  0  0
 12 13  1  0  0  0  0
 13 14  2  0  0  0  0
 13 15  1  0  0  0  0
 16 15  1  6  0  0  0
M  CHG  1   2  -1
M  END
>  <CHROM.1>
-94.33434880,173.04316211,-63.90949985,-170.60990245,-177.91059645,15.05813230
1.98513934,12.83617253,-0.21055093,0.38935848,-1.72020763

>  <Name>
1f27 biotin aptamer (Xray 1.3A)

>  <RI>
0

>  <Rbt.Current_Directory>
/home/itssahil/PROJECTS/Mol_Feturizer/New_Systems/rnas/1f27

>  <Rbt.Executable>
rbdock ($Id: //depot/dev/client3/rdock/2013.1/src/exe/rbdock.cxx#4 $)

>  <Rbt.Library>
libRbt.so (2013.1, Build901 2013/11/27)

>  <Rbt.Parameter_File>
/export/apps/rDock/src/rDock_2013.1_src/data/scripts/dock_solv.prm

>  <Rbt.Receptor>
prm/blind_docking_100.prm

>  <SCORE>
-22.3293

>  <SCORE.INTER>
-20.3132

>  <SCORE.INTER.CONST>
1

>  <SCORE.INTER.POLAR>
-0.787417

>  <SCORE.INTER.ROT>
5

>  <SCORE.INTER.SOLV>
10.6537

>  <SCORE.INTER.VDW>
-21.402

>  <SCORE.INTER.norm>
-1.26957

>  <SCORE.INTRA>
-2.01606

>  <SCORE.INTRA.DIHEDRAL>
-4.98397

>  <SCORE.INTRA.DIHEDRAL.0>
6.87082

>  <SCORE.INTRA.POLAR>
0

>  <SCORE.INTRA.POLAR.0>
0

>  <SCORE.INTRA.REPUL>
0

>  <SCORE.INTRA.REPUL.0>
0

>  <SCORE.INTRA.SOLV>
-0.634281

>  <SCORE.INTRA.SOLV.lig_0>
-42.5944

>  <SCORE.INTRA.VDW>
0.793064

>  <SCORE.INTRA.VDW.0>
-1.067

>  <SCORE.INTRA.norm>
-0.126004

>  <SCORE.RESTR>
0

>  <SCORE.RESTR.CAVITY>
0

>  <SCORE.RESTR.norm>
0

>  <SCORE.SYSTEM>
0

>  <SCORE.SYSTEM.CONST>
0

>  <SCORE.SYSTEM.DIHEDRAL>
0

>  <SCORE.SYSTEM.SOLV>
0

>  <SCORE.SYSTEM.norm>
0

>  <SCORE.heavy>
16

>  <SCORE.norm>
-1.39558

>  <RMSD>
3.322

$$$$
1f27 biotin aptamer (Xray 1.3A)
 OpenBabel11021811393D
libRbt.so/2013.1/901 2013/11/27
 16 17  0  0  0  0  0  0  0  0999 V2000
   19.5294    1.6926   13.5899 C   0  0  0  0  0  0  0  0  0  0  0  0
   19.4856    2.7988   14.1187 O   0  5  0  0  0  0  0  0  0  0  0  0
   20.0566    1.5625   12.4864 O   0  0  0  0  0  0  0  0  0  0  0  0
   18.9943    0.4713   14.3265 C   0  0  0  0  0  0  0  0  0  0  0  0
   17.5566    0.0750   13.9227 C   0  0  0  0  0  0  0  0  0  0  0  0
   16.5762    1.2097   14.1554 C   0  0  0  0  0  0  0  0  0  0  0  0
   15.1262    0.7911   14.0295 C   0  0  0  0  0  0  0  0  0  0  0  0
   14.1112    1.9312   14.1854 C   0  0  2  0  0  0  0  0  0  0  0  0
   12.2874    1.4002   14.4253 S   0  0  0  0  0  0  0  0  0  0  0  0
   11.8243    3.2123   14.0425 C   0  0  0  0  0  0  0  0  0  0  0  0
   12.8574    3.6753   12.9741 C   0  0  2  0  0  0  0  0  0  0  0  0
   12.2133    3.3492   11.6001 N   0  0  0  0  0  0  0  0  0  0  0  0
   12.8991    2.5509   10.9032 C   0  0  0  0  0  0  0  0  0  0  0  0
   12.6104    1.9443    9.8112 O   0  0  0  0  0  0  0  0  0  0  0  0
   14.0375    2.0008   11.6024 N   0  0  0  0  0  0  0  0  0  0  0  0
   14.0853    2.7832   12.9145 C   0  0  2  0  0  0  0  0  0  0  0  0
  1  2  1  0  0  0  0
  1  3  2  0  0  0  0
  1  4  1  0  0  0  0
  4  5  1  0  0  0  0
  5  6  1  0  0  0  0
  6  7  1  0  0  0  0
  8  7  1  6  0  0  0
  8  9  1  0  0  0  0
  8 16  1  0  0  0  0
  9 10  1  0  0  0  0
 11 10  1  1  0  0  0
 11 12  1  0  0  0  0
 11 16  1  0  0  0  0
 12 13  1  0  0  0  0
 13 14  2  0  0  0  0
 13 15  1  0  0  0  0
 16 15  1  6  0  0  0
M  CHG  1   2  -1
M  END
>  <CHROM.1>
97.76915989,-58.12914913,-168.90498691,-176.90240758,-166.81129241,15.08162053
1.91845930,13.14127289,-0.20794222,0.10980853,-1.29475679

>  <Name>
1f27 biotin aptamer (Xray 1.3A)

>  <RI>
224

>  <Rbt.Current_Directory>
/home/itssahil/PROJECTS/Mol_Feturizer/New_Systems/rnas/1f27

>  <Rbt.Executable>
rbdock ($Id: //depot/dev/client3/rdock/2013.1/src/exe/rbdock.cxx#4 $)

>  <Rbt.Library>
libRbt.so (2013.1, Build901 2013/11/27)

>  <Rbt.Parameter_File>
/export/apps/rDock/src/rDock_2013.1_src/data/scripts/dock_solv.prm

>  <Rbt.Receptor>
prm/blind_docking_80.prm

>  <SCORE>
-21.2317

>  <SCORE.INTER>
-19.4404

>  <SCORE.INTER.CONST>
1

>  <SCORE.INTER.POLAR>
-1.05017

>  <SCORE.INTER.ROT>
5

>  <SCORE.INTER.SOLV>
17.0636

>  <SCORE.INTER.VDW>
-22.0809

>  <SCORE.INTER.norm>
-1.21502

>  <SCORE.INTRA>
-1.79135

>  <SCORE.INTRA.DIHEDRAL>
-4.16563

>  <SCORE.INTRA.DIHEDRAL.0>
6.87082

>  <SCORE.INTRA.POLAR>
0

>  <SCORE.INTRA.POLAR.0>
0

>  <SCORE.INTRA.REPUL>
0

>  <SCORE.INTRA.REPUL.0>
0

>  <SCORE.INTRA.SOLV>
0.210494

>  <SCORE.INTRA.SOLV.lig_0>
-42.5944

>  <SCORE.INTRA.VDW>
0.186217

>  <SCORE.INTRA.VDW.0>
-1.067

>  <SCORE.INTRA.norm>
-0.111959

>  <SCORE.RESTR>
0

>  <SCORE.RESTR.CAVITY>
0

>  <SCORE.RESTR.norm>
0

>  <SCORE.SYSTEM>
0

>  <SCORE.SYSTEM.CONST>
0

>  <SCORE.SYSTEM.DIHEDRAL>
0

>  <SCORE.SYSTEM.SOLV>
0

>  <SCORE.SYSTEM.norm>
0

>  <SCORE.heavy>
16

>  <SCORE.norm>
-1.32698

>  <RMSD>
3.445

$$$$
1f27 biotin aptamer (Xray 1.3A)
 OpenBabel11021811393D
libRbt.so/2013.1/901 2013/11/27
 16 17  0  0  0  0  0  0  0  0999 V2000
   20.5106    0.5700   13.3260 C   0  0  0  0  0  0  0  0  0  0  0  0
   21.6009    0.0972   13.0213 O   0  5  0  0  0  0  0  0  0  0  0  0
   19.9371    0.1801   14.3417 O   0  0  0  0  0  0  0  0  0  0  0  0
   19.8995    1.6854   12.4875 C   0  0  0  0  0  0  0  0  0  0  0  0
   18.4036    1.4779   12.1617 C   0  0  0  0  0  0  0  0  0  0  0  0
   17.5269    1.7168   13.3771 C   0  0  0  0  0  0  0  0  0  0  0  0
   16.0719    1.3618   13.1521 C   0  0  0  0  0  0  0  0  0  0  0  0
   15.3820    2.1527   12.0329 C   0  0  2  0  0  0  0  0  0  0  0  0
   15.6419    4.0492   12.0664 S   0  0  0  0  0  0  0  0  0  0  0  0
   14.1998    4.1585   10.8201 C   0  0  0  0  0  0  0  0  0  0  0  0
   13.2165    3.0276   11.2413 C   0  0  2  0  0  0  0  0  0  0  0  0
   12.2335    3.6814   12.2489 N   0  0  0  0  0  0  0  0  0  0  0  0
   12.2470    3.1354   13.3868 C   0  0  0  0  0  0  0  0  0  0  0  0
   11.7022    3.4999   14.4886 O   0  0  0  0  0  0  0  0  0  0  0  0
   13.2817    2.1386   13.5399 N   0  0  0  0  0  0  0  0  0  0  0  0
   13.8643    1.9845   12.1353 C   0  0  2  0  0  0  0  0  0  0  0  0
  1  2  1  0  0  0  0
  1  3  2  0  0  0  0
  1  4  1  0  0  0  0
  4  5  1  0  0  0  0
  5  6  1  0  0  0  0
  6  7  1  0  0  0  0
  8  7  1  1  0  0  0
  8  9  1  0  0  0  0
  8 16  1  0  0  0  0
  9 10  1  0  0  0  0
 11 10  1  1  0  0  0
 11 12  1  0  0  0  0
 11 16  1  0  0  0  0
 12 13  1  0  0  0  0
 13 14  2  0  0  0  0
 13 15  1  0  0  0  0
 16 15  1  1  0  0  0
M  CHG  1   2  -1
M  END
>  <CHROM.1>
134.34931819,73.30945086,-172.93621833,-60.42962721,-47.79978442,15.98848170
2.30858946,12.72406081,0.26026790,-0.24124295,2.21425102

>  <Name>
1f27 biotin aptamer (Xray 1.3A)

>  <RI>
0

>  <Rbt.Current_Directory>
/home/itssahil/PROJECTS/Mol_Feturizer/New_Systems/rnas/1f27

>  <Rbt.Executable>
rbdock ($Id: //depot/dev/client3/rdock/2013.1/src/exe/rbdock.cxx#4 $)

>  <Rbt.Library>
libRbt.so (2013.1, Build901 2013/11/27)

>  <Rbt.Parameter_File>
/export/apps/rDock/src/rDock_2013.1_src/data/scripts/dock_solv.prm

>  <Rbt.Receptor>
prm/blind_docking_100.prm

>  <SCORE>
-20.2542

>  <SCORE.INTER>
-18.8557

>  <SCORE.INTER.CONST>
1

>  <SCORE.INTER.POLAR>
-0.165328

>  <SCORE.INTER.ROT>
5

>  <SCORE.INTER.SOLV>
10.699

>  <SCORE.INTER.VDW>
-22.5191

>  <SCORE.INTER.norm>
-1.17848

>  <SCORE.INTRA>
-1.39942

>  <SCORE.INTRA.DIHEDRAL>
-4.14744

>  <SCORE.INTRA.DIHEDRAL.0>
6.87082

>  <SCORE.INTRA.POLAR>
0

>  <SCORE.INTRA.POLAR.0>
0

>  <SCORE.INTRA.REPUL>
0

>  <SCORE.INTRA.REPUL.0>
0

>  <SCORE.INTRA.SOLV>
0.32505

>  <SCORE.INTRA.SOLV.lig_0>
-42.5944

>  <SCORE.INTRA.VDW>
0.51177

>  <SCORE.INTRA.VDW.0>
-1.067

>  <SCORE.INTRA.norm>
-0.0874641

>  <SCORE.RESTR>
0.000922115

>  <SCORE.RESTR.CAVITY>
0.000922115

>  <SCORE.RESTR.norm>
5.76322e-05

>  <SCORE.SYSTEM>
0

>  <SCORE.SYSTEM.CONST>
0

>  <SCORE.SYSTEM.DIHEDRAL>
0

>  <SCORE.SYSTEM.SOLV>
0

>  <SCORE.SYSTEM.norm>
0

>  <SCORE.heavy>
16

>  <SCORE.norm>
-1.26589

>  <RMSD>
3.450

$$$$
1f27 biotin aptamer (Xray 1.3A)
 OpenBabel11021811393D
libRbt.so/2013.1/901 2013/11/27
 16 17  0  0  0  0  0  0  0  0999 V2000
   18.5597    1.6532   12.3598 C   0  0  0  0  0  0  0  0  0  0  0  0
   19.6213    2.0912   12.7916 O   0  5  0  0  0  0  0  0  0  0  0  0
   17.8934    2.3272   11.5760 O   0  0  0  0  0  0  0  0  0  0  0  0
   18.1006    0.2509   12.7387 C   0  0  0  0  0  0  0  0  0  0  0  0
   17.2759    0.1919   14.0439 C   0  0  0  0  0  0  0  0  0  0  0  0
   15.9093    0.8289   13.8726 C   0  0  0  0  0  0  0  0  0  0  0  0
   15.9046    2.3240   14.1143 C   0  0  0  0  0  0  0  0  0  0  0  0
   14.5784    3.0243   13.7902 C   0  0  2  0  0  0  0  0  0  0  0  0
   13.0634    1.8779   13.5532 S   0  0  0  0  0  0  0  0  0  0  0  0
   12.1804    3.3864   12.7851 C   0  0  0  0  0  0  0  0  0  0  0  0
   13.2934    4.1562   12.0158 C   0  0  2  0  0  0  0  0  0  0  0  0
   13.2867    3.5743   10.5768 N   0  0  0  0  0  0  0  0  0  0  0  0
   14.3876    3.0555   10.2421 C   0  0  0  0  0  0  0  0  0  0  0  0
   14.6946    2.3500    9.2166 O   0  0  0  0  0  0  0  0  0  0  0  0
   15.3446    2.9777   11.3217 N   0  0  0  0  0  0  0  0  0  0  0  0
   14.6936    3.7671   12.4571 C   0  0  2  0  0  0  0  0  0  0  0  0
  1  2  1  0  0  0  0
  1  3  2  0  0  0  0
  1  4  1  0  0  0  0
  4  5  1  0  0  0  0
  5  6  1  0  0  0  0
  6  7  1  0  0  0  0
  8  7  1  6  0  0  0
  8  9  1  0  0  0  0
  8 16  1  0  0  0  0
  9 10  1  0  0  0  0
 11 10  1  1  0  0  0
 11 12  1  0  0  0  0
 11 16  1  0  0  0  0
 12 13  1  0  0  0  0
 13 14  2  0  0  0  0
 13 15  1  0  0  0  0
 16 15  1  6  0  0  0
M  CHG  1   2  -1
M  END
>  <CHROM.1>
88.13680802,69.81656493,-86.72640383,173.15971316,14.19110754,15.40178205
2.31583208,12.40085134,-0.28284930,0.25904553,-1.18916615

>  <Name>
1f27 biotin aptamer (Xray 1.3A)

>  <RI>
224

>  <Rbt.Current_Directory>
/home/itssahil/PROJECTS/Mol_Feturizer/New_Systems/rnas/1f27

>  <Rbt.Executable>
rbdock ($Id: //depot/dev/client3/rdock/2013.1/src/exe/rbdock.cxx#4 $)

>  <Rbt.Library>
libRbt.so (2013.1, Build901 2013/11/27)

>  <Rbt.Parameter_File>
/export/apps/rDock/src/rDock_2013.1_src/data/scripts/dock_solv.prm

>  <Rbt.Receptor>
prm/blind_docking_80.prm

>  <SCORE>
-25.1412

>  <SCORE.INTER>
-24.5493

>  <SCORE.INTER.CONST>
1

>  <SCORE.INTER.POLAR>
-1.79871

>  <SCORE.INTER.ROT>
5

>  <SCORE.INTER.SOLV>
14.4835

>  <SCORE.INTER.VDW>
-22.1316

>  <SCORE.INTER.norm>
-1.53433

>  <SCORE.INTRA>
-0.591978

>  <SCORE.INTRA.DIHEDRAL>
2.73748

>  <SCORE.INTRA.DIHEDRAL.0>
6.87082

>  <SCORE.INTRA.POLAR>
-1.19656

>  <SCORE.INTRA.POLAR.0>
0

>  <SCORE.INTRA.REPUL>
0

>  <SCORE.INTRA.REPUL.0>
0

>  <SCORE.INTRA.SOLV>
4.49098

>  <SCORE.INTRA.SOLV.lig_0>
-42.5944

>  <SCORE.INTRA.VDW>
-0.137908

>  <SCORE.INTRA.VDW.0>
-1.067

>  <SCORE.INTRA.norm>
-0.0369986

>  <SCORE.RESTR>
0

>  <SCORE.RESTR.CAVITY>
0

>  <SCORE.RESTR.norm>
0

>  <SCORE.SYSTEM>
0

>  <SCORE.SYSTEM.CONST>
0

>  <SCORE.SYSTEM.DIHEDRAL>
0

>  <SCORE.SYSTEM.SOLV>
0

>  <SCORE.SYSTEM.norm>
0

>  <SCORE.heavy>
16

>  <SCORE.norm>
-1.57133

>  <RMSD>
3.459

$$$$
1f27 biotin aptamer (Xray 1.3A)
 OpenBabel11021811393D
libRbt.so/2013.1/901 2013/11/27
 16 17  0  0  0  0  0  0  0  0999 V2000
   20.3007    1.3200   14.3431 C   0  0  0  0  0  0  0  0  0  0  0  0
   21.4725    1.6551   14.4843 O   0  5  0  0  0  0  0  0  0  0  0  0
   19.9765    0.1450   14.5068 O   0  0  0  0  0  0  0  0  0  0  0  0
   19.2382    2.3668   14.0333 C   0  0  0  0  0  0  0  0  0  0  0  0
   17.7890    1.8463   14.1595 C   0  0  0  0  0  0  0  0  0  0  0  0
   16.7754    2.9196   13.8082 C   0  0  0  0  0  0  0  0  0  0  0  0
   15.3425    2.4302   13.8360 C   0  0  0  0  0  0  0  0  0  0  0  0
   14.3078    3.4382   13.3186 C   0  0  2  0  0  0  0  0  0  0  0  0
   12.5054    2.8027   13.2048 S   0  0  0  0  0  0  0  0  0  0  0  0
   12.1469    4.3408   12.1322 C   0  0  0  0  0  0  0  0  0  0  0  0
   13.4445    4.5644   11.3018 C   0  0  2  0  0  0  0  0  0  0  0  0
   13.2472    3.7564    9.9914 N   0  0  0  0  0  0  0  0  0  0  0  0
   14.1238    2.8652    9.8165 C   0  0  0  0  0  0  0  0  0  0  0  0
   14.1860    1.9207    8.9518 O   0  0  0  0  0  0  0  0  0  0  0  0
   15.0099    2.6936   10.9448 N   0  0  0  0  0  0  0  0  0  0  0  0
   14.6490    3.8448   11.8832 C   0  0  2  0  0  0  0  0  0  0  0  0
  1  2  1  0  0  0  0
  1  3  2  0  0  0  0
  1  4  1  0  0  0  0
  4  5  1  0  0  0  0
  5  6  1  0  0  0  0
  6  7  1  0  0  0  0
  8  7  1  6  0  0  0
  8  9  1  0  0  0  0
  8 16  1  0  0  0  0
  9 10  1  0  0  0  0
 11 10  1  1  0  0  0
 11 12  1  0  0  0  0
 11 16  1  0  0  0  0
 12 13  1  0  0  0  0
 13 14  2  0  0  0  0
 13 15  1  0  0  0  0
 16 15  1  6  0  0  0
M  CHG  1   2  -1
M  END
>  <CHROM.1>
-168.53874231,-178.64362853,176.48076483,-172.76167999,175.17166959,15.70475230
2.65188622,12.58922726,-0.39066307,0.30651299,-1.63036508

>  <Name>
1f27 biotin aptamer (Xray 1.3A)

>  <RI>
0

>  <Rbt.Current_Directory>
/home/itssahil/PROJECTS/Mol_Feturizer/New_Systems/rnas/1f27

>  <Rbt.Executable>
rbdock ($Id: //depot/dev/client3/rdock/2013.1/src/exe/rbdock.cxx#4 $)

>  <Rbt.Library>
libRbt.so (2013.1, Build901 2013/11/27)

>  <Rbt.Parameter_File>
/export/apps/rDock/src/rDock_2013.1_src/data/scripts/dock_solv.prm

>  <Rbt.Receptor>
prm/blind_docking_40.prm

>  <SCORE>
-17.4398

>  <SCORE.INTER>
-15.6051

>  <SCORE.INTER.CONST>
1

>  <SCORE.INTER.POLAR>
-0.943436

>  <SCORE.INTER.ROT>
5

>  <SCORE.INTER.SOLV>
15.4652

>  <SCORE.INTER.VDW>
-19.347

>  <SCORE.INTER.norm>
-0.975316

>  <SCORE.INTRA>
-1.83477

>  <SCORE.INTRA.DIHEDRAL>
-5.08973

>  <SCORE.INTRA.DIHEDRAL.0>
6.87082

>  <SCORE.INTRA.POLAR>
0

>  <SCORE.INTRA.POLAR.0>
0

>  <SCORE.INTRA.REPUL>
0

>  <SCORE.INTRA.REPUL.0>
0

>  <SCORE.INTRA.SOLV>
-0.54762

>  <SCORE.INTRA.SOLV.lig_0>
-42.5944

>  <SCORE.INTRA.VDW>
0.983906

>  <SCORE.INTRA.VDW.0>
-1.067

>  <SCORE.INTRA.norm>
-0.114673

>  <SCORE.RESTR>
0

>  <SCORE.RESTR.CAVITY>
0

>  <SCORE.RESTR.norm>
0

>  <SCORE.SYSTEM>
0

>  <SCORE.SYSTEM.CONST>
0

>  <SCORE.SYSTEM.DIHEDRAL>
0

>  <SCORE.SYSTEM.SOLV>
0

>  <SCORE.SYSTEM.norm>
0

>  <SCORE.heavy>
16

>  <SCORE.norm>
-1.08999

>  <RMSD>
3.476

$$$$
1f27 biotin aptamer (Xray 1.3A)
 OpenBabel11021811393D
libRbt.so/2013.1/901 2013/11/27
 16 17  0  0  0  0  0  0  0  0999 V2000
   18.8949   -0.2427   13.0056 C   0  0  0  0  0  0  0  0  0  0  0  0
   18.7042   -1.4291   13.2533 O   0  5  0  0  0  0  0  0  0  0  0  0
   20.0381    0.1647   12.8069 O   0  0  0  0  0  0  0  0  0  0  0  0
   17.7139    0.7108   12.8766 C   0  0  0  0  0  0  0  0  0  0  0  0
   17.6393    1.7725   13.9965 C   0  0  0  0  0  0  0  0  0  0  0  0
   16.4582    2.7061   13.8060 C   0  0  0  0  0  0  0  0  0  0  0  0
   15.1160    2.0245   13.9724 C   0  0  0  0  0  0  0  0  0  0  0  0
   13.9016    2.9526   13.8371 C   0  0  2  0  0  0  0  0  0  0  0  0
   12.2020    2.1706   14.2441 S   0  0  0  0  0  0  0  0  0  0  0  0
   11.4218    3.6949   13.4000 C   0  0  0  0  0  0  0  0  0  0  0  0
   12.3848    4.0435   12.2277 C   0  0  2  0  0  0  0  0  0  0  0  0
   11.8580    3.2487   11.0029 N   0  0  0  0  0  0  0  0  0  0  0  0
   12.7030    2.4380   10.5318 C   0  0  0  0  0  0  0  0  0  0  0  0
   12.5684    1.5199    9.6471 O   0  0  0  0  0  0  0  0  0  0  0  0
   13.9006    2.3182   11.3311 N   0  0  0  0  0  0  0  0  0  0  0  0
   13.7588    3.4156   12.3855 C   0  0  2  0  0  0  0  0  0  0  0  0
  1  2  1  0  0  0  0
  1  3  2  0  0  0  0
  1  4  1  0  0  0  0
  4  5  1  0  0  0  0
  5  6  1  0  0  0  0
  6  7  1  0  0  0  0
  8  7  1  6  0  0  0
  8  9  1  0  0  0  0
  8 16  1  0  0  0  0
  9 10  1  0  0  0  0
 11 10  1  1  0  0  0
 11 12  1  0  0  0  0
 11 16  1  0  0  0  0
 12 13  1  0  0  0  0
 13 14  2  0  0  0  0
 13 15  1  0  0  0  0
 16 15  1  6  0  0  0
M  CHG  1   2  -1
M  END
>  <CHROM.1>
112.84610109,179.12987368,66.90139053,177.84486211,-173.07535992,14.79037677
1.93850213,12.74378117,-0.03489967,0.42792745,-1.81529989

>  <Name>
1f27 biotin aptamer (Xray 1.3A)

>  <RI>
0

>  <Rbt.Current_Directory>
/home/itssahil/PROJECTS/Mol_Feturizer/New_Systems/rnas/1f27

>  <Rbt.Executable>
rbdock ($Id: //depot/dev/client3/rdock/2013.1/src/exe/rbdock.cxx#4 $)

>  <Rbt.Library>
libRbt.so (2013.1, Build901 2013/11/27)

>  <Rbt.Parameter_File>
/export/apps/rDock/src/rDock_2013.1_src/data/scripts/dock_solv.prm

>  <Rbt.Receptor>
prm/pocket_docking_6.prm

>  <SCORE>
-23.477

>  <SCORE.INTER>
-21.1786

>  <SCORE.INTER.CONST>
1

>  <SCORE.INTER.POLAR>
-0.806967

>  <SCORE.INTER.ROT>
5

>  <SCORE.INTER.SOLV>
12.8593

>  <SCORE.INTER.VDW>
-22.6489

>  <SCORE.INTER.norm>
-1.32366

>  <SCORE.INTRA>
-2.29848

>  <SCORE.INTRA.DIHEDRAL>
-5.04086

>  <SCORE.INTRA.DIHEDRAL.0>
6.87082

>  <SCORE.INTRA.POLAR>
0

>  <SCORE.INTRA.POLAR.0>
0

>  <SCORE.INTRA.REPUL>
0

>  <SCORE.INTRA.REPUL.0>
0

>  <SCORE.INTRA.SOLV>
-0.691089

>  <SCORE.INTRA.SOLV.lig_0>
-42.5944

>  <SCORE.INTRA.VDW>
0.567494

>  <SCORE.INTRA.VDW.0>
-1.067

>  <SCORE.INTRA.norm>
-0.143655

>  <SCORE.RESTR>
0

>  <SCORE.RESTR.CAVITY>
0

>  <SCORE.RESTR.norm>
0

>  <SCORE.SYSTEM>
0

>  <SCORE.SYSTEM.CONST>
0

>  <SCORE.SYSTEM.DIHEDRAL>
0

>  <SCORE.SYSTEM.SOLV>
0

>  <SCORE.SYSTEM.norm>
0

>  <SCORE.heavy>
16

>  <SCORE.norm>
-1.46732

>  <RMSD>
3.482

$$$$
1f27 biotin aptamer (Xray 1.3A)
 OpenBabel11021811393D
libRbt.so/2013.1/901 2013/11/27
 16 17  0  0  0  0  0  0  0  0999 V2000
   18.6650   -0.3228   12.8970 C   0  0  0  0  0  0  0  0  0  0  0  0
   19.8258   -0.0706   12.5900 O   0  5  0  0  0  0  0  0  0  0  0  0
   18.3729   -1.4403   13.3195 O   0  0  0  0  0  0  0  0  0  0  0  0
   17.6005    0.7642   12.8205 C   0  0  0  0  0  0  0  0  0  0  0  0
   17.4328    1.5712   14.1272 C   0  0  0  0  0  0  0  0  0  0  0  0
   16.5270    2.7730   13.9315 C   0  0  0  0  0  0  0  0  0  0  0  0
   15.0704    2.4068   13.7372 C   0  0  0  0  0  0  0  0  0  0  0  0
   14.1995    3.5228   13.1454 C   0  0  2  0  0  0  0  0  0  0  0  0
   12.3404    3.1132   12.9405 S   0  0  0  0  0  0  0  0  0  0  0  0
   12.2357    4.6583   11.8239 C   0  0  0  0  0  0  0  0  0  0  0  0
   13.5939    4.6996   11.0646 C   0  0  2  0  0  0  0  0  0  0  0  0
   13.3681    3.8916    9.7587 N   0  0  0  0  0  0  0  0  0  0  0  0
   14.1345    2.8947    9.6485 C   0  0  0  0  0  0  0  0  0  0  0  0
   14.1245    1.9297    8.8045 O   0  0  0  0  0  0  0  0  0  0  0  0
   14.9300    2.6412   10.8277 N   0  0  0  0  0  0  0  0  0  0  0  0
   14.6658    3.8500   11.7250 C   0  0  2  0  0  0  0  0  0  0  0  0
  1  2  1  0  0  0  0
  1  3  2  0  0  0  0
  1  4  1  0  0  0  0
  4  5  1  0  0  0  0
  5  6  1  0  0  0  0
  6  7  1  0  0  0  0
  8  7  1  6  0  0  0
  8  9  1  0  0  0  0
  8 16  1  0  0  0  0
  9 10  1  0  0  0  0
 11 10  1  1  0  0  0
 11 12  1  0  0  0  0
 11 16  1  0  0  0  0
 12 13  1  0  0  0  0
 13 14  2  0  0  0  0
 13 15  1  0  0  0  0
 16 15  1  6  0  0  0
M  CHG  1   2  -1
M  END
>  <CHROM.1>
-90.22938825,170.95298301,70.97440350,-163.27671619,-178.04657329,15.25062686
2.31342620,12.12224360,-0.22161953,0.62086792,-1.66766138

>  <Name>
1f27 biotin aptamer (Xray 1.3A)

>  <RI>
0

>  <Rbt.Current_Directory>
/home/itssahil/PROJECTS/Mol_Feturizer/New_Systems/rnas/1f27

>  <Rbt.Executable>
rbdock ($Id: //depot/dev/client3/rdock/2013.1/src/exe/rbdock.cxx#4 $)

>  <Rbt.Library>
libRbt.so (2013.1, Build901 2013/11/27)

>  <Rbt.Parameter_File>
/export/apps/rDock/src/rDock_2013.1_src/data/scripts/dock_solv.prm

>  <Rbt.Receptor>
prm/blind_docking_100.prm

>  <SCORE>
-17.6273

>  <SCORE.INTER>
-15.8733

>  <SCORE.INTER.CONST>
1

>  <SCORE.INTER.POLAR>
-1.0642

>  <SCORE.INTER.ROT>
5

>  <SCORE.INTER.SOLV>
14.1199

>  <SCORE.INTER.VDW>
-18.6749

>  <SCORE.INTER.norm>
-0.992084

>  <SCORE.INTRA>
-1.75399

>  <SCORE.INTRA.DIHEDRAL>
-3.70617

>  <SCORE.INTRA.DIHEDRAL.0>
6.87082

>  <SCORE.INTRA.POLAR>
0

>  <SCORE.INTRA.POLAR.0>
0

>  <SCORE.INTRA.REPUL>
0

>  <SCORE.INTRA.REPUL.0>
0

>  <SCORE.INTRA.SOLV>
-0.46492

>  <SCORE.INTRA.SOLV.lig_0>
-42.5944

>  <SCORE.INTRA.VDW>
0.331552

>  <SCORE.INTRA.VDW.0>
-1.067

>  <SCORE.INTRA.norm>
-0.109624

>  <SCORE.RESTR>
0

>  <SCORE.RESTR.CAVITY>
0

>  <SCORE.RESTR.norm>
0

>  <SCORE.SYSTEM>
0

>  <SCORE.SYSTEM.CONST>
0

>  <SCORE.SYSTEM.DIHEDRAL>
0

>  <SCORE.SYSTEM.SOLV>
0

>  <SCORE.SYSTEM.norm>
0

>  <SCORE.heavy>
16

>  <SCORE.norm>
-1.10171

>  <RMSD>
3.502

$$$$
1f27 biotin aptamer (Xray 1.3A)
 OpenBabel11021811393D
libRbt.so/2013.1/901 2013/11/27
 16 17  0  0  0  0  0  0  0  0999 V2000
   23.6038   -3.1277   16.3603 C   0  0  0  0  0  0  0  0  0  0  0  0
   24.6124   -2.8631   15.7138 O   0  5  0  0  0  0  0  0  0  0  0  0
   23.1192   -4.2566   16.3032 O   0  0  0  0  0  0  0  0  0  0  0  0
   22.9921   -2.0826   17.2845 C   0  0  0  0  0  0  0  0  0  0  0  0
   21.7850   -1.3354   16.6748 C   0  0  0  0  0  0  0  0  0  0  0  0
   22.1581   -0.6244   15.3871 C   0  0  0  0  0  0  0  0  0  0  0  0
   21.2139    0.5024   15.0233 C   0  0  0  0  0  0  0  0  0  0  0  0
   19.7540    0.0776   14.8171 C   0  0  2  0  0  0  0  0  0  0  0  0
   19.3888   -0.9130   13.2199 S   0  0  0  0  0  0  0  0  0  0  0  0
   17.5426   -0.5597   13.5541 C   0  0  0  0  0  0  0  0  0  0  0  0
   17.5107    0.8702   14.1687 C   0  0  2  0  0  0  0  0  0  0  0  0
   17.3521    1.8390   12.9664 N   0  0  0  0  0  0  0  0  0  0  0  0
   18.3018    2.6636   12.8601 C   0  0  0  0  0  0  0  0  0  0  0  0
   18.5852    3.4858   11.9181 O   0  0  0  0  0  0  0  0  0  0  0  0
   19.3908    2.4160   13.7768 N   0  0  0  0  0  0  0  0  0  0  0  0
   18.8629    1.3160   14.6974 C   0  0  2  0  0  0  0  0  0  0  0  0
  1  2  1  0  0  0  0
  1  3  2  0  0  0  0
  1  4  1  0  0  0  0
  4  5  1  0  0  0  0
  5  6  1  0  0  0  0
  6  7  1  0  0  0  0
  8  7  1  6  0  0  0
  8  9  1  0  0  0  0
  8 16  1  0  0  0  0
  9 10  1  0  0  0  0
 11 10  1  6  0  0  0
 11 12  1  0  0  0  0
 11 16  1  0  0  0  0
 12 13  1  0  0  0  0
 13 14  2  0  0  0  0
 13 15  1  0  0  0  0
 16 15  1  6  0  0  0
M  CHG  1   2  -1
M  END
>  <CHROM.1>
99.18730578,-58.62494405,-158.78464177,-59.92329308,-72.25807507,20.34908253
-0.23293281,14.55120724,-0.72898807,-0.45157626,-0.15047992

>  <Name>
1f27 biotin aptamer (Xray 1.3A)

>  <RI>
0

>  <Rbt.Current_Directory>
/home/itssahil/PROJECTS/Mol_Feturizer/New_Systems/rnas/1f27

>  <Rbt.Executable>
rbdock ($Id: //depot/dev/client3/rdock/2013.1/src/exe/rbdock.cxx#4 $)

>  <Rbt.Library>
libRbt.so (2013.1, Build901 2013/11/27)

>  <Rbt.Parameter_File>
/export/apps/rDock/src/rDock_2013.1_src/data/scripts/dock_solv.prm

>  <Rbt.Receptor>
prm/pocket_docking_8.prm

>  <SCORE>
-13.7552

>  <SCORE.INTER>
-12.5417

>  <SCORE.INTER.CONST>
1

>  <SCORE.INTER.POLAR>
-1.23288

>  <SCORE.INTER.ROT>
5

>  <SCORE.INTER.SOLV>
6.83926

>  <SCORE.INTER.VDW>
-13.4646

>  <SCORE.INTER.norm>
-0.783859

>  <SCORE.INTRA>
-1.21344

>  <SCORE.INTRA.DIHEDRAL>
-3.13145

>  <SCORE.INTRA.DIHEDRAL.0>
6.87082

>  <SCORE.INTRA.POLAR>
0

>  <SCORE.INTRA.POLAR.0>
0

>  <SCORE.INTRA.REPUL>
0

>  <SCORE.INTRA.REPUL.0>
0

>  <SCORE.INTRA.SOLV>
0.11456

>  <SCORE.INTRA.SOLV.lig_0>
-42.5944

>  <SCORE.INTRA.VDW>
0.295008

>  <SCORE.INTRA.VDW.0>
-1.067

>  <SCORE.INTRA.norm>
-0.0758398

>  <SCORE.RESTR>
0

>  <SCORE.RESTR.CAVITY>
0

>  <SCORE.RESTR.norm>
0

>  <SCORE.SYSTEM>
0

>  <SCORE.SYSTEM.CONST>
0

>  <SCORE.SYSTEM.DIHEDRAL>
0

>  <SCORE.SYSTEM.SOLV>
0

>  <SCORE.SYSTEM.norm>
0

>  <SCORE.heavy>
16

>  <SCORE.norm>
-0.859698

>  <RMSD>
3.511

$$$$
1f27 biotin aptamer (Xray 1.3A)
 OpenBabel11021811393D
libRbt.so/2013.1/901 2013/11/27
 16 17  0  0  0  0  0  0  0  0999 V2000
   20.2135    1.2012   13.9498 C   0  0  0  0  0  0  0  0  0  0  0  0
   20.4161    0.5131   12.9544 O   0  5  0  0  0  0  0  0  0  0  0  0
   20.8956    1.0327   14.9591 O   0  0  0  0  0  0  0  0  0  0  0  0
   19.1667    2.3074   13.9143 C   0  0  0  0  0  0  0  0  0  0  0  0
   17.7135    1.8008   14.0510 C   0  0  0  0  0  0  0  0  0  0  0  0
   16.7097    2.9270   13.8867 C   0  0  0  0  0  0  0  0  0  0  0  0
   15.2716    2.4538   13.8468 C   0  0  0  0  0  0  0  0  0  0  0  0
   14.2714    3.4796   13.2977 C   0  0  2  0  0  0  0  0  0  0  0  0
   12.4596    2.8805   13.1418 S   0  0  0  0  0  0  0  0  0  0  0  0
   12.1602    4.4193   12.0520 C   0  0  0  0  0  0  0  0  0  0  0  0
   13.4826    4.6112   11.2536 C   0  0  2  0  0  0  0  0  0  0  0  0
   13.3018    3.7995    9.9430 N   0  0  0  0  0  0  0  0  0  0  0  0
   14.1639    2.8895    9.7953 C   0  0  0  0  0  0  0  0  0  0  0  0
   14.2284    1.9388    8.9376 O   0  0  0  0  0  0  0  0  0  0  0  0
   15.0176    2.7066   10.9466 N   0  0  0  0  0  0  0  0  0  0  0  0
   14.6570    3.8705   11.8693 C   0  0  2  0  0  0  0  0  0  0  0  0
  1  2  1  0  0  0  0
  1  3  2  0  0  0  0
  1  4  1  0  0  0  0
  4  5  1  0  0  0  0
  5  6  1  0  0  0  0
  6  7  1  0  0  0  0
  8  7  1  6  0  0  0
  8  9  1  0  0  0  0
  8 16  1  0  0  0  0
  9 10  1  0  0  0  0
 11 10  1  1  0  0  0
 11 12  1  0  0  0  0
 11 16  1  0  0  0  0
 12 13  1  0  0  0  0
 13 14  2  0  0  0  0
 13 15  1  0  0  0  0
 16 15  1  6  0  0  0
M  CHG  1   2  -1
M  END
>  <CHROM.1>
78.27996757,-174.97046513,173.06706097,-163.65627791,176.71640149,15.67892994
2.65175158,12.46876586,-0.33415484,0.34539138,-1.67005781

>  <Name>
1f27 biotin aptamer (Xray 1.3A)

>  <RI>
0

>  <Rbt.Current_Directory>
/home/itssahil/PROJECTS/Mol_Feturizer/New_Systems/rnas/1f27

>  <Rbt.Executable>
rbdock ($Id: //depot/dev/client3/rdock/2013.1/src/exe/rbdock.cxx#4 $)

>  <Rbt.Library>
libRbt.so (2013.1, Build901 2013/11/27)

>  <Rbt.Parameter_File>
/export/apps/rDock/src/rDock_2013.1_src/data/scripts/dock_solv.prm

>  <Rbt.Receptor>
prm/pocket_docking_8.prm

>  <SCORE>
-18.1986

>  <SCORE.INTER>
-16.1342

>  <SCORE.INTER.CONST>
1

>  <SCORE.INTER.POLAR>
-0.944683

>  <SCORE.INTER.ROT>
5

>  <SCORE.INTER.SOLV>
14.1312

>  <SCORE.INTER.VDW>
-19.2509

>  <SCORE.INTER.norm>
-1.00839

>  <SCORE.INTRA>
-2.06436

>  <SCORE.INTRA.DIHEDRAL>
-4.0389

>  <SCORE.INTRA.DIHEDRAL.0>
6.87082

>  <SCORE.INTRA.POLAR>
0

>  <SCORE.INTRA.POLAR.0>
0

>  <SCORE.INTRA.REPUL>
0

>  <SCORE.INTRA.REPUL.0>
0

>  <SCORE.INTRA.SOLV>
-0.638411

>  <SCORE.INTRA.SOLV.lig_0>
-42.5944

>  <SCORE.INTRA.VDW>
0.27429

>  <SCORE.INTRA.VDW.0>
-1.067

>  <SCORE.INTRA.norm>
-0.129023

>  <SCORE.RESTR>
0

>  <SCORE.RESTR.CAVITY>
0

>  <SCORE.RESTR.norm>
0

>  <SCORE.SYSTEM>
0

>  <SCORE.SYSTEM.CONST>
0

>  <SCORE.SYSTEM.DIHEDRAL>
0

>  <SCORE.SYSTEM.SOLV>
0

>  <SCORE.SYSTEM.norm>
0

>  <SCORE.heavy>
16

>  <SCORE.norm>
-1.13741

>  <RMSD>
3.517

$$$$
1f27 biotin aptamer (Xray 1.3A)
 OpenBabel11021811393D
libRbt.so/2013.1/901 2013/11/27
 16 17  0  0  0  0  0  0  0  0999 V2000
   19.7975    0.5832   14.3687 C   0  0  0  0  0  0  0  0  0  0  0  0
   19.7014   -0.4101   13.6549 O   0  5  0  0  0  0  0  0  0  0  0  0
   20.6631    0.6280   15.2412 O   0  0  0  0  0  0  0  0  0  0  0  0
   18.8930    1.7857   14.1312 C   0  0  0  0  0  0  0  0  0  0  0  0
   17.3846    1.4545   14.1738 C   0  0  0  0  0  0  0  0  0  0  0  0
   16.5346    2.6691   13.8496 C   0  0  0  0  0  0  0  0  0  0  0  0
   15.0578    2.3577   13.7251 C   0  0  0  0  0  0  0  0  0  0  0  0
   14.2085    3.4910   13.1345 C   0  0  2  0  0  0  0  0  0  0  0  0
   12.3423    3.1168   12.9274 S   0  0  0  0  0  0  0  0  0  0  0  0
   12.2676    4.6655   11.8135 C   0  0  0  0  0  0  0  0  0  0  0  0
   13.6270    4.6826   11.0553 C   0  0  2  0  0  0  0  0  0  0  0  0
   13.3871    3.8812    9.7478 N   0  0  0  0  0  0  0  0  0  0  0  0
   14.1347    2.8704    9.6366 C   0  0  0  0  0  0  0  0  0  0  0  0
   14.1074    1.9071    8.7909 O   0  0  0  0  0  0  0  0  0  0  0  0
   14.9243    2.5998   10.8160 N   0  0  0  0  0  0  0  0  0  0  0  0
   14.6822    3.8118   11.7151 C   0  0  2  0  0  0  0  0  0  0  0  0
  1  2  1  0  0  0  0
  1  3  2  0  0  0  0
  1  4  1  0  0  0  0
  4  5  1  0  0  0  0
  5  6  1  0  0  0  0
  6  7  1  0  0  0  0
  8  7  1  6  0  0  0
  8  9  1  0  0  0  0
  8 16  1  0  0  0  0
  9 10  1  0  0  0  0
 11 10  1  1  0  0  0
 11 12  1  0  0  0  0
 11 16  1  0  0  0  0
 12 13  1  0  0  0  0
 13 14  2  0  0  0  0
 13 15  1  0  0  0  0
 16 15  1  6  0  0  0
M  CHG  1   2  -1
M  END
>  <CHROM.1>
56.35876194,-176.59624990,173.46016800,-168.62596799,178.71232387,15.52529188
2.50555906,12.45731726,-0.39505258,0.47246253,-1.69454506

>  <Name>
1f27 biotin aptamer (Xray 1.3A)

>  <RI>
0

>  <Rbt.Current_Directory>
/home/itssahil/PROJECTS/Mol_Feturizer/New_Systems/rnas/1f27

>  <Rbt.Executable>
rbdock ($Id: //depot/dev/client3/rdock/2013.1/src/exe/rbdock.cxx#4 $)

>  <Rbt.Library>
libRbt.so (2013.1, Build901 2013/11/27)

>  <Rbt.Parameter_File>
/export/apps/rDock/src/rDock_2013.1_src/data/scripts/dock_solv.prm

>  <Rbt.Receptor>
prm/pocket_docking_8.prm

>  <SCORE>
-18.5895

>  <SCORE.INTER>
-16.251

>  <SCORE.INTER.CONST>
1

>  <SCORE.INTER.POLAR>
-1.16028

>  <SCORE.INTER.ROT>
5

>  <SCORE.INTER.SOLV>
12.173

>  <SCORE.INTER.VDW>
-17.9574

>  <SCORE.INTER.norm>
-1.01568

>  <SCORE.INTRA>
-2.33858

>  <SCORE.INTRA.DIHEDRAL>
-4.78156

>  <SCORE.INTRA.DIHEDRAL.0>
6.87082

>  <SCORE.INTRA.POLAR>
0

>  <SCORE.INTRA.POLAR.0>
0

>  <SCORE.INTRA.REPUL>
0

>  <SCORE.INTRA.REPUL.0>
0

>  <SCORE.INTRA.SOLV>
-0.649562

>  <SCORE.INTRA.SOLV.lig_0>
-42.5944

>  <SCORE.INTRA.VDW>
0.376981

>  <SCORE.INTRA.VDW.0>
-1.067

>  <SCORE.INTRA.norm>
-0.146161

>  <SCORE.RESTR>
0

>  <SCORE.RESTR.CAVITY>
0

>  <SCORE.RESTR.norm>
0

>  <SCORE.SYSTEM>
0

>  <SCORE.SYSTEM.CONST>
0

>  <SCORE.SYSTEM.DIHEDRAL>
0

>  <SCORE.SYSTEM.SOLV>
0

>  <SCORE.SYSTEM.norm>
0

>  <SCORE.heavy>
16

>  <SCORE.norm>
-1.16185

>  <RMSD>
3.531

$$$$
1f27 biotin aptamer (Xray 1.3A)
 OpenBabel11021811393D
libRbt.so/2013.1/901 2013/11/27
 16 17  0  0  0  0  0  0  0  0999 V2000
   19.1280    0.4312   14.2076 C   0  0  0  0  0  0  0  0  0  0  0  0
   18.6746    1.4925   14.6239 O   0  5  0  0  0  0  0  0  0  0  0  0
   20.3217    0.3449   13.9248 O   0  0  0  0  0  0  0  0  0  0  0  0
   18.2310   -0.7959   14.1060 C   0  0  0  0  0  0  0  0  0  0  0  0
   16.9646   -0.5781   13.2482 C   0  0  0  0  0  0  0  0  0  0  0  0
   15.8737    0.1309   14.0293 C   0  0  0  0  0  0  0  0  0  0  0  0
   14.8187    0.7698   13.1504 C   0  0  0  0  0  0  0  0  0  0  0  0
   15.3003    1.9845   12.3462 C   0  0  2  0  0  0  0  0  0  0  0  0
   15.7088    3.5533   13.3649 S   0  0  0  0  0  0  0  0  0  0  0  0
   15.6943    4.5001   11.7072 C   0  0  0  0  0  0  0  0  0  0  0  0
   14.5786    3.8177   10.8630 C   0  0  2  0  0  0  0  0  0  0  0  0
   13.2760    4.5999   11.1804 N   0  0  0  0  0  0  0  0  0  0  0  0
   12.3685    3.8785   11.6796 C   0  0  0  0  0  0  0  0  0  0  0  0
   11.2453    4.2035   12.2054 O   0  0  0  0  0  0  0  0  0  0  0  0
   12.7998    2.5347   11.9891 N   0  0  0  0  0  0  0  0  0  0  0  0
   14.2008    2.4423   11.3852 C   0  0  2  0  0  0  0  0  0  0  0  0
  1  2  1  0  0  0  0
  1  3  2  0  0  0  0
  1  4  1  0  0  0  0
  4  5  1  0  0  0  0
  5  6  1  0  0  0  0
  6  7  1  0  0  0  0
  8  7  1  1  0  0  0
  8  9  1  0  0  0  0
  8 16  1  0  0  0  0
  9 10  1  0  0  0  0
 11 10  1  1  0  0  0
 11 12  1  0  0  0  0
 11 16  1  0  0  0  0
 12 13  1  0  0  0  0
 13 14  2  0  0  0  0
 13 15  1  0  0  0  0
 16 15  1  1  0  0  0
M  CHG  1   2  -1
M  END
>  <CHROM.1>
56.14468584,-80.68961794,160.91923884,-69.39279979,-68.81952583,15.59729343
2.19336319,12.82030088,-0.61853428,-0.22221176,-0.27012245

>  <Name>
1f27 biotin aptamer (Xray 1.3A)

>  <RI>
0

>  <Rbt.Current_Directory>
/home/itssahil/PROJECTS/Mol_Feturizer/New_Systems/rnas/1f27

>  <Rbt.Executable>
rbdock ($Id: //depot/dev/client3/rdock/2013.1/src/exe/rbdock.cxx#4 $)

>  <Rbt.Library>
libRbt.so (2013.1, Build901 2013/11/27)

>  <Rbt.Parameter_File>
/export/apps/rDock/src/rDock_2013.1_src/data/scripts/dock_solv.prm

>  <Rbt.Receptor>
prm/blind_docking_100.prm

>  <SCORE>
-18.4521

>  <SCORE.INTER>
-17.5919

>  <SCORE.INTER.CONST>
1

>  <SCORE.INTER.POLAR>
-0.751444

>  <SCORE.INTER.ROT>
5

>  <SCORE.INTER.SOLV>
12.5652

>  <SCORE.INTER.VDW>
-20.3449

>  <SCORE.INTER.norm>
-1.0995

>  <SCORE.INTRA>
-0.874121

>  <SCORE.INTRA.DIHEDRAL>
-2.04418

>  <SCORE.INTRA.DIHEDRAL.0>
6.87082

>  <SCORE.INTRA.POLAR>
0

>  <SCORE.INTRA.POLAR.0>
0

>  <SCORE.INTRA.REPUL>
0

>  <SCORE.INTRA.REPUL.0>
0

>  <SCORE.INTRA.SOLV>
0.794238

>  <SCORE.INTRA.SOLV.lig_0>
-42.5944

>  <SCORE.INTRA.VDW>
-0.249152

>  <SCORE.INTRA.VDW.0>
-1.067

>  <SCORE.INTRA.norm>
-0.0546326

>  <SCORE.RESTR>
0.013928

>  <SCORE.RESTR.CAVITY>
0.013928

>  <SCORE.RESTR.norm>
0.000870497

>  <SCORE.SYSTEM>
0

>  <SCORE.SYSTEM.CONST>
0

>  <SCORE.SYSTEM.DIHEDRAL>
0

>  <SCORE.SYSTEM.SOLV>
0

>  <SCORE.SYSTEM.norm>
0

>  <SCORE.heavy>
16

>  <SCORE.norm>
-1.15326

>  <RMSD>
3.536

$$$$
1f27 biotin aptamer (Xray 1.3A)
 OpenBabel11021811393D
libRbt.so/2013.1/901 2013/11/27
 16 17  0  0  0  0  0  0  0  0999 V2000
   20.8384    1.3096   13.1012 C   0  0  0  0  0  0  0  0  0  0  0  0
   21.0333    1.6693   14.2580 O   0  5  0  0  0  0  0  0  0  0  0  0
   21.6415    0.5583   12.5507 O   0  0  0  0  0  0  0  0  0  0  0  0
   19.5714    1.7363   12.3711 C   0  0  0  0  0  0  0  0  0  0  0  0
   18.4206    0.7091   12.4587 C   0  0  0  0  0  0  0  0  0  0  0  0
   17.7755    0.7060   13.8323 C   0  0  0  0  0  0  0  0  0  0  0  0
   16.2785    0.4796   13.7966 C   0  0  0  0  0  0  0  0  0  0  0  0
   15.4943    1.4922   12.9516 C   0  0  2  0  0  0  0  0  0  0  0  0
   15.6612    3.3261   13.4759 S   0  0  0  0  0  0  0  0  0  0  0  0
   14.1542    3.6695   12.3552 C   0  0  0  0  0  0  0  0  0  0  0  0
   13.2509    2.4097   12.4974 C   0  0  2  0  0  0  0  0  0  0  0  0
   12.2889    2.7155   13.6765 N   0  0  0  0  0  0  0  0  0  0  0  0
   12.3871    1.8924   14.6283 C   0  0  0  0  0  0  0  0  0  0  0  0
   11.8813    1.9216   15.8061 O   0  0  0  0  0  0  0  0  0  0  0  0
   13.4763    0.9555   14.4754 N   0  0  0  0  0  0  0  0  0  0  0  0
   13.9941    1.2106   13.0601 C   0  0  2  0  0  0  0  0  0  0  0  0
  1  2  1  0  0  0  0
  1  3  2  0  0  0  0
  1  4  1  0  0  0  0
  4  5  1  0  0  0  0
  5  6  1  0  0  0  0
  6  7  1  0  0  0  0
  8  7  1  1  0  0  0
  8  9  1  0  0  0  0
  8 16  1  0  0  0  0
  9 10  1  0  0  0  0
 11 10  1  1  0  0  0
 11 12  1  0  0  0  0
 11 16  1  0  0  0  0
 12 13  1  0  0  0  0
 13 14  2  0  0  0  0
 13 15  1  0  0  0  0
 16 15  1  1  0  0  0
M  CHG  1   2  -1
M  END
>  <CHROM.1>
-94.05655813,74.22813422,143.72065430,-57.27012103,-59.12513348,16.13661961
1.79092564,13.48455227,-0.02913493,0.18750920,-0.68341839

>  <Name>
1f27 biotin aptamer (Xray 1.3A)

>  <RI>
0

>  <Rbt.Current_Directory>
/home/itssahil/PROJECTS/Mol_Feturizer/New_Systems/rnas/1f27

>  <Rbt.Executable>
rbdock ($Id: //depot/dev/client3/rdock/2013.1/src/exe/rbdock.cxx#4 $)

>  <Rbt.Library>
libRbt.so (2013.1, Build901 2013/11/27)

>  <Rbt.Parameter_File>
/export/apps/rDock/src/rDock_2013.1_src/data/scripts/dock_solv.prm

>  <Rbt.Receptor>
prm/blind_docking_40.prm

>  <SCORE>
-24.5719

>  <SCORE.INTER>
-24.2676

>  <SCORE.INTER.CONST>
1

>  <SCORE.INTER.POLAR>
-1.35978

>  <SCORE.INTER.ROT>
5

>  <SCORE.INTER.SOLV>
18.0103

>  <SCORE.INTER.VDW>
-24.5826

>  <SCORE.INTER.norm>
-1.51672

>  <SCORE.INTRA>
-0.304359

>  <SCORE.INTRA.DIHEDRAL>
-0.812095

>  <SCORE.INTRA.DIHEDRAL.0>
6.87082

>  <SCORE.INTRA.POLAR>
0

>  <SCORE.INTRA.POLAR.0>
0

>  <SCORE.INTRA.REPUL>
0

>  <SCORE.INTRA.REPUL.0>
0

>  <SCORE.INTRA.SOLV>
0.0362849

>  <SCORE.INTRA.SOLV.lig_0>
-42.5944

>  <SCORE.INTRA.VDW>
0.0835458

>  <SCORE.INTRA.VDW.0>
-1.067

>  <SCORE.INTRA.norm>
-0.0190224

>  <SCORE.RESTR>
0

>  <SCORE.RESTR.CAVITY>
0

>  <SCORE.RESTR.norm>
0

>  <SCORE.SYSTEM>
0

>  <SCORE.SYSTEM.CONST>
0

>  <SCORE.SYSTEM.DIHEDRAL>
0

>  <SCORE.SYSTEM.SOLV>
0

>  <SCORE.SYSTEM.norm>
0

>  <SCORE.heavy>
16

>  <SCORE.norm>
-1.53575

>  <RMSD>
3.553

$$$$
1f27 biotin aptamer (Xray 1.3A)
 OpenBabel11021811393D
libRbt.so/2013.1/901 2013/11/27
 16 17  0  0  0  0  0  0  0  0999 V2000
   20.4495    1.1862   13.4275 C   0  0  0  0  0  0  0  0  0  0  0  0
   21.2980    1.1652   14.3136 O   0  5  0  0  0  0  0  0  0  0  0  0
   20.5020    2.0468   12.5506 O   0  0  0  0  0  0  0  0  0  0  0  0
   19.3736    0.1091   13.3736 C   0  0  0  0  0  0  0  0  0  0  0  0
   17.9699    0.6031   13.7888 C   0  0  0  0  0  0  0  0  0  0  0  0
   16.9081   -0.4522   13.5400 C   0  0  0  0  0  0  0  0  0  0  0  0
   15.4967    0.0424   13.7784 C   0  0  0  0  0  0  0  0  0  0  0  0
   15.0903    1.2596   12.9371 C   0  0  2  0  0  0  0  0  0  0  0  0
   15.6421    2.9643   13.6117 S   0  0  0  0  0  0  0  0  0  0  0  0
   14.4074    3.7310   12.3737 C   0  0  0  0  0  0  0  0  0  0  0  0
   13.2111    2.7360   12.3292 C   0  0  2  0  0  0  0  0  0  0  0  0
   12.2237    3.2194   13.4249 N   0  0  0  0  0  0  0  0  0  0  0  0
   12.0043    2.3542   14.3173 C   0  0  0  0  0  0  0  0  0  0  0  0
   11.3878    2.4548   15.4369 O   0  0  0  0  0  0  0  0  0  0  0  0
   12.8390    1.1802   14.2051 N   0  0  0  0  0  0  0  0  0  0  0  0
   13.5648    1.3624   12.8724 C   0  0  2  0  0  0  0  0  0  0  0  0
  1  2  1  0  0  0  0
  1  3  2  0  0  0  0
  1  4  1  0  0  0  0
  4  5  1  0  0  0  0
  5  6  1  0  0  0  0
  6  7  1  0  0  0  0
  8  7  1  1  0  0  0
  8  9  1  0  0  0  0
  8 16  1  0  0  0  0
  9 10  1  0  0  0  0
 11 10  1  1  0  0  0
 11 12  1  0  0  0  0
 11 16  1  0  0  0  0
 12 13  1  0  0  0  0
 13 14  2  0  0  0  0
 13 15  1  0  0  0  0
 16 15  1  1  0  0  0
M  CHG  1   2  -1
M  END
>  <CHROM.1>
107.36354085,172.35050715,-173.21507357,57.77129809,-82.57319782,15.79797614
1.72974979,13.54806569,-0.15849432,0.11293023,-0.35924290

>  <Name>
1f27 biotin aptamer (Xray 1.3A)

>  <RI>
0

>  <Rbt.Current_Directory>
/home/itssahil/PROJECTS/Mol_Feturizer/New_Systems/rnas/1f27

>  <Rbt.Executable>
rbdock ($Id: //depot/dev/client3/rdock/2013.1/src/exe/rbdock.cxx#4 $)

>  <Rbt.Library>
libRbt.so (2013.1, Build901 2013/11/27)

>  <Rbt.Parameter_File>
/export/apps/rDock/src/rDock_2013.1_src/data/scripts/dock_solv.prm

>  <Rbt.Receptor>
prm/blind_docking_60.prm

>  <SCORE>
-22.8575

>  <SCORE.INTER>
-21.0549

>  <SCORE.INTER.CONST>
1

>  <SCORE.INTER.POLAR>
-0.691354

>  <SCORE.INTER.ROT>
5

>  <SCORE.INTER.SOLV>
17.0817

>  <SCORE.INTER.VDW>
-24.3593

>  <SCORE.INTER.norm>
-1.31593

>  <SCORE.INTRA>
-1.80257

>  <SCORE.INTRA.DIHEDRAL>
-3.21627

>  <SCORE.INTRA.DIHEDRAL.0>
6.87082

>  <SCORE.INTRA.POLAR>
0

>  <SCORE.INTRA.POLAR.0>
0

>  <SCORE.INTRA.REPUL>
0

>  <SCORE.INTRA.REPUL.0>
0

>  <SCORE.INTRA.SOLV>
-0.816098

>  <SCORE.INTRA.SOLV.lig_0>
-42.5944

>  <SCORE.INTRA.VDW>
0.213617

>  <SCORE.INTRA.VDW.0>
-1.067

>  <SCORE.INTRA.norm>
-0.112661

>  <SCORE.RESTR>
0

>  <SCORE.RESTR.CAVITY>
0

>  <SCORE.RESTR.norm>
0

>  <SCORE.SYSTEM>
0

>  <SCORE.SYSTEM.CONST>
0

>  <SCORE.SYSTEM.DIHEDRAL>
0

>  <SCORE.SYSTEM.SOLV>
0

>  <SCORE.SYSTEM.norm>
0

>  <SCORE.heavy>
16

>  <SCORE.norm>
-1.42859

>  <RMSD>
3.579

$$$$
1f27 biotin aptamer (Xray 1.3A)
 OpenBabel11021811393D
libRbt.so/2013.1/901 2013/11/27
 16 17  0  0  0  0  0  0  0  0999 V2000
   18.6446   -0.4849   13.2854 C   0  0  0  0  0  0  0  0  0  0  0  0
   18.6819   -1.7108   13.2520 O   0  5  0  0  0  0  0  0  0  0  0  0
   19.6623    0.1510   13.5542 O   0  0  0  0  0  0  0  0  0  0  0  0
   17.3594    0.2509   12.9282 C   0  0  0  0  0  0  0  0  0  0  0  0
   16.1157   -0.2494   13.6963 C   0  0  0  0  0  0  0  0  0  0  0  0
   14.9168    0.6529   13.4701 C   0  0  0  0  0  0  0  0  0  0  0  0
   15.1057    2.0557   14.0086 C   0  0  0  0  0  0  0  0  0  0  0  0
   13.8810    2.9694   13.8687 C   0  0  2  0  0  0  0  0  0  0  0  0
   12.1873    2.1616   14.2486 S   0  0  0  0  0  0  0  0  0  0  0  0
   11.3968    3.6841   13.4106 C   0  0  0  0  0  0  0  0  0  0  0  0
   12.3684    4.0567   12.2529 C   0  0  2  0  0  0  0  0  0  0  0  0
   11.8658    3.2674   11.0144 N   0  0  0  0  0  0  0  0  0  0  0  0
   12.7265    2.4724   10.5450 C   0  0  0  0  0  0  0  0  0  0  0  0
   12.6138    1.5615    9.6499 O   0  0  0  0  0  0  0  0  0  0  0  0
   13.9165    2.3601   11.3567 N   0  0  0  0  0  0  0  0  0  0  0  0
   13.7485    3.4450   12.4202 C   0  0  2  0  0  0  0  0  0  0  0  0
  1  2  1  0  0  0  0
  1  3  2  0  0  0  0
  1  4  1  0  0  0  0
  4  5  1  0  0  0  0
  5  6  1  0  0  0  0
  6  7  1  0  0  0  0
  8  7  1  6  0  0  0
  8  9  1  0  0  0  0
  8 16  1  0  0  0  0
  9 10  1  0  0  0  0
 11 10  1  1  0  0  0
 11 12  1  0  0  0  0
 11 16  1  0  0  0  0
 12 13  1  0  0  0  0
 13 14  2  0  0  0  0
 13 15  1  0  0  0  0
 16 15  1  6  0  0  0
M  CHG  1   2  -1
M  END
>  <CHROM.1>
51.74912285,170.97849664,-64.18833920,-176.60602663,41.25626745,14.55385366
1.65703846,12.78423407,-0.12411146,0.52521063,-1.65108340

>  <Name>
1f27 biotin aptamer (Xray 1.3A)

>  <RI>
0

>  <Rbt.Current_Directory>
/home/itssahil/PROJECTS/Mol_Feturizer/New_Systems/rnas/1f27

>  <Rbt.Executable>
rbdock ($Id: //depot/dev/client3/rdock/2013.1/src/exe/rbdock.cxx#4 $)

>  <Rbt.Library>
libRbt.so (2013.1, Build901 2013/11/27)

>  <Rbt.Parameter_File>
/export/apps/rDock/src/rDock_2013.1_src/data/scripts/dock_solv.prm

>  <Rbt.Receptor>
prm/blind_docking_100.prm

>  <SCORE>
-23.5131

>  <SCORE.INTER>
-22.7348

>  <SCORE.INTER.CONST>
1

>  <SCORE.INTER.POLAR>
-0.772339

>  <SCORE.INTER.ROT>
5

>  <SCORE.INTER.SOLV>
12.3784

>  <SCORE.INTER.VDW>
-23.6415

>  <SCORE.INTER.norm>
-1.42092

>  <SCORE.INTRA>
-0.778276

>  <SCORE.INTRA.DIHEDRAL>
-3.86279

>  <SCORE.INTRA.DIHEDRAL.0>
6.87082

>  <SCORE.INTRA.POLAR>
0

>  <SCORE.INTRA.POLAR.0>
0

>  <SCORE.INTRA.REPUL>
0

>  <SCORE.INTRA.REPUL.0>
0

>  <SCORE.INTRA.SOLV>
-0.267166

>  <SCORE.INTRA.SOLV.lig_0>
-42.5944

>  <SCORE.INTRA.VDW>
1.2867

>  <SCORE.INTRA.VDW.0>
-1.067

>  <SCORE.INTRA.norm>
-0.0486422

>  <SCORE.RESTR>
0

>  <SCORE.RESTR.CAVITY>
0

>  <SCORE.RESTR.norm>
0

>  <SCORE.SYSTEM>
0

>  <SCORE.SYSTEM.CONST>
0

>  <SCORE.SYSTEM.DIHEDRAL>
0

>  <SCORE.SYSTEM.SOLV>
0

>  <SCORE.SYSTEM.norm>
0

>  <SCORE.heavy>
16

>  <SCORE.norm>
-1.46957

>  <RMSD>
3.589

$$$$
1f27 biotin aptamer (Xray 1.3A)
 OpenBabel11021811393D
libRbt.so/2013.1/901 2013/11/27
 16 17  0  0  0  0  0  0  0  0999 V2000
   19.1852    0.4426   12.6472 C   0  0  0  0  0  0  0  0  0  0  0  0
   19.9675    1.3233   12.3041 O   0  5  0  0  0  0  0  0  0  0  0  0
   19.5532   -0.7308   12.6619 O   0  0  0  0  0  0  0  0  0  0  0  0
   17.7834    0.8068   13.1194 C   0  0  0  0  0  0  0  0  0  0  0  0
   17.4651    2.3162   13.0348 C   0  0  0  0  0  0  0  0  0  0  0  0
   16.4497    2.7345   14.0821 C   0  0  0  0  0  0  0  0  0  0  0  0
   15.0264    2.3562   13.7292 C   0  0  0  0  0  0  0  0  0  0  0  0
   14.1869    3.4938   13.1332 C   0  0  2  0  0  0  0  0  0  0  0  0
   12.3205    3.1285   12.9117 S   0  0  0  0  0  0  0  0  0  0  0  0
   12.2614    4.6784   11.7985 C   0  0  0  0  0  0  0  0  0  0  0  0
   13.6266    4.6898   11.0506 C   0  0  2  0  0  0  0  0  0  0  0  0
   13.3929    3.8907    9.7407 N   0  0  0  0  0  0  0  0  0  0  0  0
   14.1366    2.8764    9.6342 C   0  0  0  0  0  0  0  0  0  0  0  0
   14.1112    1.9140    8.7875 O   0  0  0  0  0  0  0  0  0  0  0  0
   14.9160    2.6012   10.8193 N   0  0  0  0  0  0  0  0  0  0  0  0
   14.6727    3.8136   11.7177 C   0  0  2  0  0  0  0  0  0  0  0  0
  1  2  1  0  0  0  0
  1  3  2  0  0  0  0
  1  4  1  0  0  0  0
  4  5  1  0  0  0  0
  5  6  1  0  0  0  0
  6  7  1  0  0  0  0
  8  7  1  6  0  0  0
  8  9  1  0  0  0  0
  8 16  1  0  0  0  0
  9 10  1  0  0  0  0
 11 10  1  1  0  0  0
 11 12  1  0  0  0  0
 11 16  1  0  0  0  0
 12 13  1  0  0  0  0
 13 14  2  0  0  0  0
 13 15  1  0  0  0  0
 16 15  1  6  0  0  0
M  CHG  1   2  -1
M  END
>  <CHROM.1>
3.32421808,-151.39287871,-77.45639403,-99.32952826,-171.45878083,15.36883890
2.52453133,11.99983021,-0.17251281,0.48109336,-1.65678659

>  <Name>
1f27 biotin aptamer (Xray 1.3A)

>  <RI>
0

>  <Rbt.Current_Directory>
/home/itssahil/PROJECTS/Mol_Feturizer/New_Systems/rnas/1f27

>  <Rbt.Executable>
rbdock ($Id: //depot/dev/client3/rdock/2013.1/src/exe/rbdock.cxx#4 $)

>  <Rbt.Library>
libRbt.so (2013.1, Build901 2013/11/27)

>  <Rbt.Parameter_File>
/export/apps/rDock/src/rDock_2013.1_src/data/scripts/dock_solv.prm

>  <Rbt.Receptor>
prm/blind_docking_60.prm

>  <SCORE>
-13.15

>  <SCORE.INTER>
-15.1177

>  <SCORE.INTER.CONST>
1

>  <SCORE.INTER.POLAR>
-1.16063

>  <SCORE.INTER.ROT>
5

>  <SCORE.INTER.SOLV>
14.776

>  <SCORE.INTER.VDW>
-18.0683

>  <SCORE.INTER.norm>
-0.944855

>  <SCORE.INTRA>
1.96769

>  <SCORE.INTRA.DIHEDRAL>
2.95992

>  <SCORE.INTRA.DIHEDRAL.0>
6.87082

>  <SCORE.INTRA.POLAR>
0

>  <SCORE.INTRA.POLAR.0>
0

>  <SCORE.INTRA.REPUL>
0

>  <SCORE.INTRA.REPUL.0>
0

>  <SCORE.INTRA.SOLV>
-0.260584

>  <SCORE.INTRA.SOLV.lig_0>
-42.5944

>  <SCORE.INTRA.VDW>
0.618019

>  <SCORE.INTRA.VDW.0>
-1.067

>  <SCORE.INTRA.norm>
0.12298

>  <SCORE.RESTR>
0

>  <SCORE.RESTR.CAVITY>
0

>  <SCORE.RESTR.norm>
0

>  <SCORE.SYSTEM>
0

>  <SCORE.SYSTEM.CONST>
0

>  <SCORE.SYSTEM.DIHEDRAL>
0

>  <SCORE.SYSTEM.SOLV>
0

>  <SCORE.SYSTEM.norm>
0

>  <SCORE.heavy>
16

>  <SCORE.norm>
-0.821875

>  <RMSD>
3.598

$$$$
1f27 biotin aptamer (Xray 1.3A)
 OpenBabel11021811393D
libRbt.so/2013.1/901 2013/11/27
 16 17  0  0  0  0  0  0  0  0999 V2000
   19.1983   -0.6944   13.6624 C   0  0  0  0  0  0  0  0  0  0  0  0
   20.1874   -0.1721   14.1666 O   0  5  0  0  0  0  0  0  0  0  0  0
   19.3354   -1.6149   12.8583 O   0  0  0  0  0  0  0  0  0  0  0  0
   17.8024   -0.2515   14.0816 C   0  0  0  0  0  0  0  0  0  0  0  0
   17.3913    1.1323   13.5310 C   0  0  0  0  0  0  0  0  0  0  0  0
   16.1174    1.6386   14.1819 C   0  0  0  0  0  0  0  0  0  0  0  0
   15.6644    2.9851   13.6571 C   0  0  0  0  0  0  0  0  0  0  0  0
   15.0905    2.9616   12.2343 C   0  0  2  0  0  0  0  0  0  0  0  0
   14.9976    4.6530   11.3420 S   0  0  0  0  0  0  0  0  0  0  0  0
   13.8469    3.8001   10.0797 C   0  0  0  0  0  0  0  0  0  0  0  0
   13.0144    2.7844   10.9154 C   0  0  2  0  0  0  0  0  0  0  0  0
   11.7450    3.5550   11.3671 N   0  0  0  0  0  0  0  0  0  0  0  0
   11.6206    3.6222   12.6213 C   0  0  0  0  0  0  0  0  0  0  0  0
   10.8048    4.3028   13.3390 O   0  0  0  0  0  0  0  0  0  0  0  0
   12.7615    3.1114   13.3459 N   0  0  0  0  0  0  0  0  0  0  0  0
   13.6387    2.4787   12.2659 C   0  0  2  0  0  0  0  0  0  0  0  0
  1  2  1  0  0  0  0
  1  3  2  0  0  0  0
  1  4  1  0  0  0  0
  4  5  1  0  0  0  0
  5  6  1  0  0  0  0
  6  7  1  0  0  0  0
  8  7  1  1  0  0  0
  8  9  1  0  0  0  0
  8 16  1  0  0  0  0
  9 10  1  0  0  0  0
 11 10  1  6  0  0  0
 11 12  1  0  0  0  0
 11 16  1  0  0  0  0
 12 13  1  0  0  0  0
 13 14  2  0  0  0  0
 13 15  1  0  0  0  0
 16 15  1  1  0  0  0
M  CHG  1   2  -1
M  END
>  <CHROM.1>
73.52028349,-169.25700590,-179.13906473,72.06580362,-162.36296572,15.21050295
2.31312299,12.64592586,0.51895990,-0.34622210,2.21979226

>  <Name>
1f27 biotin aptamer (Xray 1.3A)

>  <RI>
0

>  <Rbt.Current_Directory>
/home/itssahil/PROJECTS/Mol_Feturizer/New_Systems/rnas/1f27

>  <Rbt.Executable>
rbdock ($Id: //depot/dev/client3/rdock/2013.1/src/exe/rbdock.cxx#4 $)

>  <Rbt.Library>
libRbt.so (2013.1, Build901 2013/11/27)

>  <Rbt.Parameter_File>
/export/apps/rDock/src/rDock_2013.1_src/data/scripts/dock_solv.prm

>  <Rbt.Receptor>
prm/blind_docking_40.prm

>  <SCORE>
-18.2113

>  <SCORE.INTER>
-16.2907

>  <SCORE.INTER.CONST>
1

>  <SCORE.INTER.POLAR>
0

>  <SCORE.INTER.ROT>
5

>  <SCORE.INTER.SOLV>
9.8021

>  <SCORE.INTER.VDW>
-21.0612

>  <SCORE.INTER.norm>
-1.01817

>  <SCORE.INTRA>
-1.92058

>  <SCORE.INTRA.DIHEDRAL>
-3.25684

>  <SCORE.INTRA.DIHEDRAL.0>
6.87082

>  <SCORE.INTRA.POLAR>
0

>  <SCORE.INTRA.POLAR.0>
0

>  <SCORE.INTRA.REPUL>
0

>  <SCORE.INTRA.REPUL.0>
0

>  <SCORE.INTRA.SOLV>
-0.786592

>  <SCORE.INTRA.SOLV.lig_0>
-42.5944

>  <SCORE.INTRA.VDW>
0.101133

>  <SCORE.INTRA.VDW.0>
-1.067

>  <SCORE.INTRA.norm>
-0.120036

>  <SCORE.RESTR>
0

>  <SCORE.RESTR.CAVITY>
0

>  <SCORE.RESTR.norm>
0

>  <SCORE.SYSTEM>
0

>  <SCORE.SYSTEM.CONST>
0

>  <SCORE.SYSTEM.DIHEDRAL>
0

>  <SCORE.SYSTEM.SOLV>
0

>  <SCORE.SYSTEM.norm>
0

>  <SCORE.heavy>
16

>  <SCORE.norm>
-1.13821

>  <RMSD>
3.634

$$$$
1f27 biotin aptamer (Xray 1.3A)
 OpenBabel11021811393D
libRbt.so/2013.1/901 2013/11/27
 16 17  0  0  0  0  0  0  0  0999 V2000
   20.2969    1.0485   13.3952 C   0  0  0  0  0  0  0  0  0  0  0  0
   20.5432    1.3072   14.5690 O   0  5  0  0  0  0  0  0  0  0  0  0
   20.5555   -0.0673   12.9475 O   0  0  0  0  0  0  0  0  0  0  0  0
   19.6100    2.0826   12.5123 C   0  0  0  0  0  0  0  0  0  0  0  0
   18.1324    2.3411   12.8820 C   0  0  0  0  0  0  0  0  0  0  0  0
   17.2844    1.0949   12.7065 C   0  0  0  0  0  0  0  0  0  0  0  0
   15.8027    1.3393   12.9027 C   0  0  0  0  0  0  0  0  0  0  0  0
   15.1483    2.2212   11.8311 C   0  0  2  0  0  0  0  0  0  0  0  0
   15.5144    4.0965   11.9533 S   0  0  0  0  0  0  0  0  0  0  0  0
   14.0698    4.3466   10.7304 C   0  0  0  0  0  0  0  0  0  0  0  0
   13.0285    3.2528   11.1077 C   0  0  2  0  0  0  0  0  0  0  0  0
   12.0925    3.9101   12.1571 N   0  0  0  0  0  0  0  0  0  0  0  0
   12.0855    3.3092   13.2670 C   0  0  0  0  0  0  0  0  0  0  0  0
   11.5716    3.6490   14.3914 O   0  0  0  0  0  0  0  0  0  0  0  0
   13.0639    2.2501   13.3597 N   0  0  0  0  0  0  0  0  0  0  0  0
   13.6246    2.1328   11.9427 C   0  0  2  0  0  0  0  0  0  0  0  0
  1  2  1  0  0  0  0
  1  3  2  0  0  0  0
  1  4  1  0  0  0  0
  4  5  1  0  0  0  0
  5  6  1  0  0  0  0
  6  7  1  0  0  0  0
  8  7  1  1  0  0  0
  8  9  1  0  0  0  0
  8 16  1  0  0  0  0
  9 10  1  0  0  0  0
 11 10  1  1  0  0  0
 11 12  1  0  0  0  0
 11 16  1  0  0  0  0
 12 13  1  0  0  0  0
 13 14  2  0  0  0  0
 13 15  1  0  0  0  0
 16 15  1  1  0  0  0
M  CHG  1   2  -1
M  END
>  <CHROM.1>
-69.56157572,-62.77838171,-173.33812983,67.36562797,-75.53467718,15.78894421
2.51107973,12.65016944,0.27304682,-0.19600775,2.21907640

>  <Name>
1f27 biotin aptamer (Xray 1.3A)

>  <RI>
0

>  <Rbt.Current_Directory>
/home/itssahil/PROJECTS/Mol_Feturizer/New_Systems/rnas/1f27

>  <Rbt.Executable>
rbdock ($Id: //depot/dev/client3/rdock/2013.1/src/exe/rbdock.cxx#4 $)

>  <Rbt.Library>
libRbt.so (2013.1, Build901 2013/11/27)

>  <Rbt.Parameter_File>
/export/apps/rDock/src/rDock_2013.1_src/data/scripts/dock_solv.prm

>  <Rbt.Receptor>
prm/blind_docking_100.prm

>  <SCORE>
-20.7889

>  <SCORE.INTER>
-18.9076

>  <SCORE.INTER.CONST>
1

>  <SCORE.INTER.POLAR>
0

>  <SCORE.INTER.ROT>
5

>  <SCORE.INTER.SOLV>
12.0173

>  <SCORE.INTER.VDW>
-23.5442

>  <SCORE.INTER.norm>
-1.18172

>  <SCORE.INTRA>
-1.88129

>  <SCORE.INTRA.DIHEDRAL>
-4.22822

>  <SCORE.INTRA.DIHEDRAL.0>
6.87082

>  <SCORE.INTRA.POLAR>
0

>  <SCORE.INTRA.POLAR.0>
0

>  <SCORE.INTRA.REPUL>
0

>  <SCORE.INTRA.REPUL.0>
0

>  <SCORE.INTRA.SOLV>
0.179766

>  <SCORE.INTRA.SOLV.lig_0>
-42.5944

>  <SCORE.INTRA.VDW>
0.142937

>  <SCORE.INTRA.VDW.0>
-1.067

>  <SCORE.INTRA.norm>
-0.117581

>  <SCORE.RESTR>
0

>  <SCORE.RESTR.CAVITY>
0

>  <SCORE.RESTR.norm>
0

>  <SCORE.SYSTEM>
0

>  <SCORE.SYSTEM.CONST>
0

>  <SCORE.SYSTEM.DIHEDRAL>
0

>  <SCORE.SYSTEM.SOLV>
0

>  <SCORE.SYSTEM.norm>
0

>  <SCORE.heavy>
16

>  <SCORE.norm>
-1.2993

>  <RMSD>
3.659

$$$$
1f27 biotin aptamer (Xray 1.3A)
 OpenBabel11021811393D
libRbt.so/2013.1/901 2013/11/27
 16 17  0  0  0  0  0  0  0  0999 V2000
   18.8931    0.4197   13.9793 C   0  0  0  0  0  0  0  0  0  0  0  0
   20.1114    0.5378   13.8961 O   0  5  0  0  0  0  0  0  0  0  0  0
   18.3774   -0.6917   13.8718 O   0  0  0  0  0  0  0  0  0  0  0  0
   18.0261    1.6349   14.2832 C   0  0  0  0  0  0  0  0  0  0  0  0
   17.5007    2.3612   13.0249 C   0  0  0  0  0  0  0  0  0  0  0  0
   16.3283    3.2683   13.3499 C   0  0  0  0  0  0  0  0  0  0  0  0
   15.0810    2.5178   13.7678 C   0  0  0  0  0  0  0  0  0  0  0  0
   13.7774    3.3180   13.6471 C   0  0  2  0  0  0  0  0  0  0  0  0
   12.1842    2.4090   14.1959 S   0  0  0  0  0  0  0  0  0  0  0  0
   11.2185    3.7965   13.3086 C   0  0  0  0  0  0  0  0  0  0  0  0
   12.0822    4.1569   12.0648 C   0  0  2  0  0  0  0  0  0  0  0  0
   11.5728    3.2393   10.9213 N   0  0  0  0  0  0  0  0  0  0  0  0
   12.4669    2.4821   10.4518 C   0  0  0  0  0  0  0  0  0  0  0  0
   12.3765    1.5004    9.6322 O   0  0  0  0  0  0  0  0  0  0  0  0
   13.7097    2.5262   11.1873 N   0  0  0  0  0  0  0  0  0  0  0  0
   13.5167    3.6712   12.1811 C   0  0  2  0  0  0  0  0  0  0  0  0
  1  2  1  0  0  0  0
  1  3  2  0  0  0  0
  1  4  1  0  0  0  0
  4  5  1  0  0  0  0
  5  6  1  0  0  0  0
  6  7  1  0  0  0  0
  8  7  1  6  0  0  0
  8  9  1  0  0  0  0
  8 16  1  0  0  0  0
  9 10  1  0  0  0  0
 11 10  1  1  0  0  0
 11 12  1  0  0  0  0
 11 16  1  0  0  0  0
 12 13  1  0  0  0  0
 13 14  2  0  0  0  0
 13 15  1  0  0  0  0
 16 15  1  6  0  0  0
M  CHG  1   2  -1
M  END
>  <CHROM.1>
92.42516118,162.34412336,-67.57796461,-160.34359224,-178.98967563,14.67071100
2.28179350,12.83105017,-0.17228427,0.38174256,-1.84069451

>  <Name>
1f27 biotin aptamer (Xray 1.3A)

>  <RI>
224

>  <Rbt.Current_Directory>
/home/itssahil/PROJECTS/Mol_Feturizer/New_Systems/rnas/1f27

>  <Rbt.Executable>
rbdock ($Id: //depot/dev/client3/rdock/2013.1/src/exe/rbdock.cxx#4 $)

>  <Rbt.Library>
libRbt.so (2013.1, Build901 2013/11/27)

>  <Rbt.Parameter_File>
/export/apps/rDock/src/rDock_2013.1_src/data/scripts/dock_solv.prm

>  <Rbt.Receptor>
prm/blind_docking_80.prm

>  <SCORE>
-20.191

>  <SCORE.INTER>
-19.3722

>  <SCORE.INTER.CONST>
1

>  <SCORE.INTER.POLAR>
-0.833014

>  <SCORE.INTER.ROT>
5

>  <SCORE.INTER.SOLV>
11.9748

>  <SCORE.INTER.VDW>
-21.063

>  <SCORE.INTER.norm>
-1.21076

>  <SCORE.INTRA>
-0.921949

>  <SCORE.INTRA.DIHEDRAL>
-2.60552

>  <SCORE.INTRA.DIHEDRAL.0>
6.87082

>  <SCORE.INTRA.POLAR>
0

>  <SCORE.INTRA.POLAR.0>
0

>  <SCORE.INTRA.REPUL>
0

>  <SCORE.INTRA.REPUL.0>
0

>  <SCORE.INTRA.SOLV>
-0.518489

>  <SCORE.INTRA.SOLV.lig_0>
-42.5944

>  <SCORE.INTRA.VDW>
0.640055

>  <SCORE.INTRA.VDW.0>
-1.067

>  <SCORE.INTRA.norm>
-0.0576218

>  <SCORE.RESTR>
0.103102

>  <SCORE.RESTR.CAVITY>
0.103102

>  <SCORE.RESTR.norm>
0.00644387

>  <SCORE.SYSTEM>
0

>  <SCORE.SYSTEM.CONST>
0

>  <SCORE.SYSTEM.DIHEDRAL>
0

>  <SCORE.SYSTEM.SOLV>
0

>  <SCORE.SYSTEM.norm>
0

>  <SCORE.heavy>
16

>  <SCORE.norm>
-1.26194

>  <RMSD>
3.755

$$$$
1f27 biotin aptamer (Xray 1.3A)
 OpenBabel11021811393D
libRbt.so/2013.1/901 2013/11/27
 16 17  0  0  0  0  0  0  0  0999 V2000
   19.3271    1.4198   13.4899 C   0  0  0  0  0  0  0  0  0  0  0  0
   19.4679    1.3126   14.7040 O   0  5  0  0  0  0  0  0  0  0  0  0
   19.6183    0.4778   12.7547 O   0  0  0  0  0  0  0  0  0  0  0  0
   18.7293    2.6901   12.8988 C   0  0  0  0  0  0  0  0  0  0  0  0
   17.2085    2.6061   12.6392 C   0  0  0  0  0  0  0  0  0  0  0  0
   16.4176    2.6145   13.9343 C   0  0  0  0  0  0  0  0  0  0  0  0
   14.9450    2.3157   13.7452 C   0  0  0  0  0  0  0  0  0  0  0  0
   14.1258    3.4680   13.1491 C   0  0  2  0  0  0  0  0  0  0  0  0
   12.2565    3.1293   12.9107 S   0  0  0  0  0  0  0  0  0  0  0  0
   12.2273    4.6862   11.8060 C   0  0  0  0  0  0  0  0  0  0  0  0
   13.5985    4.6832   11.0690 C   0  0  2  0  0  0  0  0  0  0  0  0
   13.3645    3.8946    9.7527 N   0  0  0  0  0  0  0  0  0  0  0  0
   14.0952    2.8709    9.6463 C   0  0  0  0  0  0  0  0  0  0  0  0
   14.0635    1.9137    8.7940 O   0  0  0  0  0  0  0  0  0  0  0  0
   14.8612    2.5786   10.8360 N   0  0  0  0  0  0  0  0  0  0  0  0
   14.6272    3.7891   11.7393 C   0  0  2  0  0  0  0  0  0  0  0  0
  1  2  1  0  0  0  0
  1  3  2  0  0  0  0
  1  4  1  0  0  0  0
  4  5  1  0  0  0  0
  5  6  1  0  0  0  0
  6  7  1  0  0  0  0
  8  7  1  6  0  0  0
  8  9  1  0  0  0  0
  8 16  1  0  0  0  0
  9 10  1  0  0  0  0
 11 10  1  1  0  0  0
 11 12  1  0  0  0  0
 11 16  1  0  0  0  0
 12 13  1  0  0  0  0
 13 14  2  0  0  0  0
 13 15  1  0  0  0  0
 16 15  1  6  0  0  0
M  CHG  1   2  -1
M  END
>  <CHROM.1>
-95.12529385,71.32084115,-170.91638062,-74.91685164,-179.48810497,15.35251741
2.76365574,12.16828740,-0.33037725,0.36334343,-1.65750876

>  <Name>
1f27 biotin aptamer (Xray 1.3A)

>  <RI>
224

>  <Rbt.Current_Directory>
/home/itssahil/PROJECTS/Mol_Feturizer/New_Systems/rnas/1f27

>  <Rbt.Executable>
rbdock ($Id: //depot/dev/client3/rdock/2013.1/src/exe/rbdock.cxx#4 $)

>  <Rbt.Library>
libRbt.so (2013.1, Build901 2013/11/27)

>  <Rbt.Parameter_File>
/export/apps/rDock/src/rDock_2013.1_src/data/scripts/dock_solv.prm

>  <Rbt.Receptor>
prm/blind_docking_80.prm

>  <SCORE>
-16.8559

>  <SCORE.INTER>
-16.1798

>  <SCORE.INTER.CONST>
1

>  <SCORE.INTER.POLAR>
-1.17235

>  <SCORE.INTER.ROT>
5

>  <SCORE.INTER.SOLV>
14.022

>  <SCORE.INTER.VDW>
-18.486

>  <SCORE.INTER.norm>
-1.01124

>  <SCORE.INTRA>
-0.676111

>  <SCORE.INTRA.DIHEDRAL>
-3.91877

>  <SCORE.INTRA.DIHEDRAL.0>
6.87082

>  <SCORE.INTRA.POLAR>
0

>  <SCORE.INTRA.POLAR.0>
0

>  <SCORE.INTRA.REPUL>
0

>  <SCORE.INTRA.REPUL.0>
0

>  <SCORE.INTRA.SOLV>
0.625474

>  <SCORE.INTRA.SOLV.lig_0>
-42.5944

>  <SCORE.INTRA.VDW>
0.970536

>  <SCORE.INTRA.VDW.0>
-1.067

>  <SCORE.INTRA.norm>
-0.042257

>  <SCORE.RESTR>
0

>  <SCORE.RESTR.CAVITY>
0

>  <SCORE.RESTR.norm>
0

>  <SCORE.SYSTEM>
0

>  <SCORE.SYSTEM.CONST>
0

>  <SCORE.SYSTEM.DIHEDRAL>
0

>  <SCORE.SYSTEM.SOLV>
0

>  <SCORE.SYSTEM.norm>
0

>  <SCORE.heavy>
16

>  <SCORE.norm>
-1.0535

>  <RMSD>
3.816

$$$$
1f27 biotin aptamer (Xray 1.3A)
 OpenBabel11021811393D
libRbt.so/2013.1/901 2013/11/27
 16 17  0  0  0  0  0  0  0  0999 V2000
   18.6215    0.1408   13.2373 C   0  0  0  0  0  0  0  0  0  0  0  0
   18.7556   -1.0495   12.9715 O   0  5  0  0  0  0  0  0  0  0  0  0
   19.6142    0.8577   13.3516 O   0  0  0  0  0  0  0  0  0  0  0  0
   17.2283    0.7449   13.3581 C   0  0  0  0  0  0  0  0  0  0  0  0
   16.1144   -0.2938   13.6179 C   0  0  0  0  0  0  0  0  0  0  0  0
   14.8314    0.3662   14.0882 C   0  0  0  0  0  0  0  0  0  0  0  0
   14.0278    0.9925   12.9677 C   0  0  0  0  0  0  0  0  0  0  0  0
   14.7510    2.1090   12.2031 C   0  0  2  0  0  0  0  0  0  0  0  0
   15.1987    3.6665   13.2226 S   0  0  0  0  0  0  0  0  0  0  0  0
   15.5173    4.5340   11.5520 C   0  0  0  0  0  0  0  0  0  0  0  0
   14.4532    3.9429   10.5816 C   0  0  2  0  0  0  0  0  0  0  0  0
   13.2198    4.8786   10.6926 N   0  0  0  0  0  0  0  0  0  0  0  0
   12.1758    4.2858   11.0821 C   0  0  0  0  0  0  0  0  0  0  0  0
   11.0376    4.7569   11.4375 O   0  0  0  0  0  0  0  0  0  0  0  0
   12.4023    2.9175   11.4873 N   0  0  0  0  0  0  0  0  0  0  0  0
   13.8513    2.6429   11.0861 C   0  0  2  0  0  0  0  0  0  0  0  0
  1  2  1  0  0  0  0
  1  3  2  0  0  0  0
  1  4  1  0  0  0  0
  4  5  1  0  0  0  0
  5  6  1  0  0  0  0
  6  7  1  0  0  0  0
  8  7  1  1  0  0  0
  8  9  1  0  0  0  0
  8 16  1  0  0  0  0
  9 10  1  0  0  0  0
 11 10  1  1  0  0  0
 11 12  1  0  0  0  0
 11 16  1  0  0  0  0
 12 13  1  0  0  0  0
 13 14  2  0  0  0  0
 13 15  1  0  0  0  0
 16 15  1  1  0  0  0
M  CHG  1   2  -1
M  END
>  <CHROM.1>
20.41675198,165.00128184,78.68142110,-60.96245583,-63.45753306,15.13522075
2.31585258,12.38917677,-0.70728260,-0.04679745,-0.40671954

>  <Name>
1f27 biotin aptamer (Xray 1.3A)

>  <RI>
0

>  <Rbt.Current_Directory>
/home/itssahil/PROJECTS/Mol_Feturizer/New_Systems/rnas/1f27

>  <Rbt.Executable>
rbdock ($Id: //depot/dev/client3/rdock/2013.1/src/exe/rbdock.cxx#4 $)

>  <Rbt.Library>
libRbt.so (2013.1, Build901 2013/11/27)

>  <Rbt.Parameter_File>
/export/apps/rDock/src/rDock_2013.1_src/data/scripts/dock_solv.prm

>  <Rbt.Receptor>
prm/blind_docking_60.prm

>  <SCORE>
-18.091

>  <SCORE.INTER>
-17.0491

>  <SCORE.INTER.CONST>
1

>  <SCORE.INTER.POLAR>
-0.850538

>  <SCORE.INTER.ROT>
5

>  <SCORE.INTER.SOLV>
13.2297

>  <SCORE.INTER.VDW>
-19.8742

>  <SCORE.INTER.norm>
-1.06557

>  <SCORE.INTRA>
-1.04184

>  <SCORE.INTRA.DIHEDRAL>
-3.4092

>  <SCORE.INTRA.DIHEDRAL.0>
6.87082

>  <SCORE.INTRA.POLAR>
0

>  <SCORE.INTRA.POLAR.0>
0

>  <SCORE.INTRA.REPUL>
0

>  <SCORE.INTRA.REPUL.0>
0

>  <SCORE.INTRA.SOLV>
-0.67736

>  <SCORE.INTRA.SOLV.lig_0>
-42.5944

>  <SCORE.INTRA.VDW>
1.00144

>  <SCORE.INTRA.VDW.0>
-1.067

>  <SCORE.INTRA.norm>
-0.065115

>  <SCORE.RESTR>
0

>  <SCORE.RESTR.CAVITY>
0

>  <SCORE.RESTR.norm>
0

>  <SCORE.SYSTEM>
0

>  <SCORE.SYSTEM.CONST>
0

>  <SCORE.SYSTEM.DIHEDRAL>
0

>  <SCORE.SYSTEM.SOLV>
0

>  <SCORE.SYSTEM.norm>
0

>  <SCORE.heavy>
16

>  <SCORE.norm>
-1.13069

>  <RMSD>
3.872

$$$$
1f27 biotin aptamer (Xray 1.3A)
 OpenBabel11021811393D
libRbt.so/2013.1/901 2013/11/27
 16 17  0  0  0  0  0  0  0  0999 V2000
   19.4328    1.4676   13.4508 C   0  0  0  0  0  0  0  0  0  0  0  0
   19.9715    0.4057   13.7467 O   0  5  0  0  0  0  0  0  0  0  0  0
   19.8241    2.0999   12.4712 O   0  0  0  0  0  0  0  0  0  0  0  0
   18.2383    1.9685   14.2525 C   0  0  0  0  0  0  0  0  0  0  0  0
   16.8952    1.8899   13.4929 C   0  0  0  0  0  0  0  0  0  0  0  0
   15.7147    2.1327   14.4150 C   0  0  0  0  0  0  0  0  0  0  0  0
   14.3723    1.9961   13.7273 C   0  0  0  0  0  0  0  0  0  0  0  0
   13.8268    3.2937   13.1167 C   0  0  2  0  0  0  0  0  0  0  0  0
   11.9692    3.2834   12.6531 S   0  0  0  0  0  0  0  0  0  0  0  0
   12.3235    4.8688   11.6501 C   0  0  0  0  0  0  0  0  0  0  0  0
   13.7540    4.6676   11.0702 C   0  0  2  0  0  0  0  0  0  0  0  0
   13.5541    3.9862    9.6900 N   0  0  0  0  0  0  0  0  0  0  0  0
   14.1173    2.8601    9.6019 C   0  0  0  0  0  0  0  0  0  0  0  0
   14.0331    1.9590    8.6938 O   0  0  0  0  0  0  0  0  0  0  0  0
   14.6790    2.3931   10.8485 N   0  0  0  0  0  0  0  0  0  0  0  0
   14.5377    3.5860   11.7934 C   0  0  2  0  0  0  0  0  0  0  0  0
  1  2  1  0  0  0  0
  1  3  2  0  0  0  0
  1  4  1  0  0  0  0
  4  5  1  0  0  0  0
  5  6  1  0  0  0  0
  6  7  1  0  0  0  0
  8  7  1  6  0  0  0
  8  9  1  0  0  0  0
  8 16  1  0  0  0  0
  9 10  1  0  0  0  0
 11 10  1  1  0  0  0
 11 12  1  0  0  0  0
 11 16  1  0  0  0  0
 12 13  1  0  0  0  0
 13 14  2  0  0  0  0
 13 15  1  0  0  0  0
 16 15  1  6  0  0  0
M  CHG  1   2  -1
M  END
>  <CHROM.1>
-108.62484058,168.59227285,-177.07925337,-90.18057268,-164.57960700,15.23920653
2.69067817,12.18492935,-0.36922849,0.32298890,-1.52034452

>  <Name>
1f27 biotin aptamer (Xray 1.3A)

>  <RI>
224

>  <Rbt.Current_Directory>
/home/itssahil/PROJECTS/Mol_Feturizer/New_Systems/rnas/1f27

>  <Rbt.Executable>
rbdock ($Id: //depot/dev/client3/rdock/2013.1/src/exe/rbdock.cxx#4 $)

>  <Rbt.Library>
libRbt.so (2013.1, Build901 2013/11/27)

>  <Rbt.Parameter_File>
/export/apps/rDock/src/rDock_2013.1_src/data/scripts/dock_solv.prm

>  <Rbt.Receptor>
prm/blind_docking_80.prm

>  <SCORE>
-13.1319

>  <SCORE.INTER>
-12.1882

>  <SCORE.INTER.CONST>
1

>  <SCORE.INTER.POLAR>
-1.15164

>  <SCORE.INTER.ROT>
5

>  <SCORE.INTER.SOLV>
12.6538

>  <SCORE.INTER.VDW>
-15.4379

>  <SCORE.INTER.norm>
-0.761763

>  <SCORE.INTRA>
-0.943704

>  <SCORE.INTRA.DIHEDRAL>
-1.04939

>  <SCORE.INTRA.DIHEDRAL.0>
6.87082

>  <SCORE.INTRA.POLAR>
0

>  <SCORE.INTRA.POLAR.0>
0

>  <SCORE.INTRA.REPUL>
0

>  <SCORE.INTRA.REPUL.0>
0

>  <SCORE.INTRA.SOLV>
-0.516058

>  <SCORE.INTRA.SOLV.lig_0>
-42.5944

>  <SCORE.INTRA.VDW>
-0.160981

>  <SCORE.INTRA.VDW.0>
-1.067

>  <SCORE.INTRA.norm>
-0.0589815

>  <SCORE.RESTR>
0

>  <SCORE.RESTR.CAVITY>
0

>  <SCORE.RESTR.norm>
0

>  <SCORE.SYSTEM>
0

>  <SCORE.SYSTEM.CONST>
0

>  <SCORE.SYSTEM.DIHEDRAL>
0

>  <SCORE.SYSTEM.SOLV>
0

>  <SCORE.SYSTEM.norm>
0

>  <SCORE.heavy>
16

>  <SCORE.norm>
-0.820744

>  <RMSD>
3.872

$$$$
1f27 biotin aptamer (Xray 1.3A)
 OpenBabel11021811393D
libRbt.so/2013.1/901 2013/11/27
 16 17  0  0  0  0  0  0  0  0999 V2000
   19.0037    0.4878   13.5592 C   0  0  0  0  0  0  0  0  0  0  0  0
   19.7211    0.8485   14.4869 O   0  5  0  0  0  0  0  0  0  0  0  0
   19.1785    0.9529   12.4342 O   0  0  0  0  0  0  0  0  0  0  0  0
   17.9441   -0.5833   13.7839 C   0  0  0  0  0  0  0  0  0  0  0  0
   16.5216   -0.1582   13.3564 C   0  0  0  0  0  0  0  0  0  0  0  0
   16.0086    1.0011   14.1906 C   0  0  0  0  0  0  0  0  0  0  0  0
   14.6422    1.4950   13.7636 C   0  0  0  0  0  0  0  0  0  0  0  0
   14.6091    2.1985   12.4004 C   0  0  2  0  0  0  0  0  0  0  0  0
   15.3179    3.9766   12.3594 S   0  0  0  0  0  0  0  0  0  0  0  0
   14.4753    4.1555   10.6556 C   0  0  0  0  0  0  0  0  0  0  0  0
   13.1524    3.3434   10.7729 C   0  0  2  0  0  0  0  0  0  0  0  0
   12.0841    4.3535   11.2704 N   0  0  0  0  0  0  0  0  0  0  0  0
   11.5628    4.0277   12.3728 C   0  0  0  0  0  0  0  0  0  0  0  0
   10.7833    4.6863   13.1489 O   0  0  0  0  0  0  0  0  0  0  0  0
   12.1884    2.8835   12.9949 N   0  0  0  0  0  0  0  0  0  0  0  0
   13.1607    2.3658   11.9354 C   0  0  2  0  0  0  0  0  0  0  0  0
  1  2  1  0  0  0  0
  1  3  2  0  0  0  0
  1  4  1  0  0  0  0
  4  5  1  0  0  0  0
  5  6  1  0  0  0  0
  6  7  1  0  0  0  0
  8  7  1  1  0  0  0
  8  9  1  0  0  0  0
  8 16  1  0  0  0  0
  9 10  1  0  0  0  0
 11 10  1  1  0  0  0
 11 12  1  0  0  0  0
 11 16  1  0  0  0  0
 12 13  1  0  0  0  0
 13 14  2  0  0  0  0
 13 15  1  0  0  0  0
 16 15  1  1  0  0  0
M  CHG  1   2  -1
M  END
>  <CHROM.1>
125.84653538,-64.09563512,177.27341911,-68.99672143,-75.21845571,15.06891120
2.38630567,12.71219593,-0.52310817,0.17544189,-0.71175173

>  <Name>
1f27 biotin aptamer (Xray 1.3A)

>  <RI>
224

>  <Rbt.Current_Directory>
/home/itssahil/PROJECTS/Mol_Feturizer/New_Systems/rnas/1f27

>  <Rbt.Executable>
rbdock ($Id: //depot/dev/client3/rdock/2013.1/src/exe/rbdock.cxx#4 $)

>  <Rbt.Library>
libRbt.so (2013.1, Build901 2013/11/27)

>  <Rbt.Parameter_File>
/export/apps/rDock/src/rDock_2013.1_src/data/scripts/dock_solv.prm

>  <Rbt.Receptor>
prm/blind_docking_80.prm

>  <SCORE>
-19.8968

>  <SCORE.INTER>
-17.8541

>  <SCORE.INTER.CONST>
1

>  <SCORE.INTER.POLAR>
-0.90824

>  <SCORE.INTER.ROT>
5

>  <SCORE.INTER.SOLV>
11.9929

>  <SCORE.INTER.VDW>
-19.8063

>  <SCORE.INTER.norm>
-1.11588

>  <SCORE.INTRA>
-2.05486

>  <SCORE.INTRA.DIHEDRAL>
-4.24014

>  <SCORE.INTRA.DIHEDRAL.0>
6.87082

>  <SCORE.INTRA.POLAR>
0

>  <SCORE.INTRA.POLAR.0>
0

>  <SCORE.INTRA.REPUL>
0

>  <SCORE.INTRA.REPUL.0>
0

>  <SCORE.INTRA.SOLV>
0.064797

>  <SCORE.INTRA.SOLV.lig_0>
-42.5944

>  <SCORE.INTRA.VDW>
0.0328086

>  <SCORE.INTRA.VDW.0>
-1.067

>  <SCORE.INTRA.norm>
-0.128429

>  <SCORE.RESTR>
0.0121832

>  <SCORE.RESTR.CAVITY>
0.0121832

>  <SCORE.RESTR.norm>
0.00076145

>  <SCORE.SYSTEM>
0

>  <SCORE.SYSTEM.CONST>
0

>  <SCORE.SYSTEM.DIHEDRAL>
0

>  <SCORE.SYSTEM.SOLV>
0

>  <SCORE.SYSTEM.norm>
0

>  <SCORE.heavy>
16

>  <SCORE.norm>
-1.24355

>  <RMSD>
3.882

$$$$
1f27 biotin aptamer (Xray 1.3A)
 OpenBabel11021811393D
libRbt.so/2013.1/901 2013/11/27
 16 17  0  0  0  0  0  0  0  0999 V2000
   19.2490    1.7032   12.7888 C   0  0  0  0  0  0  0  0  0  0  0  0
   18.5051    1.4549   11.8452 O   0  5  0  0  0  0  0  0  0  0  0  0
   20.4158    2.0299   12.5784 O   0  0  0  0  0  0  0  0  0  0  0  0
   18.7119    1.6739   14.2140 C   0  0  0  0  0  0  0  0  0  0  0  0
   17.1887    1.4316   14.3057 C   0  0  0  0  0  0  0  0  0  0  0  0
   16.3998    2.6314   13.8148 C   0  0  0  0  0  0  0  0  0  0  0  0
   14.9072    2.3852   13.7431 C   0  0  0  0  0  0  0  0  0  0  0  0
   14.0957    3.5275   13.1179 C   0  0  2  0  0  0  0  0  0  0  0  0
   12.2328    3.1787   12.8463 S   0  0  0  0  0  0  0  0  0  0  0  0
   12.2197    4.7230   11.7238 C   0  0  0  0  0  0  0  0  0  0  0  0
   13.6052    4.7172   11.0143 C   0  0  2  0  0  0  0  0  0  0  0  0
   13.4004    3.9131    9.7026 N   0  0  0  0  0  0  0  0  0  0  0  0
   14.1369    2.8913    9.6222 C   0  0  0  0  0  0  0  0  0  0  0  0
   14.1258    1.9245    8.7802 O   0  0  0  0  0  0  0  0  0  0  0  0
   14.8803    2.6152   10.8300 N   0  0  0  0  0  0  0  0  0  0  0  0
   14.6238    3.8348   11.7148 C   0  0  2  0  0  0  0  0  0  0  0  0
  1  2  1  0  0  0  0
  1  3  2  0  0  0  0
  1  4  1  0  0  0  0
  4  5  1  0  0  0  0
  5  6  1  0  0  0  0
  6  7  1  0  0  0  0
  8  7  1  6  0  0  0
  8  9  1  0  0  0  0
  8 16  1  0  0  0  0
  9 10  1  0  0  0  0
 11 10  1  1  0  0  0
 11 12  1  0  0  0  0
 11 16  1  0  0  0  0
 12 13  1  0  0  0  0
 13 14  2  0  0  0  0
 13 15  1  0  0  0  0
 16 15  1  6  0  0  0
M  CHG  1   2  -1
M  END
>  <CHROM.1>
-4.80360803,-70.42479158,173.67605177,-174.12021334,173.94572117,15.33705823
2.78894673,12.07430634,-0.30166717,0.30863495,-1.57210083

>  <Name>
1f27 biotin aptamer (Xray 1.3A)

>  <RI>
0

>  <Rbt.Current_Directory>
/home/itssahil/PROJECTS/Mol_Feturizer/New_Systems/rnas/1f27

>  <Rbt.Executable>
rbdock ($Id: //depot/dev/client3/rdock/2013.1/src/exe/rbdock.cxx#4 $)

>  <Rbt.Library>
libRbt.so (2013.1, Build901 2013/11/27)

>  <Rbt.Parameter_File>
/export/apps/rDock/src/rDock_2013.1_src/data/scripts/dock_solv.prm

>  <Rbt.Receptor>
prm/blind_docking_60.prm

>  <SCORE>
-16.253

>  <SCORE.INTER>
-15.4223

>  <SCORE.INTER.CONST>
1

>  <SCORE.INTER.POLAR>
-1.15281

>  <SCORE.INTER.ROT>
5

>  <SCORE.INTER.SOLV>
17.3361

>  <SCORE.INTER.VDW>
-19.1509

>  <SCORE.INTER.norm>
-0.963892

>  <SCORE.INTRA>
-0.830696

>  <SCORE.INTRA.DIHEDRAL>
-4.6322

>  <SCORE.INTRA.DIHEDRAL.0>
6.87082

>  <SCORE.INTRA.POLAR>
0

>  <SCORE.INTRA.POLAR.0>
0

>  <SCORE.INTRA.REPUL>
0

>  <SCORE.INTRA.REPUL.0>
0

>  <SCORE.INTRA.SOLV>
1.10554

>  <SCORE.INTRA.SOLV.lig_0>
-42.5944

>  <SCORE.INTRA.VDW>
0.932634

>  <SCORE.INTRA.VDW.0>
-1.067

>  <SCORE.INTRA.norm>
-0.0519185

>  <SCORE.RESTR>
0

>  <SCORE.RESTR.CAVITY>
0

>  <SCORE.RESTR.norm>
0

>  <SCORE.SYSTEM>
0

>  <SCORE.SYSTEM.CONST>
0

>  <SCORE.SYSTEM.DIHEDRAL>
0

>  <SCORE.SYSTEM.SOLV>
0

>  <SCORE.SYSTEM.norm>
0

>  <SCORE.heavy>
16

>  <SCORE.norm>
-1.01581

>  <RMSD>
3.893

$$$$
1f27 biotin aptamer (Xray 1.3A)
 OpenBabel11021811393D
libRbt.so/2013.1/901 2013/11/27
 16 17  0  0  0  0  0  0  0  0999 V2000
   18.8132   -6.1803   15.7350 C   0  0  0  0  0  0  0  0  0  0  0  0
   18.4664   -7.0677   14.9620 O   0  5  0  0  0  0  0  0  0  0  0  0
   18.8162   -6.3912   16.9467 O   0  0  0  0  0  0  0  0  0  0  0  0
   19.3043   -4.8437   15.1938 C   0  0  0  0  0  0  0  0  0  0  0  0
   18.1702   -3.8635   14.8196 C   0  0  0  0  0  0  0  0  0  0  0  0
   18.7164   -2.5482   14.2957 C   0  0  0  0  0  0  0  0  0  0  0  0
   17.6387   -1.5503   13.9264 C   0  0  0  0  0  0  0  0  0  0  0  0
   18.1565   -0.2348   13.3300 C   0  0  2  0  0  0  0  0  0  0  0  0
   19.2017    0.8605   14.5021 S   0  0  0  0  0  0  0  0  0  0  0  0
   18.9552    2.2641   13.2316 C   0  0  0  0  0  0  0  0  0  0  0  0
   17.5171    2.0546   12.6736 C   0  0  2  0  0  0  0  0  0  0  0  0
   16.5859    2.8894   13.5929 N   0  0  0  0  0  0  0  0  0  0  0  0
   15.7070    2.1963   14.1764 C   0  0  0  0  0  0  0  0  0  0  0  0
   14.8894    2.5101   15.1128 O   0  0  0  0  0  0  0  0  0  0  0  0
   15.8677    0.7734   13.9836 N   0  0  0  0  0  0  0  0  0  0  0  0
   16.9779    0.6598   12.9393 C   0  0  2  0  0  0  0  0  0  0  0  0
  1  2  1  0  0  0  0
  1  3  2  0  0  0  0
  1  4  1  0  0  0  0
  4  5  1  0  0  0  0
  5  6  1  0  0  0  0
  6  7  1  0  0  0  0
  8  7  1  1  0  0  0
  8  9  1  0  0  0  0
  8 16  1  0  0  0  0
  9 10  1  0  0  0  0
 11 10  1  1  0  0  0
 11 12  1  0  0  0  0
 11 16  1  0  0  0  0
 12 13  1  0  0  0  0
 13 14  2  0  0  0  0
 13 15  1  0  0  0  0
 16 15  1  1  0  0  0
M  CHG  1   2  -1
M  END
>  <CHROM.1>
82.36628715,179.63744762,-179.52404766,-177.20829192,-65.07944845,17.83279315
-1.05086952,14.38809375,1.34051058,-0.23763016,2.86752799

>  <Name>
1f27 biotin aptamer (Xray 1.3A)

>  <RI>
0

>  <Rbt.Current_Directory>
/home/itssahil/PROJECTS/Mol_Feturizer/New_Systems/rnas/1f27

>  <Rbt.Executable>
rbdock ($Id: //depot/dev/client3/rdock/2013.1/src/exe/rbdock.cxx#4 $)

>  <Rbt.Library>
libRbt.so (2013.1, Build901 2013/11/27)

>  <Rbt.Parameter_File>
/export/apps/rDock/src/rDock_2013.1_src/data/scripts/dock_solv.prm

>  <Rbt.Receptor>
prm/pocket_docking_8.prm

>  <SCORE>
-23.5372

>  <SCORE.INTER>
-20.4454

>  <SCORE.INTER.CONST>
1

>  <SCORE.INTER.POLAR>
-1.56425

>  <SCORE.INTER.ROT>
5

>  <SCORE.INTER.SOLV>
7.31414

>  <SCORE.INTER.VDW>
-17.7875

>  <SCORE.INTER.norm>
-1.27784

>  <SCORE.INTRA>
-3.09182

>  <SCORE.INTRA.DIHEDRAL>
-5.2805

>  <SCORE.INTRA.DIHEDRAL.0>
6.87082

>  <SCORE.INTRA.POLAR>
0

>  <SCORE.INTRA.POLAR.0>
0

>  <SCORE.INTRA.REPUL>
0

>  <SCORE.INTRA.REPUL.0>
0

>  <SCORE.INTRA.SOLV>
-0.8902

>  <SCORE.INTRA.SOLV.lig_0>
-42.5944

>  <SCORE.INTRA.VDW>
-0.00646753

>  <SCORE.INTRA.VDW.0>
-1.067

>  <SCORE.INTRA.norm>
-0.193239

>  <SCORE.RESTR>
0

>  <SCORE.RESTR.CAVITY>
0

>  <SCORE.RESTR.norm>
0

>  <SCORE.SYSTEM>
0

>  <SCORE.SYSTEM.CONST>
0

>  <SCORE.SYSTEM.DIHEDRAL>
0

>  <SCORE.SYSTEM.SOLV>
0

>  <SCORE.SYSTEM.norm>
0

>  <SCORE.heavy>
16

>  <SCORE.norm>
-1.47107

>  <RMSD>
3.970

$$$$
1f27 biotin aptamer (Xray 1.3A)
 OpenBabel11021811393D
libRbt.so/2013.1/901 2013/11/27
 16 17  0  0  0  0  0  0  0  0999 V2000
   18.7772    1.1213   12.7054 C   0  0  0  0  0  0  0  0  0  0  0  0
   19.0869    1.9478   11.8531 O   0  5  0  0  0  0  0  0  0  0  0  0
   19.6407    0.3971   13.1976 O   0  0  0  0  0  0  0  0  0  0  0  0
   17.3398    1.0380   13.2028 C   0  0  0  0  0  0  0  0  0  0  0  0
   16.8282    2.3376   13.8636 C   0  0  0  0  0  0  0  0  0  0  0  0
   15.5247    2.1126   14.6074 C   0  0  0  0  0  0  0  0  0  0  0  0
   14.3261    1.9608   13.6943 C   0  0  0  0  0  0  0  0  0  0  0  0
   13.8034    3.2729   13.0947 C   0  0  2  0  0  0  0  0  0  0  0  0
   11.9453    3.3001   12.6339 S   0  0  0  0  0  0  0  0  0  0  0  0
   12.3270    4.8866   11.6428 C   0  0  0  0  0  0  0  0  0  0  0  0
   13.7528    4.6639   11.0591 C   0  0  2  0  0  0  0  0  0  0  0  0
   13.5385    3.9971    9.6739 N   0  0  0  0  0  0  0  0  0  0  0  0
   14.0810    2.8617    9.5761 C   0  0  0  0  0  0  0  0  0  0  0  0
   13.9791    1.9694    8.6611 O   0  0  0  0  0  0  0  0  0  0  0  0
   14.6358    2.3747   10.8181 N   0  0  0  0  0  0  0  0  0  0  0  0
   14.5176    3.5626   11.7726 C   0  0  2  0  0  0  0  0  0  0  0  0
  1  2  1  0  0  0  0
  1  3  2  0  0  0  0
  1  4  1  0  0  0  0
  4  5  1  0  0  0  0
  5  6  1  0  0  0  0
  6  7  1  0  0  0  0
  8  7  1  6  0  0  0
  8  9  1  0  0  0  0
  8 16  1  0  0  0  0
  9 10  1  0  0  0  0
 11 10  1  1  0  0  0
 11 12  1  0  0  0  0
 11 16  1  0  0  0  0
 12 13  1  0  0  0  0
 13 14  2  0  0  0  0
 13 15  1  0  0  0  0
 16 15  1  6  0  0  0
M  CHG  1   2  -1
M  END
>  <CHROM.1>
-60.45110211,-167.37009206,-74.51665383,-76.57719372,-153.15421846,15.05297103
2.63297119,12.02928409,-0.31228500,0.39046620,-1.50370749

>  <Name>
1f27 biotin aptamer (Xray 1.3A)

>  <RI>
224

>  <Rbt.Current_Directory>
/home/itssahil/PROJECTS/Mol_Feturizer/New_Systems/rnas/1f27

>  <Rbt.Executable>
rbdock ($Id: //depot/dev/client3/rdock/2013.1/src/exe/rbdock.cxx#4 $)

>  <Rbt.Library>
libRbt.so (2013.1, Build901 2013/11/27)

>  <Rbt.Parameter_File>
/export/apps/rDock/src/rDock_2013.1_src/data/scripts/dock_solv.prm

>  <Rbt.Receptor>
prm/blind_docking_80.prm

>  <SCORE>
-11.189

>  <SCORE.INTER>
-10.6281

>  <SCORE.INTER.CONST>
1

>  <SCORE.INTER.POLAR>
-1.17866

>  <SCORE.INTER.ROT>
5

>  <SCORE.INTER.SOLV>
14.0436

>  <SCORE.INTER.VDW>
-14.7711

>  <SCORE.INTER.norm>
-0.664258

>  <SCORE.INTRA>
-0.563762

>  <SCORE.INTRA.DIHEDRAL>
-0.560799

>  <SCORE.INTRA.DIHEDRAL.0>
6.87082

>  <SCORE.INTRA.POLAR>
0

>  <SCORE.INTRA.POLAR.0>
0

>  <SCORE.INTRA.REPUL>
0

>  <SCORE.INTRA.REPUL.0>
0

>  <SCORE.INTRA.SOLV>
-0.44008

>  <SCORE.INTRA.SOLV.lig_0>
-42.5944

>  <SCORE.INTRA.VDW>
-0.0633227

>  <SCORE.INTRA.VDW.0>
-1.067

>  <SCORE.INTRA.norm>
-0.0352351

>  <SCORE.RESTR>
0.00290868

>  <SCORE.RESTR.CAVITY>
0.00290868

>  <SCORE.RESTR.norm>
0.000181792

>  <SCORE.SYSTEM>
0

>  <SCORE.SYSTEM.CONST>
0

>  <SCORE.SYSTEM.DIHEDRAL>
0

>  <SCORE.SYSTEM.SOLV>
0

>  <SCORE.SYSTEM.norm>
0

>  <SCORE.heavy>
16

>  <SCORE.norm>
-0.699311

>  <RMSD>
4.002

$$$$
1f27 biotin aptamer (Xray 1.3A)
 OpenBabel11021811393D
libRbt.so/2013.1/901 2013/11/27
 16 17  0  0  0  0  0  0  0  0999 V2000
   19.5762    1.4697   13.4645 C   0  0  0  0  0  0  0  0  0  0  0  0
   20.0588    1.9617   12.4494 O   0  5  0  0  0  0  0  0  0  0  0  0
   20.0201    0.4089   13.9008 O   0  0  0  0  0  0  0  0  0  0  0  0
   18.4769    2.2036   14.2217 C   0  0  0  0  0  0  0  0  0  0  0  0
   17.1558    1.4106   14.3347 C   0  0  0  0  0  0  0  0  0  0  0  0
   16.5251    1.1756   12.9746 C   0  0  0  0  0  0  0  0  0  0  0  0
   15.0773    1.6132   12.8959 C   0  0  0  0  0  0  0  0  0  0  0  0
   14.7226    2.4449   11.6563 C   0  0  2  0  0  0  0  0  0  0  0  0
   15.2672    4.2800   11.6967 S   0  0  0  0  0  0  0  0  0  0  0  0
   14.0960    4.5462   10.2127 C   0  0  0  0  0  0  0  0  0  0  0  0
   12.8900    3.5979   10.4760 C   0  0  2  0  0  0  0  0  0  0  0  0
   11.8633    4.4397   11.2800 N   0  0  0  0  0  0  0  0  0  0  0  0
   11.5953    3.9527   12.4132 C   0  0  0  0  0  0  0  0  0  0  0  0
   10.9332    4.4473   13.3934 O   0  0  0  0  0  0  0  0  0  0  0  0
   12.4188    2.8196   12.7674 N   0  0  0  0  0  0  0  0  0  0  0  0
   13.2027    2.5127   11.4917 C   0  0  2  0  0  0  0  0  0  0  0  0
  1  2  1  0  0  0  0
  1  3  2  0  0  0  0
  1  4  1  0  0  0  0
  4  5  1  0  0  0  0
  5  6  1  0  0  0  0
  6  7  1  0  0  0  0
  8  7  1  1  0  0  0
  8  9  1  0  0  0  0
  8 16  1  0  0  0  0
  9 10  1  0  0  0  0
 11 10  1  1  0  0  0
 11 12  1  0  0  0  0
 11 16  1  0  0  0  0
 12 13  1  0  0  0  0
 13 14  2  0  0  0  0
 13 15  1  0  0  0  0
 16 15  1  1  0  0  0
M  CHG  1   2  -1
M  END
>  <CHROM.1>
120.30376468,-64.15715487,-127.43599060,133.10718727,-77.31195395,15.27483997
2.81894620,12.44438835,-0.39207404,0.16133192,-0.93751455

>  <Name>
1f27 biotin aptamer (Xray 1.3A)

>  <RI>
224

>  <Rbt.Current_Directory>
/home/itssahil/PROJECTS/Mol_Feturizer/New_Systems/rnas/1f27

>  <Rbt.Executable>
rbdock ($Id: //depot/dev/client3/rdock/2013.1/src/exe/rbdock.cxx#4 $)

>  <Rbt.Library>
libRbt.so (2013.1, Build901 2013/11/27)

>  <Rbt.Parameter_File>
/export/apps/rDock/src/rDock_2013.1_src/data/scripts/dock_solv.prm

>  <Rbt.Receptor>
prm/blind_docking_80.prm

>  <SCORE>
-13.8819

>  <SCORE.INTER>
-17.3119

>  <SCORE.INTER.CONST>
1

>  <SCORE.INTER.POLAR>
-0.733123

>  <SCORE.INTER.ROT>
5

>  <SCORE.INTER.SOLV>
11.9405

>  <SCORE.INTER.VDW>
-20.011

>  <SCORE.INTER.norm>
-1.08199

>  <SCORE.INTRA>
3.41518

>  <SCORE.INTRA.DIHEDRAL>
6.98531

>  <SCORE.INTRA.DIHEDRAL.0>
6.87082

>  <SCORE.INTRA.POLAR>
0

>  <SCORE.INTRA.POLAR.0>
0

>  <SCORE.INTRA.REPUL>
0

>  <SCORE.INTRA.REPUL.0>
0

>  <SCORE.INTRA.SOLV>
0.0560112

>  <SCORE.INTRA.SOLV.lig_0>
-42.5944

>  <SCORE.INTRA.VDW>
-0.105484

>  <SCORE.INTRA.VDW.0>
-1.067

>  <SCORE.INTRA.norm>
0.213449

>  <SCORE.RESTR>
0.0148797

>  <SCORE.RESTR.CAVITY>
0.0148797

>  <SCORE.RESTR.norm>
0.000929979

>  <SCORE.SYSTEM>
0

>  <SCORE.SYSTEM.CONST>
0

>  <SCORE.SYSTEM.DIHEDRAL>
0

>  <SCORE.SYSTEM.SOLV>
0

>  <SCORE.SYSTEM.norm>
0

>  <SCORE.heavy>
16

>  <SCORE.norm>
-0.867616

>  <RMSD>
4.086

$$$$
1f27 biotin aptamer (Xray 1.3A)
 OpenBabel11021811393D
libRbt.so/2013.1/901 2013/11/27
 16 17  0  0  0  0  0  0  0  0999 V2000
   18.7916    1.2574   13.4642 C   0  0  0  0  0  0  0  0  0  0  0  0
   19.6726    0.4038   13.4404 O   0  5  0  0  0  0  0  0  0  0  0  0
   19.0185    2.3832   13.0242 O   0  0  0  0  0  0  0  0  0  0  0  0
   17.3998    0.9056   13.9740 C   0  0  0  0  0  0  0  0  0  0  0  0
   16.2689    1.1968   12.9624 C   0  0  0  0  0  0  0  0  0  0  0  0
   14.9058    0.8447   13.5289 C   0  0  0  0  0  0  0  0  0  0  0  0
   13.7538    1.2845   12.6497 C   0  0  0  0  0  0  0  0  0  0  0  0
   13.6487    2.8005   12.4370 C   0  0  2  0  0  0  0  0  0  0  0  0
   11.9105    3.4627   11.9831 S   0  0  0  0  0  0  0  0  0  0  0  0
   12.7806    5.0862   11.4810 C   0  0  0  0  0  0  0  0  0  0  0  0
   14.1430    4.6419   10.8731 C   0  0  2  0  0  0  0  0  0  0  0  0
   13.8827    4.4554    9.3543 N   0  0  0  0  0  0  0  0  0  0  0  0
   14.1142    3.2832    8.9475 C   0  0  0  0  0  0  0  0  0  0  0  0
   13.8616    2.7319    7.8179 O   0  0  0  0  0  0  0  0  0  0  0  0
   14.4111    2.3487   10.0086 N   0  0  0  0  0  0  0  0  0  0  0  0
   14.5264    3.2232   11.2568 C   0  0  2  0  0  0  0  0  0  0  0  0
  1  2  1  0  0  0  0
  1  3  2  0  0  0  0
  1  4  1  0  0  0  0
  4  5  1  0  0  0  0
  5  6  1  0  0  0  0
  6  7  1  0  0  0  0
  8  7  1  6  0  0  0
  8  9  1  0  0  0  0
  8 16  1  0  0  0  0
  9 10  1  0  0  0  0
 11 10  1  1  0  0  0
 11 12  1  0  0  0  0
 11 16  1  0  0  0  0
 12 13  1  0  0  0  0
 13 14  2  0  0  0  0
 13 15  1  0  0  0  0
 16 15  1  6  0  0  0
M  CHG  1   2  -1
M  END
>  <CHROM.1>
-123.84251329,-179.26314983,172.22463998,-62.30005796,-155.90039161,14.98950240
2.57029822,11.70538440,-0.60293050,0.26970279,-1.22824043

>  <Name>
1f27 biotin aptamer (Xray 1.3A)

>  <RI>
0

>  <Rbt.Current_Directory>
/home/itssahil/PROJECTS/Mol_Feturizer/New_Systems/rnas/1f27

>  <Rbt.Executable>
rbdock ($Id: //depot/dev/client3/rdock/2013.1/src/exe/rbdock.cxx#4 $)

>  <Rbt.Library>
libRbt.so (2013.1, Build901 2013/11/27)

>  <Rbt.Parameter_File>
/export/apps/rDock/src/rDock_2013.1_src/data/scripts/dock_solv.prm

>  <Rbt.Receptor>
prm/pocket_docking_8.prm

>  <SCORE>
-5.52799

>  <SCORE.INTER>
-3.96867

>  <SCORE.INTER.CONST>
1

>  <SCORE.INTER.POLAR>
-0.641878

>  <SCORE.INTER.ROT>
5

>  <SCORE.INTER.SOLV>
12.234

>  <SCORE.INTER.VDW>
-11.5175

>  <SCORE.INTER.norm>
-0.248042

>  <SCORE.INTRA>
-1.55932

>  <SCORE.INTRA.DIHEDRAL>
-3.14582

>  <SCORE.INTRA.DIHEDRAL.0>
6.87082

>  <SCORE.INTRA.POLAR>
0

>  <SCORE.INTRA.POLAR.0>
0

>  <SCORE.INTRA.REPUL>
0

>  <SCORE.INTRA.REPUL.0>
0

>  <SCORE.INTRA.SOLV>
-0.582338

>  <SCORE.INTRA.SOLV.lig_0>
-42.5944

>  <SCORE.INTRA.VDW>
0.304757

>  <SCORE.INTRA.VDW.0>
-1.067

>  <SCORE.INTRA.norm>
-0.0974576

>  <SCORE.RESTR>
0

>  <SCORE.RESTR.CAVITY>
0

>  <SCORE.RESTR.norm>
0

>  <SCORE.SYSTEM>
0

>  <SCORE.SYSTEM.CONST>
0

>  <SCORE.SYSTEM.DIHEDRAL>
0

>  <SCORE.SYSTEM.SOLV>
0

>  <SCORE.SYSTEM.norm>
0

>  <SCORE.heavy>
16

>  <SCORE.norm>
-0.345499

>  <RMSD>
4.142

$$$$
1f27 biotin aptamer (Xray 1.3A)
 OpenBabel11021811393D
libRbt.so/2013.1/901 2013/11/27
 16 17  0  0  0  0  0  0  0  0999 V2000
   19.3305    1.4058   13.3385 C   0  0  0  0  0  0  0  0  0  0  0  0
   19.7979    2.3433   13.9772 O   0  5  0  0  0  0  0  0  0  0  0  0
   20.0631    0.4868   12.9760 O   0  0  0  0  0  0  0  0  0  0  0  0
   17.8353    1.3448   13.0536 C   0  0  0  0  0  0  0  0  0  0  0  0
   16.9649    1.1314   14.3121 C   0  0  0  0  0  0  0  0  0  0  0  0
   15.5037    1.4394   14.0419 C   0  0  0  0  0  0  0  0  0  0  0  0
   15.2643    2.8523   13.5522 C   0  0  0  0  0  0  0  0  0  0  0  0
   14.7776    2.9568   12.1008 C   0  0  2  0  0  0  0  0  0  0  0  0
   14.8700    4.6985   11.3112 S   0  0  0  0  0  0  0  0  0  0  0  0
   13.7354    4.0151    9.9362 C   0  0  0  0  0  0  0  0  0  0  0  0
   12.7777    3.0237   10.6596 C   0  0  2  0  0  0  0  0  0  0  0  0
   11.5467    3.8672   11.0864 N   0  0  0  0  0  0  0  0  0  0  0  0
   11.3521    3.8723   12.3335 C   0  0  0  0  0  0  0  0  0  0  0  0
   10.5494    4.5744   13.0452 O   0  0  0  0  0  0  0  0  0  0  0  0
   12.4041    3.2303   13.0877 N   0  0  0  0  0  0  0  0  0  0  0  0
   13.2936    2.5918   12.0213 C   0  0  2  0  0  0  0  0  0  0  0  0
  1  2  1  0  0  0  0
  1  3  2  0  0  0  0
  1  4  1  0  0  0  0
  4  5  1  0  0  0  0
  5  6  1  0  0  0  0
  6  7  1  0  0  0  0
  8  7  1  1  0  0  0
  8  9  1  0  0  0  0
  8 16  1  0  0  0  0
  9 10  1  0  0  0  0
 11 10  1  1  0  0  0
 11 12  1  0  0  0  0
 11 16  1  0  0  0  0
 12 13  1  0  0  0  0
 13 14  2  0  0  0  0
 13 15  1  0  0  0  0
 16 15  1  1  0  0  0
M  CHG  1   2  -1
M  END
>  <CHROM.1>
-67.08872136,165.00363771,-58.07272068,112.62842322,-165.68649044,15.02275144
2.88718115,12.48382443,-0.38379928,0.18609485,-1.01654437

>  <Name>
1f27 biotin aptamer (Xray 1.3A)

>  <RI>
224

>  <Rbt.Current_Directory>
/home/itssahil/PROJECTS/Mol_Feturizer/New_Systems/rnas/1f27

>  <Rbt.Executable>
rbdock ($Id: //depot/dev/client3/rdock/2013.1/src/exe/rbdock.cxx#4 $)

>  <Rbt.Library>
libRbt.so (2013.1, Build901 2013/11/27)

>  <Rbt.Parameter_File>
/export/apps/rDock/src/rDock_2013.1_src/data/scripts/dock_solv.prm

>  <Rbt.Receptor>
prm/blind_docking_80.prm

>  <SCORE>
-14.8535

>  <SCORE.INTER>
-16.2795

>  <SCORE.INTER.CONST>
1

>  <SCORE.INTER.POLAR>
-0.00517959

>  <SCORE.INTER.ROT>
5

>  <SCORE.INTER.SOLV>
13.1716

>  <SCORE.INTER.VDW>
-22.1596

>  <SCORE.INTER.norm>
-1.01747

>  <SCORE.INTRA>
1.42598

>  <SCORE.INTRA.DIHEDRAL>
1.9441

>  <SCORE.INTRA.DIHEDRAL.0>
6.87082

>  <SCORE.INTRA.POLAR>
0

>  <SCORE.INTRA.POLAR.0>
0

>  <SCORE.INTRA.REPUL>
0

>  <SCORE.INTRA.REPUL.0>
0

>  <SCORE.INTRA.SOLV>
-0.61295

>  <SCORE.INTRA.SOLV.lig_0>
-42.5944

>  <SCORE.INTRA.VDW>
0.760401

>  <SCORE.INTRA.VDW.0>
-1.067

>  <SCORE.INTRA.norm>
0.0891236

>  <SCORE.RESTR>
0

>  <SCORE.RESTR.CAVITY>
0

>  <SCORE.RESTR.norm>
0

>  <SCORE.SYSTEM>
0

>  <SCORE.SYSTEM.CONST>
0

>  <SCORE.SYSTEM.DIHEDRAL>
0

>  <SCORE.SYSTEM.SOLV>
0

>  <SCORE.SYSTEM.norm>
0

>  <SCORE.heavy>
16

>  <SCORE.norm>
-0.928344

>  <RMSD>
4.198

$$$$
1f27 biotin aptamer (Xray 1.3A)
 OpenBabel11021811393D
libRbt.so/2013.1/901 2013/11/27
 16 17  0  0  0  0  0  0  0  0999 V2000
   18.1366    1.6092   13.3725 C   0  0  0  0  0  0  0  0  0  0  0  0
   18.6660    1.7169   12.2710 O   0  5  0  0  0  0  0  0  0  0  0  0
   18.8279    1.3823   14.3640 O   0  0  0  0  0  0  0  0  0  0  0  0
   16.6360    1.8236   13.5238 C   0  0  0  0  0  0  0  0  0  0  0  0
   15.8256    0.5151   13.6590 C   0  0  0  0  0  0  0  0  0  0  0  0
   14.3410    0.7888   13.8133 C   0  0  0  0  0  0  0  0  0  0  0  0
   13.6755    1.2517   12.5341 C   0  0  0  0  0  0  0  0  0  0  0  0
   13.6295    2.7739   12.3468 C   0  0  2  0  0  0  0  0  0  0  0  0
   11.9178    3.5114   11.9089 S   0  0  0  0  0  0  0  0  0  0  0  0
   12.8499    5.1076   11.4313 C   0  0  0  0  0  0  0  0  0  0  0  0
   14.1925    4.6204   10.8122 C   0  0  2  0  0  0  0  0  0  0  0  0
   13.9218    4.4696    9.2913 N   0  0  0  0  0  0  0  0  0  0  0  0
   14.1060    3.2961    8.8645 C   0  0  0  0  0  0  0  0  0  0  0  0
   13.8295    2.7740    7.7266 O   0  0  0  0  0  0  0  0  0  0  0  0
   14.3683    2.3331    9.9092 N   0  0  0  0  0  0  0  0  0  0  0  0
   14.5206    3.1815   11.1713 C   0  0  2  0  0  0  0  0  0  0  0  0
  1  2  1  0  0  0  0
  1  3  2  0  0  0  0
  1  4  1  0  0  0  0
  4  5  1  0  0  0  0
  5  6  1  0  0  0  0
  6  7  1  0  0  0  0
  8  7  1  6  0  0  0
  8  9  1  0  0  0  0
  8 16  1  0  0  0  0
  9 10  1  0  0  0  0
 11 10  1  1  0  0  0
 11 12  1  0  0  0  0
 11 16  1  0  0  0  0
 12 13  1  0  0  0  0
 13 14  2  0  0  0  0
 13 15  1  0  0  0  0
 16 15  1  6  0  0  0
M  CHG  1   2  -1
M  END
>  <CHROM.1>
102.82071946,179.71985919,72.95530014,-91.95027007,-129.60571281,14.77525550
2.62295271,11.69056458,-0.72781550,0.23705175,-1.21442196

>  <Name>
1f27 biotin aptamer (Xray 1.3A)

>  <RI>
0

>  <Rbt.Current_Directory>
/home/itssahil/PROJECTS/Mol_Feturizer/New_Systems/rnas/1f27

>  <Rbt.Executable>
rbdock ($Id: //depot/dev/client3/rdock/2013.1/src/exe/rbdock.cxx#4 $)

>  <Rbt.Library>
libRbt.so (2013.1, Build901 2013/11/27)

>  <Rbt.Parameter_File>
/export/apps/rDock/src/rDock_2013.1_src/data/scripts/dock_solv.prm

>  <Rbt.Receptor>
prm/blind_docking_100.prm

>  <SCORE>
-2.34088

>  <SCORE.INTER>
-3.96323

>  <SCORE.INTER.CONST>
1

>  <SCORE.INTER.POLAR>
-0.717976

>  <SCORE.INTER.ROT>
5

>  <SCORE.INTER.SOLV>
16.216

>  <SCORE.INTER.VDW>
-12.5876

>  <SCORE.INTER.norm>
-0.247702

>  <SCORE.INTRA>
1.59939

>  <SCORE.INTRA.DIHEDRAL>
4.12663

>  <SCORE.INTRA.DIHEDRAL.0>
6.87082

>  <SCORE.INTRA.POLAR>
0

>  <SCORE.INTRA.POLAR.0>
0

>  <SCORE.INTRA.REPUL>
0

>  <SCORE.INTRA.REPUL.0>
0

>  <SCORE.INTRA.SOLV>
-0.658825

>  <SCORE.INTRA.SOLV.lig_0>
-42.5944

>  <SCORE.INTRA.VDW>
-0.134508

>  <SCORE.INTRA.VDW.0>
-1.067

>  <SCORE.INTRA.norm>
0.0999622

>  <SCORE.RESTR>
0.0229551

>  <SCORE.RESTR.CAVITY>
0.0229551

>  <SCORE.RESTR.norm>
0.0014347

>  <SCORE.SYSTEM>
0

>  <SCORE.SYSTEM.CONST>
0

>  <SCORE.SYSTEM.DIHEDRAL>
0

>  <SCORE.SYSTEM.SOLV>
0

>  <SCORE.SYSTEM.norm>
0

>  <SCORE.heavy>
16

>  <SCORE.norm>
-0.146305

>  <RMSD>
4.451

$$$$
1f27 biotin aptamer (Xray 1.3A)
 OpenBabel11021811393D
libRbt.so/2013.1/901 2013/11/27
 16 17  0  0  0  0  0  0  0  0999 V2000
   17.0576    0.5253   13.0522 C   0  0  0  0  0  0  0  0  0  0  0  0
   17.4435    1.4644   12.3633 O   0  5  0  0  0  0  0  0  0  0  0  0
   17.8017   -0.4334   13.2516 O   0  0  0  0  0  0  0  0  0  0  0  0
   15.6872    0.5762   13.7155 C   0  0  0  0  0  0  0  0  0  0  0  0
   15.3635    1.9310   14.3839 C   0  0  0  0  0  0  0  0  0  0  0  0
   14.1411    1.8370   15.2781 C   0  0  0  0  0  0  0  0  0  0  0  0
   12.8337    1.8125   14.5141 C   0  0  0  0  0  0  0  0  0  0  0  0
   12.4729    3.1290   13.8133 C   0  0  2  0  0  0  0  0  0  0  0  0
   10.6633    3.2855   13.2080 S   0  0  0  0  0  0  0  0  0  0  0  0
   11.2537    4.7785   12.1748 C   0  0  0  0  0  0  0  0  0  0  0  0
   12.6938    4.4065   11.7156 C   0  0  2  0  0  0  0  0  0  0  0  0
   12.5250    3.6855   10.3515 N   0  0  0  0  0  0  0  0  0  0  0  0
   12.9723    2.5052   10.3509 C   0  0  0  0  0  0  0  0  0  0  0  0
   12.8609    1.5760    9.4746 O   0  0  0  0  0  0  0  0  0  0  0  0
   13.3895    2.0421   11.6544 N   0  0  0  0  0  0  0  0  0  0  0  0
   13.3052    3.2859   12.5387 C   0  0  2  0  0  0  0  0  0  0  0  0
  1  2  1  0  0  0  0
  1  3  2  0  0  0  0
  1  4  1  0  0  0  0
  4  5  1  0  0  0  0
  5  6  1  0  0  0  0
  6  7  1  0  0  0  0
  8  7  1  6  0  0  0
  8  9  1  0  0  0  0
  8 16  1  0  0  0  0
  9 10  1  0  0  0  0
 11 10  1  1  0  0  0
 11 12  1  0  0  0  0
 11 16  1  0  0  0  0
 12 13  1  0  0  0  0
 13 14  2  0  0  0  0
 13 15  1  0  0  0  0
 16 15  1  6  0  0  0
M  CHG  1   2  -1
M  END
>  <CHROM.1>
-44.24510184,-167.53932612,-76.49832139,-68.84514357,-165.58731460,13.70231665
2.31491112,12.63509711,-0.23934456,0.50019527,-1.50250158

>  <Name>
1f27 biotin aptamer (Xray 1.3A)

>  <RI>
224

>  <Rbt.Current_Directory>
/home/itssahil/PROJECTS/Mol_Feturizer/New_Systems/rnas/1f27

>  <Rbt.Executable>
rbdock ($Id: //depot/dev/client3/rdock/2013.1/src/exe/rbdock.cxx#4 $)

>  <Rbt.Library>
libRbt.so (2013.1, Build901 2013/11/27)

>  <Rbt.Parameter_File>
/export/apps/rDock/src/rDock_2013.1_src/data/scripts/dock_solv.prm

>  <Rbt.Receptor>
prm/blind_docking_80.prm

>  <SCORE>
-15.6071

>  <SCORE.INTER>
-14.7413

>  <SCORE.INTER.CONST>
1

>  <SCORE.INTER.POLAR>
-0.839661

>  <SCORE.INTER.ROT>
5

>  <SCORE.INTER.SOLV>
16.3168

>  <SCORE.INTER.VDW>
-19.4009

>  <SCORE.INTER.norm>
-0.921332

>  <SCORE.INTRA>
-0.865747

>  <SCORE.INTRA.DIHEDRAL>
-2.67759

>  <SCORE.INTRA.DIHEDRAL.0>
6.87082

>  <SCORE.INTRA.POLAR>
0

>  <SCORE.INTRA.POLAR.0>
0

>  <SCORE.INTRA.REPUL>
0

>  <SCORE.INTRA.REPUL.0>
0

>  <SCORE.INTRA.SOLV>
0.153278

>  <SCORE.INTRA.SOLV.lig_0>
-42.5944

>  <SCORE.INTRA.VDW>
0.396407

>  <SCORE.INTRA.VDW.0>
-1.067

>  <SCORE.INTRA.norm>
-0.0541092

>  <SCORE.RESTR>
0

>  <SCORE.RESTR.CAVITY>
0

>  <SCORE.RESTR.norm>
0

>  <SCORE.SYSTEM>
0

>  <SCORE.SYSTEM.CONST>
0

>  <SCORE.SYSTEM.DIHEDRAL>
0

>  <SCORE.SYSTEM.SOLV>
0

>  <SCORE.SYSTEM.norm>
0

>  <SCORE.heavy>
16

>  <SCORE.norm>
-0.975441

>  <RMSD>
4.761

$$$$
1f27 biotin aptamer (Xray 1.3A)
 OpenBabel11021811393D
libRbt.so/2013.1/901 2013/11/27
 16 17  0  0  0  0  0  0  0  0999 V2000
   17.4320    0.6557   13.9392 C   0  0  0  0  0  0  0  0  0  0  0  0
   18.6065    0.6080   13.5874 O   0  5  0  0  0  0  0  0  0  0  0  0
   16.8184   -0.3858   14.1654 O   0  0  0  0  0  0  0  0  0  0  0  0
   16.7547    2.0020   14.1616 C   0  0  0  0  0  0  0  0  0  0  0  0
   15.2241    1.9763   13.9534 C   0  0  0  0  0  0  0  0  0  0  0  0
   14.8507    1.3662   12.6150 C   0  0  0  0  0  0  0  0  0  0  0  0
   13.4964    1.8121   12.1042 C   0  0  0  0  0  0  0  0  0  0  0  0
   13.4427    3.2612   11.6029 C   0  0  2  0  0  0  0  0  0  0  0  0
   11.7447    3.8578   10.9498 S   0  0  0  0  0  0  0  0  0  0  0  0
   12.6804    5.3386   10.1905 C   0  0  0  0  0  0  0  0  0  0  0  0
   14.0547    4.7605    9.7431 C   0  0  2  0  0  0  0  0  0  0  0  0
   13.8546    4.2925    8.2768 N   0  0  0  0  0  0  0  0  0  0  0  0
   14.0705    3.0600    8.1112 C   0  0  0  0  0  0  0  0  0  0  0  0
   13.8513    2.3081    7.0962 O   0  0  0  0  0  0  0  0  0  0  0  0
   14.2955    2.3397    9.3433 N   0  0  0  0  0  0  0  0  0  0  0  0
   14.3816    3.4340   10.4069 C   0  0  2  0  0  0  0  0  0  0  0  0
  1  2  1  0  0  0  0
  1  3  2  0  0  0  0
  1  4  1  0  0  0  0
  4  5  1  0  0  0  0
  5  6  1  0  0  0  0
  6  7  1  0  0  0  0
  8  7  1  6  0  0  0
  8  9  1  0  0  0  0
  8 16  1  0  0  0  0
  9 10  1  0  0  0  0
 11 10  1  1  0  0  0
 11 12  1  0  0  0  0
 11 16  1  0  0  0  0
 12 13  1  0  0  0  0
 13 14  2  0  0  0  0
 13 15  1  0  0  0  0
 16 15  1  6  0  0  0
M  CHG  1   2  -1
M  END
>  <CHROM.1>
153.16036215,-51.83888659,-156.11082418,72.49047679,-179.99990752,14.52943733
2.59939415,11.24012175,-0.81898190,0.59040072,-1.47122141

>  <Name>
1f27 biotin aptamer (Xray 1.3A)

>  <RI>
0

>  <Rbt.Current_Directory>
/home/itssahil/PROJECTS/Mol_Feturizer/New_Systems/rnas/1f27

>  <Rbt.Executable>
rbdock ($Id: //depot/dev/client3/rdock/2013.1/src/exe/rbdock.cxx#4 $)

>  <Rbt.Library>
libRbt.so (2013.1, Build901 2013/11/27)

>  <Rbt.Parameter_File>
/export/apps/rDock/src/rDock_2013.1_src/data/scripts/dock_solv.prm

>  <Rbt.Receptor>
prm/pocket_docking_7.prm

>  <SCORE>
9.00831

>  <SCORE.INTER>
9.01835

>  <SCORE.INTER.CONST>
1

>  <SCORE.INTER.POLAR>
-2.13468

>  <SCORE.INTER.ROT>
5

>  <SCORE.INTER.SOLV>
14.8335

>  <SCORE.INTER.VDW>
1.24998

>  <SCORE.INTER.norm>
0.563647

>  <SCORE.INTRA>
-0.0100365

>  <SCORE.INTRA.DIHEDRAL>
-2.6406

>  <SCORE.INTRA.DIHEDRAL.0>
6.87082

>  <SCORE.INTRA.POLAR>
0

>  <SCORE.INTRA.POLAR.0>
0

>  <SCORE.INTRA.REPUL>
0

>  <SCORE.INTRA.REPUL.0>
0

>  <SCORE.INTRA.SOLV>
0.494334

>  <SCORE.INTRA.SOLV.lig_0>
-42.5944

>  <SCORE.INTRA.VDW>
1.0631

>  <SCORE.INTRA.VDW.0>
-1.067

>  <SCORE.INTRA.norm>
-0.00062728

>  <SCORE.RESTR>
0

>  <SCORE.RESTR.CAVITY>
0

>  <SCORE.RESTR.norm>
0

>  <SCORE.SYSTEM>
0

>  <SCORE.SYSTEM.CONST>
0

>  <SCORE.SYSTEM.DIHEDRAL>
0

>  <SCORE.SYSTEM.SOLV>
0

>  <SCORE.SYSTEM.norm>
0

>  <SCORE.heavy>
16

>  <SCORE.norm>
0.56302

>  <RMSD>
4.816

$$$$
1f27 biotin aptamer (Xray 1.3A)
 OpenBabel11021811393D
libRbt.so/2013.1/901 2013/11/27
 16 17  0  0  0  0  0  0  0  0999 V2000
   17.7464    1.7514   13.4919 C   0  0  0  0  0  0  0  0  0  0  0  0
   17.9485    2.7903   12.8713 O   0  5  0  0  0  0  0  0  0  0  0  0
   18.5171    0.8018   13.3626 O   0  0  0  0  0  0  0  0  0  0  0  0
   16.5838    1.6602   14.4721 C   0  0  0  0  0  0  0  0  0  0  0  0
   15.2424    2.1748   13.9041 C   0  0  0  0  0  0  0  0  0  0  0  0
   14.8135    1.3879   12.6794 C   0  0  0  0  0  0  0  0  0  0  0  0
   13.4790    1.8282   12.1147 C   0  0  0  0  0  0  0  0  0  0  0  0
   13.4406    3.2759   11.6079 C   0  0  2  0  0  0  0  0  0  0  0  0
   11.7479    3.8893   10.9565 S   0  0  0  0  0  0  0  0  0  0  0  0
   12.6986    5.3564   10.1891 C   0  0  0  0  0  0  0  0  0  0  0  0
   14.0651    4.7608    9.7407 C   0  0  2  0  0  0  0  0  0  0  0  0
   13.8561    4.2895    8.2767 N   0  0  0  0  0  0  0  0  0  0  0  0
   14.0575    3.0539    8.1155 C   0  0  0  0  0  0  0  0  0  0  0  0
   13.8273    2.3007    7.1039 O   0  0  0  0  0  0  0  0  0  0  0  0
   14.2773    2.3359    9.3499 N   0  0  0  0  0  0  0  0  0  0  0  0
   14.3785    3.4333   10.4089 C   0  0  2  0  0  0  0  0  0  0  0  0
  1  2  1  0  0  0  0
  1  3  2  0  0  0  0
  1  4  1  0  0  0  0
  4  5  1  0  0  0  0
  5  6  1  0  0  0  0
  6  7  1  0  0  0  0
  8  7  1  6  0  0  0
  8  9  1  0  0  0  0
  8 16  1  0  0  0  0
  9 10  1  0  0  0  0
 11 10  1  1  0  0  0
 11 12  1  0  0  0  0
 11 16  1  0  0  0  0
 12 13  1  0  0  0  0
 13 14  2  0  0  0  0
 13 15  1  0  0  0  0
 16 15  1  6  0  0  0
M  CHG  1   2  -1
M  END
>  <CHROM.1>
48.00910093,60.16125978,178.09216598,62.59446739,-177.47237553,14.59993848
2.87373876,11.13970307,-0.79632404,0.39927095,-1.48053731

>  <Name>
1f27 biotin aptamer (Xray 1.3A)

>  <RI>
224

>  <Rbt.Current_Directory>
/home/itssahil/PROJECTS/Mol_Feturizer/New_Systems/rnas/1f27

>  <Rbt.Executable>
rbdock ($Id: //depot/dev/client3/rdock/2013.1/src/exe/rbdock.cxx#4 $)

>  <Rbt.Library>
libRbt.so (2013.1, Build901 2013/11/27)

>  <Rbt.Parameter_File>
/export/apps/rDock/src/rDock_2013.1_src/data/scripts/dock_solv.prm

>  <Rbt.Receptor>
prm/blind_docking_80.prm

>  <SCORE>
7.01934

>  <SCORE.INTER>
9.00556

>  <SCORE.INTER.CONST>
1

>  <SCORE.INTER.POLAR>
-2.13468

>  <SCORE.INTER.ROT>
5

>  <SCORE.INTER.SOLV>
13.252

>  <SCORE.INTER.VDW>
1.76863

>  <SCORE.INTER.norm>
0.562848

>  <SCORE.INTRA>
-1.98622

>  <SCORE.INTRA.DIHEDRAL>
-5.50211

>  <SCORE.INTRA.DIHEDRAL.0>
6.87082

>  <SCORE.INTRA.POLAR>
0

>  <SCORE.INTRA.POLAR.0>
0

>  <SCORE.INTRA.REPUL>
0

>  <SCORE.INTRA.REPUL.0>
0

>  <SCORE.INTRA.SOLV>
0.430268

>  <SCORE.INTRA.SOLV.lig_0>
-42.5944

>  <SCORE.INTRA.VDW>
0.549698

>  <SCORE.INTRA.VDW.0>
-1.067

>  <SCORE.INTRA.norm>
-0.124139

>  <SCORE.RESTR>
0

>  <SCORE.RESTR.CAVITY>
0

>  <SCORE.RESTR.norm>
0

>  <SCORE.SYSTEM>
0

>  <SCORE.SYSTEM.CONST>
0

>  <SCORE.SYSTEM.DIHEDRAL>
0

>  <SCORE.SYSTEM.SOLV>
0

>  <SCORE.SYSTEM.norm>
0

>  <SCORE.heavy>
16

>  <SCORE.norm>
0.438709

>  <RMSD>
4.963

$$$$
1f27 biotin aptamer (Xray 1.3A)
 OpenBabel11021811393D
libRbt.so/2013.1/901 2013/11/27
 16 17  0  0  0  0  0  0  0  0999 V2000
   19.6102   -5.8334   16.4325 C   0  0  0  0  0  0  0  0  0  0  0  0
   20.7209   -6.3299   16.2744 O   0  5  0  0  0  0  0  0  0  0  0  0
   18.7557   -6.4386   17.0775 O   0  0  0  0  0  0  0  0  0  0  0  0
   19.3108   -4.4415   15.8907 C   0  0  0  0  0  0  0  0  0  0  0  0
   18.2418   -4.4188   14.7755 C   0  0  0  0  0  0  0  0  0  0  0  0
   17.9834   -3.0095   14.2754 C   0  0  0  0  0  0  0  0  0  0  0  0
   19.1356   -2.4287   13.4824 C   0  0  0  0  0  0  0  0  0  0  0  0
   18.9993   -0.9377   13.1468 C   0  0  2  0  0  0  0  0  0  0  0  0
   20.2326   -0.2560   11.8507 S   0  0  0  0  0  0  0  0  0  0  0  0
   19.7047    1.4861   12.4262 C   0  0  0  0  0  0  0  0  0  0  0  0
   19.4550    1.3466   13.9564 C   0  0  2  0  0  0  0  0  0  0  0  0
   20.8142    1.6686   14.6333 N   0  0  0  0  0  0  0  0  0  0  0  0
   21.2650    0.7161   15.3281 C   0  0  0  0  0  0  0  0  0  0  0  0
   22.4097    0.5646   15.8851 O   0  0  0  0  0  0  0  0  0  0  0  0
   20.5003   -0.5037   15.2061 N   0  0  0  0  0  0  0  0  0  0  0  0
   19.2705   -0.0957   14.3955 C   0  0  2  0  0  0  0  0  0  0  0  0
  1  2  1  0  0  0  0
  1  3  2  0  0  0  0
  1  4  1  0  0  0  0
  4  5  1  0  0  0  0
  5  6  1  0  0  0  0
  6  7  1  0  0  0  0
  8  7  1  1  0  0  0
  8  9  1  0  0  0  0
  8 16  1  0  0  0  0
  9 10  1  0  0  0  0
 11 10  1  6  0  0  0
 11 12  1  0  0  0  0
 11 16  1  0  0  0  0
 12 13  1  0  0  0  0
 13 14  2  0  0  0  0
 13 15  1  0  0  0  0
 16 15  1  6  0  0  0
M  CHG  1   2  -1
M  END
>  <CHROM.1>
115.11569489,179.94384884,70.08726056,-171.04977150,-167.69658060,19.83626303
-1.73872031,14.51519828,-1.81669657,-0.90199696,-0.57351128

>  <Name>
1f27 biotin aptamer (Xray 1.3A)

>  <RI>
0

>  <Rbt.Current_Directory>
/home/itssahil/PROJECTS/Mol_Feturizer/New_Systems/rnas/1f27

>  <Rbt.Executable>
rbdock ($Id: //depot/dev/client3/rdock/2013.1/src/exe/rbdock.cxx#4 $)

>  <Rbt.Library>
libRbt.so (2013.1, Build901 2013/11/27)

>  <Rbt.Parameter_File>
/export/apps/rDock/src/rDock_2013.1_src/data/scripts/dock_solv.prm

>  <Rbt.Receptor>
prm/pocket_docking_8.prm

>  <SCORE>
-15.4902

>  <SCORE.INTER>
-13.4589

>  <SCORE.INTER.CONST>
1

>  <SCORE.INTER.POLAR>
-1.23258

>  <SCORE.INTER.ROT>
5

>  <SCORE.INTER.SOLV>
7.73241

>  <SCORE.INTER.VDW>
-14.3748

>  <SCORE.INTER.norm>
-0.841179

>  <SCORE.INTRA>
-2.03133

>  <SCORE.INTRA.DIHEDRAL>
-4.12403

>  <SCORE.INTRA.DIHEDRAL.0>
6.87082

>  <SCORE.INTRA.POLAR>
0

>  <SCORE.INTRA.POLAR.0>
0

>  <SCORE.INTRA.REPUL>
0

>  <SCORE.INTRA.REPUL.0>
0

>  <SCORE.INTRA.SOLV>
-0.646731

>  <SCORE.INTRA.SOLV.lig_0>
-42.5944

>  <SCORE.INTRA.VDW>
0.354049

>  <SCORE.INTRA.VDW.0>
-1.067

>  <SCORE.INTRA.norm>
-0.126958

>  <SCORE.RESTR>
0

>  <SCORE.RESTR.CAVITY>
0

>  <SCORE.RESTR.norm>
0

>  <SCORE.SYSTEM>
0

>  <SCORE.SYSTEM.CONST>
0

>  <SCORE.SYSTEM.DIHEDRAL>
0

>  <SCORE.SYSTEM.SOLV>
0

>  <SCORE.SYSTEM.norm>
0

>  <SCORE.heavy>
16

>  <SCORE.norm>
-0.968137

>  <RMSD>
5.528

$$$$
1f27 biotin aptamer (Xray 1.3A)
 OpenBabel11021811393D
libRbt.so/2013.1/901 2013/11/27
 16 17  0  0  0  0  0  0  0  0999 V2000
   15.3422    1.2724   14.2984 C   0  0  0  0  0  0  0  0  0  0  0  0
   15.3188    0.1849   13.7309 O   0  5  0  0  0  0  0  0  0  0  0  0
   16.1979    2.1022   13.9955 O   0  0  0  0  0  0  0  0  0  0  0  0
   14.2736    1.6214   15.3265 C   0  0  0  0  0  0  0  0  0  0  0  0
   12.8402    1.6649   14.7516 C   0  0  0  0  0  0  0  0  0  0  0  0
   12.6169    2.8979   13.8957 C   0  0  0  0  0  0  0  0  0  0  0  0
   13.4051    2.8870   12.6025 C   0  0  0  0  0  0  0  0  0  0  0  0
   13.1833    4.1101   11.7031 C   0  0  2  0  0  0  0  0  0  0  0  0
   11.5218    4.1592   10.7529 S   0  0  0  0  0  0  0  0  0  0  0  0
   12.2970    5.5422    9.6892 C   0  0  0  0  0  0  0  0  0  0  0  0
   13.7985    5.1539    9.5552 C   0  0  2  0  0  0  0  0  0  0  0  0
   13.8930    4.2838    8.2734 N   0  0  0  0  0  0  0  0  0  0  0  0
   14.3332    3.1208    8.4897 C   0  0  0  0  0  0  0  0  0  0  0  0
   14.3913    2.0987    7.7180 O   0  0  0  0  0  0  0  0  0  0  0  0
   14.4950    2.8131    9.8921 N   0  0  0  0  0  0  0  0  0  0  0  0
   14.2429    4.1443   10.5994 C   0  0  2  0  0  0  0  0  0  0  0  0
  1  2  1  0  0  0  0
  1  3  2  0  0  0  0
  1  4  1  0  0  0  0
  4  5  1  0  0  0  0
  5  6  1  0  0  0  0
  6  7  1  0  0  0  0
  8  7  1  6  0  0  0
  8  9  1  0  0  0  0
  8 16  1  0  0  0  0
  9 10  1  0  0  0  0
 11 10  1  1  0  0  0
 11 12  1  0  0  0  0
 11 16  1  0  0  0  0
 12 13  1  0  0  0  0
 13 14  2  0  0  0  0
 13 15  1  0  0  0  0
 16 15  1  6  0  0  0
M  CHG  1   2  -1
M  END
>  <CHROM.1>
-62.19919622,-73.49204927,68.46416699,179.03991063,-75.00362882,13.73209981
3.04897516,11.51630842,-1.31984376,0.64522615,-1.27474742

>  <Name>
1f27 biotin aptamer (Xray 1.3A)

>  <RI>
0

>  <Rbt.Current_Directory>
/home/itssahil/PROJECTS/Mol_Feturizer/New_Systems/rnas/1f27

>  <Rbt.Executable>
rbdock ($Id: //depot/dev/client3/rdock/2013.1/src/exe/rbdock.cxx#4 $)

>  <Rbt.Library>
libRbt.so (2013.1, Build901 2013/11/27)

>  <Rbt.Parameter_File>
/export/apps/rDock/src/rDock_2013.1_src/data/scripts/dock_solv.prm

>  <Rbt.Receptor>
prm/pocket_docking_8.prm

>  <SCORE>
7.02061

>  <SCORE.INTER>
7.67335

>  <SCORE.INTER.CONST>
1

>  <SCORE.INTER.POLAR>
-2.10882

>  <SCORE.INTER.ROT>
5

>  <SCORE.INTER.SOLV>
18.9547

>  <SCORE.INTER.VDW>
-1.10662

>  <SCORE.INTER.norm>
0.479584

>  <SCORE.INTRA>
-0.755732

>  <SCORE.INTRA.DIHEDRAL>
-3.7435

>  <SCORE.INTRA.DIHEDRAL.0>
6.87082

>  <SCORE.INTRA.POLAR>
0

>  <SCORE.INTRA.POLAR.0>
0

>  <SCORE.INTRA.REPUL>
0

>  <SCORE.INTRA.REPUL.0>
0

>  <SCORE.INTRA.SOLV>
1.5839

>  <SCORE.INTRA.SOLV.lig_0>
-42.5944

>  <SCORE.INTRA.VDW>
0.324066

>  <SCORE.INTRA.VDW.0>
-1.067

>  <SCORE.INTRA.norm>
-0.0472333

>  <SCORE.RESTR>
0.102995

>  <SCORE.RESTR.CAVITY>
0.102995

>  <SCORE.RESTR.norm>
0.0064372

>  <SCORE.SYSTEM>
0

>  <SCORE.SYSTEM.CONST>
0

>  <SCORE.SYSTEM.DIHEDRAL>
0

>  <SCORE.SYSTEM.SOLV>
0

>  <SCORE.SYSTEM.norm>
0

>  <SCORE.heavy>
16

>  <SCORE.norm>
0.438788

>  <RMSD>
5.845

$$$$
1f27 biotin aptamer (Xray 1.3A)
 OpenBabel11021811393D
libRbt.so/2013.1/901 2013/11/27
 16 17  0  0  0  0  0  0  0  0999 V2000
   13.9950    2.7851   10.5840 C   0  0  0  0  0  0  0  0  0  0  0  0
   15.1994    2.9906   10.4717 O   0  5  0  0  0  0  0  0  0  0  0  0
   13.3502    2.3835    9.6168 O   0  0  0  0  0  0  0  0  0  0  0  0
   13.3121    2.9608   11.9343 C   0  0  0  0  0  0  0  0  0  0  0  0
   14.2230    2.6511   13.1432 C   0  0  0  0  0  0  0  0  0  0  0  0
   14.2598    1.1656   13.4511 C   0  0  0  0  0  0  0  0  0  0  0  0
   15.6023    0.5232   13.1706 C   0  0  0  0  0  0  0  0  0  0  0  0
   16.8028    1.2374   13.8053 C   0  0  2  0  0  0  0  0  0  0  0  0
   17.7706    2.4264   12.6584 S   0  0  0  0  0  0  0  0  0  0  0  0
   19.1484    2.4034   13.9797 C   0  0  0  0  0  0  0  0  0  0  0  0
   19.1371    0.9544   14.5486 C   0  0  2  0  0  0  0  0  0  0  0  0
   20.1347    0.1523   13.6708 N   0  0  0  0  0  0  0  0  0  0  0  0
   19.6028   -0.8251   13.0752 C   0  0  0  0  0  0  0  0  0  0  0  0
   20.0692   -1.5933   12.1608 O   0  0  0  0  0  0  0  0  0  0  0  0
   18.1658   -0.8788   13.2166 N   0  0  0  0  0  0  0  0  0  0  0  0
   17.8493    0.2097   14.2419 C   0  0  2  0  0  0  0  0  0  0  0  0
  1  2  1  0  0  0  0
  1  3  2  0  0  0  0
  1  4  1  0  0  0  0
  4  5  1  0  0  0  0
  5  6  1  0  0  0  0
  6  7  1  0  0  0  0
  8  7  1  6  0  0  0
  8  9  1  0  0  0  0
  8 16  1  0  0  0  0
  9 10  1  0  0  0  0
 11 10  1  6  0  0  0
 11 12  1  0  0  0  0
 11 16  1  0  0  0  0
 12 13  1  0  0  0  0
 13 14  2  0  0  0  0
 13 15  1  0  0  0  0
 16 15  1  6  0  0  0
M  CHG  1   2  -1
M  END
>  <CHROM.1>
-31.01529633,-83.65488078,111.71823748,51.31967054,-97.90573506,16.85410872
1.30662685,12.67940176,-3.12791422,-0.56167615,0.90730094

>  <Name>
1f27 biotin aptamer (Xray 1.3A)

>  <RI>
0

>  <Rbt.Current_Directory>
/home/itssahil/PROJECTS/Mol_Feturizer/New_Systems/rnas/1f27

>  <Rbt.Executable>
rbdock ($Id: //depot/dev/client3/rdock/2013.1/src/exe/rbdock.cxx#4 $)

>  <Rbt.Library>
libRbt.so (2013.1, Build901 2013/11/27)

>  <Rbt.Parameter_File>
/export/apps/rDock/src/rDock_2013.1_src/data/scripts/dock_solv.prm

>  <Rbt.Receptor>
prm/blind_docking_40.prm

>  <SCORE>
-18.9327

>  <SCORE.INTER>
-22.9478

>  <SCORE.INTER.CONST>
1

>  <SCORE.INTER.POLAR>
-1.36562

>  <SCORE.INTER.ROT>
5

>  <SCORE.INTER.SOLV>
13.97

>  <SCORE.INTER.VDW>
-22.3364

>  <SCORE.INTER.norm>
-1.43424

>  <SCORE.INTRA>
4.01511

>  <SCORE.INTRA.DIHEDRAL>
6.63407

>  <SCORE.INTRA.DIHEDRAL.0>
6.87082

>  <SCORE.INTRA.POLAR>
0

>  <SCORE.INTRA.POLAR.0>
0

>  <SCORE.INTRA.REPUL>
0

>  <SCORE.INTRA.REPUL.0>
0

>  <SCORE.INTRA.SOLV>
1.37037

>  <SCORE.INTRA.SOLV.lig_0>
-42.5944

>  <SCORE.INTRA.VDW>
0.0128898

>  <SCORE.INTRA.VDW.0>
-1.067

>  <SCORE.INTRA.norm>
0.250944

>  <SCORE.RESTR>
0

>  <SCORE.RESTR.CAVITY>
0

>  <SCORE.RESTR.norm>
0

>  <SCORE.SYSTEM>
0

>  <SCORE.SYSTEM.CONST>
0

>  <SCORE.SYSTEM.DIHEDRAL>
0

>  <SCORE.SYSTEM.SOLV>
0

>  <SCORE.SYSTEM.norm>
0

>  <SCORE.heavy>
16

>  <SCORE.norm>
-1.18329

>  <RMSD>
6.380

$$$$
1f27 biotin aptamer (Xray 1.3A)
 OpenBabel11021811393D
libRbt.so/2013.1/901 2013/11/27
 16 17  0  0  0  0  0  0  0  0999 V2000
   13.6191    2.0048   13.5471 C   0  0  0  0  0  0  0  0  0  0  0  0
   13.4391    0.7927   13.4859 O   0  5  0  0  0  0  0  0  0  0  0  0
   13.5427    2.5806   14.6312 O   0  0  0  0  0  0  0  0  0  0  0  0
   14.0035    2.7848   12.2964 C   0  0  0  0  0  0  0  0  0  0  0  0
   15.4385    2.5032   11.7977 C   0  0  0  0  0  0  0  0  0  0  0  0
   16.4813    2.9919   12.7860 C   0  0  0  0  0  0  0  0  0  0  0  0
   17.8927    2.5718   12.4326 C   0  0  0  0  0  0  0  0  0  0  0  0
   18.1272    1.0556   12.4128 C   0  0  2  0  0  0  0  0  0  0  0  0
   17.6470    0.1141   14.0092 S   0  0  0  0  0  0  0  0  0  0  0  0
   18.6467   -1.3554   13.3122 C   0  0  0  0  0  0  0  0  0  0  0  0
   19.8457   -0.7068   12.5605 C   0  0  2  0  0  0  0  0  0  0  0  0
   20.9834   -0.5893   13.6099 N   0  0  0  0  0  0  0  0  0  0  0  0
   21.3654    0.5982   13.8025 C   0  0  0  0  0  0  0  0  0  0  0  0
   22.1508    1.0832   14.6922 O   0  0  0  0  0  0  0  0  0  0  0  0
   20.5541    1.5854   13.1281 N   0  0  0  0  0  0  0  0  0  0  0  0
   19.6193    0.7612   12.2432 C   0  0  2  0  0  0  0  0  0  0  0  0
  1  2  1  0  0  0  0
  1  3  2  0  0  0  0
  1  4  1  0  0  0  0
  4  5  1  0  0  0  0
  5  6  1  0  0  0  0
  6  7  1  0  0  0  0
  8  7  1  1  0  0  0
  8  9  1  0  0  0  0
  8 16  1  0  0  0  0
  9 10  1  0  0  0  0
 11 10  1  1  0  0  0
 11 12  1  0  0  0  0
 11 16  1  0  0  0  0
 12 13  1  0  0  0  0
 13 14  2  0  0  0  0
 13 15  1  0  0  0  0
 16 15  1  1  0  0  0
M  CHG  1   2  -1
M  END
>  <CHROM.1>
-70.51054280,-65.92445501,172.13593515,-62.12699161,-54.41656955,17.68475113
1.10559623,13.26593142,2.87083404,0.04633623,-0.33324332

>  <Name>
1f27 biotin aptamer (Xray 1.3A)

>  <RI>
0

>  <Rbt.Current_Directory>
/home/itssahil/PROJECTS/Mol_Feturizer/New_Systems/rnas/1f27

>  <Rbt.Executable>
rbdock ($Id: //depot/dev/client3/rdock/2013.1/src/exe/rbdock.cxx#4 $)

>  <Rbt.Library>
libRbt.so (2013.1, Build901 2013/11/27)

>  <Rbt.Parameter_File>
/export/apps/rDock/src/rDock_2013.1_src/data/scripts/dock_solv.prm

>  <Rbt.Receptor>
prm/pocket_docking_7.prm

>  <SCORE>
-24.0255

>  <SCORE.INTER>
-21.6006

>  <SCORE.INTER.CONST>
1

>  <SCORE.INTER.POLAR>
-1.23288

>  <SCORE.INTER.ROT>
5

>  <SCORE.INTER.SOLV>
14.8549

>  <SCORE.INTER.VDW>
-22.1757

>  <SCORE.INTER.norm>
-1.35004

>  <SCORE.INTRA>
-2.42488

>  <SCORE.INTRA.DIHEDRAL>
-5.03422

>  <SCORE.INTRA.DIHEDRAL.0>
6.87082

>  <SCORE.INTRA.POLAR>
0

>  <SCORE.INTRA.POLAR.0>
0

>  <SCORE.INTRA.REPUL>
0

>  <SCORE.INTRA.REPUL.0>
0

>  <SCORE.INTRA.SOLV>
0.35332

>  <SCORE.INTRA.SOLV.lig_0>
-42.5944

>  <SCORE.INTRA.VDW>
-0.0844331

>  <SCORE.INTRA.VDW.0>
-1.067

>  <SCORE.INTRA.norm>
-0.151555

>  <SCORE.RESTR>
0

>  <SCORE.RESTR.CAVITY>
0

>  <SCORE.RESTR.norm>
0

>  <SCORE.SYSTEM>
0

>  <SCORE.SYSTEM.CONST>
0

>  <SCORE.SYSTEM.DIHEDRAL>
0

>  <SCORE.SYSTEM.SOLV>
0

>  <SCORE.SYSTEM.norm>
0

>  <SCORE.heavy>
16

>  <SCORE.norm>
-1.50159

>  <RMSD>
6.439

$$$$
1f27 biotin aptamer (Xray 1.3A)
 OpenBabel11021811393D
libRbt.so/2013.1/901 2013/11/27
 16 17  0  0  0  0  0  0  0  0999 V2000
   13.6620    2.3434   13.1618 C   0  0  0  0  0  0  0  0  0  0  0  0
   13.3838    2.5776   11.9901 O   0  5  0  0  0  0  0  0  0  0  0  0
   13.2251    1.3294   13.7035 O   0  0  0  0  0  0  0  0  0  0  0  0
   14.6013    3.2692   13.9243 C   0  0  0  0  0  0  0  0  0  0  0  0
   16.0928    2.8832   13.8092 C   0  0  0  0  0  0  0  0  0  0  0  0
   16.5799    2.9502   12.3735 C   0  0  0  0  0  0  0  0  0  0  0  0
   18.0193    2.5115   12.2025 C   0  0  0  0  0  0  0  0  0  0  0  0
   18.2437    0.9955   12.2792 C   0  0  2  0  0  0  0  0  0  0  0  0
   17.6358    0.1402   13.8806 S   0  0  0  0  0  0  0  0  0  0  0  0
   18.6754   -1.3669   13.3395 C   0  0  0  0  0  0  0  0  0  0  0  0
   19.9331   -0.7623   12.6497 C   0  0  2  0  0  0  0  0  0  0  0  0
   20.9878   -0.5939   13.7759 N   0  0  0  0  0  0  0  0  0  0  0  0
   21.3625    0.6008   13.9356 C   0  0  0  0  0  0  0  0  0  0  0  0
   22.0810    1.1291   14.8568 O   0  0  0  0  0  0  0  0  0  0  0  0
   20.6124    1.5541   13.1506 N   0  0  0  0  0  0  0  0  0  0  0  0
   19.7423    0.6879   12.2404 C   0  0  2  0  0  0  0  0  0  0  0  0
  1  2  1  0  0  0  0
  1  3  2  0  0  0  0
  1  4  1  0  0  0  0
  4  5  1  0  0  0  0
  5  6  1  0  0  0  0
  6  7  1  0  0  0  0
  8  7  1  1  0  0  0
  8  9  1  0  0  0  0
  8 16  1  0  0  0  0
  9 10  1  0  0  0  0
 11 10  1  1  0  0  0
 11 12  1  0  0  0  0
 11 16  1  0  0  0  0
 12 13  1  0  0  0  0
 13 14  2  0  0  0  0
 13 15  1  0  0  0  0
 16 15  1  1  0  0  0
M  CHG  1   2  -1
M  END
>  <CHROM.1>
-89.39436744,61.99276219,-177.05514790,75.28410075,-56.55510372,17.76412122
1.19508881,13.27155228,2.82322205,-0.04701382,-0.11179789

>  <Name>
1f27 biotin aptamer (Xray 1.3A)

>  <RI>
0

>  <Rbt.Current_Directory>
/home/itssahil/PROJECTS/Mol_Feturizer/New_Systems/rnas/1f27

>  <Rbt.Executable>
rbdock ($Id: //depot/dev/client3/rdock/2013.1/src/exe/rbdock.cxx#4 $)

>  <Rbt.Library>
libRbt.so (2013.1, Build901 2013/11/27)

>  <Rbt.Parameter_File>
/export/apps/rDock/src/rDock_2013.1_src/data/scripts/dock_solv.prm

>  <Rbt.Receptor>
prm/pocket_docking_8.prm

>  <SCORE>
-24.38

>  <SCORE.INTER>
-22.5419

>  <SCORE.INTER.CONST>
1

>  <SCORE.INTER.POLAR>
-1.23288

>  <SCORE.INTER.ROT>
5

>  <SCORE.INTER.SOLV>
12.5401

>  <SCORE.INTER.VDW>
-22.0317

>  <SCORE.INTER.norm>
-1.40887

>  <SCORE.INTRA>
-1.83816

>  <SCORE.INTRA.DIHEDRAL>
-4.5802

>  <SCORE.INTRA.DIHEDRAL.0>
6.87082

>  <SCORE.INTRA.POLAR>
0

>  <SCORE.INTRA.POLAR.0>
0

>  <SCORE.INTRA.REPUL>
0

>  <SCORE.INTRA.REPUL.0>
0

>  <SCORE.INTRA.SOLV>
0.389151

>  <SCORE.INTRA.SOLV.lig_0>
-42.5944

>  <SCORE.INTRA.VDW>
0.257367

>  <SCORE.INTRA.VDW.0>
-1.067

>  <SCORE.INTRA.norm>
-0.114885

>  <SCORE.RESTR>
0

>  <SCORE.RESTR.CAVITY>
0

>  <SCORE.RESTR.norm>
0

>  <SCORE.SYSTEM>
0

>  <SCORE.SYSTEM.CONST>
0

>  <SCORE.SYSTEM.DIHEDRAL>
0

>  <SCORE.SYSTEM.SOLV>
0

>  <SCORE.SYSTEM.norm>
0

>  <SCORE.heavy>
16

>  <SCORE.norm>
-1.52375

>  <RMSD>
6.440

$$$$
1f27 biotin aptamer (Xray 1.3A)
 OpenBabel11021811393D
libRbt.so/2013.1/901 2013/11/27
 16 17  0  0  0  0  0  0  0  0999 V2000
   14.1614    2.8886    8.3074 C   0  0  0  0  0  0  0  0  0  0  0  0
   13.7188    2.4959    7.2326 O   0  5  0  0  0  0  0  0  0  0  0  0
   15.0516    3.7369    8.3292 O   0  0  0  0  0  0  0  0  0  0  0  0
   13.5638    2.3786    9.6126 C   0  0  0  0  0  0  0  0  0  0  0  0
   13.0253    3.4952   10.5347 C   0  0  0  0  0  0  0  0  0  0  0  0
   14.1289    4.1062   11.3783 C   0  0  0  0  0  0  0  0  0  0  0  0
   14.2674    3.4696   12.7455 C   0  0  0  0  0  0  0  0  0  0  0  0
   14.7949    2.0288   12.7343 C   0  0  2  0  0  0  0  0  0  0  0  0
   14.8005    1.1271   14.4233 S   0  0  0  0  0  0  0  0  0  0  0  0
   15.9380   -0.1688   13.6037 C   0  0  0  0  0  0  0  0  0  0  0  0
   16.8317    0.6432   12.6213 C   0  0  2  0  0  0  0  0  0  0  0  0
   18.0880    1.0499   13.4372 N   0  0  0  0  0  0  0  0  0  0  0  0
   18.2509    2.2991   13.5151 C   0  0  0  0  0  0  0  0  0  0  0  0
   19.0659    2.9868   14.2269 O   0  0  0  0  0  0  0  0  0  0  0  0
   17.1525    3.0628   12.9694 N   0  0  0  0  0  0  0  0  0  0  0  0
   16.2627    2.0147   12.3015 C   0  0  2  0  0  0  0  0  0  0  0  0
  1  2  1  0  0  0  0
  1  3  2  0  0  0  0
  1  4  1  0  0  0  0
  4  5  1  0  0  0  0
  5  6  1  0  0  0  0
  6  7  1  0  0  0  0
  8  7  1  1  0  0  0
  8  9  1  0  0  0  0
  8 16  1  0  0  0  0
  9 10  1  0  0  0  0
 11 10  1  1  0  0  0
 11 12  1  0  0  0  0
 11 16  1  0  0  0  0
 12 13  1  0  0  0  0
 13 14  2  0  0  0  0
 13 15  1  0  0  0  0
 16 15  1  1  0  0  0
M  CHG  1   2  -1
M  END
>  <CHROM.1>
-122.49808852,-83.66048825,-93.75219070,68.90810779,-173.51286112,15.52464113
2.28238328,11.92021455,-2.12443626,0.15615902,1.94950021

>  <Name>
1f27 biotin aptamer (Xray 1.3A)

>  <RI>
0

>  <Rbt.Current_Directory>
/home/itssahil/PROJECTS/Mol_Feturizer/New_Systems/rnas/1f27

>  <Rbt.Executable>
rbdock ($Id: //depot/dev/client3/rdock/2013.1/src/exe/rbdock.cxx#4 $)

>  <Rbt.Library>
libRbt.so (2013.1, Build901 2013/11/27)

>  <Rbt.Parameter_File>
/export/apps/rDock/src/rDock_2013.1_src/data/scripts/dock_solv.prm

>  <Rbt.Receptor>
prm/blind_docking_60.prm

>  <SCORE>
-27.1189

>  <SCORE.INTER>
-27.523

>  <SCORE.INTER.CONST>
1

>  <SCORE.INTER.POLAR>
-2.41161

>  <SCORE.INTER.ROT>
5

>  <SCORE.INTER.SOLV>
17.1216

>  <SCORE.INTER.VDW>
-22.9505

>  <SCORE.INTER.norm>
-1.72019

>  <SCORE.INTRA>
0.404181

>  <SCORE.INTRA.DIHEDRAL>
0.486245

>  <SCORE.INTRA.DIHEDRAL.0>
6.87082

>  <SCORE.INTRA.POLAR>
0

>  <SCORE.INTRA.POLAR.0>
0

>  <SCORE.INTRA.REPUL>
0

>  <SCORE.INTRA.REPUL.0>
0

>  <SCORE.INTRA.SOLV>
0.2558

>  <SCORE.INTRA.SOLV.lig_0>
-42.5944

>  <SCORE.INTRA.VDW>
0.0331584

>  <SCORE.INTRA.VDW.0>
-1.067

>  <SCORE.INTRA.norm>
0.0252613

>  <SCORE.RESTR>
0

>  <SCORE.RESTR.CAVITY>
0

>  <SCORE.RESTR.norm>
0

>  <SCORE.SYSTEM>
0

>  <SCORE.SYSTEM.CONST>
0

>  <SCORE.SYSTEM.DIHEDRAL>
0

>  <SCORE.SYSTEM.SOLV>
0

>  <SCORE.SYSTEM.norm>
0

>  <SCORE.heavy>
16

>  <SCORE.norm>
-1.69493

>  <RMSD>
6.469

$$$$
1f27 biotin aptamer (Xray 1.3A)
 OpenBabel11021811393D
libRbt.so/2013.1/901 2013/11/27
 16 17  0  0  0  0  0  0  0  0999 V2000
   13.5740    2.9145   12.9846 C   0  0  0  0  0  0  0  0  0  0  0  0
   13.8865    2.7839   11.8053 O   0  5  0  0  0  0  0  0  0  0  0  0
   12.4125    3.1872   13.2830 O   0  0  0  0  0  0  0  0  0  0  0  0
   14.6046    2.6727   14.0799 C   0  0  0  0  0  0  0  0  0  0  0  0
   14.6520    1.2136   14.5858 C   0  0  0  0  0  0  0  0  0  0  0  0
   15.1373    0.2621   13.5078 C   0  0  0  0  0  0  0  0  0  0  0  0
   16.5594   -0.2145   13.7176 C   0  0  0  0  0  0  0  0  0  0  0  0
   17.6204    0.8936   13.6895 C   0  0  2  0  0  0  0  0  0  0  0  0
   17.7932    1.8442   12.0365 S   0  0  0  0  0  0  0  0  0  0  0  0
   19.4432    2.5166   12.7224 C   0  0  0  0  0  0  0  0  0  0  0  0
   20.0410    1.3449   13.5547 C   0  0  2  0  0  0  0  0  0  0  0  0
   20.9229    0.5364   12.5658 N   0  0  0  0  0  0  0  0  0  0  0  0
   20.5582   -0.6652   12.4380 C   0  0  0  0  0  0  0  0  0  0  0  0
   20.9382   -1.5636   11.6061 O   0  0  0  0  0  0  0  0  0  0  0  0
   19.3165   -0.9695   13.1111 N   0  0  0  0  0  0  0  0  0  0  0  0
   19.0087    0.2916   13.9179 C   0  0  2  0  0  0  0  0  0  0  0  0
  1  2  1  0  0  0  0
  1  3  2  0  0  0  0
  1  4  1  0  0  0  0
  4  5  1  0  0  0  0
  5  6  1  0  0  0  0
  6  7  1  0  0  0  0
  8  7  1  6  0  0  0
  8  9  1  0  0  0  0
  8 16  1  0  0  0  0
  9 10  1  0  0  0  0
 11 10  1  6  0  0  0
 11 12  1  0  0  0  0
 11 16  1  0  0  0  0
 12 13  1  0  0  0  0
 13 14  2  0  0  0  0
 13 15  1  0  0  0  0
 16 15  1  6  0  0  0
M  CHG  1   2  -1
M  END
>  <CHROM.1>
-90.17896484,66.03694646,105.23880334,-62.36332610,-62.71039417,17.28803988
1.12256249,12.99449651,-2.82818914,-0.23754923,2.75983164

>  <Name>
1f27 biotin aptamer (Xray 1.3A)

>  <RI>
0

>  <Rbt.Current_Directory>
/home/itssahil/PROJECTS/Mol_Feturizer/New_Systems/rnas/1f27

>  <Rbt.Executable>
rbdock ($Id: //depot/dev/client3/rdock/2013.1/src/exe/rbdock.cxx#4 $)

>  <Rbt.Library>
libRbt.so (2013.1, Build901 2013/11/27)

>  <Rbt.Parameter_File>
/export/apps/rDock/src/rDock_2013.1_src/data/scripts/dock_solv.prm

>  <Rbt.Receptor>
prm/blind_docking_60.prm

>  <SCORE>
-22.8304

>  <SCORE.INTER>
-22.775

>  <SCORE.INTER.CONST>
1

>  <SCORE.INTER.POLAR>
-0.841069

>  <SCORE.INTER.ROT>
5

>  <SCORE.INTER.SOLV>
12.4355

>  <SCORE.INTER.VDW>
-23.4582

>  <SCORE.INTER.norm>
-1.42343

>  <SCORE.INTRA>
-0.0641377

>  <SCORE.INTRA.DIHEDRAL>
-0.177847

>  <SCORE.INTRA.DIHEDRAL.0>
6.87082

>  <SCORE.INTRA.POLAR>
0

>  <SCORE.INTRA.POLAR.0>
0

>  <SCORE.INTRA.REPUL>
0

>  <SCORE.INTRA.REPUL.0>
0

>  <SCORE.INTRA.SOLV>
0.693815

>  <SCORE.INTRA.SOLV.lig_0>
-42.5944

>  <SCORE.INTRA.VDW>
-0.322122

>  <SCORE.INTRA.VDW.0>
-1.067

>  <SCORE.INTRA.norm>
-0.0040086

>  <SCORE.RESTR>
0.00868361

>  <SCORE.RESTR.CAVITY>
0.00868361

>  <SCORE.RESTR.norm>
0.000542726

>  <SCORE.SYSTEM>
0

>  <SCORE.SYSTEM.CONST>
0

>  <SCORE.SYSTEM.DIHEDRAL>
0

>  <SCORE.SYSTEM.SOLV>
0

>  <SCORE.SYSTEM.norm>
0

>  <SCORE.heavy>
16

>  <SCORE.norm>
-1.4269

>  <RMSD>
6.473

$$$$
1f27 biotin aptamer (Xray 1.3A)
 OpenBabel11021811393D
libRbt.so/2013.1/901 2013/11/27
 16 17  0  0  0  0  0  0  0  0999 V2000
   13.8613    3.1575   10.6560 C   0  0  0  0  0  0  0  0  0  0  0  0
   14.6239    3.0460    9.7013 O   0  5  0  0  0  0  0  0  0  0  0  0
   12.6686    3.3865   10.4628 O   0  0  0  0  0  0  0  0  0  0  0  0
   14.3757    2.9452   12.0741 C   0  0  0  0  0  0  0  0  0  0  0  0
   14.0175    1.5663   12.6717 C   0  0  0  0  0  0  0  0  0  0  0  0
   14.4517    1.4538   14.1214 C   0  0  0  0  0  0  0  0  0  0  0  0
   15.8448    0.8851   14.2928 C   0  0  0  0  0  0  0  0  0  0  0  0
   16.9813    1.8320   13.8851 C   0  0  2  0  0  0  0  0  0  0  0  0
   17.2727    2.0268   12.0028 S   0  0  0  0  0  0  0  0  0  0  0  0
   18.9432    2.8325   12.4561 C   0  0  0  0  0  0  0  0  0  0  0  0
   19.4306    2.0657   13.7201 C   0  0  2  0  0  0  0  0  0  0  0  0
   20.2847    0.8834   13.1889 N   0  0  0  0  0  0  0  0  0  0  0  0
   19.8408   -0.2475   13.5311 C   0  0  0  0  0  0  0  0  0  0  0  0
   20.1831   -1.4231   13.1508 O   0  0  0  0  0  0  0  0  0  0  0  0
   18.5601   -0.1910   14.1975 N   0  0  0  0  0  0  0  0  0  0  0  0
   18.3160    1.3022   14.4141 C   0  0  2  0  0  0  0  0  0  0  0  0
  1  2  1  0  0  0  0
  1  3  2  0  0  0  0
  1  4  1  0  0  0  0
  4  5  1  0  0  0  0
  5  6  1  0  0  0  0
  6  7  1  0  0  0  0
  8  7  1  6  0  0  0
  8  9  1  0  0  0  0
  8 16  1  0  0  0  0
  9 10  1  0  0  0  0
 11 10  1  6  0  0  0
 11 12  1  0  0  0  0
 11 16  1  0  0  0  0
 12 13  1  0  0  0  0
 13 14  2  0  0  0  0
 13 15  1  0  0  0  0
 16 15  1  6  0  0  0
M  CHG  1   2  -1
M  END
>  <CHROM.1>
-101.69267254,-175.22007923,-91.22509916,72.15269766,-76.35301079,16.86451799
1.61658658,12.68641388,-2.60888002,-0.13557813,2.15922934

>  <Name>
1f27 biotin aptamer (Xray 1.3A)

>  <RI>
0

>  <Rbt.Current_Directory>
/home/itssahil/PROJECTS/Mol_Feturizer/New_Systems/rnas/1f27

>  <Rbt.Executable>
rbdock ($Id: //depot/dev/client3/rdock/2013.1/src/exe/rbdock.cxx#4 $)

>  <Rbt.Library>
libRbt.so (2013.1, Build901 2013/11/27)

>  <Rbt.Parameter_File>
/export/apps/rDock/src/rDock_2013.1_src/data/scripts/dock_solv.prm

>  <Rbt.Receptor>
prm/blind_docking_60.prm

>  <SCORE>
-24.8285

>  <SCORE.INTER>
-24.8636

>  <SCORE.INTER.CONST>
1

>  <SCORE.INTER.POLAR>
-1.62982

>  <SCORE.INTER.ROT>
5

>  <SCORE.INTER.SOLV>
12.0969

>  <SCORE.INTER.VDW>
-22.1086

>  <SCORE.INTER.norm>
-1.55397

>  <SCORE.INTRA>
0.0350553

>  <SCORE.INTRA.DIHEDRAL>
-0.658443

>  <SCORE.INTRA.DIHEDRAL.0>
6.87082

>  <SCORE.INTRA.POLAR>
0

>  <SCORE.INTRA.POLAR.0>
0

>  <SCORE.INTRA.REPUL>
0

>  <SCORE.INTRA.REPUL.0>
0

>  <SCORE.INTRA.SOLV>
-0.093582

>  <SCORE.INTRA.SOLV.lig_0>
-42.5944

>  <SCORE.INTRA.VDW>
0.411068

>  <SCORE.INTRA.VDW.0>
-1.067

>  <SCORE.INTRA.norm>
0.00219095

>  <SCORE.RESTR>
0

>  <SCORE.RESTR.CAVITY>
0

>  <SCORE.RESTR.norm>
0

>  <SCORE.SYSTEM>
0

>  <SCORE.SYSTEM.CONST>
0

>  <SCORE.SYSTEM.DIHEDRAL>
0

>  <SCORE.SYSTEM.SOLV>
0

>  <SCORE.SYSTEM.norm>
0

>  <SCORE.heavy>
16

>  <SCORE.norm>
-1.55178

>  <RMSD>
6.475

$$$$
1f27 biotin aptamer (Xray 1.3A)
 OpenBabel11021811393D
libRbt.so/2013.1/901 2013/11/27
 16 17  0  0  0  0  0  0  0  0999 V2000
   14.2913    2.9715    8.1129 C   0  0  0  0  0  0  0  0  0  0  0  0
   13.6788    2.4712    7.1749 O   0  5  0  0  0  0  0  0  0  0  0  0
   15.2609    3.6956    7.8937 O   0  0  0  0  0  0  0  0  0  0  0  0
   13.8122    2.7529    9.5423 C   0  0  0  0  0  0  0  0  0  0  0  0
   13.7140    4.0497   10.3764 C   0  0  0  0  0  0  0  0  0  0  0  0
   13.1238    3.7893   11.7500 C   0  0  0  0  0  0  0  0  0  0  0  0
   14.1652    3.4962   12.8098 C   0  0  0  0  0  0  0  0  0  0  0  0
   14.7003    2.0581   12.8061 C   0  0  2  0  0  0  0  0  0  0  0  0
   14.7844    1.1928   14.5119 S   0  0  0  0  0  0  0  0  0  0  0  0
   15.8930   -0.1146   13.6712 C   0  0  0  0  0  0  0  0  0  0  0  0
   16.7385    0.6807   12.6341 C   0  0  2  0  0  0  0  0  0  0  0  0
   18.0265    1.1109   13.3858 N   0  0  0  0  0  0  0  0  0  0  0  0
   18.1852    2.3623   13.4302 C   0  0  0  0  0  0  0  0  0  0  0  0
   19.0261    3.0692   14.0912 O   0  0  0  0  0  0  0  0  0  0  0  0
   17.0596    3.1087   12.9166 N   0  0  0  0  0  0  0  0  0  0  0  0
   16.1480    2.0422   12.3104 C   0  0  2  0  0  0  0  0  0  0  0  0
  1  2  1  0  0  0  0
  1  3  2  0  0  0  0
  1  4  1  0  0  0  0
  4  5  1  0  0  0  0
  5  6  1  0  0  0  0
  6  7  1  0  0  0  0
  8  7  1  1  0  0  0
  8  9  1  0  0  0  0
  8 16  1  0  0  0  0
  9 10  1  0  0  0  0
 11 10  1  1  0  0  0
 11 12  1  0  0  0  0
 11 16  1  0  0  0  0
 12 13  1  0  0  0  0
 13 14  2  0  0  0  0
 13 15  1  0  0  0  0
 16 15  1  1  0  0  0
M  CHG  1   2  -1
M  END
>  <CHROM.1>
-131.08368033,175.24405382,91.62812389,-80.00756369,-133.09564654,15.49616190
2.35094943,11.89101738,-2.05667993,0.02600902,1.87268886

>  <Name>
1f27 biotin aptamer (Xray 1.3A)

>  <RI>
224

>  <Rbt.Current_Directory>
/home/itssahil/PROJECTS/Mol_Feturizer/New_Systems/rnas/1f27

>  <Rbt.Executable>
rbdock ($Id: //depot/dev/client3/rdock/2013.1/src/exe/rbdock.cxx#4 $)

>  <Rbt.Library>
libRbt.so (2013.1, Build901 2013/11/27)

>  <Rbt.Parameter_File>
/export/apps/rDock/src/rDock_2013.1_src/data/scripts/dock_solv.prm

>  <Rbt.Receptor>
prm/blind_docking_80.prm

>  <SCORE>
-24.687

>  <SCORE.INTER>
-26.4948

>  <SCORE.INTER.CONST>
1

>  <SCORE.INTER.POLAR>
-2.07738

>  <SCORE.INTER.ROT>
5

>  <SCORE.INTER.SOLV>
18.0088

>  <SCORE.INTER.VDW>
-23.6749

>  <SCORE.INTER.norm>
-1.65593

>  <SCORE.INTRA>
1.80781

>  <SCORE.INTRA.DIHEDRAL>
4.69327

>  <SCORE.INTRA.DIHEDRAL.0>
6.87082

>  <SCORE.INTRA.POLAR>
0

>  <SCORE.INTRA.POLAR.0>
0

>  <SCORE.INTRA.REPUL>
0

>  <SCORE.INTRA.REPUL.0>
0

>  <SCORE.INTRA.SOLV>
-0.751338

>  <SCORE.INTRA.SOLV.lig_0>
-42.5944

>  <SCORE.INTRA.VDW>
-0.163151

>  <SCORE.INTRA.VDW.0>
-1.067

>  <SCORE.INTRA.norm>
0.112988

>  <SCORE.RESTR>
0

>  <SCORE.RESTR.CAVITY>
0

>  <SCORE.RESTR.norm>
0

>  <SCORE.SYSTEM>
0

>  <SCORE.SYSTEM.CONST>
0

>  <SCORE.SYSTEM.DIHEDRAL>
0

>  <SCORE.SYSTEM.SOLV>
0

>  <SCORE.SYSTEM.norm>
0

>  <SCORE.heavy>
16

>  <SCORE.norm>
-1.54294

>  <RMSD>
6.495

$$$$
1f27 biotin aptamer (Xray 1.3A)
 OpenBabel11021811393D
libRbt.so/2013.1/901 2013/11/27
 16 17  0  0  0  0  0  0  0  0999 V2000
   13.0772    3.2004   12.3708 C   0  0  0  0  0  0  0  0  0  0  0  0
   11.9504    3.4413   12.7923 O   0  5  0  0  0  0  0  0  0  0  0  0
   13.7862    4.1180   11.9611 O   0  0  0  0  0  0  0  0  0  0  0  0
   13.6234    1.7791   12.4178 C   0  0  0  0  0  0  0  0  0  0  0  0
   13.3852    1.0596   13.7641 C   0  0  0  0  0  0  0  0  0  0  0  0
   14.1289    1.7365   14.9007 C   0  0  0  0  0  0  0  0  0  0  0  0
   15.6195    1.4690   14.8918 C   0  0  0  0  0  0  0  0  0  0  0  0
   16.4181    2.3077   13.8853 C   0  0  2  0  0  0  0  0  0  0  0  0
   16.6293    1.5446   12.1421 S   0  0  0  0  0  0  0  0  0  0  0  0
   17.9835    2.8586   11.8511 C   0  0  0  0  0  0  0  0  0  0  0  0
   18.6840    3.0278   13.2308 C   0  0  2  0  0  0  0  0  0  0  0  0
   19.8507    2.0041   13.2362 N   0  0  0  0  0  0  0  0  0  0  0  0
   19.7679    1.1562   14.1675 C   0  0  0  0  0  0  0  0  0  0  0  0
   20.4451    0.0886   14.3804 O   0  0  0  0  0  0  0  0  0  0  0  0
   18.5320    1.2311   14.9122 N   0  0  0  0  0  0  0  0  0  0  0  0
   17.8526    2.4945   14.3846 C   0  0  2  0  0  0  0  0  0  0  0  0
  1  2  1  0  0  0  0
  1  3  2  0  0  0  0
  1  4  1  0  0  0  0
  4  5  1  0  0  0  0
  5  6  1  0  0  0  0
  6  7  1  0  0  0  0
  8  7  1  1  0  0  0
  8  9  1  0  0  0  0
  8 16  1  0  0  0  0
  9 10  1  0  0  0  0
 11 10  1  6  0  0  0
 11 12  1  0  0  0  0
 11 16  1  0  0  0  0
 12 13  1  0  0  0  0
 13 14  2  0  0  0  0
 13 15  1  0  0  0  0
 16 15  1  6  0  0  0
M  CHG  1   2  -1
M  END
>  <CHROM.1>
-45.56795343,-64.36967589,-74.89960029,78.92741368,-90.07741119,16.36296199
2.05073627,13.35155855,-2.88927584,-0.08140353,2.19681675

>  <Name>
1f27 biotin aptamer (Xray 1.3A)

>  <RI>
0

>  <Rbt.Current_Directory>
/home/itssahil/PROJECTS/Mol_Feturizer/New_Systems/rnas/1f27

>  <Rbt.Executable>
rbdock ($Id: //depot/dev/client3/rdock/2013.1/src/exe/rbdock.cxx#4 $)

>  <Rbt.Library>
libRbt.so (2013.1, Build901 2013/11/27)

>  <Rbt.Parameter_File>
/export/apps/rDock/src/rDock_2013.1_src/data/scripts/dock_solv.prm

>  <Rbt.Receptor>
prm/blind_docking_100.prm

>  <SCORE>
-17.5538

>  <SCORE.INTER>
-18.9169

>  <SCORE.INTER.CONST>
1

>  <SCORE.INTER.POLAR>
-0.716569

>  <SCORE.INTER.ROT>
5

>  <SCORE.INTER.SOLV>
13.738

>  <SCORE.INTER.VDW>
-21.7354

>  <SCORE.INTER.norm>
-1.18231

>  <SCORE.INTRA>
1.3631

>  <SCORE.INTRA.DIHEDRAL>
-0.189103

>  <SCORE.INTRA.DIHEDRAL.0>
6.87082

>  <SCORE.INTRA.POLAR>
0

>  <SCORE.INTRA.POLAR.0>
0

>  <SCORE.INTRA.REPUL>
0

>  <SCORE.INTRA.REPUL.0>
0

>  <SCORE.INTRA.SOLV>
1.59046

>  <SCORE.INTRA.SOLV.lig_0>
-42.5944

>  <SCORE.INTRA.VDW>
0.662416

>  <SCORE.INTRA.VDW.0>
-1.067

>  <SCORE.INTRA.norm>
0.0851935

>  <SCORE.RESTR>
0

>  <SCORE.RESTR.CAVITY>
0

>  <SCORE.RESTR.norm>
0

>  <SCORE.SYSTEM>
0

>  <SCORE.SYSTEM.CONST>
0

>  <SCORE.SYSTEM.DIHEDRAL>
0

>  <SCORE.SYSTEM.SOLV>
0

>  <SCORE.SYSTEM.norm>
0

>  <SCORE.heavy>
16

>  <SCORE.norm>
-1.09711

>  <RMSD>
6.507

$$$$
1f27 biotin aptamer (Xray 1.3A)
 OpenBabel11021811393D
libRbt.so/2013.1/901 2013/11/27
 16 17  0  0  0  0  0  0  0  0999 V2000
   14.3822    3.3162    8.1848 C   0  0  0  0  0  0  0  0  0  0  0  0
   15.3302    2.6313    7.8141 O   0  5  0  0  0  0  0  0  0  0  0  0
   13.9534    4.2115    7.4587 O   0  0  0  0  0  0  0  0  0  0  0  0
   13.6935    3.0153    9.5098 C   0  0  0  0  0  0  0  0  0  0  0  0
   13.2192    4.2736   10.2705 C   0  0  0  0  0  0  0  0  0  0  0  0
   14.3788    5.0067   10.9191 C   0  0  0  0  0  0  0  0  0  0  0  0
   15.1904    4.1414   11.8606 C   0  0  0  0  0  0  0  0  0  0  0  0
   14.3659    3.1632   12.7076 C   0  0  2  0  0  0  0  0  0  0  0  0
   14.6951    3.2066   14.5932 S   0  0  0  0  0  0  0  0  0  0  0  0
   13.7530    1.5486   14.6849 C   0  0  0  0  0  0  0  0  0  0  0  0
   14.1253    0.8004   13.3715 C   0  0  2  0  0  0  0  0  0  0  0  0
   15.3866   -0.0382   13.7107 N   0  0  0  0  0  0  0  0  0  0  0  0
   16.3885    0.2565   13.0018 C   0  0  0  0  0  0  0  0  0  0  0  0
   17.6144   -0.1039   13.1072 O   0  0  0  0  0  0  0  0  0  0  0  0
   16.1812    1.4080   12.1542 N   0  0  0  0  0  0  0  0  0  0  0  0
   14.6934    1.7229   12.3071 C   0  0  2  0  0  0  0  0  0  0  0  0
  1  2  1  0  0  0  0
  1  3  2  0  0  0  0
  1  4  1  0  0  0  0
  4  5  1  0  0  0  0
  5  6  1  0  0  0  0
  6  7  1  0  0  0  0
  8  7  1  6  0  0  0
  8  9  1  0  0  0  0
  8 16  1  0  0  0  0
  9 10  1  0  0  0  0
 11 10  1  1  0  0  0
 11 12  1  0  0  0  0
 11 16  1  0  0  0  0
 12 13  1  0  0  0  0
 13 14  2  0  0  0  0
 13 15  1  0  0  0  0
 16 15  1  1  0  0  0
M  CHG  1   2  -1
M  END
>  <CHROM.1>
143.67517927,-75.04860569,-56.42617321,-38.63854613,-128.48322612,14.85062347
2.46652184,11.78651444,-1.91895249,-0.97931318,1.72891796

>  <Name>
1f27 biotin aptamer (Xray 1.3A)

>  <RI>
0

>  <Rbt.Current_Directory>
/home/itssahil/PROJECTS/Mol_Feturizer/New_Systems/rnas/1f27

>  <Rbt.Executable>
rbdock ($Id: //depot/dev/client3/rdock/2013.1/src/exe/rbdock.cxx#4 $)

>  <Rbt.Library>
libRbt.so (2013.1, Build901 2013/11/27)

>  <Rbt.Parameter_File>
/export/apps/rDock/src/rDock_2013.1_src/data/scripts/dock_solv.prm

>  <Rbt.Receptor>
prm/blind_docking_60.prm

>  <SCORE>
-18.0912

>  <SCORE.INTER>
-21.3211

>  <SCORE.INTER.CONST>
1

>  <SCORE.INTER.POLAR>
-1.6956

>  <SCORE.INTER.ROT>
5

>  <SCORE.INTER.SOLV>
22.2895

>  <SCORE.INTER.VDW>
-22.9252

>  <SCORE.INTER.norm>
-1.33257

>  <SCORE.INTRA>
3.22984

>  <SCORE.INTRA.DIHEDRAL>
2.53643

>  <SCORE.INTRA.DIHEDRAL.0>
6.87082

>  <SCORE.INTRA.POLAR>
0

>  <SCORE.INTRA.POLAR.0>
0

>  <SCORE.INTRA.REPUL>
0

>  <SCORE.INTRA.REPUL.0>
0

>  <SCORE.INTRA.SOLV>
0.518939

>  <SCORE.INTRA.SOLV.lig_0>
-42.5944

>  <SCORE.INTRA.VDW>
1.70216

>  <SCORE.INTRA.VDW.0>
-1.067

>  <SCORE.INTRA.norm>
0.201865

>  <SCORE.RESTR>
0

>  <SCORE.RESTR.CAVITY>
0

>  <SCORE.RESTR.norm>
0

>  <SCORE.SYSTEM>
0

>  <SCORE.SYSTEM.CONST>
0

>  <SCORE.SYSTEM.DIHEDRAL>
0

>  <SCORE.SYSTEM.SOLV>
0

>  <SCORE.SYSTEM.norm>
0

>  <SCORE.heavy>
16

>  <SCORE.norm>
-1.1307

>  <RMSD>
6.537

$$$$
1f27 biotin aptamer (Xray 1.3A)
 OpenBabel11021811393D
libRbt.so/2013.1/901 2013/11/27
 16 17  0  0  0  0  0  0  0  0999 V2000
   14.1151    2.8403   10.6914 C   0  0  0  0  0  0  0  0  0  0  0  0
   14.6135    3.0861    9.5976 O   0  5  0  0  0  0  0  0  0  0  0  0
   12.9101    2.6095   10.7767 O   0  0  0  0  0  0  0  0  0  0  0  0
   14.9963    2.7535   11.9310 C   0  0  0  0  0  0  0  0  0  0  0  0
   14.4310    1.8381   13.0398 C   0  0  0  0  0  0  0  0  0  0  0  0
   15.0498    2.1465   14.3907 C   0  0  0  0  0  0  0  0  0  0  0  0
   16.3746    1.4501   14.6220 C   0  0  0  0  0  0  0  0  0  0  0  0
   17.5262    1.9477   13.7385 C   0  0  2  0  0  0  0  0  0  0  0  0
   17.9358    0.8676   12.2117 S   0  0  0  0  0  0  0  0  0  0  0  0
   19.5664    1.8530   12.0891 C   0  0  0  0  0  0  0  0  0  0  0  0
   19.9789    2.1347   13.5635 C   0  0  2  0  0  0  0  0  0  0  0  0
   20.8758    0.9393   13.9828 N   0  0  0  0  0  0  0  0  0  0  0  0
   20.4213    0.2945   14.9680 C   0  0  0  0  0  0  0  0  0  0  0  0
   20.7979   -0.8215   15.4744 O   0  0  0  0  0  0  0  0  0  0  0  0
   19.1000    0.7132   15.3760 N   0  0  0  0  0  0  0  0  0  0  0  0
   18.8290    1.9645   14.5412 C   0  0  2  0  0  0  0  0  0  0  0  0
  1  2  1  0  0  0  0
  1  3  2  0  0  0  0
  1  4  1  0  0  0  0
  4  5  1  0  0  0  0
  5  6  1  0  0  0  0
  6  7  1  0  0  0  0
  8  7  1  1  0  0  0
  8  9  1  0  0  0  0
  8 16  1  0  0  0  0
  9 10  1  0  0  0  0
 11 10  1  6  0  0  0
 11 12  1  0  0  0  0
 11 16  1  0  0  0  0
 12 13  1  0  0  0  0
 13 14  2  0  0  0  0
 13 15  1  0  0  0  0
 16 15  1  6  0  0  0
M  CHG  1   2  -1
M  END
>  <CHROM.1>
-152.85399804,-160.12525008,-84.24556019,68.27265264,-99.98245727,17.36514842
1.59104937,13.09414895,-2.58594066,-0.18390396,1.82664856

>  <Name>
1f27 biotin aptamer (Xray 1.3A)

>  <RI>
0

>  <Rbt.Current_Directory>
/home/itssahil/PROJECTS/Mol_Feturizer/New_Systems/rnas/1f27

>  <Rbt.Executable>
rbdock ($Id: //depot/dev/client3/rdock/2013.1/src/exe/rbdock.cxx#4 $)

>  <Rbt.Library>
libRbt.so (2013.1, Build901 2013/11/27)

>  <Rbt.Parameter_File>
/export/apps/rDock/src/rDock_2013.1_src/data/scripts/dock_solv.prm

>  <Rbt.Receptor>
prm/pocket_docking_3.prm

>  <SCORE>
-22.8908

>  <SCORE.INTER>
-24.2965

>  <SCORE.INTER.CONST>
1

>  <SCORE.INTER.POLAR>
-2.37023

>  <SCORE.INTER.ROT>
5

>  <SCORE.INTER.SOLV>
15.0726

>  <SCORE.INTER.VDW>
-20.2544

>  <SCORE.INTER.norm>
-1.51853

>  <SCORE.INTRA>
1.40566

>  <SCORE.INTRA.DIHEDRAL>
2.7217

>  <SCORE.INTRA.DIHEDRAL.0>
6.87082

>  <SCORE.INTRA.POLAR>
0

>  <SCORE.INTRA.POLAR.0>
0

>  <SCORE.INTRA.REPUL>
0

>  <SCORE.INTRA.REPUL.0>
0

>  <SCORE.INTRA.SOLV>
-0.633486

>  <SCORE.INTRA.SOLV.lig_0>
-42.5944

>  <SCORE.INTRA.VDW>
0.361551

>  <SCORE.INTRA.VDW.0>
-1.067

>  <SCORE.INTRA.norm>
0.0878536

>  <SCORE.RESTR>
0

>  <SCORE.RESTR.CAVITY>
0

>  <SCORE.RESTR.norm>
0

>  <SCORE.SYSTEM>
0

>  <SCORE.SYSTEM.CONST>
0

>  <SCORE.SYSTEM.DIHEDRAL>
0

>  <SCORE.SYSTEM.SOLV>
0

>  <SCORE.SYSTEM.norm>
0

>  <SCORE.heavy>
16

>  <SCORE.norm>
-1.43068

>  <RMSD>
6.545

$$$$
1f27 biotin aptamer (Xray 1.3A)
 OpenBabel11021811393D
libRbt.so/2013.1/901 2013/11/27
 16 17  0  0  0  0  0  0  0  0999 V2000
   13.9420    2.9133   10.7206 C   0  0  0  0  0  0  0  0  0  0  0  0
   14.5955    2.9917    9.6851 O   0  5  0  0  0  0  0  0  0  0  0  0
   12.7828    3.3234   10.7448 O   0  0  0  0  0  0  0  0  0  0  0  0
   14.5400    2.2481   11.9536 C   0  0  0  0  0  0  0  0  0  0  0  0
   15.6416    3.0824   12.6447 C   0  0  0  0  0  0  0  0  0  0  0  0
   16.8124    3.3441   11.7153 C   0  0  0  0  0  0  0  0  0  0  0  0
   18.1262    2.7919   12.2279 C   0  0  0  0  0  0  0  0  0  0  0  0
   18.2005    1.2606   12.2896 C   0  0  2  0  0  0  0  0  0  0  0  0
   17.3256    0.4404   13.7821 S   0  0  0  0  0  0  0  0  0  0  0  0
   18.2822   -1.1486   13.3293 C   0  0  0  0  0  0  0  0  0  0  0  0
   19.6647   -0.6534   12.8130 C   0  0  2  0  0  0  0  0  0  0  0  0
   20.5843   -0.6026   14.0624 N   0  0  0  0  0  0  0  0  0  0  0  0
   21.0437    0.5490   14.2987 C   0  0  0  0  0  0  0  0  0  0  0  0
   21.6889    0.9928   15.3139 O   0  0  0  0  0  0  0  0  0  0  0  0
   20.4854    1.5809   13.4553 N   0  0  0  0  0  0  0  0  0  0  0  0
   19.6583    0.8147   12.4234 C   0  0  2  0  0  0  0  0  0  0  0  0
  1  2  1  0  0  0  0
  1  3  2  0  0  0  0
  1  4  1  0  0  0  0
  4  5  1  0  0  0  0
  5  6  1  0  0  0  0
  6  7  1  0  0  0  0
  8  7  1  1  0  0  0
  8  9  1  0  0  0  0
  8 16  1  0  0  0  0
  9 10  1  0  0  0  0
 11 10  1  1  0  0  0
 11 12  1  0  0  0  0
 11 16  1  0  0  0  0
 12 13  1  0  0  0  0
 13 14  2  0  0  0  0
 13 15  1  0  0  0  0
 16 15  1  1  0  0  0
M  CHG  1   2  -1
M  END
>  <CHROM.1>
72.27706937,-60.50341852,-119.96543813,66.87466401,-78.72308059,17.65930448
1.44138715,12.67787134,2.63680473,-0.31219612,-0.33928503

>  <Name>
1f27 biotin aptamer (Xray 1.3A)

>  <RI>
0

>  <Rbt.Current_Directory>
/home/itssahil/PROJECTS/Mol_Feturizer/New_Systems/rnas/1f27

>  <Rbt.Executable>
rbdock ($Id: //depot/dev/client3/rdock/2013.1/src/exe/rbdock.cxx#4 $)

>  <Rbt.Library>
libRbt.so (2013.1, Build901 2013/11/27)

>  <Rbt.Parameter_File>
/export/apps/rDock/src/rDock_2013.1_src/data/scripts/dock_solv.prm

>  <Rbt.Receptor>
prm/blind_docking_40.prm

>  <SCORE>
-26.9374

>  <SCORE.INTER>
-28.2104

>  <SCORE.INTER.CONST>
1

>  <SCORE.INTER.POLAR>
-2.72347

>  <SCORE.INTER.ROT>
5

>  <SCORE.INTER.SOLV>
12.7144

>  <SCORE.INTER.VDW>
-20.9002

>  <SCORE.INTER.norm>
-1.76315

>  <SCORE.INTRA>
1.27045

>  <SCORE.INTRA.DIHEDRAL>
2.14458

>  <SCORE.INTRA.DIHEDRAL.0>
6.87082

>  <SCORE.INTRA.POLAR>
0

>  <SCORE.INTRA.POLAR.0>
0

>  <SCORE.INTRA.REPUL>
0

>  <SCORE.INTRA.REPUL.0>
0

>  <SCORE.INTRA.SOLV>
0.403386

>  <SCORE.INTRA.SOLV.lig_0>
-42.5944

>  <SCORE.INTRA.VDW>
-0.00353227

>  <SCORE.INTRA.VDW.0>
-1.067

>  <SCORE.INTRA.norm>
0.0794033

>  <SCORE.RESTR>
0.00258236

>  <SCORE.RESTR.CAVITY>
0.00258236

>  <SCORE.RESTR.norm>
0.000161397

>  <SCORE.SYSTEM>
0

>  <SCORE.SYSTEM.CONST>
0

>  <SCORE.SYSTEM.DIHEDRAL>
0

>  <SCORE.SYSTEM.SOLV>
0

>  <SCORE.SYSTEM.norm>
0

>  <SCORE.heavy>
16

>  <SCORE.norm>
-1.68359

>  <RMSD>
6.565

$$$$
1f27 biotin aptamer (Xray 1.3A)
 OpenBabel11021811393D
libRbt.so/2013.1/901 2013/11/27
 16 17  0  0  0  0  0  0  0  0999 V2000
   14.1927    2.9932    8.0027 C   0  0  0  0  0  0  0  0  0  0  0  0
   13.7050    2.6337    6.9358 O   0  5  0  0  0  0  0  0  0  0  0  0
   15.0385    3.8859    8.0187 O   0  0  0  0  0  0  0  0  0  0  0  0
   13.7035    2.3846    9.3106 C   0  0  0  0  0  0  0  0  0  0  0  0
   14.0941    3.1968   10.5655 C   0  0  0  0  0  0  0  0  0  0  0  0
   13.8940    2.3938   11.8375 C   0  0  0  0  0  0  0  0  0  0  0  0
   14.2632    3.1521   13.0955 C   0  0  0  0  0  0  0  0  0  0  0  0
   15.7683    3.2258   13.3843 C   0  0  2  0  0  0  0  0  0  0  0  0
   16.9194    3.1041   11.8592 S   0  0  0  0  0  0  0  0  0  0  0  0
   18.3425    2.7996   13.0949 C   0  0  0  0  0  0  0  0  0  0  0  0
   17.7058    1.9667   14.2456 C   0  0  2  0  0  0  0  0  0  0  0  0
   17.9007    0.4802   13.8436 N   0  0  0  0  0  0  0  0  0  0  0  0
   16.8150   -0.1526   13.7263 C   0  0  0  0  0  0  0  0  0  0  0  0
   16.5837   -1.3246   13.2606 O   0  0  0  0  0  0  0  0  0  0  0  0
   15.6414    0.6834   13.8338 N   0  0  0  0  0  0  0  0  0  0  0  0
   16.1890    2.0447   14.2616 C   0  0  2  0  0  0  0  0  0  0  0  0
  1  2  1  0  0  0  0
  1  3  2  0  0  0  0
  1  4  1  0  0  0  0
  4  5  1  0  0  0  0
  5  6  1  0  0  0  0
  6  7  1  0  0  0  0
  8  7  1  6  0  0  0
  8  9  1  0  0  0  0
  8 16  1  0  0  0  0
  9 10  1  0  0  0  0
 11 10  1  6  0  0  0
 11 12  1  0  0  0  0
 11 16  1  0  0  0  0
 12 13  1  0  0  0  0
 13 14  2  0  0  0  0
 13 15  1  0  0  0  0
 16 15  1  6  0  0  0
M  CHG  1   2  -1
M  END
>  <CHROM.1>
-163.28258487,-165.86261371,-179.92587027,-78.60268554,26.60428336,15.75184637
2.14975739,11.77733961,2.41122766,-0.92752999,-0.48195594

>  <Name>
1f27 biotin aptamer (Xray 1.3A)

>  <RI>
0

>  <Rbt.Current_Directory>
/home/itssahil/PROJECTS/Mol_Feturizer/New_Systems/rnas/1f27

>  <Rbt.Executable>
rbdock ($Id: //depot/dev/client3/rdock/2013.1/src/exe/rbdock.cxx#4 $)

>  <Rbt.Library>
libRbt.so (2013.1, Build901 2013/11/27)

>  <Rbt.Parameter_File>
/export/apps/rDock/src/rDock_2013.1_src/data/scripts/dock_solv.prm

>  <Rbt.Receptor>
prm/blind_docking_100.prm

>  <SCORE>
-20.6045

>  <SCORE.INTER>
-21.7465

>  <SCORE.INTER.CONST>
1

>  <SCORE.INTER.POLAR>
-1.00565

>  <SCORE.INTER.ROT>
5

>  <SCORE.INTER.SOLV>
18.3318

>  <SCORE.INTER.VDW>
-24.1894

>  <SCORE.INTER.norm>
-1.35916

>  <SCORE.INTRA>
1.14199

>  <SCORE.INTRA.DIHEDRAL>
0.0304398

>  <SCORE.INTRA.DIHEDRAL.0>
6.87082

>  <SCORE.INTRA.POLAR>
0

>  <SCORE.INTRA.POLAR.0>
0

>  <SCORE.INTRA.REPUL>
0

>  <SCORE.INTRA.REPUL.0>
0

>  <SCORE.INTRA.SOLV>
-0.110146

>  <SCORE.INTRA.SOLV.lig_0>
-42.5944

>  <SCORE.INTRA.VDW>
1.18184

>  <SCORE.INTRA.VDW.0>
-1.067

>  <SCORE.INTRA.norm>
0.0713744

>  <SCORE.RESTR>
0

>  <SCORE.RESTR.CAVITY>
0

>  <SCORE.RESTR.norm>
0

>  <SCORE.SYSTEM>
0

>  <SCORE.SYSTEM.CONST>
0

>  <SCORE.SYSTEM.DIHEDRAL>
0

>  <SCORE.SYSTEM.SOLV>
0

>  <SCORE.SYSTEM.norm>
0

>  <SCORE.heavy>
16

>  <SCORE.norm>
-1.28778

>  <RMSD>
6.584

$$$$
1f27 biotin aptamer (Xray 1.3A)
 OpenBabel11021811393D
libRbt.so/2013.1/901 2013/11/27
 16 17  0  0  0  0  0  0  0  0999 V2000
   14.0656    3.2658   10.8065 C   0  0  0  0  0  0  0  0  0  0  0  0
   13.2738    4.1956   10.6894 O   0  5  0  0  0  0  0  0  0  0  0  0
   15.0293    3.1836   10.0468 O   0  0  0  0  0  0  0  0  0  0  0  0
   13.8953    2.2537   11.9322 C   0  0  0  0  0  0  0  0  0  0  0  0
   14.6294    2.6366   13.2366 C   0  0  0  0  0  0  0  0  0  0  0  0
   15.0472    1.4095   14.0255 C   0  0  0  0  0  0  0  0  0  0  0  0
   16.4255    1.5275   14.6420 C   0  0  0  0  0  0  0  0  0  0  0  0
   17.5509    1.8409   13.6472 C   0  0  2  0  0  0  0  0  0  0  0  0
   17.8686    0.5180   12.3000 S   0  0  0  0  0  0  0  0  0  0  0  0
   19.5167    1.4194   11.9590 C   0  0  0  0  0  0  0  0  0  0  0  0
   19.9979    1.9202   13.3521 C   0  0  2  0  0  0  0  0  0  0  0  0
   20.8816    0.7798   13.9245 N   0  0  0  0  0  0  0  0  0  0  0  0
   20.4531    0.3155   15.0172 C   0  0  0  0  0  0  0  0  0  0  0  0
   20.8227   -0.7164   15.6822 O   0  0  0  0  0  0  0  0  0  0  0  0
   19.1611    0.8355   15.4018 N   0  0  0  0  0  0  0  0  0  0  0  0
   18.8864    1.9449   14.3871 C   0  0  2  0  0  0  0  0  0  0  0  0
  1  2  1  0  0  0  0
  1  3  2  0  0  0  0
  1  4  1  0  0  0  0
  4  5  1  0  0  0  0
  5  6  1  0  0  0  0
  6  7  1  0  0  0  0
  8  7  1  1  0  0  0
  8  9  1  0  0  0  0
  8 16  1  0  0  0  0
  9 10  1  0  0  0  0
 11 10  1  6  0  0  0
 11 12  1  0  0  0  0
 11 16  1  0  0  0  0
 12 13  1  0  0  0  0
 13 14  2  0  0  0  0
 13 15  1  0  0  0  0
 16 15  1  1  0  0  0
M  CHG  1   2  -1
M  END
>  <CHROM.1>
-89.67482999,-150.71160165,139.50223769,-55.81123600,-62.86120507,17.36568563
1.61845559,13.10932806,-2.58315671,-0.24904879,1.87317309

>  <Name>
1f27 biotin aptamer (Xray 1.3A)

>  <RI>
0

>  <Rbt.Current_Directory>
/home/itssahil/PROJECTS/Mol_Feturizer/New_Systems/rnas/1f27

>  <Rbt.Executable>
rbdock ($Id: //depot/dev/client3/rdock/2013.1/src/exe/rbdock.cxx#4 $)

>  <Rbt.Library>
libRbt.so (2013.1, Build901 2013/11/27)

>  <Rbt.Parameter_File>
/export/apps/rDock/src/rDock_2013.1_src/data/scripts/dock_solv.prm

>  <Rbt.Receptor>
prm/pocket_docking_8.prm

>  <SCORE>
-26.2489

>  <SCORE.INTER>
-26.7482

>  <SCORE.INTER.CONST>
1

>  <SCORE.INTER.POLAR>
-3.15609

>  <SCORE.INTER.ROT>
5

>  <SCORE.INTER.SOLV>
15.188

>  <SCORE.INTER.VDW>
-19.3078

>  <SCORE.INTER.norm>
-1.67176

>  <SCORE.INTRA>
0.499309

>  <SCORE.INTRA.DIHEDRAL>
1.7358

>  <SCORE.INTRA.DIHEDRAL.0>
6.87082

>  <SCORE.INTRA.POLAR>
0

>  <SCORE.INTRA.POLAR.0>
0

>  <SCORE.INTRA.REPUL>
0

>  <SCORE.INTRA.REPUL.0>
0

>  <SCORE.INTRA.SOLV>
-0.577649

>  <SCORE.INTRA.SOLV.lig_0>
-42.5944

>  <SCORE.INTRA.VDW>
-0.0797668

>  <SCORE.INTRA.VDW.0>
-1.067

>  <SCORE.INTRA.norm>
0.0312068

>  <SCORE.RESTR>
0

>  <SCORE.RESTR.CAVITY>
0

>  <SCORE.RESTR.norm>
0

>  <SCORE.SYSTEM>
0

>  <SCORE.SYSTEM.CONST>
0

>  <SCORE.SYSTEM.DIHEDRAL>
0

>  <SCORE.SYSTEM.SOLV>
0

>  <SCORE.SYSTEM.norm>
0

>  <SCORE.heavy>
16

>  <SCORE.norm>
-1.64055

>  <RMSD>
6.641

$$$$
1f27 biotin aptamer (Xray 1.3A)
 OpenBabel11021811393D
libRbt.so/2013.1/901 2013/11/27
 16 17  0  0  0  0  0  0  0  0999 V2000
   14.8538    2.7291    6.6276 C   0  0  0  0  0  0  0  0  0  0  0  0
   15.5048    1.7515    6.9821 O   0  5  0  0  0  0  0  0  0  0  0  0
   14.5782    2.8823    5.4389 O   0  0  0  0  0  0  0  0  0  0  0  0
   14.3291    3.7148    7.6638 C   0  0  0  0  0  0  0  0  0  0  0  0
   14.1129    3.0979    9.0637 C   0  0  0  0  0  0  0  0  0  0  0  0
   13.5938    4.1238   10.0541 C   0  0  0  0  0  0  0  0  0  0  0  0
   14.2112    4.0006   11.4315 C   0  0  0  0  0  0  0  0  0  0  0  0
   14.0876    2.6110   12.0703 C   0  0  2  0  0  0  0  0  0  0  0  0
   13.3683    2.5670   13.8441 S   0  0  0  0  0  0  0  0  0  0  0  0
   14.0141    0.7731   13.9435 C   0  0  0  0  0  0  0  0  0  0  0  0
   15.3465    0.7792   13.1386 C   0  0  2  0  0  0  0  0  0  0  0  0
   16.4579    1.1065   14.1715 N   0  0  0  0  0  0  0  0  0  0  0  0
   17.1010    2.1576   13.8980 C   0  0  0  0  0  0  0  0  0  0  0  0
   17.9586    2.8100   14.5927 O   0  0  0  0  0  0  0  0  0  0  0  0
   16.5555    2.8983   12.7839 N   0  0  0  0  0  0  0  0  0  0  0  0
   15.4739    1.9795   12.2165 C   0  0  2  0  0  0  0  0  0  0  0  0
  1  2  1  0  0  0  0
  1  3  2  0  0  0  0
  1  4  1  0  0  0  0
  4  5  1  0  0  0  0
  5  6  1  0  0  0  0
  6  7  1  0  0  0  0
  8  7  1  1  0  0  0
  8  9  1  0  0  0  0
  8 16  1  0  0  0  0
  9 10  1  0  0  0  0
 11 10  1  1  0  0  0
 11 12  1  0  0  0  0
 11 16  1  0  0  0  0
 12 13  1  0  0  0  0
 13 14  2  0  0  0  0
 13 15  1  0  0  0  0
 16 15  1  1  0  0  0
M  CHG  1   2  -1
M  END
>  <CHROM.1>
-26.14844882,179.86400481,-139.93715498,-54.74568324,-128.47945411,14.99145426
2.51048080,11.28934798,-1.71893064,-0.22145971,1.67035062

>  <Name>
1f27 biotin aptamer (Xray 1.3A)

>  <RI>
224

>  <Rbt.Current_Directory>
/home/itssahil/PROJECTS/Mol_Feturizer/New_Systems/rnas/1f27

>  <Rbt.Executable>
rbdock ($Id: //depot/dev/client3/rdock/2013.1/src/exe/rbdock.cxx#4 $)

>  <Rbt.Library>
libRbt.so (2013.1, Build901 2013/11/27)

>  <Rbt.Parameter_File>
/export/apps/rDock/src/rDock_2013.1_src/data/scripts/dock_solv.prm

>  <Rbt.Receptor>
prm/blind_docking_80.prm

>  <SCORE>
-25.9725

>  <SCORE.INTER>
-29.2188

>  <SCORE.INTER.CONST>
1

>  <SCORE.INTER.POLAR>
-2.76029

>  <SCORE.INTER.ROT>
5

>  <SCORE.INTER.SOLV>
22.6048

>  <SCORE.INTER.VDW>
-24.7465

>  <SCORE.INTER.norm>
-1.82618

>  <SCORE.INTRA>
2.74265

>  <SCORE.INTRA.DIHEDRAL>
4.88547

>  <SCORE.INTRA.DIHEDRAL.0>
6.87082

>  <SCORE.INTRA.POLAR>
0

>  <SCORE.INTRA.POLAR.0>
0

>  <SCORE.INTRA.REPUL>
0

>  <SCORE.INTRA.REPUL.0>
0

>  <SCORE.INTRA.SOLV>
-0.760818

>  <SCORE.INTRA.SOLV.lig_0>
-42.5944

>  <SCORE.INTRA.VDW>
0.680326

>  <SCORE.INTRA.VDW.0>
-1.067

>  <SCORE.INTRA.norm>
0.171416

>  <SCORE.RESTR>
0.503656

>  <SCORE.RESTR.CAVITY>
0.503656

>  <SCORE.RESTR.norm>
0.0314785

>  <SCORE.SYSTEM>
0

>  <SCORE.SYSTEM.CONST>
0

>  <SCORE.SYSTEM.DIHEDRAL>
0

>  <SCORE.SYSTEM.SOLV>
0

>  <SCORE.SYSTEM.norm>
0

>  <SCORE.heavy>
16

>  <SCORE.norm>
-1.62328

>  <RMSD>
6.651

$$$$
1f27 biotin aptamer (Xray 1.3A)
 OpenBabel11021811393D
libRbt.so/2013.1/901 2013/11/27
 16 17  0  0  0  0  0  0  0  0999 V2000
   12.7281    3.2440   11.3477 C   0  0  0  0  0  0  0  0  0  0  0  0
   11.6370    3.7920   11.2267 O   0  5  0  0  0  0  0  0  0  0  0  0
   13.2698    2.7365   10.3672 O   0  0  0  0  0  0  0  0  0  0  0  0
   13.4423    3.2514   12.6933 C   0  0  0  0  0  0  0  0  0  0  0  0
   13.2212    1.9702   13.5280 C   0  0  0  0  0  0  0  0  0  0  0  0
   13.8993    2.0600   14.8827 C   0  0  0  0  0  0  0  0  0  0  0  0
   15.3669    1.6878   14.8499 C   0  0  0  0  0  0  0  0  0  0  0  0
   16.2123    2.4897   13.8516 C   0  0  2  0  0  0  0  0  0  0  0  0
   16.2656    1.8075   12.0635 S   0  0  0  0  0  0  0  0  0  0  0  0
   17.7449    2.9800   11.7774 C   0  0  0  0  0  0  0  0  0  0  0  0
   18.5158    2.9936   13.1297 C   0  0  2  0  0  0  0  0  0  0  0  0
   19.5602    1.8500   13.0276 N   0  0  0  0  0  0  0  0  0  0  0  0
   19.4213    0.9650   13.9168 C   0  0  0  0  0  0  0  0  0  0  0  0
   19.9833   -0.1804   14.0425 O   0  0  0  0  0  0  0  0  0  0  0  0
   18.2330    1.1324   14.7216 N   0  0  0  0  0  0  0  0  0  0  0  0
   17.6778    2.4902   14.2922 C   0  0  2  0  0  0  0  0  0  0  0  0
  1  2  1  0  0  0  0
  1  3  2  0  0  0  0
  1  4  1  0  0  0  0
  4  5  1  0  0  0  0
  5  6  1  0  0  0  0
  6  7  1  0  0  0  0
  8  7  1  1  0  0  0
  8  9  1  0  0  0  0
  8 16  1  0  0  0  0
  9 10  1  0  0  0  0
 11 10  1  6  0  0  0
 11 12  1  0  0  0  0
 11 16  1  0  0  0  0
 12 13  1  0  0  0  0
 13 14  2  0  0  0  0
 13 15  1  0  0  0  0
 16 15  1  6  0  0  0
M  CHG  1   2  -1
M  END
>  <CHROM.1>
96.72720439,-177.26777666,-83.67084481,55.52219961,-86.59468212,16.06823016
2.16014626,13.00585597,-2.78557501,-0.16789171,1.89392088

>  <Name>
1f27 biotin aptamer (Xray 1.3A)

>  <RI>
0

>  <Rbt.Current_Directory>
/home/itssahil/PROJECTS/Mol_Feturizer/New_Systems/rnas/1f27

>  <Rbt.Executable>
rbdock ($Id: //depot/dev/client3/rdock/2013.1/src/exe/rbdock.cxx#4 $)

>  <Rbt.Library>
libRbt.so (2013.1, Build901 2013/11/27)

>  <Rbt.Parameter_File>
/export/apps/rDock/src/rDock_2013.1_src/data/scripts/dock_solv.prm

>  <Rbt.Receptor>
prm/blind_docking_100.prm

>  <SCORE>
-19.9946

>  <SCORE.INTER>
-19.8863

>  <SCORE.INTER.CONST>
1

>  <SCORE.INTER.POLAR>
-0.710788

>  <SCORE.INTER.ROT>
5

>  <SCORE.INTER.SOLV>
13.7836

>  <SCORE.INTER.VDW>
-22.4161

>  <SCORE.INTER.norm>
-1.24289

>  <SCORE.INTRA>
-0.108242

>  <SCORE.INTRA.DIHEDRAL>
-0.846252

>  <SCORE.INTRA.DIHEDRAL.0>
6.87082

>  <SCORE.INTRA.POLAR>
0

>  <SCORE.INTRA.POLAR.0>
0

>  <SCORE.INTRA.REPUL>
0

>  <SCORE.INTRA.REPUL.0>
0

>  <SCORE.INTRA.SOLV>
0.00674795

>  <SCORE.INTRA.SOLV.lig_0>
-42.5944

>  <SCORE.INTRA.VDW>
0.31151

>  <SCORE.INTRA.VDW.0>
-1.067

>  <SCORE.INTRA.norm>
-0.00676515

>  <SCORE.RESTR>
0

>  <SCORE.RESTR.CAVITY>
0

>  <SCORE.RESTR.norm>
0

>  <SCORE.SYSTEM>
0

>  <SCORE.SYSTEM.CONST>
0

>  <SCORE.SYSTEM.DIHEDRAL>
0

>  <SCORE.SYSTEM.SOLV>
0

>  <SCORE.SYSTEM.norm>
0

>  <SCORE.heavy>
16

>  <SCORE.norm>
-1.24966

>  <RMSD>
6.657

$$$$
1f27 biotin aptamer (Xray 1.3A)
 OpenBabel11021811393D
libRbt.so/2013.1/901 2013/11/27
 16 17  0  0  0  0  0  0  0  0999 V2000
   14.1604    2.6675   13.4706 C   0  0  0  0  0  0  0  0  0  0  0  0
   14.3245    3.1454   14.5887 O   0  5  0  0  0  0  0  0  0  0  0  0
   14.3090    3.3745   12.4753 O   0  0  0  0  0  0  0  0  0  0  0  0
   13.8406    1.1866   13.3116 C   0  0  0  0  0  0  0  0  0  0  0  0
   14.9357    0.2457   13.8616 C   0  0  0  0  0  0  0  0  0  0  0  0
   16.2701    0.4786   13.1775 C   0  0  0  0  0  0  0  0  0  0  0  0
   17.3412   -0.5097   13.5895 C   0  0  0  0  0  0  0  0  0  0  0  0
   18.6664   -0.3776   12.8274 C   0  0  2  0  0  0  0  0  0  0  0  0
   19.7867   -1.9302   12.8226 S   0  0  0  0  0  0  0  0  0  0  0  0
   21.1819   -0.7867   12.1974 C   0  0  0  0  0  0  0  0  0  0  0  0
   20.9399    0.5735   12.9146 C   0  0  2  0  0  0  0  0  0  0  0  0
   21.7562    0.5025   14.2329 N   0  0  0  0  0  0  0  0  0  0  0  0
   21.0454    0.6265   15.2685 C   0  0  0  0  0  0  0  0  0  0  0  0
   21.3433    0.4598   16.5043 O   0  0  0  0  0  0  0  0  0  0  0  0
   19.6259    0.6443   14.9994 N   0  0  0  0  0  0  0  0  0  0  0  0
   19.5342    0.7039   13.4749 C   0  0  2  0  0  0  0  0  0  0  0  0
  1  2  1  0  0  0  0
  1  3  2  0  0  0  0
  1  4  1  0  0  0  0
  4  5  1  0  0  0  0
  5  6  1  0  0  0  0
  6  7  1  0  0  0  0
  8  7  1  1  0  0  0
  8  9  1  0  0  0  0
  8 16  1  0  0  0  0
  9 10  1  0  0  0  0
 11 10  1  1  0  0  0
 11 12  1  0  0  0  0
 11 16  1  0  0  0  0
 12 13  1  0  0  0  0
 13 14  2  0  0  0  0
 13 15  1  0  0  0  0
 16 15  1  1  0  0  0
M  CHG  1   2  -1
M  END
>  <CHROM.1>
-60.78193275,-59.05453037,-174.47885473,174.98064035,-158.37043969,18.16954673
0.52094822,13.69197466,-2.92342578,0.29706541,-2.41068527

>  <Name>
1f27 biotin aptamer (Xray 1.3A)

>  <RI>
0

>  <Rbt.Current_Directory>
/home/itssahil/PROJECTS/Mol_Feturizer/New_Systems/rnas/1f27

>  <Rbt.Executable>
rbdock ($Id: //depot/dev/client3/rdock/2013.1/src/exe/rbdock.cxx#4 $)

>  <Rbt.Library>
libRbt.so (2013.1, Build901 2013/11/27)

>  <Rbt.Parameter_File>
/export/apps/rDock/src/rDock_2013.1_src/data/scripts/dock_solv.prm

>  <Rbt.Receptor>
prm/pocket_docking_6.prm

>  <SCORE>
-23.3738

>  <SCORE.INTER>
-21.8551

>  <SCORE.INTER.CONST>
1

>  <SCORE.INTER.POLAR>
-1.40119

>  <SCORE.INTER.ROT>
5

>  <SCORE.INTER.SOLV>
14.9824

>  <SCORE.INTER.VDW>
-21.8269

>  <SCORE.INTER.norm>
-1.36595

>  <SCORE.INTRA>
-1.51865

>  <SCORE.INTRA.DIHEDRAL>
-3.57948

>  <SCORE.INTRA.DIHEDRAL.0>
6.87082

>  <SCORE.INTRA.POLAR>
0

>  <SCORE.INTRA.POLAR.0>
0

>  <SCORE.INTRA.REPUL>
0

>  <SCORE.INTRA.REPUL.0>
0

>  <SCORE.INTRA.SOLV>
0.219042

>  <SCORE.INTRA.SOLV.lig_0>
-42.5944

>  <SCORE.INTRA.VDW>
0.161566

>  <SCORE.INTRA.VDW.0>
-1.067

>  <SCORE.INTRA.norm>
-0.0949158

>  <SCORE.RESTR>
0

>  <SCORE.RESTR.CAVITY>
0

>  <SCORE.RESTR.norm>
0

>  <SCORE.SYSTEM>
0

>  <SCORE.SYSTEM.CONST>
0

>  <SCORE.SYSTEM.DIHEDRAL>
0

>  <SCORE.SYSTEM.SOLV>
0

>  <SCORE.SYSTEM.norm>
0

>  <SCORE.heavy>
16

>  <SCORE.norm>
-1.46086

>  <RMSD>
6.669

$$$$
1f27 biotin aptamer (Xray 1.3A)
 OpenBabel11021811393D
libRbt.so/2013.1/901 2013/11/27
 16 17  0  0  0  0  0  0  0  0999 V2000
   12.5931    2.9280   13.3430 C   0  0  0  0  0  0  0  0  0  0  0  0
   11.5758    3.5581   13.0720 O   0  5  0  0  0  0  0  0  0  0  0  0
   13.6472    3.1906   12.7665 O   0  0  0  0  0  0  0  0  0  0  0  0
   12.5678    1.8699   14.4386 C   0  0  0  0  0  0  0  0  0  0  0  0
   13.9640    1.3321   14.8238 C   0  0  0  0  0  0  0  0  0  0  0  0
   14.5275    0.4172   13.7522 C   0  0  0  0  0  0  0  0  0  0  0  0
   16.0308    0.2506   13.8288 C   0  0  0  0  0  0  0  0  0  0  0  0
   16.8344    1.5322   13.5716 C   0  0  2  0  0  0  0  0  0  0  0  0
   17.7222    1.6370   11.8785 S   0  0  0  0  0  0  0  0  0  0  0  0
   18.7120    3.0958   12.6115 C   0  0  0  0  0  0  0  0  0  0  0  0
   18.9235    2.7272   14.1090 C   0  0  2  0  0  0  0  0  0  0  0  0
   20.2656    1.9494   14.1631 N   0  0  0  0  0  0  0  0  0  0  0  0
   20.1462    0.7769   14.6149 C   0  0  0  0  0  0  0  0  0  0  0  0
   20.9891   -0.1885   14.6506 O   0  0  0  0  0  0  0  0  0  0  0  0
   18.7750    0.3730   14.8257 N   0  0  0  0  0  0  0  0  0  0  0  0
   17.9682    1.6500   14.5927 C   0  0  2  0  0  0  0  0  0  0  0  0
  1  2  1  0  0  0  0
  1  3  2  0  0  0  0
  1  4  1  0  0  0  0
  4  5  1  0  0  0  0
  5  6  1  0  0  0  0
  6  7  1  0  0  0  0
  8  7  1  6  0  0  0
  8  9  1  0  0  0  0
  8 16  1  0  0  0  0
  9 10  1  0  0  0  0
 11 10  1  6  0  0  0
 11 12  1  0  0  0  0
 11 16  1  0  0  0  0
 12 13  1  0  0  0  0
 13 14  2  0  0  0  0
 13 15  1  0  0  0  0
 16 15  1  6  0  0  0
M  CHG  1   2  -1
M  END
>  <CHROM.1>
-170.38445872,-73.20862827,159.97192725,-64.51222435,-106.08439565,16.64737445
1.68898668,13.66295696,-2.94515881,-0.07881652,2.39330188

>  <Name>
1f27 biotin aptamer (Xray 1.3A)

>  <RI>
0

>  <Rbt.Current_Directory>
/home/itssahil/PROJECTS/Mol_Feturizer/New_Systems/rnas/1f27

>  <Rbt.Executable>
rbdock ($Id: //depot/dev/client3/rdock/2013.1/src/exe/rbdock.cxx#4 $)

>  <Rbt.Library>
libRbt.so (2013.1, Build901 2013/11/27)

>  <Rbt.Parameter_File>
/export/apps/rDock/src/rDock_2013.1_src/data/scripts/dock_solv.prm

>  <Rbt.Receptor>
prm/blind_docking_60.prm

>  <SCORE>
-21.3958

>  <SCORE.INTER>
-23.2117

>  <SCORE.INTER.CONST>
1

>  <SCORE.INTER.POLAR>
-1.03718

>  <SCORE.INTER.ROT>
5

>  <SCORE.INTER.SOLV>
14.5132

>  <SCORE.INTER.VDW>
-23.7883

>  <SCORE.INTER.norm>
-1.45073

>  <SCORE.INTRA>
1.81583

>  <SCORE.INTRA.DIHEDRAL>
1.86208

>  <SCORE.INTRA.DIHEDRAL.0>
6.87082

>  <SCORE.INTRA.POLAR>
0

>  <SCORE.INTRA.POLAR.0>
0

>  <SCORE.INTRA.REPUL>
0

>  <SCORE.INTRA.REPUL.0>
0

>  <SCORE.INTRA.SOLV>
0.866663

>  <SCORE.INTRA.SOLV.lig_0>
-42.5944

>  <SCORE.INTRA.VDW>
0.451458

>  <SCORE.INTRA.VDW.0>
-1.067

>  <SCORE.INTRA.norm>
0.113489

>  <SCORE.RESTR>
0

>  <SCORE.RESTR.CAVITY>
0

>  <SCORE.RESTR.norm>
0

>  <SCORE.SYSTEM>
0

>  <SCORE.SYSTEM.CONST>
0

>  <SCORE.SYSTEM.DIHEDRAL>
0

>  <SCORE.SYSTEM.SOLV>
0

>  <SCORE.SYSTEM.norm>
0

>  <SCORE.heavy>
16

>  <SCORE.norm>
-1.33724

>  <RMSD>
6.672

$$$$
1f27 biotin aptamer (Xray 1.3A)
 OpenBabel11021811393D
libRbt.so/2013.1/901 2013/11/27
 16 17  0  0  0  0  0  0  0  0999 V2000
   13.8315    3.7529    9.9088 C   0  0  0  0  0  0  0  0  0  0  0  0
   14.9667    3.4551    9.5513 O   0  5  0  0  0  0  0  0  0  0  0  0
   13.3284    4.8095    9.5305 O   0  0  0  0  0  0  0  0  0  0  0  0
   13.0205    2.7864   10.7625 C   0  0  0  0  0  0  0  0  0  0  0  0
   12.9126    3.1995   12.2473 C   0  0  0  0  0  0  0  0  0  0  0  0
   14.2764    3.4752   12.8529 C   0  0  0  0  0  0  0  0  0  0  0  0
   15.0283    2.2206   13.2456 C   0  0  0  0  0  0  0  0  0  0  0  0
   16.4504    2.4598   13.7696 C   0  0  2  0  0  0  0  0  0  0  0  0
   17.7749    2.8534   12.4442 S   0  0  0  0  0  0  0  0  0  0  0  0
   19.0751    2.5083   13.7989 C   0  0  0  0  0  0  0  0  0  0  0  0
   18.4707    1.3559   14.6533 C   0  0  2  0  0  0  0  0  0  0  0  0
   18.9792    0.0416   14.0027 N   0  0  0  0  0  0  0  0  0  0  0  0
   18.0483   -0.7095   13.5993 C   0  0  0  0  0  0  0  0  0  0  0  0
   18.0908   -1.7723   12.8835 O   0  0  0  0  0  0  0  0  0  0  0  0
   16.7376   -0.1079   13.6879 N   0  0  0  0  0  0  0  0  0  0  0  0
   16.9739    1.1943   14.4525 C   0  0  2  0  0  0  0  0  0  0  0  0
  1  2  1  0  0  0  0
  1  3  2  0  0  0  0
  1  4  1  0  0  0  0
  4  5  1  0  0  0  0
  5  6  1  0  0  0  0
  6  7  1  0  0  0  0
  8  7  1  6  0  0  0
  8  9  1  0  0  0  0
  8 16  1  0  0  0  0
  9 10  1  0  0  0  0
 11 10  1  6  0  0  0
 11 12  1  0  0  0  0
 11 16  1  0  0  0  0
 12 13  1  0  0  0  0
 13 14  2  0  0  0  0
 13 15  1  0  0  0  0
 16 15  1  6  0  0  0
M  CHG  1   2  -1
M  END
>  <CHROM.1>
105.08414178,-52.23549398,-79.55955442,175.89680433,-76.57006084,16.23251199
2.03257633,12.53022438,2.43319540,-0.40637980,-0.32329146

>  <Name>
1f27 biotin aptamer (Xray 1.3A)

>  <RI>
0

>  <Rbt.Current_Directory>
/home/itssahil/PROJECTS/Mol_Feturizer/New_Systems/rnas/1f27

>  <Rbt.Executable>
rbdock ($Id: //depot/dev/client3/rdock/2013.1/src/exe/rbdock.cxx#4 $)

>  <Rbt.Library>
libRbt.so (2013.1, Build901 2013/11/27)

>  <Rbt.Parameter_File>
/export/apps/rDock/src/rDock_2013.1_src/data/scripts/dock_solv.prm

>  <Rbt.Receptor>
prm/blind_docking_40.prm

>  <SCORE>
-28.3421

>  <SCORE.INTER>
-27.5311

>  <SCORE.INTER.CONST>
1

>  <SCORE.INTER.POLAR>
-2.5213

>  <SCORE.INTER.ROT>
5

>  <SCORE.INTER.SOLV>
15.7959

>  <SCORE.INTER.VDW>
-22.1484

>  <SCORE.INTER.norm>
-1.72069

>  <SCORE.INTRA>
-0.811046

>  <SCORE.INTRA.DIHEDRAL>
-2.65142

>  <SCORE.INTRA.DIHEDRAL.0>
6.87082

>  <SCORE.INTRA.POLAR>
0

>  <SCORE.INTRA.POLAR.0>
0

>  <SCORE.INTRA.REPUL>
0

>  <SCORE.INTRA.REPUL.0>
0

>  <SCORE.INTRA.SOLV>
0.884499

>  <SCORE.INTRA.SOLV.lig_0>
-42.5944

>  <SCORE.INTRA.VDW>
0.0724128

>  <SCORE.INTRA.VDW.0>
-1.067

>  <SCORE.INTRA.norm>
-0.0506904

>  <SCORE.RESTR>
0

>  <SCORE.RESTR.CAVITY>
0

>  <SCORE.RESTR.norm>
0

>  <SCORE.SYSTEM>
0

>  <SCORE.SYSTEM.CONST>
0

>  <SCORE.SYSTEM.DIHEDRAL>
0

>  <SCORE.SYSTEM.SOLV>
0

>  <SCORE.SYSTEM.norm>
0

>  <SCORE.heavy>
16

>  <SCORE.norm>
-1.77138

>  <RMSD>
6.682

$$$$
1f27 biotin aptamer (Xray 1.3A)
 OpenBabel11021811393D
libRbt.so/2013.1/901 2013/11/27
 16 17  0  0  0  0  0  0  0  0999 V2000
   14.3782    2.8446   14.2878 C   0  0  0  0  0  0  0  0  0  0  0  0
   13.4140    3.2948   13.6771 O   0  5  0  0  0  0  0  0  0  0  0  0
   14.2044    2.2342   15.3412 O   0  0  0  0  0  0  0  0  0  0  0  0
   15.7810    2.9808   13.7095 C   0  0  0  0  0  0  0  0  0  0  0  0
   16.0852    1.9925   12.5616 C   0  0  0  0  0  0  0  0  0  0  0  0
   17.2908    2.4298   11.7503 C   0  0  0  0  0  0  0  0  0  0  0  0
   18.6143    2.0994   12.4082 C   0  0  0  0  0  0  0  0  0  0  0  0
   18.9880    0.6114   12.3909 C   0  0  2  0  0  0  0  0  0  0  0  0
   18.3001   -0.4405   13.8352 S   0  0  0  0  0  0  0  0  0  0  0  0
   19.5471   -1.7853   13.3047 C   0  0  0  0  0  0  0  0  0  0  0  0
   20.8024   -1.0025   12.8205 C   0  0  2  0  0  0  0  0  0  0  0  0
   21.7018   -0.8367   14.0746 N   0  0  0  0  0  0  0  0  0  0  0  0
   21.9278    0.3689   14.3721 C   0  0  0  0  0  0  0  0  0  0  0  0
   22.4795    0.8777   15.4115 O   0  0  0  0  0  0  0  0  0  0  0  0
   21.1728    1.3132   13.5810 N   0  0  0  0  0  0  0  0  0  0  0  0
   20.5057    0.4539   12.5074 C   0  0  2  0  0  0  0  0  0  0  0  0
  1  2  1  0  0  0  0
  1  3  2  0  0  0  0
  1  4  1  0  0  0  0
  4  5  1  0  0  0  0
  5  6  1  0  0  0  0
  6  7  1  0  0  0  0
  8  7  1  1  0  0  0
  8  9  1  0  0  0  0
  8 16  1  0  0  0  0
  9 10  1  0  0  0  0
 11 10  1  1  0  0  0
 11 12  1  0  0  0  0
 11 16  1  0  0  0  0
 12 13  1  0  0  0  0
 13 14  2  0  0  0  0
 13 15  1  0  0  0  0
 16 15  1  1  0  0  0
M  CHG  1   2  -1
M  END
>  <CHROM.1>
-76.52317329,162.58055696,79.27655179,72.70834938,-86.51606462,18.40606470
1.00028113,13.56208742,-2.73867448,-0.04505488,3.02754898

>  <Name>
1f27 biotin aptamer (Xray 1.3A)

>  <RI>
0

>  <Rbt.Current_Directory>
/home/itssahil/PROJECTS/Mol_Feturizer/New_Systems/rnas/1f27

>  <Rbt.Executable>
rbdock ($Id: //depot/dev/client3/rdock/2013.1/src/exe/rbdock.cxx#4 $)

>  <Rbt.Library>
libRbt.so (2013.1, Build901 2013/11/27)

>  <Rbt.Parameter_File>
/export/apps/rDock/src/rDock_2013.1_src/data/scripts/dock_solv.prm

>  <Rbt.Receptor>
prm/pocket_docking_8.prm

>  <SCORE>
-19.7159

>  <SCORE.INTER>
-19.3102

>  <SCORE.INTER.CONST>
1

>  <SCORE.INTER.POLAR>
-1.16255

>  <SCORE.INTER.ROT>
5

>  <SCORE.INTER.SOLV>
16.1822

>  <SCORE.INTER.VDW>
-21.3257

>  <SCORE.INTER.norm>
-1.20689

>  <SCORE.INTRA>
-0.405717

>  <SCORE.INTRA.DIHEDRAL>
-0.0962199

>  <SCORE.INTRA.DIHEDRAL.0>
6.87082

>  <SCORE.INTRA.POLAR>
0

>  <SCORE.INTRA.POLAR.0>
0

>  <SCORE.INTRA.REPUL>
0

>  <SCORE.INTRA.REPUL.0>
0

>  <SCORE.INTRA.SOLV>
-0.748773

>  <SCORE.INTRA.SOLV.lig_0>
-42.5944

>  <SCORE.INTRA.VDW>
0.0167796

>  <SCORE.INTRA.VDW.0>
-1.067

>  <SCORE.INTRA.norm>
-0.0253573

>  <SCORE.RESTR>
0

>  <SCORE.RESTR.CAVITY>
0

>  <SCORE.RESTR.norm>
0

>  <SCORE.SYSTEM>
0

>  <SCORE.SYSTEM.CONST>
0

>  <SCORE.SYSTEM.DIHEDRAL>
0

>  <SCORE.SYSTEM.SOLV>
0

>  <SCORE.SYSTEM.norm>
0

>  <SCORE.heavy>
16

>  <SCORE.norm>
-1.23224

>  <RMSD>
6.682

$$$$
1f27 biotin aptamer (Xray 1.3A)
 OpenBabel11021811393D
libRbt.so/2013.1/901 2013/11/27
 16 17  0  0  0  0  0  0  0  0999 V2000
   14.6415    2.8158   11.4778 C   0  0  0  0  0  0  0  0  0  0  0  0
   13.5138    3.0036   11.0324 O   0  5  0  0  0  0  0  0  0  0  0  0
   15.6217    2.9967   10.7574 O   0  0  0  0  0  0  0  0  0  0  0  0
   14.8317    2.4262   12.9381 C   0  0  0  0  0  0  0  0  0  0  0  0
   16.0652    3.0748   13.6051 C   0  0  0  0  0  0  0  0  0  0  0  0
   17.3602    2.4652   13.1010 C   0  0  0  0  0  0  0  0  0  0  0  0
   17.5879    1.0470   13.5812 C   0  0  0  0  0  0  0  0  0  0  0  0
   18.7087    0.2931   12.8534 C   0  0  2  0  0  0  0  0  0  0  0  0
   18.8366   -1.5802   13.2278 S   0  0  0  0  0  0  0  0  0  0  0  0
   20.5619   -1.5135   12.4130 C   0  0  0  0  0  0  0  0  0  0  0  0
   21.1390   -0.1219   12.8048 C   0  0  2  0  0  0  0  0  0  0  0  0
   21.9102   -0.3474   14.1328 N   0  0  0  0  0  0  0  0  0  0  0  0
   21.4682    0.3446   15.0914 C   0  0  0  0  0  0  0  0  0  0  0  0
   21.7435    0.3004   16.3428 O   0  0  0  0  0  0  0  0  0  0  0  0
   20.2538    1.0619   14.7779 N   0  0  0  0  0  0  0  0  0  0  0  0
   20.0704    0.8494   13.2754 C   0  0  2  0  0  0  0  0  0  0  0  0
  1  2  1  0  0  0  0
  1  3  2  0  0  0  0
  1  4  1  0  0  0  0
  4  5  1  0  0  0  0
  5  6  1  0  0  0  0
  6  7  1  0  0  0  0
  8  7  1  1  0  0  0
  8  9  1  0  0  0  0
  8 16  1  0  0  0  0
  9 10  1  0  0  0  0
 11 10  1  1  0  0  0
 11 12  1  0  0  0  0
 11 16  1  0  0  0  0
 12 13  1  0  0  0  0
 13 14  2  0  0  0  0
 13 15  1  0  0  0  0
 16 15  1  1  0  0  0
M  CHG  1   2  -1
M  END
>  <CHROM.1>
-141.95736224,-72.23083549,-70.55862394,166.96869046,-170.34398193,18.40143880
0.89253898,13.21711322,3.01589308,-0.56372068,0.66927395

>  <Name>
1f27 biotin aptamer (Xray 1.3A)

>  <RI>
0

>  <Rbt.Current_Directory>
/home/itssahil/PROJECTS/Mol_Feturizer/New_Systems/rnas/1f27

>  <Rbt.Executable>
rbdock ($Id: //depot/dev/client3/rdock/2013.1/src/exe/rbdock.cxx#4 $)

>  <Rbt.Library>
libRbt.so (2013.1, Build901 2013/11/27)

>  <Rbt.Parameter_File>
/export/apps/rDock/src/rDock_2013.1_src/data/scripts/dock_solv.prm

>  <Rbt.Receptor>
prm/pocket_docking_5.prm

>  <SCORE>
-19.1294

>  <SCORE.INTER>
-18.6486

>  <SCORE.INTER.CONST>
1

>  <SCORE.INTER.POLAR>
-1.36716

>  <SCORE.INTER.ROT>
5

>  <SCORE.INTER.SOLV>
12.6991

>  <SCORE.INTER.VDW>
-19.0415

>  <SCORE.INTER.norm>
-1.16554

>  <SCORE.INTRA>
-0.480801

>  <SCORE.INTRA.DIHEDRAL>
-3.35548

>  <SCORE.INTRA.DIHEDRAL.0>
6.87082

>  <SCORE.INTRA.POLAR>
0

>  <SCORE.INTRA.POLAR.0>
0

>  <SCORE.INTRA.REPUL>
0

>  <SCORE.INTRA.REPUL.0>
0

>  <SCORE.INTRA.SOLV>
0.56695

>  <SCORE.INTRA.SOLV.lig_0>
-42.5944

>  <SCORE.INTRA.VDW>
0.913463

>  <SCORE.INTRA.VDW.0>
-1.067

>  <SCORE.INTRA.norm>
-0.0300501

>  <SCORE.RESTR>
0

>  <SCORE.RESTR.CAVITY>
0

>  <SCORE.RESTR.norm>
0

>  <SCORE.SYSTEM>
0

>  <SCORE.SYSTEM.CONST>
0

>  <SCORE.SYSTEM.DIHEDRAL>
0

>  <SCORE.SYSTEM.SOLV>
0

>  <SCORE.SYSTEM.norm>
0

>  <SCORE.heavy>
16

>  <SCORE.norm>
-1.19559

>  <RMSD>
6.703

$$$$
1f27 biotin aptamer (Xray 1.3A)
 OpenBabel11021811393D
libRbt.so/2013.1/901 2013/11/27
 16 17  0  0  0  0  0  0  0  0999 V2000
   14.7487    3.0995    6.8025 C   0  0  0  0  0  0  0  0  0  0  0  0
   15.2758    2.0302    7.0924 O   0  5  0  0  0  0  0  0  0  0  0  0
   14.5838    3.4000    5.6213 O   0  0  0  0  0  0  0  0  0  0  0  0
   14.2373    4.0225    7.9012 C   0  0  0  0  0  0  0  0  0  0  0  0
   14.0625    3.3303    9.2713 C   0  0  0  0  0  0  0  0  0  0  0  0
   13.4858    4.2768   10.3079 C   0  0  0  0  0  0  0  0  0  0  0  0
   14.1212    4.1355   11.6754 C   0  0  0  0  0  0  0  0  0  0  0  0
   14.0036    2.7383   12.2986 C   0  0  2  0  0  0  0  0  0  0  0  0
   13.4244    2.6823   14.1226 S   0  0  0  0  0  0  0  0  0  0  0  0
   14.0182    0.8679   14.1406 C   0  0  0  0  0  0  0  0  0  0  0  0
   15.2830    0.8488   13.2334 C   0  0  2  0  0  0  0  0  0  0  0  0
   16.4818    1.1220   14.1807 N   0  0  0  0  0  0  0  0  0  0  0  0
   17.1348    2.1580   13.8751 C   0  0  0  0  0  0  0  0  0  0  0  0
   18.0646    2.7704   14.5107 O   0  0  0  0  0  0  0  0  0  0  0  0
   16.5278    2.9363   12.8200 N   0  0  0  0  0  0  0  0  0  0  0  0
   15.3762    2.0620   12.3244 C   0  0  2  0  0  0  0  0  0  0  0  0
  1  2  1  0  0  0  0
  1  3  2  0  0  0  0
  1  4  1  0  0  0  0
  4  5  1  0  0  0  0
  5  6  1  0  0  0  0
  6  7  1  0  0  0  0
  8  7  1  1  0  0  0
  8  9  1  0  0  0  0
  8 16  1  0  0  0  0
  9 10  1  0  0  0  0
 11 10  1  1  0  0  0
 11 12  1  0  0  0  0
 11 16  1  0  0  0  0
 12 13  1  0  0  0  0
 13 14  2  0  0  0  0
 13 15  1  0  0  0  0
 16 15  1  1  0  0  0
M  CHG  1   2  -1
M  END
>  <CHROM.1>
-17.15388791,-177.12082037,-139.47292381,-58.98823696,-132.60440934,14.95510418
2.66507937,11.43881120,-1.72694856,-0.24921049,1.71163009

>  <Name>
1f27 biotin aptamer (Xray 1.3A)

>  <RI>
224

>  <Rbt.Current_Directory>
/home/itssahil/PROJECTS/Mol_Feturizer/New_Systems/rnas/1f27

>  <Rbt.Executable>
rbdock ($Id: //depot/dev/client3/rdock/2013.1/src/exe/rbdock.cxx#4 $)

>  <Rbt.Library>
libRbt.so (2013.1, Build901 2013/11/27)

>  <Rbt.Parameter_File>
/export/apps/rDock/src/rDock_2013.1_src/data/scripts/dock_solv.prm

>  <Rbt.Receptor>
prm/blind_docking_80.prm

>  <SCORE>
-24.2949

>  <SCORE.INTER>
-27.0505

>  <SCORE.INTER.CONST>
1

>  <SCORE.INTER.POLAR>
-2.18363

>  <SCORE.INTER.ROT>
5

>  <SCORE.INTER.SOLV>
21.7105

>  <SCORE.INTER.VDW>
-24.9251

>  <SCORE.INTER.norm>
-1.69066

>  <SCORE.INTRA>
2.5798

>  <SCORE.INTRA.DIHEDRAL>
4.52545

>  <SCORE.INTRA.DIHEDRAL.0>
6.87082

>  <SCORE.INTRA.POLAR>
0

>  <SCORE.INTRA.POLAR.0>
0

>  <SCORE.INTRA.REPUL>
0

>  <SCORE.INTRA.REPUL.0>
0

>  <SCORE.INTRA.SOLV>
-0.724261

>  <SCORE.INTRA.SOLV.lig_0>
-42.5944

>  <SCORE.INTRA.VDW>
0.679204

>  <SCORE.INTRA.VDW.0>
-1.067

>  <SCORE.INTRA.norm>
0.161237

>  <SCORE.RESTR>
0.175828

>  <SCORE.RESTR.CAVITY>
0.175828

>  <SCORE.RESTR.norm>
0.0109893

>  <SCORE.SYSTEM>
0

>  <SCORE.SYSTEM.CONST>
0

>  <SCORE.SYSTEM.DIHEDRAL>
0

>  <SCORE.SYSTEM.SOLV>
0

>  <SCORE.SYSTEM.norm>
0

>  <SCORE.heavy>
16

>  <SCORE.norm>
-1.51843

>  <RMSD>
6.714

$$$$
1f27 biotin aptamer (Xray 1.3A)
 OpenBabel11021811393D
libRbt.so/2013.1/901 2013/11/27
 16 17  0  0  0  0  0  0  0  0999 V2000
   14.4193    3.5625    7.8073 C   0  0  0  0  0  0  0  0  0  0  0  0
   15.4114    3.1442    8.3957 O   0  5  0  0  0  0  0  0  0  0  0  0
   13.8910    2.8759    6.9344 O   0  0  0  0  0  0  0  0  0  0  0  0
   13.8021    4.8977    8.2030 C   0  0  0  0  0  0  0  0  0  0  0  0
   13.7542    5.1395    9.7283 C   0  0  0  0  0  0  0  0  0  0  0  0
   13.4218    3.8680   10.4871 C   0  0  0  0  0  0  0  0  0  0  0  0
   13.8036    3.9208   11.9517 C   0  0  0  0  0  0  0  0  0  0  0  0
   13.9118    2.5529   12.6384 C   0  0  2  0  0  0  0  0  0  0  0  0
   13.6010    2.5386   14.5275 S   0  0  0  0  0  0  0  0  0  0  0  0
   14.3669    0.7898   14.5294 C   0  0  0  0  0  0  0  0  0  0  0  0
   15.4885    0.8398   13.4511 C   0  0  2  0  0  0  0  0  0  0  0  0
   16.7750    1.2706   14.2051 N   0  0  0  0  0  0  0  0  0  0  0  0
   17.2740    2.3449   13.7692 C   0  0  0  0  0  0  0  0  0  0  0  0
   18.2187    3.0723   14.2407 O   0  0  0  0  0  0  0  0  0  0  0  0
   16.4523    3.0085   12.7834 N   0  0  0  0  0  0  0  0  0  0  0  0
   15.3343    2.0077   12.4924 C   0  0  2  0  0  0  0  0  0  0  0  0
  1  2  1  0  0  0  0
  1  3  2  0  0  0  0
  1  4  1  0  0  0  0
  4  5  1  0  0  0  0
  5  6  1  0  0  0  0
  6  7  1  0  0  0  0
  8  7  1  1  0  0  0
  8  9  1  0  0  0  0
  8 16  1  0  0  0  0
  9 10  1  0  0  0  0
 11 10  1  1  0  0  0
 11 12  1  0  0  0  0
 11 16  1  0  0  0  0
 12 13  1  0  0  0  0
 13 14  2  0  0  0  0
 13 15  1  0  0  0  0
 16 15  1  1  0  0  0
M  CHG  1   2  -1
M  END
>  <CHROM.1>
-40.73733583,-38.37608988,160.85207050,-161.17655724,-153.34458086,14.91514586
2.85184241,11.82093747,-1.83042474,-0.13111400,1.84465374

>  <Name>
1f27 biotin aptamer (Xray 1.3A)

>  <RI>
224

>  <Rbt.Current_Directory>
/home/itssahil/PROJECTS/Mol_Feturizer/New_Systems/rnas/1f27

>  <Rbt.Executable>
rbdock ($Id: //depot/dev/client3/rdock/2013.1/src/exe/rbdock.cxx#4 $)

>  <Rbt.Library>
libRbt.so (2013.1, Build901 2013/11/27)

>  <Rbt.Parameter_File>
/export/apps/rDock/src/rDock_2013.1_src/data/scripts/dock_solv.prm

>  <Rbt.Receptor>
prm/blind_docking_80.prm

>  <SCORE>
-28.977

>  <SCORE.INTER>
-30.9877

>  <SCORE.INTER.CONST>
1

>  <SCORE.INTER.POLAR>
-3.74651

>  <SCORE.INTER.ROT>
5

>  <SCORE.INTER.SOLV>
19.1085

>  <SCORE.INTER.VDW>
-21.4729

>  <SCORE.INTER.norm>
-1.93673

>  <SCORE.INTRA>
2.01074

>  <SCORE.INTRA.DIHEDRAL>
1.34427

>  <SCORE.INTRA.DIHEDRAL.0>
6.87082

>  <SCORE.INTRA.POLAR>
0

>  <SCORE.INTRA.POLAR.0>
0

>  <SCORE.INTRA.REPUL>
0

>  <SCORE.INTRA.REPUL.0>
0

>  <SCORE.INTRA.SOLV>
1.02784

>  <SCORE.INTRA.SOLV.lig_0>
-42.5944

>  <SCORE.INTRA.VDW>
0.824687

>  <SCORE.INTRA.VDW.0>
-1.067

>  <SCORE.INTRA.norm>
0.125671

>  <SCORE.RESTR>
0

>  <SCORE.RESTR.CAVITY>
0

>  <SCORE.RESTR.norm>
0

>  <SCORE.SYSTEM>
0

>  <SCORE.SYSTEM.CONST>
0

>  <SCORE.SYSTEM.DIHEDRAL>
0

>  <SCORE.SYSTEM.SOLV>
0

>  <SCORE.SYSTEM.norm>
0

>  <SCORE.heavy>
16

>  <SCORE.norm>
-1.81106

>  <RMSD>
6.715

$$$$
1f27 biotin aptamer (Xray 1.3A)
 OpenBabel11021811393D
libRbt.so/2013.1/901 2013/11/27
 16 17  0  0  0  0  0  0  0  0999 V2000
   14.4395    3.5655    7.7971 C   0  0  0  0  0  0  0  0  0  0  0  0
   15.4197    3.1461    8.4043 O   0  5  0  0  0  0  0  0  0  0  0  0
   13.9404    2.8891    6.8994 O   0  0  0  0  0  0  0  0  0  0  0  0
   13.7999    4.8885    8.1985 C   0  0  0  0  0  0  0  0  0  0  0  0
   13.7709    5.1342    9.7236 C   0  0  0  0  0  0  0  0  0  0  0  0
   13.3824    3.8809   10.4859 C   0  0  0  0  0  0  0  0  0  0  0  0
   13.7559    3.9255   11.9529 C   0  0  0  0  0  0  0  0  0  0  0  0
   13.8574    2.5540   12.6334 C   0  0  2  0  0  0  0  0  0  0  0  0
   13.5413    2.5318   14.5216 S   0  0  0  0  0  0  0  0  0  0  0  0
   14.3008    0.7802   14.5172 C   0  0  0  0  0  0  0  0  0  0  0  0
   15.4255    0.8312   13.4422 C   0  0  2  0  0  0  0  0  0  0  0  0
   16.7115    1.2538   14.2017 N   0  0  0  0  0  0  0  0  0  0  0  0
   17.2157    2.3283   13.7724 C   0  0  0  0  0  0  0  0  0  0  0  0
   18.1617    3.0499   14.2499 O   0  0  0  0  0  0  0  0  0  0  0  0
   16.3990    2.9996   12.7875 N   0  0  0  0  0  0  0  0  0  0  0  0
   15.2782    2.0043   12.4887 C   0  0  2  0  0  0  0  0  0  0  0  0
  1  2  1  0  0  0  0
  1  3  2  0  0  0  0
  1  4  1  0  0  0  0
  4  5  1  0  0  0  0
  5  6  1  0  0  0  0
  6  7  1  0  0  0  0
  8  7  1  1  0  0  0
  8  9  1  0  0  0  0
  8 16  1  0  0  0  0
  9 10  1  0  0  0  0
 11 10  1  1  0  0  0
 11 12  1  0  0  0  0
 11 16  1  0  0  0  0
 12 13  1  0  0  0  0
 13 14  2  0  0  0  0
 13 15  1  0  0  0  0
 16 15  1  1  0  0  0
M  CHG  1   2  -1
M  END
>  <CHROM.1>
-37.98428288,-42.36782355,161.66307402,-158.92803198,-153.53705105,14.88096153
2.84722235,11.81657033,-1.81619753,-0.13879111,1.84609267

>  <Name>
1f27 biotin aptamer (Xray 1.3A)

>  <RI>
224

>  <Rbt.Current_Directory>
/home/itssahil/PROJECTS/Mol_Feturizer/New_Systems/rnas/1f27

>  <Rbt.Executable>
rbdock ($Id: //depot/dev/client3/rdock/2013.1/src/exe/rbdock.cxx#4 $)

>  <Rbt.Library>
libRbt.so (2013.1, Build901 2013/11/27)

>  <Rbt.Parameter_File>
/export/apps/rDock/src/rDock_2013.1_src/data/scripts/dock_solv.prm

>  <Rbt.Receptor>
prm/blind_docking_80.prm

>  <SCORE>
-28.9428

>  <SCORE.INTER>
-30.6679

>  <SCORE.INTER.CONST>
1

>  <SCORE.INTER.POLAR>
-3.69595

>  <SCORE.INTER.ROT>
5

>  <SCORE.INTER.SOLV>
19.0942

>  <SCORE.INTER.VDW>
-21.4235

>  <SCORE.INTER.norm>
-1.91674

>  <SCORE.INTRA>
1.72503

>  <SCORE.INTRA.DIHEDRAL>
1.04705

>  <SCORE.INTRA.DIHEDRAL.0>
6.87082

>  <SCORE.INTRA.POLAR>
0

>  <SCORE.INTRA.POLAR.0>
0

>  <SCORE.INTRA.REPUL>
0

>  <SCORE.INTRA.REPUL.0>
0

>  <SCORE.INTRA.SOLV>
0.992914

>  <SCORE.INTRA.SOLV.lig_0>
-42.5944

>  <SCORE.INTRA.VDW>
0.705048

>  <SCORE.INTRA.VDW.0>
-1.067

>  <SCORE.INTRA.norm>
0.107814

>  <SCORE.RESTR>
0

>  <SCORE.RESTR.CAVITY>
0

>  <SCORE.RESTR.norm>
0

>  <SCORE.SYSTEM>
0

>  <SCORE.SYSTEM.CONST>
0

>  <SCORE.SYSTEM.DIHEDRAL>
0

>  <SCORE.SYSTEM.SOLV>
0

>  <SCORE.SYSTEM.norm>
0

>  <SCORE.heavy>
16

>  <SCORE.norm>
-1.80893

>  <RMSD>
6.717

$$$$
1f27 biotin aptamer (Xray 1.3A)
 OpenBabel11021811393D
libRbt.so/2013.1/901 2013/11/27
 16 17  0  0  0  0  0  0  0  0999 V2000
   14.5916    3.1832    6.9318 C   0  0  0  0  0  0  0  0  0  0  0  0
   15.1440    2.1135    7.1686 O   0  5  0  0  0  0  0  0  0  0  0  0
   14.3246    3.4900    5.7711 O   0  0  0  0  0  0  0  0  0  0  0  0
   14.1753    4.0985    8.0761 C   0  0  0  0  0  0  0  0  0  0  0  0
   14.0319    3.3783    9.4354 C   0  0  0  0  0  0  0  0  0  0  0  0
   13.4771    4.3024   10.5035 C   0  0  0  0  0  0  0  0  0  0  0  0
   14.1305    4.1220   11.8578 C   0  0  0  0  0  0  0  0  0  0  0  0
   14.0404    2.7019   12.4319 C   0  0  2  0  0  0  0  0  0  0  0  0
   13.5198    2.5744   14.2700 S   0  0  0  0  0  0  0  0  0  0  0  0
   14.1238    0.7646   14.2016 C   0  0  0  0  0  0  0  0  0  0  0  0
   15.3593    0.7876   13.2549 C   0  0  2  0  0  0  0  0  0  0  0  0
   16.5860    1.0335   14.1735 N   0  0  0  0  0  0  0  0  0  0  0  0
   17.2233    2.0844   13.8862 C   0  0  0  0  0  0  0  0  0  0  0  0
   18.1694    2.6791   14.5146 O   0  0  0  0  0  0  0  0  0  0  0  0
   16.5787    2.8973   12.8805 N   0  0  0  0  0  0  0  0  0  0  0  0
   15.4168    2.0343   12.3892 C   0  0  2  0  0  0  0  0  0  0  0  0
  1  2  1  0  0  0  0
  1  3  2  0  0  0  0
  1  4  1  0  0  0  0
  4  5  1  0  0  0  0
  5  6  1  0  0  0  0
  6  7  1  0  0  0  0
  8  7  1  1  0  0  0
  8  9  1  0  0  0  0
  8 16  1  0  0  0  0
  9 10  1  0  0  0  0
 11 10  1  1  0  0  0
 11 12  1  0  0  0  0
 11 16  1  0  0  0  0
 12 13  1  0  0  0  0
 13 14  2  0  0  0  0
 13 15  1  0  0  0  0
 16 15  1  1  0  0  0
M  CHG  1   2  -1
M  END
>  <CHROM.1>
-20.92084754,-174.02151107,-140.22280412,-57.57664240,-133.86306055,14.96411169
2.64402483,11.54014850,-1.76350504,-0.25421413,1.72636391

>  <Name>
1f27 biotin aptamer (Xray 1.3A)

>  <RI>
224

>  <Rbt.Current_Directory>
/home/itssahil/PROJECTS/Mol_Feturizer/New_Systems/rnas/1f27

>  <Rbt.Executable>
rbdock ($Id: //depot/dev/client3/rdock/2013.1/src/exe/rbdock.cxx#4 $)

>  <Rbt.Library>
libRbt.so (2013.1, Build901 2013/11/27)

>  <Rbt.Parameter_File>
/export/apps/rDock/src/rDock_2013.1_src/data/scripts/dock_solv.prm

>  <Rbt.Receptor>
prm/blind_docking_80.prm

>  <SCORE>
-23.8084

>  <SCORE.INTER>
-26.3804

>  <SCORE.INTER.CONST>
1

>  <SCORE.INTER.POLAR>
-2.25012

>  <SCORE.INTER.ROT>
5

>  <SCORE.INTER.SOLV>
21.2007

>  <SCORE.INTER.VDW>
-24.0868

>  <SCORE.INTER.norm>
-1.64878

>  <SCORE.INTRA>
2.52802

>  <SCORE.INTRA.DIHEDRAL>
4.43035

>  <SCORE.INTRA.DIHEDRAL.0>
6.87082

>  <SCORE.INTRA.POLAR>
0

>  <SCORE.INTRA.POLAR.0>
0

>  <SCORE.INTRA.REPUL>
0

>  <SCORE.INTRA.REPUL.0>
0

>  <SCORE.INTRA.SOLV>
-0.721738

>  <SCORE.INTRA.SOLV.lig_0>
-42.5944

>  <SCORE.INTRA.VDW>
0.673716

>  <SCORE.INTRA.VDW.0>
-1.067

>  <SCORE.INTRA.norm>
0.158001

>  <SCORE.RESTR>
0.0439758

>  <SCORE.RESTR.CAVITY>
0.0439758

>  <SCORE.RESTR.norm>
0.00274849

>  <SCORE.SYSTEM>
0

>  <SCORE.SYSTEM.CONST>
0

>  <SCORE.SYSTEM.DIHEDRAL>
0

>  <SCORE.SYSTEM.SOLV>
0

>  <SCORE.SYSTEM.norm>
0

>  <SCORE.heavy>
16

>  <SCORE.norm>
-1.48803

>  <RMSD>
6.729

$$$$
1f27 biotin aptamer (Xray 1.3A)
 OpenBabel11021811393D
libRbt.so/2013.1/901 2013/11/27
 16 17  0  0  0  0  0  0  0  0999 V2000
   14.4481    3.1976    7.3205 C   0  0  0  0  0  0  0  0  0  0  0  0
   13.6452    2.8230    6.4718 O   0  5  0  0  0  0  0  0  0  0  0  0
   15.5181    3.6945    6.9733 O   0  0  0  0  0  0  0  0  0  0  0  0
   14.0933    3.1112    8.7994 C   0  0  0  0  0  0  0  0  0  0  0  0
   13.8269    4.4814    9.4619 C   0  0  0  0  0  0  0  0  0  0  0  0
   13.7919    4.3748   10.9753 C   0  0  0  0  0  0  0  0  0  0  0  0
   15.0912    3.8809   11.5767 C   0  0  0  0  0  0  0  0  0  0  0  0
   14.9551    2.6471   12.4786 C   0  0  2  0  0  0  0  0  0  0  0  0
   14.5181    2.9942   14.3101 S   0  0  0  0  0  0  0  0  0  0  0  0
   15.0229    1.1863   14.6588 C   0  0  0  0  0  0  0  0  0  0  0  0
   16.2105    0.9059   13.6923 C   0  0  2  0  0  0  0  0  0  0  0  0
   17.4915    1.2868   14.4818 N   0  0  0  0  0  0  0  0  0  0  0  0
   18.1680    2.1972   13.9280 C   0  0  0  0  0  0  0  0  0  0  0  0
   19.1732    2.8644   14.3617 O   0  0  0  0  0  0  0  0  0  0  0  0
   17.5188    2.7854   12.7790 N   0  0  0  0  0  0  0  0  0  0  0  0
   16.2911    1.9043   12.5504 C   0  0  2  0  0  0  0  0  0  0  0  0
  1  2  1  0  0  0  0
  1  3  2  0  0  0  0
  1  4  1  0  0  0  0
  4  5  1  0  0  0  0
  5  6  1  0  0  0  0
  6  7  1  0  0  0  0
  8  7  1  6  0  0  0
  8  9  1  0  0  0  0
  8 16  1  0  0  0  0
  9 10  1  0  0  0  0
 11 10  1  1  0  0  0
 11 12  1  0  0  0  0
 11 16  1  0  0  0  0
 12 13  1  0  0  0  0
 13 14  2  0  0  0  0
 13 15  1  0  0  0  0
 16 15  1  1  0  0  0
M  CHG  1   2  -1
M  END
>  <CHROM.1>
-108.49317375,-167.03006464,60.91197740,-124.98925317,-85.90561181,15.54528767
2.80467386,11.71732206,-1.94875266,-0.17883300,1.71255171

>  <Name>
1f27 biotin aptamer (Xray 1.3A)

>  <RI>
224

>  <Rbt.Current_Directory>
/home/itssahil/PROJECTS/Mol_Feturizer/New_Systems/rnas/1f27

>  <Rbt.Executable>
rbdock ($Id: //depot/dev/client3/rdock/2013.1/src/exe/rbdock.cxx#4 $)

>  <Rbt.Library>
libRbt.so (2013.1, Build901 2013/11/27)

>  <Rbt.Parameter_File>
/export/apps/rDock/src/rDock_2013.1_src/data/scripts/dock_solv.prm

>  <Rbt.Receptor>
prm/blind_docking_80.prm

>  <SCORE>
-19.973

>  <SCORE.INTER>
-21.7978

>  <SCORE.INTER.CONST>
1

>  <SCORE.INTER.POLAR>
-0.87178

>  <SCORE.INTER.ROT>
5

>  <SCORE.INTER.SOLV>
22.2152

>  <SCORE.INTER.VDW>
-25.9644

>  <SCORE.INTER.norm>
-1.36236

>  <SCORE.INTRA>
1.82483

>  <SCORE.INTRA.DIHEDRAL>
3.33536

>  <SCORE.INTRA.DIHEDRAL.0>
6.87082

>  <SCORE.INTRA.POLAR>
0

>  <SCORE.INTRA.POLAR.0>
0

>  <SCORE.INTRA.REPUL>
0

>  <SCORE.INTRA.REPUL.0>
0

>  <SCORE.INTRA.SOLV>
-0.758248

>  <SCORE.INTRA.SOLV.lig_0>
-42.5944

>  <SCORE.INTRA.VDW>
0.536277

>  <SCORE.INTRA.VDW.0>
-1.067

>  <SCORE.INTRA.norm>
0.114052

>  <SCORE.RESTR>
0

>  <SCORE.RESTR.CAVITY>
0

>  <SCORE.RESTR.norm>
0

>  <SCORE.SYSTEM>
0

>  <SCORE.SYSTEM.CONST>
0

>  <SCORE.SYSTEM.DIHEDRAL>
0

>  <SCORE.SYSTEM.SOLV>
0

>  <SCORE.SYSTEM.norm>
0

>  <SCORE.heavy>
16

>  <SCORE.norm>
-1.24831

>  <RMSD>
6.730

$$$$
1f27 biotin aptamer (Xray 1.3A)
 OpenBabel11021811393D
libRbt.so/2013.1/901 2013/11/27
 16 17  0  0  0  0  0  0  0  0999 V2000
   14.4116    3.5714    7.8157 C   0  0  0  0  0  0  0  0  0  0  0  0
   15.4091    3.1614    8.4007 O   0  5  0  0  0  0  0  0  0  0  0  0
   13.8846    2.8795    6.9463 O   0  0  0  0  0  0  0  0  0  0  0  0
   13.7864    4.9030    8.2116 C   0  0  0  0  0  0  0  0  0  0  0  0
   13.7719    5.1612    9.7348 C   0  0  0  0  0  0  0  0  0  0  0  0
   13.2991    3.9424   10.5053 C   0  0  0  0  0  0  0  0  0  0  0  0
   13.7545    3.9262   11.9496 C   0  0  0  0  0  0  0  0  0  0  0  0
   13.8588    2.5294   12.5760 C   0  0  2  0  0  0  0  0  0  0  0  0
   13.4651    2.4202   14.4466 S   0  0  0  0  0  0  0  0  0  0  0  0
   14.2638    0.6867   14.4016 C   0  0  0  0  0  0  0  0  0  0  0  0
   15.4308    0.8071   13.3784 C   0  0  2  0  0  0  0  0  0  0  0  0
   16.6742    1.2238   14.2088 N   0  0  0  0  0  0  0  0  0  0  0  0
   17.1711    2.3260   13.8464 C   0  0  0  0  0  0  0  0  0  0  0  0
   18.0798    3.0464   14.3932 O   0  0  0  0  0  0  0  0  0  0  0  0
   16.3810    3.0213   12.8564 N   0  0  0  0  0  0  0  0  0  0  0  0
   15.2966    2.0163   12.4691 C   0  0  2  0  0  0  0  0  0  0  0  0
  1  2  1  0  0  0  0
  1  3  2  0  0  0  0
  1  4  1  0  0  0  0
  4  5  1  0  0  0  0
  5  6  1  0  0  0  0
  6  7  1  0  0  0  0
  8  7  1  1  0  0  0
  8  9  1  0  0  0  0
  8 16  1  0  0  0  0
  9 10  1  0  0  0  0
 11 10  1  1  0  0  0
 11 12  1  0  0  0  0
 11 16  1  0  0  0  0
 12 13  1  0  0  0  0
 13 14  2  0  0  0  0
 13 15  1  0  0  0  0
 16 15  1  1  0  0  0
M  CHG  1   2  -1
M  END
>  <CHROM.1>
-39.44189074,-45.78356865,157.66906507,-154.27838142,-147.30823505,14.84767956
2.83093988,11.81650588,-1.82120381,-0.10185685,1.86472598

>  <Name>
1f27 biotin aptamer (Xray 1.3A)

>  <RI>
0

>  <Rbt.Current_Directory>
/home/itssahil/PROJECTS/Mol_Feturizer/New_Systems/rnas/1f27

>  <Rbt.Executable>
rbdock ($Id: //depot/dev/client3/rdock/2013.1/src/exe/rbdock.cxx#4 $)

>  <Rbt.Library>
libRbt.so (2013.1, Build901 2013/11/27)

>  <Rbt.Parameter_File>
/export/apps/rDock/src/rDock_2013.1_src/data/scripts/dock_solv.prm

>  <Rbt.Receptor>
prm/blind_docking_40.prm

>  <SCORE>
-28.9289

>  <SCORE.INTER>
-31.3192

>  <SCORE.INTER.CONST>
1

>  <SCORE.INTER.POLAR>
-3.94037

>  <SCORE.INTER.ROT>
5

>  <SCORE.INTER.SOLV>
19.242

>  <SCORE.INTER.VDW>
-21.0922

>  <SCORE.INTER.norm>
-1.95745

>  <SCORE.INTRA>
2.39026

>  <SCORE.INTRA.DIHEDRAL>
2.8944

>  <SCORE.INTRA.DIHEDRAL.0>
6.87082

>  <SCORE.INTRA.POLAR>
0

>  <SCORE.INTRA.POLAR.0>
0

>  <SCORE.INTRA.REPUL>
0

>  <SCORE.INTRA.REPUL.0>
0

>  <SCORE.INTRA.SOLV>
0.963791

>  <SCORE.INTRA.SOLV.lig_0>
-42.5944

>  <SCORE.INTRA.VDW>
0.461161

>  <SCORE.INTRA.VDW.0>
-1.067

>  <SCORE.INTRA.norm>
0.149391

>  <SCORE.RESTR>
0

>  <SCORE.RESTR.CAVITY>
0

>  <SCORE.RESTR.norm>
0

>  <SCORE.SYSTEM>
0

>  <SCORE.SYSTEM.CONST>
0

>  <SCORE.SYSTEM.DIHEDRAL>
0

>  <SCORE.SYSTEM.SOLV>
0

>  <SCORE.SYSTEM.norm>
0

>  <SCORE.heavy>
16

>  <SCORE.norm>
-1.80806

>  <RMSD>
6.732

$$$$
1f27 biotin aptamer (Xray 1.3A)
 OpenBabel11021811393D
libRbt.so/2013.1/901 2013/11/27
 16 17  0  0  0  0  0  0  0  0999 V2000
   14.3971    3.5474    7.8767 C   0  0  0  0  0  0  0  0  0  0  0  0
   15.4103    3.1511    8.4439 O   0  5  0  0  0  0  0  0  0  0  0  0
   13.8637    2.8476    7.0174 O   0  0  0  0  0  0  0  0  0  0  0  0
   13.7617    4.8710    8.2827 C   0  0  0  0  0  0  0  0  0  0  0  0
   13.7769    5.1334    9.8052 C   0  0  0  0  0  0  0  0  0  0  0  0
   13.2104    3.9592   10.5820 C   0  0  0  0  0  0  0  0  0  0  0  0
   14.2549    2.9370   10.9794 C   0  0  0  0  0  0  0  0  0  0  0  0
   13.8874    2.0823   12.1995 C   0  0  2  0  0  0  0  0  0  0  0  0
   13.4896    3.0451   13.8059 S   0  0  0  0  0  0  0  0  0  0  0  0
   13.6599    1.3765   14.7178 C   0  0  0  0  0  0  0  0  0  0  0  0
   14.7943    0.6204   13.9664 C   0  0  2  0  0  0  0  0  0  0  0  0
   16.1096    1.0113   14.6918 N   0  0  0  0  0  0  0  0  0  0  0  0
   16.9458    1.5821   13.9381 C   0  0  0  0  0  0  0  0  0  0  0  0
   18.0464    2.1764   14.2196 O   0  0  0  0  0  0  0  0  0  0  0  0
   16.4299    1.8844   12.6228 N   0  0  0  0  0  0  0  0  0  0  0  0
   15.0691    1.1895   12.5852 C   0  0  2  0  0  0  0  0  0  0  0  0
  1  2  1  0  0  0  0
  1  3  2  0  0  0  0
  1  4  1  0  0  0  0
  4  5  1  0  0  0  0
  5  6  1  0  0  0  0
  6  7  1  0  0  0  0
  8  7  1  6  0  0  0
  8  9  1  0  0  0  0
  8 16  1  0  0  0  0
  9 10  1  0  0  0  0
 11 10  1  1  0  0  0
 11 12  1  0  0  0  0
 11 16  1  0  0  0  0
 12 13  1  0  0  0  0
 13 14  2  0  0  0  0
 13 15  1  0  0  0  0
 16 15  1  1  0  0  0
M  CHG  1   2  -1
M  END
>  <CHROM.1>
-39.18698488,-51.36746867,90.22324818,155.93748995,-56.91140403,14.74718455
2.63423077,11.74295688,-1.82769638,-0.33978579,1.84755164

>  <Name>
1f27 biotin aptamer (Xray 1.3A)

>  <RI>
0

>  <Rbt.Current_Directory>
/home/itssahil/PROJECTS/Mol_Feturizer/New_Systems/rnas/1f27

>  <Rbt.Executable>
rbdock ($Id: //depot/dev/client3/rdock/2013.1/src/exe/rbdock.cxx#4 $)

>  <Rbt.Library>
libRbt.so (2013.1, Build901 2013/11/27)

>  <Rbt.Parameter_File>
/export/apps/rDock/src/rDock_2013.1_src/data/scripts/dock_solv.prm

>  <Rbt.Receptor>
prm/blind_docking_60.prm

>  <SCORE>
-26.324

>  <SCORE.INTER>
-28.4039

>  <SCORE.INTER.CONST>
1

>  <SCORE.INTER.POLAR>
-3.27899

>  <SCORE.INTER.ROT>
5

>  <SCORE.INTER.SOLV>
19.3461

>  <SCORE.INTER.VDW>
-21.388

>  <SCORE.INTER.norm>
-1.77524

>  <SCORE.INTRA>
2.07986

>  <SCORE.INTRA.DIHEDRAL>
0.115786

>  <SCORE.INTRA.DIHEDRAL.0>
6.87082

>  <SCORE.INTRA.POLAR>
0

>  <SCORE.INTRA.POLAR.0>
0

>  <SCORE.INTRA.REPUL>
0

>  <SCORE.INTRA.REPUL.0>
0

>  <SCORE.INTRA.SOLV>
1.79443

>  <SCORE.INTRA.SOLV.lig_0>
-42.5944

>  <SCORE.INTRA.VDW>
1.12475

>  <SCORE.INTRA.VDW.0>
-1.067

>  <SCORE.INTRA.norm>
0.129991

>  <SCORE.RESTR>
0

>  <SCORE.RESTR.CAVITY>
0

>  <SCORE.RESTR.norm>
0

>  <SCORE.SYSTEM>
0

>  <SCORE.SYSTEM.CONST>
0

>  <SCORE.SYSTEM.DIHEDRAL>
0

>  <SCORE.SYSTEM.SOLV>
0

>  <SCORE.SYSTEM.norm>
0

>  <SCORE.heavy>
16

>  <SCORE.norm>
-1.64525

>  <RMSD>
6.736

$$$$
1f27 biotin aptamer (Xray 1.3A)
 OpenBabel11021811393D
libRbt.so/2013.1/901 2013/11/27
 16 17  0  0  0  0  0  0  0  0999 V2000
   14.3493    3.1378    7.0239 C   0  0  0  0  0  0  0  0  0  0  0  0
   15.0928    2.1811    7.2163 O   0  5  0  0  0  0  0  0  0  0  0  0
   13.7273    3.2264    5.9667 O   0  0  0  0  0  0  0  0  0  0  0  0
   14.1433    4.1780    8.1176 C   0  0  0  0  0  0  0  0  0  0  0  0
   13.9900    3.5782    9.5332 C   0  0  0  0  0  0  0  0  0  0  0  0
   14.0955    4.6443   10.6080 C   0  0  0  0  0  0  0  0  0  0  0  0
   14.8283    4.1805   11.8496 C   0  0  0  0  0  0  0  0  0  0  0  0
   14.0786    3.1363   12.6873 C   0  0  2  0  0  0  0  0  0  0  0  0
   14.4222    3.1715   14.5705 S   0  0  0  0  0  0  0  0  0  0  0  0
   13.5931    1.4533   14.6427 C   0  0  0  0  0  0  0  0  0  0  0  0
   14.0015    0.7525   13.3141 C   0  0  2  0  0  0  0  0  0  0  0  0
   15.3188   -0.0057   13.6287 N   0  0  0  0  0  0  0  0  0  0  0  0
   16.2922    0.3661   12.9164 C   0  0  0  0  0  0  0  0  0  0  0  0
   17.5403    0.0863   13.0054 O   0  0  0  0  0  0  0  0  0  0  0  0
   16.0010    1.5147   12.0896 N   0  0  0  0  0  0  0  0  0  0  0  0
   14.4971    1.7276   12.2602 C   0  0  2  0  0  0  0  0  0  0  0  0
  1  2  1  0  0  0  0
  1  3  2  0  0  0  0
  1  4  1  0  0  0  0
  4  5  1  0  0  0  0
  5  6  1  0  0  0  0
  6  7  1  0  0  0  0
  8  7  1  6  0  0  0
  8  9  1  0  0  0  0
  8 16  1  0  0  0  0
  9 10  1  0  0  0  0
 11 10  1  1  0  0  0
 11 12  1  0  0  0  0
 11 16  1  0  0  0  0
 12 13  1  0  0  0  0
 13 14  2  0  0  0  0
 13 15  1  0  0  0  0
 16 15  1  1  0  0  0
M  CHG  1   2  -1
M  END
>  <CHROM.1>
-41.70450317,167.41657974,-142.34356219,-69.40137110,-149.59962810,14.74916470
2.38446914,11.41835136,-1.79114197,-0.99805815,1.66661964

>  <Name>
1f27 biotin aptamer (Xray 1.3A)

>  <RI>
0

>  <Rbt.Current_Directory>
/home/itssahil/PROJECTS/Mol_Feturizer/New_Systems/rnas/1f27

>  <Rbt.Executable>
rbdock ($Id: //depot/dev/client3/rdock/2013.1/src/exe/rbdock.cxx#4 $)

>  <Rbt.Library>
libRbt.so (2013.1, Build901 2013/11/27)

>  <Rbt.Parameter_File>
/export/apps/rDock/src/rDock_2013.1_src/data/scripts/dock_solv.prm

>  <Rbt.Receptor>
prm/blind_docking_100.prm

>  <SCORE>
-21.0934

>  <SCORE.INTER>
-22.3553

>  <SCORE.INTER.CONST>
1

>  <SCORE.INTER.POLAR>
-1.33241

>  <SCORE.INTER.ROT>
5

>  <SCORE.INTER.SOLV>
24.7124

>  <SCORE.INTER.VDW>
-25.633

>  <SCORE.INTER.norm>
-1.39721

>  <SCORE.INTRA>
1.26191

>  <SCORE.INTRA.DIHEDRAL>
2.76293

>  <SCORE.INTRA.DIHEDRAL.0>
6.87082

>  <SCORE.INTRA.POLAR>
0

>  <SCORE.INTRA.POLAR.0>
0

>  <SCORE.INTRA.REPUL>
0

>  <SCORE.INTRA.REPUL.0>
0

>  <SCORE.INTRA.SOLV>
-0.592201

>  <SCORE.INTRA.SOLV.lig_0>
-42.5944

>  <SCORE.INTRA.VDW>
0.176542

>  <SCORE.INTRA.VDW.0>
-1.067

>  <SCORE.INTRA.norm>
0.0788692

>  <SCORE.RESTR>
0

>  <SCORE.RESTR.CAVITY>
0

>  <SCORE.RESTR.norm>
0

>  <SCORE.SYSTEM>
0

>  <SCORE.SYSTEM.CONST>
0

>  <SCORE.SYSTEM.DIHEDRAL>
0

>  <SCORE.SYSTEM.SOLV>
0

>  <SCORE.SYSTEM.norm>
0

>  <SCORE.heavy>
16

>  <SCORE.norm>
-1.31834

>  <RMSD>
6.742

$$$$
1f27 biotin aptamer (Xray 1.3A)
 OpenBabel11021811393D
libRbt.so/2013.1/901 2013/11/27
 16 17  0  0  0  0  0  0  0  0999 V2000
   14.4285    3.2255    7.3096 C   0  0  0  0  0  0  0  0  0  0  0  0
   13.6260    2.8370    6.4667 O   0  5  0  0  0  0  0  0  0  0  0  0
   15.4861    3.7431    6.9547 O   0  0  0  0  0  0  0  0  0  0  0  0
   14.0873    3.1301    8.7912 C   0  0  0  0  0  0  0  0  0  0  0  0
   13.8115    4.4950    9.4607 C   0  0  0  0  0  0  0  0  0  0  0  0
   13.7566    4.3766   10.9726 C   0  0  0  0  0  0  0  0  0  0  0  0
   15.0529    3.8933   11.5887 C   0  0  0  0  0  0  0  0  0  0  0  0
   14.9163    2.6598   12.4909 C   0  0  2  0  0  0  0  0  0  0  0  0
   14.4897    3.0080   14.3246 S   0  0  0  0  0  0  0  0  0  0  0  0
   14.9890    1.1980   14.6703 C   0  0  0  0  0  0  0  0  0  0  0  0
   16.1708    0.9132   13.6979 C   0  0  2  0  0  0  0  0  0  0  0  0
   17.4571    1.2887   14.4812 N   0  0  0  0  0  0  0  0  0  0  0  0
   18.1345    2.1966   13.9244 C   0  0  0  0  0  0  0  0  0  0  0  0
   19.1445    2.8597   14.3533 O   0  0  0  0  0  0  0  0  0  0  0  0
   17.4821    2.7877   12.7788 N   0  0  0  0  0  0  0  0  0  0  0  0
   16.2497    1.9115   12.5560 C   0  0  2  0  0  0  0  0  0  0  0  0
  1  2  1  0  0  0  0
  1  3  2  0  0  0  0
  1  4  1  0  0  0  0
  4  5  1  0  0  0  0
  5  6  1  0  0  0  0
  6  7  1  0  0  0  0
  8  7  1  6  0  0  0
  8  9  1  0  0  0  0
  8 16  1  0  0  0  0
  9 10  1  0  0  0  0
 11 10  1  1  0  0  0
 11 12  1  0  0  0  0
 11 16  1  0  0  0  0
 12 13  1  0  0  0  0
 13 14  2  0  0  0  0
 13 15  1  0  0  0  0
 16 15  1  1  0  0  0
M  CHG  1   2  -1
M  END
>  <CHROM.1>
-108.96454857,-168.43865951,61.55818443,-125.58208538,-87.02181258,15.51545942
2.81669744,11.71825751,-1.94479095,-0.18089442,1.71497346

>  <Name>
1f27 biotin aptamer (Xray 1.3A)

>  <RI>
0

>  <Rbt.Current_Directory>
/home/itssahil/PROJECTS/Mol_Feturizer/New_Systems/rnas/1f27

>  <Rbt.Executable>
rbdock ($Id: //depot/dev/client3/rdock/2013.1/src/exe/rbdock.cxx#4 $)

>  <Rbt.Library>
libRbt.so (2013.1, Build901 2013/11/27)

>  <Rbt.Parameter_File>
/export/apps/rDock/src/rDock_2013.1_src/data/scripts/dock_solv.prm

>  <Rbt.Receptor>
prm/blind_docking_100.prm

>  <SCORE>
-19.9444

>  <SCORE.INTER>
-21.756

>  <SCORE.INTER.CONST>
1

>  <SCORE.INTER.POLAR>
-0.87178

>  <SCORE.INTER.ROT>
5

>  <SCORE.INTER.SOLV>
22.244

>  <SCORE.INTER.VDW>
-25.9461

>  <SCORE.INTER.norm>
-1.35975

>  <SCORE.INTRA>
1.81161

>  <SCORE.INTRA.DIHEDRAL>
3.36736

>  <SCORE.INTRA.DIHEDRAL.0>
6.87082

>  <SCORE.INTRA.POLAR>
0

>  <SCORE.INTRA.POLAR.0>
0

>  <SCORE.INTRA.REPUL>
0

>  <SCORE.INTRA.REPUL.0>
0

>  <SCORE.INTRA.SOLV>
-0.775386

>  <SCORE.INTRA.SOLV.lig_0>
-42.5944

>  <SCORE.INTRA.VDW>
0.515626

>  <SCORE.INTRA.VDW.0>
-1.067

>  <SCORE.INTRA.norm>
0.113226

>  <SCORE.RESTR>
0

>  <SCORE.RESTR.CAVITY>
0

>  <SCORE.RESTR.norm>
0

>  <SCORE.SYSTEM>
0

>  <SCORE.SYSTEM.CONST>
0

>  <SCORE.SYSTEM.DIHEDRAL>
0

>  <SCORE.SYSTEM.SOLV>
0

>  <SCORE.SYSTEM.norm>
0

>  <SCORE.heavy>
16

>  <SCORE.norm>
-1.24653

>  <RMSD>
6.745

$$$$
1f27 biotin aptamer (Xray 1.3A)
 OpenBabel11021811393D
libRbt.so/2013.1/901 2013/11/27
 16 17  0  0  0  0  0  0  0  0999 V2000
   14.4358    3.5490    7.7829 C   0  0  0  0  0  0  0  0  0  0  0  0
   13.9797    2.9129    6.8380 O   0  5  0  0  0  0  0  0  0  0  0  0
   15.4314    3.1357    8.3748 O   0  0  0  0  0  0  0  0  0  0  0  0
   13.8130    4.8815    8.1791 C   0  0  0  0  0  0  0  0  0  0  0  0
   13.7421    5.1119    9.7052 C   0  0  0  0  0  0  0  0  0  0  0  0
   13.4429    3.8257   10.4529 C   0  0  0  0  0  0  0  0  0  0  0  0
   13.5534    3.9612   11.9572 C   0  0  0  0  0  0  0  0  0  0  0  0
   13.6764    2.6332   12.7159 C   0  0  2  0  0  0  0  0  0  0  0  0
   13.4372    2.7287   14.6131 S   0  0  0  0  0  0  0  0  0  0  0  0
   14.1882    0.9749   14.6856 C   0  0  0  0  0  0  0  0  0  0  0  0
   15.2686    0.9525   13.5651 C   0  0  2  0  0  0  0  0  0  0  0  0
   16.5862    1.4118   14.2449 N   0  0  0  0  0  0  0  0  0  0  0  0
   17.0772    2.4546   13.7304 C   0  0  0  0  0  0  0  0  0  0  0  0
   18.0449    3.1976   14.1243 O   0  0  0  0  0  0  0  0  0  0  0  0
   16.2241    3.0700   12.7399 N   0  0  0  0  0  0  0  0  0  0  0  0
   15.0878    2.0660   12.5481 C   0  0  2  0  0  0  0  0  0  0  0  0
  1  2  1  0  0  0  0
  1  3  2  0  0  0  0
  1  4  1  0  0  0  0
  4  5  1  0  0  0  0
  5  6  1  0  0  0  0
  6  7  1  0  0  0  0
  8  7  1  1  0  0  0
  8  9  1  0  0  0  0
  8 16  1  0  0  0  0
  9 10  1  0  0  0  0
 11 10  1  1  0  0  0
 11 12  1  0  0  0  0
 11 16  1  0  0  0  0
 12 13  1  0  0  0  0
 13 14  2  0  0  0  0
 13 15  1  0  0  0  0
 16 15  1  1  0  0  0
M  CHG  1   2  -1
M  END
>  <CHROM.1>
141.32635030,-36.50151324,171.97960804,-162.53454268,-167.23257123,14.79358615
2.92581898,11.83119345,-1.77604144,-0.15564412,1.81806519

>  <Name>
1f27 biotin aptamer (Xray 1.3A)

>  <RI>
0

>  <Rbt.Current_Directory>
/home/itssahil/PROJECTS/Mol_Feturizer/New_Systems/rnas/1f27

>  <Rbt.Executable>
rbdock ($Id: //depot/dev/client3/rdock/2013.1/src/exe/rbdock.cxx#4 $)

>  <Rbt.Library>
libRbt.so (2013.1, Build901 2013/11/27)

>  <Rbt.Parameter_File>
/export/apps/rDock/src/rDock_2013.1_src/data/scripts/dock_solv.prm

>  <Rbt.Receptor>
prm/blind_docking_40.prm

>  <SCORE>
-27.165

>  <SCORE.INTER>
-27.8305

>  <SCORE.INTER.CONST>
1

>  <SCORE.INTER.POLAR>
-3.1843

>  <SCORE.INTER.ROT>
5

>  <SCORE.INTER.SOLV>
19.3519

>  <SCORE.INTER.VDW>
-21.3233

>  <SCORE.INTER.norm>
-1.73941

>  <SCORE.INTRA>
0.665525

>  <SCORE.INTRA.DIHEDRAL>
-1.70546

>  <SCORE.INTRA.DIHEDRAL.0>
6.87082

>  <SCORE.INTRA.POLAR>
0

>  <SCORE.INTRA.POLAR.0>
0

>  <SCORE.INTRA.REPUL>
0

>  <SCORE.INTRA.REPUL.0>
0

>  <SCORE.INTRA.SOLV>
0.937555

>  <SCORE.INTRA.SOLV.lig_0>
-42.5944

>  <SCORE.INTRA.VDW>
1.04948

>  <SCORE.INTRA.VDW.0>
-1.067

>  <SCORE.INTRA.norm>
0.0415953

>  <SCORE.RESTR>
0

>  <SCORE.RESTR.CAVITY>
0

>  <SCORE.RESTR.norm>
0

>  <SCORE.SYSTEM>
0

>  <SCORE.SYSTEM.CONST>
0

>  <SCORE.SYSTEM.DIHEDRAL>
0

>  <SCORE.SYSTEM.SOLV>
0

>  <SCORE.SYSTEM.norm>
0

>  <SCORE.heavy>
16

>  <SCORE.norm>
-1.69781

>  <RMSD>
6.763

$$$$
1f27 biotin aptamer (Xray 1.3A)
 OpenBabel11021811393D
libRbt.so/2013.1/901 2013/11/27
 16 17  0  0  0  0  0  0  0  0999 V2000
   14.4880    3.1613    6.9826 C   0  0  0  0  0  0  0  0  0  0  0  0
   14.1687    3.4708    5.8391 O   0  5  0  0  0  0  0  0  0  0  0  0
   15.1271    2.1295    7.1812 O   0  0  0  0  0  0  0  0  0  0  0  0
   14.1542    4.0858    8.1464 C   0  0  0  0  0  0  0  0  0  0  0  0
   14.0434    3.3650    9.5085 C   0  0  0  0  0  0  0  0  0  0  0  0
   13.3412    4.2257   10.5425 C   0  0  0  0  0  0  0  0  0  0  0  0
   13.9230    4.0938   11.9345 C   0  0  0  0  0  0  0  0  0  0  0  0
   13.8926    2.6729   12.5129 C   0  0  2  0  0  0  0  0  0  0  0  0
   13.4372    2.5345   14.3674 S   0  0  0  0  0  0  0  0  0  0  0  0
   14.0900    0.7425   14.2811 C   0  0  0  0  0  0  0  0  0  0  0  0
   15.2921    0.7986   13.2937 C   0  0  2  0  0  0  0  0  0  0  0  0
   16.5412    1.0812   14.1706 N   0  0  0  0  0  0  0  0  0  0  0  0
   17.1383    2.1493   13.8610 C   0  0  0  0  0  0  0  0  0  0  0  0
   18.0875    2.7719   14.4569 O   0  0  0  0  0  0  0  0  0  0  0  0
   16.4378    2.9414   12.8764 N   0  0  0  0  0  0  0  0  0  0  0  0
   15.2852    2.0447   12.4252 C   0  0  2  0  0  0  0  0  0  0  0  0
  1  2  1  0  0  0  0
  1  3  2  0  0  0  0
  1  4  1  0  0  0  0
  4  5  1  0  0  0  0
  5  6  1  0  0  0  0
  6  7  1  0  0  0  0
  8  7  1  1  0  0  0
  8  9  1  0  0  0  0
  8 16  1  0  0  0  0
  9 10  1  0  0  0  0
 11 10  1  1  0  0  0
 11 12  1  0  0  0  0
 11 16  1  0  0  0  0
 12 13  1  0  0  0  0
 13 14  2  0  0  0  0
 13 15  1  0  0  0  0
 16 15  1  1  0  0  0
M  CHG  1   2  -1
M  END
>  <CHROM.1>
155.08759525,-163.95696573,-142.50236529,-59.16561914,-139.61540354,14.87489911
2.64328909,11.58312053,-1.75526366,-0.23065328,1.72744470

>  <Name>
1f27 biotin aptamer (Xray 1.3A)

>  <RI>
0

>  <Rbt.Current_Directory>
/home/itssahil/PROJECTS/Mol_Feturizer/New_Systems/rnas/1f27

>  <Rbt.Executable>
rbdock ($Id: //depot/dev/client3/rdock/2013.1/src/exe/rbdock.cxx#4 $)

>  <Rbt.Library>
libRbt.so (2013.1, Build901 2013/11/27)

>  <Rbt.Parameter_File>
/export/apps/rDock/src/rDock_2013.1_src/data/scripts/dock_solv.prm

>  <Rbt.Receptor>
prm/blind_docking_100.prm

>  <SCORE>
-23.5843

>  <SCORE.INTER>
-25.8243

>  <SCORE.INTER.CONST>
1

>  <SCORE.INTER.POLAR>
-2.25521

>  <SCORE.INTER.ROT>
5

>  <SCORE.INTER.SOLV>
21.1533

>  <SCORE.INTER.VDW>
-23.6833

>  <SCORE.INTER.norm>
-1.61402

>  <SCORE.INTRA>
2.21288

>  <SCORE.INTRA.DIHEDRAL>
3.97153

>  <SCORE.INTRA.DIHEDRAL.0>
6.87082

>  <SCORE.INTRA.POLAR>
0

>  <SCORE.INTRA.POLAR.0>
0

>  <SCORE.INTRA.REPUL>
0

>  <SCORE.INTRA.REPUL.0>
0

>  <SCORE.INTRA.SOLV>
-0.695679

>  <SCORE.INTRA.SOLV.lig_0>
-42.5944

>  <SCORE.INTRA.VDW>
0.574959

>  <SCORE.INTRA.VDW.0>
-1.067

>  <SCORE.INTRA.norm>
0.138305

>  <SCORE.RESTR>
0.0271193

>  <SCORE.RESTR.CAVITY>
0.0271193

>  <SCORE.RESTR.norm>
0.00169496

>  <SCORE.SYSTEM>
0

>  <SCORE.SYSTEM.CONST>
0

>  <SCORE.SYSTEM.DIHEDRAL>
0

>  <SCORE.SYSTEM.SOLV>
0

>  <SCORE.SYSTEM.norm>
0

>  <SCORE.heavy>
16

>  <SCORE.norm>
-1.47402

>  <RMSD>
6.768

$$$$
1f27 biotin aptamer (Xray 1.3A)
 OpenBabel11021811393D
libRbt.so/2013.1/901 2013/11/27
 16 17  0  0  0  0  0  0  0  0999 V2000
   14.1608    3.4425    7.6720 C   0  0  0  0  0  0  0  0  0  0  0  0
   13.6614    3.4957    6.5526 O   0  5  0  0  0  0  0  0  0  0  0  0
   14.8002    2.4479    8.0100 O   0  0  0  0  0  0  0  0  0  0  0  0
   14.0482    4.6323    8.6166 C   0  0  0  0  0  0  0  0  0  0  0  0
   13.3571    4.3045    9.9590 C   0  0  0  0  0  0  0  0  0  0  0  0
   14.3262    4.3894   11.1237 C   0  0  0  0  0  0  0  0  0  0  0  0
   15.2743    3.2114   11.2083 C   0  0  0  0  0  0  0  0  0  0  0  0
   15.0165    2.2609   12.3849 C   0  0  2  0  0  0  0  0  0  0  0  0
   14.8740    3.0828   14.1082 S   0  0  0  0  0  0  0  0  0  0  0  0
   15.0670    1.3296   14.8389 C   0  0  0  0  0  0  0  0  0  0  0  0
   16.0569    0.6015   13.8833 C   0  0  2  0  0  0  0  0  0  0  0  0
   17.4714    0.8665   14.4648 N   0  0  0  0  0  0  0  0  0  0  0  0
   18.2365    1.4708   13.6632 C   0  0  0  0  0  0  0  0  0  0  0  0
   19.3938    1.9893   13.8520 O   0  0  0  0  0  0  0  0  0  0  0  0
   17.5776    1.9178   12.4575 N   0  0  0  0  0  0  0  0  0  0  0  0
   16.1875    1.2871   12.5342 C   0  0  2  0  0  0  0  0  0  0  0  0
  1  2  1  0  0  0  0
  1  3  2  0  0  0  0
  1  4  1  0  0  0  0
  4  5  1  0  0  0  0
  5  6  1  0  0  0  0
  6  7  1  0  0  0  0
  8  7  1  6  0  0  0
  8  9  1  0  0  0  0
  8 16  1  0  0  0  0
  9 10  1  0  0  0  0
 11 10  1  1  0  0  0
 11 12  1  0  0  0  0
 11 16  1  0  0  0  0
 12 13  1  0  0  0  0
 13 14  2  0  0  0  0
 13 15  1  0  0  0  0
 16 15  1  1  0  0  0
M  CHG  1   2  -1
M  END
>  <CHROM.1>
121.75902441,112.31491713,-75.46314021,-109.59619167,-51.03783099,15.55628958
2.59559674,11.73367677,-2.07477928,-0.45218435,1.67679784

>  <Name>
1f27 biotin aptamer (Xray 1.3A)

>  <RI>
224

>  <Rbt.Current_Directory>
/home/itssahil/PROJECTS/Mol_Feturizer/New_Systems/rnas/1f27

>  <Rbt.Executable>
rbdock ($Id: //depot/dev/client3/rdock/2013.1/src/exe/rbdock.cxx#4 $)

>  <Rbt.Library>
libRbt.so (2013.1, Build901 2013/11/27)

>  <Rbt.Parameter_File>
/export/apps/rDock/src/rDock_2013.1_src/data/scripts/dock_solv.prm

>  <Rbt.Receptor>
prm/blind_docking_80.prm

>  <SCORE>
-21.1967

>  <SCORE.INTER>
-24.7903

>  <SCORE.INTER.CONST>
1

>  <SCORE.INTER.POLAR>
-2.09274

>  <SCORE.INTER.ROT>
5

>  <SCORE.INTER.SOLV>
19.2584

>  <SCORE.INTER.VDW>
-22.9039

>  <SCORE.INTER.norm>
-1.54939

>  <SCORE.INTRA>
3.59364

>  <SCORE.INTRA.DIHEDRAL>
6.60349

>  <SCORE.INTRA.DIHEDRAL.0>
6.87082

>  <SCORE.INTRA.POLAR>
0

>  <SCORE.INTRA.POLAR.0>
0

>  <SCORE.INTRA.REPUL>
0

>  <SCORE.INTRA.REPUL.0>
0

>  <SCORE.INTRA.SOLV>
0.361188

>  <SCORE.INTRA.SOLV.lig_0>
-42.5944

>  <SCORE.INTRA.VDW>
0.1113

>  <SCORE.INTRA.VDW.0>
-1.067

>  <SCORE.INTRA.norm>
0.224602

>  <SCORE.RESTR>
0

>  <SCORE.RESTR.CAVITY>
0

>  <SCORE.RESTR.norm>
0

>  <SCORE.SYSTEM>
0

>  <SCORE.SYSTEM.CONST>
0

>  <SCORE.SYSTEM.DIHEDRAL>
0

>  <SCORE.SYSTEM.SOLV>
0

>  <SCORE.SYSTEM.norm>
0

>  <SCORE.heavy>
16

>  <SCORE.norm>
-1.32479

>  <RMSD>
6.771

$$$$
1f27 biotin aptamer (Xray 1.3A)
 OpenBabel11021811393D
libRbt.so/2013.1/901 2013/11/27
 16 17  0  0  0  0  0  0  0  0999 V2000
   14.4897    3.1367    6.9506 C   0  0  0  0  0  0  0  0  0  0  0  0
   14.2013    3.4210    5.7924 O   0  5  0  0  0  0  0  0  0  0  0  0
   15.1174    2.1065    7.1895 O   0  0  0  0  0  0  0  0  0  0  0  0
   14.1318    4.0900    8.0836 C   0  0  0  0  0  0  0  0  0  0  0  0
   14.0421    3.4123    9.4692 C   0  0  0  0  0  0  0  0  0  0  0  0
   13.4880    4.3565   10.5201 C   0  0  0  0  0  0  0  0  0  0  0  0
   14.1137    4.1737   11.8871 C   0  0  0  0  0  0  0  0  0  0  0  0
   13.9903    2.7587   12.4675 C   0  0  2  0  0  0  0  0  0  0  0  0
   13.4788    2.6521   14.3094 S   0  0  0  0  0  0  0  0  0  0  0  0
   14.0347    0.8268   14.2445 C   0  0  0  0  0  0  0  0  0  0  0  0
   15.2640    0.8137   13.2895 C   0  0  2  0  0  0  0  0  0  0  0  0
   16.5029    1.0309   14.1990 N   0  0  0  0  0  0  0  0  0  0  0  0
   17.1655    2.0636   13.9032 C   0  0  0  0  0  0  0  0  0  0  0  0
   18.1311    2.6357   14.5230 O   0  0  0  0  0  0  0  0  0  0  0  0
   16.5358    2.8892   12.8985 N   0  0  0  0  0  0  0  0  0  0  0  0
   15.3484    2.0551   12.4185 C   0  0  2  0  0  0  0  0  0  0  0  0
  1  2  1  0  0  0  0
  1  3  2  0  0  0  0
  1  4  1  0  0  0  0
  4  5  1  0  0  0  0
  5  6  1  0  0  0  0
  6  7  1  0  0  0  0
  8  7  1  1  0  0  0
  8  9  1  0  0  0  0
  8 16  1  0  0  0  0
  9 10  1  0  0  0  0
 11 10  1  1  0  0  0
 11 12  1  0  0  0  0
 11 16  1  0  0  0  0
 12 13  1  0  0  0  0
 13 14  2  0  0  0  0
 13 15  1  0  0  0  0
 16 15  1  1  0  0  0
M  CHG  1   2  -1
M  END
>  <CHROM.1>
157.59123648,-171.64921516,-144.19190792,-57.28190937,-135.40540688,14.91186696
2.65906176,11.56592900,-1.76530415,-0.28543223,1.71289663

>  <Name>
1f27 biotin aptamer (Xray 1.3A)

>  <RI>
0

>  <Rbt.Current_Directory>
/home/itssahil/PROJECTS/Mol_Feturizer/New_Systems/rnas/1f27

>  <Rbt.Executable>
rbdock ($Id: //depot/dev/client3/rdock/2013.1/src/exe/rbdock.cxx#4 $)

>  <Rbt.Library>
libRbt.so (2013.1, Build901 2013/11/27)

>  <Rbt.Parameter_File>
/export/apps/rDock/src/rDock_2013.1_src/data/scripts/dock_solv.prm

>  <Rbt.Receptor>
prm/blind_docking_100.prm

>  <SCORE>
-23.7311

>  <SCORE.INTER>
-25.8339

>  <SCORE.INTER.CONST>
1

>  <SCORE.INTER.POLAR>
-2.28162

>  <SCORE.INTER.ROT>
5

>  <SCORE.INTER.SOLV>
21.2901

>  <SCORE.INTER.VDW>
-23.6472

>  <SCORE.INTER.norm>
-1.61462

>  <SCORE.INTRA>
2.0854

>  <SCORE.INTRA.DIHEDRAL>
3.61534

>  <SCORE.INTRA.DIHEDRAL.0>
6.87082

>  <SCORE.INTRA.POLAR>
0

>  <SCORE.INTRA.POLAR.0>
0

>  <SCORE.INTRA.REPUL>
0

>  <SCORE.INTRA.REPUL.0>
0

>  <SCORE.INTRA.SOLV>
-0.724229

>  <SCORE.INTRA.SOLV.lig_0>
-42.5944

>  <SCORE.INTRA.VDW>
0.639848

>  <SCORE.INTRA.VDW.0>
-1.067

>  <SCORE.INTRA.norm>
0.130338

>  <SCORE.RESTR>
0.0174235

>  <SCORE.RESTR.CAVITY>
0.0174235

>  <SCORE.RESTR.norm>
0.00108897

>  <SCORE.SYSTEM>
0

>  <SCORE.SYSTEM.CONST>
0

>  <SCORE.SYSTEM.DIHEDRAL>
0

>  <SCORE.SYSTEM.SOLV>
0

>  <SCORE.SYSTEM.norm>
0

>  <SCORE.heavy>
16

>  <SCORE.norm>
-1.48319

>  <RMSD>
6.773

$$$$
1f27 biotin aptamer (Xray 1.3A)
 OpenBabel11021811393D
libRbt.so/2013.1/901 2013/11/27
 16 17  0  0  0  0  0  0  0  0999 V2000
   14.1919    3.3906    7.4004 C   0  0  0  0  0  0  0  0  0  0  0  0
   14.7251    2.4255    7.9385 O   0  5  0  0  0  0  0  0  0  0  0  0
   13.5723    3.2397    6.3489 O   0  0  0  0  0  0  0  0  0  0  0  0
   14.2381    4.7596    8.0670 C   0  0  0  0  0  0  0  0  0  0  0  0
   13.6696    4.7776    9.5035 C   0  0  0  0  0  0  0  0  0  0  0  0
   14.2288    3.6429   10.3417 C   0  0  0  0  0  0  0  0  0  0  0  0
   13.9594    3.7968   11.8241 C   0  0  0  0  0  0  0  0  0  0  0  0
   14.0380    2.4942   12.6312 C   0  0  2  0  0  0  0  0  0  0  0  0
   13.6769    2.6485   14.5051 S   0  0  0  0  0  0  0  0  0  0  0  0
   14.4278    0.9021   14.6819 C   0  0  0  0  0  0  0  0  0  0  0  0
   15.5781    0.8501   13.6343 C   0  0  2  0  0  0  0  0  0  0  0  0
   16.8477    1.3381   14.3821 N   0  0  0  0  0  0  0  0  0  0  0  0
   17.3670    2.3668   13.8671 C   0  0  0  0  0  0  0  0  0  0  0  0
   18.3049    3.1273   14.2983 O   0  0  0  0  0  0  0  0  0  0  0  0
   16.5773    2.9457   12.8047 N   0  0  0  0  0  0  0  0  0  0  0  0
   15.4592    1.9298   12.5726 C   0  0  2  0  0  0  0  0  0  0  0  0
  1  2  1  0  0  0  0
  1  3  2  0  0  0  0
  1  4  1  0  0  0  0
  4  5  1  0  0  0  0
  5  6  1  0  0  0  0
  6  7  1  0  0  0  0
  8  7  1  6  0  0  0
  8  9  1  0  0  0  0
  8 16  1  0  0  0  0
  9 10  1  0  0  0  0
 11 10  1  1  0  0  0
 11 12  1  0  0  0  0
 11 16  1  0  0  0  0
 12 13  1  0  0  0  0
 13 14  2  0  0  0  0
 13 15  1  0  0  0  0
 16 15  1  1  0  0  0
M  CHG  1   2  -1
M  END
>  <CHROM.1>
-55.95033668,47.91693959,166.72044921,158.94986353,-179.12348729,14.96777430
2.79038922,11.73608457,-1.84134028,-0.05753459,1.80016548

>  <Name>
1f27 biotin aptamer (Xray 1.3A)

>  <RI>
224

>  <Rbt.Current_Directory>
/home/itssahil/PROJECTS/Mol_Feturizer/New_Systems/rnas/1f27

>  <Rbt.Executable>
rbdock ($Id: //depot/dev/client3/rdock/2013.1/src/exe/rbdock.cxx#4 $)

>  <Rbt.Library>
libRbt.so (2013.1, Build901 2013/11/27)

>  <Rbt.Parameter_File>
/export/apps/rDock/src/rDock_2013.1_src/data/scripts/dock_solv.prm

>  <Rbt.Receptor>
prm/blind_docking_80.prm

>  <SCORE>
-26.5705

>  <SCORE.INTER>
-27.2053

>  <SCORE.INTER.CONST>
1

>  <SCORE.INTER.POLAR>
-2.50458

>  <SCORE.INTER.ROT>
5

>  <SCORE.INTER.SOLV>
20.3449

>  <SCORE.INTER.VDW>
-23.5032

>  <SCORE.INTER.norm>
-1.70033

>  <SCORE.INTRA>
0.60751

>  <SCORE.INTRA.DIHEDRAL>
-2.57897

>  <SCORE.INTRA.DIHEDRAL.0>
6.87082

>  <SCORE.INTRA.POLAR>
0

>  <SCORE.INTRA.POLAR.0>
0

>  <SCORE.INTRA.REPUL>
0

>  <SCORE.INTRA.REPUL.0>
0

>  <SCORE.INTRA.SOLV>
0.706624

>  <SCORE.INTRA.SOLV.lig_0>
-42.5944

>  <SCORE.INTRA.VDW>
1.54368

>  <SCORE.INTRA.VDW.0>
-1.067

>  <SCORE.INTRA.norm>
0.0379694

>  <SCORE.RESTR>
0.0272597

>  <SCORE.RESTR.CAVITY>
0.0272597

>  <SCORE.RESTR.norm>
0.00170373

>  <SCORE.SYSTEM>
0

>  <SCORE.SYSTEM.CONST>
0

>  <SCORE.SYSTEM.DIHEDRAL>
0

>  <SCORE.SYSTEM.SOLV>
0

>  <SCORE.SYSTEM.norm>
0

>  <SCORE.heavy>
16

>  <SCORE.norm>
-1.66066

>  <RMSD>
6.777

$$$$
1f27 biotin aptamer (Xray 1.3A)
 OpenBabel11021811393D
libRbt.so/2013.1/901 2013/11/27
 16 17  0  0  0  0  0  0  0  0999 V2000
   13.6099    2.2420   14.5379 C   0  0  0  0  0  0  0  0  0  0  0  0
   12.4900    2.6482   14.2444 O   0  5  0  0  0  0  0  0  0  0  0  0
   13.7673    1.5580   15.5478 O   0  0  0  0  0  0  0  0  0  0  0  0
   14.7912    2.5253   13.6187 C   0  0  0  0  0  0  0  0  0  0  0  0
   15.2716    1.2950   12.8171 C   0  0  0  0  0  0  0  0  0  0  0  0
   15.9336    0.2653   13.7140 C   0  0  0  0  0  0  0  0  0  0  0  0
   17.3090    0.6778   14.1952 C   0  0  0  0  0  0  0  0  0  0  0  0
   18.4473    0.4026   13.2038 C   0  0  2  0  0  0  0  0  0  0  0  0
   19.0122   -1.4214   13.0645 S   0  0  0  0  0  0  0  0  0  0  0  0
   20.5533   -0.7597   12.1523 C   0  0  0  0  0  0  0  0  0  0  0  0
   20.8790    0.5967   12.8431 C   0  0  2  0  0  0  0  0  0  0  0  0
   21.8600    0.2542   13.9961 N   0  0  0  0  0  0  0  0  0  0  0  0
   21.4243    0.5771   15.1359 C   0  0  0  0  0  0  0  0  0  0  0  0
   21.8770    0.3065   16.3045 O   0  0  0  0  0  0  0  0  0  0  0  0
   20.0558    1.0404   15.1242 N   0  0  0  0  0  0  0  0  0  0  0  0
   19.7098    1.1496   13.6395 C   0  0  2  0  0  0  0  0  0  0  0  0
  1  2  1  0  0  0  0
  1  3  2  0  0  0  0
  1  4  1  0  0  0  0
  4  5  1  0  0  0  0
  5  6  1  0  0  0  0
  6  7  1  0  0  0  0
  8  7  1  1  0  0  0
  8  9  1  0  0  0  0
  8 16  1  0  0  0  0
  9 10  1  0  0  0  0
 11 10  1  1  0  0  0
 11 12  1  0  0  0  0
 11 16  1  0  0  0  0
 12 13  1  0  0  0  0
 13 14  2  0  0  0  0
 13 15  1  0  0  0  0
 16 15  1  1  0  0  0
M  CHG  1   2  -1
M  END
>  <CHROM.1>
-106.12717770,-69.70427151,-73.16662238,-82.81905500,-75.97572720,17.98211989
0.67321920,13.97492629,-2.97988775,0.21475596,-2.14530712

>  <Name>
1f27 biotin aptamer (Xray 1.3A)

>  <RI>
0

>  <Rbt.Current_Directory>
/home/itssahil/PROJECTS/Mol_Feturizer/New_Systems/rnas/1f27

>  <Rbt.Executable>
rbdock ($Id: //depot/dev/client3/rdock/2013.1/src/exe/rbdock.cxx#4 $)

>  <Rbt.Library>
libRbt.so (2013.1, Build901 2013/11/27)

>  <Rbt.Parameter_File>
/export/apps/rDock/src/rDock_2013.1_src/data/scripts/dock_solv.prm

>  <Rbt.Receptor>
prm/blind_docking_40.prm

>  <SCORE>
-18.4978

>  <SCORE.INTER>
-18.9497

>  <SCORE.INTER.CONST>
1

>  <SCORE.INTER.POLAR>
-1.08332

>  <SCORE.INTER.ROT>
5

>  <SCORE.INTER.SOLV>
15.943

>  <SCORE.INTER.VDW>
-21.2698

>  <SCORE.INTER.norm>
-1.18436

>  <SCORE.INTRA>
-0.28491

>  <SCORE.INTRA.DIHEDRAL>
-1.64779

>  <SCORE.INTRA.DIHEDRAL.0>
6.87082

>  <SCORE.INTRA.POLAR>
0

>  <SCORE.INTRA.POLAR.0>
0

>  <SCORE.INTRA.REPUL>
0

>  <SCORE.INTRA.REPUL.0>
0

>  <SCORE.INTRA.SOLV>
0.444991

>  <SCORE.INTRA.SOLV.lig_0>
-42.5944

>  <SCORE.INTRA.VDW>
0.316489

>  <SCORE.INTRA.VDW.0>
-1.067

>  <SCORE.INTRA.norm>
-0.0178069

>  <SCORE.RESTR>
0.736799

>  <SCORE.RESTR.CAVITY>
0.736799

>  <SCORE.RESTR.norm>
0.04605

>  <SCORE.SYSTEM>
0

>  <SCORE.SYSTEM.CONST>
0

>  <SCORE.SYSTEM.DIHEDRAL>
0

>  <SCORE.SYSTEM.SOLV>
0

>  <SCORE.SYSTEM.norm>
0

>  <SCORE.heavy>
16

>  <SCORE.norm>
-1.15612

>  <RMSD>
6.782

$$$$
1f27 biotin aptamer (Xray 1.3A)
 OpenBabel11021811393D
libRbt.so/2013.1/901 2013/11/27
 16 17  0  0  0  0  0  0  0  0999 V2000
   14.7299    3.3641    6.7094 C   0  0  0  0  0  0  0  0  0  0  0  0
   14.4817    3.0166    5.5592 O   0  5  0  0  0  0  0  0  0  0  0  0
   15.4314    4.3538    6.9116 O   0  0  0  0  0  0  0  0  0  0  0  0
   14.1157    2.6135    7.8842 C   0  0  0  0  0  0  0  0  0  0  0  0
   14.0084    3.4520    9.1774 C   0  0  0  0  0  0  0  0  0  0  0  0
   13.6260    2.5956   10.3704 C   0  0  0  0  0  0  0  0  0  0  0  0
   13.9106    3.2550   11.7038 C   0  0  0  0  0  0  0  0  0  0  0  0
   13.8695    2.3092   12.9114 C   0  0  2  0  0  0  0  0  0  0  0  0
   14.3109    3.0919   14.6020 S   0  0  0  0  0  0  0  0  0  0  0  0
   14.4762    1.3077   15.2610 C   0  0  0  0  0  0  0  0  0  0  0  0
   15.0654    0.4923   14.0731 C   0  0  2  0  0  0  0  0  0  0  0  0
   16.6069    0.5656   14.2390 N   0  0  0  0  0  0  0  0  0  0  0  0
   17.1914    1.0949   13.2535 C   0  0  0  0  0  0  0  0  0  0  0  0
   18.4114    1.4625   13.1117 O   0  0  0  0  0  0  0  0  0  0  0  0
   16.2876    1.6539   12.2745 N   0  0  0  0  0  0  0  0  0  0  0  0
   14.9046    1.1957   12.7366 C   0  0  2  0  0  0  0  0  0  0  0  0
  1  2  1  0  0  0  0
  1  3  2  0  0  0  0
  1  4  1  0  0  0  0
  4  5  1  0  0  0  0
  5  6  1  0  0  0  0
  6  7  1  0  0  0  0
  8  7  1  6  0  0  0
  8  9  1  0  0  0  0
  8 16  1  0  0  0  0
  9 10  1  0  0  0  0
 11 10  1  1  0  0  0
 11 12  1  0  0  0  0
 11 16  1  0  0  0  0
 12 13  1  0  0  0  0
 13 14  2  0  0  0  0
 13 15  1  0  0  0  0
 16 15  1  1  0  0  0
M  CHG  1   2  -1
M  END
>  <CHROM.1>
-155.72751750,-169.84397451,162.53268143,-165.51041962,177.04675572,15.06214782
2.32245273,11.48999355,-1.71295814,-0.41459749,1.75775340

>  <Name>
1f27 biotin aptamer (Xray 1.3A)

>  <RI>
0

>  <Rbt.Current_Directory>
/home/itssahil/PROJECTS/Mol_Feturizer/New_Systems/rnas/1f27

>  <Rbt.Executable>
rbdock ($Id: //depot/dev/client3/rdock/2013.1/src/exe/rbdock.cxx#4 $)

>  <Rbt.Library>
libRbt.so (2013.1, Build901 2013/11/27)

>  <Rbt.Parameter_File>
/export/apps/rDock/src/rDock_2013.1_src/data/scripts/dock_solv.prm

>  <Rbt.Receptor>
prm/pocket_docking_7.prm

>  <SCORE>
-19.6596

>  <SCORE.INTER>
-18.6601

>  <SCORE.INTER.CONST>
1

>  <SCORE.INTER.POLAR>
-0.919863

>  <SCORE.INTER.ROT>
5

>  <SCORE.INTER.SOLV>
21.1116

>  <SCORE.INTER.VDW>
-23.3444

>  <SCORE.INTER.norm>
-1.16626

>  <SCORE.INTRA>
-0.999492

>  <SCORE.INTRA.DIHEDRAL>
-2.97239

>  <SCORE.INTRA.DIHEDRAL.0>
6.87082

>  <SCORE.INTRA.POLAR>
0

>  <SCORE.INTRA.POLAR.0>
0

>  <SCORE.INTRA.REPUL>
0

>  <SCORE.INTRA.REPUL.0>
0

>  <SCORE.INTRA.SOLV>
-0.53626

>  <SCORE.INTRA.SOLV.lig_0>
-42.5944

>  <SCORE.INTRA.VDW>
0.754831

>  <SCORE.INTRA.VDW.0>
-1.067

>  <SCORE.INTRA.norm>
-0.0624682

>  <SCORE.RESTR>
0

>  <SCORE.RESTR.CAVITY>
0

>  <SCORE.RESTR.norm>
0

>  <SCORE.SYSTEM>
0

>  <SCORE.SYSTEM.CONST>
0

>  <SCORE.SYSTEM.DIHEDRAL>
0

>  <SCORE.SYSTEM.SOLV>
0

>  <SCORE.SYSTEM.norm>
0

>  <SCORE.heavy>
16

>  <SCORE.norm>
-1.22872

>  <RMSD>
6.787

$$$$
1f27 biotin aptamer (Xray 1.3A)
 OpenBabel11021811393D
libRbt.so/2013.1/901 2013/11/27
 16 17  0  0  0  0  0  0  0  0999 V2000
   13.1037    3.4093   12.2526 C   0  0  0  0  0  0  0  0  0  0  0  0
   13.9693    4.0506   11.6653 O   0  5  0  0  0  0  0  0  0  0  0  0
   11.9177    3.5958   11.9861 O   0  0  0  0  0  0  0  0  0  0  0  0
   13.4981    2.3364   13.2595 C   0  0  0  0  0  0  0  0  0  0  0  0
   14.7602    1.5379   12.8637 C   0  0  0  0  0  0  0  0  0  0  0  0
   15.1406    0.5266   13.9293 C   0  0  0  0  0  0  0  0  0  0  0  0
   16.4818   -0.1331   13.6852 C   0  0  0  0  0  0  0  0  0  0  0  0
   17.6792    0.8262   13.6773 C   0  0  2  0  0  0  0  0  0  0  0  0
   17.9672    1.7909   12.0487 S   0  0  0  0  0  0  0  0  0  0  0  0
   19.6947    2.2216   12.7379 C   0  0  0  0  0  0  0  0  0  0  0  0
   20.1374    0.9591   13.5337 C   0  0  2  0  0  0  0  0  0  0  0  0
   20.9003    0.0692   12.5162 N   0  0  0  0  0  0  0  0  0  0  0  0
   20.3800   -1.0701   12.3596 C   0  0  0  0  0  0  0  0  0  0  0  0
   20.6343   -1.9875   11.5009 O   0  0  0  0  0  0  0  0  0  0  0  0
   19.1125   -1.2270   13.0351 N   0  0  0  0  0  0  0  0  0  0  0  0
   18.9774    0.0410   13.8777 C   0  0  2  0  0  0  0  0  0  0  0  0
  1  2  1  0  0  0  0
  1  3  2  0  0  0  0
  1  4  1  0  0  0  0
  4  5  1  0  0  0  0
  5  6  1  0  0  0  0
  6  7  1  0  0  0  0
  8  7  1  6  0  0  0
  8  9  1  0  0  0  0
  8 16  1  0  0  0  0
  9 10  1  0  0  0  0
 11 10  1  6  0  0  0
 11 12  1  0  0  0  0
 11 16  1  0  0  0  0
 12 13  1  0  0  0  0
 13 14  2  0  0  0  0
 13 15  1  0  0  0  0
 16 15  1  6  0  0  0
M  CHG  1   2  -1
M  END
>  <CHROM.1>
-36.83570697,177.51180171,-171.37344775,61.89264821,-80.66689496,17.17689540
1.12205436,12.71968501,-2.69498933,-0.15565279,2.77232652

>  <Name>
1f27 biotin aptamer (Xray 1.3A)

>  <RI>
0

>  <Rbt.Current_Directory>
/home/itssahil/PROJECTS/Mol_Feturizer/New_Systems/rnas/1f27

>  <Rbt.Executable>
rbdock ($Id: //depot/dev/client3/rdock/2013.1/src/exe/rbdock.cxx#4 $)

>  <Rbt.Library>
libRbt.so (2013.1, Build901 2013/11/27)

>  <Rbt.Parameter_File>
/export/apps/rDock/src/rDock_2013.1_src/data/scripts/dock_solv.prm

>  <Rbt.Receptor>
prm/blind_docking_40.prm

>  <SCORE>
-23.3623

>  <SCORE.INTER>
-21.6023

>  <SCORE.INTER.CONST>
1

>  <SCORE.INTER.POLAR>
-1.03621

>  <SCORE.INTER.ROT>
5

>  <SCORE.INTER.SOLV>
12.7219

>  <SCORE.INTER.VDW>
-22.1215

>  <SCORE.INTER.norm>
-1.35015

>  <SCORE.INTRA>
-1.75998

>  <SCORE.INTRA.DIHEDRAL>
-3.53451

>  <SCORE.INTRA.DIHEDRAL.0>
6.87082

>  <SCORE.INTRA.POLAR>
0

>  <SCORE.INTRA.POLAR.0>
0

>  <SCORE.INTRA.REPUL>
0

>  <SCORE.INTRA.REPUL.0>
0

>  <SCORE.INTRA.SOLV>
-0.702097

>  <SCORE.INTRA.SOLV.lig_0>
-42.5944

>  <SCORE.INTRA.VDW>
0.358325

>  <SCORE.INTRA.VDW.0>
-1.067

>  <SCORE.INTRA.norm>
-0.109999

>  <SCORE.RESTR>
0

>  <SCORE.RESTR.CAVITY>
0

>  <SCORE.RESTR.norm>
0

>  <SCORE.SYSTEM>
0

>  <SCORE.SYSTEM.CONST>
0

>  <SCORE.SYSTEM.DIHEDRAL>
0

>  <SCORE.SYSTEM.SOLV>
0

>  <SCORE.SYSTEM.norm>
0

>  <SCORE.heavy>
16

>  <SCORE.norm>
-1.46014

>  <RMSD>
6.789

$$$$
1f27 biotin aptamer (Xray 1.3A)
 OpenBabel11021811393D
libRbt.so/2013.1/901 2013/11/27
 16 17  0  0  0  0  0  0  0  0999 V2000
   14.2636    3.9760    7.8576 C   0  0  0  0  0  0  0  0  0  0  0  0
   13.6819    3.6699    6.8216 O   0  5  0  0  0  0  0  0  0  0  0  0
   15.3383    3.4464    8.1352 O   0  0  0  0  0  0  0  0  0  0  0  0
   13.6917    5.0583    8.7643 C   0  0  0  0  0  0  0  0  0  0  0  0
   14.0309    4.8681   10.2595 C   0  0  0  0  0  0  0  0  0  0  0  0
   13.7308    3.4559   10.7270 C   0  0  0  0  0  0  0  0  0  0  0  0
   14.1295    3.1976   12.1651 C   0  0  0  0  0  0  0  0  0  0  0  0
   14.6377    1.7776   12.4471 C   0  0  2  0  0  0  0  0  0  0  0  0
   14.3979    1.1437   14.2377 S   0  0  0  0  0  0  0  0  0  0  0  0
   15.6244   -0.2497   13.7918 C   0  0  0  0  0  0  0  0  0  0  0  0
   16.6552    0.4126   12.8316 C   0  0  2  0  0  0  0  0  0  0  0  0
   17.7897    0.9521   13.7433 N   0  0  0  0  0  0  0  0  0  0  0  0
   17.9537    2.2002   13.6521 C   0  0  0  0  0  0  0  0  0  0  0  0
   18.6688    2.9969   14.3575 O   0  0  0  0  0  0  0  0  0  0  0  0
   16.9506    2.8602   12.8485 N   0  0  0  0  0  0  0  0  0  0  0  0
   16.1513    1.7133   12.2305 C   0  0  2  0  0  0  0  0  0  0  0  0
  1  2  1  0  0  0  0
  1  3  2  0  0  0  0
  1  4  1  0  0  0  0
  4  5  1  0  0  0  0
  5  6  1  0  0  0  0
  6  7  1  0  0  0  0
  8  7  1  1  0  0  0
  8  9  1  0  0  0  0
  8 16  1  0  0  0  0
  9 10  1  0  0  0  0
 11 10  1  1  0  0  0
 11 12  1  0  0  0  0
 11 16  1  0  0  0  0
 12 13  1  0  0  0  0
 13 14  2  0  0  0  0
 13 15  1  0  0  0  0
 16 15  1  1  0  0  0
M  CHG  1   2  -1
M  END
>  <CHROM.1>
150.32352857,-49.31393371,176.35404999,-145.37686998,-153.11044654,15.41363968
2.50782812,11.72777309,-1.97738747,0.20971885,2.12003900

>  <Name>
1f27 biotin aptamer (Xray 1.3A)

>  <RI>
0

>  <Rbt.Current_Directory>
/home/itssahil/PROJECTS/Mol_Feturizer/New_Systems/rnas/1f27

>  <Rbt.Executable>
rbdock ($Id: //depot/dev/client3/rdock/2013.1/src/exe/rbdock.cxx#4 $)

>  <Rbt.Library>
libRbt.so (2013.1, Build901 2013/11/27)

>  <Rbt.Parameter_File>
/export/apps/rDock/src/rDock_2013.1_src/data/scripts/dock_solv.prm

>  <Rbt.Receptor>
prm/blind_docking_100.prm

>  <SCORE>
-23.7754

>  <SCORE.INTER>
-25.2671

>  <SCORE.INTER.CONST>
1

>  <SCORE.INTER.POLAR>
-2.14852

>  <SCORE.INTER.ROT>
5

>  <SCORE.INTER.SOLV>
18.4039

>  <SCORE.INTER.VDW>
-22.751

>  <SCORE.INTER.norm>
-1.5792

>  <SCORE.INTRA>
1.49171

>  <SCORE.INTRA.DIHEDRAL>
1.11896

>  <SCORE.INTRA.DIHEDRAL.0>
6.87082

>  <SCORE.INTRA.POLAR>
0

>  <SCORE.INTRA.POLAR.0>
0

>  <SCORE.INTRA.REPUL>
0

>  <SCORE.INTRA.REPUL.0>
0

>  <SCORE.INTRA.SOLV>
0.672263

>  <SCORE.INTRA.SOLV.lig_0>
-42.5944

>  <SCORE.INTRA.VDW>
0.596104

>  <SCORE.INTRA.VDW.0>
-1.067

>  <SCORE.INTRA.norm>
0.093232

>  <SCORE.RESTR>
0

>  <SCORE.RESTR.CAVITY>
0

>  <SCORE.RESTR.norm>
0

>  <SCORE.SYSTEM>
0

>  <SCORE.SYSTEM.CONST>
0

>  <SCORE.SYSTEM.DIHEDRAL>
0

>  <SCORE.SYSTEM.SOLV>
0

>  <SCORE.SYSTEM.norm>
0

>  <SCORE.heavy>
16

>  <SCORE.norm>
-1.48596

>  <RMSD>
6.790

$$$$
1f27 biotin aptamer (Xray 1.3A)
 OpenBabel11021811393D
libRbt.so/2013.1/901 2013/11/27
 16 17  0  0  0  0  0  0  0  0999 V2000
   14.1584    3.4354    7.3916 C   0  0  0  0  0  0  0  0  0  0  0  0
   14.6773    2.4581    7.9217 O   0  5  0  0  0  0  0  0  0  0  0  0
   13.5542    3.3059    6.3283 O   0  0  0  0  0  0  0  0  0  0  0  0
   14.2028    4.7929    8.0814 C   0  0  0  0  0  0  0  0  0  0  0  0
   13.6381    4.7847    9.5195 C   0  0  0  0  0  0  0  0  0  0  0  0
   14.2706    3.6938   10.3638 C   0  0  0  0  0  0  0  0  0  0  0  0
   13.9564    3.8135   11.8405 C   0  0  0  0  0  0  0  0  0  0  0  0
   14.0339    2.4965   12.6239 C   0  0  2  0  0  0  0  0  0  0  0  0
   13.6685    2.6165   14.4995 S   0  0  0  0  0  0  0  0  0  0  0  0
   14.4200    0.8676   14.6461 C   0  0  0  0  0  0  0  0  0  0  0  0
   15.5727    0.8353   13.6004 C   0  0  2  0  0  0  0  0  0  0  0  0
   16.8402    1.3103   14.3599 N   0  0  0  0  0  0  0  0  0  0  0  0
   17.3602    2.3484   13.8649 C   0  0  0  0  0  0  0  0  0  0  0  0
   18.2966    3.1014   14.3119 O   0  0  0  0  0  0  0  0  0  0  0  0
   16.5726    2.9461   12.8114 N   0  0  0  0  0  0  0  0  0  0  0  0
   15.4556    1.9341   12.5583 C   0  0  2  0  0  0  0  0  0  0  0  0
  1  2  1  0  0  0  0
  1  3  2  0  0  0  0
  1  4  1  0  0  0  0
  4  5  1  0  0  0  0
  5  6  1  0  0  0  0
  6  7  1  0  0  0  0
  8  7  1  1  0  0  0
  8  9  1  0  0  0  0
  8 16  1  0  0  0  0
  9 10  1  0  0  0  0
 11 10  1  1  0  0  0
 11 12  1  0  0  0  0
 11 16  1  0  0  0  0
 12 13  1  0  0  0  0
 13 14  2  0  0  0  0
 13 15  1  0  0  0  0
 16 15  1  1  0  0  0
M  CHG  1   2  -1
M  END
>  <CHROM.1>
-54.79715296,51.68200760,168.70853681,155.06020971,179.09775746,14.95628161
2.79433992,11.73126132,-1.84440735,-0.05548566,1.80985831

>  <Name>
1f27 biotin aptamer (Xray 1.3A)

>  <RI>
224

>  <Rbt.Current_Directory>
/home/itssahil/PROJECTS/Mol_Feturizer/New_Systems/rnas/1f27

>  <Rbt.Executable>
rbdock ($Id: //depot/dev/client3/rdock/2013.1/src/exe/rbdock.cxx#4 $)

>  <Rbt.Library>
libRbt.so (2013.1, Build901 2013/11/27)

>  <Rbt.Parameter_File>
/export/apps/rDock/src/rDock_2013.1_src/data/scripts/dock_solv.prm

>  <Rbt.Receptor>
prm/blind_docking_80.prm

>  <SCORE>
-26.5004

>  <SCORE.INTER>
-26.9809

>  <SCORE.INTER.CONST>
1

>  <SCORE.INTER.POLAR>
-2.56232

>  <SCORE.INTER.ROT>
5

>  <SCORE.INTER.SOLV>
20.284

>  <SCORE.INTER.VDW>
-23.1409

>  <SCORE.INTER.norm>
-1.68631

>  <SCORE.INTRA>
0.479108

>  <SCORE.INTRA.DIHEDRAL>
-2.45397

>  <SCORE.INTRA.DIHEDRAL.0>
6.87082

>  <SCORE.INTRA.POLAR>
0

>  <SCORE.INTRA.POLAR.0>
0

>  <SCORE.INTRA.REPUL>
0

>  <SCORE.INTRA.REPUL.0>
0

>  <SCORE.INTRA.SOLV>
0.667592

>  <SCORE.INTRA.SOLV.lig_0>
-42.5944

>  <SCORE.INTRA.VDW>
1.3723

>  <SCORE.INTRA.VDW.0>
-1.067

>  <SCORE.INTRA.norm>
0.0299442

>  <SCORE.RESTR>
0.0014119

>  <SCORE.RESTR.CAVITY>
0.0014119

>  <SCORE.RESTR.norm>
8.82435e-05

>  <SCORE.SYSTEM>
0

>  <SCORE.SYSTEM.CONST>
0

>  <SCORE.SYSTEM.DIHEDRAL>
0

>  <SCORE.SYSTEM.SOLV>
0

>  <SCORE.SYSTEM.norm>
0

>  <SCORE.heavy>
16

>  <SCORE.norm>
-1.65627

>  <RMSD>
6.798

$$$$
1f27 biotin aptamer (Xray 1.3A)
 OpenBabel11021811393D
libRbt.so/2013.1/901 2013/11/27
 16 17  0  0  0  0  0  0  0  0999 V2000
   13.3254    1.8923   14.4541 C   0  0  0  0  0  0  0  0  0  0  0  0
   12.9016    2.5540   13.5119 O   0  5  0  0  0  0  0  0  0  0  0  0
   12.6122    1.7020   15.4378 O   0  0  0  0  0  0  0  0  0  0  0  0
   14.7047    1.2503   14.3783 C   0  0  0  0  0  0  0  0  0  0  0  0
   15.8503    2.2535   14.1170 C   0  0  0  0  0  0  0  0  0  0  0  0
   17.1848    1.5500   13.9529 C   0  0  0  0  0  0  0  0  0  0  0  0
   18.3371    2.4949   13.6828 C   0  0  0  0  0  0  0  0  0  0  0  0
   19.6542    1.8097   13.2953 C   0  0  2  0  0  0  0  0  0  0  0  0
   19.4991    0.2963   12.1329 S   0  0  0  0  0  0  0  0  0  0  0  0
   21.3060   -0.1081   12.5985 C   0  0  0  0  0  0  0  0  0  0  0  0
   21.4398    0.3074   14.0927 C   0  0  2  0  0  0  0  0  0  0  0  0
   21.0741   -0.9584   14.9133 N   0  0  0  0  0  0  0  0  0  0  0  0
   20.0857   -0.7892   15.6798 C   0  0  0  0  0  0  0  0  0  0  0  0
   19.4152   -1.6373   16.3689 O   0  0  0  0  0  0  0  0  0  0  0  0
   19.4246    0.4832   15.5021 N   0  0  0  0  0  0  0  0  0  0  0  0
   20.3372    1.2492   14.5448 C   0  0  2  0  0  0  0  0  0  0  0  0
  1  2  1  0  0  0  0
  1  3  2  0  0  0  0
  1  4  1  0  0  0  0
  4  5  1  0  0  0  0
  5  6  1  0  0  0  0
  6  7  1  0  0  0  0
  8  7  1  1  0  0  0
  8  9  1  0  0  0  0
  8 16  1  0  0  0  0
  9 10  1  0  0  0  0
 11 10  1  6  0  0  0
 11 12  1  0  0  0  0
 11 16  1  0  0  0  0
 12 13  1  0  0  0  0
 13 14  2  0  0  0  0
 13 15  1  0  0  0  0
 16 15  1  1  0  0  0
M  CHG  1   2  -1
M  END
>  <CHROM.1>
57.22893583,-175.94012834,179.50985691,-170.86743193,39.53676716,17.99622854
0.84275753,14.15127233,3.02748180,0.27409647,-1.03578528

>  <Name>
1f27 biotin aptamer (Xray 1.3A)

>  <RI>
0

>  <Rbt.Current_Directory>
/home/itssahil/PROJECTS/Mol_Feturizer/New_Systems/rnas/1f27

>  <Rbt.Executable>
rbdock ($Id: //depot/dev/client3/rdock/2013.1/src/exe/rbdock.cxx#4 $)

>  <Rbt.Library>
libRbt.so (2013.1, Build901 2013/11/27)

>  <Rbt.Parameter_File>
/export/apps/rDock/src/rDock_2013.1_src/data/scripts/dock_solv.prm

>  <Rbt.Receptor>
prm/pocket_docking_6.prm

>  <SCORE>
-21.044

>  <SCORE.INTER>
-19.6503

>  <SCORE.INTER.CONST>
1

>  <SCORE.INTER.POLAR>
-0.87178

>  <SCORE.INTER.ROT>
5

>  <SCORE.INTER.SOLV>
13.4355

>  <SCORE.INTER.VDW>
-21.6061

>  <SCORE.INTER.norm>
-1.22815

>  <SCORE.INTRA>
-1.39364

>  <SCORE.INTRA.DIHEDRAL>
-3.62146

>  <SCORE.INTRA.DIHEDRAL.0>
6.87082

>  <SCORE.INTRA.POLAR>
0

>  <SCORE.INTRA.POLAR.0>
0

>  <SCORE.INTRA.REPUL>
0

>  <SCORE.INTRA.REPUL.0>
0

>  <SCORE.INTRA.SOLV>
-0.378254

>  <SCORE.INTRA.SOLV.lig_0>
-42.5944

>  <SCORE.INTRA.VDW>
0.606216

>  <SCORE.INTRA.VDW.0>
-1.067

>  <SCORE.INTRA.norm>
-0.0871026

>  <SCORE.RESTR>
0

>  <SCORE.RESTR.CAVITY>
0

>  <SCORE.RESTR.norm>
0

>  <SCORE.SYSTEM>
0

>  <SCORE.SYSTEM.CONST>
0

>  <SCORE.SYSTEM.DIHEDRAL>
0

>  <SCORE.SYSTEM.SOLV>
0

>  <SCORE.SYSTEM.norm>
0

>  <SCORE.heavy>
16

>  <SCORE.norm>
-1.31525

>  <RMSD>
6.799

$$$$
1f27 biotin aptamer (Xray 1.3A)
 OpenBabel11021811393D
libRbt.so/2013.1/901 2013/11/27
 16 17  0  0  0  0  0  0  0  0999 V2000
   14.5319    3.2396    7.2962 C   0  0  0  0  0  0  0  0  0  0  0  0
   13.8184    2.7282    6.4391 O   0  5  0  0  0  0  0  0  0  0  0  0
   15.5678    3.8146    6.9664 O   0  0  0  0  0  0  0  0  0  0  0  0
   14.1029    3.2227    8.7578 C   0  0  0  0  0  0  0  0  0  0  0  0
   13.8207    4.6236    9.3451 C   0  0  0  0  0  0  0  0  0  0  0  0
   13.2768    4.5393   10.7593 C   0  0  0  0  0  0  0  0  0  0  0  0
   14.2742    3.9917   11.7588 C   0  0  0  0  0  0  0  0  0  0  0  0
   13.6953    2.9817   12.7584 C   0  0  2  0  0  0  0  0  0  0  0  0
   14.2684    3.1801   14.5744 S   0  0  0  0  0  0  0  0  0  0  0  0
   13.5538    1.4355   14.8752 C   0  0  0  0  0  0  0  0  0  0  0  0
   13.8327    0.6532   13.5586 C   0  0  2  0  0  0  0  0  0  0  0  0
   15.2199   -0.0149   13.7547 N   0  0  0  0  0  0  0  0  0  0  0  0
   16.0742    0.3459   12.8984 C   0  0  0  0  0  0  0  0  0  0  0  0
   17.3375    0.1333   12.8460 O   0  0  0  0  0  0  0  0  0  0  0  0
   15.6174    1.4113   12.0360 N   0  0  0  0  0  0  0  0  0  0  0  0
   14.1368    1.5654   12.3829 C   0  0  2  0  0  0  0  0  0  0  0  0
  1  2  1  0  0  0  0
  1  3  2  0  0  0  0
  1  4  1  0  0  0  0
  4  5  1  0  0  0  0
  5  6  1  0  0  0  0
  6  7  1  0  0  0  0
  8  7  1  6  0  0  0
  8  9  1  0  0  0  0
  8 16  1  0  0  0  0
  9 10  1  0  0  0  0
 11 10  1  1  0  0  0
 11 12  1  0  0  0  0
 11 16  1  0  0  0  0
 12 13  1  0  0  0  0
 13 14  2  0  0  0  0
 13 15  1  0  0  0  0
 16 15  1  1  0  0  0
M  CHG  1   2  -1
M  END
>  <CHROM.1>
-114.95108537,174.78134535,66.14252459,-137.27680679,-137.53825389,14.57907373
2.42560667,11.50610932,-1.67782769,-0.93654347,1.81471247

>  <Name>
1f27 biotin aptamer (Xray 1.3A)

>  <RI>
224

>  <Rbt.Current_Directory>
/home/itssahil/PROJECTS/Mol_Feturizer/New_Systems/rnas/1f27

>  <Rbt.Executable>
rbdock ($Id: //depot/dev/client3/rdock/2013.1/src/exe/rbdock.cxx#4 $)

>  <Rbt.Library>
libRbt.so (2013.1, Build901 2013/11/27)

>  <Rbt.Parameter_File>
/export/apps/rDock/src/rDock_2013.1_src/data/scripts/dock_solv.prm

>  <Rbt.Receptor>
prm/blind_docking_80.prm

>  <SCORE>
-15.6334

>  <SCORE.INTER>
-17.7639

>  <SCORE.INTER.CONST>
1

>  <SCORE.INTER.POLAR>
-0.753911

>  <SCORE.INTER.ROT>
5

>  <SCORE.INTER.SOLV>
24.906

>  <SCORE.INTER.VDW>
-24.5649

>  <SCORE.INTER.norm>
-1.11024

>  <SCORE.INTRA>
2.13049

>  <SCORE.INTRA.DIHEDRAL>
4.39811

>  <SCORE.INTRA.DIHEDRAL.0>
6.87082

>  <SCORE.INTRA.POLAR>
0

>  <SCORE.INTRA.POLAR.0>
0

>  <SCORE.INTRA.REPUL>
0

>  <SCORE.INTRA.REPUL.0>
0

>  <SCORE.INTRA.SOLV>
-0.67352

>  <SCORE.INTRA.SOLV.lig_0>
-42.5944

>  <SCORE.INTRA.VDW>
0.268196

>  <SCORE.INTRA.VDW.0>
-1.067

>  <SCORE.INTRA.norm>
0.133156

>  <SCORE.RESTR>
0

>  <SCORE.RESTR.CAVITY>
0

>  <SCORE.RESTR.norm>
0

>  <SCORE.SYSTEM>
0

>  <SCORE.SYSTEM.CONST>
0

>  <SCORE.SYSTEM.DIHEDRAL>
0

>  <SCORE.SYSTEM.SOLV>
0

>  <SCORE.SYSTEM.norm>
0

>  <SCORE.heavy>
16

>  <SCORE.norm>
-0.977086

>  <RMSD>
6.807

$$$$
1f27 biotin aptamer (Xray 1.3A)
 OpenBabel11021811393D
libRbt.so/2013.1/901 2013/11/27
 16 17  0  0  0  0  0  0  0  0999 V2000
   14.5084    3.4241    7.2032 C   0  0  0  0  0  0  0  0  0  0  0  0
   14.3805    3.5299    5.9876 O   0  5  0  0  0  0  0  0  0  0  0  0
   15.5693    3.0169    7.6735 O   0  0  0  0  0  0  0  0  0  0  0  0
   13.3819    3.8600    8.1313 C   0  0  0  0  0  0  0  0  0  0  0  0
   13.8293    4.8273    9.2499 C   0  0  0  0  0  0  0  0  0  0  0  0
   13.6636    4.2084   10.6255 C   0  0  0  0  0  0  0  0  0  0  0  0
   14.7348    3.1928   10.9644 C   0  0  0  0  0  0  0  0  0  0  0  0
   14.4083    2.2873   12.1593 C   0  0  2  0  0  0  0  0  0  0  0  0
   14.1103    3.1786   13.8273 S   0  0  0  0  0  0  0  0  0  0  0  0
   14.2878    1.4647   14.6494 C   0  0  0  0  0  0  0  0  0  0  0  0
   15.3674    0.7238   13.8076 C   0  0  2  0  0  0  0  0  0  0  0  0
   16.7248    1.0531   14.4847 N   0  0  0  0  0  0  0  0  0  0  0  0
   17.5357    1.6432   13.7184 C   0  0  0  0  0  0  0  0  0  0  0  0
   18.6615    2.2014   13.9729 O   0  0  0  0  0  0  0  0  0  0  0  0
   16.9633    2.0190   12.4461 N   0  0  0  0  0  0  0  0  0  0  0  0
   15.5873    1.3538   12.4431 C   0  0  2  0  0  0  0  0  0  0  0  0
  1  2  1  0  0  0  0
  1  3  2  0  0  0  0
  1  4  1  0  0  0  0
  4  5  1  0  0  0  0
  5  6  1  0  0  0  0
  6  7  1  0  0  0  0
  8  7  1  6  0  0  0
  8  9  1  0  0  0  0
  8 16  1  0  0  0  0
  9 10  1  0  0  0  0
 11 10  1  1  0  0  0
 11 12  1  0  0  0  0
 11 16  1  0  0  0  0
 12 13  1  0  0  0  0
 13 14  2  0  0  0  0
 13 15  1  0  0  0  0
 16 15  1  1  0  0  0
M  CHG  1   2  -1
M  END
>  <CHROM.1>
-128.28615955,-115.55301380,76.39709527,-164.59756634,-59.81443882,15.17683755
2.68076511,11.48202442,-1.86635165,-0.36692416,1.76189098

>  <Name>
1f27 biotin aptamer (Xray 1.3A)

>  <RI>
224

>  <Rbt.Current_Directory>
/home/itssahil/PROJECTS/Mol_Feturizer/New_Systems/rnas/1f27

>  <Rbt.Executable>
rbdock ($Id: //depot/dev/client3/rdock/2013.1/src/exe/rbdock.cxx#4 $)

>  <Rbt.Library>
libRbt.so (2013.1, Build901 2013/11/27)

>  <Rbt.Parameter_File>
/export/apps/rDock/src/rDock_2013.1_src/data/scripts/dock_solv.prm

>  <Rbt.Receptor>
prm/blind_docking_80.prm

>  <SCORE>
-2.27362

>  <SCORE.INTER>
-3.44621

>  <SCORE.INTER.CONST>
1

>  <SCORE.INTER.POLAR>
-1.86315

>  <SCORE.INTER.ROT>
5

>  <SCORE.INTER.SOLV>
20.8354

>  <SCORE.INTER.VDW>
-9.96541

>  <SCORE.INTER.norm>
-0.215388

>  <SCORE.INTRA>
1.17259

>  <SCORE.INTRA.DIHEDRAL>
1.84901

>  <SCORE.INTRA.DIHEDRAL.0>
6.87082

>  <SCORE.INTRA.POLAR>
0

>  <SCORE.INTRA.POLAR.0>
0

>  <SCORE.INTRA.REPUL>
0

>  <SCORE.INTRA.REPUL.0>
0

>  <SCORE.INTRA.SOLV>
0.175714

>  <SCORE.INTRA.SOLV.lig_0>
-42.5944

>  <SCORE.INTRA.VDW>
0.160228

>  <SCORE.INTRA.VDW.0>
-1.067

>  <SCORE.INTRA.norm>
0.0732868

>  <SCORE.RESTR>
0

>  <SCORE.RESTR.CAVITY>
0

>  <SCORE.RESTR.norm>
0

>  <SCORE.SYSTEM>
0

>  <SCORE.SYSTEM.CONST>
0

>  <SCORE.SYSTEM.DIHEDRAL>
0

>  <SCORE.SYSTEM.SOLV>
0

>  <SCORE.SYSTEM.norm>
0

>  <SCORE.heavy>
16

>  <SCORE.norm>
-0.142101

>  <RMSD>
6.821

$$$$
1f27 biotin aptamer (Xray 1.3A)
 OpenBabel11021811393D
libRbt.so/2013.1/901 2013/11/27
 16 17  0  0  0  0  0  0  0  0999 V2000
   14.8647    2.4472    6.5646 C   0  0  0  0  0  0  0  0  0  0  0  0
   15.7204    1.6352    6.9020 O   0  5  0  0  0  0  0  0  0  0  0  0
   14.7325    2.7388    5.3772 O   0  0  0  0  0  0  0  0  0  0  0  0
   13.9228    3.0416    7.6038 C   0  0  0  0  0  0  0  0  0  0  0  0
   14.3165    4.4616    8.0683 C   0  0  0  0  0  0  0  0  0  0  0  0
   13.7783    4.7675    9.4538 C   0  0  0  0  0  0  0  0  0  0  0  0
   13.8538    3.5913   10.4049 C   0  0  0  0  0  0  0  0  0  0  0  0
   14.7510    3.8107   11.6301 C   0  0  2  0  0  0  0  0  0  0  0  0
   16.3418    2.7478   11.7028 S   0  0  0  0  0  0  0  0  0  0  0  0
   16.4721    3.2653   13.5359 C   0  0  0  0  0  0  0  0  0  0  0  0
   15.0009    3.3428   14.0384 C   0  0  2  0  0  0  0  0  0  0  0  0
   14.6713    1.9292   14.5881 N   0  0  0  0  0  0  0  0  0  0  0  0
   13.7036    1.3755   13.9963 C   0  0  0  0  0  0  0  0  0  0  0  0
   13.2655    0.1727   14.0683 O   0  0  0  0  0  0  0  0  0  0  0  0
   13.2306    2.1095   12.8453 N   0  0  0  0  0  0  0  0  0  0  0  0
   13.9937    3.4325   12.9050 C   0  0  2  0  0  0  0  0  0  0  0  0
  1  2  1  0  0  0  0
  1  3  2  0  0  0  0
  1  4  1  0  0  0  0
  4  5  1  0  0  0  0
  5  6  1  0  0  0  0
  6  7  1  0  0  0  0
  8  7  1  6  0  0  0
  8  9  1  0  0  0  0
  8 16  1  0  0  0  0
  9 10  1  0  0  0  0
 11 10  1  6  0  0  0
 11 12  1  0  0  0  0
 11 16  1  0  0  0  0
 12 13  1  0  0  0  0
 13 14  2  0  0  0  0
 13 15  1  0  0  0  0
 16 15  1  6  0  0  0
M  CHG  1   2  -1
M  END
>  <CHROM.1>
100.50113888,-155.18651934,39.26252635,117.40174793,-112.55484011,14.67148446
2.76489615,10.87615426,1.52315734,-0.91461912,-1.49009961

>  <Name>
1f27 biotin aptamer (Xray 1.3A)

>  <RI>
224

>  <Rbt.Current_Directory>
/home/itssahil/PROJECTS/Mol_Feturizer/New_Systems/rnas/1f27

>  <Rbt.Executable>
rbdock ($Id: //depot/dev/client3/rdock/2013.1/src/exe/rbdock.cxx#4 $)

>  <Rbt.Library>
libRbt.so (2013.1, Build901 2013/11/27)

>  <Rbt.Parameter_File>
/export/apps/rDock/src/rDock_2013.1_src/data/scripts/dock_solv.prm

>  <Rbt.Receptor>
prm/blind_docking_80.prm

>  <SCORE>
-10.8302

>  <SCORE.INTER>
-18.0224

>  <SCORE.INTER.CONST>
1

>  <SCORE.INTER.POLAR>
-2.27613

>  <SCORE.INTER.ROT>
5

>  <SCORE.INTER.SOLV>
24.9676

>  <SCORE.INTER.VDW>
-19.6837

>  <SCORE.INTER.norm>
-1.1264

>  <SCORE.INTRA>
6.47652

>  <SCORE.INTRA.DIHEDRAL>
9.8969

>  <SCORE.INTRA.DIHEDRAL.0>
6.87082

>  <SCORE.INTRA.POLAR>
0

>  <SCORE.INTRA.POLAR.0>
0

>  <SCORE.INTRA.REPUL>
0

>  <SCORE.INTRA.REPUL.0>
0

>  <SCORE.INTRA.SOLV>
-0.629398

>  <SCORE.INTRA.SOLV.lig_0>
-42.5944

>  <SCORE.INTRA.VDW>
1.84277

>  <SCORE.INTRA.VDW.0>
-1.067

>  <SCORE.INTRA.norm>
0.404783

>  <SCORE.RESTR>
0.715679

>  <SCORE.RESTR.CAVITY>
0.715679

>  <SCORE.RESTR.norm>
0.0447299

>  <SCORE.SYSTEM>
0

>  <SCORE.SYSTEM.CONST>
0

>  <SCORE.SYSTEM.DIHEDRAL>
0

>  <SCORE.SYSTEM.SOLV>
0

>  <SCORE.SYSTEM.norm>
0

>  <SCORE.heavy>
16

>  <SCORE.norm>
-0.676887

>  <RMSD>
6.826

$$$$
1f27 biotin aptamer (Xray 1.3A)
 OpenBabel11021811393D
libRbt.so/2013.1/901 2013/11/27
 16 17  0  0  0  0  0  0  0  0999 V2000
   14.2047    3.4567    7.6488 C   0  0  0  0  0  0  0  0  0  0  0  0
   13.7693    3.5634    6.5067 O   0  5  0  0  0  0  0  0  0  0  0  0
   14.8585    2.4639    7.9640 O   0  0  0  0  0  0  0  0  0  0  0  0
   13.9954    4.5812    8.6549 C   0  0  0  0  0  0  0  0  0  0  0  0
   13.6035    4.0941   10.0678 C   0  0  0  0  0  0  0  0  0  0  0  0
   14.6397    4.4885   11.1040 C   0  0  0  0  0  0  0  0  0  0  0  0
   14.6998    3.5460   12.2880 C   0  0  0  0  0  0  0  0  0  0  0  0
   16.0598    3.4874   12.9958 C   0  0  2  0  0  0  0  0  0  0  0  0
   17.5697    3.1203   11.8771 S   0  0  0  0  0  0  0  0  0  0  0  0
   18.5385    2.7744   13.4854 C   0  0  0  0  0  0  0  0  0  0  0  0
   17.5061    2.1109   14.4431 C   0  0  2  0  0  0  0  0  0  0  0  0
   17.6218    0.5838   14.1900 N   0  0  0  0  0  0  0  0  0  0  0  0
   16.5438    0.0592   13.7955 C   0  0  0  0  0  0  0  0  0  0  0  0
   16.3106   -1.1173   13.3425 O   0  0  0  0  0  0  0  0  0  0  0  0
   15.4996    1.0182   13.5167 N   0  0  0  0  0  0  0  0  0  0  0  0
   16.0678    2.3464   14.0156 C   0  0  2  0  0  0  0  0  0  0  0  0
  1  2  1  0  0  0  0
  1  3  2  0  0  0  0
  1  4  1  0  0  0  0
  4  5  1  0  0  0  0
  5  6  1  0  0  0  0
  6  7  1  0  0  0  0
  8  7  1  6  0  0  0
  8  9  1  0  0  0  0
  8 16  1  0  0  0  0
  9 10  1  0  0  0  0
 11 10  1  6  0  0  0
 11 12  1  0  0  0  0
 11 16  1  0  0  0  0
 12 13  1  0  0  0  0
 13 14  2  0  0  0  0
 13 15  1  0  0  0  0
 16 15  1  6  0  0  0
M  CHG  1   2  -1
M  END
>  <CHROM.1>
137.72568199,118.02434093,-152.18566259,153.19716432,-53.17431790,15.83966561
2.55169343,11.58507196,2.62348680,-1.05084579,-0.16291798

>  <Name>
1f27 biotin aptamer (Xray 1.3A)

>  <RI>
224

>  <Rbt.Current_Directory>
/home/itssahil/PROJECTS/Mol_Feturizer/New_Systems/rnas/1f27

>  <Rbt.Executable>
rbdock ($Id: //depot/dev/client3/rdock/2013.1/src/exe/rbdock.cxx#4 $)

>  <Rbt.Library>
libRbt.so (2013.1, Build901 2013/11/27)

>  <Rbt.Parameter_File>
/export/apps/rDock/src/rDock_2013.1_src/data/scripts/dock_solv.prm

>  <Rbt.Receptor>
prm/blind_docking_80.prm

>  <SCORE>
-18.5113

>  <SCORE.INTER>
-20.9663

>  <SCORE.INTER.CONST>
1

>  <SCORE.INTER.POLAR>
-1.18275

>  <SCORE.INTER.ROT>
5

>  <SCORE.INTER.SOLV>
20.261

>  <SCORE.INTER.VDW>
-23.722

>  <SCORE.INTER.norm>
-1.31039

>  <SCORE.INTRA>
2.45175

>  <SCORE.INTRA.DIHEDRAL>
5.22607

>  <SCORE.INTRA.DIHEDRAL.0>
6.87082

>  <SCORE.INTRA.POLAR>
0

>  <SCORE.INTRA.POLAR.0>
0

>  <SCORE.INTRA.REPUL>
0

>  <SCORE.INTRA.REPUL.0>
0

>  <SCORE.INTRA.SOLV>
-0.34185

>  <SCORE.INTRA.SOLV.lig_0>
-42.5944

>  <SCORE.INTRA.VDW>
0.00963397

>  <SCORE.INTRA.VDW.0>
-1.067

>  <SCORE.INTRA.norm>
0.153234

>  <SCORE.RESTR>
0.00329957

>  <SCORE.RESTR.CAVITY>
0.00329957

>  <SCORE.RESTR.norm>
0.000206223

>  <SCORE.SYSTEM>
0

>  <SCORE.SYSTEM.CONST>
0

>  <SCORE.SYSTEM.DIHEDRAL>
0

>  <SCORE.SYSTEM.SOLV>
0

>  <SCORE.SYSTEM.norm>
0

>  <SCORE.heavy>
16

>  <SCORE.norm>
-1.15695

>  <RMSD>
6.837

$$$$
1f27 biotin aptamer (Xray 1.3A)
 OpenBabel11021811393D
libRbt.so/2013.1/901 2013/11/27
 16 17  0  0  0  0  0  0  0  0999 V2000
   14.4200    3.4946    7.7888 C   0  0  0  0  0  0  0  0  0  0  0  0
   13.9488    2.7811    6.9089 O   0  5  0  0  0  0  0  0  0  0  0  0
   15.4264    3.1329    8.3962 O   0  0  0  0  0  0  0  0  0  0  0  0
   13.8020    4.8557    8.0821 C   0  0  0  0  0  0  0  0  0  0  0  0
   13.7102    5.1919    9.5873 C   0  0  0  0  0  0  0  0  0  0  0  0
   13.1618    4.0263   10.3895 C   0  0  0  0  0  0  0  0  0  0  0  0
   13.5196    4.0830   11.8600 C   0  0  0  0  0  0  0  0  0  0  0  0
   13.0638    2.8694   12.6807 C   0  0  2  0  0  0  0  0  0  0  0  0
   13.3409    2.9867   14.5716 S   0  0  0  0  0  0  0  0  0  0  0  0
   13.0102    1.1071   14.6258 C   0  0  0  0  0  0  0  0  0  0  0  0
   13.6251    0.5515   13.3081 C   0  0  2  0  0  0  0  0  0  0  0  0
   15.0916    0.1795   13.6549 N   0  0  0  0  0  0  0  0  0  0  0  0
   15.9430    0.8065   12.9656 C   0  0  0  0  0  0  0  0  0  0  0  0
   17.2176    0.8771   13.0848 O   0  0  0  0  0  0  0  0  0  0  0  0
   15.3689    1.8367   12.1309 N   0  0  0  0  0  0  0  0  0  0  0  0
   13.8605    1.6305   12.2653 C   0  0  2  0  0  0  0  0  0  0  0  0
  1  2  1  0  0  0  0
  1  3  2  0  0  0  0
  1  4  1  0  0  0  0
  4  5  1  0  0  0  0
  5  6  1  0  0  0  0
  6  7  1  0  0  0  0
  8  7  1  6  0  0  0
  8  9  1  0  0  0  0
  8 16  1  0  0  0  0
  9 10  1  0  0  0  0
 11 10  1  1  0  0  0
 11 12  1  0  0  0  0
 11 16  1  0  0  0  0
 12 13  1  0  0  0  0
 13 14  2  0  0  0  0
 13 15  1  0  0  0  0
 16 15  1  1  0  0  0
M  CHG  1   2  -1
M  END
>  <CHROM.1>
139.22596998,-46.18941824,158.47655936,-175.93287898,-174.02958548,14.24813488
2.55763409,11.59541377,-1.61424136,-0.75640915,1.94265683

>  <Name>
1f27 biotin aptamer (Xray 1.3A)

>  <RI>
0

>  <Rbt.Current_Directory>
/home/itssahil/PROJECTS/Mol_Feturizer/New_Systems/rnas/1f27

>  <Rbt.Executable>
rbdock ($Id: //depot/dev/client3/rdock/2013.1/src/exe/rbdock.cxx#4 $)

>  <Rbt.Library>
libRbt.so (2013.1, Build901 2013/11/27)

>  <Rbt.Parameter_File>
/export/apps/rDock/src/rDock_2013.1_src/data/scripts/dock_solv.prm

>  <Rbt.Receptor>
prm/blind_docking_100.prm

>  <SCORE>
-23.9303

>  <SCORE.INTER>
-23.6861

>  <SCORE.INTER.CONST>
1

>  <SCORE.INTER.POLAR>
-3.27506

>  <SCORE.INTER.ROT>
5

>  <SCORE.INTER.SOLV>
21.4259

>  <SCORE.INTER.VDW>
-18.9491

>  <SCORE.INTER.norm>
-1.48038

>  <SCORE.INTRA>
-0.244197

>  <SCORE.INTRA.DIHEDRAL>
-2.9542

>  <SCORE.INTRA.DIHEDRAL.0>
6.87082

>  <SCORE.INTRA.POLAR>
0

>  <SCORE.INTRA.POLAR.0>
0

>  <SCORE.INTRA.REPUL>
0

>  <SCORE.INTRA.REPUL.0>
0

>  <SCORE.INTRA.SOLV>
1.28996

>  <SCORE.INTRA.SOLV.lig_0>
-42.5944

>  <SCORE.INTRA.VDW>
0.58792

>  <SCORE.INTRA.VDW.0>
-1.067

>  <SCORE.INTRA.norm>
-0.0152623

>  <SCORE.RESTR>
0

>  <SCORE.RESTR.CAVITY>
0

>  <SCORE.RESTR.norm>
0

>  <SCORE.SYSTEM>
0

>  <SCORE.SYSTEM.CONST>
0

>  <SCORE.SYSTEM.DIHEDRAL>
0

>  <SCORE.SYSTEM.SOLV>
0

>  <SCORE.SYSTEM.norm>
0

>  <SCORE.heavy>
16

>  <SCORE.norm>
-1.49564

>  <RMSD>
6.875

$$$$
1f27 biotin aptamer (Xray 1.3A)
 OpenBabel11021811393D
libRbt.so/2013.1/901 2013/11/27
 16 17  0  0  0  0  0  0  0  0999 V2000
   14.4257    3.3720    7.1984 C   0  0  0  0  0  0  0  0  0  0  0  0
   14.2245    3.3898    5.9883 O   0  5  0  0  0  0  0  0  0  0  0  0
   15.5229    3.0235    7.6311 O   0  0  0  0  0  0  0  0  0  0  0  0
   13.3434    3.8452    8.1604 C   0  0  0  0  0  0  0  0  0  0  0  0
   13.7715    5.0324    9.0516 C   0  0  0  0  0  0  0  0  0  0  0  0
   13.8285    4.6413   10.5168 C   0  0  0  0  0  0  0  0  0  0  0  0
   14.7638    3.4837   10.7975 C   0  0  0  0  0  0  0  0  0  0  0  0
   15.5988    3.6264   12.0768 C   0  0  2  0  0  0  0  0  0  0  0  0
   17.4259    3.0684   11.9496 S   0  0  0  0  0  0  0  0  0  0  0  0
   17.4594    3.1183   13.8578 C   0  0  0  0  0  0  0  0  0  0  0  0
   16.0413    2.6511   14.2982 C   0  0  2  0  0  0  0  0  0  0  0  0
   16.1393    1.1104   14.4589 N   0  0  0  0  0  0  0  0  0  0  0  0
   15.3496    0.4776   13.7046 C   0  0  0  0  0  0  0  0  0  0  0  0
   15.2699   -0.7767   13.4518 O   0  0  0  0  0  0  0  0  0  0  0  0
   14.6552    1.3175   12.7559 N   0  0  0  0  0  0  0  0  0  0  0  0
   15.0165    2.7406   13.1806 C   0  0  2  0  0  0  0  0  0  0  0  0
  1  2  1  0  0  0  0
  1  3  2  0  0  0  0
  1  4  1  0  0  0  0
  4  5  1  0  0  0  0
  5  6  1  0  0  0  0
  6  7  1  0  0  0  0
  8  7  1  6  0  0  0
  8  9  1  0  0  0  0
  8 16  1  0  0  0  0
  9 10  1  0  0  0  0
 11 10  1  6  0  0  0
 11 12  1  0  0  0  0
 11 16  1  0  0  0  0
 12 13  1  0  0  0  0
 13 14  2  0  0  0  0
 13 15  1  0  0  0  0
 16 15  1  6  0  0  0
M  CHG  1   2  -1
M  END
>  <CHROM.1>
-120.35597757,-114.55940111,57.58565066,139.62246742,-139.02631883,15.34204394
2.75406314,11.20260823,2.07682939,-0.97221481,-0.78965189

>  <Name>
1f27 biotin aptamer (Xray 1.3A)

>  <RI>
224

>  <Rbt.Current_Directory>
/home/itssahil/PROJECTS/Mol_Feturizer/New_Systems/rnas/1f27

>  <Rbt.Executable>
rbdock ($Id: //depot/dev/client3/rdock/2013.1/src/exe/rbdock.cxx#4 $)

>  <Rbt.Library>
libRbt.so (2013.1, Build901 2013/11/27)

>  <Rbt.Parameter_File>
/export/apps/rDock/src/rDock_2013.1_src/data/scripts/dock_solv.prm

>  <Rbt.Receptor>
prm/blind_docking_80.prm

>  <SCORE>
4.63114

>  <SCORE.INTER>
-0.640746

>  <SCORE.INTER.CONST>
1

>  <SCORE.INTER.POLAR>
-2.36316

>  <SCORE.INTER.ROT>
5

>  <SCORE.INTER.SOLV>
22.559

>  <SCORE.INTER.VDW>
-7.00297

>  <SCORE.INTER.norm>
-0.0400466

>  <SCORE.INTRA>
5.27189

>  <SCORE.INTRA.DIHEDRAL>
8.96554

>  <SCORE.INTRA.DIHEDRAL.0>
6.87082

>  <SCORE.INTRA.POLAR>
0

>  <SCORE.INTRA.POLAR.0>
0

>  <SCORE.INTRA.REPUL>
0

>  <SCORE.INTRA.REPUL.0>
0

>  <SCORE.INTRA.SOLV>
0.331462

>  <SCORE.INTRA.SOLV.lig_0>
-42.5944

>  <SCORE.INTRA.VDW>
0.623388

>  <SCORE.INTRA.VDW.0>
-1.067

>  <SCORE.INTRA.norm>
0.329493

>  <SCORE.RESTR>
0

>  <SCORE.RESTR.CAVITY>
0

>  <SCORE.RESTR.norm>
0

>  <SCORE.SYSTEM>
0

>  <SCORE.SYSTEM.CONST>
0

>  <SCORE.SYSTEM.DIHEDRAL>
0

>  <SCORE.SYSTEM.SOLV>
0

>  <SCORE.SYSTEM.norm>
0

>  <SCORE.heavy>
16

>  <SCORE.norm>
0.289446

>  <RMSD>
6.900

$$$$
1f27 biotin aptamer (Xray 1.3A)
 OpenBabel11021811393D
libRbt.so/2013.1/901 2013/11/27
 16 17  0  0  0  0  0  0  0  0999 V2000
   14.2247    3.3201    6.5818 C   0  0  0  0  0  0  0  0  0  0  0  0
   15.0847    3.4894    5.7233 O   0  5  0  0  0  0  0  0  0  0  0  0
   13.3438    2.4797    6.4078 O   0  0  0  0  0  0  0  0  0  0  0  0
   14.2859    4.0992    7.8894 C   0  0  0  0  0  0  0  0  0  0  0  0
   14.0232    3.2387    9.1454 C   0  0  0  0  0  0  0  0  0  0  0  0
   13.8652    4.0949   10.3883 C   0  0  0  0  0  0  0  0  0  0  0  0
   14.9877    3.9199   11.3897 C   0  0  0  0  0  0  0  0  0  0  0  0
   14.8971    2.6475   12.2425 C   0  0  2  0  0  0  0  0  0  0  0  0
   14.3967    2.9015   14.0730 S   0  0  0  0  0  0  0  0  0  0  0  0
   14.9908    1.1115   14.3694 C   0  0  0  0  0  0  0  0  0  0  0  0
   16.2155    0.9319   13.4255 C   0  0  2  0  0  0  0  0  0  0  0  0
   17.4538    1.3512   14.2621 N   0  0  0  0  0  0  0  0  0  0  0  0
   18.0931    2.3167   13.7599 C   0  0  0  0  0  0  0  0  0  0  0  0
   19.0493    3.0203   14.2442 O   0  0  0  0  0  0  0  0  0  0  0  0
   17.4412    2.9119   12.6160 N   0  0  0  0  0  0  0  0  0  0  0  0
   16.2695    1.9753   12.3230 C   0  0  2  0  0  0  0  0  0  0  0  0
  1  2  1  0  0  0  0
  1  3  2  0  0  0  0
  1  4  1  0  0  0  0
  4  5  1  0  0  0  0
  5  6  1  0  0  0  0
  6  7  1  0  0  0  0
  8  7  1  6  0  0  0
  8  9  1  0  0  0  0
  8 16  1  0  0  0  0
  9 10  1  0  0  0  0
 11 10  1  1  0  0  0
 11 12  1  0  0  0  0
 11 16  1  0  0  0  0
 12 13  1  0  0  0  0
 13 14  2  0  0  0  0
 13 15  1  0  0  0  0
 16 15  1  1  0  0  0
M  CHG  1   2  -1
M  END
>  <CHROM.1>
-135.21514148,-170.44215382,-112.67729207,-77.93562980,-107.08338802,15.46568812
2.76277586,11.35260271,-1.92073949,-0.04616738,1.72456149

>  <Name>
1f27 biotin aptamer (Xray 1.3A)

>  <RI>
0

>  <Rbt.Current_Directory>
/home/itssahil/PROJECTS/Mol_Feturizer/New_Systems/rnas/1f27

>  <Rbt.Executable>
rbdock ($Id: //depot/dev/client3/rdock/2013.1/src/exe/rbdock.cxx#4 $)

>  <Rbt.Library>
libRbt.so (2013.1, Build901 2013/11/27)

>  <Rbt.Parameter_File>
/export/apps/rDock/src/rDock_2013.1_src/data/scripts/dock_solv.prm

>  <Rbt.Receptor>
prm/blind_docking_100.prm

>  <SCORE>
-18.2638

>  <SCORE.INTER>
-21.6763

>  <SCORE.INTER.CONST>
1

>  <SCORE.INTER.POLAR>
-0.911186

>  <SCORE.INTER.ROT>
5

>  <SCORE.INTER.SOLV>
22.7308

>  <SCORE.INTER.VDW>
-25.9239

>  <SCORE.INTER.norm>
-1.35477

>  <SCORE.INTRA>
3.4125

>  <SCORE.INTRA.DIHEDRAL>
7.24367

>  <SCORE.INTRA.DIHEDRAL.0>
6.87082

>  <SCORE.INTRA.POLAR>
0

>  <SCORE.INTRA.POLAR.0>
0

>  <SCORE.INTRA.REPUL>
0

>  <SCORE.INTRA.REPUL.0>
0

>  <SCORE.INTRA.SOLV>
-0.829781

>  <SCORE.INTRA.SOLV.lig_0>
-42.5944

>  <SCORE.INTRA.VDW>
0.205556

>  <SCORE.INTRA.VDW.0>
-1.067

>  <SCORE.INTRA.norm>
0.213281

>  <SCORE.RESTR>
0

>  <SCORE.RESTR.CAVITY>
0

>  <SCORE.RESTR.norm>
0

>  <SCORE.SYSTEM>
0

>  <SCORE.SYSTEM.CONST>
0

>  <SCORE.SYSTEM.DIHEDRAL>
0

>  <SCORE.SYSTEM.SOLV>
0

>  <SCORE.SYSTEM.norm>
0

>  <SCORE.heavy>
16

>  <SCORE.norm>
-1.14149

>  <RMSD>
6.906

$$$$
1f27 biotin aptamer (Xray 1.3A)
 OpenBabel11021811393D
libRbt.so/2013.1/901 2013/11/27
 16 17  0  0  0  0  0  0  0  0999 V2000
   14.5028    3.7670    7.9740 C   0  0  0  0  0  0  0  0  0  0  0  0
   14.7207    3.7144    6.7678 O   0  5  0  0  0  0  0  0  0  0  0  0
   14.9440    2.8895    8.7142 O   0  0  0  0  0  0  0  0  0  0  0  0
   13.7466    4.9508    8.5634 C   0  0  0  0  0  0  0  0  0  0  0  0
   13.5341    4.8619   10.0912 C   0  0  0  0  0  0  0  0  0  0  0  0
   12.9831    3.5091   10.5026 C   0  0  0  0  0  0  0  0  0  0  0  0
   12.6163    3.4267   11.9697 C   0  0  0  0  0  0  0  0  0  0  0  0
   13.7792    3.6765   12.9390 C   0  0  2  0  0  0  0  0  0  0  0  0
   15.5226    3.7527   12.1515 S   0  0  0  0  0  0  0  0  0  0  0  0
   16.2107    3.5837   13.9244 C   0  0  0  0  0  0  0  0  0  0  0  0
   15.2135    2.6380   14.6552 C   0  0  2  0  0  0  0  0  0  0  0  0
   15.7618    1.2024   14.4372 N   0  0  0  0  0  0  0  0  0  0  0  0
   14.9526    0.4441   13.8343 C   0  0  0  0  0  0  0  0  0  0  0  0
   15.1209   -0.7302   13.3482 O   0  0  0  0  0  0  0  0  0  0  0  0
   13.7749    1.1236   13.3455 N   0  0  0  0  0  0  0  0  0  0  0  0
   13.8761    2.5263   13.9439 C   0  0  2  0  0  0  0  0  0  0  0  0
  1  2  1  0  0  0  0
  1  3  2  0  0  0  0
  1  4  1  0  0  0  0
  4  5  1  0  0  0  0
  5  6  1  0  0  0  0
  6  7  1  0  0  0  0
  8  7  1  6  0  0  0
  8  9  1  0  0  0  0
  8 16  1  0  0  0  0
  9 10  1  0  0  0  0
 11 10  1  6  0  0  0
 11 12  1  0  0  0  0
 11 16  1  0  0  0  0
 12 13  1  0  0  0  0
 13 14  2  0  0  0  0
 13 15  1  0  0  0  0
 16 15  1  6  0  0  0
M  CHG  1   2  -1
M  END
>  <CHROM.1>
179.17194650,-48.95569947,-173.68770948,-59.97483903,-9.89774339,14.54569958
2.87441979,11.68362706,-2.26020463,-1.36081893,1.32060955

>  <Name>
1f27 biotin aptamer (Xray 1.3A)

>  <RI>
224

>  <Rbt.Current_Directory>
/home/itssahil/PROJECTS/Mol_Feturizer/New_Systems/rnas/1f27

>  <Rbt.Executable>
rbdock ($Id: //depot/dev/client3/rdock/2013.1/src/exe/rbdock.cxx#4 $)

>  <Rbt.Library>
libRbt.so (2013.1, Build901 2013/11/27)

>  <Rbt.Parameter_File>
/export/apps/rDock/src/rDock_2013.1_src/data/scripts/dock_solv.prm

>  <Rbt.Receptor>
prm/blind_docking_80.prm

>  <SCORE>
-12.7217

>  <SCORE.INTER>
-16.8637

>  <SCORE.INTER.CONST>
1

>  <SCORE.INTER.POLAR>
-1.53882

>  <SCORE.INTER.ROT>
5

>  <SCORE.INTER.SOLV>
21.4567

>  <SCORE.INTER.VDW>
-20.1986

>  <SCORE.INTER.norm>
-1.05398

>  <SCORE.INTRA>
4.142

>  <SCORE.INTRA.DIHEDRAL>
0.556885

>  <SCORE.INTRA.DIHEDRAL.0>
6.87082

>  <SCORE.INTRA.POLAR>
0

>  <SCORE.INTRA.POLAR.0>
0

>  <SCORE.INTRA.REPUL>
0

>  <SCORE.INTRA.REPUL.0>
0

>  <SCORE.INTRA.SOLV>
1.48504

>  <SCORE.INTRA.SOLV.lig_0>
-42.5944

>  <SCORE.INTRA.VDW>
3.12104

>  <SCORE.INTRA.VDW.0>
-1.067

>  <SCORE.INTRA.norm>
0.258875

>  <SCORE.RESTR>
0

>  <SCORE.RESTR.CAVITY>
0

>  <SCORE.RESTR.norm>
0

>  <SCORE.SYSTEM>
0

>  <SCORE.SYSTEM.CONST>
0

>  <SCORE.SYSTEM.DIHEDRAL>
0

>  <SCORE.SYSTEM.SOLV>
0

>  <SCORE.SYSTEM.norm>
0

>  <SCORE.heavy>
16

>  <SCORE.norm>
-0.795108

>  <RMSD>
6.911

$$$$
1f27 biotin aptamer (Xray 1.3A)
 OpenBabel11021811393D
libRbt.so/2013.1/901 2013/11/27
 16 17  0  0  0  0  0  0  0  0999 V2000
   13.3787    3.4426   11.6641 C   0  0  0  0  0  0  0  0  0  0  0  0
   12.8106    2.8771   10.7353 O   0  5  0  0  0  0  0  0  0  0  0  0
   12.8047    3.5728   12.7440 O   0  0  0  0  0  0  0  0  0  0  0  0
   14.8158    3.9216   11.5034 C   0  0  0  0  0  0  0  0  0  0  0  0
   15.8693    2.9509   12.0822 C   0  0  0  0  0  0  0  0  0  0  0  0
   15.8677    2.9619   13.5997 C   0  0  0  0  0  0  0  0  0  0  0  0
   16.8914    2.0289   14.2121 C   0  0  0  0  0  0  0  0  0  0  0  0
   18.3332    2.2552   13.7386 C   0  0  2  0  0  0  0  0  0  0  0  0
   18.7691    1.5433   12.0155 S   0  0  0  0  0  0  0  0  0  0  0  0
   20.5989    1.8155   12.4874 C   0  0  0  0  0  0  0  0  0  0  0  0
   20.6701    1.5174   14.0136 C   0  0  2  0  0  0  0  0  0  0  0  0
   20.9929    0.0036   14.1297 N   0  0  0  0  0  0  0  0  0  0  0  0
   20.1109   -0.6494   14.7532 C   0  0  0  0  0  0  0  0  0  0  0  0
   19.9625   -1.9146   14.8980 O   0  0  0  0  0  0  0  0  0  0  0  0
   18.9338    0.1248   15.0738 N   0  0  0  0  0  0  0  0  0  0  0  0
   19.3091    1.5550   14.6868 C   0  0  2  0  0  0  0  0  0  0  0  0
  1  2  1  0  0  0  0
  1  3  2  0  0  0  0
  1  4  1  0  0  0  0
  4  5  1  0  0  0  0
  5  6  1  0  0  0  0
  6  7  1  0  0  0  0
  8  7  1  1  0  0  0
  8  9  1  0  0  0  0
  8 16  1  0  0  0  0
  9 10  1  0  0  0  0
 11 10  1  6  0  0  0
 11 12  1  0  0  0  0
 11 16  1  0  0  0  0
 12 13  1  0  0  0  0
 13 14  2  0  0  0  0
 13 15  1  0  0  0  0
 16 15  1  6  0  0  0
M  CHG  1   2  -1
M  END
>  <CHROM.1>
-97.69826437,-72.58273344,-179.69591913,55.12000260,-78.40314246,17.55336000
1.71771498,13.16727962,2.60462966,0.15212196,-0.88168706

>  <Name>
1f27 biotin aptamer (Xray 1.3A)

>  <RI>
0

>  <Rbt.Current_Directory>
/home/itssahil/PROJECTS/Mol_Feturizer/New_Systems/rnas/1f27

>  <Rbt.Executable>
rbdock ($Id: //depot/dev/client3/rdock/2013.1/src/exe/rbdock.cxx#4 $)

>  <Rbt.Library>
libRbt.so (2013.1, Build901 2013/11/27)

>  <Rbt.Parameter_File>
/export/apps/rDock/src/rDock_2013.1_src/data/scripts/dock_solv.prm

>  <Rbt.Receptor>
prm/pocket_docking_7.prm

>  <SCORE>
-18.0161

>  <SCORE.INTER>
-16.6491

>  <SCORE.INTER.CONST>
1

>  <SCORE.INTER.POLAR>
-0.426264

>  <SCORE.INTER.ROT>
5

>  <SCORE.INTER.SOLV>
11.5118

>  <SCORE.INTER.VDW>
-20.4491

>  <SCORE.INTER.norm>
-1.04057

>  <SCORE.INTRA>
-1.36699

>  <SCORE.INTRA.DIHEDRAL>
-3.70148

>  <SCORE.INTRA.DIHEDRAL.0>
6.87082

>  <SCORE.INTRA.POLAR>
0

>  <SCORE.INTRA.POLAR.0>
0

>  <SCORE.INTRA.REPUL>
0

>  <SCORE.INTRA.REPUL.0>
0

>  <SCORE.INTRA.SOLV>
0.158774

>  <SCORE.INTRA.SOLV.lig_0>
-42.5944

>  <SCORE.INTRA.VDW>
0.404365

>  <SCORE.INTRA.VDW.0>
-1.067

>  <SCORE.INTRA.norm>
-0.0854368

>  <SCORE.RESTR>
0

>  <SCORE.RESTR.CAVITY>
0

>  <SCORE.RESTR.norm>
0

>  <SCORE.SYSTEM>
0

>  <SCORE.SYSTEM.CONST>
0

>  <SCORE.SYSTEM.DIHEDRAL>
0

>  <SCORE.SYSTEM.SOLV>
0

>  <SCORE.SYSTEM.norm>
0

>  <SCORE.heavy>
16

>  <SCORE.norm>
-1.12601

>  <RMSD>
6.925

$$$$
1f27 biotin aptamer (Xray 1.3A)
 OpenBabel11021811393D
libRbt.so/2013.1/901 2013/11/27
 16 17  0  0  0  0  0  0  0  0999 V2000
   14.1688    3.1073    6.9383 C   0  0  0  0  0  0  0  0  0  0  0  0
   13.2233    2.4946    6.4526 O   0  5  0  0  0  0  0  0  0  0  0  0
   15.0375    3.5743    6.2036 O   0  0  0  0  0  0  0  0  0  0  0  0
   14.2321    3.3490    8.4410 C   0  0  0  0  0  0  0  0  0  0  0  0
   13.7098    4.7365    8.8760 C   0  0  0  0  0  0  0  0  0  0  0  0
   14.1758    5.0976   10.2743 C   0  0  0  0  0  0  0  0  0  0  0  0
   13.7612    4.0920   11.3282 C   0  0  0  0  0  0  0  0  0  0  0  0
   14.8052    3.8408   12.4242 C   0  0  2  0  0  0  0  0  0  0  0  0
   16.2414    2.6640   11.9571 S   0  0  0  0  0  0  0  0  0  0  0  0
   16.6337    2.5797   13.8236 C   0  0  0  0  0  0  0  0  0  0  0  0
   15.2475    2.6356   14.5297 C   0  0  2  0  0  0  0  0  0  0  0  0
   14.7960    1.1585   14.6829 N   0  0  0  0  0  0  0  0  0  0  0  0
   13.7064    0.9053   14.0982 C   0  0  0  0  0  0  0  0  0  0  0  0
   13.1245   -0.2154   13.8765 O   0  0  0  0  0  0  0  0  0  0  0  0
   13.2135    1.9977   13.2911 N   0  0  0  0  0  0  0  0  0  0  0  0
   14.1455    3.1617   13.6265 C   0  0  2  0  0  0  0  0  0  0  0  0
  1  2  1  0  0  0  0
  1  3  2  0  0  0  0
  1  4  1  0  0  0  0
  4  5  1  0  0  0  0
  5  6  1  0  0  0  0
  6  7  1  0  0  0  0
  8  7  1  6  0  0  0
  8  9  1  0  0  0  0
  8 16  1  0  0  0  0
  9 10  1  0  0  0  0
 11 10  1  6  0  0  0
 11 12  1  0  0  0  0
 11 16  1  0  0  0  0
 12 13  1  0  0  0  0
 13 14  2  0  0  0  0
 13 15  1  0  0  0  0
 16 15  1  6  0  0  0
M  CHG  1   2  -1
M  END
>  <CHROM.1>
-96.94984774,-162.41329753,-57.70399904,142.54415463,-79.40063883,14.51087014
2.78596703,11.29711432,1.67671802,-0.83579673,-1.22683675

>  <Name>
1f27 biotin aptamer (Xray 1.3A)

>  <RI>
224

>  <Rbt.Current_Directory>
/home/itssahil/PROJECTS/Mol_Feturizer/New_Systems/rnas/1f27

>  <Rbt.Executable>
rbdock ($Id: //depot/dev/client3/rdock/2013.1/src/exe/rbdock.cxx#4 $)

>  <Rbt.Library>
libRbt.so (2013.1, Build901 2013/11/27)

>  <Rbt.Parameter_File>
/export/apps/rDock/src/rDock_2013.1_src/data/scripts/dock_solv.prm

>  <Rbt.Receptor>
prm/blind_docking_80.prm

>  <SCORE>
-13.3758

>  <SCORE.INTER>
-14.1277

>  <SCORE.INTER.CONST>
1

>  <SCORE.INTER.POLAR>
-1.32874

>  <SCORE.INTER.ROT>
5

>  <SCORE.INTER.SOLV>
24.885

>  <SCORE.INTER.VDW>
-20.2177

>  <SCORE.INTER.norm>
-0.88298

>  <SCORE.INTRA>
0.744313

>  <SCORE.INTRA.DIHEDRAL>
1.0688

>  <SCORE.INTRA.DIHEDRAL.0>
6.87082

>  <SCORE.INTRA.POLAR>
0

>  <SCORE.INTRA.POLAR.0>
0

>  <SCORE.INTRA.REPUL>
0

>  <SCORE.INTRA.REPUL.0>
0

>  <SCORE.INTRA.SOLV>
-0.771679

>  <SCORE.INTRA.SOLV.lig_0>
-42.5944

>  <SCORE.INTRA.VDW>
0.595754

>  <SCORE.INTRA.VDW.0>
-1.067

>  <SCORE.INTRA.norm>
0.0465196

>  <SCORE.RESTR>
0.00755268

>  <SCORE.RESTR.CAVITY>
0.00755268

>  <SCORE.RESTR.norm>
0.000472043

>  <SCORE.SYSTEM>
0

>  <SCORE.SYSTEM.CONST>
0

>  <SCORE.SYSTEM.DIHEDRAL>
0

>  <SCORE.SYSTEM.SOLV>
0

>  <SCORE.SYSTEM.norm>
0

>  <SCORE.heavy>
16

>  <SCORE.norm>
-0.835989

>  <RMSD>
7.020

$$$$
1f27 biotin aptamer (Xray 1.3A)
 OpenBabel11021811393D
libRbt.so/2013.1/901 2013/11/27
 16 17  0  0  0  0  0  0  0  0999 V2000
   11.0969    2.3949   14.7640 C   0  0  0  0  0  0  0  0  0  0  0  0
   10.0828    3.0207   15.0562 O   0  5  0  0  0  0  0  0  0  0  0  0
   11.1877    1.2047   15.0599 O   0  0  0  0  0  0  0  0  0  0  0  0
   12.2122    3.0708   13.9767 C   0  0  0  0  0  0  0  0  0  0  0  0
   13.6333    2.6803   14.4405 C   0  0  0  0  0  0  0  0  0  0  0  0
   14.0356    1.3118   13.9225 C   0  0  0  0  0  0  0  0  0  0  0  0
   15.4319    0.8956   14.3358 C   0  0  0  0  0  0  0  0  0  0  0  0
   16.5443    1.8631   13.9107 C   0  0  2  0  0  0  0  0  0  0  0  0
   16.7650    2.1069   12.0245 S   0  0  0  0  0  0  0  0  0  0  0  0
   18.4438    2.9172   12.4367 C   0  0  0  0  0  0  0  0  0  0  0  0
   18.9839    2.1244   13.6626 C   0  0  2  0  0  0  0  0  0  0  0  0
   19.8282    0.9638   13.0714 N   0  0  0  0  0  0  0  0  0  0  0  0
   19.4071   -0.1794   13.4013 C   0  0  0  0  0  0  0  0  0  0  0  0
   19.7455   -1.3419   12.9797 O   0  0  0  0  0  0  0  0  0  0  0  0
   18.1511   -0.1516   14.1151 N   0  0  0  0  0  0  0  0  0  0  0  0
   17.9021    1.3334   14.3775 C   0  0  2  0  0  0  0  0  0  0  0  0
  1  2  1  0  0  0  0
  1  3  2  0  0  0  0
  1  4  1  0  0  0  0
  4  5  1  0  0  0  0
  5  6  1  0  0  0  0
  6  7  1  0  0  0  0
  8  7  1  6  0  0  0
  8  9  1  0  0  0  0
  8 16  1  0  0  0  0
  9 10  1  0  0  0  0
 11 10  1  6  0  0  0
 11 12  1  0  0  0  0
 11 16  1  0  0  0  0
 12 13  1  0  0  0  0
 13 14  2  0  0  0  0
 13 15  1  0  0  0  0
 16 15  1  6  0  0  0
M  CHG  1   2  -1
M  END
>  <CHROM.1>
140.95062590,77.79007058,179.13386405,-57.32899539,-62.20117136,15.86860132
1.53573566,13.71431547,3.03241029,0.27404930,-0.45638363

>  <Name>
1f27 biotin aptamer (Xray 1.3A)

>  <RI>
0

>  <Rbt.Current_Directory>
/home/itssahil/PROJECTS/Mol_Feturizer/New_Systems/rnas/1f27

>  <Rbt.Executable>
rbdock ($Id: //depot/dev/client3/rdock/2013.1/src/exe/rbdock.cxx#4 $)

>  <Rbt.Library>
libRbt.so (2013.1, Build901 2013/11/27)

>  <Rbt.Parameter_File>
/export/apps/rDock/src/rDock_2013.1_src/data/scripts/dock_solv.prm

>  <Rbt.Receptor>
prm/blind_docking_60.prm

>  <SCORE>
-20.8468

>  <SCORE.INTER>
-19.1865

>  <SCORE.INTER.CONST>
1

>  <SCORE.INTER.POLAR>
0

>  <SCORE.INTER.ROT>
5

>  <SCORE.INTER.SOLV>
12.4068

>  <SCORE.INTER.VDW>
-23.86

>  <SCORE.INTER.norm>
-1.19916

>  <SCORE.INTRA>
-1.66026

>  <SCORE.INTRA.DIHEDRAL>
-4.46251

>  <SCORE.INTRA.DIHEDRAL.0>
6.87082

>  <SCORE.INTRA.POLAR>
0

>  <SCORE.INTRA.POLAR.0>
0

>  <SCORE.INTRA.REPUL>
0

>  <SCORE.INTRA.REPUL.0>
0

>  <SCORE.INTRA.SOLV>
0.190182

>  <SCORE.INTRA.SOLV.lig_0>
-42.5944

>  <SCORE.INTRA.VDW>
0.475907

>  <SCORE.INTRA.VDW.0>
-1.067

>  <SCORE.INTRA.norm>
-0.103766

>  <SCORE.RESTR>
0

>  <SCORE.RESTR.CAVITY>
0

>  <SCORE.RESTR.norm>
0

>  <SCORE.SYSTEM>
0

>  <SCORE.SYSTEM.CONST>
0

>  <SCORE.SYSTEM.DIHEDRAL>
0

>  <SCORE.SYSTEM.SOLV>
0

>  <SCORE.SYSTEM.norm>
0

>  <SCORE.heavy>
16

>  <SCORE.norm>
-1.30292

>  <RMSD>
7.075

$$$$
1f27 biotin aptamer (Xray 1.3A)
 OpenBabel11021811393D
libRbt.so/2013.1/901 2013/11/27
 16 17  0  0  0  0  0  0  0  0999 V2000
   14.3079    3.2594    6.3805 C   0  0  0  0  0  0  0  0  0  0  0  0
   13.3278    3.3547    5.6486 O   0  5  0  0  0  0  0  0  0  0  0  0
   15.3768    3.7637    6.0403 O   0  0  0  0  0  0  0  0  0  0  0  0
   14.1854    2.5783    7.7375 C   0  0  0  0  0  0  0  0  0  0  0  0
   14.0750    3.5606    8.9249 C   0  0  0  0  0  0  0  0  0  0  0  0
   13.8234    2.8330   10.2327 C   0  0  0  0  0  0  0  0  0  0  0  0
   14.6772    3.3358   11.3781 C   0  0  0  0  0  0  0  0  0  0  0  0
   14.2407    2.8517   12.7671 C   0  0  2  0  0  0  0  0  0  0  0  0
   13.6477    1.0342   12.8711 S   0  0  0  0  0  0  0  0  0  0  0  0
   12.9353    1.4799   14.5854 C   0  0  0  0  0  0  0  0  0  0  0  0
   12.4362    2.9477   14.4452 C   0  0  2  0  0  0  0  0  0  0  0  0
   10.9551    2.8447   13.9926 N   0  0  0  0  0  0  0  0  0  0  0  0
   10.7319    3.4008   12.8817 C   0  0  0  0  0  0  0  0  0  0  0  0
    9.6895    3.3754   12.1357 O   0  0  0  0  0  0  0  0  0  0  0  0
   11.9267    3.8622   12.2131 N   0  0  0  0  0  0  0  0  0  0  0  0
   13.0350    3.6631   13.2466 C   0  0  2  0  0  0  0  0  0  0  0  0
  1  2  1  0  0  0  0
  1  3  2  0  0  0  0
  1  4  1  0  0  0  0
  4  5  1  0  0  0  0
  5  6  1  0  0  0  0
  6  7  1  0  0  0  0
  8  7  1  6  0  0  0
  8  9  1  0  0  0  0
  8 16  1  0  0  0  0
  9 10  1  0  0  0  0
 11 10  1  6  0  0  0
 11 12  1  0  0  0  0
 11 16  1  0  0  0  0
 12 13  1  0  0  0  0
 13 14  2  0  0  0  0
 13 15  1  0  0  0  0
 16 15  1  6  0  0  0
M  CHG  1   2  -1
M  END
>  <CHROM.1>
-100.80179972,174.58547344,135.20196368,167.04391047,39.30107026,13.11151480
2.86973055,11.04170596,1.24352065,0.36384133,-1.33508345

>  <Name>
1f27 biotin aptamer (Xray 1.3A)

>  <RI>
0

>  <Rbt.Current_Directory>
/home/itssahil/PROJECTS/Mol_Feturizer/New_Systems/rnas/1f27

>  <Rbt.Executable>
rbdock ($Id: //depot/dev/client3/rdock/2013.1/src/exe/rbdock.cxx#4 $)

>  <Rbt.Library>
libRbt.so (2013.1, Build901 2013/11/27)

>  <Rbt.Parameter_File>
/export/apps/rDock/src/rDock_2013.1_src/data/scripts/dock_solv.prm

>  <Rbt.Receptor>
prm/blind_docking_20.prm

>  <SCORE>
-4.15075

>  <SCORE.INTER>
-7.27532

>  <SCORE.INTER.CONST>
1

>  <SCORE.INTER.POLAR>
0

>  <SCORE.INTER.ROT>
5

>  <SCORE.INTER.SOLV>
22.6614

>  <SCORE.INTER.VDW>
-19.3373

>  <SCORE.INTER.norm>
-0.454707

>  <SCORE.INTRA>
1.24629

>  <SCORE.INTRA.DIHEDRAL>
1.9297

>  <SCORE.INTRA.DIHEDRAL.0>
6.87082

>  <SCORE.INTRA.POLAR>
0

>  <SCORE.INTRA.POLAR.0>
0

>  <SCORE.INTRA.REPUL>
0

>  <SCORE.INTRA.REPUL.0>
0

>  <SCORE.INTRA.SOLV>
-0.314165

>  <SCORE.INTRA.SOLV.lig_0>
-42.5944

>  <SCORE.INTRA.VDW>
0.438522

>  <SCORE.INTRA.VDW.0>
-1.067

>  <SCORE.INTRA.norm>
0.0778932

>  <SCORE.RESTR>
1.87828

>  <SCORE.RESTR.CAVITY>
1.87828

>  <SCORE.RESTR.norm>
0.117392

>  <SCORE.SYSTEM>
0

>  <SCORE.SYSTEM.CONST>
0

>  <SCORE.SYSTEM.DIHEDRAL>
0

>  <SCORE.SYSTEM.SOLV>
0

>  <SCORE.SYSTEM.norm>
0

>  <SCORE.heavy>
16

>  <SCORE.norm>
-0.259422

>  <RMSD>
7.108

$$$$
1f27 biotin aptamer (Xray 1.3A)
 OpenBabel11021811393D
libRbt.so/2013.1/901 2013/11/27
 16 17  0  0  0  0  0  0  0  0999 V2000
   14.2404    3.2669    6.4736 C   0  0  0  0  0  0  0  0  0  0  0  0
   13.3580    2.4153    6.5116 O   0  5  0  0  0  0  0  0  0  0  0  0
   14.9610    3.3573    5.4810 O   0  0  0  0  0  0  0  0  0  0  0  0
   14.3997    4.2546    7.6223 C   0  0  0  0  0  0  0  0  0  0  0  0
   14.0308    3.6732    9.0054 C   0  0  0  0  0  0  0  0  0  0  0  0
   13.9007    4.7620   10.0544 C   0  0  0  0  0  0  0  0  0  0  0  0
   13.5065    4.2411   11.4208 C   0  0  0  0  0  0  0  0  0  0  0  0
   14.6836    3.9098   12.3476 C   0  0  2  0  0  0  0  0  0  0  0  0
   15.9751    2.6793   11.6520 S   0  0  0  0  0  0  0  0  0  0  0  0
   16.6279    2.5244   13.4394 C   0  0  0  0  0  0  0  0  0  0  0  0
   15.3629    2.6265   14.3408 C   0  0  2  0  0  0  0  0  0  0  0  0
   14.8632    1.1688   14.5274 N   0  0  0  0  0  0  0  0  0  0  0  0
   13.6891    0.9844   14.1025 C   0  0  0  0  0  0  0  0  0  0  0  0
   13.0246   -0.1007   13.9447 O   0  0  0  0  0  0  0  0  0  0  0  0
   13.1414    2.1211   13.3987 N   0  0  0  0  0  0  0  0  0  0  0  0
   14.1704    3.2296   13.6188 C   0  0  2  0  0  0  0  0  0  0  0  0
  1  2  1  0  0  0  0
  1  3  2  0  0  0  0
  1  4  1  0  0  0  0
  4  5  1  0  0  0  0
  5  6  1  0  0  0  0
  6  7  1  0  0  0  0
  8  7  1  6  0  0  0
  8  9  1  0  0  0  0
  8 16  1  0  0  0  0
  9 10  1  0  0  0  0
 11 10  1  6  0  0  0
 11 12  1  0  0  0  0
 11 16  1  0  0  0  0
 12 13  1  0  0  0  0
 13 14  2  0  0  0  0
 13 15  1  0  0  0  0
 16 15  1  6  0  0  0
M  CHG  1   2  -1
M  END
>  <CHROM.1>
32.78269776,-167.02828159,178.59698132,92.02770846,-55.24393301,14.47349117
2.77995290,11.10830575,1.61962976,-0.78483444,-1.29940541

>  <Name>
1f27 biotin aptamer (Xray 1.3A)

>  <RI>
0

>  <Rbt.Current_Directory>
/home/itssahil/PROJECTS/Mol_Feturizer/New_Systems/rnas/1f27

>  <Rbt.Executable>
rbdock ($Id: //depot/dev/client3/rdock/2013.1/src/exe/rbdock.cxx#4 $)

>  <Rbt.Library>
libRbt.so (2013.1, Build901 2013/11/27)

>  <Rbt.Parameter_File>
/export/apps/rDock/src/rDock_2013.1_src/data/scripts/dock_solv.prm

>  <Rbt.Receptor>
prm/blind_docking_100.prm

>  <SCORE>
-18.2949

>  <SCORE.INTER>
-17.4001

>  <SCORE.INTER.CONST>
1

>  <SCORE.INTER.POLAR>
-1.2656

>  <SCORE.INTER.ROT>
5

>  <SCORE.INTER.SOLV>
24.452

>  <SCORE.INTER.VDW>
-22.4654

>  <SCORE.INTER.norm>
-1.08751

>  <SCORE.INTRA>
-0.895473

>  <SCORE.INTRA.DIHEDRAL>
-1.52677

>  <SCORE.INTRA.DIHEDRAL.0>
6.87082

>  <SCORE.INTRA.POLAR>
0

>  <SCORE.INTRA.POLAR.0>
0

>  <SCORE.INTRA.REPUL>
0

>  <SCORE.INTRA.REPUL.0>
0

>  <SCORE.INTRA.SOLV>
-0.690548

>  <SCORE.INTRA.SOLV.lig_0>
-42.5944

>  <SCORE.INTRA.VDW>
0.213185

>  <SCORE.INTRA.VDW.0>
-1.067

>  <SCORE.INTRA.norm>
-0.055967

>  <SCORE.RESTR>
0.000655138

>  <SCORE.RESTR.CAVITY>
0.000655138

>  <SCORE.RESTR.norm>
4.09461e-05

>  <SCORE.SYSTEM>
0

>  <SCORE.SYSTEM.CONST>
0

>  <SCORE.SYSTEM.DIHEDRAL>
0

>  <SCORE.SYSTEM.SOLV>
0

>  <SCORE.SYSTEM.norm>
0

>  <SCORE.heavy>
16

>  <SCORE.norm>
-1.14343

>  <RMSD>
7.110

$$$$
1f27 biotin aptamer (Xray 1.3A)
 OpenBabel11021811393D
libRbt.so/2013.1/901 2013/11/27
 16 17  0  0  0  0  0  0  0  0999 V2000
   14.3481    2.9400    7.2767 C   0  0  0  0  0  0  0  0  0  0  0  0
   14.7954    2.0681    8.0150 O   0  5  0  0  0  0  0  0  0  0  0  0
   13.5994    2.6325    6.3507 O   0  0  0  0  0  0  0  0  0  0  0  0
   14.6629    4.4058    7.5465 C   0  0  0  0  0  0  0  0  0  0  0  0
   13.6576    5.0998    8.4925 C   0  0  0  0  0  0  0  0  0  0  0  0
   13.9850    4.8344    9.9503 C   0  0  0  0  0  0  0  0  0  0  0  0
   13.7752    3.3928   10.3643 C   0  0  0  0  0  0  0  0  0  0  0  0
   13.8578    3.1384   11.8751 C   0  0  2  0  0  0  0  0  0  0  0  0
   13.5961    1.3258   12.4335 S   0  0  0  0  0  0  0  0  0  0  0  0
   13.3827    2.0165   14.2005 C   0  0  0  0  0  0  0  0  0  0  0  0
   12.6564    3.3807   14.0150 C   0  0  2  0  0  0  0  0  0  0  0  0
   11.1394    3.0607   14.0889 N   0  0  0  0  0  0  0  0  0  0  0  0
   10.5099    3.3773   13.0417 C   0  0  0  0  0  0  0  0  0  0  0  0
    9.3052    3.1185   12.6875 O   0  0  0  0  0  0  0  0  0  0  0  0
   11.3638    3.8128   11.9606 N   0  0  0  0  0  0  0  0  0  0  0  0
   12.7508    3.9117   12.5951 C   0  0  2  0  0  0  0  0  0  0  0  0
  1  2  1  0  0  0  0
  1  3  2  0  0  0  0
  1  4  1  0  0  0  0
  4  5  1  0  0  0  0
  5  6  1  0  0  0  0
  6  7  1  0  0  0  0
  8  7  1  6  0  0  0
  8  9  1  0  0  0  0
  8 16  1  0  0  0  0
  9 10  1  0  0  0  0
 11 10  1  6  0  0  0
 11 12  1  0  0  0  0
 11 16  1  0  0  0  0
 12 13  1  0  0  0  0
 13 14  2  0  0  0  0
 13 15  1  0  0  0  0
 16 15  1  6  0  0  0
M  CHG  1   2  -1
M  END
>  <CHROM.1>
-88.85071492,82.99519059,-68.12728371,-169.78998351,179.96693252,12.98918795
3.12059967,11.00155780,-1.07888488,-0.56466852,1.94492334

>  <Name>
1f27 biotin aptamer (Xray 1.3A)

>  <RI>
0

>  <Rbt.Current_Directory>
/home/itssahil/PROJECTS/Mol_Feturizer/New_Systems/rnas/1f27

>  <Rbt.Executable>
rbdock ($Id: //depot/dev/client3/rdock/2013.1/src/exe/rbdock.cxx#4 $)

>  <Rbt.Library>
libRbt.so (2013.1, Build901 2013/11/27)

>  <Rbt.Parameter_File>
/export/apps/rDock/src/rDock_2013.1_src/data/scripts/dock_solv.prm

>  <Rbt.Receptor>
prm/blind_docking_20.prm

>  <SCORE>
-8.02003

>  <SCORE.INTER>
-9.16386

>  <SCORE.INTER.CONST>
1

>  <SCORE.INTER.POLAR>
-1.03379

>  <SCORE.INTER.ROT>
5

>  <SCORE.INTER.SOLV>
20.6203

>  <SCORE.INTER.VDW>
-16.47

>  <SCORE.INTER.norm>
-0.572741

>  <SCORE.INTRA>
-0.0386885

>  <SCORE.INTRA.DIHEDRAL>
-3.18884

>  <SCORE.INTRA.DIHEDRAL.0>
6.87082

>  <SCORE.INTRA.POLAR>
0

>  <SCORE.INTRA.POLAR.0>
0

>  <SCORE.INTRA.REPUL>
0

>  <SCORE.INTRA.REPUL.0>
0

>  <SCORE.INTRA.SOLV>
1.53919

>  <SCORE.INTRA.SOLV.lig_0>
-42.5944

>  <SCORE.INTRA.VDW>
0.786137

>  <SCORE.INTRA.VDW.0>
-1.067

>  <SCORE.INTRA.norm>
-0.00241803

>  <SCORE.RESTR>
1.18251

>  <SCORE.RESTR.CAVITY>
1.18251

>  <SCORE.RESTR.norm>
0.0739071

>  <SCORE.SYSTEM>
0

>  <SCORE.SYSTEM.CONST>
0

>  <SCORE.SYSTEM.DIHEDRAL>
0

>  <SCORE.SYSTEM.SOLV>
0

>  <SCORE.SYSTEM.norm>
0

>  <SCORE.heavy>
16

>  <SCORE.norm>
-0.501252

>  <RMSD>
7.143

$$$$
1f27 biotin aptamer (Xray 1.3A)
 OpenBabel11021811393D
libRbt.so/2013.1/901 2013/11/27
 16 17  0  0  0  0  0  0  0  0999 V2000
   14.1961    3.3053    6.3729 C   0  0  0  0  0  0  0  0  0  0  0  0
   14.8895    3.3941    5.3646 O   0  5  0  0  0  0  0  0  0  0  0  0
   13.3342    2.4312    6.4477 O   0  0  0  0  0  0  0  0  0  0  0  0
   14.4468    4.2304    7.5569 C   0  0  0  0  0  0  0  0  0  0  0  0
   14.0503    3.6244    8.9217 C   0  0  0  0  0  0  0  0  0  0  0  0
   13.8613    4.6976    9.9778 C   0  0  0  0  0  0  0  0  0  0  0  0
   13.4333    4.1520   11.3242 C   0  0  0  0  0  0  0  0  0  0  0  0
   14.5844    3.8607   12.2961 C   0  0  2  0  0  0  0  0  0  0  0  0
   15.9059    2.6202   11.6795 S   0  0  0  0  0  0  0  0  0  0  0  0
   16.5055    2.5279   13.4897 C   0  0  0  0  0  0  0  0  0  0  0  0
   15.2130    2.6475   14.3490 C   0  0  2  0  0  0  0  0  0  0  0  0
   14.7193    1.1922   14.5671 N   0  0  0  0  0  0  0  0  0  0  0  0
   13.5601    0.9840   14.1133 C   0  0  0  0  0  0  0  0  0  0  0  0
   12.9092   -0.1113   13.9705 O   0  0  0  0  0  0  0  0  0  0  0  0
   13.0251    2.0930   13.3572 N   0  0  0  0  0  0  0  0  0  0  0  0
   14.0383    3.2168   13.5725 C   0  0  2  0  0  0  0  0  0  0  0  0
  1  2  1  0  0  0  0
  1  3  2  0  0  0  0
  1  4  1  0  0  0  0
  4  5  1  0  0  0  0
  5  6  1  0  0  0  0
  6  7  1  0  0  0  0
  8  7  1  6  0  0  0
  8  9  1  0  0  0  0
  8 16  1  0  0  0  0
  9 10  1  0  0  0  0
 11 10  1  6  0  0  0
 11 12  1  0  0  0  0
 11 16  1  0  0  0  0
 12 13  1  0  0  0  0
 13 14  2  0  0  0  0
 13 15  1  0  0  0  0
 16 15  1  6  0  0  0
M  CHG  1   2  -1
M  END
>  <CHROM.1>
-151.64091654,-160.38315384,178.37628735,93.15091237,-58.12329860,14.39585204
2.76146309,11.07680558,1.59914440,-0.74175083,-1.31514381

>  <Name>
1f27 biotin aptamer (Xray 1.3A)

>  <RI>
224

>  <Rbt.Current_Directory>
/home/itssahil/PROJECTS/Mol_Feturizer/New_Systems/rnas/1f27

>  <Rbt.Executable>
rbdock ($Id: //depot/dev/client3/rdock/2013.1/src/exe/rbdock.cxx#4 $)

>  <Rbt.Library>
libRbt.so (2013.1, Build901 2013/11/27)

>  <Rbt.Parameter_File>
/export/apps/rDock/src/rDock_2013.1_src/data/scripts/dock_solv.prm

>  <Rbt.Receptor>
prm/blind_docking_80.prm

>  <SCORE>
-18.187

>  <SCORE.INTER>
-17.8741

>  <SCORE.INTER.CONST>
1

>  <SCORE.INTER.POLAR>
-1.44687

>  <SCORE.INTER.ROT>
5

>  <SCORE.INTER.SOLV>
24.8959

>  <SCORE.INTER.VDW>
-22.3251

>  <SCORE.INTER.norm>
-1.11713

>  <SCORE.INTRA>
-0.312902

>  <SCORE.INTRA.DIHEDRAL>
-0.51418

>  <SCORE.INTRA.DIHEDRAL.0>
6.87082

>  <SCORE.INTRA.POLAR>
0

>  <SCORE.INTRA.POLAR.0>
0

>  <SCORE.INTRA.REPUL>
0

>  <SCORE.INTRA.REPUL.0>
0

>  <SCORE.INTRA.SOLV>
-0.660519

>  <SCORE.INTRA.SOLV.lig_0>
-42.5944

>  <SCORE.INTRA.VDW>
0.274448

>  <SCORE.INTRA.VDW.0>
-1.067

>  <SCORE.INTRA.norm>
-0.0195564

>  <SCORE.RESTR>
0

>  <SCORE.RESTR.CAVITY>
0

>  <SCORE.RESTR.norm>
0

>  <SCORE.SYSTEM>
0

>  <SCORE.SYSTEM.CONST>
0

>  <SCORE.SYSTEM.DIHEDRAL>
0

>  <SCORE.SYSTEM.SOLV>
0

>  <SCORE.SYSTEM.norm>
0

>  <SCORE.heavy>
16

>  <SCORE.norm>
-1.13669

>  <RMSD>
7.150

$$$$
1f27 biotin aptamer (Xray 1.3A)
 OpenBabel11021811393D
libRbt.so/2013.1/901 2013/11/27
 16 17  0  0  0  0  0  0  0  0999 V2000
   14.0909    3.5077    7.3800 C   0  0  0  0  0  0  0  0  0  0  0  0
   13.5545    3.4515    6.2779 O   0  5  0  0  0  0  0  0  0  0  0  0
   14.6684    2.5197    7.8303 O   0  0  0  0  0  0  0  0  0  0  0  0
   14.1016    4.8166    8.1592 C   0  0  0  0  0  0  0  0  0  0  0  0
   14.1092    4.6336    9.6933 C   0  0  0  0  0  0  0  0  0  0  0  0
   12.9551    3.7657   10.1599 C   0  0  0  0  0  0  0  0  0  0  0  0
   13.3902    2.4162   10.6921 C   0  0  0  0  0  0  0  0  0  0  0  0
   13.8565    2.4207   12.1539 C   0  0  2  0  0  0  0  0  0  0  0  0
   13.6560    0.7687   13.1007 S   0  0  0  0  0  0  0  0  0  0  0  0
   13.9554    1.7736   14.6962 C   0  0  0  0  0  0  0  0  0  0  0  0
   13.2795    3.1518   14.4373 C   0  0  2  0  0  0  0  0  0  0  0  0
   11.8215    3.0056   14.9491 N   0  0  0  0  0  0  0  0  0  0  0  0
   10.9548    3.1982   14.0519 C   0  0  0  0  0  0  0  0  0  0  0  0
    9.6873    3.0058   14.0676 O   0  0  0  0  0  0  0  0  0  0  0  0
   11.5137    3.3502   12.7283 N   0  0  0  0  0  0  0  0  0  0  0  0
   13.0225    3.4159   12.9638 C   0  0  2  0  0  0  0  0  0  0  0  0
  1  2  1  0  0  0  0
  1  3  2  0  0  0  0
  1  4  1  0  0  0  0
  4  5  1  0  0  0  0
  5  6  1  0  0  0  0
  6  7  1  0  0  0  0
  8  7  1  6  0  0  0
  8  9  1  0  0  0  0
  8 16  1  0  0  0  0
  9 10  1  0  0  0  0
 11 10  1  6  0  0  0
 11 12  1  0  0  0  0
 11 16  1  0  0  0  0
 12 13  1  0  0  0  0
 13 14  2  0  0  0  0
 13 15  1  0  0  0  0
 16 15  1  1  0  0  0
M  CHG  1   2  -1
M  END
>  <CHROM.1>
150.03560399,-54.80416267,111.22939026,82.59245725,153.26494266,13.06440138
2.89857326,11.54111500,1.22218539,0.64326797,-1.18258560

>  <Name>
1f27 biotin aptamer (Xray 1.3A)

>  <RI>
0

>  <Rbt.Current_Directory>
/home/itssahil/PROJECTS/Mol_Feturizer/New_Systems/rnas/1f27

>  <Rbt.Executable>
rbdock ($Id: //depot/dev/client3/rdock/2013.1/src/exe/rbdock.cxx#4 $)

>  <Rbt.Library>
libRbt.so (2013.1, Build901 2013/11/27)

>  <Rbt.Parameter_File>
/export/apps/rDock/src/rDock_2013.1_src/data/scripts/dock_solv.prm

>  <Rbt.Receptor>
prm/blind_docking_20.prm

>  <SCORE>
-2.15065

>  <SCORE.INTER>
-10.617

>  <SCORE.INTER.CONST>
1

>  <SCORE.INTER.POLAR>
-1.16311

>  <SCORE.INTER.ROT>
5

>  <SCORE.INTER.SOLV>
20.3303

>  <SCORE.INTER.VDW>
-16.911

>  <SCORE.INTER.norm>
-0.663561

>  <SCORE.INTRA>
5.19959

>  <SCORE.INTRA.DIHEDRAL>
4.59588

>  <SCORE.INTRA.DIHEDRAL.0>
6.87082

>  <SCORE.INTRA.POLAR>
0

>  <SCORE.INTRA.POLAR.0>
0

>  <SCORE.INTRA.REPUL>
0

>  <SCORE.INTRA.REPUL.0>
0

>  <SCORE.INTRA.SOLV>
1.53298

>  <SCORE.INTRA.SOLV.lig_0>
-42.5944

>  <SCORE.INTRA.VDW>
2.13516

>  <SCORE.INTRA.VDW.0>
-1.067

>  <SCORE.INTRA.norm>
0.324974

>  <SCORE.RESTR>
3.26674

>  <SCORE.RESTR.CAVITY>
3.26674

>  <SCORE.RESTR.norm>
0.204171

>  <SCORE.SYSTEM>
0

>  <SCORE.SYSTEM.CONST>
0

>  <SCORE.SYSTEM.DIHEDRAL>
0

>  <SCORE.SYSTEM.SOLV>
0

>  <SCORE.SYSTEM.norm>
0

>  <SCORE.heavy>
16

>  <SCORE.norm>
-0.134415

>  <RMSD>
7.181

$$$$
1f27 biotin aptamer (Xray 1.3A)
 OpenBabel11021811393D
libRbt.so/2013.1/901 2013/11/27
 16 17  0  0  0  0  0  0  0  0999 V2000
   14.7236    3.0929    6.8510 C   0  0  0  0  0  0  0  0  0  0  0  0
   14.1897    3.3974    5.7891 O   0  5  0  0  0  0  0  0  0  0  0  0
   15.7250    2.3790    6.8495 O   0  0  0  0  0  0  0  0  0  0  0  0
   14.1896    3.6525    8.1633 C   0  0  0  0  0  0  0  0  0  0  0  0
   13.8468    2.5719    9.2130 C   0  0  0  0  0  0  0  0  0  0  0  0
   14.4523    2.8936   10.5668 C   0  0  0  0  0  0  0  0  0  0  0  0
   13.8244    4.0965   11.2395 C   0  0  0  0  0  0  0  0  0  0  0  0
   13.2271    3.8200   12.6255 C   0  0  2  0  0  0  0  0  0  0  0  0
   13.1327    1.9792   13.1434 S   0  0  0  0  0  0  0  0  0  0  0  0
   11.9549    2.5451   14.5354 C   0  0  0  0  0  0  0  0  0  0  0  0
   11.1283    3.7094   13.9155 C   0  0  2  0  0  0  0  0  0  0  0  0
    9.8725    3.0449   13.2906 N   0  0  0  0  0  0  0  0  0  0  0  0
    9.7692    3.2404   12.0480 C   0  0  0  0  0  0  0  0  0  0  0  0
    8.9706    2.7213   11.1898 O   0  0  0  0  0  0  0  0  0  0  0  0
   10.9179    3.8960   11.4662 N   0  0  0  0  0  0  0  0  0  0  0  0
   11.7723    4.2928   12.6697 C   0  0  2  0  0  0  0  0  0  0  0  0
  1  2  1  0  0  0  0
  1  3  2  0  0  0  0
  1  4  1  0  0  0  0
  4  5  1  0  0  0  0
  5  6  1  0  0  0  0
  6  7  1  0  0  0  0
  8  7  1  6  0  0  0
  8  9  1  0  0  0  0
  8 16  1  0  0  0  0
  9 10  1  0  0  0  0
 11 10  1  6  0  0  0
 11 12  1  0  0  0  0
 11 16  1  0  0  0  0
 12 13  1  0  0  0  0
 13 14  2  0  0  0  0
 13 15  1  0  0  0  0
 16 15  1  6  0  0  0
M  CHG  1   2  -1
M  END
>  <CHROM.1>
125.69847709,130.94750468,68.72607509,122.31354785,-9.11602324,12.64641515
3.10000815,10.95302367,1.01845736,0.12891753,-1.49600963

>  <Name>
1f27 biotin aptamer (Xray 1.3A)

>  <RI>
0

>  <Rbt.Current_Directory>
/home/itssahil/PROJECTS/Mol_Feturizer/New_Systems/rnas/1f27

>  <Rbt.Executable>
rbdock ($Id: //depot/dev/client3/rdock/2013.1/src/exe/rbdock.cxx#4 $)

>  <Rbt.Library>
libRbt.so (2013.1, Build901 2013/11/27)

>  <Rbt.Parameter_File>
/export/apps/rDock/src/rDock_2013.1_src/data/scripts/dock_solv.prm

>  <Rbt.Receptor>
prm/blind_docking_20.prm

>  <SCORE>
5.41491

>  <SCORE.INTER>
-2.15091

>  <SCORE.INTER.CONST>
1

>  <SCORE.INTER.POLAR>
-0.0505053

>  <SCORE.INTER.ROT>
5

>  <SCORE.INTER.SOLV>
22.0002

>  <SCORE.INTER.VDW>
-15.5323

>  <SCORE.INTER.norm>
-0.134432

>  <SCORE.INTRA>
6.37169

>  <SCORE.INTRA.DIHEDRAL>
11.3548

>  <SCORE.INTRA.DIHEDRAL.0>
6.87082

>  <SCORE.INTRA.POLAR>
0

>  <SCORE.INTRA.POLAR.0>
0

>  <SCORE.INTRA.REPUL>
0

>  <SCORE.INTRA.REPUL.0>
0

>  <SCORE.INTRA.SOLV>
-0.318008

>  <SCORE.INTRA.SOLV.lig_0>
-42.5944

>  <SCORE.INTRA.VDW>
0.853315

>  <SCORE.INTRA.VDW.0>
-1.067

>  <SCORE.INTRA.norm>
0.398231

>  <SCORE.RESTR>
1.19413

>  <SCORE.RESTR.CAVITY>
1.19413

>  <SCORE.RESTR.norm>
0.0746332

>  <SCORE.SYSTEM>
0

>  <SCORE.SYSTEM.CONST>
0

>  <SCORE.SYSTEM.DIHEDRAL>
0

>  <SCORE.SYSTEM.SOLV>
0

>  <SCORE.SYSTEM.norm>
0

>  <SCORE.heavy>
16

>  <SCORE.norm>
0.338432

>  <RMSD>
7.182

$$$$
1f27 biotin aptamer (Xray 1.3A)
 OpenBabel11021811393D
libRbt.so/2013.1/901 2013/11/27
 16 17  0  0  0  0  0  0  0  0999 V2000
   14.2607    2.9283    7.3767 C   0  0  0  0  0  0  0  0  0  0  0  0
   13.5021    2.6034    6.4687 O   0  5  0  0  0  0  0  0  0  0  0  0
   14.7860    2.0623    8.0742 O   0  0  0  0  0  0  0  0  0  0  0  0
   14.6053    4.3957    7.5968 C   0  0  0  0  0  0  0  0  0  0  0  0
   13.6637    5.1200    8.5846 C   0  0  0  0  0  0  0  0  0  0  0  0
   14.0631    4.8679   10.0268 C   0  0  0  0  0  0  0  0  0  0  0  0
   13.8622    3.4330   10.4677 C   0  0  0  0  0  0  0  0  0  0  0  0
   13.7398    3.2368   11.9845 C   0  0  2  0  0  0  0  0  0  0  0  0
   13.4939    1.4330   12.5773 S   0  0  0  0  0  0  0  0  0  0  0  0
   12.9938    2.1719   14.2651 C   0  0  0  0  0  0  0  0  0  0  0  0
   12.2326    3.4853   13.9204 C   0  0  2  0  0  0  0  0  0  0  0  0
   10.7392    3.0823   13.7925 N   0  0  0  0  0  0  0  0  0  0  0  0
   10.2512    3.3257   12.6542 C   0  0  0  0  0  0  0  0  0  0  0  0
    9.1248    2.9865   12.1444 O   0  0  0  0  0  0  0  0  0  0  0  0
   11.2281    3.7709   11.6872 N   0  0  0  0  0  0  0  0  0  0  0  0
   12.5026    3.9707   12.5068 C   0  0  2  0  0  0  0  0  0  0  0  0
  1  2  1  0  0  0  0
  1  3  2  0  0  0  0
  1  4  1  0  0  0  0
  4  5  1  0  0  0  0
  5  6  1  0  0  0  0
  6  7  1  0  0  0  0
  8  7  1  6  0  0  0
  8  9  1  0  0  0  0
  8 16  1  0  0  0  0
  9 10  1  0  0  0  0
 11 10  1  6  0  0  0
 11 12  1  0  0  0  0
 11 16  1  0  0  0  0
 12 13  1  0  0  0  0
 13 14  2  0  0  0  0
 13 15  1  0  0  0  0
 16 15  1  6  0  0  0
M  CHG  1   2  -1
M  END
>  <CHROM.1>
91.20642244,82.34446281,-67.60542714,-158.11015680,-179.69780101,12.84867694
3.14699711,10.96504208,1.07667790,0.40021334,-1.26314695

>  <Name>
1f27 biotin aptamer (Xray 1.3A)

>  <RI>
0

>  <Rbt.Current_Directory>
/home/itssahil/PROJECTS/Mol_Feturizer/New_Systems/rnas/1f27

>  <Rbt.Executable>
rbdock ($Id: //depot/dev/client3/rdock/2013.1/src/exe/rbdock.cxx#4 $)

>  <Rbt.Library>
libRbt.so (2013.1, Build901 2013/11/27)

>  <Rbt.Parameter_File>
/export/apps/rDock/src/rDock_2013.1_src/data/scripts/dock_solv.prm

>  <Rbt.Receptor>
prm/blind_docking_20.prm

>  <SCORE>
-7.1389

>  <SCORE.INTER>
-8.89833

>  <SCORE.INTER.CONST>
1

>  <SCORE.INTER.POLAR>
-1.06339

>  <SCORE.INTER.ROT>
5

>  <SCORE.INTER.SOLV>
20.7092

>  <SCORE.INTER.VDW>
-16.224

>  <SCORE.INTER.norm>
-0.556145

>  <SCORE.INTRA>
0.603862

>  <SCORE.INTRA.DIHEDRAL>
-1.72195

>  <SCORE.INTRA.DIHEDRAL.0>
6.87082

>  <SCORE.INTRA.POLAR>
0

>  <SCORE.INTRA.POLAR.0>
0

>  <SCORE.INTRA.REPUL>
0

>  <SCORE.INTRA.REPUL.0>
0

>  <SCORE.INTRA.SOLV>
1.45823

>  <SCORE.INTRA.SOLV.lig_0>
-42.5944

>  <SCORE.INTRA.VDW>
0.735725

>  <SCORE.INTRA.VDW.0>
-1.067

>  <SCORE.INTRA.norm>
0.0377414

>  <SCORE.RESTR>
1.15556

>  <SCORE.RESTR.CAVITY>
1.15556

>  <SCORE.RESTR.norm>
0.0722227

>  <SCORE.SYSTEM>
0

>  <SCORE.SYSTEM.CONST>
0

>  <SCORE.SYSTEM.DIHEDRAL>
0

>  <SCORE.SYSTEM.SOLV>
0

>  <SCORE.SYSTEM.norm>
0

>  <SCORE.heavy>
16

>  <SCORE.norm>
-0.446181

>  <RMSD>
7.214

$$$$
1f27 biotin aptamer (Xray 1.3A)
 OpenBabel11021811393D
libRbt.so/2013.1/901 2013/11/27
 16 17  0  0  0  0  0  0  0  0999 V2000
   14.2137    2.8767    7.4111 C   0  0  0  0  0  0  0  0  0  0  0  0
   13.4370    2.5423    6.5221 O   0  5  0  0  0  0  0  0  0  0  0  0
   14.7416    2.0190    8.1168 O   0  0  0  0  0  0  0  0  0  0  0  0
   14.5768    4.3444    7.5968 C   0  0  0  0  0  0  0  0  0  0  0  0
   13.6572    5.0984    8.5831 C   0  0  0  0  0  0  0  0  0  0  0  0
   14.0430    4.8299   10.0260 C   0  0  0  0  0  0  0  0  0  0  0  0
   13.7132    3.4261   10.4887 C   0  0  0  0  0  0  0  0  0  0  0  0
   13.7022    3.2360   12.0112 C   0  0  2  0  0  0  0  0  0  0  0  0
   13.5480    1.4298   12.6274 S   0  0  0  0  0  0  0  0  0  0  0  0
   13.1464    2.1653   14.3428 C   0  0  0  0  0  0  0  0  0  0  0  0
   12.3272    3.4554   14.0464 C   0  0  2  0  0  0  0  0  0  0  0  0
   10.8401    3.0111   14.0247 N   0  0  0  0  0  0  0  0  0  0  0  0
   10.2676    3.2341   12.9222 C   0  0  0  0  0  0  0  0  0  0  0  0
    9.1182    2.8613   12.4936 O   0  0  0  0  0  0  0  0  0  0  0  0
   11.1622    3.6998   11.8875 N   0  0  0  0  0  0  0  0  0  0  0  0
   12.4847    3.9392   12.6153 C   0  0  2  0  0  0  0  0  0  0  0  0
  1  2  1  0  0  0  0
  1  3  2  0  0  0  0
  1  4  1  0  0  0  0
  4  5  1  0  0  0  0
  5  6  1  0  0  0  0
  6  7  1  0  0  0  0
  8  7  1  6  0  0  0
  8  9  1  0  0  0  0
  8 16  1  0  0  0  0
  9 10  1  0  0  0  0
 11 10  1  6  0  0  0
 11 12  1  0  0  0  0
 11 16  1  0  0  0  0
 12 13  1  0  0  0  0
 13 14  2  0  0  0  0
 13 15  1  0  0  0  0
 16 15  1  6  0  0  0
M  CHG  1   2  -1
M  END
>  <CHROM.1>
91.08233071,80.24125248,-71.15909386,-163.04580588,-171.25451807,12.84792766
3.10502805,11.06228618,1.09516035,0.39890777,-1.27480699

>  <Name>
1f27 biotin aptamer (Xray 1.3A)

>  <RI>
0

>  <Rbt.Current_Directory>
/home/itssahil/PROJECTS/Mol_Feturizer/New_Systems/rnas/1f27

>  <Rbt.Executable>
rbdock ($Id: //depot/dev/client3/rdock/2013.1/src/exe/rbdock.cxx#4 $)

>  <Rbt.Library>
libRbt.so (2013.1, Build901 2013/11/27)

>  <Rbt.Parameter_File>
/export/apps/rDock/src/rDock_2013.1_src/data/scripts/dock_solv.prm

>  <Rbt.Receptor>
prm/blind_docking_20.prm

>  <SCORE>
-8.05914

>  <SCORE.INTER>
-9.57382

>  <SCORE.INTER.CONST>
1

>  <SCORE.INTER.POLAR>
-1.06697

>  <SCORE.INTER.ROT>
5

>  <SCORE.INTER.SOLV>
20.6501

>  <SCORE.INTER.VDW>
-16.6427

>  <SCORE.INTER.norm>
-0.598364

>  <SCORE.INTRA>
0.0997871

>  <SCORE.INTRA.DIHEDRAL>
-2.07932

>  <SCORE.INTRA.DIHEDRAL.0>
6.87082

>  <SCORE.INTRA.POLAR>
0

>  <SCORE.INTRA.POLAR.0>
0

>  <SCORE.INTRA.REPUL>
0

>  <SCORE.INTRA.REPUL.0>
0

>  <SCORE.INTRA.SOLV>
1.40939

>  <SCORE.INTRA.SOLV.lig_0>
-42.5944

>  <SCORE.INTRA.VDW>
0.434754

>  <SCORE.INTRA.VDW.0>
-1.067

>  <SCORE.INTRA.norm>
0.0062367

>  <SCORE.RESTR>
1.4149

>  <SCORE.RESTR.CAVITY>
1.4149

>  <SCORE.RESTR.norm>
0.0884311

>  <SCORE.SYSTEM>
0

>  <SCORE.SYSTEM.CONST>
0

>  <SCORE.SYSTEM.DIHEDRAL>
0

>  <SCORE.SYSTEM.SOLV>
0

>  <SCORE.SYSTEM.norm>
0

>  <SCORE.heavy>
16

>  <SCORE.norm>
-0.503696

>  <RMSD>
7.220

$$$$
1f27 biotin aptamer (Xray 1.3A)
 OpenBabel11021811393D
libRbt.so/2013.1/901 2013/11/27
 16 17  0  0  0  0  0  0  0  0999 V2000
   14.2445    3.2053    7.3294 C   0  0  0  0  0  0  0  0  0  0  0  0
   13.6224    2.9549    6.3019 O   0  5  0  0  0  0  0  0  0  0  0  0
   14.7741    2.2929    7.9615 O   0  0  0  0  0  0  0  0  0  0  0  0
   14.4192    4.6483    7.7850 C   0  0  0  0  0  0  0  0  0  0  0  0
   13.6875    4.9829    9.1039 C   0  0  0  0  0  0  0  0  0  0  0  0
   14.0428    4.0024   10.2063 C   0  0  0  0  0  0  0  0  0  0  0  0
   13.3513    4.2948   11.5215 C   0  0  0  0  0  0  0  0  0  0  0  0
   13.7366    3.3576   12.6737 C   0  0  2  0  0  0  0  0  0  0  0  0
   13.7166    1.4859   12.2715 S   0  0  0  0  0  0  0  0  0  0  0  0
   13.7924    1.1919   14.1564 C   0  0  0  0  0  0  0  0  0  0  0  0
   12.9477    2.3423   14.7779 C   0  0  2  0  0  0  0  0  0  0  0  0
   11.4991    1.7929   14.8742 N   0  0  0  0  0  0  0  0  0  0  0  0
   10.6617    2.4735   14.2196 C   0  0  0  0  0  0  0  0  0  0  0  0
    9.4335    2.2331   13.9409 O   0  0  0  0  0  0  0  0  0  0  0  0
   11.2618    3.5056   13.4058 N   0  0  0  0  0  0  0  0  0  0  0  0
   12.7330    3.5013   13.8201 C   0  0  2  0  0  0  0  0  0  0  0  0
  1  2  1  0  0  0  0
  1  3  2  0  0  0  0
  1  4  1  0  0  0  0
  4  5  1  0  0  0  0
  5  6  1  0  0  0  0
  6  7  1  0  0  0  0
  8  7  1  6  0  0  0
  8  9  1  0  0  0  0
  8 16  1  0  0  0  0
  9 10  1  0  0  0  0
 11 10  1  6  0  0  0
 11 12  1  0  0  0  0
 11 16  1  0  0  0  0
 12 13  1  0  0  0  0
 13 14  2  0  0  0  0
 13 15  1  0  0  0  0
 16 15  1  6  0  0  0
M  CHG  1   2  -1
M  END
>  <CHROM.1>
113.50047458,52.41273987,179.79297749,-177.46070242,-47.68409212,13.03030446
2.88848984,11.53125252,-1.15117958,-0.54556109,1.99360677

>  <Name>
1f27 biotin aptamer (Xray 1.3A)

>  <RI>
0

>  <Rbt.Current_Directory>
/home/itssahil/PROJECTS/Mol_Feturizer/New_Systems/rnas/1f27

>  <Rbt.Executable>
rbdock ($Id: //depot/dev/client3/rdock/2013.1/src/exe/rbdock.cxx#4 $)

>  <Rbt.Library>
libRbt.so (2013.1, Build901 2013/11/27)

>  <Rbt.Parameter_File>
/export/apps/rDock/src/rDock_2013.1_src/data/scripts/dock_solv.prm

>  <Rbt.Receptor>
prm/blind_docking_20.prm

>  <SCORE>
-12.0119

>  <SCORE.INTER>
-14.6547

>  <SCORE.INTER.CONST>
1

>  <SCORE.INTER.POLAR>
-1.4778

>  <SCORE.INTER.ROT>
5

>  <SCORE.INTER.SOLV>
21.034

>  <SCORE.INTER.VDW>
-18.7885

>  <SCORE.INTER.norm>
-0.915918

>  <SCORE.INTRA>
-1.46821

>  <SCORE.INTRA.DIHEDRAL>
-4.62506

>  <SCORE.INTRA.DIHEDRAL.0>
6.87082

>  <SCORE.INTRA.POLAR>
0

>  <SCORE.INTRA.POLAR.0>
0

>  <SCORE.INTRA.REPUL>
0

>  <SCORE.INTRA.REPUL.0>
0

>  <SCORE.INTRA.SOLV>
0.527022

>  <SCORE.INTRA.SOLV.lig_0>
-42.5944

>  <SCORE.INTRA.VDW>
0.580808

>  <SCORE.INTRA.VDW.0>
-1.067

>  <SCORE.INTRA.norm>
-0.0917632

>  <SCORE.RESTR>
4.11104

>  <SCORE.RESTR.CAVITY>
4.11104

>  <SCORE.RESTR.norm>
0.25694

>  <SCORE.SYSTEM>
0

>  <SCORE.SYSTEM.CONST>
0

>  <SCORE.SYSTEM.DIHEDRAL>
0

>  <SCORE.SYSTEM.SOLV>
0

>  <SCORE.SYSTEM.norm>
0

>  <SCORE.heavy>
16

>  <SCORE.norm>
-0.750741

>  <RMSD>
7.230

$$$$
1f27 biotin aptamer (Xray 1.3A)
 OpenBabel11021811393D
libRbt.so/2013.1/901 2013/11/27
 16 17  0  0  0  0  0  0  0  0999 V2000
   14.1241    3.5343    7.5035 C   0  0  0  0  0  0  0  0  0  0  0  0
   14.6998    2.5284    7.9060 O   0  5  0  0  0  0  0  0  0  0  0  0
   13.6028    3.5364    6.3896 O   0  0  0  0  0  0  0  0  0  0  0  0
   13.9950    4.7543    8.4066 C   0  0  0  0  0  0  0  0  0  0  0  0
   14.0779    4.4300    9.9149 C   0  0  0  0  0  0  0  0  0  0  0  0
   13.0210    3.4236   10.3307 C   0  0  0  0  0  0  0  0  0  0  0  0
   12.5682    3.5812   11.7673 C   0  0  0  0  0  0  0  0  0  0  0  0
   13.5602    3.0606   12.8157 C   0  0  2  0  0  0  0  0  0  0  0  0
   14.0388    1.2126   12.6692 S   0  0  0  0  0  0  0  0  0  0  0  0
   14.7569    1.3722   14.4309 C   0  0  0  0  0  0  0  0  0  0  0  0
   13.8035    2.3582   15.1670 C   0  0  2  0  0  0  0  0  0  0  0  0
   12.7118    1.4722   15.8247 N   0  0  0  0  0  0  0  0  0  0  0  0
   11.5442    1.7392   15.4265 C   0  0  0  0  0  0  0  0  0  0  0  0
   10.4388    1.1200   15.6223 O   0  0  0  0  0  0  0  0  0  0  0  0
   11.5050    2.6901   14.3393 N   0  0  0  0  0  0  0  0  0  0  0  0
   12.9488    3.1756   14.2139 C   0  0  2  0  0  0  0  0  0  0  0  0
  1  2  1  0  0  0  0
  1  3  2  0  0  0  0
  1  4  1  0  0  0  0
  4  5  1  0  0  0  0
  5  6  1  0  0  0  0
  6  7  1  0  0  0  0
  8  7  1  6  0  0  0
  8  9  1  0  0  0  0
  8 16  1  0  0  0  0
  9 10  1  0  0  0  0
 11 10  1  6  0  0  0
 11 12  1  0  0  0  0
 11 16  1  0  0  0  0
 12 13  1  0  0  0  0
 13 14  2  0  0  0  0
 13 15  1  0  0  0  0
 16 15  1  6  0  0  0
M  CHG  1   2  -1
M  END
>  <CHROM.1>
-24.13025836,-57.22821410,-150.38316087,-75.70595599,-58.13725885,13.25826759
2.61967670,12.05131686,1.33204117,0.45322955,-1.20682633

>  <Name>
1f27 biotin aptamer (Xray 1.3A)

>  <RI>
224

>  <Rbt.Current_Directory>
/home/itssahil/PROJECTS/Mol_Feturizer/New_Systems/rnas/1f27

>  <Rbt.Executable>
rbdock ($Id: //depot/dev/client3/rdock/2013.1/src/exe/rbdock.cxx#4 $)

>  <Rbt.Library>
libRbt.so (2013.1, Build901 2013/11/27)

>  <Rbt.Parameter_File>
/export/apps/rDock/src/rDock_2013.1_src/data/scripts/dock_solv.prm

>  <Rbt.Receptor>
prm/blind_docking_80.prm

>  <SCORE>
-16.4962

>  <SCORE.INTER>
-16.7067

>  <SCORE.INTER.CONST>
1

>  <SCORE.INTER.POLAR>
-1.34153

>  <SCORE.INTER.ROT>
5

>  <SCORE.INTER.SOLV>
21.0406

>  <SCORE.INTER.VDW>
-20.6129

>  <SCORE.INTER.norm>
-1.04417

>  <SCORE.INTRA>
0.210549

>  <SCORE.INTRA.DIHEDRAL>
-1.3814

>  <SCORE.INTRA.DIHEDRAL.0>
6.87082

>  <SCORE.INTRA.POLAR>
0

>  <SCORE.INTRA.POLAR.0>
0

>  <SCORE.INTRA.REPUL>
0

>  <SCORE.INTRA.REPUL.0>
0

>  <SCORE.INTRA.SOLV>
0.33886

>  <SCORE.INTRA.SOLV.lig_0>
-42.5944

>  <SCORE.INTRA.VDW>
0.731819

>  <SCORE.INTRA.VDW.0>
-1.067

>  <SCORE.INTRA.norm>
0.0131593

>  <SCORE.RESTR>
0

>  <SCORE.RESTR.CAVITY>
0

>  <SCORE.RESTR.norm>
0

>  <SCORE.SYSTEM>
0

>  <SCORE.SYSTEM.CONST>
0

>  <SCORE.SYSTEM.DIHEDRAL>
0

>  <SCORE.SYSTEM.SOLV>
0

>  <SCORE.SYSTEM.norm>
0

>  <SCORE.heavy>
16

>  <SCORE.norm>
-1.03101

>  <RMSD>
7.246

$$$$
1f27 biotin aptamer (Xray 1.3A)
 OpenBabel11021811393D
libRbt.so/2013.1/901 2013/11/27
 16 17  0  0  0  0  0  0  0  0999 V2000
   14.2616    3.3853    6.9736 C   0  0  0  0  0  0  0  0  0  0  0  0
   15.1355    3.5037    6.1205 O   0  5  0  0  0  0  0  0  0  0  0  0
   13.4793    2.4379    6.9204 O   0  0  0  0  0  0  0  0  0  0  0  0
   14.1876    4.3694    8.1340 C   0  0  0  0  0  0  0  0  0  0  0  0
   13.8976    3.7083    9.4999 C   0  0  0  0  0  0  0  0  0  0  0  0
   13.7448    4.7410   10.6013 C   0  0  0  0  0  0  0  0  0  0  0  0
   12.9501    4.2434   11.7906 C   0  0  0  0  0  0  0  0  0  0  0  0
   13.7274    3.3298   12.7474 C   0  0  2  0  0  0  0  0  0  0  0  0
   13.7780    1.4748   12.2761 S   0  0  0  0  0  0  0  0  0  0  0  0
   14.3996    1.1534   14.0524 C   0  0  0  0  0  0  0  0  0  0  0  0
   13.6525    2.1950   14.9355 C   0  0  2  0  0  0  0  0  0  0  0  0
   12.3471    1.4932   15.3966 N   0  0  0  0  0  0  0  0  0  0  0  0
   11.2997    2.0938   15.0289 C   0  0  0  0  0  0  0  0  0  0  0  0
   10.0716    1.7299   15.0845 O   0  0  0  0  0  0  0  0  0  0  0  0
   11.5490    3.1997   14.1330 N   0  0  0  0  0  0  0  0  0  0  0  0
   13.0706    3.3434   14.1296 C   0  0  2  0  0  0  0  0  0  0  0  0
  1  2  1  0  0  0  0
  1  3  2  0  0  0  0
  1  4  1  0  0  0  0
  4  5  1  0  0  0  0
  5  6  1  0  0  0  0
  6  7  1  0  0  0  0
  8  7  1  6  0  0  0
  8  9  1  0  0  0  0
  8 16  1  0  0  0  0
  9 10  1  0  0  0  0
 11 10  1  6  0  0  0
 11 12  1  0  0  0  0
 11 16  1  0  0  0  0
 12 13  1  0  0  0  0
 13 14  2  0  0  0  0
 13 15  1  0  0  0  0
 16 15  1  6  0  0  0
M  CHG  1   2  -1
M  END
>  <CHROM.1>
-137.84194478,-176.26456933,157.28928498,78.13645545,-84.93586688,13.24597691
2.78203199,11.73115862,-1.18715398,-0.75513673,2.03813197

>  <Name>
1f27 biotin aptamer (Xray 1.3A)

>  <RI>
0

>  <Rbt.Current_Directory>
/home/itssahil/PROJECTS/Mol_Feturizer/New_Systems/rnas/1f27

>  <Rbt.Executable>
rbdock ($Id: //depot/dev/client3/rdock/2013.1/src/exe/rbdock.cxx#4 $)

>  <Rbt.Library>
libRbt.so (2013.1, Build901 2013/11/27)

>  <Rbt.Parameter_File>
/export/apps/rDock/src/rDock_2013.1_src/data/scripts/dock_solv.prm

>  <Rbt.Receptor>
prm/pocket_docking_8.prm

>  <SCORE>
-14.1511

>  <SCORE.INTER>
-13.9267

>  <SCORE.INTER.CONST>
1

>  <SCORE.INTER.POLAR>
-0.819761

>  <SCORE.INTER.ROT>
5

>  <SCORE.INTER.SOLV>
22.0382

>  <SCORE.INTER.VDW>
-20.8314

>  <SCORE.INTER.norm>
-0.870421

>  <SCORE.INTRA>
-0.262915

>  <SCORE.INTRA.DIHEDRAL>
-0.0304783

>  <SCORE.INTRA.DIHEDRAL.0>
6.87082

>  <SCORE.INTRA.POLAR>
0

>  <SCORE.INTRA.POLAR.0>
0

>  <SCORE.INTRA.REPUL>
0

>  <SCORE.INTRA.REPUL.0>
0

>  <SCORE.INTRA.SOLV>
-0.769812

>  <SCORE.INTRA.SOLV.lig_0>
-42.5944

>  <SCORE.INTRA.VDW>
0.13723

>  <SCORE.INTRA.VDW.0>
-1.067

>  <SCORE.INTRA.norm>
-0.0164322

>  <SCORE.RESTR>
0.0385084

>  <SCORE.RESTR.CAVITY>
0.0385084

>  <SCORE.RESTR.norm>
0.00240677

>  <SCORE.SYSTEM>
0

>  <SCORE.SYSTEM.CONST>
0

>  <SCORE.SYSTEM.DIHEDRAL>
0

>  <SCORE.SYSTEM.SOLV>
0

>  <SCORE.SYSTEM.norm>
0

>  <SCORE.heavy>
16

>  <SCORE.norm>
-0.884447

>  <RMSD>
7.257

$$$$
1f27 biotin aptamer (Xray 1.3A)
 OpenBabel11021811393D
libRbt.so/2013.1/901 2013/11/27
 16 17  0  0  0  0  0  0  0  0999 V2000
   14.0948    3.0015    7.5190 C   0  0  0  0  0  0  0  0  0  0  0  0
   14.7299    2.1611    8.1481 O   0  5  0  0  0  0  0  0  0  0  0  0
   13.3770    2.6519    6.5835 O   0  0  0  0  0  0  0  0  0  0  0  0
   14.1407    4.4655    7.9373 C   0  0  0  0  0  0  0  0  0  0  0  0
   14.1356    4.6815    9.4671 C   0  0  0  0  0  0  0  0  0  0  0  0
   13.0788    3.8327   10.1495 C   0  0  0  0  0  0  0  0  0  0  0  0
   12.7300    4.3077   11.5446 C   0  0  0  0  0  0  0  0  0  0  0  0
   13.3334    3.4699   12.6795 C   0  0  2  0  0  0  0  0  0  0  0  0
   13.5196    1.5970   12.3285 S   0  0  0  0  0  0  0  0  0  0  0  0
   13.7992    1.3849   14.2052 C   0  0  0  0  0  0  0  0  0  0  0  0
   12.8715    2.4417   14.8729 C   0  0  2  0  0  0  0  0  0  0  0  0
   11.5202    1.7180   15.1167 N   0  0  0  0  0  0  0  0  0  0  0  0
   10.5473    2.2627   14.5253 C   0  0  0  0  0  0  0  0  0  0  0  0
    9.3406    1.8591   14.3676 O   0  0  0  0  0  0  0  0  0  0  0  0
   10.9349    3.3315   13.6336 N   0  0  0  0  0  0  0  0  0  0  0  0
   12.4252    3.5282   13.9099 C   0  0  2  0  0  0  0  0  0  0  0  0
  1  2  1  0  0  0  0
  1  3  2  0  0  0  0
  1  4  1  0  0  0  0
  4  5  1  0  0  0  0
  5  6  1  0  0  0  0
  6  7  1  0  0  0  0
  8  7  1  6  0  0  0
  8  9  1  0  0  0  0
  8 16  1  0  0  0  0
  9 10  1  0  0  0  0
 11 10  1  6  0  0  0
 11 12  1  0  0  0  0
 11 16  1  0  0  0  0
 12 13  1  0  0  0  0
 13 14  2  0  0  0  0
 13 15  1  0  0  0  0
 16 15  1  6  0  0  0
M  CHG  1   2  -1
M  END
>  <CHROM.1>
-39.01317921,-46.45439911,-161.77000217,-103.66856784,-33.44409039,12.82407391
2.80063334,11.69220944,1.15520871,0.48745688,-1.19800317

>  <Name>
1f27 biotin aptamer (Xray 1.3A)

>  <RI>
0

>  <Rbt.Current_Directory>
/home/itssahil/PROJECTS/Mol_Feturizer/New_Systems/rnas/1f27

>  <Rbt.Executable>
rbdock ($Id: //depot/dev/client3/rdock/2013.1/src/exe/rbdock.cxx#4 $)

>  <Rbt.Library>
libRbt.so (2013.1, Build901 2013/11/27)

>  <Rbt.Parameter_File>
/export/apps/rDock/src/rDock_2013.1_src/data/scripts/dock_solv.prm

>  <Rbt.Receptor>
prm/blind_docking_20.prm

>  <SCORE>
-0.823087

>  <SCORE.INTER>
-9.17654

>  <SCORE.INTER.CONST>
1

>  <SCORE.INTER.POLAR>
-1.92749

>  <SCORE.INTER.ROT>
5

>  <SCORE.INTER.SOLV>
21.0773

>  <SCORE.INTER.VDW>
-13.6518

>  <SCORE.INTER.norm>
-0.573534

>  <SCORE.INTRA>
3.20257

>  <SCORE.INTRA.DIHEDRAL>
4.01296

>  <SCORE.INTRA.DIHEDRAL.0>
6.87082

>  <SCORE.INTRA.POLAR>
0

>  <SCORE.INTRA.POLAR.0>
0

>  <SCORE.INTRA.REPUL>
0

>  <SCORE.INTRA.REPUL.0>
0

>  <SCORE.INTRA.SOLV>
0.655914

>  <SCORE.INTRA.SOLV.lig_0>
-42.5944

>  <SCORE.INTRA.VDW>
0.868135

>  <SCORE.INTRA.VDW.0>
-1.067

>  <SCORE.INTRA.norm>
0.200161

>  <SCORE.RESTR>
5.15088

>  <SCORE.RESTR.CAVITY>
5.15088

>  <SCORE.RESTR.norm>
0.32193

>  <SCORE.SYSTEM>
0

>  <SCORE.SYSTEM.CONST>
0

>  <SCORE.SYSTEM.DIHEDRAL>
0

>  <SCORE.SYSTEM.SOLV>
0

>  <SCORE.SYSTEM.norm>
0

>  <SCORE.heavy>
16

>  <SCORE.norm>
-0.0514429

>  <RMSD>
7.269

$$$$
1f27 biotin aptamer (Xray 1.3A)
 OpenBabel11021811393D
libRbt.so/2013.1/901 2013/11/27
 16 17  0  0  0  0  0  0  0  0999 V2000
   14.8695    2.5240    6.4804 C   0  0  0  0  0  0  0  0  0  0  0  0
   15.6733    1.6712    6.8437 O   0  5  0  0  0  0  0  0  0  0  0  0
   14.1718    2.3235    5.4877 O   0  0  0  0  0  0  0  0  0  0  0  0
   14.6865    3.7984    7.2947 C   0  0  0  0  0  0  0  0  0  0  0  0
   14.1150    3.5617    8.7105 C   0  0  0  0  0  0  0  0  0  0  0  0
   13.6727    4.8596    9.3605 C   0  0  0  0  0  0  0  0  0  0  0  0
   12.6679    4.6649   10.4768 C   0  0  0  0  0  0  0  0  0  0  0  0
   13.2023    3.9065   11.6989 C   0  0  2  0  0  0  0  0  0  0  0  0
   13.3610    2.0087   11.5018 S   0  0  0  0  0  0  0  0  0  0  0  0
   13.5540    1.9381   13.3999 C   0  0  0  0  0  0  0  0  0  0  0  0
   12.6225    3.0614   13.9418 C   0  0  2  0  0  0  0  0  0  0  0  0
   11.2458    2.3850   14.1795 N   0  0  0  0  0  0  0  0  0  0  0  0
   10.3121    2.9007   13.5048 C   0  0  0  0  0  0  0  0  0  0  0  0
    9.1046    2.5094   13.3245 O   0  0  0  0  0  0  0  0  0  0  0  0
   10.7621    3.8891   12.5518 N   0  0  0  0  0  0  0  0  0  0  0  0
   12.2431    4.0779   12.8789 C   0  0  2  0  0  0  0  0  0  0  0  0
  1  2  1  0  0  0  0
  1  3  2  0  0  0  0
  1  4  1  0  0  0  0
  4  5  1  0  0  0  0
  5  6  1  0  0  0  0
  6  7  1  0  0  0  0
  8  7  1  6  0  0  0
  8  9  1  0  0  0  0
  8 16  1  0  0  0  0
  9 10  1  0  0  0  0
 11 10  1  6  0  0  0
 11 12  1  0  0  0  0
 11 16  1  0  0  0  0
 12 13  1  0  0  0  0
 13 14  2  0  0  0  0
 13 15  1  0  0  0  0
 16 15  1  6  0  0  0
M  CHG  1   2  -1
M  END
>  <CHROM.1>
-64.57052261,-167.63718831,158.56287369,65.09342286,-76.78712826,12.91770595
3.02200696,10.73897176,-0.92246141,-0.67330198,1.99367270

>  <Name>
1f27 biotin aptamer (Xray 1.3A)

>  <RI>
0

>  <Rbt.Current_Directory>
/home/itssahil/PROJECTS/Mol_Feturizer/New_Systems/rnas/1f27

>  <Rbt.Executable>
rbdock ($Id: //depot/dev/client3/rdock/2013.1/src/exe/rbdock.cxx#4 $)

>  <Rbt.Library>
libRbt.so (2013.1, Build901 2013/11/27)

>  <Rbt.Parameter_File>
/export/apps/rDock/src/rDock_2013.1_src/data/scripts/dock_solv.prm

>  <Rbt.Receptor>
prm/blind_docking_20.prm

>  <SCORE>
-2.43161

>  <SCORE.INTER>
-3.02902

>  <SCORE.INTER.CONST>
1

>  <SCORE.INTER.POLAR>
-1.47906

>  <SCORE.INTER.ROT>
5

>  <SCORE.INTER.SOLV>
23.171

>  <SCORE.INTER.VDW>
-11.7462

>  <SCORE.INTER.norm>
-0.189314

>  <SCORE.INTRA>
-1.24155

>  <SCORE.INTRA.DIHEDRAL>
-2.11316

>  <SCORE.INTRA.DIHEDRAL.0>
6.87082

>  <SCORE.INTRA.POLAR>
0

>  <SCORE.INTRA.POLAR.0>
0

>  <SCORE.INTRA.REPUL>
0

>  <SCORE.INTRA.REPUL.0>
0

>  <SCORE.INTRA.SOLV>
-0.766681

>  <SCORE.INTRA.SOLV.lig_0>
-42.5944

>  <SCORE.INTRA.VDW>
0.198367

>  <SCORE.INTRA.VDW.0>
-1.067

>  <SCORE.INTRA.norm>
-0.0775971

>  <SCORE.RESTR>
1.83897

>  <SCORE.RESTR.CAVITY>
1.83897

>  <SCORE.RESTR.norm>
0.114935

>  <SCORE.SYSTEM>
0

>  <SCORE.SYSTEM.CONST>
0

>  <SCORE.SYSTEM.DIHEDRAL>
0

>  <SCORE.SYSTEM.SOLV>
0

>  <SCORE.SYSTEM.norm>
0

>  <SCORE.heavy>
16

>  <SCORE.norm>
-0.151976

>  <RMSD>
7.289

$$$$
1f27 biotin aptamer (Xray 1.3A)
 OpenBabel11021811393D
libRbt.so/2013.1/901 2013/11/27
 16 17  0  0  0  0  0  0  0  0999 V2000
   14.3240    2.8542    7.7405 C   0  0  0  0  0  0  0  0  0  0  0  0
   13.6071    2.6184    6.7731 O   0  5  0  0  0  0  0  0  0  0  0  0
   15.4365    3.3504    7.5710 O   0  0  0  0  0  0  0  0  0  0  0  0
   13.8121    2.5973    9.1520 C   0  0  0  0  0  0  0  0  0  0  0  0
   13.8774    3.8326   10.0777 C   0  0  0  0  0  0  0  0  0  0  0  0
   14.4359    3.4802   11.4440 C   0  0  0  0  0  0  0  0  0  0  0  0
   13.4895    2.6531   12.2889 C   0  0  0  0  0  0  0  0  0  0  0  0
   12.5182    3.4683   13.1528 C   0  0  2  0  0  0  0  0  0  0  0  0
   11.5142    2.4756   14.4460 S   0  0  0  0  0  0  0  0  0  0  0  0
   10.4022    4.0193   14.6056 C   0  0  0  0  0  0  0  0  0  0  0  0
   10.3375    4.6195   13.1708 C   0  0  2  0  0  0  0  0  0  0  0  0
    9.1086    3.9553   12.4943 N   0  0  0  0  0  0  0  0  0  0  0  0
    9.4018    3.3041   11.4535 C   0  0  0  0  0  0  0  0  0  0  0  0
    8.6890    2.5093   10.7436 O   0  0  0  0  0  0  0  0  0  0  0  0
   10.8233    3.1915   11.2207 N   0  0  0  0  0  0  0  0  0  0  0  0
   11.4487    4.1125   12.2679 C   0  0  2  0  0  0  0  0  0  0  0  0
  1  2  1  0  0  0  0
  1  3  2  0  0  0  0
  1  4  1  0  0  0  0
  4  5  1  0  0  0  0
  5  6  1  0  0  0  0
  6  7  1  0  0  0  0
  8  7  1  6  0  0  0
  8  9  1  0  0  0  0
  8 16  1  0  0  0  0
  9 10  1  0  0  0  0
 11 10  1  1  0  0  0
 11 12  1  0  0  0  0
 11 16  1  0  0  0  0
 12 13  1  0  0  0  0
 13 14  2  0  0  0  0
 13 15  1  0  0  0  0
 16 15  1  6  0  0  0
M  CHG  1   2  -1
M  END
>  <CHROM.1>
-124.43127974,-134.93119013,-71.08357461,-88.83871643,-170.10208775,12.03912269
3.23562856,11.34694959,0.93311289,0.02775042,-1.62253228

>  <Name>
1f27 biotin aptamer (Xray 1.3A)

>  <RI>
0

>  <Rbt.Current_Directory>
/home/itssahil/PROJECTS/Mol_Feturizer/New_Systems/rnas/1f27

>  <Rbt.Executable>
rbdock ($Id: //depot/dev/client3/rdock/2013.1/src/exe/rbdock.cxx#4 $)

>  <Rbt.Library>
libRbt.so (2013.1, Build901 2013/11/27)

>  <Rbt.Parameter_File>
/export/apps/rDock/src/rDock_2013.1_src/data/scripts/dock_solv.prm

>  <Rbt.Receptor>
prm/blind_docking_20.prm

>  <SCORE>
-2.42685

>  <SCORE.INTER>
-6.15985

>  <SCORE.INTER.CONST>
1

>  <SCORE.INTER.POLAR>
-0.776011

>  <SCORE.INTER.ROT>
5

>  <SCORE.INTER.SOLV>
20.3382

>  <SCORE.INTER.VDW>
-15.2326

>  <SCORE.INTER.norm>
-0.384991

>  <SCORE.INTRA>
1.64767

>  <SCORE.INTRA.DIHEDRAL>
2.88943

>  <SCORE.INTRA.DIHEDRAL.0>
6.87082

>  <SCORE.INTRA.POLAR>
0

>  <SCORE.INTRA.POLAR.0>
0

>  <SCORE.INTRA.REPUL>
0

>  <SCORE.INTRA.REPUL.0>
0

>  <SCORE.INTRA.SOLV>
-0.0851582

>  <SCORE.INTRA.SOLV.lig_0>
-42.5944

>  <SCORE.INTRA.VDW>
0.245535

>  <SCORE.INTRA.VDW.0>
-1.067

>  <SCORE.INTRA.norm>
0.10298

>  <SCORE.RESTR>
2.08533

>  <SCORE.RESTR.CAVITY>
2.08533

>  <SCORE.RESTR.norm>
0.130333

>  <SCORE.SYSTEM>
0

>  <SCORE.SYSTEM.CONST>
0

>  <SCORE.SYSTEM.DIHEDRAL>
0

>  <SCORE.SYSTEM.SOLV>
0

>  <SCORE.SYSTEM.norm>
0

>  <SCORE.heavy>
16

>  <SCORE.norm>
-0.151678

>  <RMSD>
7.302

$$$$
1f27 biotin aptamer (Xray 1.3A)
 OpenBabel11021811393D
libRbt.so/2013.1/901 2013/11/27
 16 17  0  0  0  0  0  0  0  0999 V2000
   14.6952    3.3300    5.7574 C   0  0  0  0  0  0  0  0  0  0  0  0
   14.2665    2.2221    5.4506 O   0  5  0  0  0  0  0  0  0  0  0  0
   15.1431    4.0751    4.8875 O   0  0  0  0  0  0  0  0  0  0  0  0
   14.6105    3.8096    7.2008 C   0  0  0  0  0  0  0  0  0  0  0  0
   14.1088    2.7348    8.1908 C   0  0  0  0  0  0  0  0  0  0  0  0
   13.9770    3.2869    9.5981 C   0  0  0  0  0  0  0  0  0  0  0  0
   13.3333    2.3194   10.5693 C   0  0  0  0  0  0  0  0  0  0  0  0
   13.8314    2.4325   12.0161 C   0  0  2  0  0  0  0  0  0  0  0  0
   13.6459    0.8583   13.0900 S   0  0  0  0  0  0  0  0  0  0  0  0
   13.9836    1.9800   14.5976 C   0  0  0  0  0  0  0  0  0  0  0  0
   13.3071    3.3380   14.2491 C   0  0  2  0  0  0  0  0  0  0  0  0
   11.8601    3.2387   14.8019 N   0  0  0  0  0  0  0  0  0  0  0  0
   10.9747    3.3669   13.9115 C   0  0  0  0  0  0  0  0  0  0  0  0
    9.7072    3.1829   13.9691 O   0  0  0  0  0  0  0  0  0  0  0  0
   11.5051    3.4151   12.5684 N   0  0  0  0  0  0  0  0  0  0  0  0
   13.0188    3.4907   12.7657 C   0  0  2  0  0  0  0  0  0  0  0  0
  1  2  1  0  0  0  0
  1  3  2  0  0  0  0
  1  4  1  0  0  0  0
  4  5  1  0  0  0  0
  5  6  1  0  0  0  0
  6  7  1  0  0  0  0
  8  7  1  6  0  0  0
  8  9  1  0  0  0  0
  8 16  1  0  0  0  0
  9 10  1  0  0  0  0
 11 10  1  6  0  0  0
 11 12  1  0  0  0  0
 11 16  1  0  0  0  0
 12 13  1  0  0  0  0
 13 14  2  0  0  0  0
 13 15  1  0  0  0  0
 16 15  1  1  0  0  0
M  CHG  1   2  -1
M  END
>  <CHROM.1>
6.55975641,-177.09100621,173.12847797,147.98290860,-155.47013190,13.26161053
2.78724467,10.96437148,1.20648662,0.59662737,-1.28432556

>  <Name>
1f27 biotin aptamer (Xray 1.3A)

>  <RI>
0

>  <Rbt.Current_Directory>
/home/itssahil/PROJECTS/Mol_Feturizer/New_Systems/rnas/1f27

>  <Rbt.Executable>
rbdock ($Id: //depot/dev/client3/rdock/2013.1/src/exe/rbdock.cxx#4 $)

>  <Rbt.Library>
libRbt.so (2013.1, Build901 2013/11/27)

>  <Rbt.Parameter_File>
/export/apps/rDock/src/rDock_2013.1_src/data/scripts/dock_solv.prm

>  <Rbt.Receptor>
prm/blind_docking_20.prm

>  <SCORE>
-5.74472

>  <SCORE.INTER>
-9.52924

>  <SCORE.INTER.CONST>
1

>  <SCORE.INTER.POLAR>
0

>  <SCORE.INTER.ROT>
5

>  <SCORE.INTER.SOLV>
23.9902

>  <SCORE.INTER.VDW>
-21.2829

>  <SCORE.INTER.norm>
-0.595577

>  <SCORE.INTRA>
0.355712

>  <SCORE.INTRA.DIHEDRAL>
0.19556

>  <SCORE.INTRA.DIHEDRAL.0>
6.87082

>  <SCORE.INTRA.POLAR>
0

>  <SCORE.INTRA.POLAR.0>
0

>  <SCORE.INTRA.REPUL>
0

>  <SCORE.INTRA.REPUL.0>
0

>  <SCORE.INTRA.SOLV>
-0.721464

>  <SCORE.INTRA.SOLV.lig_0>
-42.5944

>  <SCORE.INTRA.VDW>
0.618664

>  <SCORE.INTRA.VDW.0>
-1.067

>  <SCORE.INTRA.norm>
0.022232

>  <SCORE.RESTR>
3.42881

>  <SCORE.RESTR.CAVITY>
3.42881

>  <SCORE.RESTR.norm>
0.2143

>  <SCORE.SYSTEM>
0

>  <SCORE.SYSTEM.CONST>
0

>  <SCORE.SYSTEM.DIHEDRAL>
0

>  <SCORE.SYSTEM.SOLV>
0

>  <SCORE.SYSTEM.norm>
0

>  <SCORE.heavy>
16

>  <SCORE.norm>
-0.359045

>  <RMSD>
7.320

$$$$
1f27 biotin aptamer (Xray 1.3A)
 OpenBabel11021811393D
libRbt.so/2013.1/901 2013/11/27
 16 17  0  0  0  0  0  0  0  0999 V2000
   10.4885    3.1381   13.9923 C   0  0  0  0  0  0  0  0  0  0  0  0
    9.5730    2.9024   13.2103 O   0  5  0  0  0  0  0  0  0  0  0  0
   10.7846    4.3027   14.2544 O   0  0  0  0  0  0  0  0  0  0  0  0
   11.2120    1.9933   14.6898 C   0  0  0  0  0  0  0  0  0  0  0  0
   12.7524    2.1048   14.6455 C   0  0  0  0  0  0  0  0  0  0  0  0
   13.3716    0.9901   13.8229 C   0  0  0  0  0  0  0  0  0  0  0  0
   13.5978    1.3631   12.3726 C   0  0  0  0  0  0  0  0  0  0  0  0
   13.7443    2.8678   12.1103 C   0  0  2  0  0  0  0  0  0  0  0  0
   12.1247    3.8093   11.7153 S   0  0  0  0  0  0  0  0  0  0  0  0
   13.2337    5.2424   11.1141 C   0  0  0  0  0  0  0  0  0  0  0  0
   14.4652    4.5514   10.4590 C   0  0  2  0  0  0  0  0  0  0  0  0
   14.0968    4.3713    8.9620 N   0  0  0  0  0  0  0  0  0  0  0  0
   14.1011    3.1659    8.5875 C   0  0  0  0  0  0  0  0  0  0  0  0
   13.6980    2.6360    7.4918 O   0  0  0  0  0  0  0  0  0  0  0  0
   14.2881    2.2236    9.6666 N   0  0  0  0  0  0  0  0  0  0  0  0
   14.6182    3.0988   10.8754 C   0  0  2  0  0  0  0  0  0  0  0  0
  1  2  1  0  0  0  0
  1  3  2  0  0  0  0
  1  4  1  0  0  0  0
  4  5  1  0  0  0  0
  5  6  1  0  0  0  0
  6  7  1  0  0  0  0
  8  7  1  6  0  0  0
  8  9  1  0  0  0  0
  8 16  1  0  0  0  0
  9 10  1  0  0  0  0
 11 10  1  1  0  0  0
 11 12  1  0  0  0  0
 11 16  1  0  0  0  0
 12 13  1  0  0  0  0
 13 14  2  0  0  0  0
 13 15  1  0  0  0  0
 16 15  1  6  0  0  0
M  CHG  1   2  -1
M  END
>  <CHROM.1>
132.67175769,-114.16508905,93.14686473,24.69280528,-90.63537850,12.79259134
3.10351991,11.73557085,2.28966880,-0.72666707,2.23007758

>  <Name>
1f27 biotin aptamer (Xray 1.3A)

>  <RI>
0

>  <Rbt.Current_Directory>
/home/itssahil/PROJECTS/Mol_Feturizer/New_Systems/rnas/1f27

>  <Rbt.Executable>
rbdock ($Id: //depot/dev/client3/rdock/2013.1/src/exe/rbdock.cxx#4 $)

>  <Rbt.Library>
libRbt.so (2013.1, Build901 2013/11/27)

>  <Rbt.Parameter_File>
/export/apps/rDock/src/rDock_2013.1_src/data/scripts/dock_solv.prm

>  <Rbt.Receptor>
prm/blind_docking_20.prm

>  <SCORE>
11.483

>  <SCORE.INTER>
0.359516

>  <SCORE.INTER.CONST>
1

>  <SCORE.INTER.POLAR>
-0.582944

>  <SCORE.INTER.ROT>
5

>  <SCORE.INTER.SOLV>
15.9552

>  <SCORE.INTER.VDW>
-10.0689

>  <SCORE.INTER.norm>
0.0224697

>  <SCORE.INTRA>
7.88478

>  <SCORE.INTRA.DIHEDRAL>
10.1417

>  <SCORE.INTRA.DIHEDRAL.0>
6.87082

>  <SCORE.INTRA.POLAR>
0

>  <SCORE.INTRA.POLAR.0>
0

>  <SCORE.INTRA.REPUL>
0

>  <SCORE.INTRA.REPUL.0>
0

>  <SCORE.INTRA.SOLV>
2.53403

>  <SCORE.INTRA.SOLV.lig_0>
-42.5944

>  <SCORE.INTRA.VDW>
1.54693

>  <SCORE.INTRA.VDW.0>
-1.067

>  <SCORE.INTRA.norm>
0.492799

>  <SCORE.RESTR>
3.23873

>  <SCORE.RESTR.CAVITY>
3.23873

>  <SCORE.RESTR.norm>
0.202421

>  <SCORE.SYSTEM>
0

>  <SCORE.SYSTEM.CONST>
0

>  <SCORE.SYSTEM.DIHEDRAL>
0

>  <SCORE.SYSTEM.SOLV>
0

>  <SCORE.SYSTEM.norm>
0

>  <SCORE.heavy>
16

>  <SCORE.norm>
0.717689

>  <RMSD>
7.356

$$$$
1f27 biotin aptamer (Xray 1.3A)
 OpenBabel11021811393D
libRbt.so/2013.1/901 2013/11/27
 16 17  0  0  0  0  0  0  0  0999 V2000
   14.7641    3.3949    5.8072 C   0  0  0  0  0  0  0  0  0  0  0  0
   14.3023    2.3146    5.4537 O   0  5  0  0  0  0  0  0  0  0  0  0
   15.2517    4.1545    4.9719 O   0  0  0  0  0  0  0  0  0  0  0  0
   14.6726    3.8250    7.2657 C   0  0  0  0  0  0  0  0  0  0  0  0
   14.1196    2.7330    8.2084 C   0  0  0  0  0  0  0  0  0  0  0  0
   13.9821    3.2391    9.6324 C   0  0  0  0  0  0  0  0  0  0  0  0
   13.3245    2.2448   10.5665 C   0  0  0  0  0  0  0  0  0  0  0  0
   13.5976    2.4841   12.0573 C   0  0  2  0  0  0  0  0  0  0  0  0
   13.3111    0.9836   13.2114 S   0  0  0  0  0  0  0  0  0  0  0  0
   13.3805    2.2245   14.6606 C   0  0  0  0  0  0  0  0  0  0  0  0
   12.7150    3.5209   14.1133 C   0  0  2  0  0  0  0  0  0  0  0  0
   11.2064    3.3936   14.4555 N   0  0  0  0  0  0  0  0  0  0  0  0
   10.4592    3.4164   13.4385 C   0  0  0  0  0  0  0  0  0  0  0  0
    9.2047    3.1777   13.3251 O   0  0  0  0  0  0  0  0  0  0  0  0
   11.1813    3.3934   12.1873 N   0  0  0  0  0  0  0  0  0  0  0  0
   12.6452    3.5538   12.5964 C   0  0  2  0  0  0  0  0  0  0  0  0
  1  2  1  0  0  0  0
  1  3  2  0  0  0  0
  1  4  1  0  0  0  0
  4  5  1  0  0  0  0
  5  6  1  0  0  0  0
  6  7  1  0  0  0  0
  8  7  1  6  0  0  0
  8  9  1  0  0  0  0
  8 16  1  0  0  0  0
  9 10  1  0  0  0  0
 11 10  1  6  0  0  0
 11 12  1  0  0  0  0
 11 16  1  0  0  0  0
 12 13  1  0  0  0  0
 13 14  2  0  0  0  0
 13 15  1  0  0  0  0
 16 15  1  1  0  0  0
M  CHG  1   2  -1
M  END
>  <CHROM.1>
6.64080982,-177.00955266,174.67941151,159.61493512,-160.15554908,13.01656308
2.85225514,10.87363153,1.14862445,0.49964712,-1.28199110

>  <Name>
1f27 biotin aptamer (Xray 1.3A)

>  <RI>
0

>  <Rbt.Current_Directory>
/home/itssahil/PROJECTS/Mol_Feturizer/New_Systems/rnas/1f27

>  <Rbt.Executable>
rbdock ($Id: //depot/dev/client3/rdock/2013.1/src/exe/rbdock.cxx#4 $)

>  <Rbt.Library>
libRbt.so (2013.1, Build901 2013/11/27)

>  <Rbt.Parameter_File>
/export/apps/rDock/src/rDock_2013.1_src/data/scripts/dock_solv.prm

>  <Rbt.Receptor>
prm/blind_docking_20.prm

>  <SCORE>
-4.00757

>  <SCORE.INTER>
-6.01439

>  <SCORE.INTER.CONST>
1

>  <SCORE.INTER.POLAR>
-0.152106

>  <SCORE.INTER.ROT>
5

>  <SCORE.INTER.SOLV>
23.8917

>  <SCORE.INTER.VDW>
-18.3998

>  <SCORE.INTER.norm>
-0.375899

>  <SCORE.INTRA>
-0.873874

>  <SCORE.INTRA.DIHEDRAL>
-2.33834

>  <SCORE.INTRA.DIHEDRAL.0>
6.87082

>  <SCORE.INTRA.POLAR>
0

>  <SCORE.INTRA.POLAR.0>
0

>  <SCORE.INTRA.REPUL>
0

>  <SCORE.INTRA.REPUL.0>
0

>  <SCORE.INTRA.SOLV>
-0.705789

>  <SCORE.INTRA.SOLV.lig_0>
-42.5944

>  <SCORE.INTRA.VDW>
0.648192

>  <SCORE.INTRA.VDW.0>
-1.067

>  <SCORE.INTRA.norm>
-0.0546171

>  <SCORE.RESTR>
2.8807

>  <SCORE.RESTR.CAVITY>
2.8807

>  <SCORE.RESTR.norm>
0.180044

>  <SCORE.SYSTEM>
0

>  <SCORE.SYSTEM.CONST>
0

>  <SCORE.SYSTEM.DIHEDRAL>
0

>  <SCORE.SYSTEM.SOLV>
0

>  <SCORE.SYSTEM.norm>
0

>  <SCORE.heavy>
16

>  <SCORE.norm>
-0.250473

>  <RMSD>
7.386

$$$$
1f27 biotin aptamer (Xray 1.3A)
 OpenBabel11021811393D
libRbt.so/2013.1/901 2013/11/27
 16 17  0  0  0  0  0  0  0  0999 V2000
   14.0314    3.0767    6.1403 C   0  0  0  0  0  0  0  0  0  0  0  0
   14.6822    2.0710    5.8747 O   0  5  0  0  0  0  0  0  0  0  0  0
   13.0174    3.3372    5.4951 O   0  0  0  0  0  0  0  0  0  0  0  0
   14.4386    3.9641    7.3096 C   0  0  0  0  0  0  0  0  0  0  0  0
   14.3937    3.2544    8.6812 C   0  0  0  0  0  0  0  0  0  0  0  0
   12.9696    2.9524    9.1096 C   0  0  0  0  0  0  0  0  0  0  0  0
   12.8734    1.8808   10.1755 C   0  0  0  0  0  0  0  0  0  0  0  0
   13.5151    2.2501   11.5194 C   0  0  2  0  0  0  0  0  0  0  0  0
   13.4518    0.8999   12.8754 S   0  0  0  0  0  0  0  0  0  0  0  0
   13.9323    2.2736   14.1112 C   0  0  0  0  0  0  0  0  0  0  0  0
   13.2134    3.5527   13.5914 C   0  0  2  0  0  0  0  0  0  0  0  0
   11.8309    3.5716   14.2967 N   0  0  0  0  0  0  0  0  0  0  0  0
   10.8586    3.5453   13.4922 C   0  0  0  0  0  0  0  0  0  0  0  0
    9.6050    3.3887   13.7105 O   0  0  0  0  0  0  0  0  0  0  0  0
   11.2494    3.3422   12.1161 N   0  0  0  0  0  0  0  0  0  0  0  0
   12.7747    3.4359   12.1420 C   0  0  2  0  0  0  0  0  0  0  0  0
  1  2  1  0  0  0  0
  1  3  2  0  0  0  0
  1  4  1  0  0  0  0
  4  5  1  0  0  0  0
  5  6  1  0  0  0  0
  6  7  1  0  0  0  0
  8  7  1  6  0  0  0
  8  9  1  0  0  0  0
  8 16  1  0  0  0  0
  9 10  1  0  0  0  0
 11 10  1  1  0  0  0
 11 12  1  0  0  0  0
 11 16  1  0  0  0  0
 12 13  1  0  0  0  0
 13 14  2  0  0  0  0
 13 15  1  0  0  0  0
 16 15  1  1  0  0  0
M  CHG  1   2  -1
M  END
>  <CHROM.1>
-61.85993943,-69.30817227,160.71117973,64.32983671,-178.45851143,12.94483601
2.77035285,10.78697076,1.24532648,0.57883676,-1.36236135

>  <Name>
1f27 biotin aptamer (Xray 1.3A)

>  <RI>
0

>  <Rbt.Current_Directory>
/home/itssahil/PROJECTS/Mol_Feturizer/New_Systems/rnas/1f27

>  <Rbt.Executable>
rbdock ($Id: //depot/dev/client3/rdock/2013.1/src/exe/rbdock.cxx#4 $)

>  <Rbt.Library>
libRbt.so (2013.1, Build901 2013/11/27)

>  <Rbt.Parameter_File>
/export/apps/rDock/src/rDock_2013.1_src/data/scripts/dock_solv.prm

>  <Rbt.Receptor>
prm/blind_docking_20.prm

>  <SCORE>
32.7328

>  <SCORE.INTER>
32.8084

>  <SCORE.INTER.CONST>
1

>  <SCORE.INTER.POLAR>
-0.0760143

>  <SCORE.INTER.ROT>
5

>  <SCORE.INTER.SOLV>
24.6207

>  <SCORE.INTER.VDW>
6.98539

>  <SCORE.INTER.norm>
2.05052

>  <SCORE.INTRA>
-1.32405

>  <SCORE.INTRA.DIHEDRAL>
-3.68916

>  <SCORE.INTRA.DIHEDRAL.0>
6.87082

>  <SCORE.INTRA.POLAR>
0

>  <SCORE.INTRA.POLAR.0>
0

>  <SCORE.INTRA.REPUL>
0

>  <SCORE.INTRA.REPUL.0>
0

>  <SCORE.INTRA.SOLV>
0.238074

>  <SCORE.INTRA.SOLV.lig_0>
-42.5944

>  <SCORE.INTRA.VDW>
0.401494

>  <SCORE.INTRA.VDW.0>
-1.067

>  <SCORE.INTRA.norm>
-0.0827531

>  <SCORE.RESTR>
1.24851

>  <SCORE.RESTR.CAVITY>
1.24851

>  <SCORE.RESTR.norm>
0.078032

>  <SCORE.SYSTEM>
0

>  <SCORE.SYSTEM.CONST>
0

>  <SCORE.SYSTEM.DIHEDRAL>
0

>  <SCORE.SYSTEM.SOLV>
0

>  <SCORE.SYSTEM.norm>
0

>  <SCORE.heavy>
16

>  <SCORE.norm>
2.0458

>  <RMSD>
7.414

$$$$
1f27 biotin aptamer (Xray 1.3A)
 OpenBabel11021811393D
libRbt.so/2013.1/901 2013/11/27
 16 17  0  0  0  0  0  0  0  0999 V2000
   10.5752    4.1341   12.2179 C   0  0  0  0  0  0  0  0  0  0  0  0
   10.5020    3.6893   13.3590 O   0  5  0  0  0  0  0  0  0  0  0  0
    9.5500    4.4576   11.6205 O   0  0  0  0  0  0  0  0  0  0  0  0
   11.9356    4.3497   11.5672 C   0  0  0  0  0  0  0  0  0  0  0  0
   12.4472    3.1327   10.7646 C   0  0  0  0  0  0  0  0  0  0  0  0
   13.8506    3.3609   10.2343 C   0  0  0  0  0  0  0  0  0  0  0  0
   14.9023    3.4388   11.3214 C   0  0  0  0  0  0  0  0  0  0  0  0
   14.8311    2.3184   12.3673 C   0  0  2  0  0  0  0  0  0  0  0  0
   14.4446    2.8707   14.1594 S   0  0  0  0  0  0  0  0  0  0  0  0
   15.0120    1.1302   14.7013 C   0  0  0  0  0  0  0  0  0  0  0  0
   16.1749    0.7657   13.7328 C   0  0  2  0  0  0  0  0  0  0  0  0
   17.4696    1.2693   14.4251 N   0  0  0  0  0  0  0  0  0  0  0  0
   18.1014    2.1234   13.7435 C   0  0  0  0  0  0  0  0  0  0  0  0
   19.1007    2.8621   14.0588 O   0  0  0  0  0  0  0  0  0  0  0  0
   17.3983    2.5542   12.5570 N   0  0  0  0  0  0  0  0  0  0  0  0
   16.1894    1.6224   12.4786 C   0  0  2  0  0  0  0  0  0  0  0  0
  1  2  1  0  0  0  0
  1  3  2  0  0  0  0
  1  4  1  0  0  0  0
  4  5  1  0  0  0  0
  5  6  1  0  0  0  0
  6  7  1  0  0  0  0
  8  7  1  6  0  0  0
  8  9  1  0  0  0  0
  8 16  1  0  0  0  0
  9 10  1  0  0  0  0
 11 10  1  1  0  0  0
 11 12  1  0  0  0  0
 11 16  1  0  0  0  0
 12 13  1  0  0  0  0
 13 14  2  0  0  0  0
 13 15  1  0  0  0  0
 16 15  1  1  0  0  0
M  CHG  1   2  -1
M  END
>  <CHROM.1>
90.98288538,-175.37036500,67.15378104,47.86828573,-116.41061523,14.50235754
2.78918740,12.82330365,2.78587903,0.19152478,-1.22928897

>  <Name>
1f27 biotin aptamer (Xray 1.3A)

>  <RI>
224

>  <Rbt.Current_Directory>
/home/itssahil/PROJECTS/Mol_Feturizer/New_Systems/rnas/1f27

>  <Rbt.Executable>
rbdock ($Id: //depot/dev/client3/rdock/2013.1/src/exe/rbdock.cxx#4 $)

>  <Rbt.Library>
libRbt.so (2013.1, Build901 2013/11/27)

>  <Rbt.Parameter_File>
/export/apps/rDock/src/rDock_2013.1_src/data/scripts/dock_solv.prm

>  <Rbt.Receptor>
prm/blind_docking_80.prm

>  <SCORE>
-23.2822

>  <SCORE.INTER>
-24.1762

>  <SCORE.INTER.CONST>
1

>  <SCORE.INTER.POLAR>
-0.870423

>  <SCORE.INTER.ROT>
5

>  <SCORE.INTER.SOLV>
12.7607

>  <SCORE.INTER.VDW>
-24.4029

>  <SCORE.INTER.norm>
-1.51101

>  <SCORE.INTRA>
0.893909

>  <SCORE.INTRA.DIHEDRAL>
1.27757

>  <SCORE.INTRA.DIHEDRAL.0>
6.87082

>  <SCORE.INTRA.POLAR>
0

>  <SCORE.INTRA.POLAR.0>
0

>  <SCORE.INTRA.REPUL>
0

>  <SCORE.INTRA.REPUL.0>
0

>  <SCORE.INTRA.SOLV>
-0.455887

>  <SCORE.INTRA.SOLV.lig_0>
-42.5944

>  <SCORE.INTRA.VDW>
0.483066

>  <SCORE.INTRA.VDW.0>
-1.067

>  <SCORE.INTRA.norm>
0.0558693

>  <SCORE.RESTR>
0

>  <SCORE.RESTR.CAVITY>
0

>  <SCORE.RESTR.norm>
0

>  <SCORE.SYSTEM>
0

>  <SCORE.SYSTEM.CONST>
0

>  <SCORE.SYSTEM.DIHEDRAL>
0

>  <SCORE.SYSTEM.SOLV>
0

>  <SCORE.SYSTEM.norm>
0

>  <SCORE.heavy>
16

>  <SCORE.norm>
-1.45514

>  <RMSD>
7.419

$$$$
1f27 biotin aptamer (Xray 1.3A)
 OpenBabel11021811393D
libRbt.so/2013.1/901 2013/11/27
 16 17  0  0  0  0  0  0  0  0999 V2000
   14.2997    2.3808    6.3247 C   0  0  0  0  0  0  0  0  0  0  0  0
   13.1417    2.5166    6.7065 O   0  5  0  0  0  0  0  0  0  0  0  0
   14.5422    1.6802    5.3434 O   0  0  0  0  0  0  0  0  0  0  0  0
   15.4274    3.1317    7.0212 C   0  0  0  0  0  0  0  0  0  0  0  0
   15.1067    4.6144    7.3142 C   0  0  0  0  0  0  0  0  0  0  0  0
   13.7100    4.7840    7.8829 C   0  0  0  0  0  0  0  0  0  0  0  0
   13.6960    5.2810    9.3134 C   0  0  0  0  0  0  0  0  0  0  0  0
   14.1161    4.2410   10.3604 C   0  0  2  0  0  0  0  0  0  0  0  0
   13.7242    2.4168    9.9311 S   0  0  0  0  0  0  0  0  0  0  0  0
   14.0736    2.0246   11.7666 C   0  0  0  0  0  0  0  0  0  0  0  0
   13.5460    3.2616   12.5505 C   0  0  2  0  0  0  0  0  0  0  0  0
   12.0658    2.9412   12.8909 N   0  0  0  0  0  0  0  0  0  0  0  0
   11.2500    3.7748   12.4085 C   0  0  0  0  0  0  0  0  0  0  0  0
    9.9698    3.7428   12.3469 O   0  0  0  0  0  0  0  0  0  0  0  0
   11.8610    4.7384   11.5219 N   0  0  0  0  0  0  0  0  0  0  0  0
   13.3610    4.4845   11.6689 C   0  0  2  0  0  0  0  0  0  0  0  0
  1  2  1  0  0  0  0
  1  3  2  0  0  0  0
  1  4  1  0  0  0  0
  4  5  1  0  0  0  0
  5  6  1  0  0  0  0
  6  7  1  0  0  0  0
  8  7  1  6  0  0  0
  8  9  1  0  0  0  0
  8 16  1  0  0  0  0
  9 10  1  0  0  0  0
 11 10  1  6  0  0  0
 11 12  1  0  0  0  0
 11 16  1  0  0  0  0
 12 13  1  0  0  0  0
 13 14  2  0  0  0  0
 13 15  1  0  0  0  0
 16 15  1  6  0  0  0
M  CHG  1   2  -1
M  END
>  <CHROM.1>
-44.37470137,44.58052656,114.14955649,-73.27846055,-30.18442942,13.36600424
3.40263591,9.69101638,-0.10808112,-1.15618655,2.89671970

>  <Name>
1f27 biotin aptamer (Xray 1.3A)

>  <RI>
0

>  <Rbt.Current_Directory>
/home/itssahil/PROJECTS/Mol_Feturizer/New_Systems/rnas/1f27

>  <Rbt.Executable>
rbdock ($Id: //depot/dev/client3/rdock/2013.1/src/exe/rbdock.cxx#4 $)

>  <Rbt.Library>
libRbt.so (2013.1, Build901 2013/11/27)

>  <Rbt.Parameter_File>
/export/apps/rDock/src/rDock_2013.1_src/data/scripts/dock_solv.prm

>  <Rbt.Receptor>
prm/blind_docking_20.prm

>  <SCORE>
26.5782

>  <SCORE.INTER>
20.8299

>  <SCORE.INTER.CONST>
1

>  <SCORE.INTER.POLAR>
-0.334681

>  <SCORE.INTER.ROT>
5

>  <SCORE.INTER.SOLV>
23.2898

>  <SCORE.INTER.VDW>
0.305598

>  <SCORE.INTER.norm>
1.30187

>  <SCORE.INTRA>
5.53629

>  <SCORE.INTRA.DIHEDRAL>
5.00026

>  <SCORE.INTRA.DIHEDRAL.0>
6.87082

>  <SCORE.INTRA.POLAR>
0

>  <SCORE.INTRA.POLAR.0>
0

>  <SCORE.INTRA.REPUL>
0

>  <SCORE.INTRA.REPUL.0>
0

>  <SCORE.INTRA.SOLV>
1.90516

>  <SCORE.INTRA.SOLV.lig_0>
-42.5944

>  <SCORE.INTRA.VDW>
2.08358

>  <SCORE.INTRA.VDW.0>
-1.067

>  <SCORE.INTRA.norm>
0.346018

>  <SCORE.RESTR>
0.211974

>  <SCORE.RESTR.CAVITY>
0.211974

>  <SCORE.RESTR.norm>
0.0132484

>  <SCORE.SYSTEM>
0

>  <SCORE.SYSTEM.CONST>
0

>  <SCORE.SYSTEM.DIHEDRAL>
0

>  <SCORE.SYSTEM.SOLV>
0

>  <SCORE.SYSTEM.norm>
0

>  <SCORE.heavy>
16

>  <SCORE.norm>
1.66114

>  <RMSD>
7.433

$$$$
1f27 biotin aptamer (Xray 1.3A)
 OpenBabel11021811393D
libRbt.so/2013.1/901 2013/11/27
 16 17  0  0  0  0  0  0  0  0999 V2000
   10.5448    4.1314   12.6604 C   0  0  0  0  0  0  0  0  0  0  0  0
   10.3827    4.4139   13.8433 O   0  5  0  0  0  0  0  0  0  0  0  0
    9.6352    4.3236   11.8554 O   0  0  0  0  0  0  0  0  0  0  0  0
   11.8913    3.6082   12.1770 C   0  0  0  0  0  0  0  0  0  0  0  0
   12.5663    4.5019   11.1127 C   0  0  0  0  0  0  0  0  0  0  0  0
   13.7262    3.7923   10.4388 C   0  0  0  0  0  0  0  0  0  0  0  0
   14.9353    3.6246   11.3353 C   0  0  0  0  0  0  0  0  0  0  0  0
   14.8287    2.4809   12.3526 C   0  0  2  0  0  0  0  0  0  0  0  0
   14.4311    2.9973   14.1528 S   0  0  0  0  0  0  0  0  0  0  0  0
   14.9569    1.2330   14.6587 C   0  0  0  0  0  0  0  0  0  0  0  0
   16.1242    0.8686   13.6955 C   0  0  2  0  0  0  0  0  0  0  0  0
   17.4200    1.3290   14.4154 N   0  0  0  0  0  0  0  0  0  0  0  0
   18.0771    2.1863   13.7625 C   0  0  0  0  0  0  0  0  0  0  0  0
   19.0870    2.8967   14.1077 O   0  0  0  0  0  0  0  0  0  0  0  0
   17.3976    2.6600   12.5786 N   0  0  0  0  0  0  0  0  0  0  0  0
   16.1714    1.7549   12.4630 C   0  0  2  0  0  0  0  0  0  0  0  0
  1  2  1  0  0  0  0
  1  3  2  0  0  0  0
  1  4  1  0  0  0  0
  4  5  1  0  0  0  0
  5  6  1  0  0  0  0
  6  7  1  0  0  0  0
  8  7  1  6  0  0  0
  8  9  1  0  0  0  0
  8 16  1  0  0  0  0
  9 10  1  0  0  0  0
 11 10  1  1  0  0  0
 11 12  1  0  0  0  0
 11 16  1  0  0  0  0
 12 13  1  0  0  0  0
 13 14  2  0  0  0  0
 13 15  1  0  0  0  0
 16 15  1  1  0  0  0
M  CHG  1   2  -1
M  END
>  <CHROM.1>
-119.13626135,-166.90409230,-71.49705879,78.46833703,-102.56418514,14.48371390
2.95906538,12.95829578,2.82488572,0.21097684,-1.17097759

>  <Name>
1f27 biotin aptamer (Xray 1.3A)

>  <RI>
0

>  <Rbt.Current_Directory>
/home/itssahil/PROJECTS/Mol_Feturizer/New_Systems/rnas/1f27

>  <Rbt.Executable>
rbdock ($Id: //depot/dev/client3/rdock/2013.1/src/exe/rbdock.cxx#4 $)

>  <Rbt.Library>
libRbt.so (2013.1, Build901 2013/11/27)

>  <Rbt.Parameter_File>
/export/apps/rDock/src/rDock_2013.1_src/data/scripts/dock_solv.prm

>  <Rbt.Receptor>
prm/blind_docking_60.prm

>  <SCORE>
-23.0032

>  <SCORE.INTER>
-23.9502

>  <SCORE.INTER.CONST>
1

>  <SCORE.INTER.POLAR>
-0.87178

>  <SCORE.INTER.ROT>
5

>  <SCORE.INTER.SOLV>
12.9378

>  <SCORE.INTER.VDW>
-24.3068

>  <SCORE.INTER.norm>
-1.49688

>  <SCORE.INTRA>
0.946946

>  <SCORE.INTRA.DIHEDRAL>
1.65699

>  <SCORE.INTRA.DIHEDRAL.0>
6.87082

>  <SCORE.INTRA.POLAR>
0

>  <SCORE.INTRA.POLAR.0>
0

>  <SCORE.INTRA.REPUL>
0

>  <SCORE.INTRA.REPUL.0>
0

>  <SCORE.INTRA.SOLV>
-0.464197

>  <SCORE.INTRA.SOLV.lig_0>
-42.5944

>  <SCORE.INTRA.VDW>
0.350549

>  <SCORE.INTRA.VDW.0>
-1.067

>  <SCORE.INTRA.norm>
0.0591841

>  <SCORE.RESTR>
0

>  <SCORE.RESTR.CAVITY>
0

>  <SCORE.RESTR.norm>
0

>  <SCORE.SYSTEM>
0

>  <SCORE.SYSTEM.CONST>
0

>  <SCORE.SYSTEM.DIHEDRAL>
0

>  <SCORE.SYSTEM.SOLV>
0

>  <SCORE.SYSTEM.norm>
0

>  <SCORE.heavy>
16

>  <SCORE.norm>
-1.4377

>  <RMSD>
7.447

$$$$
1f27 biotin aptamer (Xray 1.3A)
 OpenBabel11021811393D
libRbt.so/2013.1/901 2013/11/27
 16 17  0  0  0  0  0  0  0  0999 V2000
    9.7763    1.4621   15.8301 C   0  0  0  0  0  0  0  0  0  0  0  0
    9.0095    2.3050   15.3750 O   0  5  0  0  0  0  0  0  0  0  0  0
    9.3483    0.3537   16.1476 O   0  0  0  0  0  0  0  0  0  0  0  0
   11.2658    1.7625   15.9380 C   0  0  0  0  0  0  0  0  0  0  0  0
   11.9925    1.8302   14.5763 C   0  0  0  0  0  0  0  0  0  0  0  0
   13.4603    2.1784   14.7411 C   0  0  0  0  0  0  0  0  0  0  0  0
   14.2175    2.2413   13.4309 C   0  0  0  0  0  0  0  0  0  0  0  0
   15.7020    2.6061   13.5623 C   0  0  2  0  0  0  0  0  0  0  0  0
   16.6929    2.6803   11.9257 S   0  0  0  0  0  0  0  0  0  0  0  0
   18.2668    2.6745   13.0063 C   0  0  0  0  0  0  0  0  0  0  0  0
   17.9228    1.7552   14.2145 C   0  0  2  0  0  0  0  0  0  0  0  0
   18.3570    0.3266   13.7904 N   0  0  0  0  0  0  0  0  0  0  0  0
   17.4065   -0.5039   13.7845 C   0  0  0  0  0  0  0  0  0  0  0  0
   17.3579   -1.7062   13.3421 O   0  0  0  0  0  0  0  0  0  0  0  0
   16.1117    0.0943   14.0155 N   0  0  0  0  0  0  0  0  0  0  0  0
   16.4289    1.5423   14.3880 C   0  0  2  0  0  0  0  0  0  0  0  0
  1  2  1  0  0  0  0
  1  3  2  0  0  0  0
  1  4  1  0  0  0  0
  4  5  1  0  0  0  0
  5  6  1  0  0  0  0
  6  7  1  0  0  0  0
  8  7  1  6  0  0  0
  8  9  1  0  0  0  0
  8 16  1  0  0  0  0
  9 10  1  0  0  0  0
 11 10  1  6  0  0  0
 11 12  1  0  0  0  0
 11 16  1  0  0  0  0
 12 13  1  0  0  0  0
 13 14  2  0  0  0  0
 13 15  1  0  0  0  0
 16 15  1  6  0  0  0
M  CHG  1   2  -1
M  END
>  <CHROM.1>
-70.26713230,178.05170844,179.38033560,179.37659946,179.51192510,14.68595350
1.41805718,14.08778236,-3.07896130,0.30731069,-0.37635415

>  <Name>
1f27 biotin aptamer (Xray 1.3A)

>  <RI>
0

>  <Rbt.Current_Directory>
/home/itssahil/PROJECTS/Mol_Feturizer/New_Systems/rnas/1f27

>  <Rbt.Executable>
rbdock ($Id: //depot/dev/client3/rdock/2013.1/src/exe/rbdock.cxx#4 $)

>  <Rbt.Library>
libRbt.so (2013.1, Build901 2013/11/27)

>  <Rbt.Parameter_File>
/export/apps/rDock/src/rDock_2013.1_src/data/scripts/dock_solv.prm

>  <Rbt.Receptor>
prm/blind_docking_60.prm

>  <SCORE>
-23.1228

>  <SCORE.INTER>
-20.3136

>  <SCORE.INTER.CONST>
1

>  <SCORE.INTER.POLAR>
0

>  <SCORE.INTER.ROT>
5

>  <SCORE.INTER.SOLV>
11.2564

>  <SCORE.INTER.VDW>
-24.2279

>  <SCORE.INTER.norm>
-1.2696

>  <SCORE.INTRA>
-2.80919

>  <SCORE.INTRA.DIHEDRAL>
-5.54915

>  <SCORE.INTRA.DIHEDRAL.0>
6.87082

>  <SCORE.INTRA.POLAR>
0

>  <SCORE.INTRA.POLAR.0>
0

>  <SCORE.INTRA.REPUL>
0

>  <SCORE.INTRA.REPUL.0>
0

>  <SCORE.INTRA.SOLV>
-0.671217

>  <SCORE.INTRA.SOLV.lig_0>
-42.5944

>  <SCORE.INTRA.VDW>
0.300996

>  <SCORE.INTRA.VDW.0>
-1.067

>  <SCORE.INTRA.norm>
-0.175574

>  <SCORE.RESTR>
0

>  <SCORE.RESTR.CAVITY>
0

>  <SCORE.RESTR.norm>
0

>  <SCORE.SYSTEM>
0

>  <SCORE.SYSTEM.CONST>
0

>  <SCORE.SYSTEM.DIHEDRAL>
0

>  <SCORE.SYSTEM.SOLV>
0

>  <SCORE.SYSTEM.norm>
0

>  <SCORE.heavy>
16

>  <SCORE.norm>
-1.44518

>  <RMSD>
7.468

$$$$
1f27 biotin aptamer (Xray 1.3A)
 OpenBabel11021811393D
libRbt.so/2013.1/901 2013/11/27
 16 17  0  0  0  0  0  0  0  0999 V2000
   14.6534    2.7525    6.9212 C   0  0  0  0  0  0  0  0  0  0  0  0
   14.9424    1.9216    7.7764 O   0  5  0  0  0  0  0  0  0  0  0  0
   14.0622    2.4009    5.9018 O   0  0  0  0  0  0  0  0  0  0  0  0
   14.9642    4.2260    7.1510 C   0  0  0  0  0  0  0  0  0  0  0  0
   14.0033    4.9233    8.1397 C   0  0  0  0  0  0  0  0  0  0  0  0
   13.9768    4.2213    9.4848 C   0  0  0  0  0  0  0  0  0  0  0  0
   12.8362    4.6660   10.3764 C   0  0  0  0  0  0  0  0  0  0  0  0
   12.9192    4.1670   11.8249 C   0  0  2  0  0  0  0  0  0  0  0  0
   13.2415    2.2927   12.0466 S   0  0  0  0  0  0  0  0  0  0  0  0
   12.7203    2.5303   13.8678 C   0  0  0  0  0  0  0  0  0  0  0  0
   11.5952    3.6053   13.8281 C   0  0  2  0  0  0  0  0  0  0  0  0
   10.2671    2.8160   13.6791 N   0  0  0  0  0  0  0  0  0  0  0  0
    9.6239    3.1121   12.6342 C   0  0  0  0  0  0  0  0  0  0  0  0
    8.5924    2.5597   12.1103 O   0  0  0  0  0  0  0  0  0  0  0  0
   10.3415    3.9923   11.7409 N   0  0  0  0  0  0  0  0  0  0  0  0
   11.5830    4.3999   12.5337 C   0  0  2  0  0  0  0  0  0  0  0  0
  1  2  1  0  0  0  0
  1  3  2  0  0  0  0
  1  4  1  0  0  0  0
  4  5  1  0  0  0  0
  5  6  1  0  0  0  0
  6  7  1  0  0  0  0
  8  7  1  6  0  0  0
  8  9  1  0  0  0  0
  8 16  1  0  0  0  0
  9 10  1  0  0  0  0
 11 10  1  6  0  0  0
 11 12  1  0  0  0  0
 11 16  1  0  0  0  0
 12 13  1  0  0  0  0
 13 14  2  0  0  0  0
 13 15  1  0  0  0  0
 16 15  1  6  0  0  0
M  CHG  1   2  -1
M  END
>  <CHROM.1>
-75.51243748,56.61542955,-167.00280595,-169.70359731,-49.59590079,12.56565781
3.29947299,10.68592652,0.98602590,0.05476154,-1.51545231

>  <Name>
1f27 biotin aptamer (Xray 1.3A)

>  <RI>
0

>  <Rbt.Current_Directory>
/home/itssahil/PROJECTS/Mol_Feturizer/New_Systems/rnas/1f27

>  <Rbt.Executable>
rbdock ($Id: //depot/dev/client3/rdock/2013.1/src/exe/rbdock.cxx#4 $)

>  <Rbt.Library>
libRbt.so (2013.1, Build901 2013/11/27)

>  <Rbt.Parameter_File>
/export/apps/rDock/src/rDock_2013.1_src/data/scripts/dock_solv.prm

>  <Rbt.Receptor>
prm/blind_docking_20.prm

>  <SCORE>
-6.60523

>  <SCORE.INTER>
-6.57895

>  <SCORE.INTER.CONST>
1

>  <SCORE.INTER.POLAR>
-1.26163

>  <SCORE.INTER.ROT>
5

>  <SCORE.INTER.SOLV>
21.5773

>  <SCORE.INTER.VDW>
-14.3063

>  <SCORE.INTER.norm>
-0.411184

>  <SCORE.INTRA>
-1.4381

>  <SCORE.INTRA.DIHEDRAL>
-3.99512

>  <SCORE.INTRA.DIHEDRAL.0>
6.87082

>  <SCORE.INTRA.POLAR>
0

>  <SCORE.INTRA.POLAR.0>
0

>  <SCORE.INTRA.REPUL>
0

>  <SCORE.INTRA.REPUL.0>
0

>  <SCORE.INTRA.SOLV>
0.46708

>  <SCORE.INTRA.SOLV.lig_0>
-42.5944

>  <SCORE.INTRA.VDW>
0.325922

>  <SCORE.INTRA.VDW.0>
-1.067

>  <SCORE.INTRA.norm>
-0.0898812

>  <SCORE.RESTR>
1.41182

>  <SCORE.RESTR.CAVITY>
1.41182

>  <SCORE.RESTR.norm>
0.0882388

>  <SCORE.SYSTEM>
0

>  <SCORE.SYSTEM.CONST>
0

>  <SCORE.SYSTEM.DIHEDRAL>
0

>  <SCORE.SYSTEM.SOLV>
0

>  <SCORE.SYSTEM.norm>
0

>  <SCORE.heavy>
16

>  <SCORE.norm>
-0.412827

>  <RMSD>
7.477

$$$$
1f27 biotin aptamer (Xray 1.3A)
 OpenBabel11021811393D
libRbt.so/2013.1/901 2013/11/27
 16 17  0  0  0  0  0  0  0  0999 V2000
   14.1265    3.1488    6.1345 C   0  0  0  0  0  0  0  0  0  0  0  0
   13.1052    2.4694    6.1122 O   0  5  0  0  0  0  0  0  0  0  0  0
   14.6399    3.5165    5.0792 O   0  0  0  0  0  0  0  0  0  0  0  0
   14.7196    3.5941    7.4651 C   0  0  0  0  0  0  0  0  0  0  0  0
   13.9094    4.7024    8.1738 C   0  0  0  0  0  0  0  0  0  0  0  0
   14.0186    4.5981    9.6838 C   0  0  0  0  0  0  0  0  0  0  0  0
   13.7257    3.2111   10.2166 C   0  0  0  0  0  0  0  0  0  0  0  0
   13.8551    3.0656   11.7386 C   0  0  2  0  0  0  0  0  0  0  0  0
   13.5876    1.3027   12.4359 S   0  0  0  0  0  0  0  0  0  0  0  0
   13.4424    2.1229   14.1538 C   0  0  0  0  0  0  0  0  0  0  0  0
   12.7289    3.4816   13.8926 C   0  0  2  0  0  0  0  0  0  0  0  0
   11.2110    3.1919   14.0385 N   0  0  0  0  0  0  0  0  0  0  0  0
   10.5514    3.4417   12.9918 C   0  0  0  0  0  0  0  0  0  0  0  0
    9.3322    3.1771   12.6963 O   0  0  0  0  0  0  0  0  0  0  0  0
   11.3746    3.7841   11.8549 N   0  0  0  0  0  0  0  0  0  0  0  0
   12.7831    3.9066   12.4355 C   0  0  2  0  0  0  0  0  0  0  0  0
  1  2  1  0  0  0  0
  1  3  2  0  0  0  0
  1  4  1  0  0  0  0
  4  5  1  0  0  0  0
  5  6  1  0  0  0  0
  6  7  1  0  0  0  0
  8  7  1  6  0  0  0
  8  9  1  0  0  0  0
  8 16  1  0  0  0  0
  9 10  1  0  0  0  0
 11 10  1  6  0  0  0
 11 12  1  0  0  0  0
 11 16  1  0  0  0  0
 12 13  1  0  0  0  0
 13 14  2  0  0  0  0
 13 15  1  0  0  0  0
 16 15  1  6  0  0  0
M  CHG  1   2  -1
M  END
>  <CHROM.1>
-72.71920582,148.89138299,-50.53642919,178.83839478,-176.70448266,12.96904522
3.13931798,10.65336852,1.22620993,0.35996289,-1.36101918

>  <Name>
1f27 biotin aptamer (Xray 1.3A)

>  <RI>
0

>  <Rbt.Current_Directory>
/home/itssahil/PROJECTS/Mol_Feturizer/New_Systems/rnas/1f27

>  <Rbt.Executable>
rbdock ($Id: //depot/dev/client3/rdock/2013.1/src/exe/rbdock.cxx#4 $)

>  <Rbt.Library>
libRbt.so (2013.1, Build901 2013/11/27)

>  <Rbt.Parameter_File>
/export/apps/rDock/src/rDock_2013.1_src/data/scripts/dock_solv.prm

>  <Rbt.Receptor>
prm/blind_docking_20.prm

>  <SCORE>
-4.80881

>  <SCORE.INTER>
-5.95682

>  <SCORE.INTER.CONST>
1

>  <SCORE.INTER.POLAR>
0

>  <SCORE.INTER.ROT>
5

>  <SCORE.INTER.SOLV>
23.6025

>  <SCORE.INTER.VDW>
-18.772

>  <SCORE.INTER.norm>
-0.372301

>  <SCORE.INTRA>
0.0927592

>  <SCORE.INTRA.DIHEDRAL>
-2.31439

>  <SCORE.INTRA.DIHEDRAL.0>
6.87082

>  <SCORE.INTRA.POLAR>
0

>  <SCORE.INTRA.POLAR.0>
0

>  <SCORE.INTRA.REPUL>
0

>  <SCORE.INTRA.REPUL.0>
0

>  <SCORE.INTRA.SOLV>
-0.318516

>  <SCORE.INTRA.SOLV.lig_0>
-42.5944

>  <SCORE.INTRA.VDW>
1.40921

>  <SCORE.INTRA.VDW.0>
-1.067

>  <SCORE.INTRA.norm>
0.00579745

>  <SCORE.RESTR>
1.05525

>  <SCORE.RESTR.CAVITY>
1.05525

>  <SCORE.RESTR.norm>
0.0659529

>  <SCORE.SYSTEM>
0

>  <SCORE.SYSTEM.CONST>
0

>  <SCORE.SYSTEM.DIHEDRAL>
0

>  <SCORE.SYSTEM.SOLV>
0

>  <SCORE.SYSTEM.norm>
0

>  <SCORE.heavy>
16

>  <SCORE.norm>
-0.300551

>  <RMSD>
7.480

$$$$
1f27 biotin aptamer (Xray 1.3A)
 OpenBabel11021811393D
libRbt.so/2013.1/901 2013/11/27
 16 17  0  0  0  0  0  0  0  0999 V2000
   14.4242    2.9181    5.4103 C   0  0  0  0  0  0  0  0  0  0  0  0
   14.5490    1.6989    5.4695 O   0  5  0  0  0  0  0  0  0  0  0  0
   14.9718    3.5459    4.5056 O   0  0  0  0  0  0  0  0  0  0  0  0
   13.5382    3.6455    6.4135 C   0  0  0  0  0  0  0  0  0  0  0  0
   14.1285    3.7116    7.8398 C   0  0  0  0  0  0  0  0  0  0  0  0
   14.0113    2.3795    8.5572 C   0  0  0  0  0  0  0  0  0  0  0  0
   14.2182    2.4788   10.0542 C   0  0  0  0  0  0  0  0  0  0  0  0
   12.9460    2.7665   10.8622 C   0  0  2  0  0  0  0  0  0  0  0  0
   12.4797    4.6130   11.0587 S   0  0  0  0  0  0  0  0  0  0  0  0
   11.2772    4.0500   12.4306 C   0  0  0  0  0  0  0  0  0  0  0  0
   11.9979    2.8644   13.1365 C   0  0  2  0  0  0  0  0  0  0  0  0
   12.8204    3.5010   14.2887 N   0  0  0  0  0  0  0  0  0  0  0  0
   14.0606    3.2858   14.1960 C   0  0  0  0  0  0  0  0  0  0  0  0
   15.0405    3.7804   14.8586 O   0  0  0  0  0  0  0  0  0  0  0  0
   14.4468    2.6391   12.9630 N   0  0  0  0  0  0  0  0  0  0  0  0
   13.1192    2.2726   12.3003 C   0  0  2  0  0  0  0  0  0  0  0  0
  1  2  1  0  0  0  0
  1  3  2  0  0  0  0
  1  4  1  0  0  0  0
  4  5  1  0  0  0  0
  5  6  1  0  0  0  0
  6  7  1  0  0  0  0
  8  7  1  6  0  0  0
  8  9  1  0  0  0  0
  8 16  1  0  0  0  0
  9 10  1  0  0  0  0
 11 10  1  6  0  0  0
 11 12  1  0  0  0  0
 11 16  1  0  0  0  0
 12 13  1  0  0  0  0
 13 14  2  0  0  0  0
 13 15  1  0  0  0  0
 16 15  1  1  0  0  0
M  CHG  1   2  -1
M  END
>  <CHROM.1>
71.96739946,-75.48047515,-164.25122788,88.69045099,-86.36357449,13.57530572
3.24890958,10.29572547,-1.41068337,-0.50799362,1.58713784

>  <Name>
1f27 biotin aptamer (Xray 1.3A)

>  <RI>
0

>  <Rbt.Current_Directory>
/home/itssahil/PROJECTS/Mol_Feturizer/New_Systems/rnas/1f27

>  <Rbt.Executable>
rbdock ($Id: //depot/dev/client3/rdock/2013.1/src/exe/rbdock.cxx#4 $)

>  <Rbt.Library>
libRbt.so (2013.1, Build901 2013/11/27)

>  <Rbt.Parameter_File>
/export/apps/rDock/src/rDock_2013.1_src/data/scripts/dock_solv.prm

>  <Rbt.Receptor>
prm/blind_docking_20.prm

>  <SCORE>
31.8135

>  <SCORE.INTER>
27.4395

>  <SCORE.INTER.CONST>
1

>  <SCORE.INTER.POLAR>
-0.0425447

>  <SCORE.INTER.ROT>
5

>  <SCORE.INTER.SOLV>
26.5495

>  <SCORE.INTER.VDW>
2.65164

>  <SCORE.INTER.norm>
1.71497

>  <SCORE.INTRA>
0.543019

>  <SCORE.INTRA.DIHEDRAL>
1.56476

>  <SCORE.INTRA.DIHEDRAL.0>
6.87082

>  <SCORE.INTRA.POLAR>
0

>  <SCORE.INTRA.POLAR.0>
0

>  <SCORE.INTRA.REPUL>
0

>  <SCORE.INTRA.REPUL.0>
0

>  <SCORE.INTRA.SOLV>
0.0192729

>  <SCORE.INTRA.SOLV.lig_0>
-42.5944

>  <SCORE.INTRA.VDW>
-0.248996

>  <SCORE.INTRA.VDW.0>
-1.067

>  <SCORE.INTRA.norm>
0.0339387

>  <SCORE.RESTR>
3.83099

>  <SCORE.RESTR.CAVITY>
3.83099

>  <SCORE.RESTR.norm>
0.239437

>  <SCORE.SYSTEM>
0

>  <SCORE.SYSTEM.CONST>
0

>  <SCORE.SYSTEM.DIHEDRAL>
0

>  <SCORE.SYSTEM.SOLV>
0

>  <SCORE.SYSTEM.norm>
0

>  <SCORE.heavy>
16

>  <SCORE.norm>
1.98834

>  <RMSD>
7.492

$$$$
1f27 biotin aptamer (Xray 1.3A)
 OpenBabel11021811393D
libRbt.so/2013.1/901 2013/11/27
 16 17  0  0  0  0  0  0  0  0999 V2000
   13.9136    2.5852    6.9266 C   0  0  0  0  0  0  0  0  0  0  0  0
   12.9143    2.1670    6.3504 O   0  5  0  0  0  0  0  0  0  0  0  0
   14.3344    2.0008    7.9235 O   0  0  0  0  0  0  0  0  0  0  0  0
   14.6714    3.7839    6.3703 C   0  0  0  0  0  0  0  0  0  0  0  0
   15.0946    4.8117    7.4434 C   0  0  0  0  0  0  0  0  0  0  0  0
   13.8922    5.4753    8.0889 C   0  0  0  0  0  0  0  0  0  0  0  0
   13.0876    4.5426    8.9700 C   0  0  0  0  0  0  0  0  0  0  0  0
   13.7524    4.1862   10.3062 C   0  0  2  0  0  0  0  0  0  0  0  0
   14.0298    2.3197   10.6306 S   0  0  0  0  0  0  0  0  0  0  0  0
   14.3509    2.7961   12.4513 C   0  0  0  0  0  0  0  0  0  0  0  0
   13.3808    3.9799   12.7353 C   0  0  2  0  0  0  0  0  0  0  0  0
   12.0731    3.3318   13.2637 N   0  0  0  0  0  0  0  0  0  0  0  0
   11.0636    3.5905   12.5516 C   0  0  0  0  0  0  0  0  0  0  0  0
    9.8771    3.1061   12.5869 O   0  0  0  0  0  0  0  0  0  0  0  0
   11.3804    4.2911   11.3283 N   0  0  0  0  0  0  0  0  0  0  0  0
   12.8628    4.6362   11.4672 C   0  0  2  0  0  0  0  0  0  0  0  0
  1  2  1  0  0  0  0
  1  3  2  0  0  0  0
  1  4  1  0  0  0  0
  4  5  1  0  0  0  0
  5  6  1  0  0  0  0
  6  7  1  0  0  0  0
  8  7  1  6  0  0  0
  8  9  1  0  0  0  0
  8 16  1  0  0  0  0
  9 10  1  0  0  0  0
 11 10  1  6  0  0  0
 11 12  1  0  0  0  0
 11 16  1  0  0  0  0
 12 13  1  0  0  0  0
 13 14  2  0  0  0  0
 13 15  1  0  0  0  0
 16 15  1  6  0  0  0
M  CHG  1   2  -1
M  END
>  <CHROM.1>
136.37996089,-65.25754292,69.48784751,73.10472912,-122.49929627,13.20670784
3.47694909,9.99122418,1.16215844,0.23718624,-1.48661820

>  <Name>
1f27 biotin aptamer (Xray 1.3A)

>  <RI>
0

>  <Rbt.Current_Directory>
/home/itssahil/PROJECTS/Mol_Feturizer/New_Systems/rnas/1f27

>  <Rbt.Executable>
rbdock ($Id: //depot/dev/client3/rdock/2013.1/src/exe/rbdock.cxx#4 $)

>  <Rbt.Library>
libRbt.so (2013.1, Build901 2013/11/27)

>  <Rbt.Parameter_File>
/export/apps/rDock/src/rDock_2013.1_src/data/scripts/dock_solv.prm

>  <Rbt.Receptor>
prm/blind_docking_20.prm

>  <SCORE>
46.7596

>  <SCORE.INTER>
42.6876

>  <SCORE.INTER.CONST>
1

>  <SCORE.INTER.POLAR>
-0.936717

>  <SCORE.INTER.ROT>
5

>  <SCORE.INTER.SOLV>
22.0772

>  <SCORE.INTER.VDW>
17.2884

>  <SCORE.INTER.norm>
2.66798

>  <SCORE.INTRA>
3.51356

>  <SCORE.INTRA.DIHEDRAL>
1.40683

>  <SCORE.INTRA.DIHEDRAL.0>
6.87082

>  <SCORE.INTRA.POLAR>
0

>  <SCORE.INTRA.POLAR.0>
0

>  <SCORE.INTRA.REPUL>
0

>  <SCORE.INTRA.REPUL.0>
0

>  <SCORE.INTRA.SOLV>
3.26963

>  <SCORE.INTRA.SOLV.lig_0>
-42.5944

>  <SCORE.INTRA.VDW>
1.17533

>  <SCORE.INTRA.VDW.0>
-1.067

>  <SCORE.INTRA.norm>
0.219597

>  <SCORE.RESTR>
0.558406

>  <SCORE.RESTR.CAVITY>
0.558406

>  <SCORE.RESTR.norm>
0.0349003

>  <SCORE.SYSTEM>
0

>  <SCORE.SYSTEM.CONST>
0

>  <SCORE.SYSTEM.DIHEDRAL>
0

>  <SCORE.SYSTEM.SOLV>
0

>  <SCORE.SYSTEM.norm>
0

>  <SCORE.heavy>
16

>  <SCORE.norm>
2.92247

>  <RMSD>
7.526

$$$$
1f27 biotin aptamer (Xray 1.3A)
 OpenBabel11021811393D
libRbt.so/2013.1/901 2013/11/27
 16 17  0  0  0  0  0  0  0  0999 V2000
   11.2206    2.6856   13.9698 C   0  0  0  0  0  0  0  0  0  0  0  0
   11.7852    1.8381   14.6540 O   0  5  0  0  0  0  0  0  0  0  0  0
   10.0406    2.9580   14.1839 O   0  0  0  0  0  0  0  0  0  0  0  0
   11.9964    3.4480   12.9032 C   0  0  0  0  0  0  0  0  0  0  0  0
   13.4936    3.6397   13.2330 C   0  0  0  0  0  0  0  0  0  0  0  0
   14.3449    2.5341   12.6366 C   0  0  0  0  0  0  0  0  0  0  0  0
   14.1802    2.3857   11.1384 C   0  0  0  0  0  0  0  0  0  0  0  0
   14.2403    3.7012   10.3508 C   0  0  2  0  0  0  0  0  0  0  0  0
   12.5686    4.5980   10.0920 S   0  0  0  0  0  0  0  0  0  0  0  0
   13.4626    5.6504    8.7735 C   0  0  0  0  0  0  0  0  0  0  0  0
   14.4727    4.6773    8.0982 C   0  0  2  0  0  0  0  0  0  0  0  0
   13.7108    4.0472    6.9017 N   0  0  0  0  0  0  0  0  0  0  0  0
   13.6201    2.7903    6.9726 C   0  0  0  0  0  0  0  0  0  0  0  0
   12.9365    1.9666    6.2670 O   0  0  0  0  0  0  0  0  0  0  0  0
   14.1003    2.2433    8.2207 N   0  0  0  0  0  0  0  0  0  0  0  0
   14.7424    3.4353    8.9299 C   0  0  2  0  0  0  0  0  0  0  0  0
  1  2  1  0  0  0  0
  1  3  2  0  0  0  0
  1  4  1  0  0  0  0
  4  5  1  0  0  0  0
  5  6  1  0  0  0  0
  6  7  1  0  0  0  0
  8  7  1  6  0  0  0
  8  9  1  0  0  0  0
  8 16  1  0  0  0  0
  9 10  1  0  0  0  0
 11 10  1  1  0  0  0
 11 12  1  0  0  0  0
 11 16  1  0  0  0  0
 12 13  1  0  0  0  0
 13 14  2  0  0  0  0
 13 15  1  0  0  0  0
 16 15  1  6  0  0  0
M  CHG  1   2  -1
M  END
>  <CHROM.1>
-30.21064541,93.12421570,56.02804646,46.93058753,-89.97140073,13.09818228
3.35769074,10.45160774,-2.48199853,1.18461635,-0.58557434

>  <Name>
1f27 biotin aptamer (Xray 1.3A)

>  <RI>
0

>  <Rbt.Current_Directory>
/home/itssahil/PROJECTS/Mol_Feturizer/New_Systems/rnas/1f27

>  <Rbt.Executable>
rbdock ($Id: //depot/dev/client3/rdock/2013.1/src/exe/rbdock.cxx#4 $)

>  <Rbt.Library>
libRbt.so (2013.1, Build901 2013/11/27)

>  <Rbt.Parameter_File>
/export/apps/rDock/src/rDock_2013.1_src/data/scripts/dock_solv.prm

>  <Rbt.Receptor>
prm/blind_docking_20.prm

>  <SCORE>
46.8378

>  <SCORE.INTER>
42.2358

>  <SCORE.INTER.CONST>
1

>  <SCORE.INTER.POLAR>
-1.54903

>  <SCORE.INTER.ROT>
5

>  <SCORE.INTER.SOLV>
18.5704

>  <SCORE.INTER.VDW>
20.1972

>  <SCORE.INTER.norm>
2.63974

>  <SCORE.INTRA>
2.88094

>  <SCORE.INTRA.DIHEDRAL>
1.37362

>  <SCORE.INTRA.DIHEDRAL.0>
6.87082

>  <SCORE.INTRA.POLAR>
0

>  <SCORE.INTRA.POLAR.0>
0

>  <SCORE.INTRA.REPUL>
0

>  <SCORE.INTRA.REPUL.0>
0

>  <SCORE.INTRA.SOLV>
0.172786

>  <SCORE.INTRA.SOLV.lig_0>
-42.5944

>  <SCORE.INTRA.VDW>
2.10773

>  <SCORE.INTRA.VDW.0>
-1.067

>  <SCORE.INTRA.norm>
0.180058

>  <SCORE.RESTR>
1.72112

>  <SCORE.RESTR.CAVITY>
1.72112

>  <SCORE.RESTR.norm>
0.10757

>  <SCORE.SYSTEM>
0

>  <SCORE.SYSTEM.CONST>
0

>  <SCORE.SYSTEM.DIHEDRAL>
0

>  <SCORE.SYSTEM.SOLV>
0

>  <SCORE.SYSTEM.norm>
0

>  <SCORE.heavy>
16

>  <SCORE.norm>
2.92736

>  <RMSD>
7.537

$$$$
1f27 biotin aptamer (Xray 1.3A)
 OpenBabel11021811393D
libRbt.so/2013.1/901 2013/11/27
 16 17  0  0  0  0  0  0  0  0999 V2000
   11.0398    4.4416   11.9844 C   0  0  0  0  0  0  0  0  0  0  0  0
   10.5593    5.5704   12.0049 O   0  5  0  0  0  0  0  0  0  0  0  0
   10.6385    3.5915   12.7774 O   0  0  0  0  0  0  0  0  0  0  0  0
   12.0813    4.0730   10.9357 C   0  0  0  0  0  0  0  0  0  0  0  0
   12.9861    2.8875   11.3394 C   0  0  0  0  0  0  0  0  0  0  0  0
   14.0634    3.3132   12.3197 C   0  0  0  0  0  0  0  0  0  0  0  0
   14.7668    2.1500   12.9875 C   0  0  0  0  0  0  0  0  0  0  0  0
   16.2097    2.4353   13.4246 C   0  0  2  0  0  0  0  0  0  0  0  0
   17.5000    2.5649   12.0160 S   0  0  0  0  0  0  0  0  0  0  0  0
   18.8344    2.4172   13.3735 C   0  0  0  0  0  0  0  0  0  0  0  0
   18.2321    1.4413   14.4261 C   0  0  2  0  0  0  0  0  0  0  0  0
   18.6907    0.0232   13.9928 N   0  0  0  0  0  0  0  0  0  0  0  0
   17.7313   -0.7595   13.7476 C   0  0  0  0  0  0  0  0  0  0  0  0
   17.7278   -1.9281   13.2203 O   0  0  0  0  0  0  0  0  0  0  0  0
   16.4376   -0.1164   13.7693 N   0  0  0  0  0  0  0  0  0  0  0  0
   16.7264    1.2888   14.2965 C   0  0  2  0  0  0  0  0  0  0  0  0
  1  2  1  0  0  0  0
  1  3  2  0  0  0  0
  1  4  1  0  0  0  0
  4  5  1  0  0  0  0
  5  6  1  0  0  0  0
  6  7  1  0  0  0  0
  8  7  1  6  0  0  0
  8  9  1  0  0  0  0
  8 16  1  0  0  0  0
  9 10  1  0  0  0  0
 11 10  1  6  0  0  0
 11 12  1  0  0  0  0
 11 16  1  0  0  0  0
 12 13  1  0  0  0  0
 13 14  2  0  0  0  0
 13 15  1  0  0  0  0
 16 15  1  6  0  0  0
M  CHG  1   2  -1
M  END
>  <CHROM.1>
156.90480507,-77.95541540,166.67510112,152.21198737,-72.42425646,15.38577561
2.11872059,12.83401780,2.57153498,-0.05979793,-0.30359389

>  <Name>
1f27 biotin aptamer (Xray 1.3A)

>  <RI>
0

>  <Rbt.Current_Directory>
/home/itssahil/PROJECTS/Mol_Feturizer/New_Systems/rnas/1f27

>  <Rbt.Executable>
rbdock ($Id: //depot/dev/client3/rdock/2013.1/src/exe/rbdock.cxx#4 $)

>  <Rbt.Library>
libRbt.so (2013.1, Build901 2013/11/27)

>  <Rbt.Parameter_File>
/export/apps/rDock/src/rDock_2013.1_src/data/scripts/dock_solv.prm

>  <Rbt.Receptor>
prm/blind_docking_40.prm

>  <SCORE>
-21.1734

>  <SCORE.INTER>
-21.2572

>  <SCORE.INTER.CONST>
1

>  <SCORE.INTER.POLAR>
-0.705827

>  <SCORE.INTER.ROT>
5

>  <SCORE.INTER.SOLV>
13.1612

>  <SCORE.INTER.VDW>
-23.1391

>  <SCORE.INTER.norm>
-1.32858

>  <SCORE.INTRA>
0.0838293

>  <SCORE.INTRA.DIHEDRAL>
-0.500806

>  <SCORE.INTRA.DIHEDRAL.0>
6.87082

>  <SCORE.INTRA.POLAR>
0

>  <SCORE.INTRA.POLAR.0>
0

>  <SCORE.INTRA.REPUL>
0

>  <SCORE.INTRA.REPUL.0>
0

>  <SCORE.INTRA.SOLV>
0.0925718

>  <SCORE.INTRA.SOLV.lig_0>
-42.5944

>  <SCORE.INTRA.VDW>
0.287946

>  <SCORE.INTRA.VDW.0>
-1.067

>  <SCORE.INTRA.norm>
0.00523933

>  <SCORE.RESTR>
0

>  <SCORE.RESTR.CAVITY>
0

>  <SCORE.RESTR.norm>
0

>  <SCORE.SYSTEM>
0

>  <SCORE.SYSTEM.CONST>
0

>  <SCORE.SYSTEM.DIHEDRAL>
0

>  <SCORE.SYSTEM.SOLV>
0

>  <SCORE.SYSTEM.norm>
0

>  <SCORE.heavy>
16

>  <SCORE.norm>
-1.32334

>  <RMSD>
7.546

$$$$
1f27 biotin aptamer (Xray 1.3A)
 OpenBabel11021811393D
libRbt.so/2013.1/901 2013/11/27
 16 17  0  0  0  0  0  0  0  0999 V2000
   14.6596    3.4615    5.6941 C   0  0  0  0  0  0  0  0  0  0  0  0
   14.0976    3.8251    4.6659 O   0  5  0  0  0  0  0  0  0  0  0  0
   15.8425    3.7440    5.8773 O   0  0  0  0  0  0  0  0  0  0  0  0
   13.8779    2.7218    6.7721 C   0  0  0  0  0  0  0  0  0  0  0  0
   14.2365    3.1499    8.2127 C   0  0  0  0  0  0  0  0  0  0  0  0
   13.9859    4.6298    8.4363 C   0  0  0  0  0  0  0  0  0  0  0  0
   13.6158    4.9711    9.8647 C   0  0  0  0  0  0  0  0  0  0  0  0
   12.6412    3.9899   10.5291 C   0  0  2  0  0  0  0  0  0  0  0  0
   11.6686    4.6666   12.0331 S   0  0  0  0  0  0  0  0  0  0  0  0
   11.2177    2.8520   12.4188 C   0  0  0  0  0  0  0  0  0  0  0  0
   12.4765    2.0296   12.0162 C   0  0  2  0  0  0  0  0  0  0  0  0
   13.3539    1.9547   13.2944 N   0  0  0  0  0  0  0  0  0  0  0  0
   14.4993    2.4636   13.1453 C   0  0  0  0  0  0  0  0  0  0  0  0
   15.4111    2.7223   14.0086 O   0  0  0  0  0  0  0  0  0  0  0  0
   14.6742    3.1385   11.8798 N   0  0  0  0  0  0  0  0  0  0  0  0
   13.4103    2.7930   11.0930 C   0  0  2  0  0  0  0  0  0  0  0  0
  1  2  1  0  0  0  0
  1  3  2  0  0  0  0
  1  4  1  0  0  0  0
  4  5  1  0  0  0  0
  5  6  1  0  0  0  0
  6  7  1  0  0  0  0
  8  7  1  1  0  0  0
  8  9  1  0  0  0  0
  8 16  1  0  0  0  0
  9 10  1  0  0  0  0
 11 10  1  1  0  0  0
 11 12  1  0  0  0  0
 11 16  1  0  0  0  0
 12 13  1  0  0  0  0
 13 14  2  0  0  0  0
 13 15  1  0  0  0  0
 16 15  1  1  0  0  0
M  CHG  1   2  -1
M  END
>  <CHROM.1>
-139.58621861,59.22714490,149.96545212,-41.60158264,-158.81427729,13.61149948
3.42699010,10.12143589,-1.34995124,-0.41698472,1.75458590

>  <Name>
1f27 biotin aptamer (Xray 1.3A)

>  <RI>
0

>  <Rbt.Current_Directory>
/home/itssahil/PROJECTS/Mol_Feturizer/New_Systems/rnas/1f27

>  <Rbt.Executable>
rbdock ($Id: //depot/dev/client3/rdock/2013.1/src/exe/rbdock.cxx#4 $)

>  <Rbt.Library>
libRbt.so (2013.1, Build901 2013/11/27)

>  <Rbt.Parameter_File>
/export/apps/rDock/src/rDock_2013.1_src/data/scripts/dock_solv.prm

>  <Rbt.Receptor>
prm/blind_docking_20.prm

>  <SCORE>
52.4567

>  <SCORE.INTER>
48.3812

>  <SCORE.INTER.CONST>
1

>  <SCORE.INTER.POLAR>
0

>  <SCORE.INTER.ROT>
5

>  <SCORE.INTER.SOLV>
22.7751

>  <SCORE.INTER.VDW>
17.7291

>  <SCORE.INTER.norm>
3.02383

>  <SCORE.INTRA>
2.10453

>  <SCORE.INTRA.DIHEDRAL>
0.612339

>  <SCORE.INTRA.DIHEDRAL.0>
6.87082

>  <SCORE.INTRA.POLAR>
0

>  <SCORE.INTRA.POLAR.0>
0

>  <SCORE.INTRA.REPUL>
0

>  <SCORE.INTRA.REPUL.0>
0

>  <SCORE.INTRA.SOLV>
0.456305

>  <SCORE.INTRA.SOLV.lig_0>
-42.5944

>  <SCORE.INTRA.VDW>
1.57021

>  <SCORE.INTRA.VDW.0>
-1.067

>  <SCORE.INTRA.norm>
0.131533

>  <SCORE.RESTR>
1.97095

>  <SCORE.RESTR.CAVITY>
1.97095

>  <SCORE.RESTR.norm>
0.123184

>  <SCORE.SYSTEM>
0

>  <SCORE.SYSTEM.CONST>
0

>  <SCORE.SYSTEM.DIHEDRAL>
0

>  <SCORE.SYSTEM.SOLV>
0

>  <SCORE.SYSTEM.norm>
0

>  <SCORE.heavy>
16

>  <SCORE.norm>
3.27854

>  <RMSD>
7.553

$$$$
1f27 biotin aptamer (Xray 1.3A)
 OpenBabel11021811393D
libRbt.so/2013.1/901 2013/11/27
 16 17  0  0  0  0  0  0  0  0999 V2000
   10.4701    4.3541   12.6146 C   0  0  0  0  0  0  0  0  0  0  0  0
   10.6619    4.2757   11.4053 O   0  5  0  0  0  0  0  0  0  0  0  0
    9.4993    4.9772   13.0409 O   0  0  0  0  0  0  0  0  0  0  0  0
   11.3920    3.6251   13.5837 C   0  0  0  0  0  0  0  0  0  0  0  0
   12.6036    2.9462   12.9068 C   0  0  0  0  0  0  0  0  0  0  0  0
   13.4090    2.1229   13.8949 C   0  0  0  0  0  0  0  0  0  0  0  0
   14.4587    2.9248   14.6357 C   0  0  0  0  0  0  0  0  0  0  0  0
   15.7786    3.1141   13.8767 C   0  0  2  0  0  0  0  0  0  0  0  0
   15.6879    2.9029   11.9759 S   0  0  0  0  0  0  0  0  0  0  0  0
   17.5946    2.8090   12.0055 C   0  0  0  0  0  0  0  0  0  0  0  0
   17.9409    2.0633   13.3273 C   0  0  2  0  0  0  0  0  0  0  0  0
   17.9948    0.5571   12.9564 N   0  0  0  0  0  0  0  0  0  0  0  0
   17.1648   -0.1458   13.5970 C   0  0  0  0  0  0  0  0  0  0  0  0
   16.8197   -1.3706   13.4409 O   0  0  0  0  0  0  0  0  0  0  0  0
   16.2506    0.6281   14.4051 N   0  0  0  0  0  0  0  0  0  0  0  0
   16.7909    2.0552   14.3196 C   0  0  2  0  0  0  0  0  0  0  0  0
  1  2  1  0  0  0  0
  1  3  2  0  0  0  0
  1  4  1  0  0  0  0
  4  5  1  0  0  0  0
  5  6  1  0  0  0  0
  6  7  1  0  0  0  0
  8  7  1  1  0  0  0
  8  9  1  0  0  0  0
  8 16  1  0  0  0  0
  9 10  1  0  0  0  0
 11 10  1  6  0  0  0
 11 12  1  0  0  0  0
 11 16  1  0  0  0  0
 12 13  1  0  0  0  0
 13 14  2  0  0  0  0
 13 15  1  0  0  0  0
 16 15  1  6  0  0  0
M  CHG  1   2  -1
M  END
>  <CHROM.1>
5.81819609,-174.34938372,-86.57229909,-83.10668418,21.43052872,14.68337419
2.39733067,13.13721271,2.70318632,0.20816959,-0.59520485

>  <Name>
1f27 biotin aptamer (Xray 1.3A)

>  <RI>
224

>  <Rbt.Current_Directory>
/home/itssahil/PROJECTS/Mol_Feturizer/New_Systems/rnas/1f27

>  <Rbt.Executable>
rbdock ($Id: //depot/dev/client3/rdock/2013.1/src/exe/rbdock.cxx#4 $)

>  <Rbt.Library>
libRbt.so (2013.1, Build901 2013/11/27)

>  <Rbt.Parameter_File>
/export/apps/rDock/src/rDock_2013.1_src/data/scripts/dock_solv.prm

>  <Rbt.Receptor>
prm/blind_docking_80.prm

>  <SCORE>
-18.719

>  <SCORE.INTER>
-21.7216

>  <SCORE.INTER.CONST>
1

>  <SCORE.INTER.POLAR>
-0.846187

>  <SCORE.INTER.ROT>
5

>  <SCORE.INTER.SOLV>
13.4849

>  <SCORE.INTER.VDW>
-23.0887

>  <SCORE.INTER.norm>
-1.3576

>  <SCORE.INTRA>
2.73192

>  <SCORE.INTRA.DIHEDRAL>
3.2502

>  <SCORE.INTRA.DIHEDRAL.0>
6.87082

>  <SCORE.INTRA.POLAR>
0

>  <SCORE.INTRA.POLAR.0>
0

>  <SCORE.INTRA.REPUL>
0

>  <SCORE.INTRA.REPUL.0>
0

>  <SCORE.INTRA.SOLV>
-0.370877

>  <SCORE.INTRA.SOLV.lig_0>
-42.5944

>  <SCORE.INTRA.VDW>
1.29226

>  <SCORE.INTRA.VDW.0>
-1.067

>  <SCORE.INTRA.norm>
0.170745

>  <SCORE.RESTR>
0.270635

>  <SCORE.RESTR.CAVITY>
0.270635

>  <SCORE.RESTR.norm>
0.0169147

>  <SCORE.SYSTEM>
0

>  <SCORE.SYSTEM.CONST>
0

>  <SCORE.SYSTEM.DIHEDRAL>
0

>  <SCORE.SYSTEM.SOLV>
0

>  <SCORE.SYSTEM.norm>
0

>  <SCORE.heavy>
16

>  <SCORE.norm>
-1.16994

>  <RMSD>
7.554

$$$$
1f27 biotin aptamer (Xray 1.3A)
 OpenBabel11021811393D
libRbt.so/2013.1/901 2013/11/27
 16 17  0  0  0  0  0  0  0  0999 V2000
   14.7361    3.6251    5.9845 C   0  0  0  0  0  0  0  0  0  0  0  0
   14.6719    3.4697    4.7692 O   0  5  0  0  0  0  0  0  0  0  0  0
   15.4039    4.5476    6.4488 O   0  0  0  0  0  0  0  0  0  0  0  0
   13.9367    2.7212    6.9142 C   0  0  0  0  0  0  0  0  0  0  0  0
   14.1521    3.0170    8.4152 C   0  0  0  0  0  0  0  0  0  0  0  0
   13.9690    4.4907    8.7279 C   0  0  0  0  0  0  0  0  0  0  0  0
   13.2184    4.7462   10.0182 C   0  0  0  0  0  0  0  0  0  0  0  0
   13.6013    3.8197   11.1799 C   0  0  2  0  0  0  0  0  0  0  0  0
   13.2297    1.9592   10.9231 S   0  0  0  0  0  0  0  0  0  0  0  0
   13.5109    1.7565   12.8006 C   0  0  0  0  0  0  0  0  0  0  0  0
   12.9516    3.0632   13.4353 C   0  0  2  0  0  0  0  0  0  0  0  0
   11.4605    2.7701   13.7513 N   0  0  0  0  0  0  0  0  0  0  0  0
   10.6616    3.5458   13.1571 C   0  0  0  0  0  0  0  0  0  0  0  0
    9.3846    3.5001   13.0518 O   0  0  0  0  0  0  0  0  0  0  0  0
   11.3031    4.4185   12.2009 N   0  0  0  0  0  0  0  0  0  0  0  0
   12.7971    4.1897   12.4283 C   0  0  2  0  0  0  0  0  0  0  0  0
  1  2  1  0  0  0  0
  1  3  2  0  0  0  0
  1  4  1  0  0  0  0
  4  5  1  0  0  0  0
  5  6  1  0  0  0  0
  6  7  1  0  0  0  0
  8  7  1  6  0  0  0
  8  9  1  0  0  0  0
  8 16  1  0  0  0  0
  9 10  1  0  0  0  0
 11 10  1  6  0  0  0
 11 12  1  0  0  0  0
 11 16  1  0  0  0  0
 12 13  1  0  0  0  0
 13 14  2  0  0  0  0
 13 15  1  0  0  0  0
 16 15  1  6  0  0  0
M  CHG  1   2  -1
M  END
>  <CHROM.1>
178.44364631,50.75887462,139.05138632,41.02624347,-63.43240471,13.06481727
3.36955263,10.26660565,0.97041281,0.71933719,-1.07566266

>  <Name>
1f27 biotin aptamer (Xray 1.3A)

>  <RI>
0

>  <Rbt.Current_Directory>
/home/itssahil/PROJECTS/Mol_Feturizer/New_Systems/rnas/1f27

>  <Rbt.Executable>
rbdock ($Id: //depot/dev/client3/rdock/2013.1/src/exe/rbdock.cxx#4 $)

>  <Rbt.Library>
libRbt.so (2013.1, Build901 2013/11/27)

>  <Rbt.Parameter_File>
/export/apps/rDock/src/rDock_2013.1_src/data/scripts/dock_solv.prm

>  <Rbt.Receptor>
prm/blind_docking_20.prm

>  <SCORE>
13.993

>  <SCORE.INTER>
7.95091

>  <SCORE.INTER.CONST>
1

>  <SCORE.INTER.POLAR>
-0.0602954

>  <SCORE.INTER.ROT>
5

>  <SCORE.INTER.SOLV>
22.4633

>  <SCORE.INTER.VDW>
-8.91952

>  <SCORE.INTER.norm>
0.496932

>  <SCORE.INTRA>
5.7332

>  <SCORE.INTRA.DIHEDRAL>
0.938517

>  <SCORE.INTRA.DIHEDRAL.0>
6.87082

>  <SCORE.INTRA.POLAR>
0

>  <SCORE.INTRA.POLAR.0>
0

>  <SCORE.INTRA.REPUL>
0

>  <SCORE.INTRA.REPUL.0>
0

>  <SCORE.INTRA.SOLV>
0.683863

>  <SCORE.INTRA.SOLV.lig_0>
-42.5944

>  <SCORE.INTRA.VDW>
4.92201

>  <SCORE.INTRA.VDW.0>
-1.067

>  <SCORE.INTRA.norm>
0.358325

>  <SCORE.RESTR>
0.308894

>  <SCORE.RESTR.CAVITY>
0.308894

>  <SCORE.RESTR.norm>
0.0193059

>  <SCORE.SYSTEM>
0

>  <SCORE.SYSTEM.CONST>
0

>  <SCORE.SYSTEM.DIHEDRAL>
0

>  <SCORE.SYSTEM.SOLV>
0

>  <SCORE.SYSTEM.norm>
0

>  <SCORE.heavy>
16

>  <SCORE.norm>
0.874563

>  <RMSD>
7.562

$$$$
1f27 biotin aptamer (Xray 1.3A)
 OpenBabel11021811393D
libRbt.so/2013.1/901 2013/11/27
 16 17  0  0  0  0  0  0  0  0999 V2000
   15.3051    3.5451    6.8178 C   0  0  0  0  0  0  0  0  0  0  0  0
   16.1569    3.0033    7.5150 O   0  5  0  0  0  0  0  0  0  0  0  0
   15.5434    3.7830    5.6350 O   0  0  0  0  0  0  0  0  0  0  0  0
   13.9315    3.8607    7.3960 C   0  0  0  0  0  0  0  0  0  0  0  0
   13.9102    5.0949    8.3251 C   0  0  0  0  0  0  0  0  0  0  0  0
   14.0101    4.6981    9.7864 C   0  0  0  0  0  0  0  0  0  0  0  0
   12.6650    4.4746   10.4454 C   0  0  0  0  0  0  0  0  0  0  0  0
   12.7268    4.1715   11.9482 C   0  0  2  0  0  0  0  0  0  0  0  0
   13.1452    2.3637   12.4202 S   0  0  0  0  0  0  0  0  0  0  0  0
   12.5506    2.8017   14.1808 C   0  0  0  0  0  0  0  0  0  0  0  0
   11.3695    3.7939   13.9721 C   0  0  2  0  0  0  0  0  0  0  0  0
   10.0931    2.9143   13.8923 N   0  0  0  0  0  0  0  0  0  0  0  0
    9.4699    3.0350   12.8013 C   0  0  0  0  0  0  0  0  0  0  0  0
    8.4889    2.3596   12.3269 O   0  0  0  0  0  0  0  0  0  0  0  0
   10.1671    3.8344   11.8202 N   0  0  0  0  0  0  0  0  0  0  0  0
   11.3567    4.4135   12.5854 C   0  0  2  0  0  0  0  0  0  0  0  0
  1  2  1  0  0  0  0
  1  3  2  0  0  0  0
  1  4  1  0  0  0  0
  4  5  1  0  0  0  0
  5  6  1  0  0  0  0
  6  7  1  0  0  0  0
  8  7  1  6  0  0  0
  8  9  1  0  0  0  0
  8 16  1  0  0  0  0
  9 10  1  0  0  0  0
 11 10  1  6  0  0  0
 11 12  1  0  0  0  0
 11 16  1  0  0  0  0
 12 13  1  0  0  0  0
 13 14  2  0  0  0  0
 13 15  1  0  0  0  0
 16 15  1  6  0  0  0
M  CHG  1   2  -1
M  END
>  <CHROM.1>
76.60016122,-96.89711996,-90.57583633,-175.78242403,-80.79003166,12.60951813
3.52107139,10.81734090,0.92527325,0.09513348,-1.37804200

>  <Name>
1f27 biotin aptamer (Xray 1.3A)

>  <RI>
0

>  <Rbt.Current_Directory>
/home/itssahil/PROJECTS/Mol_Feturizer/New_Systems/rnas/1f27

>  <Rbt.Executable>
rbdock ($Id: //depot/dev/client3/rdock/2013.1/src/exe/rbdock.cxx#4 $)

>  <Rbt.Library>
libRbt.so (2013.1, Build901 2013/11/27)

>  <Rbt.Parameter_File>
/export/apps/rDock/src/rDock_2013.1_src/data/scripts/dock_solv.prm

>  <Rbt.Receptor>
prm/blind_docking_20.prm

>  <SCORE>
3.53216

>  <SCORE.INTER>
-0.0798098

>  <SCORE.INTER.CONST>
1

>  <SCORE.INTER.POLAR>
-0.930872

>  <SCORE.INTER.ROT>
5

>  <SCORE.INTER.SOLV>
23.7479

>  <SCORE.INTER.VDW>
-11.7996

>  <SCORE.INTER.norm>
-0.00498811

>  <SCORE.INTRA>
1.2316

>  <SCORE.INTRA.DIHEDRAL>
2.9783

>  <SCORE.INTRA.DIHEDRAL.0>
6.87082

>  <SCORE.INTRA.POLAR>
0

>  <SCORE.INTRA.POLAR.0>
0

>  <SCORE.INTRA.REPUL>
0

>  <SCORE.INTRA.REPUL.0>
0

>  <SCORE.INTRA.SOLV>
-0.344028

>  <SCORE.INTRA.SOLV.lig_0>
-42.5944

>  <SCORE.INTRA.VDW>
-0.0855372

>  <SCORE.INTRA.VDW.0>
-1.067

>  <SCORE.INTRA.norm>
0.076975

>  <SCORE.RESTR>
2.38037

>  <SCORE.RESTR.CAVITY>
2.38037

>  <SCORE.RESTR.norm>
0.148773

>  <SCORE.SYSTEM>
0

>  <SCORE.SYSTEM.CONST>
0

>  <SCORE.SYSTEM.DIHEDRAL>
0

>  <SCORE.SYSTEM.SOLV>
0

>  <SCORE.SYSTEM.norm>
0

>  <SCORE.heavy>
16

>  <SCORE.norm>
0.22076

>  <RMSD>
7.569

$$$$
1f27 biotin aptamer (Xray 1.3A)
 OpenBabel11021811393D
libRbt.so/2013.1/901 2013/11/27
 16 17  0  0  0  0  0  0  0  0999 V2000
   14.1327    3.5767    7.4175 C   0  0  0  0  0  0  0  0  0  0  0  0
   14.7191    4.5648    7.8477 O   0  5  0  0  0  0  0  0  0  0  0  0
   13.5575    3.6311    6.3319 O   0  0  0  0  0  0  0  0  0  0  0  0
   14.1739    2.2657    8.1923 C   0  0  0  0  0  0  0  0  0  0  0  0
   13.2796    2.2530    9.4521 C   0  0  0  0  0  0  0  0  0  0  0  0
   13.8971    3.0506   10.5858 C   0  0  0  0  0  0  0  0  0  0  0  0
   13.4722    2.5763   11.9600 C   0  0  0  0  0  0  0  0  0  0  0  0
   12.6121    3.5733   12.7476 C   0  0  2  0  0  0  0  0  0  0  0  0
   11.6837    2.8618   14.2634 S   0  0  0  0  0  0  0  0  0  0  0  0
   10.6522    4.4683   14.2475 C   0  0  0  0  0  0  0  0  0  0  0  0
   10.4888    4.8275   12.7417 C   0  0  2  0  0  0  0  0  0  0  0  0
    9.1808    4.1283   12.2842 N   0  0  0  0  0  0  0  0  0  0  0  0
    9.3574    3.3003   11.3481 C   0  0  0  0  0  0  0  0  0  0  0  0
    8.5550    2.4393   10.8395 O   0  0  0  0  0  0  0  0  0  0  0  0
   10.7480    3.0747   11.0275 N   0  0  0  0  0  0  0  0  0  0  0  0
   11.4973    4.1201   11.8531 C   0  0  2  0  0  0  0  0  0  0  0  0
  1  2  1  0  0  0  0
  1  3  2  0  0  0  0
  1  4  1  0  0  0  0
  4  5  1  0  0  0  0
  5  6  1  0  0  0  0
  6  7  1  0  0  0  0
  8  7  1  6  0  0  0
  8  9  1  0  0  0  0
  8 16  1  0  0  0  0
  9 10  1  0  0  0  0
 11 10  1  1  0  0  0
 11 12  1  0  0  0  0
 11 16  1  0  0  0  0
 12 13  1  0  0  0  0
 13 14  2  0  0  0  0
 13 15  1  0  0  0  0
 16 15  1  1  0  0  0
M  CHG  1   2  -1
M  END
>  <CHROM.1>
74.86273433,-75.58901157,-152.73095170,-113.32055325,164.65844919,11.97465656
3.37091691,11.02557006,0.99300971,0.05152236,-1.56974208

>  <Name>
1f27 biotin aptamer (Xray 1.3A)

>  <RI>
0

>  <Rbt.Current_Directory>
/home/itssahil/PROJECTS/Mol_Feturizer/New_Systems/rnas/1f27

>  <Rbt.Executable>
rbdock ($Id: //depot/dev/client3/rdock/2013.1/src/exe/rbdock.cxx#4 $)

>  <Rbt.Library>
libRbt.so (2013.1, Build901 2013/11/27)

>  <Rbt.Parameter_File>
/export/apps/rDock/src/rDock_2013.1_src/data/scripts/dock_solv.prm

>  <Rbt.Receptor>
prm/blind_docking_20.prm

>  <SCORE>
9.28662

>  <SCORE.INTER>
3.72117

>  <SCORE.INTER.CONST>
1

>  <SCORE.INTER.POLAR>
-0.736768

>  <SCORE.INTER.ROT>
5

>  <SCORE.INTER.SOLV>
20.4458

>  <SCORE.INTER.VDW>
-8.81194

>  <SCORE.INTER.norm>
0.232573

>  <SCORE.INTRA>
3.83773

>  <SCORE.INTRA.DIHEDRAL>
4.8444

>  <SCORE.INTRA.DIHEDRAL.0>
6.87082

>  <SCORE.INTRA.POLAR>
0

>  <SCORE.INTRA.POLAR.0>
0

>  <SCORE.INTRA.REPUL>
0

>  <SCORE.INTRA.REPUL.0>
0

>  <SCORE.INTRA.SOLV>
0.541769

>  <SCORE.INTRA.SOLV.lig_0>
-42.5944

>  <SCORE.INTRA.VDW>
1.14464

>  <SCORE.INTRA.VDW.0>
-1.067

>  <SCORE.INTRA.norm>
0.239858

>  <SCORE.RESTR>
1.72772

>  <SCORE.RESTR.CAVITY>
1.72772

>  <SCORE.RESTR.norm>
0.107982

>  <SCORE.SYSTEM>
0

>  <SCORE.SYSTEM.CONST>
0

>  <SCORE.SYSTEM.DIHEDRAL>
0

>  <SCORE.SYSTEM.SOLV>
0

>  <SCORE.SYSTEM.norm>
0

>  <SCORE.heavy>
16

>  <SCORE.norm>
0.580414

>  <RMSD>
7.580

$$$$
1f27 biotin aptamer (Xray 1.3A)
 OpenBabel11021811393D
libRbt.so/2013.1/901 2013/11/27
 16 17  0  0  0  0  0  0  0  0999 V2000
   10.2119    4.1104   12.3267 C   0  0  0  0  0  0  0  0  0  0  0  0
    9.0739    4.3307   11.9246 O   0  5  0  0  0  0  0  0  0  0  0  0
   10.3895    3.7334   13.4838 O   0  0  0  0  0  0  0  0  0  0  0  0
   11.3962    4.2367   11.3770 C   0  0  0  0  0  0  0  0  0  0  0  0
   12.7501    3.8388   12.0059 C   0  0  0  0  0  0  0  0  0  0  0  0
   13.8955    4.0102   11.0254 C   0  0  0  0  0  0  0  0  0  0  0  0
   15.2515    3.6862   11.6171 C   0  0  0  0  0  0  0  0  0  0  0  0
   15.4193    2.2345   12.0849 C   0  0  2  0  0  0  0  0  0  0  0  0
   14.8379    1.8586   13.8699 S   0  0  0  0  0  0  0  0  0  0  0  0
   15.7975    0.2150   13.7190 C   0  0  0  0  0  0  0  0  0  0  0  0
   17.0516    0.5577   12.8628 C   0  0  2  0  0  0  0  0  0  0  0  0
   18.1527    0.9655   13.8779 N   0  0  0  0  0  0  0  0  0  0  0  0
   18.5791    2.1412   13.7077 C   0  0  0  0  0  0  0  0  0  0  0  0
   19.3509    2.8580   14.4387 O   0  0  0  0  0  0  0  0  0  0  0  0
   17.8384    2.8897   12.7184 N   0  0  0  0  0  0  0  0  0  0  0  0
   16.9024    1.8572   12.0908 C   0  0  2  0  0  0  0  0  0  0  0  0
  1  2  1  0  0  0  0
  1  3  2  0  0  0  0
  1  4  1  0  0  0  0
  4  5  1  0  0  0  0
  5  6  1  0  0  0  0
  6  7  1  0  0  0  0
  8  7  1  1  0  0  0
  8  9  1  0  0  0  0
  8 16  1  0  0  0  0
  9 10  1  0  0  0  0
 11 10  1  1  0  0  0
 11 12  1  0  0  0  0
 11 16  1  0  0  0  0
 12 13  1  0  0  0  0
 13 14  2  0  0  0  0
 13 15  1  0  0  0  0
 16 15  1  1  0  0  0
M  CHG  1   2  -1
M  END
>  <CHROM.1>
-176.22380631,-178.86275473,177.61126242,62.15626388,-86.56799752,14.77724134
2.68151866,12.80327422,2.79678839,0.06219236,-0.71046111

>  <Name>
1f27 biotin aptamer (Xray 1.3A)

>  <RI>
0

>  <Rbt.Current_Directory>
/home/itssahil/PROJECTS/Mol_Feturizer/New_Systems/rnas/1f27

>  <Rbt.Executable>
rbdock ($Id: //depot/dev/client3/rdock/2013.1/src/exe/rbdock.cxx#4 $)

>  <Rbt.Library>
libRbt.so (2013.1, Build901 2013/11/27)

>  <Rbt.Parameter_File>
/export/apps/rDock/src/rDock_2013.1_src/data/scripts/dock_solv.prm

>  <Rbt.Receptor>
prm/blind_docking_100.prm

>  <SCORE>
-21.4773

>  <SCORE.INTER>
-20.2481

>  <SCORE.INTER.CONST>
1

>  <SCORE.INTER.POLAR>
0

>  <SCORE.INTER.ROT>
5

>  <SCORE.INTER.SOLV>
10.7789

>  <SCORE.INTER.VDW>
-24.025

>  <SCORE.INTER.norm>
-1.26551

>  <SCORE.INTRA>
-1.22919

>  <SCORE.INTRA.DIHEDRAL>
-3.06721

>  <SCORE.INTRA.DIHEDRAL.0>
6.87082

>  <SCORE.INTRA.POLAR>
0

>  <SCORE.INTRA.POLAR.0>
0

>  <SCORE.INTRA.REPUL>
0

>  <SCORE.INTRA.REPUL.0>
0

>  <SCORE.INTRA.SOLV>
-0.730555

>  <SCORE.INTRA.SOLV.lig_0>
-42.5944

>  <SCORE.INTRA.VDW>
0.669692

>  <SCORE.INTRA.VDW.0>
-1.067

>  <SCORE.INTRA.norm>
-0.0768245

>  <SCORE.RESTR>
0

>  <SCORE.RESTR.CAVITY>
0

>  <SCORE.RESTR.norm>
0

>  <SCORE.SYSTEM>
0

>  <SCORE.SYSTEM.CONST>
0

>  <SCORE.SYSTEM.DIHEDRAL>
0

>  <SCORE.SYSTEM.SOLV>
0

>  <SCORE.SYSTEM.norm>
0

>  <SCORE.heavy>
16

>  <SCORE.norm>
-1.34233

>  <RMSD>
7.589

$$$$
1f27 biotin aptamer (Xray 1.3A)
 OpenBabel11021811393D
libRbt.so/2013.1/901 2013/11/27
 16 17  0  0  0  0  0  0  0  0999 V2000
   11.2645    3.4078   13.5559 C   0  0  0  0  0  0  0  0  0  0  0  0
   10.4916    2.6212   14.0935 O   0  5  0  0  0  0  0  0  0  0  0  0
   10.8213    4.3470   12.8971 O   0  0  0  0  0  0  0  0  0  0  0  0
   12.7672    3.2629   13.7593 C   0  0  0  0  0  0  0  0  0  0  0  0
   13.3482    1.9363   13.2212 C   0  0  0  0  0  0  0  0  0  0  0  0
   13.3373    1.8942   11.7043 C   0  0  0  0  0  0  0  0  0  0  0  0
   14.6058    2.4319   11.0755 C   0  0  0  0  0  0  0  0  0  0  0  0
   14.4387    3.7580   10.3219 C   0  0  2  0  0  0  0  0  0  0  0  0
   12.6524    4.4386   10.2131 S   0  0  0  0  0  0  0  0  0  0  0  0
   13.3021    5.6196    8.8610 C   0  0  0  0  0  0  0  0  0  0  0  0
   14.3713    4.7955    8.0858 C   0  0  2  0  0  0  0  0  0  0  0  0
   13.6044    4.0947    6.9327 N   0  0  0  0  0  0  0  0  0  0  0  0
   13.6783    2.8354    6.9757 C   0  0  0  0  0  0  0  0  0  0  0  0
   13.0513    1.9438    6.3007 O   0  0  0  0  0  0  0  0  0  0  0  0
   14.3188    2.3321    8.1691 N   0  0  0  0  0  0  0  0  0  0  0  0
   14.8587    3.5836    8.8608 C   0  0  2  0  0  0  0  0  0  0  0  0
  1  2  1  0  0  0  0
  1  3  2  0  0  0  0
  1  4  1  0  0  0  0
  4  5  1  0  0  0  0
  5  6  1  0  0  0  0
  6  7  1  0  0  0  0
  8  7  1  1  0  0  0
  8  9  1  0  0  0  0
  8 16  1  0  0  0  0
  9 10  1  0  0  0  0
 11 10  1  1  0  0  0
 11 12  1  0  0  0  0
 11 16  1  0  0  0  0
 12 13  1  0  0  0  0
 13 14  2  0  0  0  0
 13 15  1  0  0  0  0
 16 15  1  6  0  0  0
M  CHG  1   2  -1
M  END
>  <CHROM.1>
62.51182752,70.17906943,90.49164000,-111.14604218,-3.73083016,13.09972368
3.39651181,10.31729524,2.17695052,-0.95210133,2.14348166

>  <Name>
1f27 biotin aptamer (Xray 1.3A)

>  <RI>
0

>  <Rbt.Current_Directory>
/home/itssahil/PROJECTS/Mol_Feturizer/New_Systems/rnas/1f27

>  <Rbt.Executable>
rbdock ($Id: //depot/dev/client3/rdock/2013.1/src/exe/rbdock.cxx#4 $)

>  <Rbt.Library>
libRbt.so (2013.1, Build901 2013/11/27)

>  <Rbt.Parameter_File>
/export/apps/rDock/src/rDock_2013.1_src/data/scripts/dock_solv.prm

>  <Rbt.Receptor>
prm/blind_docking_20.prm

>  <SCORE>
50.4833

>  <SCORE.INTER>
44.1868

>  <SCORE.INTER.CONST>
1

>  <SCORE.INTER.POLAR>
-1.81208

>  <SCORE.INTER.ROT>
5

>  <SCORE.INTER.SOLV>
18.1917

>  <SCORE.INTER.VDW>
22.5009

>  <SCORE.INTER.norm>
2.76168

>  <SCORE.INTRA>
5.41555

>  <SCORE.INTRA.DIHEDRAL>
9.60259

>  <SCORE.INTRA.DIHEDRAL.0>
6.87082

>  <SCORE.INTRA.POLAR>
0

>  <SCORE.INTRA.POLAR.0>
0

>  <SCORE.INTRA.REPUL>
0

>  <SCORE.INTRA.REPUL.0>
0

>  <SCORE.INTRA.SOLV>
1.19824

>  <SCORE.INTRA.SOLV.lig_0>
-42.5944

>  <SCORE.INTRA.VDW>
0.0151378

>  <SCORE.INTRA.VDW.0>
-1.067

>  <SCORE.INTRA.norm>
0.338472

>  <SCORE.RESTR>
0.880904

>  <SCORE.RESTR.CAVITY>
0.880904

>  <SCORE.RESTR.norm>
0.0550565

>  <SCORE.SYSTEM>
0

>  <SCORE.SYSTEM.CONST>
0

>  <SCORE.SYSTEM.DIHEDRAL>
0

>  <SCORE.SYSTEM.SOLV>
0

>  <SCORE.SYSTEM.norm>
0

>  <SCORE.heavy>
16

>  <SCORE.norm>
3.1552

>  <RMSD>
7.612

$$$$
1f27 biotin aptamer (Xray 1.3A)
 OpenBabel11021811393D
libRbt.so/2013.1/901 2013/11/27
 16 17  0  0  0  0  0  0  0  0999 V2000
   14.3735    3.1932    5.6156 C   0  0  0  0  0  0  0  0  0  0  0  0
   13.3710    2.4877    5.6658 O   0  5  0  0  0  0  0  0  0  0  0  0
   14.7137    3.6976    4.5468 O   0  0  0  0  0  0  0  0  0  0  0  0
   15.1566    3.5003    6.8856 C   0  0  0  0  0  0  0  0  0  0  0  0
   14.3053    3.4553    8.1741 C   0  0  0  0  0  0  0  0  0  0  0  0
   13.9462    4.8482    8.6575 C   0  0  0  0  0  0  0  0  0  0  0  0
   13.2525    4.8607   10.0037 C   0  0  0  0  0  0  0  0  0  0  0  0
   13.7119    3.7651   10.9748 C   0  0  2  0  0  0  0  0  0  0  0  0
   13.0810    1.9968   10.5995 S   0  0  0  0  0  0  0  0  0  0  0  0
   13.6491    1.5382   12.3636 C   0  0  0  0  0  0  0  0  0  0  0  0
   13.3665    2.8066   13.2205 C   0  0  2  0  0  0  0  0  0  0  0  0
   11.9259    2.6280   13.7702 N   0  0  0  0  0  0  0  0  0  0  0  0
   11.1373    3.5469   13.4142 C   0  0  0  0  0  0  0  0  0  0  0  0
    9.8649    3.6428   13.5384 O   0  0  0  0  0  0  0  0  0  0  0  0
   11.7083    4.4615   12.4524 N   0  0  0  0  0  0  0  0  0  0  0  0
   13.1807    4.0579   12.3798 C   0  0  2  0  0  0  0  0  0  0  0  0
  1  2  1  0  0  0  0
  1  3  2  0  0  0  0
  1  4  1  0  0  0  0
  4  5  1  0  0  0  0
  5  6  1  0  0  0  0
  6  7  1  0  0  0  0
  8  7  1  6  0  0  0
  8  9  1  0  0  0  0
  8 16  1  0  0  0  0
  9 10  1  0  0  0  0
 11 10  1  6  0  0  0
 11 12  1  0  0  0  0
 11 16  1  0  0  0  0
 12 13  1  0  0  0  0
 13 14  2  0  0  0  0
 13 15  1  0  0  0  0
 16 15  1  6  0  0  0
M  CHG  1   2  -1
M  END
>  <CHROM.1>
-26.88562916,-102.16410380,-173.19106667,33.74014015,-74.79295464,13.14159918
3.29747471,10.13083325,-0.88588840,-1.01318838,2.20138470

>  <Name>
1f27 biotin aptamer (Xray 1.3A)

>  <RI>
0

>  <Rbt.Current_Directory>
/home/itssahil/PROJECTS/Mol_Feturizer/New_Systems/rnas/1f27

>  <Rbt.Executable>
rbdock ($Id: //depot/dev/client3/rdock/2013.1/src/exe/rbdock.cxx#4 $)

>  <Rbt.Library>
libRbt.so (2013.1, Build901 2013/11/27)

>  <Rbt.Parameter_File>
/export/apps/rDock/src/rDock_2013.1_src/data/scripts/dock_solv.prm

>  <Rbt.Receptor>
prm/blind_docking_20.prm

>  <SCORE>
1.64473

>  <SCORE.INTER>
-1.94564

>  <SCORE.INTER.CONST>
1

>  <SCORE.INTER.POLAR>
0

>  <SCORE.INTER.ROT>
5

>  <SCORE.INTER.SOLV>
24.6365

>  <SCORE.INTER.VDW>
-16.4426

>  <SCORE.INTER.norm>
-0.121603

>  <SCORE.INTRA>
2.94988

>  <SCORE.INTRA.DIHEDRAL>
2.35823

>  <SCORE.INTRA.DIHEDRAL.0>
6.87082

>  <SCORE.INTRA.POLAR>
0

>  <SCORE.INTRA.POLAR.0>
0

>  <SCORE.INTRA.REPUL>
0

>  <SCORE.INTRA.REPUL.0>
0

>  <SCORE.INTRA.SOLV>
-0.269335

>  <SCORE.INTRA.SOLV.lig_0>
-42.5944

>  <SCORE.INTRA.VDW>
1.90543

>  <SCORE.INTRA.VDW.0>
-1.067

>  <SCORE.INTRA.norm>
0.184367

>  <SCORE.RESTR>
0.640499

>  <SCORE.RESTR.CAVITY>
0.640499

>  <SCORE.RESTR.norm>
0.0400312

>  <SCORE.SYSTEM>
0

>  <SCORE.SYSTEM.CONST>
0

>  <SCORE.SYSTEM.DIHEDRAL>
0

>  <SCORE.SYSTEM.SOLV>
0

>  <SCORE.SYSTEM.norm>
0

>  <SCORE.heavy>
16

>  <SCORE.norm>
0.102796

>  <RMSD>
7.623

$$$$
1f27 biotin aptamer (Xray 1.3A)
 OpenBabel11021811393D
libRbt.so/2013.1/901 2013/11/27
 16 17  0  0  0  0  0  0  0  0999 V2000
   10.3814    3.4134   13.8437 C   0  0  0  0  0  0  0  0  0  0  0  0
   10.3837    4.5991   13.5284 O   0  5  0  0  0  0  0  0  0  0  0  0
    9.5790    2.6426   13.3198 O   0  0  0  0  0  0  0  0  0  0  0  0
   11.4138    2.8826   14.8302 C   0  0  0  0  0  0  0  0  0  0  0  0
   12.8453    2.7976   14.2552 C   0  0  0  0  0  0  0  0  0  0  0  0
   13.0546    1.5228   13.4588 C   0  0  0  0  0  0  0  0  0  0  0  0
   13.5988    1.7627   12.0660 C   0  0  0  0  0  0  0  0  0  0  0  0
   13.5160    3.2171   11.5842 C   0  0  2  0  0  0  0  0  0  0  0  0
   11.7930    3.8049   10.9913 S   0  0  0  0  0  0  0  0  0  0  0  0
   12.6907    5.3036   10.2213 C   0  0  0  0  0  0  0  0  0  0  0  0
   14.0557    4.7441    9.7245 C   0  0  2  0  0  0  0  0  0  0  0  0
   13.8144    4.2916    8.2596 N   0  0  0  0  0  0  0  0  0  0  0  0
   14.0366    3.0632    8.0725 C   0  0  0  0  0  0  0  0  0  0  0  0
   13.7929    2.3213    7.0557 O   0  0  0  0  0  0  0  0  0  0  0  0
   14.3066    2.3306    9.2882 N   0  0  0  0  0  0  0  0  0  0  0  0
   14.4155    3.4131   10.3617 C   0  0  2  0  0  0  0  0  0  0  0  0
  1  2  1  0  0  0  0
  1  3  2  0  0  0  0
  1  4  1  0  0  0  0
  4  5  1  0  0  0  0
  5  6  1  0  0  0  0
  6  7  1  0  0  0  0
  8  7  1  6  0  0  0
  8  9  1  0  0  0  0
  8 16  1  0  0  0  0
  9 10  1  0  0  0  0
 11 10  1  1  0  0  0
 11 12  1  0  0  0  0
 11 16  1  0  0  0  0
 12 13  1  0  0  0  0
 13 14  2  0  0  0  0
 13 15  1  0  0  0  0
 16 15  1  6  0  0  0
M  CHG  1   2  -1
M  END
>  <CHROM.1>
-71.71449169,-82.98800953,127.52909570,-14.35296767,-77.75290261,12.62721908
3.28852250,11.27211633,2.22607445,-0.69275364,2.07341238

>  <Name>
1f27 biotin aptamer (Xray 1.3A)

>  <RI>
0

>  <Rbt.Current_Directory>
/home/itssahil/PROJECTS/Mol_Feturizer/New_Systems/rnas/1f27

>  <Rbt.Executable>
rbdock ($Id: //depot/dev/client3/rdock/2013.1/src/exe/rbdock.cxx#4 $)

>  <Rbt.Library>
libRbt.so (2013.1, Build901 2013/11/27)

>  <Rbt.Parameter_File>
/export/apps/rDock/src/rDock_2013.1_src/data/scripts/dock_solv.prm

>  <Rbt.Receptor>
prm/blind_docking_20.prm

>  <SCORE>
21.3887

>  <SCORE.INTER>
12.9316

>  <SCORE.INTER.CONST>
1

>  <SCORE.INTER.POLAR>
-2.07325

>  <SCORE.INTER.ROT>
5

>  <SCORE.INTER.SOLV>
15.4212

>  <SCORE.INTER.VDW>
3.45815

>  <SCORE.INTER.norm>
0.808222

>  <SCORE.INTRA>
6.33153

>  <SCORE.INTRA.DIHEDRAL>
8.48558

>  <SCORE.INTRA.DIHEDRAL.0>
6.87082

>  <SCORE.INTRA.POLAR>
0

>  <SCORE.INTRA.POLAR.0>
0

>  <SCORE.INTRA.REPUL>
0

>  <SCORE.INTRA.REPUL.0>
0

>  <SCORE.INTRA.SOLV>
2.61807

>  <SCORE.INTRA.SOLV.lig_0>
-42.5944

>  <SCORE.INTRA.VDW>
0.779707

>  <SCORE.INTRA.VDW.0>
-1.067

>  <SCORE.INTRA.norm>
0.395721

>  <SCORE.RESTR>
2.12563

>  <SCORE.RESTR.CAVITY>
2.12563

>  <SCORE.RESTR.norm>
0.132852

>  <SCORE.SYSTEM>
0

>  <SCORE.SYSTEM.CONST>
0

>  <SCORE.SYSTEM.DIHEDRAL>
0

>  <SCORE.SYSTEM.SOLV>
0

>  <SCORE.SYSTEM.norm>
0

>  <SCORE.heavy>
16

>  <SCORE.norm>
1.3368

>  <RMSD>
7.625

$$$$
1f27 biotin aptamer (Xray 1.3A)
 OpenBabel11021811393D
libRbt.so/2013.1/901 2013/11/27
 16 17  0  0  0  0  0  0  0  0999 V2000
   11.0016    3.0050   13.9218 C   0  0  0  0  0  0  0  0  0  0  0  0
   11.2195    2.0315   14.6360 O   0  5  0  0  0  0  0  0  0  0  0  0
   10.0215    3.7156   14.1386 O   0  0  0  0  0  0  0  0  0  0  0  0
   11.9784    3.3733   12.8124 C   0  0  0  0  0  0  0  0  0  0  0  0
   13.4420    3.5148   13.2865 C   0  0  0  0  0  0  0  0  0  0  0  0
   14.3328    2.4451   12.6822 C   0  0  0  0  0  0  0  0  0  0  0  0
   14.2033    2.3297   11.1777 C   0  0  0  0  0  0  0  0  0  0  0  0
   14.2260    3.6667   10.4252 C   0  0  2  0  0  0  0  0  0  0  0  0
   12.5269    4.5112   10.1691 S   0  0  0  0  0  0  0  0  0  0  0  0
   13.3983    5.6283    8.8894 C   0  0  0  0  0  0  0  0  0  0  0  0
   14.4495    4.7091    8.2015 C   0  0  2  0  0  0  0  0  0  0  0  0
   13.7238    4.0845    6.9799 N   0  0  0  0  0  0  0  0  0  0  0  0
   13.6765    2.8238    7.0172 C   0  0  0  0  0  0  0  0  0  0  0  0
   13.0303    1.9955    6.2822 O   0  0  0  0  0  0  0  0  0  0  0  0
   14.1615    2.2612    8.2565 N   0  0  0  0  0  0  0  0  0  0  0  0
   14.7533    3.4558    9.0041 C   0  0  2  0  0  0  0  0  0  0  0  0
  1  2  1  0  0  0  0
  1  3  2  0  0  0  0
  1  4  1  0  0  0  0
  4  5  1  0  0  0  0
  5  6  1  0  0  0  0
  6  7  1  0  0  0  0
  8  7  1  6  0  0  0
  8  9  1  0  0  0  0
  8 16  1  0  0  0  0
  9 10  1  0  0  0  0
 11 10  1  1  0  0  0
 11 12  1  0  0  0  0
 11 16  1  0  0  0  0
 12 13  1  0  0  0  0
 13 14  2  0  0  0  0
 13 15  1  0  0  0  0
 16 15  1  6  0  0  0
M  CHG  1   2  -1
M  END
>  <CHROM.1>
-52.78546296,114.04523723,50.65112092,46.05065141,-89.42962228,13.04854471
3.41131994,10.48831282,2.06363227,-0.78609893,1.99985157

>  <Name>
1f27 biotin aptamer (Xray 1.3A)

>  <RI>
0

>  <Rbt.Current_Directory>
/home/itssahil/PROJECTS/Mol_Feturizer/New_Systems/rnas/1f27

>  <Rbt.Executable>
rbdock ($Id: //depot/dev/client3/rdock/2013.1/src/exe/rbdock.cxx#4 $)

>  <Rbt.Library>
libRbt.so (2013.1, Build901 2013/11/27)

>  <Rbt.Parameter_File>
/export/apps/rDock/src/rDock_2013.1_src/data/scripts/dock_solv.prm

>  <Rbt.Receptor>
prm/blind_docking_20.prm

>  <SCORE>
46.359

>  <SCORE.INTER>
39.9504

>  <SCORE.INTER.CONST>
1

>  <SCORE.INTER.POLAR>
-1.54111

>  <SCORE.INTER.ROT>
5

>  <SCORE.INTER.SOLV>
17.9634

>  <SCORE.INTER.VDW>
18.8495

>  <SCORE.INTER.norm>
2.4969

>  <SCORE.INTRA>
5.0109

>  <SCORE.INTRA.DIHEDRAL>
3.72043

>  <SCORE.INTRA.DIHEDRAL.0>
6.87082

>  <SCORE.INTRA.POLAR>
0

>  <SCORE.INTRA.POLAR.0>
0

>  <SCORE.INTRA.REPUL>
0

>  <SCORE.INTRA.REPUL.0>
0

>  <SCORE.INTRA.SOLV>
-0.160569

>  <SCORE.INTRA.SOLV.lig_0>
-42.5944

>  <SCORE.INTRA.VDW>
3.23097

>  <SCORE.INTRA.VDW.0>
-1.067

>  <SCORE.INTRA.norm>
0.313181

>  <SCORE.RESTR>
1.39775

>  <SCORE.RESTR.CAVITY>
1.39775

>  <SCORE.RESTR.norm>
0.0873593

>  <SCORE.SYSTEM>
0

>  <SCORE.SYSTEM.CONST>
0

>  <SCORE.SYSTEM.DIHEDRAL>
0

>  <SCORE.SYSTEM.SOLV>
0

>  <SCORE.SYSTEM.norm>
0

>  <SCORE.heavy>
16

>  <SCORE.norm>
2.89744

>  <RMSD>
7.629

$$$$
1f27 biotin aptamer (Xray 1.3A)
 OpenBabel11021811393D
libRbt.so/2013.1/901 2013/11/27
 16 17  0  0  0  0  0  0  0  0999 V2000
   14.1392    3.1907    6.2286 C   0  0  0  0  0  0  0  0  0  0  0  0
   14.9853    3.4791    5.3882 O   0  5  0  0  0  0  0  0  0  0  0  0
   13.1622    2.5167    5.9068 O   0  0  0  0  0  0  0  0  0  0  0  0
   14.3315    3.6072    7.6813 C   0  0  0  0  0  0  0  0  0  0  0  0
   13.9613    2.5091    8.7031 C   0  0  0  0  0  0  0  0  0  0  0  0
   14.1958    2.9694   10.1300 C   0  0  0  0  0  0  0  0  0  0  0  0
   13.1298    3.9149   10.6431 C   0  0  0  0  0  0  0  0  0  0  0  0
   12.9245    3.8895   12.1635 C   0  0  2  0  0  0  0  0  0  0  0  0
   13.0734    2.1732   12.9989 S   0  0  0  0  0  0  0  0  0  0  0  0
   12.2604    2.9705   14.5312 C   0  0  0  0  0  0  0  0  0  0  0  0
   11.2361    3.9930   13.9579 C   0  0  2  0  0  0  0  0  0  0  0  0
    9.9032    3.2117   13.8094 N   0  0  0  0  0  0  0  0  0  0  0  0
    9.4739    3.1760   12.6230 C   0  0  0  0  0  0  0  0  0  0  0  0
    8.5139    2.5002   12.1078 O   0  0  0  0  0  0  0  0  0  0  0  0
   10.3951    3.7271   11.6557 N   0  0  0  0  0  0  0  0  0  0  0  0
   11.5045    4.3463   12.5053 C   0  0  2  0  0  0  0  0  0  0  0  0
  1  2  1  0  0  0  0
  1  3  2  0  0  0  0
  1  4  1  0  0  0  0
  4  5  1  0  0  0  0
  5  6  1  0  0  0  0
  6  7  1  0  0  0  0
  8  7  1  6  0  0  0
  8  9  1  0  0  0  0
  8 16  1  0  0  0  0
  9 10  1  0  0  0  0
 11 10  1  6  0  0  0
 11 12  1  0  0  0  0
 11 16  1  0  0  0  0
 12 13  1  0  0  0  0
 13 14  2  0  0  0  0
 13 15  1  0  0  0  0
 16 15  1  6  0  0  0
M  CHG  1   2  -1
M  END
>  <CHROM.1>
-137.37106795,178.96768840,76.53640497,152.54214296,-37.26900853,12.37111883
3.16060676,10.80012862,1.10338586,0.02371316,-1.56526531

>  <Name>
1f27 biotin aptamer (Xray 1.3A)

>  <RI>
0

>  <Rbt.Current_Directory>
/home/itssahil/PROJECTS/Mol_Feturizer/New_Systems/rnas/1f27

>  <Rbt.Executable>
rbdock ($Id: //depot/dev/client3/rdock/2013.1/src/exe/rbdock.cxx#4 $)

>  <Rbt.Library>
libRbt.so (2013.1, Build901 2013/11/27)

>  <Rbt.Parameter_File>
/export/apps/rDock/src/rDock_2013.1_src/data/scripts/dock_solv.prm

>  <Rbt.Receptor>
prm/blind_docking_20.prm

>  <SCORE>
-5.68352

>  <SCORE.INTER>
-7.97463

>  <SCORE.INTER.CONST>
1

>  <SCORE.INTER.POLAR>
-0.407859

>  <SCORE.INTER.ROT>
5

>  <SCORE.INTER.SOLV>
22.5299

>  <SCORE.INTER.VDW>
-18.4002

>  <SCORE.INTER.norm>
-0.498414

>  <SCORE.INTRA>
0.470509

>  <SCORE.INTRA.DIHEDRAL>
0.176504

>  <SCORE.INTRA.DIHEDRAL.0>
6.87082

>  <SCORE.INTRA.POLAR>
0

>  <SCORE.INTRA.POLAR.0>
0

>  <SCORE.INTRA.REPUL>
0

>  <SCORE.INTRA.REPUL.0>
0

>  <SCORE.INTRA.SOLV>
-0.729259

>  <SCORE.INTRA.SOLV.lig_0>
-42.5944

>  <SCORE.INTRA.VDW>
0.746887

>  <SCORE.INTRA.VDW.0>
-1.067

>  <SCORE.INTRA.norm>
0.0294068

>  <SCORE.RESTR>
1.82061

>  <SCORE.RESTR.CAVITY>
1.82061

>  <SCORE.RESTR.norm>
0.113788

>  <SCORE.SYSTEM>
0

>  <SCORE.SYSTEM.CONST>
0

>  <SCORE.SYSTEM.DIHEDRAL>
0

>  <SCORE.SYSTEM.SOLV>
0

>  <SCORE.SYSTEM.norm>
0

>  <SCORE.heavy>
16

>  <SCORE.norm>
-0.35522

>  <RMSD>
7.641

$$$$
1f27 biotin aptamer (Xray 1.3A)
 OpenBabel11021811393D
libRbt.so/2013.1/901 2013/11/27
 16 17  0  0  0  0  0  0  0  0999 V2000
   14.1640    3.1673    6.2419 C   0  0  0  0  0  0  0  0  0  0  0  0
   13.1706    2.5330    5.9012 O   0  5  0  0  0  0  0  0  0  0  0  0
   14.9948    3.5021    5.3992 O   0  0  0  0  0  0  0  0  0  0  0  0
   14.3350    3.5989    7.6928 C   0  0  0  0  0  0  0  0  0  0  0  0
   13.9463    2.5128    8.7205 C   0  0  0  0  0  0  0  0  0  0  0  0
   14.1976    2.9731   10.1446 C   0  0  0  0  0  0  0  0  0  0  0  0
   13.1554    3.9442   10.6587 C   0  0  0  0  0  0  0  0  0  0  0  0
   12.9345    3.9073   12.1766 C   0  0  2  0  0  0  0  0  0  0  0  0
   13.0864    2.1866   13.0023 S   0  0  0  0  0  0  0  0  0  0  0  0
   12.2520    2.9682   14.5312 C   0  0  0  0  0  0  0  0  0  0  0  0
   11.2269    3.9875   13.9539 C   0  0  2  0  0  0  0  0  0  0  0  0
    9.9009    3.1982   13.7864 N   0  0  0  0  0  0  0  0  0  0  0  0
    9.4843    3.1675   12.5953 C   0  0  0  0  0  0  0  0  0  0  0  0
    8.5343    2.4887   12.0657 O   0  0  0  0  0  0  0  0  0  0  0  0
   10.4116    3.7312   11.6414 N   0  0  0  0  0  0  0  0  0  0  0  0
   11.5079    4.3523   12.5065 C   0  0  2  0  0  0  0  0  0  0  0  0
  1  2  1  0  0  0  0
  1  3  2  0  0  0  0
  1  4  1  0  0  0  0
  4  5  1  0  0  0  0
  5  6  1  0  0  0  0
  6  7  1  0  0  0  0
  8  7  1  6  0  0  0
  8  9  1  0  0  0  0
  8 16  1  0  0  0  0
  9 10  1  0  0  0  0
 11 10  1  6  0  0  0
 11 12  1  0  0  0  0
 11 16  1  0  0  0  0
 12 13  1  0  0  0  0
 13 14  2  0  0  0  0
 13 15  1  0  0  0  0
 16 15  1  6  0  0  0
M  CHG  1   2  -1
M  END
>  <CHROM.1>
42.11792369,177.32845901,76.47571082,151.25729669,-35.13522626,12.37864882
3.16452091,10.79907090,1.10331550,0.01789149,-1.56709031

>  <Name>
1f27 biotin aptamer (Xray 1.3A)

>  <RI>
0

>  <Rbt.Current_Directory>
/home/itssahil/PROJECTS/Mol_Feturizer/New_Systems/rnas/1f27

>  <Rbt.Executable>
rbdock ($Id: //depot/dev/client3/rdock/2013.1/src/exe/rbdock.cxx#4 $)

>  <Rbt.Library>
libRbt.so (2013.1, Build901 2013/11/27)

>  <Rbt.Parameter_File>
/export/apps/rDock/src/rDock_2013.1_src/data/scripts/dock_solv.prm

>  <Rbt.Receptor>
prm/blind_docking_20.prm

>  <SCORE>
-5.60987

>  <SCORE.INTER>
-8.05404

>  <SCORE.INTER.CONST>
1

>  <SCORE.INTER.POLAR>
-0.365469

>  <SCORE.INTER.ROT>
5

>  <SCORE.INTER.SOLV>
22.6027

>  <SCORE.INTER.VDW>
-18.6187

>  <SCORE.INTER.norm>
-0.503377

>  <SCORE.INTRA>
0.645218

>  <SCORE.INTRA.DIHEDRAL>
0.527655

>  <SCORE.INTRA.DIHEDRAL.0>
6.87082

>  <SCORE.INTRA.POLAR>
0

>  <SCORE.INTRA.POLAR.0>
0

>  <SCORE.INTRA.REPUL>
0

>  <SCORE.INTRA.REPUL.0>
0

>  <SCORE.INTRA.SOLV>
-0.746308

>  <SCORE.INTRA.SOLV.lig_0>
-42.5944

>  <SCORE.INTRA.VDW>
0.754545

>  <SCORE.INTRA.VDW.0>
-1.067

>  <SCORE.INTRA.norm>
0.0403261

>  <SCORE.RESTR>
1.79895

>  <SCORE.RESTR.CAVITY>
1.79895

>  <SCORE.RESTR.norm>
0.112434

>  <SCORE.SYSTEM>
0

>  <SCORE.SYSTEM.CONST>
0

>  <SCORE.SYSTEM.DIHEDRAL>
0

>  <SCORE.SYSTEM.SOLV>
0

>  <SCORE.SYSTEM.norm>
0

>  <SCORE.heavy>
16

>  <SCORE.norm>
-0.350617

>  <RMSD>
7.647

$$$$
1f27 biotin aptamer (Xray 1.3A)
 OpenBabel11021811393D
libRbt.so/2013.1/901 2013/11/27
 16 17  0  0  0  0  0  0  0  0999 V2000
   10.3523    3.6266   13.9182 C   0  0  0  0  0  0  0  0  0  0  0  0
    9.5433    2.9105   14.4997 O   0  5  0  0  0  0  0  0  0  0  0  0
    9.9543    4.5597   13.2229 O   0  0  0  0  0  0  0  0  0  0  0  0
   11.8469    3.4043   14.1108 C   0  0  0  0  0  0  0  0  0  0  0  0
   12.2473    1.9189   14.2524 C   0  0  0  0  0  0  0  0  0  0  0  0
   13.5758    1.6297   13.5783 C   0  0  0  0  0  0  0  0  0  0  0  0
   13.5365    1.7873   12.0725 C   0  0  0  0  0  0  0  0  0  0  0  0
   13.4606    3.2381   11.5788 C   0  0  2  0  0  0  0  0  0  0  0  0
   11.7493    3.8174   10.9452 S   0  0  0  0  0  0  0  0  0  0  0  0
   12.6598    5.3130   10.1841 C   0  0  0  0  0  0  0  0  0  0  0  0
   14.0364    4.7534    9.7205 C   0  0  2  0  0  0  0  0  0  0  0  0
   13.8275    4.2901    8.2539 N   0  0  0  0  0  0  0  0  0  0  0  0
   14.0565    3.0611    8.0803 C   0  0  0  0  0  0  0  0  0  0  0  0
   13.8363    2.3115    7.0637 O   0  0  0  0  0  0  0  0  0  0  0  0
   14.3021    2.3376    9.3066 N   0  0  0  0  0  0  0  0  0  0  0  0
   14.3856    3.4278   10.3746 C   0  0  2  0  0  0  0  0  0  0  0  0
  1  2  1  0  0  0  0
  1  3  2  0  0  0  0
  1  4  1  0  0  0  0
  4  5  1  0  0  0  0
  5  6  1  0  0  0  0
  6  7  1  0  0  0  0
  8  7  1  6  0  0  0
  8  9  1  0  0  0  0
  8 16  1  0  0  0  0
  9 10  1  0  0  0  0
 11 10  1  1  0  0  0
 11 12  1  0  0  0  0
 11 16  1  0  0  0  0
 12 13  1  0  0  0  0
 13 14  2  0  0  0  0
 13 15  1  0  0  0  0
 16 15  1  6  0  0  0
M  CHG  1   2  -1
M  END
>  <CHROM.1>
36.22436484,143.26924155,-66.09312951,72.66772553,-104.21154319,12.60343950
3.30524124,11.29256420,2.25833734,-0.69548951,2.09266106

>  <Name>
1f27 biotin aptamer (Xray 1.3A)

>  <RI>
0

>  <Rbt.Current_Directory>
/home/itssahil/PROJECTS/Mol_Feturizer/New_Systems/rnas/1f27

>  <Rbt.Executable>
rbdock ($Id: //depot/dev/client3/rdock/2013.1/src/exe/rbdock.cxx#4 $)

>  <Rbt.Library>
libRbt.so (2013.1, Build901 2013/11/27)

>  <Rbt.Parameter_File>
/export/apps/rDock/src/rDock_2013.1_src/data/scripts/dock_solv.prm

>  <Rbt.Receptor>
prm/blind_docking_20.prm

>  <SCORE>
15.1323

>  <SCORE.INTER>
9.83151

>  <SCORE.INTER.CONST>
1

>  <SCORE.INTER.POLAR>
-2.11348

>  <SCORE.INTER.ROT>
5

>  <SCORE.INTER.SOLV>
14.1695

>  <SCORE.INTER.VDW>
1.94275

>  <SCORE.INTER.norm>
0.614469

>  <SCORE.INTRA>
3.31713

>  <SCORE.INTRA.DIHEDRAL>
3.69317

>  <SCORE.INTRA.DIHEDRAL.0>
6.87082

>  <SCORE.INTRA.POLAR>
0

>  <SCORE.INTRA.POLAR.0>
0

>  <SCORE.INTRA.REPUL>
0

>  <SCORE.INTRA.REPUL.0>
0

>  <SCORE.INTRA.SOLV>
1.22016

>  <SCORE.INTRA.SOLV.lig_0>
-42.5944

>  <SCORE.INTRA.VDW>
0.860464

>  <SCORE.INTRA.VDW.0>
-1.067

>  <SCORE.INTRA.norm>
0.207321

>  <SCORE.RESTR>
1.98361

>  <SCORE.RESTR.CAVITY>
1.98361

>  <SCORE.RESTR.norm>
0.123976

>  <SCORE.SYSTEM>
0

>  <SCORE.SYSTEM.CONST>
0

>  <SCORE.SYSTEM.DIHEDRAL>
0

>  <SCORE.SYSTEM.SOLV>
0

>  <SCORE.SYSTEM.norm>
0

>  <SCORE.heavy>
16

>  <SCORE.norm>
0.945766

>  <RMSD>
7.692

$$$$
1f27 biotin aptamer (Xray 1.3A)
 OpenBabel11021811393D
libRbt.so/2013.1/901 2013/11/27
 16 17  0  0  0  0  0  0  0  0999 V2000
   10.3535    3.6293   13.9148 C   0  0  0  0  0  0  0  0  0  0  0  0
    9.5543    2.9242   14.5227 O   0  5  0  0  0  0  0  0  0  0  0  0
    9.9436    4.5426   13.2005 O   0  0  0  0  0  0  0  0  0  0  0  0
   11.8512    3.4190   14.0968 C   0  0  0  0  0  0  0  0  0  0  0  0
   12.2628    1.9377   14.2498 C   0  0  0  0  0  0  0  0  0  0  0  0
   13.5801    1.6473   13.5546 C   0  0  0  0  0  0  0  0  0  0  0  0
   13.5154    1.7990   12.0491 C   0  0  0  0  0  0  0  0  0  0  0  0
   13.4411    3.2482   11.5508 C   0  0  2  0  0  0  0  0  0  0  0  0
   11.7339    3.8230   10.9021 S   0  0  0  0  0  0  0  0  0  0  0  0
   12.6479    5.3178   10.1438 C   0  0  0  0  0  0  0  0  0  0  0  0
   14.0290    4.7592    9.6926 C   0  0  2  0  0  0  0  0  0  0  0  0
   13.8324    4.2914    8.2258 N   0  0  0  0  0  0  0  0  0  0  0  0
   14.0646    3.0622    8.0575 C   0  0  0  0  0  0  0  0  0  0  0  0
   13.8536    2.3094    7.0414 O   0  0  0  0  0  0  0  0  0  0  0  0
   14.3018    2.3426    9.2877 N   0  0  0  0  0  0  0  0  0  0  0  0
   14.3752    3.4360   10.3532 C   0  0  2  0  0  0  0  0  0  0  0  0
  1  2  1  0  0  0  0
  1  3  2  0  0  0  0
  1  4  1  0  0  0  0
  4  5  1  0  0  0  0
  5  6  1  0  0  0  0
  6  7  1  0  0  0  0
  8  7  1  6  0  0  0
  8  9  1  0  0  0  0
  8 16  1  0  0  0  0
  9 10  1  0  0  0  0
 11 10  1  1  0  0  0
 11 12  1  0  0  0  0
 11 16  1  0  0  0  0
 12 13  1  0  0  0  0
 13 14  2  0  0  0  0
 13 15  1  0  0  0  0
 16 15  1  6  0  0  0
M  CHG  1   2  -1
M  END
>  <CHROM.1>
37.11252930,142.65573043,-65.50766781,73.13997594,-105.75416738,12.60083184
3.31137739,11.27113066,2.25418945,-0.69350027,2.08759338

>  <Name>
1f27 biotin aptamer (Xray 1.3A)

>  <RI>
0

>  <Rbt.Current_Directory>
/home/itssahil/PROJECTS/Mol_Feturizer/New_Systems/rnas/1f27

>  <Rbt.Executable>
rbdock ($Id: //depot/dev/client3/rdock/2013.1/src/exe/rbdock.cxx#4 $)

>  <Rbt.Library>
libRbt.so (2013.1, Build901 2013/11/27)

>  <Rbt.Parameter_File>
/export/apps/rDock/src/rDock_2013.1_src/data/scripts/dock_solv.prm

>  <Rbt.Receptor>
prm/blind_docking_20.prm

>  <SCORE>
15.3581

>  <SCORE.INTER>
10.0336

>  <SCORE.INTER.CONST>
1

>  <SCORE.INTER.POLAR>
-2.11051

>  <SCORE.INTER.ROT>
5

>  <SCORE.INTER.SOLV>
14.1487

>  <SCORE.INTER.VDW>
2.07459

>  <SCORE.INTER.norm>
0.627103

>  <SCORE.INTRA>
3.37494

>  <SCORE.INTRA.DIHEDRAL>
3.96259

>  <SCORE.INTRA.DIHEDRAL.0>
6.87082

>  <SCORE.INTRA.POLAR>
0

>  <SCORE.INTRA.POLAR.0>
0

>  <SCORE.INTRA.REPUL>
0

>  <SCORE.INTRA.REPUL.0>
0

>  <SCORE.INTRA.SOLV>
1.20324

>  <SCORE.INTRA.SOLV.lig_0>
-42.5944

>  <SCORE.INTRA.VDW>
0.79203

>  <SCORE.INTRA.VDW.0>
-1.067

>  <SCORE.INTRA.norm>
0.210934

>  <SCORE.RESTR>
1.94954

>  <SCORE.RESTR.CAVITY>
1.94954

>  <SCORE.RESTR.norm>
0.121846

>  <SCORE.SYSTEM>
0

>  <SCORE.SYSTEM.CONST>
0

>  <SCORE.SYSTEM.DIHEDRAL>
0

>  <SCORE.SYSTEM.SOLV>
0

>  <SCORE.SYSTEM.norm>
0

>  <SCORE.heavy>
16

>  <SCORE.norm>
0.959883

>  <RMSD>
7.701

$$$$
1f27 biotin aptamer (Xray 1.3A)
 OpenBabel11021811393D
libRbt.so/2013.1/901 2013/11/27
 16 17  0  0  0  0  0  0  0  0999 V2000
   10.3427    2.6906   14.0244 C   0  0  0  0  0  0  0  0  0  0  0  0
    9.2796    2.4985   13.4429 O   0  5  0  0  0  0  0  0  0  0  0  0
   10.5739    2.1108   15.0841 O   0  0  0  0  0  0  0  0  0  0  0  0
   11.4024    3.5911   13.4026 C   0  0  0  0  0  0  0  0  0  0  0  0
   12.8525    3.1840   13.7469 C   0  0  0  0  0  0  0  0  0  0  0  0
   13.2099    1.8320   13.1577 C   0  0  0  0  0  0  0  0  0  0  0  0
   13.4302    1.8646   11.6597 C   0  0  0  0  0  0  0  0  0  0  0  0
   13.7935    3.2431   11.0923 C   0  0  2  0  0  0  0  0  0  0  0  0
   12.3182    4.3757   10.6378 S   0  0  0  0  0  0  0  0  0  0  0  0
   13.5770    5.4472    9.6827 C   0  0  0  0  0  0  0  0  0  0  0  0
   14.6001    4.4349    9.0898 C   0  0  2  0  0  0  0  0  0  0  0  0
   14.0482    4.0534    7.6901 N   0  0  0  0  0  0  0  0  0  0  0  0
   13.8135    2.8196    7.5643 C   0  0  0  0  0  0  0  0  0  0  0  0
   13.2132    2.1803    6.6291 O   0  0  0  0  0  0  0  0  0  0  0  0
   13.9577    2.0733    8.7930 N   0  0  0  0  0  0  0  0  0  0  0  0
   14.5555    3.0802    9.7752 C   0  0  2  0  0  0  0  0  0  0  0  0
  1  2  1  0  0  0  0
  1  3  2  0  0  0  0
  1  4  1  0  0  0  0
  4  5  1  0  0  0  0
  5  6  1  0  0  0  0
  6  7  1  0  0  0  0
  8  7  1  6  0  0  0
  8  9  1  0  0  0  0
  8 16  1  0  0  0  0
  9 10  1  0  0  0  0
 11 10  1  1  0  0  0
 11 12  1  0  0  0  0
 11 16  1  0  0  0  0
 12 13  1  0  0  0  0
 13 14  2  0  0  0  0
 13 15  1  0  0  0  0
 16 15  1  6  0  0  0
M  CHG  1   2  -1
M  END
>  <CHROM.1>
-148.48454588,65.33858982,73.84900597,22.56882163,-86.64833317,12.73189508
3.16554767,10.95109672,3.12506778,1.10674324,0.14602962

>  <Name>
1f27 biotin aptamer (Xray 1.3A)

>  <RI>
0

>  <Rbt.Current_Directory>
/home/itssahil/PROJECTS/Mol_Feturizer/New_Systems/rnas/1f27

>  <Rbt.Executable>
rbdock ($Id: //depot/dev/client3/rdock/2013.1/src/exe/rbdock.cxx#4 $)

>  <Rbt.Library>
libRbt.so (2013.1, Build901 2013/11/27)

>  <Rbt.Parameter_File>
/export/apps/rDock/src/rDock_2013.1_src/data/scripts/dock_solv.prm

>  <Rbt.Receptor>
prm/blind_docking_20.prm

>  <SCORE>
36.5489

>  <SCORE.INTER>
30.0274

>  <SCORE.INTER.CONST>
1

>  <SCORE.INTER.POLAR>
-1.68054

>  <SCORE.INTER.ROT>
5

>  <SCORE.INTER.SOLV>
16.6761

>  <SCORE.INTER.VDW>
13.128

>  <SCORE.INTER.norm>
1.87671

>  <SCORE.INTRA>
4.3299

>  <SCORE.INTRA.DIHEDRAL>
2.08514

>  <SCORE.INTRA.DIHEDRAL.0>
6.87082

>  <SCORE.INTRA.POLAR>
0

>  <SCORE.INTRA.POLAR.0>
0

>  <SCORE.INTRA.REPUL>
0

>  <SCORE.INTRA.REPUL.0>
0

>  <SCORE.INTRA.SOLV>
0.647963

>  <SCORE.INTRA.SOLV.lig_0>
-42.5944

>  <SCORE.INTRA.VDW>
2.96335

>  <SCORE.INTRA.VDW.0>
-1.067

>  <SCORE.INTRA.norm>
0.270619

>  <SCORE.RESTR>
2.19161

>  <SCORE.RESTR.CAVITY>
2.19161

>  <SCORE.RESTR.norm>
0.136976

>  <SCORE.SYSTEM>
0

>  <SCORE.SYSTEM.CONST>
0

>  <SCORE.SYSTEM.DIHEDRAL>
0

>  <SCORE.SYSTEM.SOLV>
0

>  <SCORE.SYSTEM.norm>
0

>  <SCORE.heavy>
16

>  <SCORE.norm>
2.28431

>  <RMSD>
7.703

$$$$
1f27 biotin aptamer (Xray 1.3A)
 OpenBabel11021811393D
libRbt.so/2013.1/901 2013/11/27
 16 17  0  0  0  0  0  0  0  0999 V2000
   10.3321    3.6273   13.6525 C   0  0  0  0  0  0  0  0  0  0  0  0
   10.5069    4.7814   14.0302 O   0  5  0  0  0  0  0  0  0  0  0  0
    9.5072    3.3902   12.7716 O   0  0  0  0  0  0  0  0  0  0  0  0
   11.1819    2.4991   14.2231 C   0  0  0  0  0  0  0  0  0  0  0  0
   12.6898    2.8269   14.3007 C   0  0  0  0  0  0  0  0  0  0  0  0
   13.5266    1.7916   13.5722 C   0  0  0  0  0  0  0  0  0  0  0  0
   13.4530    1.9072   12.0640 C   0  0  0  0  0  0  0  0  0  0  0  0
   13.4275    3.3451   11.5291 C   0  0  2  0  0  0  0  0  0  0  0  0
   11.7433    3.9566   10.8543 S   0  0  0  0  0  0  0  0  0  0  0  0
   12.7087    5.4025   10.0654 C   0  0  0  0  0  0  0  0  0  0  0  0
   14.0743    4.7897    9.6380 C   0  0  2  0  0  0  0  0  0  0  0  0
   13.8722    4.2915    8.1820 N   0  0  0  0  0  0  0  0  0  0  0  0
   14.0666    3.0518    8.0460 C   0  0  0  0  0  0  0  0  0  0  0  0
   13.8384    2.2807    7.0475 O   0  0  0  0  0  0  0  0  0  0  0  0
   14.2733    2.3563    9.2954 N   0  0  0  0  0  0  0  0  0  0  0  0
   14.3745    3.4733   10.3338 C   0  0  2  0  0  0  0  0  0  0  0  0
  1  2  1  0  0  0  0
  1  3  2  0  0  0  0
  1  4  1  0  0  0  0
  4  5  1  0  0  0  0
  5  6  1  0  0  0  0
  6  7  1  0  0  0  0
  8  7  1  6  0  0  0
  8  9  1  0  0  0  0
  8 16  1  0  0  0  0
  9 10  1  0  0  0  0
 11 10  1  1  0  0  0
 11 12  1  0  0  0  0
 11 16  1  0  0  0  0
 12 13  1  0  0  0  0
 13 14  2  0  0  0  0
 13 15  1  0  0  0  0
 16 15  1  6  0  0  0
M  CHG  1   2  -1
M  END
>  <CHROM.1>
-45.10056226,-124.67383921,74.42932610,38.80189500,-106.71936076,12.61922798
3.40011027,11.19137281,2.22364279,-0.66673313,2.01618629

>  <Name>
1f27 biotin aptamer (Xray 1.3A)

>  <RI>
0

>  <Rbt.Current_Directory>
/home/itssahil/PROJECTS/Mol_Feturizer/New_Systems/rnas/1f27

>  <Rbt.Executable>
rbdock ($Id: //depot/dev/client3/rdock/2013.1/src/exe/rbdock.cxx#4 $)

>  <Rbt.Library>
libRbt.so (2013.1, Build901 2013/11/27)

>  <Rbt.Parameter_File>
/export/apps/rDock/src/rDock_2013.1_src/data/scripts/dock_solv.prm

>  <Rbt.Receptor>
prm/blind_docking_20.prm

>  <SCORE>
18.2562

>  <SCORE.INTER>
11.729

>  <SCORE.INTER.CONST>
1

>  <SCORE.INTER.POLAR>
-2.13468

>  <SCORE.INTER.ROT>
5

>  <SCORE.INTER.SOLV>
15.4625

>  <SCORE.INTER.VDW>
2.84745

>  <SCORE.INTER.norm>
0.733065

>  <SCORE.INTRA>
5.12133

>  <SCORE.INTRA.DIHEDRAL>
7.53849

>  <SCORE.INTRA.DIHEDRAL.0>
6.87082

>  <SCORE.INTRA.POLAR>
0

>  <SCORE.INTRA.POLAR.0>
0

>  <SCORE.INTRA.REPUL>
0

>  <SCORE.INTRA.REPUL.0>
0

>  <SCORE.INTRA.SOLV>
2.10802

>  <SCORE.INTRA.SOLV.lig_0>
-42.5944

>  <SCORE.INTRA.VDW>
0.298075

>  <SCORE.INTRA.VDW.0>
-1.067

>  <SCORE.INTRA.norm>
0.320083

>  <SCORE.RESTR>
1.40579

>  <SCORE.RESTR.CAVITY>
1.40579

>  <SCORE.RESTR.norm>
0.0878618

>  <SCORE.SYSTEM>
0

>  <SCORE.SYSTEM.CONST>
0

>  <SCORE.SYSTEM.DIHEDRAL>
0

>  <SCORE.SYSTEM.SOLV>
0

>  <SCORE.SYSTEM.norm>
0

>  <SCORE.heavy>
16

>  <SCORE.norm>
1.14101

>  <RMSD>
7.706

$$$$
1f27 biotin aptamer (Xray 1.3A)
 OpenBabel11021811393D
libRbt.so/2013.1/901 2013/11/27
 16 17  0  0  0  0  0  0  0  0999 V2000
    9.9520    4.1292   12.7421 C   0  0  0  0  0  0  0  0  0  0  0  0
   10.0310    4.9836   13.6191 O   0  5  0  0  0  0  0  0  0  0  0  0
    9.1943    3.1715   12.8876 O   0  0  0  0  0  0  0  0  0  0  0  0
   10.7378    4.2882   11.4468 C   0  0  0  0  0  0  0  0  0  0  0  0
   12.2652    4.4022   11.6495 C   0  0  0  0  0  0  0  0  0  0  0  0
   12.8532    3.1207   12.2107 C   0  0  0  0  0  0  0  0  0  0  0  0
   14.3658    3.1319   12.2859 C   0  0  0  0  0  0  0  0  0  0  0  0
   15.0129    1.7492   12.4392 C   0  0  2  0  0  0  0  0  0  0  0  0
   14.8737    0.9482   14.1726 S   0  0  0  0  0  0  0  0  0  0  0  0
   16.2172   -0.2782   13.5930 C   0  0  0  0  0  0  0  0  0  0  0  0
   17.1590    0.5583   12.6786 C   0  0  2  0  0  0  0  0  0  0  0  0
   18.2568    1.1271   13.6170 N   0  0  0  0  0  0  0  0  0  0  0  0
   18.2993    2.3885   13.6299 C   0  0  0  0  0  0  0  0  0  0  0  0
   18.9506    3.1891   14.3906 O   0  0  0  0  0  0  0  0  0  0  0  0
   17.2205    3.0130   12.8993 N   0  0  0  0  0  0  0  0  0  0  0  0
   16.5207    1.8497   12.1972 C   0  0  2  0  0  0  0  0  0  0  0  0
  1  2  1  0  0  0  0
  1  3  2  0  0  0  0
  1  4  1  0  0  0  0
  4  5  1  0  0  0  0
  5  6  1  0  0  0  0
  6  7  1  0  0  0  0
  8  7  1  1  0  0  0
  8  9  1  0  0  0  0
  8 16  1  0  0  0  0
  9 10  1  0  0  0  0
 11 10  1  1  0  0  0
 11 12  1  0  0  0  0
 11 16  1  0  0  0  0
 12 13  1  0  0  0  0
 13 14  2  0  0  0  0
 13 15  1  0  0  0  0
 16 15  1  1  0  0  0
M  CHG  1   2  -1
M  END
>  <CHROM.1>
58.53458795,65.45517465,173.75597019,-162.53004272,-74.80657628,14.49224563
2.51765033,13.02182549,-2.79637504,0.04737330,2.89766437

>  <Name>
1f27 biotin aptamer (Xray 1.3A)

>  <RI>
0

>  <Rbt.Current_Directory>
/home/itssahil/PROJECTS/Mol_Feturizer/New_Systems/rnas/1f27

>  <Rbt.Executable>
rbdock ($Id: //depot/dev/client3/rdock/2013.1/src/exe/rbdock.cxx#4 $)

>  <Rbt.Library>
libRbt.so (2013.1, Build901 2013/11/27)

>  <Rbt.Parameter_File>
/export/apps/rDock/src/rDock_2013.1_src/data/scripts/dock_solv.prm

>  <Rbt.Receptor>
prm/blind_docking_100.prm

>  <SCORE>
-24.9332

>  <SCORE.INTER>
-23.401

>  <SCORE.INTER.CONST>
1

>  <SCORE.INTER.POLAR>
-1.12912

>  <SCORE.INTER.ROT>
5

>  <SCORE.INTER.SOLV>
10.9667

>  <SCORE.INTER.VDW>
-22.4258

>  <SCORE.INTER.norm>
-1.46256

>  <SCORE.INTRA>
-1.53228

>  <SCORE.INTRA.DIHEDRAL>
-3.23855

>  <SCORE.INTRA.DIHEDRAL.0>
6.87082

>  <SCORE.INTRA.POLAR>
0

>  <SCORE.INTRA.POLAR.0>
0

>  <SCORE.INTRA.REPUL>
0

>  <SCORE.INTRA.REPUL.0>
0

>  <SCORE.INTRA.SOLV>
0.0036002

>  <SCORE.INTRA.SOLV.lig_0>
-42.5944

>  <SCORE.INTRA.VDW>
0.0851994

>  <SCORE.INTRA.VDW.0>
-1.067

>  <SCORE.INTRA.norm>
-0.0957673

>  <SCORE.RESTR>
0

>  <SCORE.RESTR.CAVITY>
0

>  <SCORE.RESTR.norm>
0

>  <SCORE.SYSTEM>
0

>  <SCORE.SYSTEM.CONST>
0

>  <SCORE.SYSTEM.DIHEDRAL>
0

>  <SCORE.SYSTEM.SOLV>
0

>  <SCORE.SYSTEM.norm>
0

>  <SCORE.heavy>
16

>  <SCORE.norm>
-1.55833

>  <RMSD>
7.712

$$$$
1f27 biotin aptamer (Xray 1.3A)
 OpenBabel11021811393D
libRbt.so/2013.1/901 2013/11/27
 16 17  0  0  0  0  0  0  0  0999 V2000
    9.4598    3.6858   13.8114 C   0  0  0  0  0  0  0  0  0  0  0  0
    9.0406    4.8261   13.9827 O   0  5  0  0  0  0  0  0  0  0  0  0
    8.8031    2.8860   13.1470 O   0  0  0  0  0  0  0  0  0  0  0  0
   10.8216    3.2813   14.3615 C   0  0  0  0  0  0  0  0  0  0  0  0
   11.9682    3.3760   13.3303 C   0  0  0  0  0  0  0  0  0  0  0  0
   13.3032    2.9894   13.9395 C   0  0  0  0  0  0  0  0  0  0  0  0
   14.4497    3.0168   12.9504 C   0  0  0  0  0  0  0  0  0  0  0  0
   15.1892    1.6826   12.7850 C   0  0  2  0  0  0  0  0  0  0  0  0
   15.3788    0.6291   14.3724 S   0  0  0  0  0  0  0  0  0  0  0  0
   16.6763   -0.3885   13.4102 C   0  0  0  0  0  0  0  0  0  0  0  0
   17.4087    0.6449   12.5052 C   0  0  2  0  0  0  0  0  0  0  0  0
   18.6110    1.1567   13.3428 N   0  0  0  0  0  0  0  0  0  0  0  0
   18.5846    2.4021   13.5464 C   0  0  0  0  0  0  0  0  0  0  0  0
   19.3054    3.1327   14.3148 O   0  0  0  0  0  0  0  0  0  0  0  0
   17.3682    3.0382   13.0955 N   0  0  0  0  0  0  0  0  0  0  0  0
   16.6295    1.9375   12.3348 C   0  0  2  0  0  0  0  0  0  0  0  0
  1  2  1  0  0  0  0
  1  3  2  0  0  0  0
  1  4  1  0  0  0  0
  4  5  1  0  0  0  0
  5  6  1  0  0  0  0
  6  7  1  0  0  0  0
  8  7  1  1  0  0  0
  8  9  1  0  0  0  0
  8 16  1  0  0  0  0
  9 10  1  0  0  0  0
 11 10  1  1  0  0  0
 11 12  1  0  0  0  0
 11 16  1  0  0  0  0
 12 13  1  0  0  0  0
 13 14  2  0  0  0  0
 13 15  1  0  0  0  0
 16 15  1  1  0  0  0
M  CHG  1   2  -1
M  END
>  <CHROM.1>
-96.24679917,178.83034724,177.80773514,-121.49236667,-36.10108844,14.58587726
2.29269836,13.53683741,-2.89379288,-0.02556399,-3.11018993

>  <Name>
1f27 biotin aptamer (Xray 1.3A)

>  <RI>
0

>  <Rbt.Current_Directory>
/home/itssahil/PROJECTS/Mol_Feturizer/New_Systems/rnas/1f27

>  <Rbt.Executable>
rbdock ($Id: //depot/dev/client3/rdock/2013.1/src/exe/rbdock.cxx#4 $)

>  <Rbt.Library>
libRbt.so (2013.1, Build901 2013/11/27)

>  <Rbt.Parameter_File>
/export/apps/rDock/src/rDock_2013.1_src/data/scripts/dock_solv.prm

>  <Rbt.Receptor>
prm/blind_docking_100.prm

>  <SCORE>
-20.3184

>  <SCORE.INTER>
-21.4363

>  <SCORE.INTER.CONST>
1

>  <SCORE.INTER.POLAR>
-1.03311

>  <SCORE.INTER.ROT>
5

>  <SCORE.INTER.SOLV>
10.4188

>  <SCORE.INTER.VDW>
-21.2535

>  <SCORE.INTER.norm>
-1.33977

>  <SCORE.INTRA>
1.11769

>  <SCORE.INTRA.DIHEDRAL>
2.5597

>  <SCORE.INTRA.DIHEDRAL.0>
6.87082

>  <SCORE.INTRA.POLAR>
0

>  <SCORE.INTRA.POLAR.0>
0

>  <SCORE.INTRA.REPUL>
0

>  <SCORE.INTRA.REPUL.0>
0

>  <SCORE.INTRA.SOLV>
-0.778194

>  <SCORE.INTRA.SOLV.lig_0>
-42.5944

>  <SCORE.INTRA.VDW>
0.226934

>  <SCORE.INTRA.VDW.0>
-1.067

>  <SCORE.INTRA.norm>
0.0698555

>  <SCORE.RESTR>
0.00021722

>  <SCORE.RESTR.CAVITY>
0.00021722

>  <SCORE.RESTR.norm>
1.35762e-05

>  <SCORE.SYSTEM>
0

>  <SCORE.SYSTEM.CONST>
0

>  <SCORE.SYSTEM.DIHEDRAL>
0

>  <SCORE.SYSTEM.SOLV>
0

>  <SCORE.SYSTEM.norm>
0

>  <SCORE.heavy>
16

>  <SCORE.norm>
-1.2699

>  <RMSD>
7.723

$$$$
1f27 biotin aptamer (Xray 1.3A)
 OpenBabel11021811393D
libRbt.so/2013.1/901 2013/11/27
 16 17  0  0  0  0  0  0  0  0999 V2000
    9.8536    3.9110   12.9849 C   0  0  0  0  0  0  0  0  0  0  0  0
    8.9535    3.1129   12.7436 O   0  5  0  0  0  0  0  0  0  0  0  0
    9.6432    5.1187   12.8859 O   0  0  0  0  0  0  0  0  0  0  0  0
   11.2079    3.4117   13.4717 C   0  0  0  0  0  0  0  0  0  0  0  0
   11.1551    2.6800   14.8315 C   0  0  0  0  0  0  0  0  0  0  0  0
   12.1661    1.5503   14.8996 C   0  0  0  0  0  0  0  0  0  0  0  0
   13.5952    2.0267   15.0554 C   0  0  0  0  0  0  0  0  0  0  0  0
   14.1568    2.7843   13.8451 C   0  0  2  0  0  0  0  0  0  0  0  0
   14.0037    1.8944   12.1568 S   0  0  0  0  0  0  0  0  0  0  0  0
   15.2546    3.1746   11.4925 C   0  0  0  0  0  0  0  0  0  0  0  0
   16.2280    3.4397   12.6780 C   0  0  2  0  0  0  0  0  0  0  0  0
   17.3789    2.4115   12.5125 N   0  0  0  0  0  0  0  0  0  0  0  0
   17.5012    1.6345   13.4997 C   0  0  0  0  0  0  0  0  0  0  0  0
   18.2176    0.5809   13.6426 O   0  0  0  0  0  0  0  0  0  0  0  0
   16.4489    1.7719   14.4802 N   0  0  0  0  0  0  0  0  0  0  0  0
   15.6625    2.9977   14.0166 C   0  0  2  0  0  0  0  0  0  0  0  0
  1  2  1  0  0  0  0
  1  3  2  0  0  0  0
  1  4  1  0  0  0  0
  4  5  1  0  0  0  0
  5  6  1  0  0  0  0
  6  7  1  0  0  0  0
  8  7  1  1  0  0  0
  8  9  1  0  0  0  0
  8 16  1  0  0  0  0
  9 10  1  0  0  0  0
 11 10  1  6  0  0  0
 11 12  1  0  0  0  0
 11 16  1  0  0  0  0
 12 13  1  0  0  0  0
 13 14  2  0  0  0  0
 13 15  1  0  0  0  0
 16 15  1  6  0  0  0
M  CHG  1   2  -1
M  END
>  <CHROM.1>
-62.58332905,145.59517381,73.77448066,-66.89408363,-52.62933907,13.82416306
2.59225198,13.34796028,-3.02288693,-0.21578902,2.09662869

>  <Name>
1f27 biotin aptamer (Xray 1.3A)

>  <RI>
224

>  <Rbt.Current_Directory>
/home/itssahil/PROJECTS/Mol_Feturizer/New_Systems/rnas/1f27

>  <Rbt.Executable>
rbdock ($Id: //depot/dev/client3/rdock/2013.1/src/exe/rbdock.cxx#4 $)

>  <Rbt.Library>
libRbt.so (2013.1, Build901 2013/11/27)

>  <Rbt.Parameter_File>
/export/apps/rDock/src/rDock_2013.1_src/data/scripts/dock_solv.prm

>  <Rbt.Receptor>
prm/blind_docking_80.prm

>  <SCORE>
-20.223

>  <SCORE.INTER>
-20.1216

>  <SCORE.INTER.CONST>
1

>  <SCORE.INTER.POLAR>
-0.866804

>  <SCORE.INTER.ROT>
5

>  <SCORE.INTER.SOLV>
10.668

>  <SCORE.INTER.VDW>
-21.0144

>  <SCORE.INTER.norm>
-1.2576

>  <SCORE.INTRA>
-0.101425

>  <SCORE.INTRA.DIHEDRAL>
-1.04509

>  <SCORE.INTRA.DIHEDRAL.0>
6.87082

>  <SCORE.INTRA.POLAR>
0

>  <SCORE.INTRA.POLAR.0>
0

>  <SCORE.INTRA.REPUL>
0

>  <SCORE.INTRA.REPUL.0>
0

>  <SCORE.INTRA.SOLV>
-0.590445

>  <SCORE.INTRA.SOLV.lig_0>
-42.5944

>  <SCORE.INTRA.VDW>
0.716342

>  <SCORE.INTRA.VDW.0>
-1.067

>  <SCORE.INTRA.norm>
-0.00633904

>  <SCORE.RESTR>
0

>  <SCORE.RESTR.CAVITY>
0

>  <SCORE.RESTR.norm>
0

>  <SCORE.SYSTEM>
0

>  <SCORE.SYSTEM.CONST>
0

>  <SCORE.SYSTEM.DIHEDRAL>
0

>  <SCORE.SYSTEM.SOLV>
0

>  <SCORE.SYSTEM.norm>
0

>  <SCORE.heavy>
16

>  <SCORE.norm>
-1.26394

>  <RMSD>
7.730

$$$$
1f27 biotin aptamer (Xray 1.3A)
 OpenBabel11021811393D
libRbt.so/2013.1/901 2013/11/27
 16 17  0  0  0  0  0  0  0  0999 V2000
   10.3940    4.5123   11.9259 C   0  0  0  0  0  0  0  0  0  0  0  0
    9.4508    3.7336   11.8304 O   0  5  0  0  0  0  0  0  0  0  0  0
   10.2077    5.7194   11.7823 O   0  0  0  0  0  0  0  0  0  0  0  0
   11.7797    3.9939   12.2891 C   0  0  0  0  0  0  0  0  0  0  0  0
   12.6956    3.7443   11.0702 C   0  0  0  0  0  0  0  0  0  0  0  0
   14.1631    3.7820   11.4547 C   0  0  0  0  0  0  0  0  0  0  0  0
   14.5502    2.7239   12.4667 C   0  0  0  0  0  0  0  0  0  0  0  0
   15.9427    2.9036   13.0854 C   0  0  2  0  0  0  0  0  0  0  0  0
   17.4170    2.8145   11.8671 S   0  0  0  0  0  0  0  0  0  0  0  0
   18.5349    2.6382   13.4047 C   0  0  0  0  0  0  0  0  0  0  0  0
   17.7007    1.7982   14.4154 C   0  0  2  0  0  0  0  0  0  0  0  0
   18.0668    0.3169   14.1311 N   0  0  0  0  0  0  0  0  0  0  0  0
   17.0746   -0.3884   13.7978 C   0  0  0  0  0  0  0  0  0  0  0  0
   17.0232   -1.5856   13.3418 O   0  0  0  0  0  0  0  0  0  0  0  0
   15.8618    0.3719   13.6014 N   0  0  0  0  0  0  0  0  0  0  0  0
   16.2184    1.7775   14.0843 C   0  0  2  0  0  0  0  0  0  0  0  0
  1  2  1  0  0  0  0
  1  3  2  0  0  0  0
  1  4  1  0  0  0  0
  4  5  1  0  0  0  0
  5  6  1  0  0  0  0
  6  7  1  0  0  0  0
  8  7  1  6  0  0  0
  8  9  1  0  0  0  0
  8 16  1  0  0  0  0
  9 10  1  0  0  0  0
 11 10  1  6  0  0  0
 11 12  1  0  0  0  0
 11 16  1  0  0  0  0
 12 13  1  0  0  0  0
 13 14  2  0  0  0  0
 13 15  1  0  0  0  0
 16 15  1  6  0  0  0
M  CHG  1   2  -1
M  END
>  <CHROM.1>
96.39072047,156.97821117,61.22359339,-168.40037524,-62.33865163,14.96075533
2.45119550,12.69784886,2.60604176,-0.05106113,-0.36309587

>  <Name>
1f27 biotin aptamer (Xray 1.3A)

>  <RI>
0

>  <Rbt.Current_Directory>
/home/itssahil/PROJECTS/Mol_Feturizer/New_Systems/rnas/1f27

>  <Rbt.Executable>
rbdock ($Id: //depot/dev/client3/rdock/2013.1/src/exe/rbdock.cxx#4 $)

>  <Rbt.Library>
libRbt.so (2013.1, Build901 2013/11/27)

>  <Rbt.Parameter_File>
/export/apps/rDock/src/rDock_2013.1_src/data/scripts/dock_solv.prm

>  <Rbt.Receptor>
prm/blind_docking_100.prm

>  <SCORE>
-24.1686

>  <SCORE.INTER>
-22.9062

>  <SCORE.INTER.CONST>
1

>  <SCORE.INTER.POLAR>
-0.621021

>  <SCORE.INTER.ROT>
5

>  <SCORE.INTER.SOLV>
13.8441

>  <SCORE.INTER.VDW>
-24.7487

>  <SCORE.INTER.norm>
-1.43164

>  <SCORE.INTRA>
-1.2624

>  <SCORE.INTRA.DIHEDRAL>
-3.10391

>  <SCORE.INTRA.DIHEDRAL.0>
6.87082

>  <SCORE.INTRA.POLAR>
0

>  <SCORE.INTRA.POLAR.0>
0

>  <SCORE.INTRA.REPUL>
0

>  <SCORE.INTRA.REPUL.0>
0

>  <SCORE.INTRA.SOLV>
-0.830006

>  <SCORE.INTRA.SOLV.lig_0>
-42.5944

>  <SCORE.INTRA.VDW>
0.704562

>  <SCORE.INTRA.VDW.0>
-1.067

>  <SCORE.INTRA.norm>
-0.0788998

>  <SCORE.RESTR>
0

>  <SCORE.RESTR.CAVITY>
0

>  <SCORE.RESTR.norm>
0

>  <SCORE.SYSTEM>
0

>  <SCORE.SYSTEM.CONST>
0

>  <SCORE.SYSTEM.DIHEDRAL>
0

>  <SCORE.SYSTEM.SOLV>
0

>  <SCORE.SYSTEM.norm>
0

>  <SCORE.heavy>
16

>  <SCORE.norm>
-1.51054

>  <RMSD>
7.740

$$$$
1f27 biotin aptamer (Xray 1.3A)
 OpenBabel11021811393D
libRbt.so/2013.1/901 2013/11/27
 16 17  0  0  0  0  0  0  0  0999 V2000
   14.2718    3.3092    5.5872 C   0  0  0  0  0  0  0  0  0  0  0  0
   13.0526    3.4359    5.6402 O   0  5  0  0  0  0  0  0  0  0  0  0
   14.8667    3.5482    4.5377 O   0  0  0  0  0  0  0  0  0  0  0  0
   15.0553    2.9234    6.8354 C   0  0  0  0  0  0  0  0  0  0  0  0
   14.2791    3.1361    8.1542 C   0  0  0  0  0  0  0  0  0  0  0  0
   14.0657    4.6097    8.4475 C   0  0  0  0  0  0  0  0  0  0  0  0
   13.2235    4.8649    9.6801 C   0  0  0  0  0  0  0  0  0  0  0  0
   13.6041    4.0233   10.9052 C   0  0  2  0  0  0  0  0  0  0  0  0
   13.3228    2.1363   10.7436 S   0  0  0  0  0  0  0  0  0  0  0  0
   13.5448    2.0520   12.6380 C   0  0  0  0  0  0  0  0  0  0  0  0
   12.9070    3.3655   13.1774 C   0  0  2  0  0  0  0  0  0  0  0  0
   11.4195    3.0234   13.4596 N   0  0  0  0  0  0  0  0  0  0  0  0
   10.6097    3.7278   12.7954 C   0  0  0  0  0  0  0  0  0  0  0  0
    9.3405    3.6185   12.6502 O   0  0  0  0  0  0  0  0  0  0  0  0
   11.2469    4.5736   11.8126 N   0  0  0  0  0  0  0  0  0  0  0  0
   12.7402    4.4258   12.1026 C   0  0  2  0  0  0  0  0  0  0  0  0
  1  2  1  0  0  0  0
  1  3  2  0  0  0  0
  1  4  1  0  0  0  0
  4  5  1  0  0  0  0
  5  6  1  0  0  0  0
  6  7  1  0  0  0  0
  8  7  1  6  0  0  0
  8  9  1  0  0  0  0
  8 16  1  0  0  0  0
  9 10  1  0  0  0  0
 11 10  1  6  0  0  0
 11 12  1  0  0  0  0
 11 16  1  0  0  0  0
 12 13  1  0  0  0  0
 13 14  2  0  0  0  0
 13 15  1  0  0  0  0
 16 15  1  6  0  0  0
M  CHG  1   2  -1
M  END
>  <CHROM.1>
-17.42354154,-68.59483778,175.89813297,45.75806075,-65.67568799,12.97526538
3.44015244,9.95809943,1.12126254,0.48107908,-1.34766194

>  <Name>
1f27 biotin aptamer (Xray 1.3A)

>  <RI>
0

>  <Rbt.Current_Directory>
/home/itssahil/PROJECTS/Mol_Feturizer/New_Systems/rnas/1f27

>  <Rbt.Executable>
rbdock ($Id: //depot/dev/client3/rdock/2013.1/src/exe/rbdock.cxx#4 $)

>  <Rbt.Library>
libRbt.so (2013.1, Build901 2013/11/27)

>  <Rbt.Parameter_File>
/export/apps/rDock/src/rDock_2013.1_src/data/scripts/dock_solv.prm

>  <Rbt.Receptor>
prm/blind_docking_20.prm

>  <SCORE>
-2.12984

>  <SCORE.INTER>
-3.48649

>  <SCORE.INTER.CONST>
1

>  <SCORE.INTER.POLAR>
-0.342635

>  <SCORE.INTER.ROT>
5

>  <SCORE.INTER.SOLV>
23.863

>  <SCORE.INTER.VDW>
-16.0699

>  <SCORE.INTER.norm>
-0.217905

>  <SCORE.INTRA>
0.720465

>  <SCORE.INTRA.DIHEDRAL>
-4.1455

>  <SCORE.INTRA.DIHEDRAL.0>
6.87082

>  <SCORE.INTRA.POLAR>
0

>  <SCORE.INTRA.POLAR.0>
0

>  <SCORE.INTRA.REPUL>
0

>  <SCORE.INTRA.REPUL.0>
0

>  <SCORE.INTRA.SOLV>
0.392935

>  <SCORE.INTRA.SOLV.lig_0>
-42.5944

>  <SCORE.INTRA.VDW>
2.59675

>  <SCORE.INTRA.VDW.0>
-1.067

>  <SCORE.INTRA.norm>
0.0450291

>  <SCORE.RESTR>
0.636178

>  <SCORE.RESTR.CAVITY>
0.636178

>  <SCORE.RESTR.norm>
0.0397611

>  <SCORE.SYSTEM>
0

>  <SCORE.SYSTEM.CONST>
0

>  <SCORE.SYSTEM.DIHEDRAL>
0

>  <SCORE.SYSTEM.SOLV>
0

>  <SCORE.SYSTEM.norm>
0

>  <SCORE.heavy>
16

>  <SCORE.norm>
-0.133115

>  <RMSD>
7.743

$$$$
1f27 biotin aptamer (Xray 1.3A)
 OpenBabel11021811393D
libRbt.so/2013.1/901 2013/11/27
 16 17  0  0  0  0  0  0  0  0999 V2000
    9.8731    3.8110   12.3613 C   0  0  0  0  0  0  0  0  0  0  0  0
   10.0560    3.3608   13.4879 O   0  5  0  0  0  0  0  0  0  0  0  0
    8.8145    4.3767   12.0930 O   0  0  0  0  0  0  0  0  0  0  0  0
   10.9794    3.7310   11.3172 C   0  0  0  0  0  0  0  0  0  0  0  0
   12.2183    4.5925   11.6484 C   0  0  0  0  0  0  0  0  0  0  0  0
   13.2336    4.5711   10.5207 C   0  0  0  0  0  0  0  0  0  0  0  0
   14.2341    3.4393   10.6295 C   0  0  0  0  0  0  0  0  0  0  0  0
   15.2209    3.5626   11.7979 C   0  0  2  0  0  0  0  0  0  0  0  0
   16.7600    2.4267   11.7162 S   0  0  0  0  0  0  0  0  0  0  0  0
   17.0376    2.8548   13.5559 C   0  0  0  0  0  0  0  0  0  0  0  0
   15.6087    2.9760   14.1616 C   0  0  2  0  0  0  0  0  0  0  0  0
   15.2491    1.5554   14.6732 N   0  0  0  0  0  0  0  0  0  0  0  0
   14.2184    1.0732   14.1270 C   0  0  0  0  0  0  0  0  0  0  0  0
   13.7286   -0.1105   14.1786 O   0  0  0  0  0  0  0  0  0  0  0  0
   13.7052    1.8790   13.0430 N   0  0  0  0  0  0  0  0  0  0  0  0
   14.5334    3.1620   13.1051 C   0  0  2  0  0  0  0  0  0  0  0  0
  1  2  1  0  0  0  0
  1  3  2  0  0  0  0
  1  4  1  0  0  0  0
  4  5  1  0  0  0  0
  5  6  1  0  0  0  0
  6  7  1  0  0  0  0
  8  7  1  6  0  0  0
  8  9  1  0  0  0  0
  8 16  1  0  0  0  0
  9 10  1  0  0  0  0
 11 10  1  6  0  0  0
 11 12  1  0  0  0  0
 11 16  1  0  0  0  0
 12 13  1  0  0  0  0
 13 14  2  0  0  0  0
 13 15  1  0  0  0  0
 16 15  1  6  0  0  0
M  CHG  1   2  -1
M  END
>  <CHROM.1>
-66.46627855,-174.99487881,-88.72268498,-68.56313741,-164.81825235,13.65820314
2.89643892,12.59225208,2.83678311,0.12841820,-0.86375771

>  <Name>
1f27 biotin aptamer (Xray 1.3A)

>  <RI>
0

>  <Rbt.Current_Directory>
/home/itssahil/PROJECTS/Mol_Feturizer/New_Systems/rnas/1f27

>  <Rbt.Executable>
rbdock ($Id: //depot/dev/client3/rdock/2013.1/src/exe/rbdock.cxx#4 $)

>  <Rbt.Library>
libRbt.so (2013.1, Build901 2013/11/27)

>  <Rbt.Parameter_File>
/export/apps/rDock/src/rDock_2013.1_src/data/scripts/dock_solv.prm

>  <Rbt.Receptor>
prm/blind_docking_40.prm

>  <SCORE>
-22.1902

>  <SCORE.INTER>
-21.6274

>  <SCORE.INTER.CONST>
1

>  <SCORE.INTER.POLAR>
-1.27288

>  <SCORE.INTER.ROT>
5

>  <SCORE.INTER.SOLV>
12.7007

>  <SCORE.INTER.VDW>
-21.3422

>  <SCORE.INTER.norm>
-1.35171

>  <SCORE.INTRA>
-0.562811

>  <SCORE.INTRA.DIHEDRAL>
-1.40645

>  <SCORE.INTRA.DIHEDRAL.0>
6.87082

>  <SCORE.INTRA.POLAR>
0

>  <SCORE.INTRA.POLAR.0>
0

>  <SCORE.INTRA.REPUL>
0

>  <SCORE.INTRA.REPUL.0>
0

>  <SCORE.INTRA.SOLV>
0.215808

>  <SCORE.INTRA.SOLV.lig_0>
-42.5944

>  <SCORE.INTRA.VDW>
0.0325078

>  <SCORE.INTRA.VDW.0>
-1.067

>  <SCORE.INTRA.norm>
-0.0351757

>  <SCORE.RESTR>
0

>  <SCORE.RESTR.CAVITY>
0

>  <SCORE.RESTR.norm>
0

>  <SCORE.SYSTEM>
0

>  <SCORE.SYSTEM.CONST>
0

>  <SCORE.SYSTEM.DIHEDRAL>
0

>  <SCORE.SYSTEM.SOLV>
0

>  <SCORE.SYSTEM.norm>
0

>  <SCORE.heavy>
16

>  <SCORE.norm>
-1.38689

>  <RMSD>
7.751

$$$$
1f27 biotin aptamer (Xray 1.3A)
 OpenBabel11021811393D
libRbt.so/2013.1/901 2013/11/27
 16 17  0  0  0  0  0  0  0  0999 V2000
   10.1063    4.8232   12.0471 C   0  0  0  0  0  0  0  0  0  0  0  0
    9.4218    4.1907   12.8451 O   0  5  0  0  0  0  0  0  0  0  0  0
   10.0561    6.0520   12.0374 O   0  0  0  0  0  0  0  0  0  0  0  0
   11.0670    4.0933   11.1171 C   0  0  0  0  0  0  0  0  0  0  0  0
   12.5213    4.0371   11.6358 C   0  0  0  0  0  0  0  0  0  0  0  0
   13.4657    3.4645   10.5951 C   0  0  0  0  0  0  0  0  0  0  0  0
   14.8258    3.0965   11.1503 C   0  0  0  0  0  0  0  0  0  0  0  0
   14.8012    2.0526   12.2746 C   0  0  2  0  0  0  0  0  0  0  0  0
   14.3585    2.7105   14.0172 S   0  0  0  0  0  0  0  0  0  0  0  0
   15.0131    1.0484   14.6909 C   0  0  0  0  0  0  0  0  0  0  0  0
   16.2084    0.6805   13.7640 C   0  0  2  0  0  0  0  0  0  0  0  0
   17.4631    1.3048   14.4314 N   0  0  0  0  0  0  0  0  0  0  0  0
   18.0567    2.1414   13.6960 C   0  0  0  0  0  0  0  0  0  0  0  0
   19.0091    2.9558   13.9670 O   0  0  0  0  0  0  0  0  0  0  0  0
   17.3485    2.4451   12.4738 N   0  0  0  0  0  0  0  0  0  0  0  0
   16.1941    1.4437   12.4508 C   0  0  2  0  0  0  0  0  0  0  0  0
  1  2  1  0  0  0  0
  1  3  2  0  0  0  0
  1  4  1  0  0  0  0
  4  5  1  0  0  0  0
  5  6  1  0  0  0  0
  6  7  1  0  0  0  0
  8  7  1  6  0  0  0
  8  9  1  0  0  0  0
  8 16  1  0  0  0  0
  9 10  1  0  0  0  0
 11 10  1  1  0  0  0
 11 12  1  0  0  0  0
 11 16  1  0  0  0  0
 12 13  1  0  0  0  0
 13 14  2  0  0  0  0
 13 15  1  0  0  0  0
 16 15  1  1  0  0  0
M  CHG  1   2  -1
M  END
>  <CHROM.1>
-96.11625066,-172.50376850,-166.88403004,59.43990550,-80.08258468,14.34638652
2.93320756,12.80635804,2.75243640,0.23742150,-1.08183769

>  <Name>
1f27 biotin aptamer (Xray 1.3A)

>  <RI>
224

>  <Rbt.Current_Directory>
/home/itssahil/PROJECTS/Mol_Feturizer/New_Systems/rnas/1f27

>  <Rbt.Executable>
rbdock ($Id: //depot/dev/client3/rdock/2013.1/src/exe/rbdock.cxx#4 $)

>  <Rbt.Library>
libRbt.so (2013.1, Build901 2013/11/27)

>  <Rbt.Parameter_File>
/export/apps/rDock/src/rDock_2013.1_src/data/scripts/dock_solv.prm

>  <Rbt.Receptor>
prm/blind_docking_80.prm

>  <SCORE>
-28.3837

>  <SCORE.INTER>
-26.5486

>  <SCORE.INTER.CONST>
1

>  <SCORE.INTER.POLAR>
-1.66585

>  <SCORE.INTER.ROT>
5

>  <SCORE.INTER.SOLV>
12.9152

>  <SCORE.INTER.VDW>
-23.3847

>  <SCORE.INTER.norm>
-1.65929

>  <SCORE.INTRA>
-1.83501

>  <SCORE.INTRA.DIHEDRAL>
-3.25173

>  <SCORE.INTRA.DIHEDRAL.0>
6.87082

>  <SCORE.INTRA.POLAR>
0

>  <SCORE.INTRA.POLAR.0>
0

>  <SCORE.INTRA.REPUL>
0

>  <SCORE.INTRA.REPUL.0>
0

>  <SCORE.INTRA.SOLV>
-0.775571

>  <SCORE.INTRA.SOLV.lig_0>
-42.5944

>  <SCORE.INTRA.VDW>
0.178645

>  <SCORE.INTRA.VDW.0>
-1.067

>  <SCORE.INTRA.norm>
-0.114688

>  <SCORE.RESTR>
0

>  <SCORE.RESTR.CAVITY>
0

>  <SCORE.RESTR.norm>
0

>  <SCORE.SYSTEM>
0

>  <SCORE.SYSTEM.CONST>
0

>  <SCORE.SYSTEM.DIHEDRAL>
0

>  <SCORE.SYSTEM.SOLV>
0

>  <SCORE.SYSTEM.norm>
0

>  <SCORE.heavy>
16

>  <SCORE.norm>
-1.77398

>  <RMSD>
7.765

$$$$
1f27 biotin aptamer (Xray 1.3A)
 OpenBabel11021811393D
libRbt.so/2013.1/901 2013/11/27
 16 17  0  0  0  0  0  0  0  0999 V2000
   14.1823    3.0756    5.8446 C   0  0  0  0  0  0  0  0  0  0  0  0
   13.2069    2.3319    5.8727 O   0  5  0  0  0  0  0  0  0  0  0  0
   14.5252    3.5950    4.7838 O   0  0  0  0  0  0  0  0  0  0  0  0
   14.9261    3.4099    7.1312 C   0  0  0  0  0  0  0  0  0  0  0  0
   14.1609    4.3725    8.0665 C   0  0  0  0  0  0  0  0  0  0  0  0
   13.9971    3.7899    9.4581 C   0  0  0  0  0  0  0  0  0  0  0  0
   13.1543    4.6487   10.3777 C   0  0  0  0  0  0  0  0  0  0  0  0
   13.0768    4.1546   11.8282 C   0  0  2  0  0  0  0  0  0  0  0  0
   13.2821    2.2679   12.0812 S   0  0  0  0  0  0  0  0  0  0  0  0
   12.6063    2.5419   13.8456 C   0  0  0  0  0  0  0  0  0  0  0  0
   11.5455    3.6718   13.6999 C   0  0  2  0  0  0  0  0  0  0  0  0
   10.1989    2.9492   13.4285 N   0  0  0  0  0  0  0  0  0  0  0  0
    9.6715    3.2710   12.3278 C   0  0  0  0  0  0  0  0  0  0  0  0
    8.6666    2.7680   11.7106 O   0  0  0  0  0  0  0  0  0  0  0  0
   10.5126    4.1090   11.5044 N   0  0  0  0  0  0  0  0  0  0  0  0
   11.6939    4.4584   12.4090 C   0  0  2  0  0  0  0  0  0  0  0  0
  1  2  1  0  0  0  0
  1  3  2  0  0  0  0
  1  4  1  0  0  0  0
  4  5  1  0  0  0  0
  5  6  1  0  0  0  0
  6  7  1  0  0  0  0
  8  7  1  6  0  0  0
  8  9  1  0  0  0  0
  8 16  1  0  0  0  0
  9 10  1  0  0  0  0
 11 10  1  6  0  0  0
 11 12  1  0  0  0  0
 11 16  1  0  0  0  0
 12 13  1  0  0  0  0
 13 14  2  0  0  0  0
 13 15  1  0  0  0  0
 16 15  1  6  0  0  0
M  CHG  1   2  -1
M  END
>  <CHROM.1>
-72.79793308,125.04276870,-175.25412402,-174.57994515,-27.91928685,12.50918248
3.35678110,10.34544104,1.11576524,-0.04892414,-1.57125626

>  <Name>
1f27 biotin aptamer (Xray 1.3A)

>  <RI>
0

>  <Rbt.Current_Directory>
/home/itssahil/PROJECTS/Mol_Feturizer/New_Systems/rnas/1f27

>  <Rbt.Executable>
rbdock ($Id: //depot/dev/client3/rdock/2013.1/src/exe/rbdock.cxx#4 $)

>  <Rbt.Library>
libRbt.so (2013.1, Build901 2013/11/27)

>  <Rbt.Parameter_File>
/export/apps/rDock/src/rDock_2013.1_src/data/scripts/dock_solv.prm

>  <Rbt.Receptor>
prm/blind_docking_20.prm

>  <SCORE>
-4.30708

>  <SCORE.INTER>
-7.22653

>  <SCORE.INTER.CONST>
1

>  <SCORE.INTER.POLAR>
-0.376126

>  <SCORE.INTER.ROT>
5

>  <SCORE.INTER.SOLV>
24.6002

>  <SCORE.INTER.VDW>
-18.6973

>  <SCORE.INTER.norm>
-0.451658

>  <SCORE.INTRA>
1.66787

>  <SCORE.INTRA.DIHEDRAL>
3.18104

>  <SCORE.INTRA.DIHEDRAL.0>
6.87082

>  <SCORE.INTRA.POLAR>
0

>  <SCORE.INTRA.POLAR.0>
0

>  <SCORE.INTRA.REPUL>
0

>  <SCORE.INTRA.REPUL.0>
0

>  <SCORE.INTRA.SOLV>
-0.500975

>  <SCORE.INTRA.SOLV.lig_0>
-42.5944

>  <SCORE.INTRA.VDW>
0.327835

>  <SCORE.INTRA.VDW.0>
-1.067

>  <SCORE.INTRA.norm>
0.104242

>  <SCORE.RESTR>
1.25158

>  <SCORE.RESTR.CAVITY>
1.25158

>  <SCORE.RESTR.norm>
0.0782237

>  <SCORE.SYSTEM>
0

>  <SCORE.SYSTEM.CONST>
0

>  <SCORE.SYSTEM.DIHEDRAL>
0

>  <SCORE.SYSTEM.SOLV>
0

>  <SCORE.SYSTEM.norm>
0

>  <SCORE.heavy>
16

>  <SCORE.norm>
-0.269192

>  <RMSD>
7.803

$$$$
1f27 biotin aptamer (Xray 1.3A)
 OpenBabel11021811393D
libRbt.so/2013.1/901 2013/11/27
 16 17  0  0  0  0  0  0  0  0999 V2000
    9.7312    3.6179   12.6331 C   0  0  0  0  0  0  0  0  0  0  0  0
    8.7578    2.9860   12.2350 O   0  5  0  0  0  0  0  0  0  0  0  0
   10.4013    4.2744   11.8379 O   0  0  0  0  0  0  0  0  0  0  0  0
   10.0697    3.6453   14.1181 C   0  0  0  0  0  0  0  0  0  0  0  0
   11.2738    2.7574   14.5038 C   0  0  0  0  0  0  0  0  0  0  0  0
   12.5384    3.1833   13.7813 C   0  0  0  0  0  0  0  0  0  0  0  0
   13.7862    2.4898   14.2869 C   0  0  0  0  0  0  0  0  0  0  0  0
   15.0942    2.9675   13.6423 C   0  0  2  0  0  0  0  0  0  0  0  0
   15.2408    2.7013   11.7520 S   0  0  0  0  0  0  0  0  0  0  0  0
   17.1052    3.0578   11.9572 C   0  0  0  0  0  0  0  0  0  0  0  0
   17.4839    2.4418   13.3357 C   0  0  2  0  0  0  0  0  0  0  0  0
   17.9209    0.9828   13.0363 N   0  0  0  0  0  0  0  0  0  0  0  0
   17.2177    0.1184   13.6292 C   0  0  0  0  0  0  0  0  0  0  0  0
   17.1823   -1.1562   13.4955 O   0  0  0  0  0  0  0  0  0  0  0  0
   16.0748    0.6730   14.3176 N   0  0  0  0  0  0  0  0  0  0  0  0
   16.2758    2.1850   14.2197 C   0  0  2  0  0  0  0  0  0  0  0  0
  1  2  1  0  0  0  0
  1  3  2  0  0  0  0
  1  4  1  0  0  0  0
  4  5  1  0  0  0  0
  5  6  1  0  0  0  0
  6  7  1  0  0  0  0
  8  7  1  1  0  0  0
  8  9  1  0  0  0  0
  8 16  1  0  0  0  0
  9 10  1  0  0  0  0
 11 10  1  6  0  0  0
 11 12  1  0  0  0  0
 11 16  1  0  0  0  0
 12 13  1  0  0  0  0
 13 14  2  0  0  0  0
 13 15  1  0  0  0  0
 16 15  1  6  0  0  0
M  CHG  1   2  -1
M  END
>  <CHROM.1>
104.62439541,60.05114038,170.85079313,-176.05610999,-61.78000208,14.17528063
2.31957564,13.16489920,-2.87381364,-0.20054447,2.38855553

>  <Name>
1f27 biotin aptamer (Xray 1.3A)

>  <RI>
224

>  <Rbt.Current_Directory>
/home/itssahil/PROJECTS/Mol_Feturizer/New_Systems/rnas/1f27

>  <Rbt.Executable>
rbdock ($Id: //depot/dev/client3/rdock/2013.1/src/exe/rbdock.cxx#4 $)

>  <Rbt.Library>
libRbt.so (2013.1, Build901 2013/11/27)

>  <Rbt.Parameter_File>
/export/apps/rDock/src/rDock_2013.1_src/data/scripts/dock_solv.prm

>  <Rbt.Receptor>
prm/blind_docking_80.prm

>  <SCORE>
-24.7485

>  <SCORE.INTER>
-22.6156

>  <SCORE.INTER.CONST>
1

>  <SCORE.INTER.POLAR>
-0.848528

>  <SCORE.INTER.ROT>
5

>  <SCORE.INTER.SOLV>
12.9213

>  <SCORE.INTER.VDW>
-23.4891

>  <SCORE.INTER.norm>
-1.41348

>  <SCORE.INTRA>
-2.19211

>  <SCORE.INTRA.DIHEDRAL>
-5.00338

>  <SCORE.INTRA.DIHEDRAL.0>
6.87082

>  <SCORE.INTRA.POLAR>
0

>  <SCORE.INTRA.POLAR.0>
0

>  <SCORE.INTRA.REPUL>
0

>  <SCORE.INTRA.REPUL.0>
0

>  <SCORE.INTRA.SOLV>
0.219533

>  <SCORE.INTRA.SOLV.lig_0>
-42.5944

>  <SCORE.INTRA.VDW>
0.199813

>  <SCORE.INTRA.VDW.0>
-1.067

>  <SCORE.INTRA.norm>
-0.137007

>  <SCORE.RESTR>
0.0591837

>  <SCORE.RESTR.CAVITY>
0.0591837

>  <SCORE.RESTR.norm>
0.00369898

>  <SCORE.SYSTEM>
0

>  <SCORE.SYSTEM.CONST>
0

>  <SCORE.SYSTEM.DIHEDRAL>
0

>  <SCORE.SYSTEM.SOLV>
0

>  <SCORE.SYSTEM.norm>
0

>  <SCORE.heavy>
16

>  <SCORE.norm>
-1.54678

>  <RMSD>
7.811

$$$$
1f27 biotin aptamer (Xray 1.3A)
 OpenBabel11021811393D
libRbt.so/2013.1/901 2013/11/27
 16 17  0  0  0  0  0  0  0  0999 V2000
   14.1849    3.0865    5.8496 C   0  0  0  0  0  0  0  0  0  0  0  0
   13.1985    2.3581    5.8938 O   0  5  0  0  0  0  0  0  0  0  0  0
   14.5340    3.5791    4.7782 O   0  0  0  0  0  0  0  0  0  0  0  0
   14.9355    3.4356    7.1284 C   0  0  0  0  0  0  0  0  0  0  0  0
   14.1693    4.3984    8.0627 C   0  0  0  0  0  0  0  0  0  0  0  0
   13.9943    3.8112    9.4511 C   0  0  0  0  0  0  0  0  0  0  0  0
   13.1189    4.6519   10.3570 C   0  0  0  0  0  0  0  0  0  0  0  0
   13.0506    4.1717   11.8126 C   0  0  2  0  0  0  0  0  0  0  0  0
   13.2826    2.2907   12.0845 S   0  0  0  0  0  0  0  0  0  0  0  0
   12.6056    2.5733   13.8471 C   0  0  0  0  0  0  0  0  0  0  0  0
   11.5289    3.6867   13.6916 C   0  0  2  0  0  0  0  0  0  0  0  0
   10.1922    2.9426   13.4299 N   0  0  0  0  0  0  0  0  0  0  0  0
    9.6587    3.2458   12.3269 C   0  0  0  0  0  0  0  0  0  0  0  0
    8.6600    2.7225   11.7165 O   0  0  0  0  0  0  0  0  0  0  0  0
   10.4867    4.0869   11.4935 N   0  0  0  0  0  0  0  0  0  0  0  0
   11.6644    4.4620   12.3926 C   0  0  2  0  0  0  0  0  0  0  0  0
  1  2  1  0  0  0  0
  1  3  2  0  0  0  0
  1  4  1  0  0  0  0
  4  5  1  0  0  0  0
  5  6  1  0  0  0  0
  6  7  1  0  0  0  0
  8  7  1  6  0  0  0
  8  9  1  0  0  0  0
  8 16  1  0  0  0  0
  9 10  1  0  0  0  0
 11 10  1  6  0  0  0
 11 12  1  0  0  0  0
 11 16  1  0  0  0  0
 12 13  1  0  0  0  0
 13 14  2  0  0  0  0
 13 15  1  0  0  0  0
 16 15  1  6  0  0  0
M  CHG  1   2  -1
M  END
>  <CHROM.1>
-71.22979809,123.80793264,-173.67150099,-173.37148301,-29.07616108,12.50127159
3.36304171,10.34288714,1.11235628,-0.06252483,-1.57544792

>  <Name>
1f27 biotin aptamer (Xray 1.3A)

>  <RI>
0

>  <Rbt.Current_Directory>
/home/itssahil/PROJECTS/Mol_Feturizer/New_Systems/rnas/1f27

>  <Rbt.Executable>
rbdock ($Id: //depot/dev/client3/rdock/2013.1/src/exe/rbdock.cxx#4 $)

>  <Rbt.Library>
libRbt.so (2013.1, Build901 2013/11/27)

>  <Rbt.Parameter_File>
/export/apps/rDock/src/rDock_2013.1_src/data/scripts/dock_solv.prm

>  <Rbt.Receptor>
prm/blind_docking_20.prm

>  <SCORE>
-4.44444

>  <SCORE.INTER>
-7.39494

>  <SCORE.INTER.CONST>
1

>  <SCORE.INTER.POLAR>
-0.386661

>  <SCORE.INTER.ROT>
5

>  <SCORE.INTER.SOLV>
24.6262

>  <SCORE.INTER.VDW>
-18.7832

>  <SCORE.INTER.norm>
-0.462184

>  <SCORE.INTRA>
1.66504

>  <SCORE.INTRA.DIHEDRAL>
3.18371

>  <SCORE.INTRA.DIHEDRAL.0>
6.87082

>  <SCORE.INTRA.POLAR>
0

>  <SCORE.INTRA.POLAR.0>
0

>  <SCORE.INTRA.REPUL>
0

>  <SCORE.INTRA.REPUL.0>
0

>  <SCORE.INTRA.SOLV>
-0.493075

>  <SCORE.INTRA.SOLV.lig_0>
-42.5944

>  <SCORE.INTRA.VDW>
0.319718

>  <SCORE.INTRA.VDW.0>
-1.067

>  <SCORE.INTRA.norm>
0.104065

>  <SCORE.RESTR>
1.28547

>  <SCORE.RESTR.CAVITY>
1.28547

>  <SCORE.RESTR.norm>
0.0803416

>  <SCORE.SYSTEM>
0

>  <SCORE.SYSTEM.CONST>
0

>  <SCORE.SYSTEM.DIHEDRAL>
0

>  <SCORE.SYSTEM.SOLV>
0

>  <SCORE.SYSTEM.norm>
0

>  <SCORE.heavy>
16

>  <SCORE.norm>
-0.277777

>  <RMSD>
7.814

$$$$
1f27 biotin aptamer (Xray 1.3A)
 OpenBabel11021811393D
libRbt.so/2013.1/901 2013/11/27
 16 17  0  0  0  0  0  0  0  0999 V2000
   10.7518    2.8887   13.8288 C   0  0  0  0  0  0  0  0  0  0  0  0
   10.1676    2.0659   14.5266 O   0  5  0  0  0  0  0  0  0  0  0  0
   10.1629    3.4237   12.8910 O   0  0  0  0  0  0  0  0  0  0  0  0
   12.1804    3.2982   14.1635 C   0  0  0  0  0  0  0  0  0  0  0  0
   13.2581    2.4981   13.3984 C   0  0  0  0  0  0  0  0  0  0  0  0
   13.0180    2.5251   11.9002 C   0  0  0  0  0  0  0  0  0  0  0  0
   14.2873    2.6715   11.0871 C   0  0  0  0  0  0  0  0  0  0  0  0
   14.3454    3.9253   10.2045 C   0  0  2  0  0  0  0  0  0  0  0  0
   12.6782    4.8201    9.9121 S   0  0  0  0  0  0  0  0  0  0  0  0
   13.5569    5.7631    8.5037 C   0  0  0  0  0  0  0  0  0  0  0  0
   14.5436    4.7318    7.8825 C   0  0  2  0  0  0  0  0  0  0  0  0
   13.7521    4.0250    6.7498 N   0  0  0  0  0  0  0  0  0  0  0  0
   13.6500    2.7777    6.9142 C   0  0  0  0  0  0  0  0  0  0  0  0
   12.9444    1.9127    6.2836 O   0  0  0  0  0  0  0  0  0  0  0  0
   14.1490    2.3177    8.1897 N   0  0  0  0  0  0  0  0  0  0  0  0
   14.8169    3.5507    8.7976 C   0  0  2  0  0  0  0  0  0  0  0  0
  1  2  1  0  0  0  0
  1  3  2  0  0  0  0
  1  4  1  0  0  0  0
  4  5  1  0  0  0  0
  5  6  1  0  0  0  0
  6  7  1  0  0  0  0
  8  7  1  1  0  0  0
  8  9  1  0  0  0  0
  8 16  1  0  0  0  0
  9 10  1  0  0  0  0
 11 10  1  1  0  0  0
 11 12  1  0  0  0  0
 11 16  1  0  0  0  0
 12 13  1  0  0  0  0
 13 14  2  0  0  0  0
 13 15  1  0  0  0  0
 16 15  1  6  0  0  0
M  CHG  1   2  -1
M  END
>  <CHROM.1>
94.54681840,53.04951861,140.03007820,-119.43518129,-15.75683025,12.94418635
3.41058837,10.30941503,2.76055396,1.15327442,0.54041596

>  <Name>
1f27 biotin aptamer (Xray 1.3A)

>  <RI>
0

>  <Rbt.Current_Directory>
/home/itssahil/PROJECTS/Mol_Feturizer/New_Systems/rnas/1f27

>  <Rbt.Executable>
rbdock ($Id: //depot/dev/client3/rdock/2013.1/src/exe/rbdock.cxx#4 $)

>  <Rbt.Library>
libRbt.so (2013.1, Build901 2013/11/27)

>  <Rbt.Parameter_File>
/export/apps/rDock/src/rDock_2013.1_src/data/scripts/dock_solv.prm

>  <Rbt.Receptor>
prm/blind_docking_20.prm

>  <SCORE>
51.9802

>  <SCORE.INTER>
44.1652

>  <SCORE.INTER.CONST>
1

>  <SCORE.INTER.POLAR>
-1.73484

>  <SCORE.INTER.ROT>
5

>  <SCORE.INTER.SOLV>
18.1854

>  <SCORE.INTER.VDW>
22.2311

>  <SCORE.INTER.norm>
2.76032

>  <SCORE.INTRA>
6.14676

>  <SCORE.INTRA.DIHEDRAL>
10.4024

>  <SCORE.INTRA.DIHEDRAL.0>
6.87082

>  <SCORE.INTRA.POLAR>
0

>  <SCORE.INTRA.POLAR.0>
0

>  <SCORE.INTRA.REPUL>
0

>  <SCORE.INTRA.REPUL.0>
0

>  <SCORE.INTRA.SOLV>
0.68105

>  <SCORE.INTRA.SOLV.lig_0>
-42.5944

>  <SCORE.INTRA.VDW>
0.605046

>  <SCORE.INTRA.VDW.0>
-1.067

>  <SCORE.INTRA.norm>
0.384173

>  <SCORE.RESTR>
1.66823

>  <SCORE.RESTR.CAVITY>
1.66823

>  <SCORE.RESTR.norm>
0.104264

>  <SCORE.SYSTEM>
0

>  <SCORE.SYSTEM.CONST>
0

>  <SCORE.SYSTEM.DIHEDRAL>
0

>  <SCORE.SYSTEM.SOLV>
0

>  <SCORE.SYSTEM.norm>
0

>  <SCORE.heavy>
16

>  <SCORE.norm>
3.24876

>  <RMSD>
7.814

$$$$
1f27 biotin aptamer (Xray 1.3A)
 OpenBabel11021811393D
libRbt.so/2013.1/901 2013/11/27
 16 17  0  0  0  0  0  0  0  0999 V2000
   14.1877    3.1593    5.8533 C   0  0  0  0  0  0  0  0  0  0  0  0
   14.5500    3.5872    4.7620 O   0  5  0  0  0  0  0  0  0  0  0  0
   13.2461    2.3709    5.9193 O   0  0  0  0  0  0  0  0  0  0  0  0
   14.9443    3.5488    7.1168 C   0  0  0  0  0  0  0  0  0  0  0  0
   14.1506    4.4782    8.0620 C   0  0  0  0  0  0  0  0  0  0  0  0
   13.9954    3.8714    9.4443 C   0  0  0  0  0  0  0  0  0  0  0  0
   13.0974    4.6764   10.3604 C   0  0  0  0  0  0  0  0  0  0  0  0
   13.0405    4.1748   11.8094 C   0  0  2  0  0  0  0  0  0  0  0  0
   13.2686    2.2893   12.0512 S   0  0  0  0  0  0  0  0  0  0  0  0
   12.6083    2.5478   13.8239 C   0  0  0  0  0  0  0  0  0  0  0  0
   11.5340    3.6669   13.6946 C   0  0  2  0  0  0  0  0  0  0  0  0
   10.1925    2.9310   13.4338 N   0  0  0  0  0  0  0  0  0  0  0  0
    9.6502    3.2523   12.3402 C   0  0  0  0  0  0  0  0  0  0  0  0
    8.6444    2.7413   11.7312 O   0  0  0  0  0  0  0  0  0  0  0  0
   10.4736    4.1030   11.5121 N   0  0  0  0  0  0  0  0  0  0  0  0
   11.6605    4.4609   12.4060 C   0  0  2  0  0  0  0  0  0  0  0  0
  1  2  1  0  0  0  0
  1  3  2  0  0  0  0
  1  4  1  0  0  0  0
  4  5  1  0  0  0  0
  5  6  1  0  0  0  0
  6  7  1  0  0  0  0
  8  7  1  6  0  0  0
  8  9  1  0  0  0  0
  8 16  1  0  0  0  0
  9 10  1  0  0  0  0
 11 10  1  6  0  0  0
 11 12  1  0  0  0  0
 11 16  1  0  0  0  0
 12 13  1  0  0  0  0
 13 14  2  0  0  0  0
 13 15  1  0  0  0  0
 16 15  1  6  0  0  0
M  CHG  1   2  -1
M  END
>  <CHROM.1>
110.92170525,122.19481922,-173.73345404,-173.65996218,-30.86842524,12.49940879
3.38326164,10.34075367,1.10800000,-0.06481200,-1.56892130

>  <Name>
1f27 biotin aptamer (Xray 1.3A)

>  <RI>
0

>  <Rbt.Current_Directory>
/home/itssahil/PROJECTS/Mol_Feturizer/New_Systems/rnas/1f27

>  <Rbt.Executable>
rbdock ($Id: //depot/dev/client3/rdock/2013.1/src/exe/rbdock.cxx#4 $)

>  <Rbt.Library>
libRbt.so (2013.1, Build901 2013/11/27)

>  <Rbt.Parameter_File>
/export/apps/rDock/src/rDock_2013.1_src/data/scripts/dock_solv.prm

>  <Rbt.Receptor>
prm/blind_docking_20.prm

>  <SCORE>
-4.35602

>  <SCORE.INTER>
-7.20917

>  <SCORE.INTER.CONST>
1

>  <SCORE.INTER.POLAR>
-0.406023

>  <SCORE.INTER.ROT>
5

>  <SCORE.INTER.SOLV>
24.5478

>  <SCORE.INTER.VDW>
-18.5687

>  <SCORE.INTER.norm>
-0.450573

>  <SCORE.INTRA>
1.54748

>  <SCORE.INTRA.DIHEDRAL>
3.04785

>  <SCORE.INTRA.DIHEDRAL.0>
6.87082

>  <SCORE.INTRA.POLAR>
0

>  <SCORE.INTRA.POLAR.0>
0

>  <SCORE.INTRA.REPUL>
0

>  <SCORE.INTRA.REPUL.0>
0

>  <SCORE.INTRA.SOLV>
-0.514398

>  <SCORE.INTRA.SOLV.lig_0>
-42.5944

>  <SCORE.INTRA.VDW>
0.280756

>  <SCORE.INTRA.VDW.0>
-1.067

>  <SCORE.INTRA.norm>
0.0967177

>  <SCORE.RESTR>
1.30567

>  <SCORE.RESTR.CAVITY>
1.30567

>  <SCORE.RESTR.norm>
0.0816044

>  <SCORE.SYSTEM>
0

>  <SCORE.SYSTEM.CONST>
0

>  <SCORE.SYSTEM.DIHEDRAL>
0

>  <SCORE.SYSTEM.SOLV>
0

>  <SCORE.SYSTEM.norm>
0

>  <SCORE.heavy>
16

>  <SCORE.norm>
-0.272251

>  <RMSD>
7.827

$$$$
1f27 biotin aptamer (Xray 1.3A)
 OpenBabel11021811393D
libRbt.so/2013.1/901 2013/11/27
 16 17  0  0  0  0  0  0  0  0999 V2000
    9.8061    4.5540   12.4121 C   0  0  0  0  0  0  0  0  0  0  0  0
    8.8652    5.2989   12.1568 O   0  5  0  0  0  0  0  0  0  0  0  0
    9.8996    4.0471   13.5287 O   0  0  0  0  0  0  0  0  0  0  0  0
   10.8187    4.2029   11.3295 C   0  0  0  0  0  0  0  0  0  0  0  0
   12.2705    4.0816   11.8439 C   0  0  0  0  0  0  0  0  0  0  0  0
   13.2136    3.6073   10.7536 C   0  0  0  0  0  0  0  0  0  0  0  0
   14.5931    3.2453   11.2630 C   0  0  0  0  0  0  0  0  0  0  0  0
   14.6146    2.1597   12.3472 C   0  0  2  0  0  0  0  0  0  0  0  0
   14.1859    2.7403   14.1206 S   0  0  0  0  0  0  0  0  0  0  0  0
   14.8940    1.0717   14.7199 C   0  0  0  0  0  0  0  0  0  0  0  0
   16.0819    0.7700   13.7602 C   0  0  2  0  0  0  0  0  0  0  0  0
   17.3318    1.4012   14.4300 N   0  0  0  0  0  0  0  0  0  0  0  0
   17.8911    2.2799   13.7171 C   0  0  0  0  0  0  0  0  0  0  0  0
   18.8271    3.1081   14.0030 O   0  0  0  0  0  0  0  0  0  0  0  0
   17.1542    2.6106   12.5191 N   0  0  0  0  0  0  0  0  0  0  0  0
   16.0253    1.5811   12.4773 C   0  0  2  0  0  0  0  0  0  0  0  0
  1  2  1  0  0  0  0
  1  3  2  0  0  0  0
  1  4  1  0  0  0  0
  4  5  1  0  0  0  0
  5  6  1  0  0  0  0
  6  7  1  0  0  0  0
  8  7  1  6  0  0  0
  8  9  1  0  0  0  0
  8 16  1  0  0  0  0
  9 10  1  0  0  0  0
 11 10  1  1  0  0  0
 11 12  1  0  0  0  0
 11 16  1  0  0  0  0
 12 13  1  0  0  0  0
 13 14  2  0  0  0  0
 13 15  1  0  0  0  0
 16 15  1  1  0  0  0
M  CHG  1   2  -1
M  END
>  <CHROM.1>
143.30314197,174.76984352,-170.06045080,57.66025996,-79.54660968,14.13228444
2.94280567,12.94361121,2.81855950,0.22310993,-1.13176600

>  <Name>
1f27 biotin aptamer (Xray 1.3A)

>  <RI>
0

>  <Rbt.Current_Directory>
/home/itssahil/PROJECTS/Mol_Feturizer/New_Systems/rnas/1f27

>  <Rbt.Executable>
rbdock ($Id: //depot/dev/client3/rdock/2013.1/src/exe/rbdock.cxx#4 $)

>  <Rbt.Library>
libRbt.so (2013.1, Build901 2013/11/27)

>  <Rbt.Parameter_File>
/export/apps/rDock/src/rDock_2013.1_src/data/scripts/dock_solv.prm

>  <Rbt.Receptor>
prm/pocket_docking_7.prm

>  <SCORE>
-26.1263

>  <SCORE.INTER>
-24.4248

>  <SCORE.INTER.CONST>
1

>  <SCORE.INTER.POLAR>
-0.87178

>  <SCORE.INTER.ROT>
5

>  <SCORE.INTER.SOLV>
10.5494

>  <SCORE.INTER.VDW>
-23.827

>  <SCORE.INTER.norm>
-1.52655

>  <SCORE.INTRA>
-1.7016

>  <SCORE.INTRA.DIHEDRAL>
-3.69182

>  <SCORE.INTRA.DIHEDRAL.0>
6.87082

>  <SCORE.INTRA.POLAR>
0

>  <SCORE.INTRA.POLAR.0>
0

>  <SCORE.INTRA.REPUL>
0

>  <SCORE.INTRA.REPUL.0>
0

>  <SCORE.INTRA.SOLV>
-0.666502

>  <SCORE.INTRA.SOLV.lig_0>
-42.5944

>  <SCORE.INTRA.VDW>
0.477565

>  <SCORE.INTRA.VDW.0>
-1.067

>  <SCORE.INTRA.norm>
-0.10635

>  <SCORE.RESTR>
0

>  <SCORE.RESTR.CAVITY>
0

>  <SCORE.RESTR.norm>
0

>  <SCORE.SYSTEM>
0

>  <SCORE.SYSTEM.CONST>
0

>  <SCORE.SYSTEM.DIHEDRAL>
0

>  <SCORE.SYSTEM.SOLV>
0

>  <SCORE.SYSTEM.norm>
0

>  <SCORE.heavy>
16

>  <SCORE.norm>
-1.6329

>  <RMSD>
7.840

$$$$
1f27 biotin aptamer (Xray 1.3A)
 OpenBabel11021811393D
libRbt.so/2013.1/901 2013/11/27
 16 17  0  0  0  0  0  0  0  0999 V2000
    9.4776    3.4746   14.1072 C   0  0  0  0  0  0  0  0  0  0  0  0
    8.9050    4.4838   14.5059 O   0  5  0  0  0  0  0  0  0  0  0  0
    8.9258    2.3797   14.2037 O   0  0  0  0  0  0  0  0  0  0  0  0
   10.8388    3.5841   13.4321 C   0  0  0  0  0  0  0  0  0  0  0  0
   11.9861    2.9145   14.2210 C   0  0  0  0  0  0  0  0  0  0  0  0
   13.3333    3.1586   13.5665 C   0  0  0  0  0  0  0  0  0  0  0  0
   14.4915    2.5334   14.3157 C   0  0  0  0  0  0  0  0  0  0  0  0
   15.8748    2.8182   13.7161 C   0  0  2  0  0  0  0  0  0  0  0  0
   16.0342    2.5672   11.8247 S   0  0  0  0  0  0  0  0  0  0  0  0
   17.9243    2.6321   12.0861 C   0  0  0  0  0  0  0  0  0  0  0  0
   18.1652    1.9407   13.4599 C   0  0  2  0  0  0  0  0  0  0  0  0
   18.3845    0.4380   13.1393 N   0  0  0  0  0  0  0  0  0  0  0  0
   17.5416   -0.3200   13.6943 C   0  0  0  0  0  0  0  0  0  0  0  0
   17.3174   -1.5718   13.5314 O   0  0  0  0  0  0  0  0  0  0  0  0
   16.4765    0.3893   14.3651 N   0  0  0  0  0  0  0  0  0  0  0  0
   16.9070    1.8547   14.3063 C   0  0  2  0  0  0  0  0  0  0  0  0
  1  2  1  0  0  0  0
  1  3  2  0  0  0  0
  1  4  1  0  0  0  0
  4  5  1  0  0  0  0
  5  6  1  0  0  0  0
  6  7  1  0  0  0  0
  8  7  1  1  0  0  0
  8  9  1  0  0  0  0
  8 16  1  0  0  0  0
  9 10  1  0  0  0  0
 11 10  1  6  0  0  0
 11 12  1  0  0  0  0
 11 16  1  0  0  0  0
 12 13  1  0  0  0  0
 13 14  2  0  0  0  0
 13 15  1  0  0  0  0
 16 15  1  6  0  0  0
M  CHG  1   2  -1
M  END
>  <CHROM.1>
114.93676725,-174.98743278,179.31648197,-177.23027265,-47.26303421,14.58886422
2.09823374,13.52305506,2.89625836,0.24263447,-0.42475641

>  <Name>
1f27 biotin aptamer (Xray 1.3A)

>  <RI>
0

>  <Rbt.Current_Directory>
/home/itssahil/PROJECTS/Mol_Feturizer/New_Systems/rnas/1f27

>  <Rbt.Executable>
rbdock ($Id: //depot/dev/client3/rdock/2013.1/src/exe/rbdock.cxx#4 $)

>  <Rbt.Library>
libRbt.so (2013.1, Build901 2013/11/27)

>  <Rbt.Parameter_File>
/export/apps/rDock/src/rDock_2013.1_src/data/scripts/dock_solv.prm

>  <Rbt.Receptor>
prm/blind_docking_40.prm

>  <SCORE>
-25.1004

>  <SCORE.INTER>
-22.4664

>  <SCORE.INTER.CONST>
1

>  <SCORE.INTER.POLAR>
-0.843967

>  <SCORE.INTER.ROT>
5

>  <SCORE.INTER.SOLV>
10.8153

>  <SCORE.INTER.VDW>
-22.7028

>  <SCORE.INTER.norm>
-1.40415

>  <SCORE.INTRA>
-2.63423

>  <SCORE.INTRA.DIHEDRAL>
-4.70307

>  <SCORE.INTRA.DIHEDRAL.0>
6.87082

>  <SCORE.INTRA.POLAR>
0

>  <SCORE.INTRA.POLAR.0>
0

>  <SCORE.INTRA.REPUL>
0

>  <SCORE.INTRA.REPUL.0>
0

>  <SCORE.INTRA.SOLV>
-0.8422

>  <SCORE.INTRA.SOLV.lig_0>
-42.5944

>  <SCORE.INTRA.VDW>
0.13841

>  <SCORE.INTRA.VDW.0>
-1.067

>  <SCORE.INTRA.norm>
-0.164639

>  <SCORE.RESTR>
0.000204989

>  <SCORE.RESTR.CAVITY>
0.000204989

>  <SCORE.RESTR.norm>
1.28118e-05

>  <SCORE.SYSTEM>
0

>  <SCORE.SYSTEM.CONST>
0

>  <SCORE.SYSTEM.DIHEDRAL>
0

>  <SCORE.SYSTEM.SOLV>
0

>  <SCORE.SYSTEM.norm>
0

>  <SCORE.heavy>
16

>  <SCORE.norm>
-1.56878

>  <RMSD>
7.842

$$$$
1f27 biotin aptamer (Xray 1.3A)
 OpenBabel11021811393D
libRbt.so/2013.1/901 2013/11/27
 16 17  0  0  0  0  0  0  0  0999 V2000
    9.9881    4.9678   12.1395 C   0  0  0  0  0  0  0  0  0  0  0  0
    9.2749    4.4030   12.9626 O   0  5  0  0  0  0  0  0  0  0  0  0
   10.0019    6.1963   12.0825 O   0  0  0  0  0  0  0  0  0  0  0  0
   10.9058    4.1537   11.2364 C   0  0  0  0  0  0  0  0  0  0  0  0
   12.3738    4.1031   11.7153 C   0  0  0  0  0  0  0  0  0  0  0  0
   13.2852    3.4945   10.6655 C   0  0  0  0  0  0  0  0  0  0  0  0
   14.6589    3.1356   11.1924 C   0  0  0  0  0  0  0  0  0  0  0  0
   14.6645    2.0918   12.3170 C   0  0  2  0  0  0  0  0  0  0  0  0
   14.2304    2.7429   14.0644 S   0  0  0  0  0  0  0  0  0  0  0  0
   14.9205    1.0923   14.7310 C   0  0  0  0  0  0  0  0  0  0  0  0
   16.1113    0.7443   13.7909 C   0  0  2  0  0  0  0  0  0  0  0  0
   17.3627    1.3899   14.4440 N   0  0  0  0  0  0  0  0  0  0  0  0
   17.9338    2.2361   13.7018 C   0  0  0  0  0  0  0  0  0  0  0  0
   18.8753    3.0665   13.9619 O   0  0  0  0  0  0  0  0  0  0  0  0
   17.2069    2.5273   12.4875 N   0  0  0  0  0  0  0  0  0  0  0  0
   16.0694    1.5066   12.4778 C   0  0  2  0  0  0  0  0  0  0  0  0
  1  2  1  0  0  0  0
  1  3  2  0  0  0  0
  1  4  1  0  0  0  0
  4  5  1  0  0  0  0
  5  6  1  0  0  0  0
  6  7  1  0  0  0  0
  8  7  1  6  0  0  0
  8  9  1  0  0  0  0
  8 16  1  0  0  0  0
  9 10  1  0  0  0  0
 11 10  1  1  0  0  0
 11 12  1  0  0  0  0
 11 16  1  0  0  0  0
 12 13  1  0  0  0  0
 13 14  2  0  0  0  0
 13 15  1  0  0  0  0
 16 15  1  1  0  0  0
M  CHG  1   2  -1
M  END
>  <CHROM.1>
-99.13686445,-169.96056960,-166.95387538,61.31583343,-79.27157944,14.21828745
3.01307210,12.85480785,2.75622807,0.24626769,-1.07440984

>  <Name>
1f27 biotin aptamer (Xray 1.3A)

>  <RI>
0

>  <Rbt.Current_Directory>
/home/itssahil/PROJECTS/Mol_Feturizer/New_Systems/rnas/1f27

>  <Rbt.Executable>
rbdock ($Id: //depot/dev/client3/rdock/2013.1/src/exe/rbdock.cxx#4 $)

>  <Rbt.Library>
libRbt.so (2013.1, Build901 2013/11/27)

>  <Rbt.Parameter_File>
/export/apps/rDock/src/rDock_2013.1_src/data/scripts/dock_solv.prm

>  <Rbt.Receptor>
prm/pocket_docking_8.prm

>  <SCORE>
-28.4191

>  <SCORE.INTER>
-26.582

>  <SCORE.INTER.CONST>
1

>  <SCORE.INTER.POLAR>
-1.72344

>  <SCORE.INTER.ROT>
5

>  <SCORE.INTER.SOLV>
12.9112

>  <SCORE.INTER.VDW>
-23.2136

>  <SCORE.INTER.norm>
-1.66137

>  <SCORE.INTRA>
-1.83709

>  <SCORE.INTRA.DIHEDRAL>
-3.19268

>  <SCORE.INTRA.DIHEDRAL.0>
6.87082

>  <SCORE.INTRA.POLAR>
0

>  <SCORE.INTRA.POLAR.0>
0

>  <SCORE.INTRA.REPUL>
0

>  <SCORE.INTRA.REPUL.0>
0

>  <SCORE.INTRA.SOLV>
-0.769479

>  <SCORE.INTRA.SOLV.lig_0>
-42.5944

>  <SCORE.INTRA.VDW>
0.143991

>  <SCORE.INTRA.VDW.0>
-1.067

>  <SCORE.INTRA.norm>
-0.114818

>  <SCORE.RESTR>
0

>  <SCORE.RESTR.CAVITY>
0

>  <SCORE.RESTR.norm>
0

>  <SCORE.SYSTEM>
0

>  <SCORE.SYSTEM.CONST>
0

>  <SCORE.SYSTEM.DIHEDRAL>
0

>  <SCORE.SYSTEM.SOLV>
0

>  <SCORE.SYSTEM.norm>
0

>  <SCORE.heavy>
16

>  <SCORE.norm>
-1.77619

>  <RMSD>
7.847

$$$$
1f27 biotin aptamer (Xray 1.3A)
 OpenBabel11021811393D
libRbt.so/2013.1/901 2013/11/27
 16 17  0  0  0  0  0  0  0  0999 V2000
    8.8667    2.0217   15.6941 C   0  0  0  0  0  0  0  0  0  0  0  0
    8.8759    2.1019   16.9184 O   0  5  0  0  0  0  0  0  0  0  0  0
    7.9068    1.5082   15.1220 O   0  0  0  0  0  0  0  0  0  0  0  0
   10.0083    2.6174   14.8803 C   0  0  0  0  0  0  0  0  0  0  0  0
   11.3882    1.9922   15.1840 C   0  0  0  0  0  0  0  0  0  0  0  0
   12.4907    2.6462   14.3718 C   0  0  0  0  0  0  0  0  0  0  0  0
   13.8658    2.0755   14.6495 C   0  0  0  0  0  0  0  0  0  0  0  0
   14.9962    2.6812   13.8071 C   0  0  2  0  0  0  0  0  0  0  0  0
   14.8178    2.4944   11.9100 S   0  0  0  0  0  0  0  0  0  0  0  0
   16.6567    2.9953   11.7981 C   0  0  0  0  0  0  0  0  0  0  0  0
   17.3234    2.3646   13.0554 C   0  0  2  0  0  0  0  0  0  0  0  0
   17.8065    0.9578   12.6117 N   0  0  0  0  0  0  0  0  0  0  0  0
   17.2885    0.0184   13.2768 C   0  0  0  0  0  0  0  0  0  0  0  0
   17.3246   -1.2494   13.0890 O   0  0  0  0  0  0  0  0  0  0  0  0
   16.2510    0.4528   14.1837 N   0  0  0  0  0  0  0  0  0  0  0  0
   16.3178    1.9786   14.1263 C   0  0  2  0  0  0  0  0  0  0  0  0
  1  2  1  0  0  0  0
  1  3  2  0  0  0  0
  1  4  1  0  0  0  0
  4  5  1  0  0  0  0
  5  6  1  0  0  0  0
  6  7  1  0  0  0  0
  8  7  1  1  0  0  0
  8  9  1  0  0  0  0
  8 16  1  0  0  0  0
  9 10  1  0  0  0  0
 11 10  1  6  0  0  0
 11 12  1  0  0  0  0
 11 16  1  0  0  0  0
 12 13  1  0  0  0  0
 13 14  2  0  0  0  0
 13 15  1  0  0  0  0
 16 15  1  6  0  0  0
M  CHG  1   2  -1
M  END
>  <CHROM.1>
61.25020163,-178.57368204,179.31012327,177.90931033,-59.63633407,13.90478351
1.75502345,13.89973683,-3.04582336,0.34730034,-0.58822204

>  <Name>
1f27 biotin aptamer (Xray 1.3A)

>  <RI>
0

>  <Rbt.Current_Directory>
/home/itssahil/PROJECTS/Mol_Feturizer/New_Systems/rnas/1f27

>  <Rbt.Executable>
rbdock ($Id: //depot/dev/client3/rdock/2013.1/src/exe/rbdock.cxx#4 $)

>  <Rbt.Library>
libRbt.so (2013.1, Build901 2013/11/27)

>  <Rbt.Parameter_File>
/export/apps/rDock/src/rDock_2013.1_src/data/scripts/dock_solv.prm

>  <Rbt.Receptor>
prm/blind_docking_40.prm

>  <SCORE>
-25.739

>  <SCORE.INTER>
-22.6709

>  <SCORE.INTER.CONST>
1

>  <SCORE.INTER.POLAR>
-0.848528

>  <SCORE.INTER.ROT>
5

>  <SCORE.INTER.SOLV>
10.228

>  <SCORE.INTER.VDW>
-22.6282

>  <SCORE.INTER.norm>
-1.41693

>  <SCORE.INTRA>
-3.0681

>  <SCORE.INTRA.DIHEDRAL>
-5.47804

>  <SCORE.INTRA.DIHEDRAL.0>
6.87082

>  <SCORE.INTRA.POLAR>
0

>  <SCORE.INTRA.POLAR.0>
0

>  <SCORE.INTRA.REPUL>
0

>  <SCORE.INTRA.REPUL.0>
0

>  <SCORE.INTRA.SOLV>
-0.866285

>  <SCORE.INTRA.SOLV.lig_0>
-42.5944

>  <SCORE.INTRA.VDW>
0.104062

>  <SCORE.INTRA.VDW.0>
-1.067

>  <SCORE.INTRA.norm>
-0.191756

>  <SCORE.RESTR>
0

>  <SCORE.RESTR.CAVITY>
0

>  <SCORE.RESTR.norm>
0

>  <SCORE.SYSTEM>
0

>  <SCORE.SYSTEM.CONST>
0

>  <SCORE.SYSTEM.DIHEDRAL>
0

>  <SCORE.SYSTEM.SOLV>
0

>  <SCORE.SYSTEM.norm>
0

>  <SCORE.heavy>
16

>  <SCORE.norm>
-1.60869

>  <RMSD>
7.886

$$$$
1f27 biotin aptamer (Xray 1.3A)
 OpenBabel11021811393D
libRbt.so/2013.1/901 2013/11/27
 16 17  0  0  0  0  0  0  0  0999 V2000
    9.7682    4.8440   12.4473 C   0  0  0  0  0  0  0  0  0  0  0  0
    9.6643    4.1546   13.4568 O   0  5  0  0  0  0  0  0  0  0  0  0
    9.1213    5.8852   12.3482 O   0  0  0  0  0  0  0  0  0  0  0  0
   10.7467    4.4484   11.3488 C   0  0  0  0  0  0  0  0  0  0  0  0
   12.1701    4.1331   11.8601 C   0  0  0  0  0  0  0  0  0  0  0  0
   13.0527    3.5808   10.7560 C   0  0  0  0  0  0  0  0  0  0  0  0
   14.4393    3.1943   11.2269 C   0  0  0  0  0  0  0  0  0  0  0  0
   14.4694    2.1602   12.3600 C   0  0  2  0  0  0  0  0  0  0  0  0
   14.1003    2.8313   14.1147 S   0  0  0  0  0  0  0  0  0  0  0  0
   14.7923    1.1783   14.7732 C   0  0  0  0  0  0  0  0  0  0  0  0
   15.9476    0.8080   13.7978 C   0  0  2  0  0  0  0  0  0  0  0  0
   17.2272    1.4440   14.4040 N   0  0  0  0  0  0  0  0  0  0  0  0
   17.7837    2.2769   13.6361 C   0  0  0  0  0  0  0  0  0  0  0  0
   18.7428    3.0981   13.8580 O   0  0  0  0  0  0  0  0  0  0  0  0
   17.0209    2.5665   12.4437 N   0  0  0  0  0  0  0  0  0  0  0  0
   15.8717    1.5594   12.4801 C   0  0  2  0  0  0  0  0  0  0  0  0
  1  2  1  0  0  0  0
  1  3  2  0  0  0  0
  1  4  1  0  0  0  0
  4  5  1  0  0  0  0
  5  6  1  0  0  0  0
  6  7  1  0  0  0  0
  8  7  1  6  0  0  0
  8  9  1  0  0  0  0
  8 16  1  0  0  0  0
  9 10  1  0  0  0  0
 11 10  1  1  0  0  0
 11 12  1  0  0  0  0
 11 16  1  0  0  0  0
 12 13  1  0  0  0  0
 13 14  2  0  0  0  0
 13 15  1  0  0  0  0
 16 15  1  1  0  0  0
M  CHG  1   2  -1
M  END
>  <CHROM.1>
-49.55552064,172.90316424,-177.22347871,57.43432544,-78.39738160,14.03794275
3.03357861,12.93851635,2.81726182,0.26928268,-1.14060616

>  <Name>
1f27 biotin aptamer (Xray 1.3A)

>  <RI>
224

>  <Rbt.Current_Directory>
/home/itssahil/PROJECTS/Mol_Feturizer/New_Systems/rnas/1f27

>  <Rbt.Executable>
rbdock ($Id: //depot/dev/client3/rdock/2013.1/src/exe/rbdock.cxx#4 $)

>  <Rbt.Library>
libRbt.so (2013.1, Build901 2013/11/27)

>  <Rbt.Parameter_File>
/export/apps/rDock/src/rDock_2013.1_src/data/scripts/dock_solv.prm

>  <Rbt.Receptor>
prm/blind_docking_80.prm

>  <SCORE>
-26.0547

>  <SCORE.INTER>
-24.1235

>  <SCORE.INTER.CONST>
1

>  <SCORE.INTER.POLAR>
-0.87178

>  <SCORE.INTER.ROT>
5

>  <SCORE.INTER.SOLV>
10.6554

>  <SCORE.INTER.VDW>
-23.6616

>  <SCORE.INTER.norm>
-1.50772

>  <SCORE.INTRA>
-1.9312

>  <SCORE.INTRA.DIHEDRAL>
-3.97908

>  <SCORE.INTRA.DIHEDRAL.0>
6.87082

>  <SCORE.INTRA.POLAR>
0

>  <SCORE.INTRA.POLAR.0>
0

>  <SCORE.INTRA.REPUL>
0

>  <SCORE.INTRA.REPUL.0>
0

>  <SCORE.INTRA.SOLV>
-0.740447

>  <SCORE.INTRA.SOLV.lig_0>
-42.5944

>  <SCORE.INTRA.VDW>
0.428562

>  <SCORE.INTRA.VDW.0>
-1.067

>  <SCORE.INTRA.norm>
-0.1207

>  <SCORE.RESTR>
0

>  <SCORE.RESTR.CAVITY>
0

>  <SCORE.RESTR.norm>
0

>  <SCORE.SYSTEM>
0

>  <SCORE.SYSTEM.CONST>
0

>  <SCORE.SYSTEM.DIHEDRAL>
0

>  <SCORE.SYSTEM.SOLV>
0

>  <SCORE.SYSTEM.norm>
0

>  <SCORE.heavy>
16

>  <SCORE.norm>
-1.62842

>  <RMSD>
7.901

$$$$
1f27 biotin aptamer (Xray 1.3A)
 OpenBabel11021811393D
libRbt.so/2013.1/901 2013/11/27
 16 17  0  0  0  0  0  0  0  0999 V2000
    9.3611    4.0789   11.8452 C   0  0  0  0  0  0  0  0  0  0  0  0
    8.5446    4.7531   12.4650 O   0  5  0  0  0  0  0  0  0  0  0  0
    9.0624    2.9452   11.4739 O   0  0  0  0  0  0  0  0  0  0  0  0
   10.7166    4.6682   11.4763 C   0  0  0  0  0  0  0  0  0  0  0  0
   11.8527    3.6246   11.3925 C   0  0  0  0  0  0  0  0  0  0  0  0
   13.2158    4.2859   11.3052 C   0  0  0  0  0  0  0  0  0  0  0  0
   14.3660    3.3007   11.2944 C   0  0  0  0  0  0  0  0  0  0  0  0
   14.3642    2.2964   12.4544 C   0  0  2  0  0  0  0  0  0  0  0  0
   14.2843    3.0498   14.2128 S   0  0  0  0  0  0  0  0  0  0  0  0
   14.7932    1.3257   14.8556 C   0  0  0  0  0  0  0  0  0  0  0  0
   15.7727    0.7682   13.7819 C   0  0  2  0  0  0  0  0  0  0  0  0
   17.1881    1.2186   14.2323 N   0  0  0  0  0  0  0  0  0  0  0  0
   17.7760    1.9440   13.3830 C   0  0  0  0  0  0  0  0  0  0  0  0
   18.8628    2.6176   13.4774 O   0  0  0  0  0  0  0  0  0  0  0  0
   16.9422    2.3201   12.2646 N   0  0  0  0  0  0  0  0  0  0  0  0
   15.6687    1.4962   12.4529 C   0  0  2  0  0  0  0  0  0  0  0  0
  1  2  1  0  0  0  0
  1  3  2  0  0  0  0
  1  4  1  0  0  0  0
  4  5  1  0  0  0  0
  5  6  1  0  0  0  0
  6  7  1  0  0  0  0
  8  7  1  6  0  0  0
  8  9  1  0  0  0  0
  8 16  1  0  0  0  0
  9 10  1  0  0  0  0
 11 10  1  1  0  0  0
 11 12  1  0  0  0  0
 11 16  1  0  0  0  0
 12 13  1  0  0  0  0
 13 14  2  0  0  0  0
 13 15  1  0  0  0  0
 16 15  1  1  0  0  0
M  CHG  1   2  -1
M  END
>  <CHROM.1>
149.94814375,-168.35639142,176.96772506,-53.31877927,-54.21700919,13.92454752
2.83350776,12.76293191,2.79985655,0.13444191,-1.03798436

>  <Name>
1f27 biotin aptamer (Xray 1.3A)

>  <RI>
0

>  <Rbt.Current_Directory>
/home/itssahil/PROJECTS/Mol_Feturizer/New_Systems/rnas/1f27

>  <Rbt.Executable>
rbdock ($Id: //depot/dev/client3/rdock/2013.1/src/exe/rbdock.cxx#4 $)

>  <Rbt.Library>
libRbt.so (2013.1, Build901 2013/11/27)

>  <Rbt.Parameter_File>
/export/apps/rDock/src/rDock_2013.1_src/data/scripts/dock_solv.prm

>  <Rbt.Receptor>
prm/pocket_docking_8.prm

>  <SCORE>
-25.6376

>  <SCORE.INTER>
-23.5734

>  <SCORE.INTER.CONST>
1

>  <SCORE.INTER.POLAR>
-0.87178

>  <SCORE.INTER.ROT>
5

>  <SCORE.INTER.SOLV>
12.2749

>  <SCORE.INTER.VDW>
-23.8346

>  <SCORE.INTER.norm>
-1.47334

>  <SCORE.INTRA>
-2.06421

>  <SCORE.INTRA.DIHEDRAL>
-4.76353

>  <SCORE.INTRA.DIHEDRAL.0>
6.87082

>  <SCORE.INTRA.POLAR>
0

>  <SCORE.INTRA.POLAR.0>
0

>  <SCORE.INTRA.REPUL>
0

>  <SCORE.INTRA.REPUL.0>
0

>  <SCORE.INTRA.SOLV>
-0.753237

>  <SCORE.INTRA.SOLV.lig_0>
-42.5944

>  <SCORE.INTRA.VDW>
0.694175

>  <SCORE.INTRA.VDW.0>
-1.067

>  <SCORE.INTRA.norm>
-0.129013

>  <SCORE.RESTR>
0

>  <SCORE.RESTR.CAVITY>
0

>  <SCORE.RESTR.norm>
0

>  <SCORE.SYSTEM>
0

>  <SCORE.SYSTEM.CONST>
0

>  <SCORE.SYSTEM.DIHEDRAL>
0

>  <SCORE.SYSTEM.SOLV>
0

>  <SCORE.SYSTEM.norm>
0

>  <SCORE.heavy>
16

>  <SCORE.norm>
-1.60235

>  <RMSD>
7.945

$$$$
1f27 biotin aptamer (Xray 1.3A)
 OpenBabel11021811393D
libRbt.so/2013.1/901 2013/11/27
 16 17  0  0  0  0  0  0  0  0999 V2000
   10.4882    3.3494   14.0632 C   0  0  0  0  0  0  0  0  0  0  0  0
    9.8602    3.9006   14.9616 O   0  5  0  0  0  0  0  0  0  0  0  0
    9.8889    2.7047   13.2044 O   0  0  0  0  0  0  0  0  0  0  0  0
   11.9993    3.5191   13.9714 C   0  0  0  0  0  0  0  0  0  0  0  0
   12.6985    2.4531   13.0986 C   0  0  0  0  0  0  0  0  0  0  0  0
   14.0452    2.9375   12.5938 C   0  0  0  0  0  0  0  0  0  0  0  0
   14.2721    2.6657   11.1213 C   0  0  0  0  0  0  0  0  0  0  0  0
   14.3406    3.9188   10.2385 C   0  0  2  0  0  0  0  0  0  0  0  0
   12.6825    4.8325    9.9532 S   0  0  0  0  0  0  0  0  0  0  0  0
   13.5659    5.7657    8.5412 C   0  0  0  0  0  0  0  0  0  0  0  0
   14.5383    4.7233    7.9158 C   0  0  2  0  0  0  0  0  0  0  0  0
   13.7340    4.0257    6.7864 N   0  0  0  0  0  0  0  0  0  0  0  0
   13.6184    2.7796    6.9511 C   0  0  0  0  0  0  0  0  0  0  0  0
   12.9004    1.9228    6.3234 O   0  0  0  0  0  0  0  0  0  0  0  0
   14.1175    2.3138    8.2244 N   0  0  0  0  0  0  0  0  0  0  0  0
   14.8020    3.5391    8.8296 C   0  0  2  0  0  0  0  0  0  0  0  0
  1  2  1  0  0  0  0
  1  3  2  0  0  0  0
  1  4  1  0  0  0  0
  4  5  1  0  0  0  0
  5  6  1  0  0  0  0
  6  7  1  0  0  0  0
  8  7  1  1  0  0  0
  8  9  1  0  0  0  0
  8 16  1  0  0  0  0
  9 10  1  0  0  0  0
 11 10  1  1  0  0  0
 11 12  1  0  0  0  0
 11 16  1  0  0  0  0
 12 13  1  0  0  0  0
 13 14  2  0  0  0  0
 13 15  1  0  0  0  0
 16 15  1  6  0  0  0
M  CHG  1   2  -1
M  END
>  <CHROM.1>
161.93978911,157.72710848,-134.14960726,112.92925789,-71.89125746,12.90079053
3.54122769,10.40552512,2.00384042,0.26610025,1.48554933

>  <Name>
1f27 biotin aptamer (Xray 1.3A)

>  <RI>
0

>  <Rbt.Current_Directory>
/home/itssahil/PROJECTS/Mol_Feturizer/New_Systems/rnas/1f27

>  <Rbt.Executable>
rbdock ($Id: //depot/dev/client3/rdock/2013.1/src/exe/rbdock.cxx#4 $)

>  <Rbt.Library>
libRbt.so (2013.1, Build901 2013/11/27)

>  <Rbt.Parameter_File>
/export/apps/rDock/src/rDock_2013.1_src/data/scripts/dock_solv.prm

>  <Rbt.Receptor>
prm/blind_docking_20.prm

>  <SCORE>
52.9928

>  <SCORE.INTER>
47.7285

>  <SCORE.INTER.CONST>
1

>  <SCORE.INTER.POLAR>
-1.71653

>  <SCORE.INTER.ROT>
5

>  <SCORE.INTER.SOLV>
18.1106

>  <SCORE.INTER.VDW>
24.5706

>  <SCORE.INTER.norm>
2.98303

>  <SCORE.INTRA>
3.61713

>  <SCORE.INTRA.DIHEDRAL>
7.79817

>  <SCORE.INTRA.DIHEDRAL.0>
6.87082

>  <SCORE.INTRA.POLAR>
0

>  <SCORE.INTRA.POLAR.0>
0

>  <SCORE.INTRA.REPUL>
0

>  <SCORE.INTRA.REPUL.0>
0

>  <SCORE.INTRA.SOLV>
-0.687551

>  <SCORE.INTRA.SOLV.lig_0>
-42.5944

>  <SCORE.INTRA.VDW>
0.0618217

>  <SCORE.INTRA.VDW.0>
-1.067

>  <SCORE.INTRA.norm>
0.226071

>  <SCORE.RESTR>
1.64716

>  <SCORE.RESTR.CAVITY>
1.64716

>  <SCORE.RESTR.norm>
0.102948

>  <SCORE.SYSTEM>
0

>  <SCORE.SYSTEM.CONST>
0

>  <SCORE.SYSTEM.DIHEDRAL>
0

>  <SCORE.SYSTEM.SOLV>
0

>  <SCORE.SYSTEM.norm>
0

>  <SCORE.heavy>
16

>  <SCORE.norm>
3.31205

>  <RMSD>
7.965

$$$$
1f27 biotin aptamer (Xray 1.3A)
 OpenBabel11021811393D
libRbt.so/2013.1/901 2013/11/27
 16 17  0  0  0  0  0  0  0  0999 V2000
    9.8679    4.8898   12.6350 C   0  0  0  0  0  0  0  0  0  0  0  0
   10.7924    5.3621   11.9810 O   0  5  0  0  0  0  0  0  0  0  0  0
    8.7687    5.4415   12.6272 O   0  0  0  0  0  0  0  0  0  0  0  0
   10.0600    3.5865   13.3998 C   0  0  0  0  0  0  0  0  0  0  0  0
   11.3738    3.5223   14.2102 C   0  0  0  0  0  0  0  0  0  0  0  0
   11.7933    2.0901   14.4852 C   0  0  0  0  0  0  0  0  0  0  0  0
   13.2433    1.9541   14.9008 C   0  0  0  0  0  0  0  0  0  0  0  0
   14.2431    2.6907   13.9996 C   0  0  2  0  0  0  0  0  0  0  0  0
   13.9785    2.4854   12.1145 S   0  0  0  0  0  0  0  0  0  0  0  0
   15.7353    3.2018   11.9010 C   0  0  0  0  0  0  0  0  0  0  0  0
   16.5439    2.6540   13.1131 C   0  0  2  0  0  0  0  0  0  0  0  0
   17.1642    1.3150   12.6317 N   0  0  0  0  0  0  0  0  0  0  0  0
   16.8009    0.3201   13.3182 C   0  0  0  0  0  0  0  0  0  0  0  0
   16.9764   -0.9342   13.1190 O   0  0  0  0  0  0  0  0  0  0  0  0
   15.7734    0.6272   14.2865 N   0  0  0  0  0  0  0  0  0  0  0  0
   15.6550    2.1502   14.2370 C   0  0  2  0  0  0  0  0  0  0  0  0
  1  2  1  0  0  0  0
  1  3  2  0  0  0  0
  1  4  1  0  0  0  0
  4  5  1  0  0  0  0
  5  6  1  0  0  0  0
  6  7  1  0  0  0  0
  8  7  1  1  0  0  0
  8  9  1  0  0  0  0
  8 16  1  0  0  0  0
  9 10  1  0  0  0  0
 11 10  1  6  0  0  0
 11 12  1  0  0  0  0
 11 16  1  0  0  0  0
 12 13  1  0  0  0  0
 13 14  2  0  0  0  0
 13 15  1  0  0  0  0
 16 15  1  6  0  0  0
M  CHG  1   2  -1
M  END
>  <CHROM.1>
45.99880737,-157.28492545,162.90595156,-48.92416210,-45.12954873,13.66602389
2.57908929,13.20322045,-2.75559824,-0.36574293,2.33504957

>  <Name>
1f27 biotin aptamer (Xray 1.3A)

>  <RI>
224

>  <Rbt.Current_Directory>
/home/itssahil/PROJECTS/Mol_Feturizer/New_Systems/rnas/1f27

>  <Rbt.Executable>
rbdock ($Id: //depot/dev/client3/rdock/2013.1/src/exe/rbdock.cxx#4 $)

>  <Rbt.Library>
libRbt.so (2013.1, Build901 2013/11/27)

>  <Rbt.Parameter_File>
/export/apps/rDock/src/rDock_2013.1_src/data/scripts/dock_solv.prm

>  <Rbt.Receptor>
prm/blind_docking_80.prm

>  <SCORE>
-24.3518

>  <SCORE.INTER>
-23.9682

>  <SCORE.INTER.CONST>
1

>  <SCORE.INTER.POLAR>
-1.44656

>  <SCORE.INTER.ROT>
5

>  <SCORE.INTER.SOLV>
13.0426

>  <SCORE.INTER.VDW>
-22.4378

>  <SCORE.INTER.norm>
-1.49801

>  <SCORE.INTRA>
-0.383607

>  <SCORE.INTRA.DIHEDRAL>
-1.39164

>  <SCORE.INTRA.DIHEDRAL.0>
6.87082

>  <SCORE.INTRA.POLAR>
0

>  <SCORE.INTRA.POLAR.0>
0

>  <SCORE.INTRA.REPUL>
0

>  <SCORE.INTRA.REPUL.0>
0

>  <SCORE.INTRA.SOLV>
-0.465969

>  <SCORE.INTRA.SOLV.lig_0>
-42.5944

>  <SCORE.INTRA.VDW>
0.545196

>  <SCORE.INTRA.VDW.0>
-1.067

>  <SCORE.INTRA.norm>
-0.0239754

>  <SCORE.RESTR>
0

>  <SCORE.RESTR.CAVITY>
0

>  <SCORE.RESTR.norm>
0

>  <SCORE.SYSTEM>
0

>  <SCORE.SYSTEM.CONST>
0

>  <SCORE.SYSTEM.DIHEDRAL>
0

>  <SCORE.SYSTEM.SOLV>
0

>  <SCORE.SYSTEM.norm>
0

>  <SCORE.heavy>
16

>  <SCORE.norm>
-1.52199

>  <RMSD>
8.008

$$$$
1f27 biotin aptamer (Xray 1.3A)
 OpenBabel11021811393D
libRbt.so/2013.1/901 2013/11/27
 16 17  0  0  0  0  0  0  0  0999 V2000
    8.8736    2.4279   16.3078 C   0  0  0  0  0  0  0  0  0  0  0  0
    8.0133    3.2605   16.5764 O   0  5  0  0  0  0  0  0  0  0  0  0
    8.9108    1.3654   16.9260 O   0  0  0  0  0  0  0  0  0  0  0  0
    9.8506    2.6791   15.1664 C   0  0  0  0  0  0  0  0  0  0  0  0
   11.2399    2.0367   15.3768 C   0  0  0  0  0  0  0  0  0  0  0  0
   12.2726    2.6103   14.4243 C   0  0  0  0  0  0  0  0  0  0  0  0
   13.6747    2.0930   14.6698 C   0  0  0  0  0  0  0  0  0  0  0  0
   14.7594    2.7321   13.7928 C   0  0  2  0  0  0  0  0  0  0  0  0
   14.5517    2.5001   11.9037 S   0  0  0  0  0  0  0  0  0  0  0  0
   16.3634    3.0807   11.7440 C   0  0  0  0  0  0  0  0  0  0  0  0
   17.0831    2.5055   12.9987 C   0  0  2  0  0  0  0  0  0  0  0  0
   17.6204    1.1134   12.5715 N   0  0  0  0  0  0  0  0  0  0  0  0
   17.1589    0.1650   13.2649 C   0  0  0  0  0  0  0  0  0  0  0  0
   17.2486   -1.1033   13.1003 O   0  0  0  0  0  0  0  0  0  0  0  0
   16.1212    0.5701   14.1849 N   0  0  0  0  0  0  0  0  0  0  0  0
   16.1176    2.0960   14.0974 C   0  0  2  0  0  0  0  0  0  0  0  0
  1  2  1  0  0  0  0
  1  3  2  0  0  0  0
  1  4  1  0  0  0  0
  4  5  1  0  0  0  0
  5  6  1  0  0  0  0
  6  7  1  0  0  0  0
  8  7  1  1  0  0  0
  8  9  1  0  0  0  0
  8 16  1  0  0  0  0
  9 10  1  0  0  0  0
 11 10  1  6  0  0  0
 11 12  1  0  0  0  0
 11 16  1  0  0  0  0
 12 13  1  0  0  0  0
 13 14  2  0  0  0  0
 13 15  1  0  0  0  0
 16 15  1  6  0  0  0
M  CHG  1   2  -1
M  END
>  <CHROM.1>
149.20989477,-164.70524352,175.25852130,-175.63287024,-60.48805952,13.75419751
1.90283451,14.04647243,-3.01203110,0.42171280,-0.64998795

>  <Name>
1f27 biotin aptamer (Xray 1.3A)

>  <RI>
0

>  <Rbt.Current_Directory>
/home/itssahil/PROJECTS/Mol_Feturizer/New_Systems/rnas/1f27

>  <Rbt.Executable>
rbdock ($Id: //depot/dev/client3/rdock/2013.1/src/exe/rbdock.cxx#4 $)

>  <Rbt.Library>
libRbt.so (2013.1, Build901 2013/11/27)

>  <Rbt.Parameter_File>
/export/apps/rDock/src/rDock_2013.1_src/data/scripts/dock_solv.prm

>  <Rbt.Receptor>
prm/blind_docking_60.prm

>  <SCORE>
-24.8521

>  <SCORE.INTER>
-22.5032

>  <SCORE.INTER.CONST>
1

>  <SCORE.INTER.POLAR>
-0.848528

>  <SCORE.INTER.ROT>
5

>  <SCORE.INTER.SOLV>
9.23429

>  <SCORE.INTER.VDW>
-22.1851

>  <SCORE.INTER.norm>
-1.40645

>  <SCORE.INTRA>
-2.34888

>  <SCORE.INTRA.DIHEDRAL>
-4.62063

>  <SCORE.INTRA.DIHEDRAL.0>
6.87082

>  <SCORE.INTRA.POLAR>
0

>  <SCORE.INTRA.POLAR.0>
0

>  <SCORE.INTRA.REPUL>
0

>  <SCORE.INTRA.REPUL.0>
0

>  <SCORE.INTRA.SOLV>
-0.820827

>  <SCORE.INTRA.SOLV.lig_0>
-42.5944

>  <SCORE.INTRA.VDW>
0.371844

>  <SCORE.INTRA.VDW.0>
-1.067

>  <SCORE.INTRA.norm>
-0.146805

>  <SCORE.RESTR>
0

>  <SCORE.RESTR.CAVITY>
0

>  <SCORE.RESTR.norm>
0

>  <SCORE.SYSTEM>
0

>  <SCORE.SYSTEM.CONST>
0

>  <SCORE.SYSTEM.DIHEDRAL>
0

>  <SCORE.SYSTEM.SOLV>
0

>  <SCORE.SYSTEM.norm>
0

>  <SCORE.heavy>
16

>  <SCORE.norm>
-1.55326

>  <RMSD>
8.021

$$$$
1f27 biotin aptamer (Xray 1.3A)
 OpenBabel11021811393D
libRbt.so/2013.1/901 2013/11/27
 16 17  0  0  0  0  0  0  0  0999 V2000
    9.7670    4.9397   12.2900 C   0  0  0  0  0  0  0  0  0  0  0  0
    8.6062    4.5836   12.4662 O   0  5  0  0  0  0  0  0  0  0  0  0
   10.0078    6.1002   11.9617 O   0  0  0  0  0  0  0  0  0  0  0  0
   10.9119    3.9672   12.5432 C   0  0  0  0  0  0  0  0  0  0  0  0
   11.6980    3.5785   11.2713 C   0  0  0  0  0  0  0  0  0  0  0  0
   12.9051    4.4743   11.0628 C   0  0  0  0  0  0  0  0  0  0  0  0
   14.1912    3.7103   10.8262 C   0  0  0  0  0  0  0  0  0  0  0  0
   15.1808    3.7371   11.9985 C   0  0  2  0  0  0  0  0  0  0  0  0
   16.7277    2.6243   11.8126 S   0  0  0  0  0  0  0  0  0  0  0  0
   17.0081    2.8899   13.6824 C   0  0  0  0  0  0  0  0  0  0  0  0
   15.5803    2.9464   14.2999 C   0  0  2  0  0  0  0  0  0  0  0  0
   15.2325    1.4835   14.6847 N   0  0  0  0  0  0  0  0  0  0  0  0
   14.2035    1.0439   14.1005 C   0  0  0  0  0  0  0  0  0  0  0  0
   13.7225   -0.1434   14.0484 O   0  0  0  0  0  0  0  0  0  0  0  0
   13.6811    1.9386   13.0934 N   0  0  0  0  0  0  0  0  0  0  0  0
   14.5003    3.2172   13.2668 C   0  0  2  0  0  0  0  0  0  0  0  0
  1  2  1  0  0  0  0
  1  3  2  0  0  0  0
  1  4  1  0  0  0  0
  4  5  1  0  0  0  0
  5  6  1  0  0  0  0
  6  7  1  0  0  0  0
  8  7  1  6  0  0  0
  8  9  1  0  0  0  0
  8 16  1  0  0  0  0
  9 10  1  0  0  0  0
 11 10  1  6  0  0  0
 11 12  1  0  0  0  0
 11 16  1  0  0  0  0
 12 13  1  0  0  0  0
 13 14  2  0  0  0  0
 13 15  1  0  0  0  0
 16 15  1  6  0  0  0
M  CHG  1   2  -1
M  END
>  <CHROM.1>
114.10618237,93.24715477,129.34700620,-107.54585946,173.43044671,13.56579048
3.14545783,12.64490026,2.70061621,0.15226969,-0.71946536

>  <Name>
1f27 biotin aptamer (Xray 1.3A)

>  <RI>
0

>  <Rbt.Current_Directory>
/home/itssahil/PROJECTS/Mol_Feturizer/New_Systems/rnas/1f27

>  <Rbt.Executable>
rbdock ($Id: //depot/dev/client3/rdock/2013.1/src/exe/rbdock.cxx#4 $)

>  <Rbt.Library>
libRbt.so (2013.1, Build901 2013/11/27)

>  <Rbt.Parameter_File>
/export/apps/rDock/src/rDock_2013.1_src/data/scripts/dock_solv.prm

>  <Rbt.Receptor>
prm/blind_docking_40.prm

>  <SCORE>
-21.7328

>  <SCORE.INTER>
-26.5344

>  <SCORE.INTER.CONST>
1

>  <SCORE.INTER.POLAR>
-2.06833

>  <SCORE.INTER.ROT>
5

>  <SCORE.INTER.SOLV>
13.5884

>  <SCORE.INTER.VDW>
-22.258

>  <SCORE.INTER.norm>
-1.6584

>  <SCORE.INTRA>
4.80148

>  <SCORE.INTRA.DIHEDRAL>
9.09147

>  <SCORE.INTRA.DIHEDRAL.0>
6.87082

>  <SCORE.INTRA.POLAR>
0

>  <SCORE.INTRA.POLAR.0>
0

>  <SCORE.INTRA.REPUL>
0

>  <SCORE.INTRA.REPUL.0>
0

>  <SCORE.INTRA.SOLV>
0.437183

>  <SCORE.INTRA.SOLV.lig_0>
-42.5944

>  <SCORE.INTRA.VDW>
0.0371523

>  <SCORE.INTRA.VDW.0>
-1.067

>  <SCORE.INTRA.norm>
0.300092

>  <SCORE.RESTR>
0.000170579

>  <SCORE.RESTR.CAVITY>
0.000170579

>  <SCORE.RESTR.norm>
1.06612e-05

>  <SCORE.SYSTEM>
0

>  <SCORE.SYSTEM.CONST>
0

>  <SCORE.SYSTEM.DIHEDRAL>
0

>  <SCORE.SYSTEM.SOLV>
0

>  <SCORE.SYSTEM.norm>
0

>  <SCORE.heavy>
16

>  <SCORE.norm>
-1.3583

>  <RMSD>
8.044

$$$$
1f27 biotin aptamer (Xray 1.3A)
 OpenBabel11021811393D
libRbt.so/2013.1/901 2013/11/27
 16 17  0  0  0  0  0  0  0  0999 V2000
   11.1413    3.5417   13.1692 C   0  0  0  0  0  0  0  0  0  0  0  0
   10.0253    3.1543   13.5004 O   0  5  0  0  0  0  0  0  0  0  0  0
   11.2572    4.5435   12.4653 O   0  0  0  0  0  0  0  0  0  0  0  0
   12.3832    2.8252   13.6839 C   0  0  0  0  0  0  0  0  0  0  0  0
   13.6931    3.2651   12.9928 C   0  0  0  0  0  0  0  0  0  0  0  0
   13.8021    2.7017   11.5879 C   0  0  0  0  0  0  0  0  0  0  0  0
   13.0266    3.4948   10.5568 C   0  0  0  0  0  0  0  0  0  0  0  0
   13.8932    4.2807    9.5640 C   0  0  2  0  0  0  0  0  0  0  0  0
   12.9841    5.6137    8.5332 S   0  0  0  0  0  0  0  0  0  0  0  0
   14.5305    5.6457    7.4140 C   0  0  0  0  0  0  0  0  0  0  0  0
   15.0343    4.1732    7.3806 C   0  0  2  0  0  0  0  0  0  0  0  0
   14.3219    3.5145    6.1691 N   0  0  0  0  0  0  0  0  0  0  0  0
   13.6046    2.5260    6.4876 C   0  0  0  0  0  0  0  0  0  0  0  0
   12.7617    1.8543    5.7932 O   0  0  0  0  0  0  0  0  0  0  0  0
   13.4825    2.3333    7.9143 N   0  0  0  0  0  0  0  0  0  0  0  0
   14.4732    3.3312    8.5134 C   0  0  2  0  0  0  0  0  0  0  0  0
  1  2  1  0  0  0  0
  1  3  2  0  0  0  0
  1  4  1  0  0  0  0
  4  5  1  0  0  0  0
  5  6  1  0  0  0  0
  6  7  1  0  0  0  0
  8  7  1  1  0  0  0
  8  9  1  0  0  0  0
  8 16  1  0  0  0  0
  9 10  1  0  0  0  0
 11 10  1  1  0  0  0
 11 12  1  0  0  0  0
 11 16  1  0  0  0  0
 12 13  1  0  0  0  0
 13 14  2  0  0  0  0
 13 15  1  0  0  0  0
 16 15  1  6  0  0  0
M  CHG  1   2  -1
M  END
>  <CHROM.1>
169.85703306,-74.30936870,81.36586373,109.80097344,-165.62901100,13.09524137
3.69146679,9.65442309,2.64381648,1.18049794,0.56298152

>  <Name>
1f27 biotin aptamer (Xray 1.3A)

>  <RI>
0

>  <Rbt.Current_Directory>
/home/itssahil/PROJECTS/Mol_Feturizer/New_Systems/rnas/1f27

>  <Rbt.Executable>
rbdock ($Id: //depot/dev/client3/rdock/2013.1/src/exe/rbdock.cxx#4 $)

>  <Rbt.Library>
libRbt.so (2013.1, Build901 2013/11/27)

>  <Rbt.Parameter_File>
/export/apps/rDock/src/rDock_2013.1_src/data/scripts/dock_solv.prm

>  <Rbt.Receptor>
prm/blind_docking_20.prm

>  <SCORE>
53.7079

>  <SCORE.INTER>
48.6237

>  <SCORE.INTER.CONST>
1

>  <SCORE.INTER.POLAR>
0

>  <SCORE.INTER.ROT>
5

>  <SCORE.INTER.SOLV>
19.3625

>  <SCORE.INTER.VDW>
19.0283

>  <SCORE.INTER.norm>
3.03898

>  <SCORE.INTRA>
3.64448

>  <SCORE.INTRA.DIHEDRAL>
3.37524

>  <SCORE.INTRA.DIHEDRAL.0>
6.87082

>  <SCORE.INTRA.POLAR>
0

>  <SCORE.INTRA.POLAR.0>
0

>  <SCORE.INTRA.REPUL>
0

>  <SCORE.INTRA.REPUL.0>
0

>  <SCORE.INTRA.SOLV>
1.64317

>  <SCORE.INTRA.SOLV.lig_0>
-42.5944

>  <SCORE.INTRA.VDW>
1.13527

>  <SCORE.INTRA.VDW.0>
-1.067

>  <SCORE.INTRA.norm>
0.22778

>  <SCORE.RESTR>
1.43976

>  <SCORE.RESTR.CAVITY>
1.43976

>  <SCORE.RESTR.norm>
0.0899853

>  <SCORE.SYSTEM>
0

>  <SCORE.SYSTEM.CONST>
0

>  <SCORE.SYSTEM.DIHEDRAL>
0

>  <SCORE.SYSTEM.SOLV>
0

>  <SCORE.SYSTEM.norm>
0

>  <SCORE.heavy>
16

>  <SCORE.norm>
3.35674

>  <RMSD>
8.111

$$$$
1f27 biotin aptamer (Xray 1.3A)
 OpenBabel11021811393D
libRbt.so/2013.1/901 2013/11/27
 16 17  0  0  0  0  0  0  0  0999 V2000
   10.3431    3.6354   14.1202 C   0  0  0  0  0  0  0  0  0  0  0  0
   10.0369    4.7705   13.7693 O   0  5  0  0  0  0  0  0  0  0  0  0
    9.4722    2.8600   14.5111 O   0  0  0  0  0  0  0  0  0  0  0  0
   11.7873    3.1639   14.0079 C   0  0  0  0  0  0  0  0  0  0  0  0
   12.3792    3.2885   12.5862 C   0  0  0  0  0  0  0  0  0  0  0  0
   13.7772    2.7033   12.5080 C   0  0  0  0  0  0  0  0  0  0  0  0
   14.2812    2.5293   11.0905 C   0  0  0  0  0  0  0  0  0  0  0  0
   14.3147    3.8169   10.2567 C   0  0  2  0  0  0  0  0  0  0  0  0
   12.6292    4.6852    9.9909 S   0  0  0  0  0  0  0  0  0  0  0  0
   13.4920    5.7006    8.6237 C   0  0  0  0  0  0  0  0  0  0  0  0
   14.5039    4.7159    7.9682 C   0  0  2  0  0  0  0  0  0  0  0  0
   13.7326    4.0357    6.8056 N   0  0  0  0  0  0  0  0  0  0  0  0
   13.6576    2.7811    6.9217 C   0  0  0  0  0  0  0  0  0  0  0  0
   12.9739    1.9254    6.2553 O   0  0  0  0  0  0  0  0  0  0  0  0
   14.1619    2.2837    8.1811 N   0  0  0  0  0  0  0  0  0  0  0  0
   14.7999    3.5070    8.8387 C   0  0  2  0  0  0  0  0  0  0  0  0
  1  2  1  0  0  0  0
  1  3  2  0  0  0  0
  1  4  1  0  0  0  0
  4  5  1  0  0  0  0
  5  6  1  0  0  0  0
  6  7  1  0  0  0  0
  8  7  1  1  0  0  0
  8  9  1  0  0  0  0
  8 16  1  0  0  0  0
  9 10  1  0  0  0  0
 11 10  1  1  0  0  0
 11 12  1  0  0  0  0
 11 16  1  0  0  0  0
 12 13  1  0  0  0  0
 13 14  2  0  0  0  0
 13 15  1  0  0  0  0
 16 15  1  6  0  0  0
M  CHG  1   2  -1
M  END
>  <CHROM.1>
-55.65188887,-175.42519344,167.56841124,57.84727418,-60.79600460,12.82715121
3.59736416,10.38819387,2.29835957,-0.85213455,2.14655173

>  <Name>
1f27 biotin aptamer (Xray 1.3A)

>  <RI>
0

>  <Rbt.Current_Directory>
/home/itssahil/PROJECTS/Mol_Feturizer/New_Systems/rnas/1f27

>  <Rbt.Executable>
rbdock ($Id: //depot/dev/client3/rdock/2013.1/src/exe/rbdock.cxx#4 $)

>  <Rbt.Library>
libRbt.so (2013.1, Build901 2013/11/27)

>  <Rbt.Parameter_File>
/export/apps/rDock/src/rDock_2013.1_src/data/scripts/dock_solv.prm

>  <Rbt.Receptor>
prm/blind_docking_20.prm

>  <SCORE>
38.9732

>  <SCORE.INTER>
38.3761

>  <SCORE.INTER.CONST>
1

>  <SCORE.INTER.POLAR>
-1.72434

>  <SCORE.INTER.ROT>
5

>  <SCORE.INTER.SOLV>
16.9871

>  <SCORE.INTER.VDW>
18.7362

>  <SCORE.INTER.norm>
2.39851

>  <SCORE.INTRA>
-1.14593

>  <SCORE.INTRA.DIHEDRAL>
-4.7663

>  <SCORE.INTRA.DIHEDRAL.0>
6.87082

>  <SCORE.INTRA.POLAR>
0

>  <SCORE.INTRA.POLAR.0>
0

>  <SCORE.INTRA.REPUL>
0

>  <SCORE.INTRA.REPUL.0>
0

>  <SCORE.INTRA.SOLV>
-0.665486

>  <SCORE.INTRA.SOLV.lig_0>
-42.5944

>  <SCORE.INTRA.VDW>
1.56996

>  <SCORE.INTRA.VDW.0>
-1.067

>  <SCORE.INTRA.norm>
-0.0716209

>  <SCORE.RESTR>
1.74304

>  <SCORE.RESTR.CAVITY>
1.74304

>  <SCORE.RESTR.norm>
0.10894

>  <SCORE.SYSTEM>
0

>  <SCORE.SYSTEM.CONST>
0

>  <SCORE.SYSTEM.DIHEDRAL>
0

>  <SCORE.SYSTEM.SOLV>
0

>  <SCORE.SYSTEM.norm>
0

>  <SCORE.heavy>
16

>  <SCORE.norm>
2.43583

>  <RMSD>
8.111

$$$$
1f27 biotin aptamer (Xray 1.3A)
 OpenBabel11021811393D
libRbt.so/2013.1/901 2013/11/27
 16 17  0  0  0  0  0  0  0  0999 V2000
    9.4859    4.7731   12.6692 C   0  0  0  0  0  0  0  0  0  0  0  0
    9.2098    5.9683   12.6962 O   0  5  0  0  0  0  0  0  0  0  0  0
    9.3334    4.1333   11.6301 O   0  0  0  0  0  0  0  0  0  0  0  0
   10.0806    4.0980   13.8985 C   0  0  0  0  0  0  0  0  0  0  0  0
   11.3805    3.3123   13.6157 C   0  0  0  0  0  0  0  0  0  0  0  0
   11.8798    2.5907   14.8539 C   0  0  0  0  0  0  0  0  0  0  0  0
   13.1825    1.8492   14.6373 C   0  0  0  0  0  0  0  0  0  0  0  0
   14.2647    2.6504   13.9016 C   0  0  2  0  0  0  0  0  0  0  0  0
   14.1865    2.6017   11.9893 S   0  0  0  0  0  0  0  0  0  0  0  0
   15.9547    3.3216   12.0081 C   0  0  0  0  0  0  0  0  0  0  0  0
   16.6414    2.6712   13.2445 C   0  0  2  0  0  0  0  0  0  0  0  0
   17.3078    1.3721   12.7178 N   0  0  0  0  0  0  0  0  0  0  0  0
   16.8805    0.3268   13.2816 C   0  0  0  0  0  0  0  0  0  0  0  0
   17.0765   -0.9082   12.9983 O   0  0  0  0  0  0  0  0  0  0  0  0
   15.7626    0.5604   14.1666 N   0  0  0  0  0  0  0  0  0  0  0  0
   15.6473    2.0831   14.2308 C   0  0  2  0  0  0  0  0  0  0  0  0
  1  2  1  0  0  0  0
  1  3  2  0  0  0  0
  1  4  1  0  0  0  0
  4  5  1  0  0  0  0
  5  6  1  0  0  0  0
  6  7  1  0  0  0  0
  8  7  1  1  0  0  0
  8  9  1  0  0  0  0
  8 16  1  0  0  0  0
  9 10  1  0  0  0  0
 11 10  1  6  0  0  0
 11 12  1  0  0  0  0
 11 16  1  0  0  0  0
 12 13  1  0  0  0  0
 13 14  2  0  0  0  0
 13 15  1  0  0  0  0
 16 15  1  6  0  0  0
M  CHG  1   2  -1
M  END
>  <CHROM.1>
-127.84619388,-176.43293841,-177.79032479,46.31765969,-85.57071183,13.64810534
2.58629097,13.16604942,-2.80986673,-0.36853798,2.25253550

>  <Name>
1f27 biotin aptamer (Xray 1.3A)

>  <RI>
224

>  <Rbt.Current_Directory>
/home/itssahil/PROJECTS/Mol_Feturizer/New_Systems/rnas/1f27

>  <Rbt.Executable>
rbdock ($Id: //depot/dev/client3/rdock/2013.1/src/exe/rbdock.cxx#4 $)

>  <Rbt.Library>
libRbt.so (2013.1, Build901 2013/11/27)

>  <Rbt.Parameter_File>
/export/apps/rDock/src/rDock_2013.1_src/data/scripts/dock_solv.prm

>  <Rbt.Receptor>
prm/blind_docking_80.prm

>  <SCORE>
-22.451

>  <SCORE.INTER>
-21.5759

>  <SCORE.INTER.CONST>
1

>  <SCORE.INTER.POLAR>
-0.795996

>  <SCORE.INTER.ROT>
5

>  <SCORE.INTER.SOLV>
11.8722

>  <SCORE.INTER.VDW>
-22.6214

>  <SCORE.INTER.norm>
-1.3485

>  <SCORE.INTRA>
-0.875105

>  <SCORE.INTRA.DIHEDRAL>
-2.40778

>  <SCORE.INTRA.DIHEDRAL.0>
6.87082

>  <SCORE.INTRA.POLAR>
0

>  <SCORE.INTRA.POLAR.0>
0

>  <SCORE.INTRA.REPUL>
0

>  <SCORE.INTRA.REPUL.0>
0

>  <SCORE.INTRA.SOLV>
-0.774418

>  <SCORE.INTRA.SOLV.lig_0>
-42.5944

>  <SCORE.INTRA.VDW>
0.715996

>  <SCORE.INTRA.VDW.0>
-1.067

>  <SCORE.INTRA.norm>
-0.054694

>  <SCORE.RESTR>
0

>  <SCORE.RESTR.CAVITY>
0

>  <SCORE.RESTR.norm>
0

>  <SCORE.SYSTEM>
0

>  <SCORE.SYSTEM.CONST>
0

>  <SCORE.SYSTEM.DIHEDRAL>
0

>  <SCORE.SYSTEM.SOLV>
0

>  <SCORE.SYSTEM.norm>
0

>  <SCORE.heavy>
16

>  <SCORE.norm>
-1.40319

>  <RMSD>
8.116

$$$$
1f27 biotin aptamer (Xray 1.3A)
 OpenBabel11021811393D
libRbt.so/2013.1/901 2013/11/27
 16 17  0  0  0  0  0  0  0  0999 V2000
    9.1156    4.3798   12.4444 C   0  0  0  0  0  0  0  0  0  0  0  0
    9.1914    4.6774   13.6323 O   0  5  0  0  0  0  0  0  0  0  0  0
    8.0680    3.9182   11.9950 O   0  0  0  0  0  0  0  0  0  0  0  0
   10.2919    4.6445   11.5134 C   0  0  0  0  0  0  0  0  0  0  0  0
   11.6520    4.1671   12.0695 C   0  0  0  0  0  0  0  0  0  0  0  0
   12.7511    4.2719   11.0283 C   0  0  0  0  0  0  0  0  0  0  0  0
   14.1046    3.8137   11.5299 C   0  0  0  0  0  0  0  0  0  0  0  0
   14.1208    2.4086   12.1462 C   0  0  2  0  0  0  0  0  0  0  0  0
   13.4711    2.2757   13.9423 S   0  0  0  0  0  0  0  0  0  0  0  0
   14.2683    0.5415   13.9858 C   0  0  0  0  0  0  0  0  0  0  0  0
   15.5661    0.6731   13.1363 C   0  0  2  0  0  0  0  0  0  0  0  0
   16.6821    1.0766   14.1368 N   0  0  0  0  0  0  0  0  0  0  0  0
   17.2246    2.1825   13.8616 C   0  0  0  0  0  0  0  0  0  0  0  0
   18.0485    2.8940   14.5388 O   0  0  0  0  0  0  0  0  0  0  0  0
   16.5797    2.8922   12.7808 N   0  0  0  0  0  0  0  0  0  0  0  0
   15.5596    1.8943   12.2333 C   0  0  2  0  0  0  0  0  0  0  0  0
  1  2  1  0  0  0  0
  1  3  2  0  0  0  0
  1  4  1  0  0  0  0
  4  5  1  0  0  0  0
  5  6  1  0  0  0  0
  6  7  1  0  0  0  0
  8  7  1  1  0  0  0
  8  9  1  0  0  0  0
  8 16  1  0  0  0  0
  9 10  1  0  0  0  0
 11 10  1  1  0  0  0
 11 12  1  0  0  0  0
 11 16  1  0  0  0  0
 12 13  1  0  0  0  0
 13 14  2  0  0  0  0
 13 15  1  0  0  0  0
 16 15  1  1  0  0  0
M  CHG  1   2  -1
M  END
>  <CHROM.1>
47.72223114,171.81890393,-179.99394754,53.19780260,-79.07235500,13.50916464
2.89736105,12.91453058,2.77688978,0.09872449,-0.77751738

>  <Name>
1f27 biotin aptamer (Xray 1.3A)

>  <RI>
0

>  <Rbt.Current_Directory>
/home/itssahil/PROJECTS/Mol_Feturizer/New_Systems/rnas/1f27

>  <Rbt.Executable>
rbdock ($Id: //depot/dev/client3/rdock/2013.1/src/exe/rbdock.cxx#4 $)

>  <Rbt.Library>
libRbt.so (2013.1, Build901 2013/11/27)

>  <Rbt.Parameter_File>
/export/apps/rDock/src/rDock_2013.1_src/data/scripts/dock_solv.prm

>  <Rbt.Receptor>
prm/blind_docking_100.prm

>  <SCORE>
-28.1782

>  <SCORE.INTER>
-26.4767

>  <SCORE.INTER.CONST>
1

>  <SCORE.INTER.POLAR>
-1.69969

>  <SCORE.INTER.ROT>
5

>  <SCORE.INTER.SOLV>
9.05262

>  <SCORE.INTER.VDW>
-21.9364

>  <SCORE.INTER.norm>
-1.65479

>  <SCORE.INTRA>
-1.70151

>  <SCORE.INTRA.DIHEDRAL>
-3.82007

>  <SCORE.INTRA.DIHEDRAL.0>
6.87082

>  <SCORE.INTRA.POLAR>
0

>  <SCORE.INTRA.POLAR.0>
0

>  <SCORE.INTRA.REPUL>
0

>  <SCORE.INTRA.REPUL.0>
0

>  <SCORE.INTRA.SOLV>
-0.788738

>  <SCORE.INTRA.SOLV.lig_0>
-42.5944

>  <SCORE.INTRA.VDW>
0.602893

>  <SCORE.INTRA.VDW.0>
-1.067

>  <SCORE.INTRA.norm>
-0.106344

>  <SCORE.RESTR>
0

>  <SCORE.RESTR.CAVITY>
0

>  <SCORE.RESTR.norm>
0

>  <SCORE.SYSTEM>
0

>  <SCORE.SYSTEM.CONST>
0

>  <SCORE.SYSTEM.DIHEDRAL>
0

>  <SCORE.SYSTEM.SOLV>
0

>  <SCORE.SYSTEM.norm>
0

>  <SCORE.heavy>
16

>  <SCORE.norm>
-1.76114

>  <RMSD>
8.124

$$$$
1f27 biotin aptamer (Xray 1.3A)
 OpenBabel11021811393D
libRbt.so/2013.1/901 2013/11/27
 16 17  0  0  0  0  0  0  0  0999 V2000
    9.5613    4.8749   12.0939 C   0  0  0  0  0  0  0  0  0  0  0  0
   10.0002    5.8705   11.5270 O   0  5  0  0  0  0  0  0  0  0  0  0
    8.6696    4.2131   11.5653 O   0  0  0  0  0  0  0  0  0  0  0  0
   10.1652    4.4195   13.4163 C   0  0  0  0  0  0  0  0  0  0  0  0
   11.4081    3.5152   13.2601 C   0  0  0  0  0  0  0  0  0  0  0  0
   11.9023    3.0054   14.6013 C   0  0  0  0  0  0  0  0  0  0  0  0
   13.1682    2.1795   14.5049 C   0  0  0  0  0  0  0  0  0  0  0  0
   14.3231    2.8568   13.7553 C   0  0  2  0  0  0  0  0  0  0  0  0
   14.2937    2.6908   11.8482 S   0  0  0  0  0  0  0  0  0  0  0  0
   16.1065    3.2889   11.8780 C   0  0  0  0  0  0  0  0  0  0  0  0
   16.7125    2.6742   13.1734 C   0  0  2  0  0  0  0  0  0  0  0  0
   17.3009    1.3018   12.7498 N   0  0  0  0  0  0  0  0  0  0  0  0
   16.7867    0.3262   13.3638 C   0  0  0  0  0  0  0  0  0  0  0  0
   16.9040   -0.9348   13.1641 O   0  0  0  0  0  0  0  0  0  0  0  0
   15.6642    0.6914   14.1969 N   0  0  0  0  0  0  0  0  0  0  0  0
   15.6534    2.2194   14.1626 C   0  0  2  0  0  0  0  0  0  0  0  0
  1  2  1  0  0  0  0
  1  3  2  0  0  0  0
  1  4  1  0  0  0  0
  4  5  1  0  0  0  0
  5  6  1  0  0  0  0
  6  7  1  0  0  0  0
  8  7  1  1  0  0  0
  8  9  1  0  0  0  0
  8 16  1  0  0  0  0
  9 10  1  0  0  0  0
 11 10  1  6  0  0  0
 11 12  1  0  0  0  0
 11 16  1  0  0  0  0
 12 13  1  0  0  0  0
 13 14  2  0  0  0  0
 13 15  1  0  0  0  0
 16 15  1  6  0  0  0
M  CHG  1   2  -1
M  END
>  <CHROM.1>
-85.40244005,-175.59137696,-176.63690864,52.87786443,-83.99883572,13.67458331
2.69350650,12.96364747,-2.73965400,-0.32229553,2.26026506

>  <Name>
1f27 biotin aptamer (Xray 1.3A)

>  <RI>
224

>  <Rbt.Current_Directory>
/home/itssahil/PROJECTS/Mol_Feturizer/New_Systems/rnas/1f27

>  <Rbt.Executable>
rbdock ($Id: //depot/dev/client3/rdock/2013.1/src/exe/rbdock.cxx#4 $)

>  <Rbt.Library>
libRbt.so (2013.1, Build901 2013/11/27)

>  <Rbt.Parameter_File>
/export/apps/rDock/src/rDock_2013.1_src/data/scripts/dock_solv.prm

>  <Rbt.Receptor>
prm/blind_docking_80.prm

>  <SCORE>
-25.0461

>  <SCORE.INTER>
-23.342

>  <SCORE.INTER.CONST>
1

>  <SCORE.INTER.POLAR>
-1.30757

>  <SCORE.INTER.ROT>
5

>  <SCORE.INTER.SOLV>
12.8744

>  <SCORE.INTER.VDW>
-22.4275

>  <SCORE.INTER.norm>
-1.45887

>  <SCORE.INTRA>
-1.70414

>  <SCORE.INTRA.DIHEDRAL>
-3.28392

>  <SCORE.INTRA.DIHEDRAL.0>
6.87082

>  <SCORE.INTRA.POLAR>
0

>  <SCORE.INTRA.POLAR.0>
0

>  <SCORE.INTRA.REPUL>
0

>  <SCORE.INTRA.REPUL.0>
0

>  <SCORE.INTRA.SOLV>
-0.791002

>  <SCORE.INTRA.SOLV.lig_0>
-42.5944

>  <SCORE.INTRA.VDW>
0.333327

>  <SCORE.INTRA.VDW.0>
-1.067

>  <SCORE.INTRA.norm>
-0.106508

>  <SCORE.RESTR>
0

>  <SCORE.RESTR.CAVITY>
0

>  <SCORE.RESTR.norm>
0

>  <SCORE.SYSTEM>
0

>  <SCORE.SYSTEM.CONST>
0

>  <SCORE.SYSTEM.DIHEDRAL>
0

>  <SCORE.SYSTEM.SOLV>
0

>  <SCORE.SYSTEM.norm>
0

>  <SCORE.heavy>
16

>  <SCORE.norm>
-1.56538

>  <RMSD>
8.146

$$$$
1f27 biotin aptamer (Xray 1.3A)
 OpenBabel11021811393D
libRbt.so/2013.1/901 2013/11/27
 16 17  0  0  0  0  0  0  0  0999 V2000
    9.9314    3.3037   13.7758 C   0  0  0  0  0  0  0  0  0  0  0  0
    9.7928    4.1463   14.6569 O   0  5  0  0  0  0  0  0  0  0  0  0
    9.2147    2.3044   13.7669 O   0  0  0  0  0  0  0  0  0  0  0  0
   10.9408    3.5266   12.6568 C   0  0  0  0  0  0  0  0  0  0  0  0
   12.4023    3.6426   13.1441 C   0  0  0  0  0  0  0  0  0  0  0  0
   13.1979    2.3883   12.8334 C   0  0  0  0  0  0  0  0  0  0  0  0
   13.5500    2.2434   11.3676 C   0  0  0  0  0  0  0  0  0  0  0  0
   13.8114    3.5657   10.6346 C   0  0  2  0  0  0  0  0  0  0  0  0
   12.2607    4.5999   10.1967 S   0  0  0  0  0  0  0  0  0  0  0  0
   13.3938    5.6037    9.0333 C   0  0  0  0  0  0  0  0  0  0  0  0
   14.4029    4.5665    8.4598 C   0  0  2  0  0  0  0  0  0  0  0  0
   13.7525    4.0250    7.1586 N   0  0  0  0  0  0  0  0  0  0  0  0
   13.5562    2.7783    7.1790 C   0  0  0  0  0  0  0  0  0  0  0  0
   12.9060    2.0273    6.3685 O   0  0  0  0  0  0  0  0  0  0  0  0
   13.8304    2.1685    8.4598 N   0  0  0  0  0  0  0  0  0  0  0  0
   14.4677    3.2897    9.2800 C   0  0  2  0  0  0  0  0  0  0  0  0
  1  2  1  0  0  0  0
  1  3  2  0  0  0  0
  1  4  1  0  0  0  0
  4  5  1  0  0  0  0
  5  6  1  0  0  0  0
  6  7  1  0  0  0  0
  8  7  1  6  0  0  0
  8  9  1  0  0  0  0
  8 16  1  0  0  0  0
  9 10  1  0  0  0  0
 11 10  1  1  0  0  0
 11 12  1  0  0  0  0
 11 16  1  0  0  0  0
 12 13  1  0  0  0  0
 13 14  2  0  0  0  0
 13 15  1  0  0  0  0
 16 15  1  6  0  0  0
M  CHG  1   2  -1
M  END
>  <CHROM.1>
61.67265514,105.49403292,73.64620575,33.66791427,-75.68584817,12.51798170
3.45929947,10.54925306,2.81761796,1.04181749,0.38284233

>  <Name>
1f27 biotin aptamer (Xray 1.3A)

>  <RI>
0

>  <Rbt.Current_Directory>
/home/itssahil/PROJECTS/Mol_Feturizer/New_Systems/rnas/1f27

>  <Rbt.Executable>
rbdock ($Id: //depot/dev/client3/rdock/2013.1/src/exe/rbdock.cxx#4 $)

>  <Rbt.Library>
libRbt.so (2013.1, Build901 2013/11/27)

>  <Rbt.Parameter_File>
/export/apps/rDock/src/rDock_2013.1_src/data/scripts/dock_solv.prm

>  <Rbt.Receptor>
prm/blind_docking_20.prm

>  <SCORE>
43.2102

>  <SCORE.INTER>
36.7884

>  <SCORE.INTER.CONST>
1

>  <SCORE.INTER.POLAR>
-1.32462

>  <SCORE.INTER.ROT>
5

>  <SCORE.INTER.SOLV>
17.1118

>  <SCORE.INTER.VDW>
16.3038

>  <SCORE.INTER.norm>
2.29928

>  <SCORE.INTRA>
4.31341

>  <SCORE.INTRA.DIHEDRAL>
3.26828

>  <SCORE.INTRA.DIHEDRAL.0>
6.87082

>  <SCORE.INTRA.POLAR>
0

>  <SCORE.INTRA.POLAR.0>
0

>  <SCORE.INTRA.REPUL>
0

>  <SCORE.INTRA.REPUL.0>
0

>  <SCORE.INTRA.SOLV>
-0.240926

>  <SCORE.INTRA.SOLV.lig_0>
-42.5944

>  <SCORE.INTRA.VDW>
2.79974

>  <SCORE.INTRA.VDW.0>
-1.067

>  <SCORE.INTRA.norm>
0.269588

>  <SCORE.RESTR>
2.10839

>  <SCORE.RESTR.CAVITY>
2.10839

>  <SCORE.RESTR.norm>
0.131774

>  <SCORE.SYSTEM>
0

>  <SCORE.SYSTEM.CONST>
0

>  <SCORE.SYSTEM.DIHEDRAL>
0

>  <SCORE.SYSTEM.SOLV>
0

>  <SCORE.SYSTEM.norm>
0

>  <SCORE.heavy>
16

>  <SCORE.norm>
2.70064

>  <RMSD>
8.160

$$$$
1f27 biotin aptamer (Xray 1.3A)
 OpenBabel11021811393D
libRbt.so/2013.1/901 2013/11/27
 16 17  0  0  0  0  0  0  0  0999 V2000
   10.2101    3.3852   14.1369 C   0  0  0  0  0  0  0  0  0  0  0  0
    9.5034    2.8551   13.2855 O   0  5  0  0  0  0  0  0  0  0  0  0
    9.6930    3.9010   15.1264 O   0  0  0  0  0  0  0  0  0  0  0  0
   11.7271    3.3454   14.0044 C   0  0  0  0  0  0  0  0  0  0  0  0
   12.2264    3.2067   12.5489 C   0  0  0  0  0  0  0  0  0  0  0  0
   13.7006    2.8511   12.4936 C   0  0  0  0  0  0  0  0  0  0  0  0
   14.2148    2.6220   11.0876 C   0  0  0  0  0  0  0  0  0  0  0  0
   14.2982    3.8841   10.2191 C   0  0  2  0  0  0  0  0  0  0  0  0
   12.6432    4.7941    9.9051 S   0  0  0  0  0  0  0  0  0  0  0  0
   13.5546    5.7447    8.5229 C   0  0  0  0  0  0  0  0  0  0  0  0
   14.5453    4.7125    7.9095 C   0  0  2  0  0  0  0  0  0  0  0  0
   13.7699    4.0230    6.7552 N   0  0  0  0  0  0  0  0  0  0  0  0
   13.6558    2.7749    6.9049 C   0  0  0  0  0  0  0  0  0  0  0  0
   12.9558    1.9214    6.2527 O   0  0  0  0  0  0  0  0  0  0  0  0
   14.1277    2.2983    8.1847 N   0  0  0  0  0  0  0  0  0  0  0  0
   14.7931    3.5202    8.8174 C   0  0  2  0  0  0  0  0  0  0  0  0
  1  2  1  0  0  0  0
  1  3  2  0  0  0  0
  1  4  1  0  0  0  0
  4  5  1  0  0  0  0
  5  6  1  0  0  0  0
  6  7  1  0  0  0  0
  8  7  1  1  0  0  0
  8  9  1  0  0  0  0
  8 16  1  0  0  0  0
  9 10  1  0  0  0  0
 11 10  1  1  0  0  0
 11 12  1  0  0  0  0
 11 16  1  0  0  0  0
 12 13  1  0  0  0  0
 13 14  2  0  0  0  0
 13 15  1  0  0  0  0
 16 15  1  6  0  0  0
M  CHG  1   2  -1
M  END
>  <CHROM.1>
26.02023454,-166.79842500,176.48910225,69.84607888,-60.95617709,12.78482407
3.56769359,10.36703425,2.15547796,0.62833319,1.21675092

>  <Name>
1f27 biotin aptamer (Xray 1.3A)

>  <RI>
0

>  <Rbt.Current_Directory>
/home/itssahil/PROJECTS/Mol_Feturizer/New_Systems/rnas/1f27

>  <Rbt.Executable>
rbdock ($Id: //depot/dev/client3/rdock/2013.1/src/exe/rbdock.cxx#4 $)

>  <Rbt.Library>
libRbt.so (2013.1, Build901 2013/11/27)

>  <Rbt.Parameter_File>
/export/apps/rDock/src/rDock_2013.1_src/data/scripts/dock_solv.prm

>  <Rbt.Receptor>
prm/blind_docking_20.prm

>  <SCORE>
42.6269

>  <SCORE.INTER>
42.1133

>  <SCORE.INTER.CONST>
1

>  <SCORE.INTER.POLAR>
-1.63379

>  <SCORE.INTER.ROT>
5

>  <SCORE.INTER.SOLV>
17.2181

>  <SCORE.INTER.VDW>
20.8488

>  <SCORE.INTER.norm>
2.63208

>  <SCORE.INTRA>
-1.70722

>  <SCORE.INTRA.DIHEDRAL>
-4.5388

>  <SCORE.INTRA.DIHEDRAL.0>
6.87082

>  <SCORE.INTRA.POLAR>
0

>  <SCORE.INTRA.POLAR.0>
0

>  <SCORE.INTRA.REPUL>
0

>  <SCORE.INTRA.REPUL.0>
0

>  <SCORE.INTRA.SOLV>
-0.667915

>  <SCORE.INTRA.SOLV.lig_0>
-42.5944

>  <SCORE.INTRA.VDW>
0.896137

>  <SCORE.INTRA.VDW.0>
-1.067

>  <SCORE.INTRA.norm>
-0.106701

>  <SCORE.RESTR>
2.22086

>  <SCORE.RESTR.CAVITY>
2.22086

>  <SCORE.RESTR.norm>
0.138804

>  <SCORE.SYSTEM>
0

>  <SCORE.SYSTEM.CONST>
0

>  <SCORE.SYSTEM.DIHEDRAL>
0

>  <SCORE.SYSTEM.SOLV>
0

>  <SCORE.SYSTEM.norm>
0

>  <SCORE.heavy>
16

>  <SCORE.norm>
2.66418

>  <RMSD>
8.160

$$$$
1f27 biotin aptamer (Xray 1.3A)
 OpenBabel11021811393D
libRbt.so/2013.1/901 2013/11/27
 16 17  0  0  0  0  0  0  0  0999 V2000
    9.7173    5.1968   12.7258 C   0  0  0  0  0  0  0  0  0  0  0  0
    8.9965    5.1773   13.7185 O   0  5  0  0  0  0  0  0  0  0  0  0
   10.0305    6.2723   12.2182 O   0  0  0  0  0  0  0  0  0  0  0  0
   10.2793    3.8974   12.1635 C   0  0  0  0  0  0  0  0  0  0  0  0
   11.7576    3.6414   12.5325 C   0  0  0  0  0  0  0  0  0  0  0  0
   11.9090    3.2259   13.9842 C   0  0  0  0  0  0  0  0  0  0  0  0
   13.2001    2.4878   14.2702 C   0  0  0  0  0  0  0  0  0  0  0  0
   14.4456    3.0878   13.6047 C   0  0  2  0  0  0  0  0  0  0  0  0
   14.6427    2.7403   11.7322 S   0  0  0  0  0  0  0  0  0  0  0  0
   16.4469    3.3347   11.9236 C   0  0  0  0  0  0  0  0  0  0  0  0
   16.8848    2.8455   13.3350 C   0  0  2  0  0  0  0  0  0  0  0  0
   17.5011    1.4376   13.1173 N   0  0  0  0  0  0  0  0  0  0  0  0
   16.9038    0.5263   13.7544 C   0  0  0  0  0  0  0  0  0  0  0  0
   17.0270   -0.7483   13.6906 O   0  0  0  0  0  0  0  0  0  0  0  0
   15.6946    0.9718   14.4077 N   0  0  0  0  0  0  0  0  0  0  0  0
   15.7088    2.4895   14.2279 C   0  0  2  0  0  0  0  0  0  0  0  0
  1  2  1  0  0  0  0
  1  3  2  0  0  0  0
  1  4  1  0  0  0  0
  4  5  1  0  0  0  0
  5  6  1  0  0  0  0
  6  7  1  0  0  0  0
  8  7  1  1  0  0  0
  8  9  1  0  0  0  0
  8 16  1  0  0  0  0
  9 10  1  0  0  0  0
 11 10  1  6  0  0  0
 11 12  1  0  0  0  0
 11 16  1  0  0  0  0
 12 13  1  0  0  0  0
 13 14  2  0  0  0  0
 13 15  1  0  0  0  0
 16 15  1  6  0  0  0
M  CHG  1   2  -1
M  END
>  <CHROM.1>
-101.85757276,74.09067913,158.75503201,43.02346571,-76.42200564,13.84727245
2.89978605,13.10004472,-2.72694833,-0.32128533,2.37178887

>  <Name>
1f27 biotin aptamer (Xray 1.3A)

>  <RI>
0

>  <Rbt.Current_Directory>
/home/itssahil/PROJECTS/Mol_Feturizer/New_Systems/rnas/1f27

>  <Rbt.Executable>
rbdock ($Id: //depot/dev/client3/rdock/2013.1/src/exe/rbdock.cxx#4 $)

>  <Rbt.Library>
libRbt.so (2013.1, Build901 2013/11/27)

>  <Rbt.Parameter_File>
/export/apps/rDock/src/rDock_2013.1_src/data/scripts/dock_solv.prm

>  <Rbt.Receptor>
prm/blind_docking_60.prm

>  <SCORE>
-22.5358

>  <SCORE.INTER>
-23.0589

>  <SCORE.INTER.CONST>
1

>  <SCORE.INTER.POLAR>
-1.76586

>  <SCORE.INTER.ROT>
5

>  <SCORE.INTER.SOLV>
12.1445

>  <SCORE.INTER.VDW>
-20.4679

>  <SCORE.INTER.norm>
-1.44118

>  <SCORE.INTRA>
0.52013

>  <SCORE.INTRA.DIHEDRAL>
-1.05293

>  <SCORE.INTRA.DIHEDRAL.0>
6.87082

>  <SCORE.INTRA.POLAR>
0

>  <SCORE.INTRA.POLAR.0>
0

>  <SCORE.INTRA.REPUL>
0

>  <SCORE.INTRA.REPUL.0>
0

>  <SCORE.INTRA.SOLV>
0.0479791

>  <SCORE.INTRA.SOLV.lig_0>
-42.5944

>  <SCORE.INTRA.VDW>
1.0226

>  <SCORE.INTRA.VDW.0>
-1.067

>  <SCORE.INTRA.norm>
0.0325081

>  <SCORE.RESTR>
0.00292008

>  <SCORE.RESTR.CAVITY>
0.00292008

>  <SCORE.RESTR.norm>
0.000182505

>  <SCORE.SYSTEM>
0

>  <SCORE.SYSTEM.CONST>
0

>  <SCORE.SYSTEM.DIHEDRAL>
0

>  <SCORE.SYSTEM.SOLV>
0

>  <SCORE.SYSTEM.norm>
0

>  <SCORE.heavy>
16

>  <SCORE.norm>
-1.40849

>  <RMSD>
8.164

$$$$
1f27 biotin aptamer (Xray 1.3A)
 OpenBabel11021811393D
libRbt.so/2013.1/901 2013/11/27
 16 17  0  0  0  0  0  0  0  0999 V2000
    9.1677    4.7572   12.3086 C   0  0  0  0  0  0  0  0  0  0  0  0
    9.0476    3.8314   13.1047 O   0  5  0  0  0  0  0  0  0  0  0  0
    8.3670    5.6905   12.3304 O   0  0  0  0  0  0  0  0  0  0  0  0
   10.3440    4.7859   11.3411 C   0  0  0  0  0  0  0  0  0  0  0  0
   11.6859    4.3515   11.9718 C   0  0  0  0  0  0  0  0  0  0  0  0
   12.8138    4.3690   10.9568 C   0  0  0  0  0  0  0  0  0  0  0  0
   14.1385    3.8945   11.5169 C   0  0  0  0  0  0  0  0  0  0  0  0
   14.1068    2.4962   12.1480 C   0  0  2  0  0  0  0  0  0  0  0  0
   13.4595    2.4054   13.9476 S   0  0  0  0  0  0  0  0  0  0  0  0
   14.1944    0.6443   14.0066 C   0  0  0  0  0  0  0  0  0  0  0  0
   15.4928    0.7205   13.1514 C   0  0  2  0  0  0  0  0  0  0  0  0
   16.6262    1.0942   14.1438 N   0  0  0  0  0  0  0  0  0  0  0  0
   17.2069    2.1771   13.8550 C   0  0  0  0  0  0  0  0  0  0  0  0
   18.0583    2.8657   14.5219 O   0  0  0  0  0  0  0  0  0  0  0  0
   16.5837    2.8981   12.7690 N   0  0  0  0  0  0  0  0  0  0  0  0
   15.5265    1.9317   12.2355 C   0  0  2  0  0  0  0  0  0  0  0  0
  1  2  1  0  0  0  0
  1  3  2  0  0  0  0
  1  4  1  0  0  0  0
  4  5  1  0  0  0  0
  5  6  1  0  0  0  0
  6  7  1  0  0  0  0
  8  7  1  1  0  0  0
  8  9  1  0  0  0  0
  8 16  1  0  0  0  0
  9 10  1  0  0  0  0
 11 10  1  1  0  0  0
 11 12  1  0  0  0  0
 11 16  1  0  0  0  0
 12 13  1  0  0  0  0
 13 14  2  0  0  0  0
 13 15  1  0  0  0  0
 16 15  1  1  0  0  0
M  CHG  1   2  -1
M  END
>  <CHROM.1>
-41.07415577,178.70533386,-177.59972251,55.75499609,-81.80478063,13.51685291
3.03746970,12.87590032,2.72211793,0.11709493,-0.74182649

>  <Name>
1f27 biotin aptamer (Xray 1.3A)

>  <RI>
224

>  <Rbt.Current_Directory>
/home/itssahil/PROJECTS/Mol_Feturizer/New_Systems/rnas/1f27

>  <Rbt.Executable>
rbdock ($Id: //depot/dev/client3/rdock/2013.1/src/exe/rbdock.cxx#4 $)

>  <Rbt.Library>
libRbt.so (2013.1, Build901 2013/11/27)

>  <Rbt.Parameter_File>
/export/apps/rDock/src/rDock_2013.1_src/data/scripts/dock_solv.prm

>  <Rbt.Receptor>
prm/blind_docking_80.prm

>  <SCORE>
-27.957

>  <SCORE.INTER>
-26.2534

>  <SCORE.INTER.CONST>
1

>  <SCORE.INTER.POLAR>
-1.69895

>  <SCORE.INTER.ROT>
5

>  <SCORE.INTER.SOLV>
8.92193

>  <SCORE.INTER.VDW>
-21.7464

>  <SCORE.INTER.norm>
-1.64084

>  <SCORE.INTRA>
-1.70356

>  <SCORE.INTRA.DIHEDRAL>
-3.63034

>  <SCORE.INTRA.DIHEDRAL.0>
6.87082

>  <SCORE.INTRA.POLAR>
0

>  <SCORE.INTRA.POLAR.0>
0

>  <SCORE.INTRA.REPUL>
0

>  <SCORE.INTRA.REPUL.0>
0

>  <SCORE.INTRA.SOLV>
-0.756293

>  <SCORE.INTRA.SOLV.lig_0>
-42.5944

>  <SCORE.INTRA.VDW>
0.489755

>  <SCORE.INTRA.VDW.0>
-1.067

>  <SCORE.INTRA.norm>
-0.106473

>  <SCORE.RESTR>
0

>  <SCORE.RESTR.CAVITY>
0

>  <SCORE.RESTR.norm>
0

>  <SCORE.SYSTEM>
0

>  <SCORE.SYSTEM.CONST>
0

>  <SCORE.SYSTEM.DIHEDRAL>
0

>  <SCORE.SYSTEM.SOLV>
0

>  <SCORE.SYSTEM.norm>
0

>  <SCORE.heavy>
16

>  <SCORE.norm>
-1.74731

>  <RMSD>
8.197

$$$$
1f27 biotin aptamer (Xray 1.3A)
 OpenBabel11021811393D
libRbt.so/2013.1/901 2013/11/27
 16 17  0  0  0  0  0  0  0  0999 V2000
    9.0911    4.6542   12.4394 C   0  0  0  0  0  0  0  0  0  0  0  0
    8.6106    5.6831   12.9038 O   0  5  0  0  0  0  0  0  0  0  0  0
    8.5923    3.5655   12.7192 O   0  0  0  0  0  0  0  0  0  0  0  0
   10.2594    4.7281   11.4645 C   0  0  0  0  0  0  0  0  0  0  0  0
   11.6012    4.2403   12.0550 C   0  0  0  0  0  0  0  0  0  0  0  0
   12.7211    4.3089   11.0332 C   0  0  0  0  0  0  0  0  0  0  0  0
   14.0619    3.8589   11.5748 C   0  0  0  0  0  0  0  0  0  0  0  0
   14.0700    2.4510   12.1849 C   0  0  2  0  0  0  0  0  0  0  0  0
   13.4380    2.3170   13.9872 S   0  0  0  0  0  0  0  0  0  0  0  0
   14.2175    0.5744   14.0148 C   0  0  0  0  0  0  0  0  0  0  0  0
   15.5076    0.6963   13.1522 C   0  0  2  0  0  0  0  0  0  0  0  0
   16.6382    1.0839   14.1425 N   0  0  0  0  0  0  0  0  0  0  0  0
   17.1892    2.1853   13.8662 C   0  0  0  0  0  0  0  0  0  0  0  0
   18.0276    2.8853   14.5377 O   0  0  0  0  0  0  0  0  0  0  0  0
   16.5403    2.9063   12.7953 N   0  0  0  0  0  0  0  0  0  0  0  0
   15.5041    1.9215   12.2545 C   0  0  2  0  0  0  0  0  0  0  0  0
  1  2  1  0  0  0  0
  1  3  2  0  0  0  0
  1  4  1  0  0  0  0
  4  5  1  0  0  0  0
  5  6  1  0  0  0  0
  6  7  1  0  0  0  0
  8  7  1  1  0  0  0
  8  9  1  0  0  0  0
  8 16  1  0  0  0  0
  9 10  1  0  0  0  0
 11 10  1  1  0  0  0
 11 12  1  0  0  0  0
 11 16  1  0  0  0  0
 12 13  1  0  0  0  0
 13 14  2  0  0  0  0
 13 15  1  0  0  0  0
 16 15  1  1  0  0  0
M  CHG  1   2  -1
M  END
>  <CHROM.1>
108.92974986,178.80841736,179.14566305,55.39049383,-81.68828523,13.47089095
2.98081631,12.92625226,2.74006433,0.08712773,-0.67116076

>  <Name>
1f27 biotin aptamer (Xray 1.3A)

>  <RI>
224

>  <Rbt.Current_Directory>
/home/itssahil/PROJECTS/Mol_Feturizer/New_Systems/rnas/1f27

>  <Rbt.Executable>
rbdock ($Id: //depot/dev/client3/rdock/2013.1/src/exe/rbdock.cxx#4 $)

>  <Rbt.Library>
libRbt.so (2013.1, Build901 2013/11/27)

>  <Rbt.Parameter_File>
/export/apps/rDock/src/rDock_2013.1_src/data/scripts/dock_solv.prm

>  <Rbt.Receptor>
prm/blind_docking_80.prm

>  <SCORE>
-28.3103

>  <SCORE.INTER>
-26.3726

>  <SCORE.INTER.CONST>
1

>  <SCORE.INTER.POLAR>
-1.70737

>  <SCORE.INTER.ROT>
5

>  <SCORE.INTER.SOLV>
9.0677

>  <SCORE.INTER.VDW>
-21.8464

>  <SCORE.INTER.norm>
-1.64829

>  <SCORE.INTRA>
-1.93776

>  <SCORE.INTRA.DIHEDRAL>
-3.67406

>  <SCORE.INTRA.DIHEDRAL.0>
6.87082

>  <SCORE.INTRA.POLAR>
0

>  <SCORE.INTRA.POLAR.0>
0

>  <SCORE.INTRA.REPUL>
0

>  <SCORE.INTRA.REPUL.0>
0

>  <SCORE.INTRA.SOLV>
-0.819277

>  <SCORE.INTRA.SOLV.lig_0>
-42.5944

>  <SCORE.INTRA.VDW>
0.308908

>  <SCORE.INTRA.VDW.0>
-1.067

>  <SCORE.INTRA.norm>
-0.12111

>  <SCORE.RESTR>
0

>  <SCORE.RESTR.CAVITY>
0

>  <SCORE.RESTR.norm>
0

>  <SCORE.SYSTEM>
0

>  <SCORE.SYSTEM.CONST>
0

>  <SCORE.SYSTEM.DIHEDRAL>
0

>  <SCORE.SYSTEM.SOLV>
0

>  <SCORE.SYSTEM.norm>
0

>  <SCORE.heavy>
16

>  <SCORE.norm>
-1.7694

>  <RMSD>
8.214

$$$$
1f27 biotin aptamer (Xray 1.3A)
 OpenBabel11021811393D
libRbt.so/2013.1/901 2013/11/27
 16 17  0  0  0  0  0  0  0  0999 V2000
    9.5260    5.2073   11.7977 C   0  0  0  0  0  0  0  0  0  0  0  0
    8.4959    4.6090   11.5040 O   0  5  0  0  0  0  0  0  0  0  0  0
    9.7424    6.3216   11.3245 O   0  0  0  0  0  0  0  0  0  0  0  0
   10.5023    4.6026   12.7987 C   0  0  0  0  0  0  0  0  0  0  0  0
   11.5798    3.7000   12.1574 C   0  0  0  0  0  0  0  0  0  0  0  0
   12.5578    4.5032   11.3199 C   0  0  0  0  0  0  0  0  0  0  0  0
   13.8244    3.7466   10.9780 C   0  0  0  0  0  0  0  0  0  0  0  0
   14.9234    3.8149   12.0466 C   0  0  2  0  0  0  0  0  0  0  0  0
   16.5109    2.8099   11.6789 S   0  0  0  0  0  0  0  0  0  0  0  0
   16.9609    3.0561   13.5179 C   0  0  0  0  0  0  0  0  0  0  0  0
   15.6019    3.0067   14.2754 C   0  0  2  0  0  0  0  0  0  0  0  0
   15.3878    1.5168   14.6542 N   0  0  0  0  0  0  0  0  0  0  0  0
   14.3352    1.0223   14.1637 C   0  0  0  0  0  0  0  0  0  0  0  0
   13.9273   -0.1927   14.1284 O   0  0  0  0  0  0  0  0  0  0  0  0
   13.6584    1.9006   13.2373 N   0  0  0  0  0  0  0  0  0  0  0  0
   14.4083    3.2266   13.3621 C   0  0  2  0  0  0  0  0  0  0  0  0
  1  2  1  0  0  0  0
  1  3  2  0  0  0  0
  1  4  1  0  0  0  0
  4  5  1  0  0  0  0
  5  6  1  0  0  0  0
  6  7  1  0  0  0  0
  8  7  1  6  0  0  0
  8  9  1  0  0  0  0
  8 16  1  0  0  0  0
  9 10  1  0  0  0  0
 11 10  1  6  0  0  0
 11 12  1  0  0  0  0
 11 16  1  0  0  0  0
 12 13  1  0  0  0  0
 13 14  2  0  0  0  0
 13 15  1  0  0  0  0
 16 15  1  6  0  0  0
M  CHG  1   2  -1
M  END
>  <CHROM.1>
89.82210352,68.61376295,164.59508823,-85.40747909,177.57255700,13.43715339
3.25959797,12.59941239,2.62738371,0.10160066,-0.68472468

>  <Name>
1f27 biotin aptamer (Xray 1.3A)

>  <RI>
224

>  <Rbt.Current_Directory>
/home/itssahil/PROJECTS/Mol_Feturizer/New_Systems/rnas/1f27

>  <Rbt.Executable>
rbdock ($Id: //depot/dev/client3/rdock/2013.1/src/exe/rbdock.cxx#4 $)

>  <Rbt.Library>
libRbt.so (2013.1, Build901 2013/11/27)

>  <Rbt.Parameter_File>
/export/apps/rDock/src/rDock_2013.1_src/data/scripts/dock_solv.prm

>  <Rbt.Receptor>
prm/blind_docking_80.prm

>  <SCORE>
-23.4485

>  <SCORE.INTER>
-23.5889

>  <SCORE.INTER.CONST>
1

>  <SCORE.INTER.POLAR>
-1.8256

>  <SCORE.INTER.ROT>
5

>  <SCORE.INTER.SOLV>
13.3292

>  <SCORE.INTER.VDW>
-21.017

>  <SCORE.INTER.norm>
-1.4743

>  <SCORE.INTRA>
0.139135

>  <SCORE.INTRA.DIHEDRAL>
-1.83665

>  <SCORE.INTRA.DIHEDRAL.0>
6.87082

>  <SCORE.INTRA.POLAR>
0

>  <SCORE.INTRA.POLAR.0>
0

>  <SCORE.INTRA.REPUL>
0

>  <SCORE.INTRA.REPUL.0>
0

>  <SCORE.INTRA.SOLV>
0.617154

>  <SCORE.INTRA.SOLV.lig_0>
-42.5944

>  <SCORE.INTRA.VDW>
0.748883

>  <SCORE.INTRA.VDW.0>
-1.067

>  <SCORE.INTRA.norm>
0.00869594

>  <SCORE.RESTR>
0.00118701

>  <SCORE.RESTR.CAVITY>
0.00118701

>  <SCORE.RESTR.norm>
7.41882e-05

>  <SCORE.SYSTEM>
0

>  <SCORE.SYSTEM.CONST>
0

>  <SCORE.SYSTEM.DIHEDRAL>
0

>  <SCORE.SYSTEM.SOLV>
0

>  <SCORE.SYSTEM.norm>
0

>  <SCORE.heavy>
16

>  <SCORE.norm>
-1.46553

>  <RMSD>
8.249

$$$$
1f27 biotin aptamer (Xray 1.3A)
 OpenBabel11021811393D
libRbt.so/2013.1/901 2013/11/27
 16 17  0  0  0  0  0  0  0  0999 V2000
   10.5994    3.4417   13.7014 C   0  0  0  0  0  0  0  0  0  0  0  0
   11.7493    3.2660   14.0914 O   0  5  0  0  0  0  0  0  0  0  0  0
    9.6729    2.8338   14.2349 O   0  0  0  0  0  0  0  0  0  0  0  0
   10.3109    4.4603   12.6060 C   0  0  0  0  0  0  0  0  0  0  0  0
   11.5123    4.7381   11.6753 C   0  0  0  0  0  0  0  0  0  0  0  0
   11.8494    3.5310   10.8197 C   0  0  0  0  0  0  0  0  0  0  0  0
   13.3375    3.2951   10.6667 C   0  0  0  0  0  0  0  0  0  0  0  0
   14.0303    4.1994    9.6388 C   0  0  2  0  0  0  0  0  0  0  0  0
   12.9165    5.5025    8.7861 S   0  0  0  0  0  0  0  0  0  0  0  0
   14.3281    5.7193    7.5191 C   0  0  0  0  0  0  0  0  0  0  0  0
   14.9380    4.2974    7.3480 C   0  0  2  0  0  0  0  0  0  0  0  0
   14.1542    3.6437    6.1787 N   0  0  0  0  0  0  0  0  0  0  0  0
   13.5535    2.5842    6.5099 C   0  0  0  0  0  0  0  0  0  0  0  0
   12.6962    1.8806    5.8666 O   0  0  0  0  0  0  0  0  0  0  0  0
   13.5989    2.3103    7.9278 N   0  0  0  0  0  0  0  0  0  0  0  0
   14.5673    3.3556    8.4805 C   0  0  2  0  0  0  0  0  0  0  0  0
  1  2  1  0  0  0  0
  1  3  2  0  0  0  0
  1  4  1  0  0  0  0
  4  5  1  0  0  0  0
  5  6  1  0  0  0  0
  6  7  1  0  0  0  0
  8  7  1  1  0  0  0
  8  9  1  0  0  0  0
  8 16  1  0  0  0  0
  9 10  1  0  0  0  0
 11 10  1  1  0  0  0
 11 12  1  0  0  0  0
 11 16  1  0  0  0  0
 12 13  1  0  0  0  0
 13 14  2  0  0  0  0
 13 15  1  0  0  0  0
 16 15  1  6  0  0  0
M  CHG  1   2  -1
M  END
>  <CHROM.1>
25.16211707,67.96866198,-139.66947032,-79.03553538,2.27045090,12.71432472
3.80121371,9.70727203,2.58368985,1.02603561,0.63918622

>  <Name>
1f27 biotin aptamer (Xray 1.3A)

>  <RI>
0

>  <Rbt.Current_Directory>
/home/itssahil/PROJECTS/Mol_Feturizer/New_Systems/rnas/1f27

>  <Rbt.Executable>
rbdock ($Id: //depot/dev/client3/rdock/2013.1/src/exe/rbdock.cxx#4 $)

>  <Rbt.Library>
libRbt.so (2013.1, Build901 2013/11/27)

>  <Rbt.Parameter_File>
/export/apps/rDock/src/rDock_2013.1_src/data/scripts/dock_solv.prm

>  <Rbt.Receptor>
prm/blind_docking_20.prm

>  <SCORE>
61.5198

>  <SCORE.INTER>
54.8727

>  <SCORE.INTER.CONST>
1

>  <SCORE.INTER.POLAR>
-0.0343403

>  <SCORE.INTER.ROT>
5

>  <SCORE.INTER.SOLV>
20.0547

>  <SCORE.INTER.VDW>
23.078

>  <SCORE.INTER.norm>
3.42954

>  <SCORE.INTRA>
4.77165

>  <SCORE.INTRA.DIHEDRAL>
6.48035

>  <SCORE.INTRA.DIHEDRAL.0>
6.87082

>  <SCORE.INTRA.POLAR>
0

>  <SCORE.INTRA.POLAR.0>
0

>  <SCORE.INTRA.REPUL>
0

>  <SCORE.INTRA.REPUL.0>
0

>  <SCORE.INTRA.SOLV>
0.76058

>  <SCORE.INTRA.SOLV.lig_0>
-42.5944

>  <SCORE.INTRA.VDW>
1.15119

>  <SCORE.INTRA.VDW.0>
-1.067

>  <SCORE.INTRA.norm>
0.298228

>  <SCORE.RESTR>
1.87544

>  <SCORE.RESTR.CAVITY>
1.87544

>  <SCORE.RESTR.norm>
0.117215

>  <SCORE.SYSTEM>
0

>  <SCORE.SYSTEM.CONST>
0

>  <SCORE.SYSTEM.DIHEDRAL>
0

>  <SCORE.SYSTEM.SOLV>
0

>  <SCORE.SYSTEM.norm>
0

>  <SCORE.heavy>
16

>  <SCORE.norm>
3.84498

>  <RMSD>
8.548

$$$$
1f27 biotin aptamer (Xray 1.3A)
 OpenBabel11021811393D
libRbt.so/2013.1/901 2013/11/27
 16 17  0  0  0  0  0  0  0  0999 V2000
    8.8937    6.2391   12.3401 C   0  0  0  0  0  0  0  0  0  0  0  0
    7.7684    6.5715   12.6985 O   0  5  0  0  0  0  0  0  0  0  0  0
    9.6758    7.0877   11.9148 O   0  0  0  0  0  0  0  0  0  0  0  0
    9.3459    4.7917   12.4848 C   0  0  0  0  0  0  0  0  0  0  0  0
   10.3047    4.5495   13.6719 C   0  0  0  0  0  0  0  0  0  0  0  0
   10.9852    3.1965   13.5757 C   0  0  0  0  0  0  0  0  0  0  0  0
   12.2036    3.0681   14.4660 C   0  0  0  0  0  0  0  0  0  0  0  0
   13.1008    1.8618   14.1590 C   0  0  2  0  0  0  0  0  0  0  0  0
   14.6065    1.6233   15.3173 S   0  0  0  0  0  0  0  0  0  0  0  0
   15.2773    0.4012   14.0128 C   0  0  0  0  0  0  0  0  0  0  0  0
   14.8413    0.9957   12.6418 C   0  0  2  0  0  0  0  0  0  0  0  0
   16.0064    1.9195   12.1966 N   0  0  0  0  0  0  0  0  0  0  0  0
   15.6585    3.1225   12.0387 C   0  0  0  0  0  0  0  0  0  0  0  0
   16.3674    4.1721   11.8398 O   0  0  0  0  0  0  0  0  0  0  0  0
   14.3036    3.3949   12.4604 N   0  0  0  0  0  0  0  0  0  0  0  0
   13.7227    2.0153   12.7692 C   0  0  2  0  0  0  0  0  0  0  0  0
  1  2  1  0  0  0  0
  1  3  2  0  0  0  0
  1  4  1  0  0  0  0
  4  5  1  0  0  0  0
  5  6  1  0  0  0  0
  6  7  1  0  0  0  0
  8  7  1  1  0  0  0
  8  9  1  0  0  0  0
  8 16  1  0  0  0  0
  9 10  1  0  0  0  0
 11 10  1  1  0  0  0
 11 12  1  0  0  0  0
 11 16  1  0  0  0  0
 12 13  1  0  0  0  0
 13 14  2  0  0  0  0
 13 15  1  0  0  0  0
 16 15  1  1  0  0  0
M  CHG  1   2  -1
M  END
>  <CHROM.1>
-103.41250940,-166.07372620,163.45706297,-166.22462676,-177.28223061,12.81319338
3.36255309,13.19014603,-2.64610985,-0.34873234,2.38501760

>  <Name>
1f27 biotin aptamer (Xray 1.3A)

>  <RI>
224

>  <Rbt.Current_Directory>
/home/itssahil/PROJECTS/Mol_Feturizer/New_Systems/rnas/1f27

>  <Rbt.Executable>
rbdock ($Id: //depot/dev/client3/rdock/2013.1/src/exe/rbdock.cxx#4 $)

>  <Rbt.Library>
libRbt.so (2013.1, Build901 2013/11/27)

>  <Rbt.Parameter_File>
/export/apps/rDock/src/rDock_2013.1_src/data/scripts/dock_solv.prm

>  <Rbt.Receptor>
prm/blind_docking_80.prm

>  <SCORE>
-18.232

>  <SCORE.INTER>
-16.6205

>  <SCORE.INTER.CONST>
1

>  <SCORE.INTER.POLAR>
-1.08373

>  <SCORE.INTER.ROT>
5

>  <SCORE.INTER.SOLV>
12.9782

>  <SCORE.INTER.VDW>
-18.7273

>  <SCORE.INTER.norm>
-1.03878

>  <SCORE.INTRA>
-1.68174

>  <SCORE.INTRA.DIHEDRAL>
-3.02494

>  <SCORE.INTRA.DIHEDRAL.0>
6.87082

>  <SCORE.INTRA.POLAR>
0

>  <SCORE.INTRA.POLAR.0>
0

>  <SCORE.INTRA.REPUL>
0

>  <SCORE.INTRA.REPUL.0>
0

>  <SCORE.INTRA.SOLV>
-0.634008

>  <SCORE.INTRA.SOLV.lig_0>
-42.5944

>  <SCORE.INTRA.VDW>
0.147733

>  <SCORE.INTRA.VDW.0>
-1.067

>  <SCORE.INTRA.norm>
-0.105109

>  <SCORE.RESTR>
0.0702179

>  <SCORE.RESTR.CAVITY>
0.0702179

>  <SCORE.RESTR.norm>
0.00438862

>  <SCORE.SYSTEM>
0

>  <SCORE.SYSTEM.CONST>
0

>  <SCORE.SYSTEM.DIHEDRAL>
0

>  <SCORE.SYSTEM.SOLV>
0

>  <SCORE.SYSTEM.norm>
0

>  <SCORE.heavy>
16

>  <SCORE.norm>
-1.1395

>  <RMSD>
8.716

$$$$
1f27 biotin aptamer (Xray 1.3A)
 OpenBabel11021811393D
libRbt.so/2013.1/901 2013/11/27
 16 17  0  0  0  0  0  0  0  0999 V2000
   10.0738    4.0839   13.4435 C   0  0  0  0  0  0  0  0  0  0  0  0
    9.8710    2.8750   13.3893 O   0  5  0  0  0  0  0  0  0  0  0  0
   10.3983    4.6025   14.5103 O   0  0  0  0  0  0  0  0  0  0  0  0
    9.9912    4.9303   12.1796 C   0  0  0  0  0  0  0  0  0  0  0  0
   10.9259    4.4560   11.0446 C   0  0  0  0  0  0  0  0  0  0  0  0
   12.3433    4.2370   11.5405 C   0  0  0  0  0  0  0  0  0  0  0  0
   13.1954    3.4182   10.5933 C   0  0  0  0  0  0  0  0  0  0  0  0
   13.9919    4.2394    9.5708 C   0  0  2  0  0  0  0  0  0  0  0  0
   13.0046    5.5765    8.6205 S   0  0  0  0  0  0  0  0  0  0  0  0
   14.4854    5.6586    7.4181 C   0  0  0  0  0  0  0  0  0  0  0  0
   15.0111    4.1964    7.3256 C   0  0  2  0  0  0  0  0  0  0  0  0
   14.2432    3.5496    6.1418 N   0  0  0  0  0  0  0  0  0  0  0  0
   13.5614    2.5423    6.4787 C   0  0  0  0  0  0  0  0  0  0  0  0
   12.6924    1.8698    5.8181 O   0  0  0  0  0  0  0  0  0  0  0  0
   13.5224    2.3187    7.9056 N   0  0  0  0  0  0  0  0  0  0  0  0
   14.5282    3.3218    8.4697 C   0  0  2  0  0  0  0  0  0  0  0  0
  1  2  1  0  0  0  0
  1  3  2  0  0  0  0
  1  4  1  0  0  0  0
  4  5  1  0  0  0  0
  5  6  1  0  0  0  0
  6  7  1  0  0  0  0
  8  7  1  1  0  0  0
  8  9  1  0  0  0  0
  8 16  1  0  0  0  0
  9 10  1  0  0  0  0
 11 10  1  1  0  0  0
 11 12  1  0  0  0  0
 11 16  1  0  0  0  0
 12 13  1  0  0  0  0
 13 14  2  0  0  0  0
 13 15  1  0  0  0  0
 16 15  1  6  0  0  0
M  CHG  1   2  -1
M  END
>  <CHROM.1>
-56.28712074,-49.46177171,163.84516898,91.54749086,-48.55373564,12.60198441
3.97531594,9.60135979,2.49855565,0.90604893,0.66467580

>  <Name>
1f27 biotin aptamer (Xray 1.3A)

>  <RI>
0

>  <Rbt.Current_Directory>
/home/itssahil/PROJECTS/Mol_Feturizer/New_Systems/rnas/1f27

>  <Rbt.Executable>
rbdock ($Id: //depot/dev/client3/rdock/2013.1/src/exe/rbdock.cxx#4 $)

>  <Rbt.Library>
libRbt.so (2013.1, Build901 2013/11/27)

>  <Rbt.Parameter_File>
/export/apps/rDock/src/rDock_2013.1_src/data/scripts/dock_solv.prm

>  <Rbt.Receptor>
prm/blind_docking_20.prm

>  <SCORE>
52.5658

>  <SCORE.INTER>
50.1533

>  <SCORE.INTER.CONST>
1

>  <SCORE.INTER.POLAR>
0

>  <SCORE.INTER.ROT>
5

>  <SCORE.INTER.SOLV>
19.7849

>  <SCORE.INTER.VDW>
19.9072

>  <SCORE.INTER.norm>
3.13458

>  <SCORE.INTRA>
0.468618

>  <SCORE.INTRA.DIHEDRAL>
-0.233497

>  <SCORE.INTRA.DIHEDRAL.0>
6.87082

>  <SCORE.INTRA.POLAR>
0

>  <SCORE.INTRA.POLAR.0>
0

>  <SCORE.INTRA.REPUL>
0

>  <SCORE.INTRA.REPUL.0>
0

>  <SCORE.INTRA.SOLV>
0.560425

>  <SCORE.INTRA.SOLV.lig_0>
-42.5944

>  <SCORE.INTRA.VDW>
0.305154

>  <SCORE.INTRA.VDW.0>
-1.067

>  <SCORE.INTRA.norm>
0.0292886

>  <SCORE.RESTR>
1.9439

>  <SCORE.RESTR.CAVITY>
1.9439

>  <SCORE.RESTR.norm>
0.121494

>  <SCORE.SYSTEM>
0

>  <SCORE.SYSTEM.CONST>
0

>  <SCORE.SYSTEM.DIHEDRAL>
0

>  <SCORE.SYSTEM.SOLV>
0

>  <SCORE.SYSTEM.norm>
0

>  <SCORE.heavy>
16

>  <SCORE.norm>
3.28537

>  <RMSD>
8.890

$$$$
1f27 biotin aptamer (Xray 1.3A)
 OpenBabel11021811393D
libRbt.so/2013.1/901 2013/11/27
 16 17  0  0  0  0  0  0  0  0999 V2000
    9.5202    4.7417   12.1996 C   0  0  0  0  0  0  0  0  0  0  0  0
    9.2599    5.9255   12.0096 O   0  5  0  0  0  0  0  0  0  0  0  0
    8.9902    3.8790   11.5015 O   0  0  0  0  0  0  0  0  0  0  0  0
   10.5485    4.3443   13.2510 C   0  0  0  0  0  0  0  0  0  0  0  0
   11.7278    3.5162   12.6937 C   0  0  0  0  0  0  0  0  0  0  0  0
   12.5360    4.3040   11.6793 C   0  0  0  0  0  0  0  0  0  0  0  0
   13.1351    3.4451   10.5853 C   0  0  0  0  0  0  0  0  0  0  0  0
   13.9942    4.2064    9.5670 C   0  0  2  0  0  0  0  0  0  0  0  0
   13.0989    5.5800    8.5785 S   0  0  0  0  0  0  0  0  0  0  0  0
   14.6043    5.5639    7.4044 C   0  0  0  0  0  0  0  0  0  0  0  0
   15.0517    4.0741    7.3432 C   0  0  2  0  0  0  0  0  0  0  0  0
   14.2724    3.4517    6.1539 N   0  0  0  0  0  0  0  0  0  0  0  0
   13.5308    2.4878    6.4916 C   0  0  0  0  0  0  0  0  0  0  0  0
   12.6393    1.8531    5.8237 O   0  0  0  0  0  0  0  0  0  0  0  0
   13.4528    2.2885    7.9205 N   0  0  0  0  0  0  0  0  0  0  0  0
   14.5007    3.2445    8.4900 C   0  0  2  0  0  0  0  0  0  0  0  0
  1  2  1  0  0  0  0
  1  3  2  0  0  0  0
  1  4  1  0  0  0  0
  4  5  1  0  0  0  0
  5  6  1  0  0  0  0
  6  7  1  0  0  0  0
  8  7  1  1  0  0  0
  8  9  1  0  0  0  0
  8 16  1  0  0  0  0
  9 10  1  0  0  0  0
 11 10  1  1  0  0  0
 11 12  1  0  0  0  0
 11 16  1  0  0  0  0
 12 13  1  0  0  0  0
 13 14  2  0  0  0  0
 13 15  1  0  0  0  0
 16 15  1  6  0  0  0
M  CHG  1   2  -1
M  END
>  <CHROM.1>
-122.05040549,62.86744450,-147.55921431,-178.22078064,-60.49743015,12.54044083
4.04922084,9.41389165,2.36570909,0.63477953,0.81814815

>  <Name>
1f27 biotin aptamer (Xray 1.3A)

>  <RI>
0

>  <Rbt.Current_Directory>
/home/itssahil/PROJECTS/Mol_Feturizer/New_Systems/rnas/1f27

>  <Rbt.Executable>
rbdock ($Id: //depot/dev/client3/rdock/2013.1/src/exe/rbdock.cxx#4 $)

>  <Rbt.Library>
libRbt.so (2013.1, Build901 2013/11/27)

>  <Rbt.Parameter_File>
/export/apps/rDock/src/rDock_2013.1_src/data/scripts/dock_solv.prm

>  <Rbt.Receptor>
prm/blind_docking_20.prm

>  <SCORE>
51.7572

>  <SCORE.INTER>
51.1358

>  <SCORE.INTER.CONST>
1

>  <SCORE.INTER.POLAR>
0

>  <SCORE.INTER.ROT>
5

>  <SCORE.INTER.SOLV>
18.4005

>  <SCORE.INTER.VDW>
21.0237

>  <SCORE.INTER.norm>
3.19599

>  <SCORE.INTRA>
-0.796707

>  <SCORE.INTRA.DIHEDRAL>
-1.99189

>  <SCORE.INTRA.DIHEDRAL.0>
6.87082

>  <SCORE.INTRA.POLAR>
0

>  <SCORE.INTRA.POLAR.0>
0

>  <SCORE.INTRA.REPUL>
0

>  <SCORE.INTRA.REPUL.0>
0

>  <SCORE.INTRA.SOLV>
0.358004

>  <SCORE.INTRA.SOLV.lig_0>
-42.5944

>  <SCORE.INTRA.VDW>
0.0202374

>  <SCORE.INTRA.VDW.0>
-1.067

>  <SCORE.INTRA.norm>
-0.0497942

>  <SCORE.RESTR>
1.41812

>  <SCORE.RESTR.CAVITY>
1.41812

>  <SCORE.RESTR.norm>
0.0886324

>  <SCORE.SYSTEM>
0

>  <SCORE.SYSTEM.CONST>
0

>  <SCORE.SYSTEM.DIHEDRAL>
0

>  <SCORE.SYSTEM.SOLV>
0

>  <SCORE.SYSTEM.norm>
0

>  <SCORE.heavy>
16

>  <SCORE.norm>
3.23483

>  <RMSD>
9.057

$$$$
1f27 biotin aptamer (Xray 1.3A)
 OpenBabel11021811393D
libRbt.so/2013.1/901 2013/11/27
 16 17  0  0  0  0  0  0  0  0999 V2000
    9.6786    5.3353   11.4288 C   0  0  0  0  0  0  0  0  0  0  0  0
   10.3132    5.5722   10.4059 O   0  5  0  0  0  0  0  0  0  0  0  0
    8.4524    5.4288   11.4235 O   0  0  0  0  0  0  0  0  0  0  0  0
   10.4003    4.8602   12.6835 C   0  0  0  0  0  0  0  0  0  0  0  0
   11.3646    3.6774   12.4428 C   0  0  0  0  0  0  0  0  0  0  0  0
   12.6836    4.1408   11.8524 C   0  0  0  0  0  0  0  0  0  0  0  0
   13.0335    3.4599   10.5457 C   0  0  0  0  0  0  0  0  0  0  0  0
   13.8532    4.3172    9.5723 C   0  0  2  0  0  0  0  0  0  0  0  0
   12.8655    5.6051    8.5567 S   0  0  0  0  0  0  0  0  0  0  0  0
   14.4136    5.7567    7.4497 C   0  0  0  0  0  0  0  0  0  0  0  0
   15.0128    4.3210    7.3960 C   0  0  2  0  0  0  0  0  0  0  0  0
   14.3527    3.6376    6.1686 N   0  0  0  0  0  0  0  0  0  0  0  0
   13.6995    2.5993    6.4656 C   0  0  0  0  0  0  0  0  0  0  0  0
   12.9068    1.8858    5.7541 O   0  0  0  0  0  0  0  0  0  0  0  0
   13.5812    2.3751    7.8881 N   0  0  0  0  0  0  0  0  0  0  0  0
   14.5007    3.4253    8.5107 C   0  0  2  0  0  0  0  0  0  0  0  0
  1  2  1  0  0  0  0
  1  3  2  0  0  0  0
  1  4  1  0  0  0  0
  4  5  1  0  0  0  0
  5  6  1  0  0  0  0
  6  7  1  0  0  0  0
  8  7  1  1  0  0  0
  8  9  1  0  0  0  0
  8 16  1  0  0  0  0
  9 10  1  0  0  0  0
 11 10  1  1  0  0  0
 11 12  1  0  0  0  0
 11 16  1  0  0  0  0
 12 13  1  0  0  0  0
 13 14  2  0  0  0  0
 13 15  1  0  0  0  0
 16 15  1  6  0  0  0
M  CHG  1   2  -1
M  END
>  <CHROM.1>
-49.93588675,79.55984603,-123.91538601,149.11502689,-79.61740489,12.54299663
4.25520439,9.22266187,2.60323972,-0.79634642,2.14259161

>  <Name>
1f27 biotin aptamer (Xray 1.3A)

>  <RI>
0

>  <Rbt.Current_Directory>
/home/itssahil/PROJECTS/Mol_Feturizer/New_Systems/rnas/1f27

>  <Rbt.Executable>
rbdock ($Id: //depot/dev/client3/rdock/2013.1/src/exe/rbdock.cxx#4 $)

>  <Rbt.Library>
libRbt.so (2013.1, Build901 2013/11/27)

>  <Rbt.Parameter_File>
/export/apps/rDock/src/rDock_2013.1_src/data/scripts/dock_solv.prm

>  <Rbt.Receptor>
prm/blind_docking_20.prm

>  <SCORE>
58.9391

>  <SCORE.INTER>
54.0359

>  <SCORE.INTER.CONST>
1

>  <SCORE.INTER.POLAR>
0

>  <SCORE.INTER.ROT>
5

>  <SCORE.INTER.SOLV>
18.6409

>  <SCORE.INTER.VDW>
22.8769

>  <SCORE.INTER.norm>
3.37724

>  <SCORE.INTRA>
3.49207

>  <SCORE.INTRA.DIHEDRAL>
6.47906

>  <SCORE.INTRA.DIHEDRAL.0>
6.87082

>  <SCORE.INTRA.POLAR>
0

>  <SCORE.INTRA.POLAR.0>
0

>  <SCORE.INTRA.REPUL>
0

>  <SCORE.INTRA.REPUL.0>
0

>  <SCORE.INTRA.SOLV>
1.56343

>  <SCORE.INTRA.SOLV.lig_0>
-42.5944

>  <SCORE.INTRA.VDW>
-0.529179

>  <SCORE.INTRA.VDW.0>
-1.067

>  <SCORE.INTRA.norm>
0.218254

>  <SCORE.RESTR>
1.41118

>  <SCORE.RESTR.CAVITY>
1.41118

>  <SCORE.RESTR.norm>
0.088199

>  <SCORE.SYSTEM>
0

>  <SCORE.SYSTEM.CONST>
0

>  <SCORE.SYSTEM.DIHEDRAL>
0

>  <SCORE.SYSTEM.SOLV>
0

>  <SCORE.SYSTEM.norm>
0

>  <SCORE.heavy>
16

>  <SCORE.norm>
3.68369

>  <RMSD>
9.193

$$$$
1f27 biotin aptamer (Xray 1.3A)
 OpenBabel11021811393D
libRbt.so/2013.1/901 2013/11/27
 16 17  0  0  0  0  0  0  0  0999 V2000
    9.0799    4.8750   11.5057 C   0  0  0  0  0  0  0  0  0  0  0  0
    8.1075    4.6423   12.2169 O   0  5  0  0  0  0  0  0  0  0  0  0
    9.0587    5.8328   10.7346 O   0  0  0  0  0  0  0  0  0  0  0  0
   10.3363    4.0221   11.6257 C   0  0  0  0  0  0  0  0  0  0  0  0
   11.6411    4.8405   11.7476 C   0  0  0  0  0  0  0  0  0  0  0  0
   12.8523    3.9423   11.9176 C   0  0  0  0  0  0  0  0  0  0  0  0
   13.2814    3.2572   10.6369 C   0  0  0  0  0  0  0  0  0  0  0  0
   14.0115    4.1625    9.6361 C   0  0  2  0  0  0  0  0  0  0  0  0
   12.9403    5.5003    8.7826 S   0  0  0  0  0  0  0  0  0  0  0  0
   14.3798    5.7073    7.5457 C   0  0  0  0  0  0  0  0  0  0  0  0
   14.9644    4.2761    7.3644 C   0  0  2  0  0  0  0  0  0  0  0  0
   14.1901    3.6557    6.1708 N   0  0  0  0  0  0  0  0  0  0  0  0
   13.5621    2.6038    6.4745 C   0  0  0  0  0  0  0  0  0  0  0  0
   12.7034    1.9273    5.8047 O   0  0  0  0  0  0  0  0  0  0  0  0
   13.5751    2.3081    7.8887 N   0  0  0  0  0  0  0  0  0  0  0  0
   14.5535    3.3253    8.4753 C   0  0  2  0  0  0  0  0  0  0  0  0
  1  2  1  0  0  0  0
  1  3  2  0  0  0  0
  1  4  1  0  0  0  0
  4  5  1  0  0  0  0
  5  6  1  0  0  0  0
  6  7  1  0  0  0  0
  8  7  1  1  0  0  0
  8  9  1  0  0  0  0
  8 16  1  0  0  0  0
  9 10  1  0  0  0  0
 11 10  1  1  0  0  0
 11 12  1  0  0  0  0
 11 16  1  0  0  0  0
 12 13  1  0  0  0  0
 13 14  2  0  0  0  0
 13 15  1  0  0  0  0
 16 15  1  6  0  0  0
M  CHG  1   2  -1
M  END
>  <CHROM.1>
-131.15518929,177.80418922,75.42063330,75.38818295,-69.88053108,12.43035568
4.16086026,9.24740133,2.32213123,0.19409175,1.10676049

>  <Name>
1f27 biotin aptamer (Xray 1.3A)

>  <RI>
0

>  <Rbt.Current_Directory>
/home/itssahil/PROJECTS/Mol_Feturizer/New_Systems/rnas/1f27

>  <Rbt.Executable>
rbdock ($Id: //depot/dev/client3/rdock/2013.1/src/exe/rbdock.cxx#4 $)

>  <Rbt.Library>
libRbt.so (2013.1, Build901 2013/11/27)

>  <Rbt.Parameter_File>
/export/apps/rDock/src/rDock_2013.1_src/data/scripts/dock_solv.prm

>  <Rbt.Receptor>
prm/blind_docking_20.prm

>  <SCORE>
57.1191

>  <SCORE.INTER>
56.7551

>  <SCORE.INTER.CONST>
1

>  <SCORE.INTER.POLAR>
-0.0376568

>  <SCORE.INTER.ROT>
5

>  <SCORE.INTER.SOLV>
17.0731

>  <SCORE.INTER.VDW>
25.3379

>  <SCORE.INTER.norm>
3.5472

>  <SCORE.INTRA>
-1.59616

>  <SCORE.INTRA.DIHEDRAL>
-3.16627

>  <SCORE.INTRA.DIHEDRAL.0>
6.87082

>  <SCORE.INTRA.POLAR>
0

>  <SCORE.INTRA.POLAR.0>
0

>  <SCORE.INTRA.REPUL>
0

>  <SCORE.INTRA.REPUL.0>
0

>  <SCORE.INTRA.SOLV>
-0.560361

>  <SCORE.INTRA.SOLV.lig_0>
-42.5944

>  <SCORE.INTRA.VDW>
0.267156

>  <SCORE.INTRA.VDW.0>
-1.067

>  <SCORE.INTRA.norm>
-0.09976

>  <SCORE.RESTR>
1.96016

>  <SCORE.RESTR.CAVITY>
1.96016

>  <SCORE.RESTR.norm>
0.12251

>  <SCORE.SYSTEM>
0

>  <SCORE.SYSTEM.CONST>
0

>  <SCORE.SYSTEM.DIHEDRAL>
0

>  <SCORE.SYSTEM.SOLV>
0

>  <SCORE.SYSTEM.norm>
0

>  <SCORE.heavy>
16

>  <SCORE.norm>
3.56995

>  <RMSD>
9.279

$$$$
1f27 biotin aptamer (Xray 1.3A)
 OpenBabel11021811393D
libRbt.so/2013.1/901 2013/11/27
 16 17  0  0  0  0  0  0  0  0999 V2000
    8.9561    5.3691   12.3049 C   0  0  0  0  0  0  0  0  0  0  0  0
    8.4847    6.4987   12.2213 O   0  5  0  0  0  0  0  0  0  0  0  0
    8.4342    4.5421   13.0507 O   0  0  0  0  0  0  0  0  0  0  0  0
   10.1425    4.9696   11.4369 C   0  0  0  0  0  0  0  0  0  0  0  0
   11.2536    4.2158   12.2013 C   0  0  0  0  0  0  0  0  0  0  0  0
   12.6192    4.4536   11.5837 C   0  0  0  0  0  0  0  0  0  0  0  0
   12.9258    3.5322   10.4215 C   0  0  0  0  0  0  0  0  0  0  0  0
   14.0395    4.0231    9.4872 C   0  0  2  0  0  0  0  0  0  0  0  0
   13.5952    5.5096    8.3653 S   0  0  0  0  0  0  0  0  0  0  0  0
   15.1703    5.0895    7.3715 C   0  0  0  0  0  0  0  0  0  0  0  0
   15.2643    3.5360    7.4031 C   0  0  2  0  0  0  0  0  0  0  0  0
   14.4909    3.0443    6.1503 N   0  0  0  0  0  0  0  0  0  0  0  0
   13.5150    2.2935    6.4278 C   0  0  0  0  0  0  0  0  0  0  0  0
   12.5757    1.8432    5.6804 O   0  0  0  0  0  0  0  0  0  0  0  0
   13.2440    2.1935    7.8435 N   0  0  0  0  0  0  0  0  0  0  0  0
   14.4192    2.9154    8.5020 C   0  0  2  0  0  0  0  0  0  0  0  0
  1  2  1  0  0  0  0
  1  3  2  0  0  0  0
  1  4  1  0  0  0  0
  4  5  1  0  0  0  0
  5  6  1  0  0  0  0
  6  7  1  0  0  0  0
  8  7  1  6  0  0  0
  8  9  1  0  0  0  0
  8 16  1  0  0  0  0
  9 10  1  0  0  0  0
 11 10  1  1  0  0  0
 11 12  1  0  0  0  0
 11 16  1  0  0  0  0
 12 13  1  0  0  0  0
 13 14  2  0  0  0  0
 13 15  1  0  0  0  0
 16 15  1  6  0  0  0
M  CHG  1   2  -1
M  END
>  <CHROM.1>
134.64625055,-150.85259070,-84.29869213,160.32259463,-71.95956158,12.47016975
4.11784627,9.33878157,2.36671936,0.45850079,0.79644121

>  <Name>
1f27 biotin aptamer (Xray 1.3A)

>  <RI>
0

>  <Rbt.Current_Directory>
/home/itssahil/PROJECTS/Mol_Feturizer/New_Systems/rnas/1f27

>  <Rbt.Executable>
rbdock ($Id: //depot/dev/client3/rdock/2013.1/src/exe/rbdock.cxx#4 $)

>  <Rbt.Library>
libRbt.so (2013.1, Build901 2013/11/27)

>  <Rbt.Parameter_File>
/export/apps/rDock/src/rDock_2013.1_src/data/scripts/dock_solv.prm

>  <Rbt.Receptor>
prm/blind_docking_20.prm

>  <SCORE>
49.9376

>  <SCORE.INTER>
47.6033

>  <SCORE.INTER.CONST>
1

>  <SCORE.INTER.POLAR>
-0.541202

>  <SCORE.INTER.ROT>
5

>  <SCORE.INTER.SOLV>
15.954

>  <SCORE.INTER.VDW>
21.2882

>  <SCORE.INTER.norm>
2.97521

>  <SCORE.INTRA>
0.400911

>  <SCORE.INTRA.DIHEDRAL>
1.17984

>  <SCORE.INTRA.DIHEDRAL.0>
6.87082

>  <SCORE.INTRA.POLAR>
0

>  <SCORE.INTRA.POLAR.0>
0

>  <SCORE.INTRA.REPUL>
0

>  <SCORE.INTRA.REPUL.0>
0

>  <SCORE.INTRA.SOLV>
-0.792276

>  <SCORE.INTRA.SOLV.lig_0>
-42.5944

>  <SCORE.INTRA.VDW>
0.20713

>  <SCORE.INTRA.VDW.0>
-1.067

>  <SCORE.INTRA.norm>
0.0250569

>  <SCORE.RESTR>
1.93336

>  <SCORE.RESTR.CAVITY>
1.93336

>  <SCORE.RESTR.norm>
0.120835

>  <SCORE.SYSTEM>
0

>  <SCORE.SYSTEM.CONST>
0

>  <SCORE.SYSTEM.DIHEDRAL>
0

>  <SCORE.SYSTEM.SOLV>
0

>  <SCORE.SYSTEM.norm>
0

>  <SCORE.heavy>
16

>  <SCORE.norm>
3.1211

>  <RMSD>
9.450

$$$$
