ligand
 OpenBabel11021811493D
libRbt.so/2013.1/901 2013/11/27
  4  3  0  0  0  0  0  0  0  0999 V2000
   36.1190   19.9656   10.7369 C   0  0  0  0  0  0  0  0  0  0  0  0
   36.4433   19.6938   11.9140 O   0  0  0  0  0  0  0  0  0  0  0  0
   36.3929   18.8897    9.6944 C   0  0  0  0  0  0  0  0  0  0  0  0
   35.5722   21.0639   10.2808 O   0  0  0  0  0  0  0  0  0  0  0  0
  1  2  1  0  0  0  0
  1  3  1  0  0  0  0
  1  4  1  0  0  0  0
M  END
>  <CHROM.1>
36.12845859,19.91560735,10.66683303,-2.33804679,1.13930457,-1.96472468

>  <Name>
ligand

>  <RI>
0

>  <Rbt.Current_Directory>
/home/itssahil/PROJECTS/Mol_Feturizer/New_Systems/rnas/4FEN

>  <Rbt.Executable>
rbdock ($Id: //depot/dev/client3/rdock/2013.1/src/exe/rbdock.cxx#4 $)

>  <Rbt.Library>
libRbt.so (2013.1, Build901 2013/11/27)

>  <Rbt.Parameter_File>
/export/apps/rDock/src/rDock_2013.1_src/data/scripts/dock_solv.prm

>  <Rbt.Receptor>
prm/blind_docking_100.prm

>  <SCORE>
-3.95392

>  <SCORE.INTER>
-3.95392

>  <SCORE.INTER.CONST>
1

>  <SCORE.INTER.POLAR>
0

>  <SCORE.INTER.ROT>
0

>  <SCORE.INTER.SOLV>
1.7393

>  <SCORE.INTER.VDW>
-6.81571

>  <SCORE.INTER.norm>
-0.98848

>  <SCORE.INTRA>
0

>  <SCORE.INTRA.DIHEDRAL>
0

>  <SCORE.INTRA.DIHEDRAL.0>
0

>  <SCORE.INTRA.POLAR>
0

>  <SCORE.INTRA.POLAR.0>
0

>  <SCORE.INTRA.REPUL>
0

>  <SCORE.INTRA.REPUL.0>
0

>  <SCORE.INTRA.SOLV>
0

>  <SCORE.INTRA.SOLV.lig_0>
0.449748

>  <SCORE.INTRA.VDW>
0

>  <SCORE.INTRA.VDW.0>
0

>  <SCORE.INTRA.norm>
0

>  <SCORE.RESTR>
0

>  <SCORE.RESTR.CAVITY>
0

>  <SCORE.RESTR.norm>
0

>  <SCORE.SYSTEM>
0

>  <SCORE.SYSTEM.CONST>
0

>  <SCORE.SYSTEM.DIHEDRAL>
0

>  <SCORE.SYSTEM.SOLV>
0

>  <SCORE.SYSTEM.norm>
0

>  <SCORE.heavy>
4

>  <SCORE.norm>
-0.98848

>  <RMSD>
0.473

$$$$
ligand
 OpenBabel11021811493D
libRbt.so/2013.1/901 2013/11/27
  4  3  0  0  0  0  0  0  0  0999 V2000
   36.4763   19.9451   10.6318 C   0  0  0  0  0  0  0  0  0  0  0  0
   36.6101   21.0791   10.1211 O   0  0  0  0  0  0  0  0  0  0  0  0
   36.4163   18.7705    9.6642 C   0  0  0  0  0  0  0  0  0  0  0  0
   36.3785   19.6343   11.8995 O   0  0  0  0  0  0  0  0  0  0  0  0
  1  2  1  0  0  0  0
  1  3  1  0  0  0  0
  1  4  1  0  0  0  0
M  END
>  <CHROM.1>
36.47076251,19.86907426,10.59056542,-1.52522880,-1.46261852,-2.08520873

>  <Name>
ligand

>  <RI>
0

>  <Rbt.Current_Directory>
/home/itssahil/PROJECTS/Mol_Feturizer/New_Systems/rnas/4FEN

>  <Rbt.Executable>
rbdock ($Id: //depot/dev/client3/rdock/2013.1/src/exe/rbdock.cxx#4 $)

>  <Rbt.Library>
libRbt.so (2013.1, Build901 2013/11/27)

>  <Rbt.Parameter_File>
/export/apps/rDock/src/rDock_2013.1_src/data/scripts/dock_solv.prm

>  <Rbt.Receptor>
prm/blind_docking_100.prm

>  <SCORE>
-4.06942

>  <SCORE.INTER>
-4.06942

>  <SCORE.INTER.CONST>
1

>  <SCORE.INTER.POLAR>
0

>  <SCORE.INTER.ROT>
0

>  <SCORE.INTER.SOLV>
1.7986

>  <SCORE.INTER.VDW>
-6.91248

>  <SCORE.INTER.norm>
-1.01735

>  <SCORE.INTRA>
0

>  <SCORE.INTRA.DIHEDRAL>
0

>  <SCORE.INTRA.DIHEDRAL.0>
0

>  <SCORE.INTRA.POLAR>
0

>  <SCORE.INTRA.POLAR.0>
0

>  <SCORE.INTRA.REPUL>
0

>  <SCORE.INTRA.REPUL.0>
0

>  <SCORE.INTRA.SOLV>
0

>  <SCORE.INTRA.SOLV.lig_0>
0.449748

>  <SCORE.INTRA.VDW>
0

>  <SCORE.INTRA.VDW.0>
0

>  <SCORE.INTRA.norm>
0

>  <SCORE.RESTR>
0

>  <SCORE.RESTR.CAVITY>
0

>  <SCORE.RESTR.norm>
0

>  <SCORE.SYSTEM>
0

>  <SCORE.SYSTEM.CONST>
0

>  <SCORE.SYSTEM.DIHEDRAL>
0

>  <SCORE.SYSTEM.SOLV>
0

>  <SCORE.SYSTEM.norm>
0

>  <SCORE.heavy>
4

>  <SCORE.norm>
-1.01735

>  <RMSD>
0.498

$$$$
ligand
 OpenBabel11021811493D
libRbt.so/2013.1/901 2013/11/27
  4  3  0  0  0  0  0  0  0  0999 V2000
   36.5233   20.0360   10.6274 C   0  0  0  0  0  0  0  0  0  0  0  0
   36.6761   21.1493   10.0778 O   0  0  0  0  0  0  0  0  0  0  0  0
   36.3812   18.8373    9.6989 C   0  0  0  0  0  0  0  0  0  0  0  0
   36.4674   19.7656   11.9069 O   0  0  0  0  0  0  0  0  0  0  0  0
  1  2  1  0  0  0  0
  1  3  1  0  0  0  0
  1  4  1  0  0  0  0
M  END
>  <CHROM.1>
36.51337035,19.95915144,10.58875961,-1.09790700,-1.44047533,-1.69022123

>  <Name>
ligand

>  <RI>
0

>  <Rbt.Current_Directory>
/home/itssahil/PROJECTS/Mol_Feturizer/New_Systems/rnas/4FEN

>  <Rbt.Executable>
rbdock ($Id: //depot/dev/client3/rdock/2013.1/src/exe/rbdock.cxx#4 $)

>  <Rbt.Library>
libRbt.so (2013.1, Build901 2013/11/27)

>  <Rbt.Parameter_File>
/export/apps/rDock/src/rDock_2013.1_src/data/scripts/dock_solv.prm

>  <Rbt.Receptor>
prm/pocket_docking_7.prm

>  <SCORE>
-4.07274

>  <SCORE.INTER>
-4.07274

>  <SCORE.INTER.CONST>
1

>  <SCORE.INTER.POLAR>
0

>  <SCORE.INTER.ROT>
0

>  <SCORE.INTER.SOLV>
1.84646

>  <SCORE.INTER.VDW>
-6.93064

>  <SCORE.INTER.norm>
-1.01818

>  <SCORE.INTRA>
0

>  <SCORE.INTRA.DIHEDRAL>
0

>  <SCORE.INTRA.DIHEDRAL.0>
0

>  <SCORE.INTRA.POLAR>
0

>  <SCORE.INTRA.POLAR.0>
0

>  <SCORE.INTRA.REPUL>
0

>  <SCORE.INTRA.REPUL.0>
0

>  <SCORE.INTRA.SOLV>
0

>  <SCORE.INTRA.SOLV.lig_0>
0.449748

>  <SCORE.INTRA.VDW>
0

>  <SCORE.INTRA.VDW.0>
0

>  <SCORE.INTRA.norm>
0

>  <SCORE.RESTR>
0

>  <SCORE.RESTR.CAVITY>
0

>  <SCORE.RESTR.norm>
0

>  <SCORE.SYSTEM>
0

>  <SCORE.SYSTEM.CONST>
0

>  <SCORE.SYSTEM.DIHEDRAL>
0

>  <SCORE.SYSTEM.SOLV>
0

>  <SCORE.SYSTEM.norm>
0

>  <SCORE.heavy>
4

>  <SCORE.norm>
-1.01818

>  <RMSD>
0.561

$$$$
ligand
 OpenBabel11021811493D
libRbt.so/2013.1/901 2013/11/27
  4  3  0  0  0  0  0  0  0  0999 V2000
   36.6901   19.4581   10.7753 C   0  0  0  0  0  0  0  0  0  0  0  0
   37.2006   18.4177   10.3044 O   0  0  0  0  0  0  0  0  0  0  0  0
   36.3095   20.5385    9.7718 C   0  0  0  0  0  0  0  0  0  0  0  0
   36.4404   19.7419   12.0285 O   0  0  0  0  0  0  0  0  0  0  0  0
  1  2  1  0  0  0  0
  1  3  1  0  0  0  0
  1  4  1  0  0  0  0
M  END
>  <CHROM.1>
36.66386407,19.52816450,10.73176990,-1.24673053,1.14300975,-1.35164669

>  <Name>
ligand

>  <RI>
0

>  <Rbt.Current_Directory>
/home/itssahil/PROJECTS/Mol_Feturizer/New_Systems/rnas/4FEN

>  <Rbt.Executable>
rbdock ($Id: //depot/dev/client3/rdock/2013.1/src/exe/rbdock.cxx#4 $)

>  <Rbt.Library>
libRbt.so (2013.1, Build901 2013/11/27)

>  <Rbt.Parameter_File>
/export/apps/rDock/src/rDock_2013.1_src/data/scripts/dock_solv.prm

>  <Rbt.Receptor>
prm/pocket_docking_5.prm

>  <SCORE>
-4.34881

>  <SCORE.INTER>
-4.34881

>  <SCORE.INTER.CONST>
1

>  <SCORE.INTER.POLAR>
0

>  <SCORE.INTER.ROT>
0

>  <SCORE.INTER.SOLV>
2.10509

>  <SCORE.INTER.VDW>
-7.2009

>  <SCORE.INTER.norm>
-1.0872

>  <SCORE.INTRA>
0

>  <SCORE.INTRA.DIHEDRAL>
0

>  <SCORE.INTRA.DIHEDRAL.0>
0

>  <SCORE.INTRA.POLAR>
0

>  <SCORE.INTRA.POLAR.0>
0

>  <SCORE.INTRA.REPUL>
0

>  <SCORE.INTRA.REPUL.0>
0

>  <SCORE.INTRA.SOLV>
0

>  <SCORE.INTRA.SOLV.lig_0>
0.449748

>  <SCORE.INTRA.VDW>
0

>  <SCORE.INTRA.VDW.0>
0

>  <SCORE.INTRA.norm>
0

>  <SCORE.RESTR>
0

>  <SCORE.RESTR.CAVITY>
0

>  <SCORE.RESTR.norm>
0

>  <SCORE.SYSTEM>
0

>  <SCORE.SYSTEM.CONST>
0

>  <SCORE.SYSTEM.DIHEDRAL>
0

>  <SCORE.SYSTEM.SOLV>
0

>  <SCORE.SYSTEM.norm>
0

>  <SCORE.heavy>
4

>  <SCORE.norm>
-1.0872

>  <RMSD>
0.989

$$$$
ligand
 OpenBabel11021811493D
libRbt.so/2013.1/901 2013/11/27
  4  3  0  0  0  0  0  0  0  0999 V2000
   36.6432   19.4185   10.9402 C   0  0  0  0  0  0  0  0  0  0  0  0
   36.3600   19.6591   12.1346 O   0  0  0  0  0  0  0  0  0  0  0  0
   36.2208   20.4679    9.9206 C   0  0  0  0  0  0  0  0  0  0  0  0
   37.2585   18.3731   10.4486 O   0  0  0  0  0  0  0  0  0  0  0  0
  1  2  1  0  0  0  0
  1  3  1  0  0  0  0
  1  4  1  0  0  0  0
M  END
>  <CHROM.1>
36.62564105,19.46764031,10.87102848,0.62870833,-1.07260511,1.81218446

>  <Name>
ligand

>  <RI>
0

>  <Rbt.Current_Directory>
/home/itssahil/PROJECTS/Mol_Feturizer/New_Systems/rnas/4FEN

>  <Rbt.Executable>
rbdock ($Id: //depot/dev/client3/rdock/2013.1/src/exe/rbdock.cxx#4 $)

>  <Rbt.Library>
libRbt.so (2013.1, Build901 2013/11/27)

>  <Rbt.Parameter_File>
/export/apps/rDock/src/rDock_2013.1_src/data/scripts/dock_solv.prm

>  <Rbt.Receptor>
prm/pocket_docking_4.prm

>  <SCORE>
-4.32861

>  <SCORE.INTER>
-4.32861

>  <SCORE.INTER.CONST>
1

>  <SCORE.INTER.POLAR>
0

>  <SCORE.INTER.ROT>
0

>  <SCORE.INTER.SOLV>
2.15837

>  <SCORE.INTER.VDW>
-7.20519

>  <SCORE.INTER.norm>
-1.08215

>  <SCORE.INTRA>
0

>  <SCORE.INTRA.DIHEDRAL>
0

>  <SCORE.INTRA.DIHEDRAL.0>
0

>  <SCORE.INTRA.POLAR>
0

>  <SCORE.INTRA.POLAR.0>
0

>  <SCORE.INTRA.REPUL>
0

>  <SCORE.INTRA.REPUL.0>
0

>  <SCORE.INTRA.SOLV>
0

>  <SCORE.INTRA.SOLV.lig_0>
0.449748

>  <SCORE.INTRA.VDW>
0

>  <SCORE.INTRA.VDW.0>
0

>  <SCORE.INTRA.norm>
0

>  <SCORE.RESTR>
0

>  <SCORE.RESTR.CAVITY>
0

>  <SCORE.RESTR.norm>
0

>  <SCORE.SYSTEM>
0

>  <SCORE.SYSTEM.CONST>
0

>  <SCORE.SYSTEM.DIHEDRAL>
0

>  <SCORE.SYSTEM.SOLV>
0

>  <SCORE.SYSTEM.norm>
0

>  <SCORE.heavy>
4

>  <SCORE.norm>
-1.08215

>  <RMSD>
1.043

$$$$
ligand
 OpenBabel11021811493D
libRbt.so/2013.1/901 2013/11/27
  4  3  0  0  0  0  0  0  0  0999 V2000
   36.6480   19.4273   10.9449 C   0  0  0  0  0  0  0  0  0  0  0  0
   36.3538   19.6672   12.1368 O   0  0  0  0  0  0  0  0  0  0  0  0
   36.2228   20.4708    9.9204 C   0  0  0  0  0  0  0  0  0  0  0  0
   37.2770   18.3871   10.4597 O   0  0  0  0  0  0  0  0  0  0  0  0
  1  2  1  0  0  0  0
  1  3  1  0  0  0  0
  1  4  1  0  0  0  0
M  END
>  <CHROM.1>
36.63044246,19.47613751,10.87553934,0.63841390,-1.06140945,1.81893530

>  <Name>
ligand

>  <RI>
0

>  <Rbt.Current_Directory>
/home/itssahil/PROJECTS/Mol_Feturizer/New_Systems/rnas/4FEN

>  <Rbt.Executable>
rbdock ($Id: //depot/dev/client3/rdock/2013.1/src/exe/rbdock.cxx#4 $)

>  <Rbt.Library>
libRbt.so (2013.1, Build901 2013/11/27)

>  <Rbt.Parameter_File>
/export/apps/rDock/src/rDock_2013.1_src/data/scripts/dock_solv.prm

>  <Rbt.Receptor>
prm/pocket_docking_6.prm

>  <SCORE>
-4.32788

>  <SCORE.INTER>
-4.32788

>  <SCORE.INTER.CONST>
1

>  <SCORE.INTER.POLAR>
0

>  <SCORE.INTER.ROT>
0

>  <SCORE.INTER.SOLV>
2.16874

>  <SCORE.INTER.VDW>
-7.20817

>  <SCORE.INTER.norm>
-1.08197

>  <SCORE.INTRA>
0

>  <SCORE.INTRA.DIHEDRAL>
0

>  <SCORE.INTRA.DIHEDRAL.0>
0

>  <SCORE.INTRA.POLAR>
0

>  <SCORE.INTRA.POLAR.0>
0

>  <SCORE.INTRA.REPUL>
0

>  <SCORE.INTRA.REPUL.0>
0

>  <SCORE.INTRA.SOLV>
0

>  <SCORE.INTRA.SOLV.lig_0>
0.449748

>  <SCORE.INTRA.VDW>
0

>  <SCORE.INTRA.VDW.0>
0

>  <SCORE.INTRA.norm>
0

>  <SCORE.RESTR>
0

>  <SCORE.RESTR.CAVITY>
0

>  <SCORE.RESTR.norm>
0

>  <SCORE.SYSTEM>
0

>  <SCORE.SYSTEM.CONST>
0

>  <SCORE.SYSTEM.DIHEDRAL>
0

>  <SCORE.SYSTEM.SOLV>
0

>  <SCORE.SYSTEM.norm>
0

>  <SCORE.heavy>
4

>  <SCORE.norm>
-1.08197

>  <RMSD>
1.050

$$$$
ligand
 OpenBabel11021811493D
libRbt.so/2013.1/901 2013/11/27
  4  3  0  0  0  0  0  0  0  0999 V2000
   36.6632   19.4367   10.9511 C   0  0  0  0  0  0  0  0  0  0  0  0
   36.3672   19.6740   12.1431 O   0  0  0  0  0  0  0  0  0  0  0  0
   36.2564   20.4913    9.9305 C   0  0  0  0  0  0  0  0  0  0  0  0
   37.2802   18.3907   10.4629 O   0  0  0  0  0  0  0  0  0  0  0  0
  1  2  1  0  0  0  0
  1  3  1  0  0  0  0
  1  4  1  0  0  0  0
M  END
>  <CHROM.1>
36.64661319,19.48609879,10.88194249,0.65396305,-1.07337072,1.83797347

>  <Name>
ligand

>  <RI>
0

>  <Rbt.Current_Directory>
/home/itssahil/PROJECTS/Mol_Feturizer/New_Systems/rnas/4FEN

>  <Rbt.Executable>
rbdock ($Id: //depot/dev/client3/rdock/2013.1/src/exe/rbdock.cxx#4 $)

>  <Rbt.Library>
libRbt.so (2013.1, Build901 2013/11/27)

>  <Rbt.Parameter_File>
/export/apps/rDock/src/rDock_2013.1_src/data/scripts/dock_solv.prm

>  <Rbt.Receptor>
prm/blind_docking_60.prm

>  <SCORE>
-4.32219

>  <SCORE.INTER>
-4.32219

>  <SCORE.INTER.CONST>
1

>  <SCORE.INTER.POLAR>
0

>  <SCORE.INTER.ROT>
0

>  <SCORE.INTER.SOLV>
2.19416

>  <SCORE.INTER.VDW>
-7.21285

>  <SCORE.INTER.norm>
-1.08055

>  <SCORE.INTRA>
0

>  <SCORE.INTRA.DIHEDRAL>
0

>  <SCORE.INTRA.DIHEDRAL.0>
0

>  <SCORE.INTRA.POLAR>
0

>  <SCORE.INTRA.POLAR.0>
0

>  <SCORE.INTRA.REPUL>
0

>  <SCORE.INTRA.REPUL.0>
0

>  <SCORE.INTRA.SOLV>
0

>  <SCORE.INTRA.SOLV.lig_0>
0.449748

>  <SCORE.INTRA.VDW>
0

>  <SCORE.INTRA.VDW.0>
0

>  <SCORE.INTRA.norm>
0

>  <SCORE.RESTR>
0

>  <SCORE.RESTR.CAVITY>
0

>  <SCORE.RESTR.norm>
0

>  <SCORE.SYSTEM>
0

>  <SCORE.SYSTEM.CONST>
0

>  <SCORE.SYSTEM.DIHEDRAL>
0

>  <SCORE.SYSTEM.SOLV>
0

>  <SCORE.SYSTEM.norm>
0

>  <SCORE.heavy>
4

>  <SCORE.norm>
-1.08055

>  <RMSD>
1.053

$$$$
ligand
 OpenBabel11021811493D
libRbt.so/2013.1/901 2013/11/27
  4  3  0  0  0  0  0  0  0  0999 V2000
   36.4344   19.9658    8.9891 C   0  0  0  0  0  0  0  0  0  0  0  0
   36.4655   21.1756    8.6728 O   0  0  0  0  0  0  0  0  0  0  0  0
   36.3862   19.6576   10.4798 C   0  0  0  0  0  0  0  0  0  0  0  0
   36.4397   18.9220    8.1994 O   0  0  0  0  0  0  0  0  0  0  0  0
  1  2  1  0  0  0  0
  1  3  1  0  0  0  0
  1  4  1  0  0  0  0
M  END
>  <CHROM.1>
36.43200735,19.93230381,9.06899678,-0.66261521,1.53681293,0.54291006

>  <Name>
ligand

>  <RI>
0

>  <Rbt.Current_Directory>
/home/itssahil/PROJECTS/Mol_Feturizer/New_Systems/rnas/4FEN

>  <Rbt.Executable>
rbdock ($Id: //depot/dev/client3/rdock/2013.1/src/exe/rbdock.cxx#4 $)

>  <Rbt.Library>
libRbt.so (2013.1, Build901 2013/11/27)

>  <Rbt.Parameter_File>
/export/apps/rDock/src/rDock_2013.1_src/data/scripts/dock_solv.prm

>  <Rbt.Receptor>
prm/pocket_docking_8.prm

>  <SCORE>
-3.69416

>  <SCORE.INTER>
-3.69416

>  <SCORE.INTER.CONST>
1

>  <SCORE.INTER.POLAR>
0

>  <SCORE.INTER.ROT>
0

>  <SCORE.INTER.SOLV>
1.53151

>  <SCORE.INTER.VDW>
-6.57327

>  <SCORE.INTER.norm>
-0.92354

>  <SCORE.INTRA>
0

>  <SCORE.INTRA.DIHEDRAL>
0

>  <SCORE.INTRA.DIHEDRAL.0>
0

>  <SCORE.INTRA.POLAR>
0

>  <SCORE.INTRA.POLAR.0>
0

>  <SCORE.INTRA.REPUL>
0

>  <SCORE.INTRA.REPUL.0>
0

>  <SCORE.INTRA.SOLV>
0

>  <SCORE.INTRA.SOLV.lig_0>
0.449748

>  <SCORE.INTRA.VDW>
0

>  <SCORE.INTRA.VDW.0>
0

>  <SCORE.INTRA.norm>
0

>  <SCORE.RESTR>
0

>  <SCORE.RESTR.CAVITY>
0

>  <SCORE.RESTR.norm>
0

>  <SCORE.SYSTEM>
0

>  <SCORE.SYSTEM.CONST>
0

>  <SCORE.SYSTEM.DIHEDRAL>
0

>  <SCORE.SYSTEM.SOLV>
0

>  <SCORE.SYSTEM.norm>
0

>  <SCORE.heavy>
4

>  <SCORE.norm>
-0.92354

>  <RMSD>
1.475

$$$$
ligand
 OpenBabel11021811493D
libRbt.so/2013.1/901 2013/11/27
  4  3  0  0  0  0  0  0  0  0999 V2000
   36.6286   18.5729    9.3368 C   0  0  0  0  0  0  0  0  0  0  0  0
   36.5756   17.7975    8.3565 O   0  0  0  0  0  0  0  0  0  0  0  0
   35.9430   19.9224    9.1693 C   0  0  0  0  0  0  0  0  0  0  0  0
   37.2028   18.3743   10.4961 O   0  0  0  0  0  0  0  0  0  0  0  0
  1  2  1  0  0  0  0
  1  3  1  0  0  0  0
  1  4  1  0  0  0  0
M  END
>  <CHROM.1>
36.59524113,18.65260384,9.34264746,0.21791329,1.01712233,-2.30974476

>  <Name>
ligand

>  <RI>
0

>  <Rbt.Current_Directory>
/home/itssahil/PROJECTS/Mol_Feturizer/New_Systems/rnas/4FEN

>  <Rbt.Executable>
rbdock ($Id: //depot/dev/client3/rdock/2013.1/src/exe/rbdock.cxx#4 $)

>  <Rbt.Library>
libRbt.so (2013.1, Build901 2013/11/27)

>  <Rbt.Parameter_File>
/export/apps/rDock/src/rDock_2013.1_src/data/scripts/dock_solv.prm

>  <Rbt.Receptor>
prm/pocket_docking_7.prm

>  <SCORE>
-4.93135

>  <SCORE.INTER>
-4.93135

>  <SCORE.INTER.CONST>
1

>  <SCORE.INTER.POLAR>
0

>  <SCORE.INTER.ROT>
0

>  <SCORE.INTER.SOLV>
1.54694

>  <SCORE.INTER.VDW>
-7.40321

>  <SCORE.INTER.norm>
-1.23284

>  <SCORE.INTRA>
0

>  <SCORE.INTRA.DIHEDRAL>
0

>  <SCORE.INTRA.DIHEDRAL.0>
0

>  <SCORE.INTRA.POLAR>
0

>  <SCORE.INTRA.POLAR.0>
0

>  <SCORE.INTRA.REPUL>
0

>  <SCORE.INTRA.REPUL.0>
0

>  <SCORE.INTRA.SOLV>
0

>  <SCORE.INTRA.SOLV.lig_0>
0.449748

>  <SCORE.INTRA.VDW>
0

>  <SCORE.INTRA.VDW.0>
0

>  <SCORE.INTRA.norm>
0

>  <SCORE.RESTR>
0

>  <SCORE.RESTR.CAVITY>
0

>  <SCORE.RESTR.norm>
0

>  <SCORE.SYSTEM>
0

>  <SCORE.SYSTEM.CONST>
0

>  <SCORE.SYSTEM.DIHEDRAL>
0

>  <SCORE.SYSTEM.SOLV>
0

>  <SCORE.SYSTEM.norm>
0

>  <SCORE.heavy>
4

>  <SCORE.norm>
-1.23284

>  <RMSD>
1.812

$$$$
ligand
 OpenBabel11021811493D
libRbt.so/2013.1/901 2013/11/27
  4  3  0  0  0  0  0  0  0  0999 V2000
   36.6183   18.5983    9.2975 C   0  0  0  0  0  0  0  0  0  0  0  0
   36.5653   17.7915    8.3431 O   0  0  0  0  0  0  0  0  0  0  0  0
   35.9561   19.9518    9.0764 C   0  0  0  0  0  0  0  0  0  0  0  0
   37.1749   18.4299   10.4702 O   0  0  0  0  0  0  0  0  0  0  0  0
  1  2  1  0  0  0  0
  1  3  1  0  0  0  0
  1  4  1  0  0  0  0
M  END
>  <CHROM.1>
36.58613856,18.67870023,9.30034974,0.22063239,1.03708555,-2.34544135

>  <Name>
ligand

>  <RI>
0

>  <Rbt.Current_Directory>
/home/itssahil/PROJECTS/Mol_Feturizer/New_Systems/rnas/4FEN

>  <Rbt.Executable>
rbdock ($Id: //depot/dev/client3/rdock/2013.1/src/exe/rbdock.cxx#4 $)

>  <Rbt.Library>
libRbt.so (2013.1, Build901 2013/11/27)

>  <Rbt.Parameter_File>
/export/apps/rDock/src/rDock_2013.1_src/data/scripts/dock_solv.prm

>  <Rbt.Receptor>
prm/pocket_docking_4.prm

>  <SCORE>
-4.93321

>  <SCORE.INTER>
-4.93326

>  <SCORE.INTER.CONST>
1

>  <SCORE.INTER.POLAR>
0

>  <SCORE.INTER.ROT>
0

>  <SCORE.INTER.SOLV>
1.55308

>  <SCORE.INTER.VDW>
-7.40653

>  <SCORE.INTER.norm>
-1.23331

>  <SCORE.INTRA>
0

>  <SCORE.INTRA.DIHEDRAL>
0

>  <SCORE.INTRA.DIHEDRAL.0>
0

>  <SCORE.INTRA.POLAR>
0

>  <SCORE.INTRA.POLAR.0>
0

>  <SCORE.INTRA.REPUL>
0

>  <SCORE.INTRA.REPUL.0>
0

>  <SCORE.INTRA.SOLV>
0

>  <SCORE.INTRA.SOLV.lig_0>
0.449748

>  <SCORE.INTRA.VDW>
0

>  <SCORE.INTRA.VDW.0>
0

>  <SCORE.INTRA.norm>
0

>  <SCORE.RESTR>
5.04586e-05

>  <SCORE.RESTR.CAVITY>
5.04586e-05

>  <SCORE.RESTR.norm>
1.26146e-05

>  <SCORE.SYSTEM>
0

>  <SCORE.SYSTEM.CONST>
0

>  <SCORE.SYSTEM.DIHEDRAL>
0

>  <SCORE.SYSTEM.SOLV>
0

>  <SCORE.SYSTEM.norm>
0

>  <SCORE.heavy>
4

>  <SCORE.norm>
-1.2333

>  <RMSD>
1.814

$$$$
ligand
 OpenBabel11021811493D
libRbt.so/2013.1/901 2013/11/27
  4  3  0  0  0  0  0  0  0  0999 V2000
   36.6326   18.6112    9.3087 C   0  0  0  0  0  0  0  0  0  0  0  0
   37.1563   18.4568   10.4342 O   0  0  0  0  0  0  0  0  0  0  0  0
   35.9926   19.9669    9.0409 C   0  0  0  0  0  0  0  0  0  0  0  0
   36.5609   17.7516    8.3242 O   0  0  0  0  0  0  0  0  0  0  0  0
  1  2  1  0  0  0  0
  1  3  1  0  0  0  0
  1  4  1  0  0  0  0
M  END
>  <CHROM.1>
36.59213214,18.68162851,9.27871571,-0.87768568,-1.05444136,0.75735745

>  <Name>
ligand

>  <RI>
0

>  <Rbt.Current_Directory>
/home/itssahil/PROJECTS/Mol_Feturizer/New_Systems/rnas/4FEN

>  <Rbt.Executable>
rbdock ($Id: //depot/dev/client3/rdock/2013.1/src/exe/rbdock.cxx#4 $)

>  <Rbt.Library>
libRbt.so (2013.1, Build901 2013/11/27)

>  <Rbt.Parameter_File>
/export/apps/rDock/src/rDock_2013.1_src/data/scripts/dock_solv.prm

>  <Rbt.Receptor>
prm/pocket_docking_4.prm

>  <SCORE>
-4.92463

>  <SCORE.INTER>
-4.92463

>  <SCORE.INTER.CONST>
1

>  <SCORE.INTER.POLAR>
0

>  <SCORE.INTER.ROT>
0

>  <SCORE.INTER.SOLV>
1.55879

>  <SCORE.INTER.VDW>
-7.40269

>  <SCORE.INTER.norm>
-1.23116

>  <SCORE.INTRA>
0

>  <SCORE.INTRA.DIHEDRAL>
0

>  <SCORE.INTRA.DIHEDRAL.0>
0

>  <SCORE.INTRA.POLAR>
0

>  <SCORE.INTRA.POLAR.0>
0

>  <SCORE.INTRA.REPUL>
0

>  <SCORE.INTRA.REPUL.0>
0

>  <SCORE.INTRA.SOLV>
0

>  <SCORE.INTRA.SOLV.lig_0>
0.449748

>  <SCORE.INTRA.VDW>
0

>  <SCORE.INTRA.VDW.0>
0

>  <SCORE.INTRA.norm>
0

>  <SCORE.RESTR>
0

>  <SCORE.RESTR.CAVITY>
0

>  <SCORE.RESTR.norm>
0

>  <SCORE.SYSTEM>
0

>  <SCORE.SYSTEM.CONST>
0

>  <SCORE.SYSTEM.DIHEDRAL>
0

>  <SCORE.SYSTEM.SOLV>
0

>  <SCORE.SYSTEM.norm>
0

>  <SCORE.heavy>
4

>  <SCORE.norm>
-1.23116

>  <RMSD>
1.821

$$$$
ligand
 OpenBabel11021811493D
libRbt.so/2013.1/901 2013/11/27
  4  3  0  0  0  0  0  0  0  0999 V2000
   36.6362   18.5900    9.3377 C   0  0  0  0  0  0  0  0  0  0  0  0
   37.1712   18.4321   10.4573 O   0  0  0  0  0  0  0  0  0  0  0  0
   35.9396   19.9239    9.1032 C   0  0  0  0  0  0  0  0  0  0  0  0
   36.5951   17.7506    8.3342 O   0  0  0  0  0  0  0  0  0  0  0  0
  1  2  1  0  0  0  0
  1  3  1  0  0  0  0
  1  4  1  0  0  0  0
M  END
>  <CHROM.1>
36.59266592,18.65940181,9.30946974,-0.82675772,-1.02207435,0.82385749

>  <Name>
ligand

>  <RI>
0

>  <Rbt.Current_Directory>
/home/itssahil/PROJECTS/Mol_Feturizer/New_Systems/rnas/4FEN

>  <Rbt.Executable>
rbdock ($Id: //depot/dev/client3/rdock/2013.1/src/exe/rbdock.cxx#4 $)

>  <Rbt.Library>
libRbt.so (2013.1, Build901 2013/11/27)

>  <Rbt.Parameter_File>
/export/apps/rDock/src/rDock_2013.1_src/data/scripts/dock_solv.prm

>  <Rbt.Receptor>
prm/pocket_docking_7.prm

>  <SCORE>
-4.90946

>  <SCORE.INTER>
-4.90946

>  <SCORE.INTER.CONST>
1

>  <SCORE.INTER.POLAR>
0

>  <SCORE.INTER.ROT>
0

>  <SCORE.INTER.SOLV>
1.54736

>  <SCORE.INTER.VDW>
-7.38876

>  <SCORE.INTER.norm>
-1.22737

>  <SCORE.INTRA>
0

>  <SCORE.INTRA.DIHEDRAL>
0

>  <SCORE.INTRA.DIHEDRAL.0>
0

>  <SCORE.INTRA.POLAR>
0

>  <SCORE.INTRA.POLAR.0>
0

>  <SCORE.INTRA.REPUL>
0

>  <SCORE.INTRA.REPUL.0>
0

>  <SCORE.INTRA.SOLV>
0

>  <SCORE.INTRA.SOLV.lig_0>
0.449748

>  <SCORE.INTRA.VDW>
0

>  <SCORE.INTRA.VDW.0>
0

>  <SCORE.INTRA.norm>
0

>  <SCORE.RESTR>
0

>  <SCORE.RESTR.CAVITY>
0

>  <SCORE.RESTR.norm>
0

>  <SCORE.SYSTEM>
0

>  <SCORE.SYSTEM.CONST>
0

>  <SCORE.SYSTEM.DIHEDRAL>
0

>  <SCORE.SYSTEM.SOLV>
0

>  <SCORE.SYSTEM.norm>
0

>  <SCORE.heavy>
4

>  <SCORE.norm>
-1.22737

>  <RMSD>
1.822

$$$$
ligand
 OpenBabel11021811493D
libRbt.so/2013.1/901 2013/11/27
  4  3  0  0  0  0  0  0  0  0999 V2000
   36.6235   18.5505    9.3549 C   0  0  0  0  0  0  0  0  0  0  0  0
   36.6127   17.7979    8.3558 O   0  0  0  0  0  0  0  0  0  0  0  0
   35.8338   19.8470    9.2334 C   0  0  0  0  0  0  0  0  0  0  0  0
   37.2318   18.3681   10.4995 O   0  0  0  0  0  0  0  0  0  0  0  0
  1  2  1  0  0  0  0
  1  3  1  0  0  0  0
  1  4  1  0  0  0  0
M  END
>  <CHROM.1>
36.58431187,18.62727043,9.36339389,0.15197670,0.94746486,-2.22942908

>  <Name>
ligand

>  <RI>
0

>  <Rbt.Current_Directory>
/home/itssahil/PROJECTS/Mol_Feturizer/New_Systems/rnas/4FEN

>  <Rbt.Executable>
rbdock ($Id: //depot/dev/client3/rdock/2013.1/src/exe/rbdock.cxx#4 $)

>  <Rbt.Library>
libRbt.so (2013.1, Build901 2013/11/27)

>  <Rbt.Parameter_File>
/export/apps/rDock/src/rDock_2013.1_src/data/scripts/dock_solv.prm

>  <Rbt.Receptor>
prm/pocket_docking_7.prm

>  <SCORE>
-4.96436

>  <SCORE.INTER>
-4.96436

>  <SCORE.INTER.CONST>
1

>  <SCORE.INTER.POLAR>
0

>  <SCORE.INTER.ROT>
0

>  <SCORE.INTER.SOLV>
1.52648

>  <SCORE.INTER.VDW>
-7.4184

>  <SCORE.INTER.norm>
-1.24109

>  <SCORE.INTRA>
0

>  <SCORE.INTRA.DIHEDRAL>
0

>  <SCORE.INTRA.DIHEDRAL.0>
0

>  <SCORE.INTRA.POLAR>
0

>  <SCORE.INTRA.POLAR.0>
0

>  <SCORE.INTRA.REPUL>
0

>  <SCORE.INTRA.REPUL.0>
0

>  <SCORE.INTRA.SOLV>
0

>  <SCORE.INTRA.SOLV.lig_0>
0.449748

>  <SCORE.INTRA.VDW>
0

>  <SCORE.INTRA.VDW.0>
0

>  <SCORE.INTRA.norm>
0

>  <SCORE.RESTR>
0

>  <SCORE.RESTR.CAVITY>
0

>  <SCORE.RESTR.norm>
0

>  <SCORE.SYSTEM>
0

>  <SCORE.SYSTEM.CONST>
0

>  <SCORE.SYSTEM.DIHEDRAL>
0

>  <SCORE.SYSTEM.SOLV>
0

>  <SCORE.SYSTEM.norm>
0

>  <SCORE.heavy>
4

>  <SCORE.norm>
-1.24109

>  <RMSD>
1.828

$$$$
ligand
 OpenBabel11021811493D
libRbt.so/2013.1/901 2013/11/27
  4  3  0  0  0  0  0  0  0  0999 V2000
   36.6412   18.5472    9.3834 C   0  0  0  0  0  0  0  0  0  0  0  0
   37.2100   18.3693   10.4832 O   0  0  0  0  0  0  0  0  0  0  0  0
   35.8631   19.8470    9.2270 C   0  0  0  0  0  0  0  0  0  0  0  0
   36.6260   17.7543    8.3421 O   0  0  0  0  0  0  0  0  0  0  0  0
  1  2  1  0  0  0  0
  1  3  1  0  0  0  0
  1  4  1  0  0  0  0
M  END
>  <CHROM.1>
36.59306078,18.61512395,9.35944653,-0.78706386,-0.96346575,0.90428634

>  <Name>
ligand

>  <RI>
0

>  <Rbt.Current_Directory>
/home/itssahil/PROJECTS/Mol_Feturizer/New_Systems/rnas/4FEN

>  <Rbt.Executable>
rbdock ($Id: //depot/dev/client3/rdock/2013.1/src/exe/rbdock.cxx#4 $)

>  <Rbt.Library>
libRbt.so (2013.1, Build901 2013/11/27)

>  <Rbt.Parameter_File>
/export/apps/rDock/src/rDock_2013.1_src/data/scripts/dock_solv.prm

>  <Rbt.Receptor>
prm/pocket_docking_4.prm

>  <SCORE>
-4.94948

>  <SCORE.INTER>
-4.94948

>  <SCORE.INTER.CONST>
1

>  <SCORE.INTER.POLAR>
0

>  <SCORE.INTER.ROT>
0

>  <SCORE.INTER.SOLV>
1.52785

>  <SCORE.INTER.VDW>
-7.40894

>  <SCORE.INTER.norm>
-1.23737

>  <SCORE.INTRA>
0

>  <SCORE.INTRA.DIHEDRAL>
0

>  <SCORE.INTRA.DIHEDRAL.0>
0

>  <SCORE.INTRA.POLAR>
0

>  <SCORE.INTRA.POLAR.0>
0

>  <SCORE.INTRA.REPUL>
0

>  <SCORE.INTRA.REPUL.0>
0

>  <SCORE.INTRA.SOLV>
0

>  <SCORE.INTRA.SOLV.lig_0>
0.449748

>  <SCORE.INTRA.VDW>
0

>  <SCORE.INTRA.VDW.0>
0

>  <SCORE.INTRA.norm>
0

>  <SCORE.RESTR>
0

>  <SCORE.RESTR.CAVITY>
0

>  <SCORE.RESTR.norm>
0

>  <SCORE.SYSTEM>
0

>  <SCORE.SYSTEM.CONST>
0

>  <SCORE.SYSTEM.DIHEDRAL>
0

>  <SCORE.SYSTEM.SOLV>
0

>  <SCORE.SYSTEM.norm>
0

>  <SCORE.heavy>
4

>  <SCORE.norm>
-1.23737

>  <RMSD>
1.834

$$$$
ligand
 OpenBabel11021811493D
libRbt.so/2013.1/901 2013/11/27
  4  3  0  0  0  0  0  0  0  0999 V2000
   36.6391   18.5414    9.3851 C   0  0  0  0  0  0  0  0  0  0  0  0
   37.2013   18.3692   10.4891 O   0  0  0  0  0  0  0  0  0  0  0  0
   35.8518   19.8347    9.2216 C   0  0  0  0  0  0  0  0  0  0  0  0
   36.6379   17.7474    8.3445 O   0  0  0  0  0  0  0  0  0  0  0  0
  1  2  1  0  0  0  0
  1  3  1  0  0  0  0
  1  4  1  0  0  0  0
M  END
>  <CHROM.1>
36.59063671,18.60888810,9.36064014,-0.76835467,-0.96155139,0.91858598

>  <Name>
ligand

>  <RI>
0

>  <Rbt.Current_Directory>
/home/itssahil/PROJECTS/Mol_Feturizer/New_Systems/rnas/4FEN

>  <Rbt.Executable>
rbdock ($Id: //depot/dev/client3/rdock/2013.1/src/exe/rbdock.cxx#4 $)

>  <Rbt.Library>
libRbt.so (2013.1, Build901 2013/11/27)

>  <Rbt.Parameter_File>
/export/apps/rDock/src/rDock_2013.1_src/data/scripts/dock_solv.prm

>  <Rbt.Receptor>
prm/pocket_docking_4.prm

>  <SCORE>
-4.95036

>  <SCORE.INTER>
-4.95036

>  <SCORE.INTER.CONST>
1

>  <SCORE.INTER.POLAR>
0

>  <SCORE.INTER.ROT>
0

>  <SCORE.INTER.SOLV>
1.52161

>  <SCORE.INTER.VDW>
-7.40744

>  <SCORE.INTER.norm>
-1.23759

>  <SCORE.INTRA>
0

>  <SCORE.INTRA.DIHEDRAL>
0

>  <SCORE.INTRA.DIHEDRAL.0>
0

>  <SCORE.INTRA.POLAR>
0

>  <SCORE.INTRA.POLAR.0>
0

>  <SCORE.INTRA.REPUL>
0

>  <SCORE.INTRA.REPUL.0>
0

>  <SCORE.INTRA.SOLV>
0

>  <SCORE.INTRA.SOLV.lig_0>
0.449748

>  <SCORE.INTRA.VDW>
0

>  <SCORE.INTRA.VDW.0>
0

>  <SCORE.INTRA.norm>
0

>  <SCORE.RESTR>
0

>  <SCORE.RESTR.CAVITY>
0

>  <SCORE.RESTR.norm>
0

>  <SCORE.SYSTEM>
0

>  <SCORE.SYSTEM.CONST>
0

>  <SCORE.SYSTEM.DIHEDRAL>
0

>  <SCORE.SYSTEM.SOLV>
0

>  <SCORE.SYSTEM.norm>
0

>  <SCORE.heavy>
4

>  <SCORE.norm>
-1.23759

>  <RMSD>
1.837

$$$$
ligand
 OpenBabel11021811493D
libRbt.so/2013.1/901 2013/11/27
  4  3  0  0  0  0  0  0  0  0999 V2000
   36.6236   18.5289    9.3830 C   0  0  0  0  0  0  0  0  0  0  0  0
   37.1899   18.3427   10.4827 O   0  0  0  0  0  0  0  0  0  0  0  0
   35.8442   19.8289    9.2353 C   0  0  0  0  0  0  0  0  0  0  0  0
   36.6122   17.7447    8.3350 O   0  0  0  0  0  0  0  0  0  0  0  0
  1  2  1  0  0  0  0
  1  3  1  0  0  0  0
  1  4  1  0  0  0  0
M  END
>  <CHROM.1>
36.57549348,18.59697616,9.35941902,-0.78200816,-0.96395467,0.91673997

>  <Name>
ligand

>  <RI>
0

>  <Rbt.Current_Directory>
/home/itssahil/PROJECTS/Mol_Feturizer/New_Systems/rnas/4FEN

>  <Rbt.Executable>
rbdock ($Id: //depot/dev/client3/rdock/2013.1/src/exe/rbdock.cxx#4 $)

>  <Rbt.Library>
libRbt.so (2013.1, Build901 2013/11/27)

>  <Rbt.Parameter_File>
/export/apps/rDock/src/rDock_2013.1_src/data/scripts/dock_solv.prm

>  <Rbt.Receptor>
prm/pocket_docking_7.prm

>  <SCORE>
-4.91731

>  <SCORE.INTER>
-4.91731

>  <SCORE.INTER.CONST>
1

>  <SCORE.INTER.POLAR>
0

>  <SCORE.INTER.ROT>
0

>  <SCORE.INTER.SOLV>
1.51746

>  <SCORE.INTER.VDW>
-7.38402

>  <SCORE.INTER.norm>
-1.22933

>  <SCORE.INTRA>
0

>  <SCORE.INTRA.DIHEDRAL>
0

>  <SCORE.INTRA.DIHEDRAL.0>
0

>  <SCORE.INTRA.POLAR>
0

>  <SCORE.INTRA.POLAR.0>
0

>  <SCORE.INTRA.REPUL>
0

>  <SCORE.INTRA.REPUL.0>
0

>  <SCORE.INTRA.SOLV>
0

>  <SCORE.INTRA.SOLV.lig_0>
0.449748

>  <SCORE.INTRA.VDW>
0

>  <SCORE.INTRA.VDW.0>
0

>  <SCORE.INTRA.norm>
0

>  <SCORE.RESTR>
0

>  <SCORE.RESTR.CAVITY>
0

>  <SCORE.RESTR.norm>
0

>  <SCORE.SYSTEM>
0

>  <SCORE.SYSTEM.CONST>
0

>  <SCORE.SYSTEM.DIHEDRAL>
0

>  <SCORE.SYSTEM.SOLV>
0

>  <SCORE.SYSTEM.norm>
0

>  <SCORE.heavy>
4

>  <SCORE.norm>
-1.22933

>  <RMSD>
1.841

$$$$
ligand
 OpenBabel11021811493D
libRbt.so/2013.1/901 2013/11/27
  4  3  0  0  0  0  0  0  0  0999 V2000
   36.6674   18.5987    9.3063 C   0  0  0  0  0  0  0  0  0  0  0  0
   37.2097   18.4547   10.4243 O   0  0  0  0  0  0  0  0  0  0  0  0
   36.0033   19.9442    9.0452 C   0  0  0  0  0  0  0  0  0  0  0  0
   36.5941   17.7360    8.3247 O   0  0  0  0  0  0  0  0  0  0  0  0
  1  2  1  0  0  0  0
  1  3  1  0  0  0  0
  1  4  1  0  0  0  0
M  END
>  <CHROM.1>
36.62540164,18.66852454,9.27679352,-0.87611825,-1.03354557,0.75658637

>  <Name>
ligand

>  <RI>
0

>  <Rbt.Current_Directory>
/home/itssahil/PROJECTS/Mol_Feturizer/New_Systems/rnas/4FEN

>  <Rbt.Executable>
rbdock ($Id: //depot/dev/client3/rdock/2013.1/src/exe/rbdock.cxx#4 $)

>  <Rbt.Library>
libRbt.so (2013.1, Build901 2013/11/27)

>  <Rbt.Parameter_File>
/export/apps/rDock/src/rDock_2013.1_src/data/scripts/dock_solv.prm

>  <Rbt.Receptor>
prm/pocket_docking_4.prm

>  <SCORE>
-4.89935

>  <SCORE.INTER>
-4.89949

>  <SCORE.INTER.CONST>
1

>  <SCORE.INTER.POLAR>
0

>  <SCORE.INTER.ROT>
0

>  <SCORE.INTER.SOLV>
1.56903

>  <SCORE.INTER.VDW>
-7.38934

>  <SCORE.INTER.norm>
-1.22487

>  <SCORE.INTRA>
0

>  <SCORE.INTRA.DIHEDRAL>
0

>  <SCORE.INTRA.DIHEDRAL.0>
0

>  <SCORE.INTRA.POLAR>
0

>  <SCORE.INTRA.POLAR.0>
0

>  <SCORE.INTRA.REPUL>
0

>  <SCORE.INTRA.REPUL.0>
0

>  <SCORE.INTRA.SOLV>
0

>  <SCORE.INTRA.SOLV.lig_0>
0.449748

>  <SCORE.INTRA.VDW>
0

>  <SCORE.INTRA.VDW.0>
0

>  <SCORE.INTRA.norm>
0

>  <SCORE.RESTR>
0.000143667

>  <SCORE.RESTR.CAVITY>
0.000143667

>  <SCORE.RESTR.norm>
3.59168e-05

>  <SCORE.SYSTEM>
0

>  <SCORE.SYSTEM.CONST>
0

>  <SCORE.SYSTEM.DIHEDRAL>
0

>  <SCORE.SYSTEM.SOLV>
0

>  <SCORE.SYSTEM.norm>
0

>  <SCORE.heavy>
4

>  <SCORE.norm>
-1.22484

>  <RMSD>
1.845

$$$$
ligand
 OpenBabel11021811493D
libRbt.so/2013.1/901 2013/11/27
  4  3  0  0  0  0  0  0  0  0999 V2000
   36.5944   18.5754    9.2876 C   0  0  0  0  0  0  0  0  0  0  0  0
   37.1559   18.5016   10.4029 O   0  0  0  0  0  0  0  0  0  0  0  0
   35.7850   19.8375    9.0203 C   0  0  0  0  0  0  0  0  0  0  0  0
   36.6106   17.7013    8.3134 O   0  0  0  0  0  0  0  0  0  0  0  0
  1  2  1  0  0  0  0
  1  3  1  0  0  0  0
  1  4  1  0  0  0  0
M  END
>  <CHROM.1>
36.54483912,18.63991645,9.25777955,-0.74552327,-0.94941955,0.85763955

>  <Name>
ligand

>  <RI>
0

>  <Rbt.Current_Directory>
/home/itssahil/PROJECTS/Mol_Feturizer/New_Systems/rnas/4FEN

>  <Rbt.Executable>
rbdock ($Id: //depot/dev/client3/rdock/2013.1/src/exe/rbdock.cxx#4 $)

>  <Rbt.Library>
libRbt.so (2013.1, Build901 2013/11/27)

>  <Rbt.Parameter_File>
/export/apps/rDock/src/rDock_2013.1_src/data/scripts/dock_solv.prm

>  <Rbt.Receptor>
prm/pocket_docking_4.prm

>  <SCORE>
-4.88102

>  <SCORE.INTER>
-4.88102

>  <SCORE.INTER.CONST>
1

>  <SCORE.INTER.POLAR>
0

>  <SCORE.INTER.ROT>
0

>  <SCORE.INTER.SOLV>
1.53502

>  <SCORE.INTER.VDW>
-7.36569

>  <SCORE.INTER.norm>
-1.22025

>  <SCORE.INTRA>
0

>  <SCORE.INTRA.DIHEDRAL>
0

>  <SCORE.INTRA.DIHEDRAL.0>
0

>  <SCORE.INTRA.POLAR>
0

>  <SCORE.INTRA.POLAR.0>
0

>  <SCORE.INTRA.REPUL>
0

>  <SCORE.INTRA.REPUL.0>
0

>  <SCORE.INTRA.SOLV>
0

>  <SCORE.INTRA.SOLV.lig_0>
0.449748

>  <SCORE.INTRA.VDW>
0

>  <SCORE.INTRA.VDW.0>
0

>  <SCORE.INTRA.norm>
0

>  <SCORE.RESTR>
0

>  <SCORE.RESTR.CAVITY>
0

>  <SCORE.RESTR.norm>
0

>  <SCORE.SYSTEM>
0

>  <SCORE.SYSTEM.CONST>
0

>  <SCORE.SYSTEM.DIHEDRAL>
0

>  <SCORE.SYSTEM.SOLV>
0

>  <SCORE.SYSTEM.norm>
0

>  <SCORE.heavy>
4

>  <SCORE.norm>
-1.22025

>  <RMSD>
1.869

$$$$
ligand
 OpenBabel11021811493D
libRbt.so/2013.1/901 2013/11/27
  4  3  0  0  0  0  0  0  0  0999 V2000
   36.6248   18.5196    9.2825 C   0  0  0  0  0  0  0  0  0  0  0  0
   36.5641   17.7309    8.3135 O   0  0  0  0  0  0  0  0  0  0  0  0
   35.9884   19.8885    9.0811 C   0  0  0  0  0  0  0  0  0  0  0  0
   37.1701   18.3205   10.4557 O   0  0  0  0  0  0  0  0  0  0  0  0
  1  2  1  0  0  0  0
  1  3  1  0  0  0  0
  1  4  1  0  0  0  0
M  END
>  <CHROM.1>
36.59406048,18.60051156,9.28654992,0.23582062,1.05468472,-2.34082877

>  <Name>
ligand

>  <RI>
0

>  <Rbt.Current_Directory>
/home/itssahil/PROJECTS/Mol_Feturizer/New_Systems/rnas/4FEN

>  <Rbt.Executable>
rbdock ($Id: //depot/dev/client3/rdock/2013.1/src/exe/rbdock.cxx#4 $)

>  <Rbt.Library>
libRbt.so (2013.1, Build901 2013/11/27)

>  <Rbt.Parameter_File>
/export/apps/rDock/src/rDock_2013.1_src/data/scripts/dock_solv.prm

>  <Rbt.Receptor>
prm/pocket_docking_7.prm

>  <SCORE>
-4.92889

>  <SCORE.INTER>
-4.92889

>  <SCORE.INTER.CONST>
1

>  <SCORE.INTER.POLAR>
0

>  <SCORE.INTER.ROT>
0

>  <SCORE.INTER.SOLV>
1.54555

>  <SCORE.INTER.VDW>
-7.40111

>  <SCORE.INTER.norm>
-1.23222

>  <SCORE.INTRA>
0

>  <SCORE.INTRA.DIHEDRAL>
0

>  <SCORE.INTRA.DIHEDRAL.0>
0

>  <SCORE.INTRA.POLAR>
0

>  <SCORE.INTRA.POLAR.0>
0

>  <SCORE.INTRA.REPUL>
0

>  <SCORE.INTRA.REPUL.0>
0

>  <SCORE.INTRA.SOLV>
0

>  <SCORE.INTRA.SOLV.lig_0>
0.449748

>  <SCORE.INTRA.VDW>
0

>  <SCORE.INTRA.VDW.0>
0

>  <SCORE.INTRA.norm>
0

>  <SCORE.RESTR>
0

>  <SCORE.RESTR.CAVITY>
0

>  <SCORE.RESTR.norm>
0

>  <SCORE.SYSTEM>
0

>  <SCORE.SYSTEM.CONST>
0

>  <SCORE.SYSTEM.DIHEDRAL>
0

>  <SCORE.SYSTEM.SOLV>
0

>  <SCORE.SYSTEM.norm>
0

>  <SCORE.heavy>
4

>  <SCORE.norm>
-1.23222

>  <RMSD>
1.872

$$$$
ligand
 OpenBabel11021811493D
libRbt.so/2013.1/901 2013/11/27
  4  3  0  0  0  0  0  0  0  0999 V2000
   36.6469   18.5276    9.2700 C   0  0  0  0  0  0  0  0  0  0  0  0
   36.5784   17.7232    8.3145 O   0  0  0  0  0  0  0  0  0  0  0  0
   36.0331   19.9026    9.0417 C   0  0  0  0  0  0  0  0  0  0  0  0
   37.1835   18.3405   10.4491 O   0  0  0  0  0  0  0  0  0  0  0  0
  1  2  1  0  0  0  0
  1  3  1  0  0  0  0
  1  4  1  0  0  0  0
M  END
>  <CHROM.1>
36.61742739,18.60906372,9.27248035,0.25155863,1.06918360,-2.37195339

>  <Name>
ligand

>  <RI>
0

>  <Rbt.Current_Directory>
/home/itssahil/PROJECTS/Mol_Feturizer/New_Systems/rnas/4FEN

>  <Rbt.Executable>
rbdock ($Id: //depot/dev/client3/rdock/2013.1/src/exe/rbdock.cxx#4 $)

>  <Rbt.Library>
libRbt.so (2013.1, Build901 2013/11/27)

>  <Rbt.Parameter_File>
/export/apps/rDock/src/rDock_2013.1_src/data/scripts/dock_solv.prm

>  <Rbt.Receptor>
prm/pocket_docking_7.prm

>  <SCORE>
-4.94938

>  <SCORE.INTER>
-4.94938

>  <SCORE.INTER.CONST>
1

>  <SCORE.INTER.POLAR>
0

>  <SCORE.INTER.ROT>
0

>  <SCORE.INTER.SOLV>
1.55518

>  <SCORE.INTER.VDW>
-7.41798

>  <SCORE.INTER.norm>
-1.23735

>  <SCORE.INTRA>
0

>  <SCORE.INTRA.DIHEDRAL>
0

>  <SCORE.INTRA.DIHEDRAL.0>
0

>  <SCORE.INTRA.POLAR>
0

>  <SCORE.INTRA.POLAR.0>
0

>  <SCORE.INTRA.REPUL>
0

>  <SCORE.INTRA.REPUL.0>
0

>  <SCORE.INTRA.SOLV>
0

>  <SCORE.INTRA.SOLV.lig_0>
0.449748

>  <SCORE.INTRA.VDW>
0

>  <SCORE.INTRA.VDW.0>
0

>  <SCORE.INTRA.norm>
0

>  <SCORE.RESTR>
0

>  <SCORE.RESTR.CAVITY>
0

>  <SCORE.RESTR.norm>
0

>  <SCORE.SYSTEM>
0

>  <SCORE.SYSTEM.CONST>
0

>  <SCORE.SYSTEM.DIHEDRAL>
0

>  <SCORE.SYSTEM.SOLV>
0

>  <SCORE.SYSTEM.norm>
0

>  <SCORE.heavy>
4

>  <SCORE.norm>
-1.23735

>  <RMSD>
1.880

$$$$
ligand
 OpenBabel11021811493D
libRbt.so/2013.1/901 2013/11/27
  4  3  0  0  0  0  0  0  0  0999 V2000
   36.6417   18.4882    9.3584 C   0  0  0  0  0  0  0  0  0  0  0  0
   37.1851   18.2926   10.4680 O   0  0  0  0  0  0  0  0  0  0  0  0
   35.9066   19.8112    9.1894 C   0  0  0  0  0  0  0  0  0  0  0  0
   36.6209   17.6966    8.3162 O   0  0  0  0  0  0  0  0  0  0  0  0
  1  2  1  0  0  0  0
  1  3  1  0  0  0  0
  1  4  1  0  0  0  0
M  END
>  <CHROM.1>
36.59612633,18.55756431,9.33366414,-0.79600584,-0.99845338,0.89754319

>  <Name>
ligand

>  <RI>
0

>  <Rbt.Current_Directory>
/home/itssahil/PROJECTS/Mol_Feturizer/New_Systems/rnas/4FEN

>  <Rbt.Executable>
rbdock ($Id: //depot/dev/client3/rdock/2013.1/src/exe/rbdock.cxx#4 $)

>  <Rbt.Library>
libRbt.so (2013.1, Build901 2013/11/27)

>  <Rbt.Parameter_File>
/export/apps/rDock/src/rDock_2013.1_src/data/scripts/dock_solv.prm

>  <Rbt.Receptor>
prm/pocket_docking_7.prm

>  <SCORE>
-4.91863

>  <SCORE.INTER>
-4.91863

>  <SCORE.INTER.CONST>
1

>  <SCORE.INTER.POLAR>
0

>  <SCORE.INTER.ROT>
0

>  <SCORE.INTER.SOLV>
1.52253

>  <SCORE.INTER.VDW>
-7.3866

>  <SCORE.INTER.norm>
-1.22966

>  <SCORE.INTRA>
0

>  <SCORE.INTRA.DIHEDRAL>
0

>  <SCORE.INTRA.DIHEDRAL.0>
0

>  <SCORE.INTRA.POLAR>
0

>  <SCORE.INTRA.POLAR.0>
0

>  <SCORE.INTRA.REPUL>
0

>  <SCORE.INTRA.REPUL.0>
0

>  <SCORE.INTRA.SOLV>
0

>  <SCORE.INTRA.SOLV.lig_0>
0.449748

>  <SCORE.INTRA.VDW>
0

>  <SCORE.INTRA.VDW.0>
0

>  <SCORE.INTRA.norm>
0

>  <SCORE.RESTR>
0

>  <SCORE.RESTR.CAVITY>
0

>  <SCORE.RESTR.norm>
0

>  <SCORE.SYSTEM>
0

>  <SCORE.SYSTEM.CONST>
0

>  <SCORE.SYSTEM.DIHEDRAL>
0

>  <SCORE.SYSTEM.SOLV>
0

>  <SCORE.SYSTEM.norm>
0

>  <SCORE.heavy>
4

>  <SCORE.norm>
-1.22966

>  <RMSD>
1.881

$$$$
ligand
 OpenBabel11021811493D
libRbt.so/2013.1/901 2013/11/27
  4  3  0  0  0  0  0  0  0  0999 V2000
   36.6363   18.5132    9.3085 C   0  0  0  0  0  0  0  0  0  0  0  0
   37.1969   18.3208   10.4100 O   0  0  0  0  0  0  0  0  0  0  0  0
   35.9528   19.8616    9.1239 C   0  0  0  0  0  0  0  0  0  0  0  0
   36.5584   17.6991    8.2865 O   0  0  0  0  0  0  0  0  0  0  0  0
  1  2  1  0  0  0  0
  1  3  1  0  0  0  0
  1  4  1  0  0  0  0
M  END
>  <CHROM.1>
36.59306671,18.58379393,9.28304333,-0.87954093,-1.01469791,0.80314154

>  <Name>
ligand

>  <RI>
0

>  <Rbt.Current_Directory>
/home/itssahil/PROJECTS/Mol_Feturizer/New_Systems/rnas/4FEN

>  <Rbt.Executable>
rbdock ($Id: //depot/dev/client3/rdock/2013.1/src/exe/rbdock.cxx#4 $)

>  <Rbt.Library>
libRbt.so (2013.1, Build901 2013/11/27)

>  <Rbt.Parameter_File>
/export/apps/rDock/src/rDock_2013.1_src/data/scripts/dock_solv.prm

>  <Rbt.Receptor>
prm/pocket_docking_4.prm

>  <SCORE>
-4.9108

>  <SCORE.INTER>
-4.91082

>  <SCORE.INTER.CONST>
1

>  <SCORE.INTER.POLAR>
0

>  <SCORE.INTER.ROT>
0

>  <SCORE.INTER.SOLV>
1.55197

>  <SCORE.INTER.VDW>
-7.3912

>  <SCORE.INTER.norm>
-1.22771

>  <SCORE.INTRA>
0

>  <SCORE.INTRA.DIHEDRAL>
0

>  <SCORE.INTRA.DIHEDRAL.0>
0

>  <SCORE.INTRA.POLAR>
0

>  <SCORE.INTRA.POLAR.0>
0

>  <SCORE.INTRA.REPUL>
0

>  <SCORE.INTRA.REPUL.0>
0

>  <SCORE.INTRA.SOLV>
0

>  <SCORE.INTRA.SOLV.lig_0>
0.449748

>  <SCORE.INTRA.VDW>
0

>  <SCORE.INTRA.VDW.0>
0

>  <SCORE.INTRA.norm>
0

>  <SCORE.RESTR>
1.85216e-05

>  <SCORE.RESTR.CAVITY>
1.85216e-05

>  <SCORE.RESTR.norm>
4.63039e-06

>  <SCORE.SYSTEM>
0

>  <SCORE.SYSTEM.CONST>
0

>  <SCORE.SYSTEM.DIHEDRAL>
0

>  <SCORE.SYSTEM.SOLV>
0

>  <SCORE.SYSTEM.norm>
0

>  <SCORE.heavy>
4

>  <SCORE.norm>
-1.2277

>  <RMSD>
1.890

$$$$
ligand
 OpenBabel11021811493D
libRbt.so/2013.1/901 2013/11/27
  4  3  0  0  0  0  0  0  0  0999 V2000
   36.6297   18.5123    9.3043 C   0  0  0  0  0  0  0  0  0  0  0  0
   37.1909   18.3140   10.4045 O   0  0  0  0  0  0  0  0  0  0  0  0
   35.9546   19.8655    9.1238 C   0  0  0  0  0  0  0  0  0  0  0  0
   36.5449   17.7010    8.2807 O   0  0  0  0  0  0  0  0  0  0  0  0
  1  2  1  0  0  0  0
  1  3  1  0  0  0  0
  1  4  1  0  0  0  0
M  END
>  <CHROM.1>
36.58689631,18.58328624,9.27908931,-0.89040752,-1.01813157,0.79607185

>  <Name>
ligand

>  <RI>
0

>  <Rbt.Current_Directory>
/home/itssahil/PROJECTS/Mol_Feturizer/New_Systems/rnas/4FEN

>  <Rbt.Executable>
rbdock ($Id: //depot/dev/client3/rdock/2013.1/src/exe/rbdock.cxx#4 $)

>  <Rbt.Library>
libRbt.so (2013.1, Build901 2013/11/27)

>  <Rbt.Parameter_File>
/export/apps/rDock/src/rDock_2013.1_src/data/scripts/dock_solv.prm

>  <Rbt.Receptor>
prm/pocket_docking_7.prm

>  <SCORE>
-4.90533

>  <SCORE.INTER>
-4.90533

>  <SCORE.INTER.CONST>
1

>  <SCORE.INTER.POLAR>
0

>  <SCORE.INTER.ROT>
0

>  <SCORE.INTER.SOLV>
1.55282

>  <SCORE.INTER.VDW>
-7.38783

>  <SCORE.INTER.norm>
-1.22633

>  <SCORE.INTRA>
0

>  <SCORE.INTRA.DIHEDRAL>
0

>  <SCORE.INTRA.DIHEDRAL.0>
0

>  <SCORE.INTRA.POLAR>
0

>  <SCORE.INTRA.POLAR.0>
0

>  <SCORE.INTRA.REPUL>
0

>  <SCORE.INTRA.REPUL.0>
0

>  <SCORE.INTRA.SOLV>
0

>  <SCORE.INTRA.SOLV.lig_0>
0.449748

>  <SCORE.INTRA.VDW>
0

>  <SCORE.INTRA.VDW.0>
0

>  <SCORE.INTRA.norm>
0

>  <SCORE.RESTR>
0

>  <SCORE.RESTR.CAVITY>
0

>  <SCORE.RESTR.norm>
0

>  <SCORE.SYSTEM>
0

>  <SCORE.SYSTEM.CONST>
0

>  <SCORE.SYSTEM.DIHEDRAL>
0

>  <SCORE.SYSTEM.SOLV>
0

>  <SCORE.SYSTEM.norm>
0

>  <SCORE.heavy>
4

>  <SCORE.norm>
-1.22633

>  <RMSD>
1.890

$$$$
ligand
 OpenBabel11021811493D
libRbt.so/2013.1/901 2013/11/27
  4  3  0  0  0  0  0  0  0  0999 V2000
   36.6530   18.5004    9.3436 C   0  0  0  0  0  0  0  0  0  0  0  0
   37.2400   18.3134   10.4322 O   0  0  0  0  0  0  0  0  0  0  0  0
   35.9075   19.8201    9.1953 C   0  0  0  0  0  0  0  0  0  0  0  0
   36.5940   17.7022    8.3079 O   0  0  0  0  0  0  0  0  0  0  0  0
  1  2  1  0  0  0  0
  1  3  1  0  0  0  0
  1  4  1  0  0  0  0
M  END
>  <CHROM.1>
36.60625112,18.56949126,9.32019308,-0.84657582,-0.97090942,0.84917108

>  <Name>
ligand

>  <RI>
0

>  <Rbt.Current_Directory>
/home/itssahil/PROJECTS/Mol_Feturizer/New_Systems/rnas/4FEN

>  <Rbt.Executable>
rbdock ($Id: //depot/dev/client3/rdock/2013.1/src/exe/rbdock.cxx#4 $)

>  <Rbt.Library>
libRbt.so (2013.1, Build901 2013/11/27)

>  <Rbt.Parameter_File>
/export/apps/rDock/src/rDock_2013.1_src/data/scripts/dock_solv.prm

>  <Rbt.Receptor>
prm/pocket_docking_7.prm

>  <SCORE>
-4.93067

>  <SCORE.INTER>
-4.93067

>  <SCORE.INTER.CONST>
1

>  <SCORE.INTER.POLAR>
0

>  <SCORE.INTER.ROT>
0

>  <SCORE.INTER.SOLV>
1.54187

>  <SCORE.INTER.VDW>
-7.40107

>  <SCORE.INTER.norm>
-1.23267

>  <SCORE.INTRA>
0

>  <SCORE.INTRA.DIHEDRAL>
0

>  <SCORE.INTRA.DIHEDRAL.0>
0

>  <SCORE.INTRA.POLAR>
0

>  <SCORE.INTRA.POLAR.0>
0

>  <SCORE.INTRA.REPUL>
0

>  <SCORE.INTRA.REPUL.0>
0

>  <SCORE.INTRA.SOLV>
0

>  <SCORE.INTRA.SOLV.lig_0>
0.449748

>  <SCORE.INTRA.VDW>
0

>  <SCORE.INTRA.VDW.0>
0

>  <SCORE.INTRA.norm>
0

>  <SCORE.RESTR>
0

>  <SCORE.RESTR.CAVITY>
0

>  <SCORE.RESTR.norm>
0

>  <SCORE.SYSTEM>
0

>  <SCORE.SYSTEM.CONST>
0

>  <SCORE.SYSTEM.DIHEDRAL>
0

>  <SCORE.SYSTEM.SOLV>
0

>  <SCORE.SYSTEM.norm>
0

>  <SCORE.heavy>
4

>  <SCORE.norm>
-1.23267

>  <RMSD>
1.890

$$$$
ligand
 OpenBabel11021811493D
libRbt.so/2013.1/901 2013/11/27
  4  3  0  0  0  0  0  0  0  0999 V2000
   36.6499   18.5396    9.2409 C   0  0  0  0  0  0  0  0  0  0  0  0
   36.5984   17.6938    8.3208 O   0  0  0  0  0  0  0  0  0  0  0  0
   35.9923   19.8844    8.9608 C   0  0  0  0  0  0  0  0  0  0  0  0
   37.2015   18.4189   10.4218 O   0  0  0  0  0  0  0  0  0  0  0  0
  1  2  1  0  0  0  0
  1  3  1  0  0  0  0
  1  4  1  0  0  0  0
M  END
>  <CHROM.1>
36.61799545,18.62016406,9.24026374,0.21896589,1.04175553,-2.38578484

>  <Name>
ligand

>  <RI>
0

>  <Rbt.Current_Directory>
/home/itssahil/PROJECTS/Mol_Feturizer/New_Systems/rnas/4FEN

>  <Rbt.Executable>
rbdock ($Id: //depot/dev/client3/rdock/2013.1/src/exe/rbdock.cxx#4 $)

>  <Rbt.Library>
libRbt.so (2013.1, Build901 2013/11/27)

>  <Rbt.Parameter_File>
/export/apps/rDock/src/rDock_2013.1_src/data/scripts/dock_solv.prm

>  <Rbt.Receptor>
prm/pocket_docking_4.prm

>  <SCORE>
-4.96007

>  <SCORE.INTER>
-4.96007

>  <SCORE.INTER.CONST>
1

>  <SCORE.INTER.POLAR>
0

>  <SCORE.INTER.ROT>
0

>  <SCORE.INTER.SOLV>
1.55498

>  <SCORE.INTER.VDW>
-7.42504

>  <SCORE.INTER.norm>
-1.24002

>  <SCORE.INTRA>
0

>  <SCORE.INTRA.DIHEDRAL>
0

>  <SCORE.INTRA.DIHEDRAL.0>
0

>  <SCORE.INTRA.POLAR>
0

>  <SCORE.INTRA.POLAR.0>
0

>  <SCORE.INTRA.REPUL>
0

>  <SCORE.INTRA.REPUL.0>
0

>  <SCORE.INTRA.SOLV>
0

>  <SCORE.INTRA.SOLV.lig_0>
0.449748

>  <SCORE.INTRA.VDW>
0

>  <SCORE.INTRA.VDW.0>
0

>  <SCORE.INTRA.norm>
0

>  <SCORE.RESTR>
0

>  <SCORE.RESTR.CAVITY>
0

>  <SCORE.RESTR.norm>
0

>  <SCORE.SYSTEM>
0

>  <SCORE.SYSTEM.CONST>
0

>  <SCORE.SYSTEM.DIHEDRAL>
0

>  <SCORE.SYSTEM.SOLV>
0

>  <SCORE.SYSTEM.norm>
0

>  <SCORE.heavy>
4

>  <SCORE.norm>
-1.24002

>  <RMSD>
1.899

$$$$
ligand
 OpenBabel11021811493D
libRbt.so/2013.1/901 2013/11/27
  4  3  0  0  0  0  0  0  0  0999 V2000
   36.6462   18.5049    9.2697 C   0  0  0  0  0  0  0  0  0  0  0  0
   36.5617   17.7130    8.3050 O   0  0  0  0  0  0  0  0  0  0  0  0
   35.9982   19.8703    9.0824 C   0  0  0  0  0  0  0  0  0  0  0  0
   37.2253   18.3117   10.4275 O   0  0  0  0  0  0  0  0  0  0  0  0
  1  2  1  0  0  0  0
  1  3  1  0  0  0  0
  1  4  1  0  0  0  0
M  END
>  <CHROM.1>
36.61523489,18.58566828,9.27434323,0.26919865,1.03153570,-2.37262357

>  <Name>
ligand

>  <RI>
0

>  <Rbt.Current_Directory>
/home/itssahil/PROJECTS/Mol_Feturizer/New_Systems/rnas/4FEN

>  <Rbt.Executable>
rbdock ($Id: //depot/dev/client3/rdock/2013.1/src/exe/rbdock.cxx#4 $)

>  <Rbt.Library>
libRbt.so (2013.1, Build901 2013/11/27)

>  <Rbt.Parameter_File>
/export/apps/rDock/src/rDock_2013.1_src/data/scripts/dock_solv.prm

>  <Rbt.Receptor>
prm/pocket_docking_4.prm

>  <SCORE>
-4.93765

>  <SCORE.INTER>
-4.93765

>  <SCORE.INTER.CONST>
1

>  <SCORE.INTER.POLAR>
0

>  <SCORE.INTER.ROT>
0

>  <SCORE.INTER.SOLV>
1.55806

>  <SCORE.INTER.VDW>
-7.41112

>  <SCORE.INTER.norm>
-1.23441

>  <SCORE.INTRA>
0

>  <SCORE.INTRA.DIHEDRAL>
0

>  <SCORE.INTRA.DIHEDRAL.0>
0

>  <SCORE.INTRA.POLAR>
0

>  <SCORE.INTRA.POLAR.0>
0

>  <SCORE.INTRA.REPUL>
0

>  <SCORE.INTRA.REPUL.0>
0

>  <SCORE.INTRA.SOLV>
0

>  <SCORE.INTRA.SOLV.lig_0>
0.449748

>  <SCORE.INTRA.VDW>
0

>  <SCORE.INTRA.VDW.0>
0

>  <SCORE.INTRA.norm>
0

>  <SCORE.RESTR>
0

>  <SCORE.RESTR.CAVITY>
0

>  <SCORE.RESTR.norm>
0

>  <SCORE.SYSTEM>
0

>  <SCORE.SYSTEM.CONST>
0

>  <SCORE.SYSTEM.DIHEDRAL>
0

>  <SCORE.SYSTEM.SOLV>
0

>  <SCORE.SYSTEM.norm>
0

>  <SCORE.heavy>
4

>  <SCORE.norm>
-1.23441

>  <RMSD>
1.900

$$$$
ligand
 OpenBabel11021811493D
libRbt.so/2013.1/901 2013/11/27
  4  3  0  0  0  0  0  0  0  0999 V2000
   36.6184   18.5214    9.2381 C   0  0  0  0  0  0  0  0  0  0  0  0
   36.5718   17.7010    8.2949 O   0  0  0  0  0  0  0  0  0  0  0  0
   35.9341   19.8615    9.0030 C   0  0  0  0  0  0  0  0  0  0  0  0
   37.1849   18.3775   10.4092 O   0  0  0  0  0  0  0  0  0  0  0  0
  1  2  1  0  0  0  0
  1  3  1  0  0  0  0
  1  4  1  0  0  0  0
M  END
>  <CHROM.1>
36.58504210,18.60135619,9.24000277,0.20867762,1.02166186,-2.34873350

>  <Name>
ligand

>  <RI>
0

>  <Rbt.Current_Directory>
/home/itssahil/PROJECTS/Mol_Feturizer/New_Systems/rnas/4FEN

>  <Rbt.Executable>
rbdock ($Id: //depot/dev/client3/rdock/2013.1/src/exe/rbdock.cxx#4 $)

>  <Rbt.Library>
libRbt.so (2013.1, Build901 2013/11/27)

>  <Rbt.Parameter_File>
/export/apps/rDock/src/rDock_2013.1_src/data/scripts/dock_solv.prm

>  <Rbt.Receptor>
prm/pocket_docking_4.prm

>  <SCORE>
-4.93205

>  <SCORE.INTER>
-4.93212

>  <SCORE.INTER.CONST>
1

>  <SCORE.INTER.POLAR>
0

>  <SCORE.INTER.ROT>
0

>  <SCORE.INTER.SOLV>
1.55132

>  <SCORE.INTER.VDW>
-7.40518

>  <SCORE.INTER.norm>
-1.23303

>  <SCORE.INTRA>
0

>  <SCORE.INTRA.DIHEDRAL>
0

>  <SCORE.INTRA.DIHEDRAL.0>
0

>  <SCORE.INTRA.POLAR>
0

>  <SCORE.INTRA.POLAR.0>
0

>  <SCORE.INTRA.REPUL>
0

>  <SCORE.INTRA.REPUL.0>
0

>  <SCORE.INTRA.SOLV>
0

>  <SCORE.INTRA.SOLV.lig_0>
0.449748

>  <SCORE.INTRA.VDW>
0

>  <SCORE.INTRA.VDW.0>
0

>  <SCORE.INTRA.norm>
0

>  <SCORE.RESTR>
7.03563e-05

>  <SCORE.RESTR.CAVITY>
7.03563e-05

>  <SCORE.RESTR.norm>
1.75891e-05

>  <SCORE.SYSTEM>
0

>  <SCORE.SYSTEM.CONST>
0

>  <SCORE.SYSTEM.DIHEDRAL>
0

>  <SCORE.SYSTEM.SOLV>
0

>  <SCORE.SYSTEM.norm>
0

>  <SCORE.heavy>
4

>  <SCORE.norm>
-1.23301

>  <RMSD>
1.905

$$$$
ligand
 OpenBabel11021811493D
libRbt.so/2013.1/901 2013/11/27
  4  3  0  0  0  0  0  0  0  0999 V2000
   36.6024   18.5279    9.2370 C   0  0  0  0  0  0  0  0  0  0  0  0
   36.6196   17.6883    8.3100 O   0  0  0  0  0  0  0  0  0  0  0  0
   35.8220   19.8091    8.9745 C   0  0  0  0  0  0  0  0  0  0  0  0
   37.1741   18.4489   10.4118 O   0  0  0  0  0  0  0  0  0  0  0  0
  1  2  1  0  0  0  0
  1  3  1  0  0  0  0
  1  4  1  0  0  0  0
M  END
>  <CHROM.1>
36.56325343,18.60521858,9.23732085,0.11292074,0.96925890,-2.28782385

>  <Name>
ligand

>  <RI>
0

>  <Rbt.Current_Directory>
/home/itssahil/PROJECTS/Mol_Feturizer/New_Systems/rnas/4FEN

>  <Rbt.Executable>
rbdock ($Id: //depot/dev/client3/rdock/2013.1/src/exe/rbdock.cxx#4 $)

>  <Rbt.Library>
libRbt.so (2013.1, Build901 2013/11/27)

>  <Rbt.Parameter_File>
/export/apps/rDock/src/rDock_2013.1_src/data/scripts/dock_solv.prm

>  <Rbt.Receptor>
prm/pocket_docking_4.prm

>  <SCORE>
-4.93943

>  <SCORE.INTER>
-4.93943

>  <SCORE.INTER.CONST>
1

>  <SCORE.INTER.POLAR>
0

>  <SCORE.INTER.ROT>
0

>  <SCORE.INTER.SOLV>
1.53938

>  <SCORE.INTER.VDW>
-7.40608

>  <SCORE.INTER.norm>
-1.23486

>  <SCORE.INTRA>
0

>  <SCORE.INTRA.DIHEDRAL>
0

>  <SCORE.INTRA.DIHEDRAL.0>
0

>  <SCORE.INTRA.POLAR>
0

>  <SCORE.INTRA.POLAR.0>
0

>  <SCORE.INTRA.REPUL>
0

>  <SCORE.INTRA.REPUL.0>
0

>  <SCORE.INTRA.SOLV>
0

>  <SCORE.INTRA.SOLV.lig_0>
0.449748

>  <SCORE.INTRA.VDW>
0

>  <SCORE.INTRA.VDW.0>
0

>  <SCORE.INTRA.norm>
0

>  <SCORE.RESTR>
0

>  <SCORE.RESTR.CAVITY>
0

>  <SCORE.RESTR.norm>
0

>  <SCORE.SYSTEM>
0

>  <SCORE.SYSTEM.CONST>
0

>  <SCORE.SYSTEM.DIHEDRAL>
0

>  <SCORE.SYSTEM.SOLV>
0

>  <SCORE.SYSTEM.norm>
0

>  <SCORE.heavy>
4

>  <SCORE.norm>
-1.23486

>  <RMSD>
1.909

$$$$
ligand
 OpenBabel11021811493D
libRbt.so/2013.1/901 2013/11/27
  4  3  0  0  0  0  0  0  0  0999 V2000
   36.6366   18.5515    9.2123 C   0  0  0  0  0  0  0  0  0  0  0  0
   36.6135   17.6879    8.3076 O   0  0  0  0  0  0  0  0  0  0  0  0
   35.9569   19.8777    8.8987 C   0  0  0  0  0  0  0  0  0  0  0  0
   37.1751   18.4635   10.4021 O   0  0  0  0  0  0  0  0  0  0  0  0
  1  2  1  0  0  0  0
  1  3  1  0  0  0  0
  1  4  1  0  0  0  0
M  END
>  <CHROM.1>
36.60317378,18.63134447,9.20970526,0.17377741,1.03750710,-2.36548058

>  <Name>
ligand

>  <RI>
0

>  <Rbt.Current_Directory>
/home/itssahil/PROJECTS/Mol_Feturizer/New_Systems/rnas/4FEN

>  <Rbt.Executable>
rbdock ($Id: //depot/dev/client3/rdock/2013.1/src/exe/rbdock.cxx#4 $)

>  <Rbt.Library>
libRbt.so (2013.1, Build901 2013/11/27)

>  <Rbt.Parameter_File>
/export/apps/rDock/src/rDock_2013.1_src/data/scripts/dock_solv.prm

>  <Rbt.Receptor>
prm/pocket_docking_7.prm

>  <SCORE>
-4.94797

>  <SCORE.INTER>
-4.94797

>  <SCORE.INTER.CONST>
1

>  <SCORE.INTER.POLAR>
0

>  <SCORE.INTER.ROT>
0

>  <SCORE.INTER.SOLV>
1.55843

>  <SCORE.INTER.VDW>
-7.41812

>  <SCORE.INTER.norm>
-1.23699

>  <SCORE.INTRA>
0

>  <SCORE.INTRA.DIHEDRAL>
0

>  <SCORE.INTRA.DIHEDRAL.0>
0

>  <SCORE.INTRA.POLAR>
0

>  <SCORE.INTRA.POLAR.0>
0

>  <SCORE.INTRA.REPUL>
0

>  <SCORE.INTRA.REPUL.0>
0

>  <SCORE.INTRA.SOLV>
0

>  <SCORE.INTRA.SOLV.lig_0>
0.449748

>  <SCORE.INTRA.VDW>
0

>  <SCORE.INTRA.VDW.0>
0

>  <SCORE.INTRA.norm>
0

>  <SCORE.RESTR>
0

>  <SCORE.RESTR.CAVITY>
0

>  <SCORE.RESTR.norm>
0

>  <SCORE.SYSTEM>
0

>  <SCORE.SYSTEM.CONST>
0

>  <SCORE.SYSTEM.DIHEDRAL>
0

>  <SCORE.SYSTEM.SOLV>
0

>  <SCORE.SYSTEM.norm>
0

>  <SCORE.heavy>
4

>  <SCORE.norm>
-1.23699

>  <RMSD>
1.909

$$$$
ligand
 OpenBabel11021811493D
libRbt.so/2013.1/901 2013/11/27
  4  3  0  0  0  0  0  0  0  0999 V2000
   36.6088   18.4847    9.3055 C   0  0  0  0  0  0  0  0  0  0  0  0
   36.6189   17.7121    8.3218 O   0  0  0  0  0  0  0  0  0  0  0  0
   35.7495   19.7352    9.1744 C   0  0  0  0  0  0  0  0  0  0  0  0
   37.2473   18.3581   10.4411 O   0  0  0  0  0  0  0  0  0  0  0  0
  1  2  1  0  0  0  0
  1  3  1  0  0  0  0
  1  4  1  0  0  0  0
M  END
>  <CHROM.1>
36.56576315,18.55942571,9.31324975,0.12417266,0.89394267,-2.22743984

>  <Name>
ligand

>  <RI>
0

>  <Rbt.Current_Directory>
/home/itssahil/PROJECTS/Mol_Feturizer/New_Systems/rnas/4FEN

>  <Rbt.Executable>
rbdock ($Id: //depot/dev/client3/rdock/2013.1/src/exe/rbdock.cxx#4 $)

>  <Rbt.Library>
libRbt.so (2013.1, Build901 2013/11/27)

>  <Rbt.Parameter_File>
/export/apps/rDock/src/rDock_2013.1_src/data/scripts/dock_solv.prm

>  <Rbt.Receptor>
prm/pocket_docking_4.prm

>  <SCORE>
-4.95097

>  <SCORE.INTER>
-4.95098

>  <SCORE.INTER.CONST>
1

>  <SCORE.INTER.POLAR>
0

>  <SCORE.INTER.ROT>
0

>  <SCORE.INTER.SOLV>
1.51821

>  <SCORE.INTER.VDW>
-7.40672

>  <SCORE.INTER.norm>
-1.23774

>  <SCORE.INTRA>
0

>  <SCORE.INTRA.DIHEDRAL>
0

>  <SCORE.INTRA.DIHEDRAL.0>
0

>  <SCORE.INTRA.POLAR>
0

>  <SCORE.INTRA.POLAR.0>
0

>  <SCORE.INTRA.REPUL>
0

>  <SCORE.INTRA.REPUL.0>
0

>  <SCORE.INTRA.SOLV>
0

>  <SCORE.INTRA.SOLV.lig_0>
0.449748

>  <SCORE.INTRA.VDW>
0

>  <SCORE.INTRA.VDW.0>
0

>  <SCORE.INTRA.norm>
0

>  <SCORE.RESTR>
4.33308e-06

>  <SCORE.RESTR.CAVITY>
4.33308e-06

>  <SCORE.RESTR.norm>
1.08327e-06

>  <SCORE.SYSTEM>
0

>  <SCORE.SYSTEM.CONST>
0

>  <SCORE.SYSTEM.DIHEDRAL>
0

>  <SCORE.SYSTEM.SOLV>
0

>  <SCORE.SYSTEM.norm>
0

>  <SCORE.heavy>
4

>  <SCORE.norm>
-1.23774

>  <RMSD>
1.910

$$$$
ligand
 OpenBabel11021811493D
libRbt.so/2013.1/901 2013/11/27
  4  3  0  0  0  0  0  0  0  0999 V2000
   36.6156   18.4692    9.3000 C   0  0  0  0  0  0  0  0  0  0  0  0
   36.6108   17.6982    8.3149 O   0  0  0  0  0  0  0  0  0  0  0  0
   35.7889   19.7413    9.1670 C   0  0  0  0  0  0  0  0  0  0  0  0
   37.2453   18.3246   10.4383 O   0  0  0  0  0  0  0  0  0  0  0  0
  1  2  1  0  0  0  0
  1  3  1  0  0  0  0
  1  4  1  0  0  0  0
M  END
>  <CHROM.1>
36.57440159,18.54502078,9.30766072,0.14338386,0.91678362,-2.24082028

>  <Name>
ligand

>  <RI>
0

>  <Rbt.Current_Directory>
/home/itssahil/PROJECTS/Mol_Feturizer/New_Systems/rnas/4FEN

>  <Rbt.Executable>
rbdock ($Id: //depot/dev/client3/rdock/2013.1/src/exe/rbdock.cxx#4 $)

>  <Rbt.Library>
libRbt.so (2013.1, Build901 2013/11/27)

>  <Rbt.Parameter_File>
/export/apps/rDock/src/rDock_2013.1_src/data/scripts/dock_solv.prm

>  <Rbt.Receptor>
prm/pocket_docking_7.prm

>  <SCORE>
-4.94916

>  <SCORE.INTER>
-4.94916

>  <SCORE.INTER.CONST>
1

>  <SCORE.INTER.POLAR>
0

>  <SCORE.INTER.ROT>
0

>  <SCORE.INTER.SOLV>
1.51936

>  <SCORE.INTER.VDW>
-7.40589

>  <SCORE.INTER.norm>
-1.23729

>  <SCORE.INTRA>
0

>  <SCORE.INTRA.DIHEDRAL>
0

>  <SCORE.INTRA.DIHEDRAL.0>
0

>  <SCORE.INTRA.POLAR>
0

>  <SCORE.INTRA.POLAR.0>
0

>  <SCORE.INTRA.REPUL>
0

>  <SCORE.INTRA.REPUL.0>
0

>  <SCORE.INTRA.SOLV>
0

>  <SCORE.INTRA.SOLV.lig_0>
0.449748

>  <SCORE.INTRA.VDW>
0

>  <SCORE.INTRA.VDW.0>
0

>  <SCORE.INTRA.norm>
0

>  <SCORE.RESTR>
0

>  <SCORE.RESTR.CAVITY>
0

>  <SCORE.RESTR.norm>
0

>  <SCORE.SYSTEM>
0

>  <SCORE.SYSTEM.CONST>
0

>  <SCORE.SYSTEM.DIHEDRAL>
0

>  <SCORE.SYSTEM.SOLV>
0

>  <SCORE.SYSTEM.norm>
0

>  <SCORE.heavy>
4

>  <SCORE.norm>
-1.23729

>  <RMSD>
1.920

$$$$
ligand
 OpenBabel11021811493D
libRbt.so/2013.1/901 2013/11/27
  4  3  0  0  0  0  0  0  0  0999 V2000
   36.6187   18.4685    9.3248 C   0  0  0  0  0  0  0  0  0  0  0  0
   37.2084   18.3179   10.4176 O   0  0  0  0  0  0  0  0  0  0  0  0
   35.8018   19.7442    9.1675 C   0  0  0  0  0  0  0  0  0  0  0  0
   36.6108   17.6651    8.2915 O   0  0  0  0  0  0  0  0  0  0  0  0
  1  2  1  0  0  0  0
  1  3  1  0  0  0  0
  1  4  1  0  0  0  0
M  END
>  <CHROM.1>
36.56834640,18.53483084,9.30086453,-0.77685643,-0.93199289,0.90273132

>  <Name>
ligand

>  <RI>
0

>  <Rbt.Current_Directory>
/home/itssahil/PROJECTS/Mol_Feturizer/New_Systems/rnas/4FEN

>  <Rbt.Executable>
rbdock ($Id: //depot/dev/client3/rdock/2013.1/src/exe/rbdock.cxx#4 $)

>  <Rbt.Library>
libRbt.so (2013.1, Build901 2013/11/27)

>  <Rbt.Parameter_File>
/export/apps/rDock/src/rDock_2013.1_src/data/scripts/dock_solv.prm

>  <Rbt.Receptor>
prm/pocket_docking_4.prm

>  <SCORE>
-4.91511

>  <SCORE.INTER>
-4.91511

>  <SCORE.INTER.CONST>
1

>  <SCORE.INTER.POLAR>
0

>  <SCORE.INTER.ROT>
0

>  <SCORE.INTER.SOLV>
1.51675

>  <SCORE.INTER.VDW>
-7.38232

>  <SCORE.INTER.norm>
-1.22878

>  <SCORE.INTRA>
0

>  <SCORE.INTRA.DIHEDRAL>
0

>  <SCORE.INTRA.DIHEDRAL.0>
0

>  <SCORE.INTRA.POLAR>
0

>  <SCORE.INTRA.POLAR.0>
0

>  <SCORE.INTRA.REPUL>
0

>  <SCORE.INTRA.REPUL.0>
0

>  <SCORE.INTRA.SOLV>
0

>  <SCORE.INTRA.SOLV.lig_0>
0.449748

>  <SCORE.INTRA.VDW>
0

>  <SCORE.INTRA.VDW.0>
0

>  <SCORE.INTRA.norm>
0

>  <SCORE.RESTR>
0

>  <SCORE.RESTR.CAVITY>
0

>  <SCORE.RESTR.norm>
0

>  <SCORE.SYSTEM>
0

>  <SCORE.SYSTEM.CONST>
0

>  <SCORE.SYSTEM.DIHEDRAL>
0

>  <SCORE.SYSTEM.SOLV>
0

>  <SCORE.SYSTEM.norm>
0

>  <SCORE.heavy>
4

>  <SCORE.norm>
-1.22878

>  <RMSD>
1.922

$$$$
ligand
 OpenBabel11021811493D
libRbt.so/2013.1/901 2013/11/27
  4  3  0  0  0  0  0  0  0  0999 V2000
   36.6017   18.4658    9.2947 C   0  0  0  0  0  0  0  0  0  0  0  0
   36.6111   17.6941    8.3102 O   0  0  0  0  0  0  0  0  0  0  0  0
   35.7482   19.7202    9.1624 C   0  0  0  0  0  0  0  0  0  0  0  0
   37.2365   18.3354   10.4319 O   0  0  0  0  0  0  0  0  0  0  0  0
  1  2  1  0  0  0  0
  1  3  1  0  0  0  0
  1  4  1  0  0  0  0
M  END
>  <CHROM.1>
36.55894254,18.54077897,9.30239168,0.12494506,0.89903571,-2.22707733

>  <Name>
ligand

>  <RI>
0

>  <Rbt.Current_Directory>
/home/itssahil/PROJECTS/Mol_Feturizer/New_Systems/rnas/4FEN

>  <Rbt.Executable>
rbdock ($Id: //depot/dev/client3/rdock/2013.1/src/exe/rbdock.cxx#4 $)

>  <Rbt.Library>
libRbt.so (2013.1, Build901 2013/11/27)

>  <Rbt.Parameter_File>
/export/apps/rDock/src/rDock_2013.1_src/data/scripts/dock_solv.prm

>  <Rbt.Receptor>
prm/pocket_docking_4.prm

>  <SCORE>
-4.95322

>  <SCORE.INTER>
-4.95322

>  <SCORE.INTER.CONST>
1

>  <SCORE.INTER.POLAR>
0

>  <SCORE.INTER.ROT>
0

>  <SCORE.INTER.SOLV>
1.51693

>  <SCORE.INTER.VDW>
-7.40779

>  <SCORE.INTER.norm>
-1.23831

>  <SCORE.INTRA>
0

>  <SCORE.INTRA.DIHEDRAL>
0

>  <SCORE.INTRA.DIHEDRAL.0>
0

>  <SCORE.INTRA.POLAR>
0

>  <SCORE.INTRA.POLAR.0>
0

>  <SCORE.INTRA.REPUL>
0

>  <SCORE.INTRA.REPUL.0>
0

>  <SCORE.INTRA.SOLV>
0

>  <SCORE.INTRA.SOLV.lig_0>
0.449748

>  <SCORE.INTRA.VDW>
0

>  <SCORE.INTRA.VDW.0>
0

>  <SCORE.INTRA.norm>
0

>  <SCORE.RESTR>
0

>  <SCORE.RESTR.CAVITY>
0

>  <SCORE.RESTR.norm>
0

>  <SCORE.SYSTEM>
0

>  <SCORE.SYSTEM.CONST>
0

>  <SCORE.SYSTEM.DIHEDRAL>
0

>  <SCORE.SYSTEM.SOLV>
0

>  <SCORE.SYSTEM.norm>
0

>  <SCORE.heavy>
4

>  <SCORE.norm>
-1.23831

>  <RMSD>
1.925

$$$$
ligand
 OpenBabel11021811493D
libRbt.so/2013.1/901 2013/11/27
  4  3  0  0  0  0  0  0  0  0999 V2000
   36.6339   18.5255    9.1929 C   0  0  0  0  0  0  0  0  0  0  0  0
   36.5830   17.7836    8.1871 O   0  0  0  0  0  0  0  0  0  0  0  0
   36.0243   19.9129    9.0412 C   0  0  0  0  0  0  0  0  0  0  0  0
   37.1487   18.2633   10.3674 O   0  0  0  0  0  0  0  0  0  0  0  0
  1  2  1  0  0  0  0
  1  3  1  0  0  0  0
  1  4  1  0  0  0  0
M  END
>  <CHROM.1>
36.60440552,18.60667683,9.19999026,0.22420945,1.08222561,-2.28430329

>  <Name>
ligand

>  <RI>
0

>  <Rbt.Current_Directory>
/home/itssahil/PROJECTS/Mol_Feturizer/New_Systems/rnas/4FEN

>  <Rbt.Executable>
rbdock ($Id: //depot/dev/client3/rdock/2013.1/src/exe/rbdock.cxx#4 $)

>  <Rbt.Library>
libRbt.so (2013.1, Build901 2013/11/27)

>  <Rbt.Parameter_File>
/export/apps/rDock/src/rDock_2013.1_src/data/scripts/dock_solv.prm

>  <Rbt.Receptor>
prm/pocket_docking_5.prm

>  <SCORE>
-5.01622

>  <SCORE.INTER>
-5.01622

>  <SCORE.INTER.CONST>
1

>  <SCORE.INTER.POLAR>
0

>  <SCORE.INTER.ROT>
0

>  <SCORE.INTER.SOLV>
1.58834

>  <SCORE.INTER.VDW>
-7.47359

>  <SCORE.INTER.norm>
-1.25405

>  <SCORE.INTRA>
0

>  <SCORE.INTRA.DIHEDRAL>
0

>  <SCORE.INTRA.DIHEDRAL.0>
0

>  <SCORE.INTRA.POLAR>
0

>  <SCORE.INTRA.POLAR.0>
0

>  <SCORE.INTRA.REPUL>
0

>  <SCORE.INTRA.REPUL.0>
0

>  <SCORE.INTRA.SOLV>
0

>  <SCORE.INTRA.SOLV.lig_0>
0.449748

>  <SCORE.INTRA.VDW>
0

>  <SCORE.INTRA.VDW.0>
0

>  <SCORE.INTRA.norm>
0

>  <SCORE.RESTR>
0

>  <SCORE.RESTR.CAVITY>
0

>  <SCORE.RESTR.norm>
0

>  <SCORE.SYSTEM>
0

>  <SCORE.SYSTEM.CONST>
0

>  <SCORE.SYSTEM.DIHEDRAL>
0

>  <SCORE.SYSTEM.SOLV>
0

>  <SCORE.SYSTEM.norm>
0

>  <SCORE.heavy>
4

>  <SCORE.norm>
-1.25405

>  <RMSD>
1.925

$$$$
ligand
 OpenBabel11021811493D
libRbt.so/2013.1/901 2013/11/27
  4  3  0  0  0  0  0  0  0  0999 V2000
   36.6031   18.4596    9.3186 C   0  0  0  0  0  0  0  0  0  0  0  0
   37.1944   18.3192   10.4120 O   0  0  0  0  0  0  0  0  0  0  0  0
   35.7633   19.7202    9.1610 C   0  0  0  0  0  0  0  0  0  0  0  0
   36.6110   17.6567    8.2849 O   0  0  0  0  0  0  0  0  0  0  0  0
  1  2  1  0  0  0  0
  1  3  1  0  0  0  0
  1  4  1  0  0  0  0
M  END
>  <CHROM.1>
36.55161272,18.52496867,9.29463638,-0.75694466,-0.91823102,0.91910692

>  <Name>
ligand

>  <RI>
0

>  <Rbt.Current_Directory>
/home/itssahil/PROJECTS/Mol_Feturizer/New_Systems/rnas/4FEN

>  <Rbt.Executable>
rbdock ($Id: //depot/dev/client3/rdock/2013.1/src/exe/rbdock.cxx#4 $)

>  <Rbt.Library>
libRbt.so (2013.1, Build901 2013/11/27)

>  <Rbt.Parameter_File>
/export/apps/rDock/src/rDock_2013.1_src/data/scripts/dock_solv.prm

>  <Rbt.Receptor>
prm/pocket_docking_4.prm

>  <SCORE>
-4.91197

>  <SCORE.INTER>
-4.91215

>  <SCORE.INTER.CONST>
1

>  <SCORE.INTER.POLAR>
0

>  <SCORE.INTER.ROT>
0

>  <SCORE.INTER.SOLV>
1.51268

>  <SCORE.INTER.VDW>
-7.379

>  <SCORE.INTER.norm>
-1.22804

>  <SCORE.INTRA>
0

>  <SCORE.INTRA.DIHEDRAL>
0

>  <SCORE.INTRA.DIHEDRAL.0>
0

>  <SCORE.INTRA.POLAR>
0

>  <SCORE.INTRA.POLAR.0>
0

>  <SCORE.INTRA.REPUL>
0

>  <SCORE.INTRA.REPUL.0>
0

>  <SCORE.INTRA.SOLV>
0

>  <SCORE.INTRA.SOLV.lig_0>
0.449748

>  <SCORE.INTRA.VDW>
0

>  <SCORE.INTRA.VDW.0>
0

>  <SCORE.INTRA.norm>
0

>  <SCORE.RESTR>
0.000186727

>  <SCORE.RESTR.CAVITY>
0.000186727

>  <SCORE.RESTR.norm>
4.66817e-05

>  <SCORE.SYSTEM>
0

>  <SCORE.SYSTEM.CONST>
0

>  <SCORE.SYSTEM.DIHEDRAL>
0

>  <SCORE.SYSTEM.SOLV>
0

>  <SCORE.SYSTEM.norm>
0

>  <SCORE.heavy>
4

>  <SCORE.norm>
-1.22799

>  <RMSD>
1.931

$$$$
ligand
 OpenBabel11021811493D
libRbt.so/2013.1/901 2013/11/27
  4  3  0  0  0  0  0  0  0  0999 V2000
   36.6240   18.4825    9.2734 C   0  0  0  0  0  0  0  0  0  0  0  0
   37.1690   18.2109   10.3660 O   0  0  0  0  0  0  0  0  0  0  0  0
   35.8939   19.8168    9.1951 C   0  0  0  0  0  0  0  0  0  0  0  0
   36.5977   17.7626    8.1805 O   0  0  0  0  0  0  0  0  0  0  0  0
  1  2  1  0  0  0  0
  1  3  1  0  0  0  0
  1  4  1  0  0  0  0
M  END
>  <CHROM.1>
36.57865905,18.55358002,9.25339623,-0.80380357,-1.00029001,0.95799917

>  <Name>
ligand

>  <RI>
0

>  <Rbt.Current_Directory>
/home/itssahil/PROJECTS/Mol_Feturizer/New_Systems/rnas/4FEN

>  <Rbt.Executable>
rbdock ($Id: //depot/dev/client3/rdock/2013.1/src/exe/rbdock.cxx#4 $)

>  <Rbt.Library>
libRbt.so (2013.1, Build901 2013/11/27)

>  <Rbt.Parameter_File>
/export/apps/rDock/src/rDock_2013.1_src/data/scripts/dock_solv.prm

>  <Rbt.Receptor>
prm/pocket_docking_5.prm

>  <SCORE>
-4.99715

>  <SCORE.INTER>
-4.99715

>  <SCORE.INTER.CONST>
1

>  <SCORE.INTER.POLAR>
0

>  <SCORE.INTER.ROT>
0

>  <SCORE.INTER.SOLV>
1.56121

>  <SCORE.INTER.VDW>
-7.45184

>  <SCORE.INTER.norm>
-1.24929

>  <SCORE.INTRA>
0

>  <SCORE.INTRA.DIHEDRAL>
0

>  <SCORE.INTRA.DIHEDRAL.0>
0

>  <SCORE.INTRA.POLAR>
0

>  <SCORE.INTRA.POLAR.0>
0

>  <SCORE.INTRA.REPUL>
0

>  <SCORE.INTRA.REPUL.0>
0

>  <SCORE.INTRA.SOLV>
0

>  <SCORE.INTRA.SOLV.lig_0>
0.449748

>  <SCORE.INTRA.VDW>
0

>  <SCORE.INTRA.VDW.0>
0

>  <SCORE.INTRA.norm>
0

>  <SCORE.RESTR>
0

>  <SCORE.RESTR.CAVITY>
0

>  <SCORE.RESTR.norm>
0

>  <SCORE.SYSTEM>
0

>  <SCORE.SYSTEM.CONST>
0

>  <SCORE.SYSTEM.DIHEDRAL>
0

>  <SCORE.SYSTEM.SOLV>
0

>  <SCORE.SYSTEM.norm>
0

>  <SCORE.heavy>
4

>  <SCORE.norm>
-1.24929

>  <RMSD>
1.933

$$$$
ligand
 OpenBabel11021811493D
libRbt.so/2013.1/901 2013/11/27
  4  3  0  0  0  0  0  0  0  0999 V2000
   36.6369   18.4737    9.2498 C   0  0  0  0  0  0  0  0  0  0  0  0
   36.6229   17.6639    8.2966 O   0  0  0  0  0  0  0  0  0  0  0  0
   35.9015   19.7892    9.0305 C   0  0  0  0  0  0  0  0  0  0  0  0
   37.2076   18.3373   10.4198 O   0  0  0  0  0  0  0  0  0  0  0  0
  1  2  1  0  0  0  0
  1  3  1  0  0  0  0
  1  4  1  0  0  0  0
M  END
>  <CHROM.1>
36.60048838,18.55227264,9.25271744,0.15779290,0.99406213,-2.29329418

>  <Name>
ligand

>  <RI>
0

>  <Rbt.Current_Directory>
/home/itssahil/PROJECTS/Mol_Feturizer/New_Systems/rnas/4FEN

>  <Rbt.Executable>
rbdock ($Id: //depot/dev/client3/rdock/2013.1/src/exe/rbdock.cxx#4 $)

>  <Rbt.Library>
libRbt.so (2013.1, Build901 2013/11/27)

>  <Rbt.Parameter_File>
/export/apps/rDock/src/rDock_2013.1_src/data/scripts/dock_solv.prm

>  <Rbt.Receptor>
prm/pocket_docking_7.prm

>  <SCORE>
-4.9519

>  <SCORE.INTER>
-4.95221

>  <SCORE.INTER.CONST>
1

>  <SCORE.INTER.POLAR>
0

>  <SCORE.INTER.ROT>
0

>  <SCORE.INTER.SOLV>
1.53689

>  <SCORE.INTER.VDW>
-7.41377

>  <SCORE.INTER.norm>
-1.23805

>  <SCORE.INTRA>
0

>  <SCORE.INTRA.DIHEDRAL>
0

>  <SCORE.INTRA.DIHEDRAL.0>
0

>  <SCORE.INTRA.POLAR>
0

>  <SCORE.INTRA.POLAR.0>
0

>  <SCORE.INTRA.REPUL>
0

>  <SCORE.INTRA.REPUL.0>
0

>  <SCORE.INTRA.SOLV>
0

>  <SCORE.INTRA.SOLV.lig_0>
0.449748

>  <SCORE.INTRA.VDW>
0

>  <SCORE.INTRA.VDW.0>
0

>  <SCORE.INTRA.norm>
0

>  <SCORE.RESTR>
0.000305522

>  <SCORE.RESTR.CAVITY>
0.000305522

>  <SCORE.RESTR.norm>
7.63806e-05

>  <SCORE.SYSTEM>
0

>  <SCORE.SYSTEM.CONST>
0

>  <SCORE.SYSTEM.DIHEDRAL>
0

>  <SCORE.SYSTEM.SOLV>
0

>  <SCORE.SYSTEM.norm>
0

>  <SCORE.heavy>
4

>  <SCORE.norm>
-1.23798

>  <RMSD>
1.939

$$$$
ligand
 OpenBabel11021811493D
libRbt.so/2013.1/901 2013/11/27
  4  3  0  0  0  0  0  0  0  0999 V2000
   36.6240   18.4709    9.2454 C   0  0  0  0  0  0  0  0  0  0  0  0
   36.6057   17.6641    8.2897 O   0  0  0  0  0  0  0  0  0  0  0  0
   35.8878   19.7871    9.0333 C   0  0  0  0  0  0  0  0  0  0  0  0
   37.1997   18.3308   10.4125 O   0  0  0  0  0  0  0  0  0  0  0  0
  1  2  1  0  0  0  0
  1  3  1  0  0  0  0
  1  4  1  0  0  0  0
M  END
>  <CHROM.1>
36.58756233,18.54945952,9.24866434,0.16391041,0.99133064,-2.29532640

>  <Name>
ligand

>  <RI>
0

>  <Rbt.Current_Directory>
/home/itssahil/PROJECTS/Mol_Feturizer/New_Systems/rnas/4FEN

>  <Rbt.Executable>
rbdock ($Id: //depot/dev/client3/rdock/2013.1/src/exe/rbdock.cxx#4 $)

>  <Rbt.Library>
libRbt.so (2013.1, Build901 2013/11/27)

>  <Rbt.Parameter_File>
/export/apps/rDock/src/rDock_2013.1_src/data/scripts/dock_solv.prm

>  <Rbt.Receptor>
prm/pocket_docking_7.prm

>  <SCORE>
-4.95422

>  <SCORE.INTER>
-4.95422

>  <SCORE.INTER.CONST>
1

>  <SCORE.INTER.POLAR>
0

>  <SCORE.INTER.ROT>
0

>  <SCORE.INTER.SOLV>
1.53639

>  <SCORE.INTER.VDW>
-7.41495

>  <SCORE.INTER.norm>
-1.23856

>  <SCORE.INTRA>
0

>  <SCORE.INTRA.DIHEDRAL>
0

>  <SCORE.INTRA.DIHEDRAL.0>
0

>  <SCORE.INTRA.POLAR>
0

>  <SCORE.INTRA.POLAR.0>
0

>  <SCORE.INTRA.REPUL>
0

>  <SCORE.INTRA.REPUL.0>
0

>  <SCORE.INTRA.SOLV>
0

>  <SCORE.INTRA.SOLV.lig_0>
0.449748

>  <SCORE.INTRA.VDW>
0

>  <SCORE.INTRA.VDW.0>
0

>  <SCORE.INTRA.norm>
0

>  <SCORE.RESTR>
0

>  <SCORE.RESTR.CAVITY>
0

>  <SCORE.RESTR.norm>
0

>  <SCORE.SYSTEM>
0

>  <SCORE.SYSTEM.CONST>
0

>  <SCORE.SYSTEM.DIHEDRAL>
0

>  <SCORE.SYSTEM.SOLV>
0

>  <SCORE.SYSTEM.norm>
0

>  <SCORE.heavy>
4

>  <SCORE.norm>
-1.23856

>  <RMSD>
1.940

$$$$
ligand
 OpenBabel11021811493D
libRbt.so/2013.1/901 2013/11/27
  4  3  0  0  0  0  0  0  0  0999 V2000
   36.6135   18.4676    9.2475 C   0  0  0  0  0  0  0  0  0  0  0  0
   36.6017   17.6669    8.2865 O   0  0  0  0  0  0  0  0  0  0  0  0
   35.8594   19.7755    9.0473 C   0  0  0  0  0  0  0  0  0  0  0  0
   37.1960   18.3272   10.4112 O   0  0  0  0  0  0  0  0  0  0  0  0
  1  2  1  0  0  0  0
  1  3  1  0  0  0  0
  1  4  1  0  0  0  0
M  END
>  <CHROM.1>
36.57612767,18.54560229,9.25144466,0.15417295,0.97873859,-2.28053843

>  <Name>
ligand

>  <RI>
0

>  <Rbt.Current_Directory>
/home/itssahil/PROJECTS/Mol_Feturizer/New_Systems/rnas/4FEN

>  <Rbt.Executable>
rbdock ($Id: //depot/dev/client3/rdock/2013.1/src/exe/rbdock.cxx#4 $)

>  <Rbt.Library>
libRbt.so (2013.1, Build901 2013/11/27)

>  <Rbt.Parameter_File>
/export/apps/rDock/src/rDock_2013.1_src/data/scripts/dock_solv.prm

>  <Rbt.Receptor>
prm/pocket_docking_7.prm

>  <SCORE>
-4.95511

>  <SCORE.INTER>
-4.95532

>  <SCORE.INTER.CONST>
1

>  <SCORE.INTER.POLAR>
0

>  <SCORE.INTER.ROT>
0

>  <SCORE.INTER.SOLV>
1.53407

>  <SCORE.INTER.VDW>
-7.4149

>  <SCORE.INTER.norm>
-1.23883

>  <SCORE.INTRA>
0

>  <SCORE.INTRA.DIHEDRAL>
0

>  <SCORE.INTRA.DIHEDRAL.0>
0

>  <SCORE.INTRA.POLAR>
0

>  <SCORE.INTRA.POLAR.0>
0

>  <SCORE.INTRA.REPUL>
0

>  <SCORE.INTRA.REPUL.0>
0

>  <SCORE.INTRA.SOLV>
0

>  <SCORE.INTRA.SOLV.lig_0>
0.449748

>  <SCORE.INTRA.VDW>
0

>  <SCORE.INTRA.VDW.0>
0

>  <SCORE.INTRA.norm>
0

>  <SCORE.RESTR>
0.000206183

>  <SCORE.RESTR.CAVITY>
0.000206183

>  <SCORE.RESTR.norm>
5.15457e-05

>  <SCORE.SYSTEM>
0

>  <SCORE.SYSTEM.CONST>
0

>  <SCORE.SYSTEM.DIHEDRAL>
0

>  <SCORE.SYSTEM.SOLV>
0

>  <SCORE.SYSTEM.norm>
0

>  <SCORE.heavy>
4

>  <SCORE.norm>
-1.23878

>  <RMSD>
1.940

$$$$
ligand
 OpenBabel11021811493D
libRbt.so/2013.1/901 2013/11/27
  4  3  0  0  0  0  0  0  0  0999 V2000
   36.6159   18.4820    9.2600 C   0  0  0  0  0  0  0  0  0  0  0  0
   37.1601   18.1927   10.3485 O   0  0  0  0  0  0  0  0  0  0  0  0
   35.8829   19.8158    9.2039 C   0  0  0  0  0  0  0  0  0  0  0  0
   36.5927   17.7811    8.1548 O   0  0  0  0  0  0  0  0  0  0  0  0
  1  2  1  0  0  0  0
  1  3  1  0  0  0  0
  1  4  1  0  0  0  0
M  END
>  <CHROM.1>
36.57041618,18.55329066,9.24117904,-0.79939494,-0.99916563,0.97904417

>  <Name>
ligand

>  <RI>
0

>  <Rbt.Current_Directory>
/home/itssahil/PROJECTS/Mol_Feturizer/New_Systems/rnas/4FEN

>  <Rbt.Executable>
rbdock ($Id: //depot/dev/client3/rdock/2013.1/src/exe/rbdock.cxx#4 $)

>  <Rbt.Library>
libRbt.so (2013.1, Build901 2013/11/27)

>  <Rbt.Parameter_File>
/export/apps/rDock/src/rDock_2013.1_src/data/scripts/dock_solv.prm

>  <Rbt.Receptor>
prm/pocket_docking_5.prm

>  <SCORE>
-4.99484

>  <SCORE.INTER>
-4.99484

>  <SCORE.INTER.CONST>
1

>  <SCORE.INTER.POLAR>
0

>  <SCORE.INTER.ROT>
0

>  <SCORE.INTER.SOLV>
1.56467

>  <SCORE.INTER.VDW>
-7.45145

>  <SCORE.INTER.norm>
-1.24871

>  <SCORE.INTRA>
0

>  <SCORE.INTRA.DIHEDRAL>
0

>  <SCORE.INTRA.DIHEDRAL.0>
0

>  <SCORE.INTRA.POLAR>
0

>  <SCORE.INTRA.POLAR.0>
0

>  <SCORE.INTRA.REPUL>
0

>  <SCORE.INTRA.REPUL.0>
0

>  <SCORE.INTRA.SOLV>
0

>  <SCORE.INTRA.SOLV.lig_0>
0.449748

>  <SCORE.INTRA.VDW>
0

>  <SCORE.INTRA.VDW.0>
0

>  <SCORE.INTRA.norm>
0

>  <SCORE.RESTR>
0

>  <SCORE.RESTR.CAVITY>
0

>  <SCORE.RESTR.norm>
0

>  <SCORE.SYSTEM>
0

>  <SCORE.SYSTEM.CONST>
0

>  <SCORE.SYSTEM.DIHEDRAL>
0

>  <SCORE.SYSTEM.SOLV>
0

>  <SCORE.SYSTEM.norm>
0

>  <SCORE.heavy>
4

>  <SCORE.norm>
-1.24871

>  <RMSD>
1.941

$$$$
ligand
 OpenBabel11021811493D
libRbt.so/2013.1/901 2013/11/27
  4  3  0  0  0  0  0  0  0  0999 V2000
   36.6133   18.4695    9.2305 C   0  0  0  0  0  0  0  0  0  0  0  0
   36.5843   17.6643    8.2736 O   0  0  0  0  0  0  0  0  0  0  0  0
   35.9088   19.8023    9.0142 C   0  0  0  0  0  0  0  0  0  0  0  0
   37.1764   18.3151   10.4019 O   0  0  0  0  0  0  0  0  0  0  0  0
  1  2  1  0  0  0  0
  1  3  1  0  0  0  0
  1  4  1  0  0  0  0
M  END
>  <CHROM.1>
36.57861325,18.54887931,9.23354009,0.18099940,1.01347514,-2.30855577

>  <Name>
ligand

>  <RI>
0

>  <Rbt.Current_Directory>
/home/itssahil/PROJECTS/Mol_Feturizer/New_Systems/rnas/4FEN

>  <Rbt.Executable>
rbdock ($Id: //depot/dev/client3/rdock/2013.1/src/exe/rbdock.cxx#4 $)

>  <Rbt.Library>
libRbt.so (2013.1, Build901 2013/11/27)

>  <Rbt.Parameter_File>
/export/apps/rDock/src/rDock_2013.1_src/data/scripts/dock_solv.prm

>  <Rbt.Receptor>
prm/pocket_docking_7.prm

>  <SCORE>
-4.95672

>  <SCORE.INTER>
-4.95677

>  <SCORE.INTER.CONST>
1

>  <SCORE.INTER.POLAR>
0

>  <SCORE.INTER.ROT>
0

>  <SCORE.INTER.SOLV>
1.53914

>  <SCORE.INTER.VDW>
-7.41756

>  <SCORE.INTER.norm>
-1.23919

>  <SCORE.INTRA>
0

>  <SCORE.INTRA.DIHEDRAL>
0

>  <SCORE.INTRA.DIHEDRAL.0>
0

>  <SCORE.INTRA.POLAR>
0

>  <SCORE.INTRA.POLAR.0>
0

>  <SCORE.INTRA.REPUL>
0

>  <SCORE.INTRA.REPUL.0>
0

>  <SCORE.INTRA.SOLV>
0

>  <SCORE.INTRA.SOLV.lig_0>
0.449748

>  <SCORE.INTRA.VDW>
0

>  <SCORE.INTRA.VDW.0>
0

>  <SCORE.INTRA.norm>
0

>  <SCORE.RESTR>
4.34668e-05

>  <SCORE.RESTR.CAVITY>
4.34668e-05

>  <SCORE.RESTR.norm>
1.08667e-05

>  <SCORE.SYSTEM>
0

>  <SCORE.SYSTEM.CONST>
0

>  <SCORE.SYSTEM.DIHEDRAL>
0

>  <SCORE.SYSTEM.SOLV>
0

>  <SCORE.SYSTEM.norm>
0

>  <SCORE.heavy>
4

>  <SCORE.norm>
-1.23918

>  <RMSD>
1.943

$$$$
ligand
 OpenBabel11021811493D
libRbt.so/2013.1/901 2013/11/27
  4  3  0  0  0  0  0  0  0  0999 V2000
   36.6185   18.4674    9.2669 C   0  0  0  0  0  0  0  0  0  0  0  0
   37.1525   18.1802   10.3610 O   0  0  0  0  0  0  0  0  0  0  0  0
   35.8957   19.8061    9.1981 C   0  0  0  0  0  0  0  0  0  0  0  0
   36.5984   17.7606    8.1654 O   0  0  0  0  0  0  0  0  0  0  0  0
  1  2  1  0  0  0  0
  1  3  1  0  0  0  0
  1  4  1  0  0  0  0
M  END
>  <CHROM.1>
36.57370702,18.53894697,9.24738260,-0.79551900,-1.00934492,0.97686278

>  <Name>
ligand

>  <RI>
0

>  <Rbt.Current_Directory>
/home/itssahil/PROJECTS/Mol_Feturizer/New_Systems/rnas/4FEN

>  <Rbt.Executable>
rbdock ($Id: //depot/dev/client3/rdock/2013.1/src/exe/rbdock.cxx#4 $)

>  <Rbt.Library>
libRbt.so (2013.1, Build901 2013/11/27)

>  <Rbt.Parameter_File>
/export/apps/rDock/src/rDock_2013.1_src/data/scripts/dock_solv.prm

>  <Rbt.Receptor>
prm/pocket_docking_5.prm

>  <SCORE>
-4.9954

>  <SCORE.INTER>
-4.9954

>  <SCORE.INTER.CONST>
1

>  <SCORE.INTER.POLAR>
0

>  <SCORE.INTER.ROT>
0

>  <SCORE.INTER.SOLV>
1.5593

>  <SCORE.INTER.VDW>
-7.45003

>  <SCORE.INTER.norm>
-1.24885

>  <SCORE.INTRA>
0

>  <SCORE.INTRA.DIHEDRAL>
0

>  <SCORE.INTRA.DIHEDRAL.0>
0

>  <SCORE.INTRA.POLAR>
0

>  <SCORE.INTRA.POLAR.0>
0

>  <SCORE.INTRA.REPUL>
0

>  <SCORE.INTRA.REPUL.0>
0

>  <SCORE.INTRA.SOLV>
0

>  <SCORE.INTRA.SOLV.lig_0>
0.449748

>  <SCORE.INTRA.VDW>
0

>  <SCORE.INTRA.VDW.0>
0

>  <SCORE.INTRA.norm>
0

>  <SCORE.RESTR>
0

>  <SCORE.RESTR.CAVITY>
0

>  <SCORE.RESTR.norm>
0

>  <SCORE.SYSTEM>
0

>  <SCORE.SYSTEM.CONST>
0

>  <SCORE.SYSTEM.DIHEDRAL>
0

>  <SCORE.SYSTEM.SOLV>
0

>  <SCORE.SYSTEM.norm>
0

>  <SCORE.heavy>
4

>  <SCORE.norm>
-1.24885

>  <RMSD>
1.944

$$$$
ligand
 OpenBabel11021811493D
libRbt.so/2013.1/901 2013/11/27
  4  3  0  0  0  0  0  0  0  0999 V2000
   36.6191   18.4698    9.2297 C   0  0  0  0  0  0  0  0  0  0  0  0
   36.5885   17.6622    8.2749 O   0  0  0  0  0  0  0  0  0  0  0  0
   35.9132   19.8016    9.0117 C   0  0  0  0  0  0  0  0  0  0  0  0
   37.1850   18.3187   10.4002 O   0  0  0  0  0  0  0  0  0  0  0  0
  1  2  1  0  0  0  0
  1  3  1  0  0  0  0
  1  4  1  0  0  0  0
M  END
>  <CHROM.1>
36.58441486,18.54912830,9.23263333,0.18331982,1.01145475,-2.31298756

>  <Name>
ligand

>  <RI>
0

>  <Rbt.Current_Directory>
/home/itssahil/PROJECTS/Mol_Feturizer/New_Systems/rnas/4FEN

>  <Rbt.Executable>
rbdock ($Id: //depot/dev/client3/rdock/2013.1/src/exe/rbdock.cxx#4 $)

>  <Rbt.Library>
libRbt.so (2013.1, Build901 2013/11/27)

>  <Rbt.Parameter_File>
/export/apps/rDock/src/rDock_2013.1_src/data/scripts/dock_solv.prm

>  <Rbt.Receptor>
prm/pocket_docking_7.prm

>  <SCORE>
-4.9557

>  <SCORE.INTER>
-4.9557

>  <SCORE.INTER.CONST>
1

>  <SCORE.INTER.POLAR>
0

>  <SCORE.INTER.ROT>
0

>  <SCORE.INTER.SOLV>
1.54101

>  <SCORE.INTER.VDW>
-7.41747

>  <SCORE.INTER.norm>
-1.23893

>  <SCORE.INTRA>
0

>  <SCORE.INTRA.DIHEDRAL>
0

>  <SCORE.INTRA.DIHEDRAL.0>
0

>  <SCORE.INTRA.POLAR>
0

>  <SCORE.INTRA.POLAR.0>
0

>  <SCORE.INTRA.REPUL>
0

>  <SCORE.INTRA.REPUL.0>
0

>  <SCORE.INTRA.SOLV>
0

>  <SCORE.INTRA.SOLV.lig_0>
0.449748

>  <SCORE.INTRA.VDW>
0

>  <SCORE.INTRA.VDW.0>
0

>  <SCORE.INTRA.norm>
0

>  <SCORE.RESTR>
0

>  <SCORE.RESTR.CAVITY>
0

>  <SCORE.RESTR.norm>
0

>  <SCORE.SYSTEM>
0

>  <SCORE.SYSTEM.CONST>
0

>  <SCORE.SYSTEM.DIHEDRAL>
0

>  <SCORE.SYSTEM.SOLV>
0

>  <SCORE.SYSTEM.norm>
0

>  <SCORE.heavy>
4

>  <SCORE.norm>
-1.23893

>  <RMSD>
1.945

$$$$
ligand
 OpenBabel11021811493D
libRbt.so/2013.1/901 2013/11/27
  4  3  0  0  0  0  0  0  0  0999 V2000
   36.6157   18.4668    9.2238 C   0  0  0  0  0  0  0  0  0  0  0  0
   36.5848   17.6591    8.2692 O   0  0  0  0  0  0  0  0  0  0  0  0
   35.9190   19.8028    9.0020 C   0  0  0  0  0  0  0  0  0  0  0  0
   37.1748   18.3126   10.3972 O   0  0  0  0  0  0  0  0  0  0  0  0
  1  2  1  0  0  0  0
  1  3  1  0  0  0  0
  1  4  1  0  0  0  0
M  END
>  <CHROM.1>
36.58145416,18.54631443,9.22660727,0.18430452,1.01929630,-2.31415255

>  <Name>
ligand

>  <RI>
0

>  <Rbt.Current_Directory>
/home/itssahil/PROJECTS/Mol_Feturizer/New_Systems/rnas/4FEN

>  <Rbt.Executable>
rbdock ($Id: //depot/dev/client3/rdock/2013.1/src/exe/rbdock.cxx#4 $)

>  <Rbt.Library>
libRbt.so (2013.1, Build901 2013/11/27)

>  <Rbt.Parameter_File>
/export/apps/rDock/src/rDock_2013.1_src/data/scripts/dock_solv.prm

>  <Rbt.Receptor>
prm/pocket_docking_7.prm

>  <SCORE>
-4.95593

>  <SCORE.INTER>
-4.95609

>  <SCORE.INTER.CONST>
1

>  <SCORE.INTER.POLAR>
0

>  <SCORE.INTER.ROT>
0

>  <SCORE.INTER.SOLV>
1.54087

>  <SCORE.INTER.VDW>
-7.41768

>  <SCORE.INTER.norm>
-1.23902

>  <SCORE.INTRA>
0

>  <SCORE.INTRA.DIHEDRAL>
0

>  <SCORE.INTRA.DIHEDRAL.0>
0

>  <SCORE.INTRA.POLAR>
0

>  <SCORE.INTRA.POLAR.0>
0

>  <SCORE.INTRA.REPUL>
0

>  <SCORE.INTRA.REPUL.0>
0

>  <SCORE.INTRA.SOLV>
0

>  <SCORE.INTRA.SOLV.lig_0>
0.449748

>  <SCORE.INTRA.VDW>
0

>  <SCORE.INTRA.VDW.0>
0

>  <SCORE.INTRA.norm>
0

>  <SCORE.RESTR>
0.000157788

>  <SCORE.RESTR.CAVITY>
0.000157788

>  <SCORE.RESTR.norm>
3.94471e-05

>  <SCORE.SYSTEM>
0

>  <SCORE.SYSTEM.CONST>
0

>  <SCORE.SYSTEM.DIHEDRAL>
0

>  <SCORE.SYSTEM.SOLV>
0

>  <SCORE.SYSTEM.norm>
0

>  <SCORE.heavy>
4

>  <SCORE.norm>
-1.23898

>  <RMSD>
1.948

$$$$
ligand
 OpenBabel11021811493D
libRbt.so/2013.1/901 2013/11/27
  4  3  0  0  0  0  0  0  0  0999 V2000
   36.6280   18.4951    9.1892 C   0  0  0  0  0  0  0  0  0  0  0  0
   36.5996   17.7944    8.1533 O   0  0  0  0  0  0  0  0  0  0  0  0
   35.9851   19.8723    9.0919 C   0  0  0  0  0  0  0  0  0  0  0  0
   37.1442   18.1969   10.3545 O   0  0  0  0  0  0  0  0  0  0  0  0
  1  2  1  0  0  0  0
  1  3  1  0  0  0  0
  1  4  1  0  0  0  0
M  END
>  <CHROM.1>
36.59649921,18.57509503,9.19950144,0.18434183,1.06603794,-2.20779103

>  <Name>
ligand

>  <RI>
0

>  <Rbt.Current_Directory>
/home/itssahil/PROJECTS/Mol_Feturizer/New_Systems/rnas/4FEN

>  <Rbt.Executable>
rbdock ($Id: //depot/dev/client3/rdock/2013.1/src/exe/rbdock.cxx#4 $)

>  <Rbt.Library>
libRbt.so (2013.1, Build901 2013/11/27)

>  <Rbt.Parameter_File>
/export/apps/rDock/src/rDock_2013.1_src/data/scripts/dock_solv.prm

>  <Rbt.Receptor>
prm/blind_docking_80.prm

>  <SCORE>
-5.00244

>  <SCORE.INTER>
-5.00244

>  <SCORE.INTER.CONST>
1

>  <SCORE.INTER.POLAR>
0

>  <SCORE.INTER.ROT>
0

>  <SCORE.INTER.SOLV>
1.58431

>  <SCORE.INTER.VDW>
-7.46306

>  <SCORE.INTER.norm>
-1.25061

>  <SCORE.INTRA>
0

>  <SCORE.INTRA.DIHEDRAL>
0

>  <SCORE.INTRA.DIHEDRAL.0>
0

>  <SCORE.INTRA.POLAR>
0

>  <SCORE.INTRA.POLAR.0>
0

>  <SCORE.INTRA.REPUL>
0

>  <SCORE.INTRA.REPUL.0>
0

>  <SCORE.INTRA.SOLV>
0

>  <SCORE.INTRA.SOLV.lig_0>
0.449748

>  <SCORE.INTRA.VDW>
0

>  <SCORE.INTRA.VDW.0>
0

>  <SCORE.INTRA.norm>
0

>  <SCORE.RESTR>
0

>  <SCORE.RESTR.CAVITY>
0

>  <SCORE.RESTR.norm>
0

>  <SCORE.SYSTEM>
0

>  <SCORE.SYSTEM.CONST>
0

>  <SCORE.SYSTEM.DIHEDRAL>
0

>  <SCORE.SYSTEM.SOLV>
0

>  <SCORE.SYSTEM.norm>
0

>  <SCORE.heavy>
4

>  <SCORE.norm>
-1.25061

>  <RMSD>
1.949

$$$$
ligand
 OpenBabel11021811493D
libRbt.so/2013.1/901 2013/11/27
  4  3  0  0  0  0  0  0  0  0999 V2000
   36.6221   18.4735    9.2541 C   0  0  0  0  0  0  0  0  0  0  0  0
   37.1561   18.1806   10.3467 O   0  0  0  0  0  0  0  0  0  0  0  0
   35.9020   19.8140    9.1913 C   0  0  0  0  0  0  0  0  0  0  0  0
   36.6000   17.7714    8.1497 O   0  0  0  0  0  0  0  0  0  0  0  0
  1  2  1  0  0  0  0
  1  3  1  0  0  0  0
  1  4  1  0  0  0  0
M  END
>  <CHROM.1>
36.57741827,18.54523003,9.23489652,-0.79844485,-1.01075250,0.97857355

>  <Name>
ligand

>  <RI>
0

>  <Rbt.Current_Directory>
/home/itssahil/PROJECTS/Mol_Feturizer/New_Systems/rnas/4FEN

>  <Rbt.Executable>
rbdock ($Id: //depot/dev/client3/rdock/2013.1/src/exe/rbdock.cxx#4 $)

>  <Rbt.Library>
libRbt.so (2013.1, Build901 2013/11/27)

>  <Rbt.Parameter_File>
/export/apps/rDock/src/rDock_2013.1_src/data/scripts/dock_solv.prm

>  <Rbt.Receptor>
prm/blind_docking_80.prm

>  <SCORE>
-5.00016

>  <SCORE.INTER>
-5.00016

>  <SCORE.INTER.CONST>
1

>  <SCORE.INTER.POLAR>
0

>  <SCORE.INTER.ROT>
0

>  <SCORE.INTER.SOLV>
1.5677

>  <SCORE.INTER.VDW>
-7.45601

>  <SCORE.INTER.norm>
-1.25004

>  <SCORE.INTRA>
0

>  <SCORE.INTRA.DIHEDRAL>
0

>  <SCORE.INTRA.DIHEDRAL.0>
0

>  <SCORE.INTRA.POLAR>
0

>  <SCORE.INTRA.POLAR.0>
0

>  <SCORE.INTRA.REPUL>
0

>  <SCORE.INTRA.REPUL.0>
0

>  <SCORE.INTRA.SOLV>
0

>  <SCORE.INTRA.SOLV.lig_0>
0.449748

>  <SCORE.INTRA.VDW>
0

>  <SCORE.INTRA.VDW.0>
0

>  <SCORE.INTRA.norm>
0

>  <SCORE.RESTR>
0

>  <SCORE.RESTR.CAVITY>
0

>  <SCORE.RESTR.norm>
0

>  <SCORE.SYSTEM>
0

>  <SCORE.SYSTEM.CONST>
0

>  <SCORE.SYSTEM.DIHEDRAL>
0

>  <SCORE.SYSTEM.SOLV>
0

>  <SCORE.SYSTEM.norm>
0

>  <SCORE.heavy>
4

>  <SCORE.norm>
-1.25004

>  <RMSD>
1.949

$$$$
ligand
 OpenBabel11021811493D
libRbt.so/2013.1/901 2013/11/27
  4  3  0  0  0  0  0  0  0  0999 V2000
   36.6046   18.4747    9.2471 C   0  0  0  0  0  0  0  0  0  0  0  0
   37.1404   18.1568   10.3319 O   0  0  0  0  0  0  0  0  0  0  0  0
   35.8672   19.8069    9.2220 C   0  0  0  0  0  0  0  0  0  0  0  0
   36.5937   17.8050    8.1225 O   0  0  0  0  0  0  0  0  0  0  0  0
  1  2  1  0  0  0  0
  1  3  1  0  0  0  0
  1  4  1  0  0  0  0
M  END
>  <CHROM.1>
36.55905207,18.54630967,9.22992310,-0.78212808,-1.00088093,1.02167140

>  <Name>
ligand

>  <RI>
0

>  <Rbt.Current_Directory>
/home/itssahil/PROJECTS/Mol_Feturizer/New_Systems/rnas/4FEN

>  <Rbt.Executable>
rbdock ($Id: //depot/dev/client3/rdock/2013.1/src/exe/rbdock.cxx#4 $)

>  <Rbt.Library>
libRbt.so (2013.1, Build901 2013/11/27)

>  <Rbt.Parameter_File>
/export/apps/rDock/src/rDock_2013.1_src/data/scripts/dock_solv.prm

>  <Rbt.Receptor>
prm/pocket_docking_5.prm

>  <SCORE>
-4.98392

>  <SCORE.INTER>
-4.98392

>  <SCORE.INTER.CONST>
1

>  <SCORE.INTER.POLAR>
0

>  <SCORE.INTER.ROT>
0

>  <SCORE.INTER.SOLV>
1.56956

>  <SCORE.INTER.VDW>
-7.4458

>  <SCORE.INTER.norm>
-1.24598

>  <SCORE.INTRA>
0

>  <SCORE.INTRA.DIHEDRAL>
0

>  <SCORE.INTRA.DIHEDRAL.0>
0

>  <SCORE.INTRA.POLAR>
0

>  <SCORE.INTRA.POLAR.0>
0

>  <SCORE.INTRA.REPUL>
0

>  <SCORE.INTRA.REPUL.0>
0

>  <SCORE.INTRA.SOLV>
0

>  <SCORE.INTRA.SOLV.lig_0>
0.449748

>  <SCORE.INTRA.VDW>
0

>  <SCORE.INTRA.VDW.0>
0

>  <SCORE.INTRA.norm>
0

>  <SCORE.RESTR>
0

>  <SCORE.RESTR.CAVITY>
0

>  <SCORE.RESTR.norm>
0

>  <SCORE.SYSTEM>
0

>  <SCORE.SYSTEM.CONST>
0

>  <SCORE.SYSTEM.DIHEDRAL>
0

>  <SCORE.SYSTEM.SOLV>
0

>  <SCORE.SYSTEM.norm>
0

>  <SCORE.heavy>
4

>  <SCORE.norm>
-1.24598

>  <RMSD>
1.952

$$$$
ligand
 OpenBabel11021811493D
libRbt.so/2013.1/901 2013/11/27
  4  3  0  0  0  0  0  0  0  0999 V2000
   36.6285   18.4689    9.2567 C   0  0  0  0  0  0  0  0  0  0  0  0
   37.1716   18.1865   10.3476 O   0  0  0  0  0  0  0  0  0  0  0  0
   35.9072   19.8084    9.1872 C   0  0  0  0  0  0  0  0  0  0  0  0
   36.5976   17.7564    8.1591 O   0  0  0  0  0  0  0  0  0  0  0  0
  1  2  1  0  0  0  0
  1  3  1  0  0  0  0
  1  4  1  0  0  0  0
M  END
>  <CHROM.1>
36.58360901,18.54039879,9.23720427,-0.81070402,-1.00572826,0.95878708

>  <Name>
ligand

>  <RI>
0

>  <Rbt.Current_Directory>
/home/itssahil/PROJECTS/Mol_Feturizer/New_Systems/rnas/4FEN

>  <Rbt.Executable>
rbdock ($Id: //depot/dev/client3/rdock/2013.1/src/exe/rbdock.cxx#4 $)

>  <Rbt.Library>
libRbt.so (2013.1, Build901 2013/11/27)

>  <Rbt.Parameter_File>
/export/apps/rDock/src/rDock_2013.1_src/data/scripts/dock_solv.prm

>  <Rbt.Receptor>
prm/pocket_docking_5.prm

>  <SCORE>
-4.99681

>  <SCORE.INTER>
-4.99681

>  <SCORE.INTER.CONST>
1

>  <SCORE.INTER.POLAR>
0

>  <SCORE.INTER.ROT>
0

>  <SCORE.INTER.SOLV>
1.56597

>  <SCORE.INTER.VDW>
-7.45319

>  <SCORE.INTER.norm>
-1.2492

>  <SCORE.INTRA>
0

>  <SCORE.INTRA.DIHEDRAL>
0

>  <SCORE.INTRA.DIHEDRAL.0>
0

>  <SCORE.INTRA.POLAR>
0

>  <SCORE.INTRA.POLAR.0>
0

>  <SCORE.INTRA.REPUL>
0

>  <SCORE.INTRA.REPUL.0>
0

>  <SCORE.INTRA.SOLV>
0

>  <SCORE.INTRA.SOLV.lig_0>
0.449748

>  <SCORE.INTRA.VDW>
0

>  <SCORE.INTRA.VDW.0>
0

>  <SCORE.INTRA.norm>
0

>  <SCORE.RESTR>
0

>  <SCORE.RESTR.CAVITY>
0

>  <SCORE.RESTR.norm>
0

>  <SCORE.SYSTEM>
0

>  <SCORE.SYSTEM.CONST>
0

>  <SCORE.SYSTEM.DIHEDRAL>
0

>  <SCORE.SYSTEM.SOLV>
0

>  <SCORE.SYSTEM.norm>
0

>  <SCORE.heavy>
4

>  <SCORE.norm>
-1.2492

>  <RMSD>
1.953

$$$$
ligand
 OpenBabel11021811493D
libRbt.so/2013.1/901 2013/11/27
  4  3  0  0  0  0  0  0  0  0999 V2000
   36.5999   18.4803    9.2112 C   0  0  0  0  0  0  0  0  0  0  0  0
   37.1206   18.2450   10.3239 O   0  0  0  0  0  0  0  0  0  0  0  0
   35.8684   19.8090    9.0744 C   0  0  0  0  0  0  0  0  0  0  0  0
   36.6002   17.7262    8.1413 O   0  0  0  0  0  0  0  0  0  0  0  0
  1  2  1  0  0  0  0
  1  3  1  0  0  0  0
  1  4  1  0  0  0  0
M  END
>  <CHROM.1>
36.55481660,18.55052541,9.18798305,-0.76613199,-1.01095878,0.95828174

>  <Name>
ligand

>  <RI>
0

>  <Rbt.Current_Directory>
/home/itssahil/PROJECTS/Mol_Feturizer/New_Systems/rnas/4FEN

>  <Rbt.Executable>
rbdock ($Id: //depot/dev/client3/rdock/2013.1/src/exe/rbdock.cxx#4 $)

>  <Rbt.Library>
libRbt.so (2013.1, Build901 2013/11/27)

>  <Rbt.Parameter_File>
/export/apps/rDock/src/rDock_2013.1_src/data/scripts/dock_solv.prm

>  <Rbt.Receptor>
prm/blind_docking_100.prm

>  <SCORE>
-4.96865

>  <SCORE.INTER>
-4.96886

>  <SCORE.INTER.CONST>
1

>  <SCORE.INTER.POLAR>
0

>  <SCORE.INTER.ROT>
0

>  <SCORE.INTER.SOLV>
1.56295

>  <SCORE.INTER.VDW>
-7.43356

>  <SCORE.INTER.norm>
-1.24221

>  <SCORE.INTRA>
0

>  <SCORE.INTRA.DIHEDRAL>
0

>  <SCORE.INTRA.DIHEDRAL.0>
0

>  <SCORE.INTRA.POLAR>
0

>  <SCORE.INTRA.POLAR.0>
0

>  <SCORE.INTRA.REPUL>
0

>  <SCORE.INTRA.REPUL.0>
0

>  <SCORE.INTRA.SOLV>
0

>  <SCORE.INTRA.SOLV.lig_0>
0.449748

>  <SCORE.INTRA.VDW>
0

>  <SCORE.INTRA.VDW.0>
0

>  <SCORE.INTRA.norm>
0

>  <SCORE.RESTR>
0.000206309

>  <SCORE.RESTR.CAVITY>
0.000206309

>  <SCORE.RESTR.norm>
5.15771e-05

>  <SCORE.SYSTEM>
0

>  <SCORE.SYSTEM.CONST>
0

>  <SCORE.SYSTEM.DIHEDRAL>
0

>  <SCORE.SYSTEM.SOLV>
0

>  <SCORE.SYSTEM.norm>
0

>  <SCORE.heavy>
4

>  <SCORE.norm>
-1.24216

>  <RMSD>
1.966

$$$$
ligand
 OpenBabel11021811493D
libRbt.so/2013.1/901 2013/11/27
  4  3  0  0  0  0  0  0  0  0999 V2000
   36.6102   18.4604    9.2028 C   0  0  0  0  0  0  0  0  0  0  0  0
   36.5956   17.8145    8.1317 O   0  0  0  0  0  0  0  0  0  0  0  0
   35.9063   19.8109    9.1877 C   0  0  0  0  0  0  0  0  0  0  0  0
   37.1577   18.1249   10.3434 O   0  0  0  0  0  0  0  0  0  0  0  0
  1  2  1  0  0  0  0
  1  3  1  0  0  0  0
  1  4  1  0  0  0  0
M  END
>  <CHROM.1>
36.57537632,18.53833388,9.21779020,0.15964296,1.02113283,-2.13367957

>  <Name>
ligand

>  <RI>
0

>  <Rbt.Current_Directory>
/home/itssahil/PROJECTS/Mol_Feturizer/New_Systems/rnas/4FEN

>  <Rbt.Executable>
rbdock ($Id: //depot/dev/client3/rdock/2013.1/src/exe/rbdock.cxx#4 $)

>  <Rbt.Library>
libRbt.so (2013.1, Build901 2013/11/27)

>  <Rbt.Parameter_File>
/export/apps/rDock/src/rDock_2013.1_src/data/scripts/dock_solv.prm

>  <Rbt.Receptor>
prm/pocket_docking_5.prm

>  <SCORE>
-5.01534

>  <SCORE.INTER>
-5.01534

>  <SCORE.INTER.CONST>
1

>  <SCORE.INTER.POLAR>
0

>  <SCORE.INTER.ROT>
0

>  <SCORE.INTER.SOLV>
1.57526

>  <SCORE.INTER.VDW>
-7.46865

>  <SCORE.INTER.norm>
-1.25384

>  <SCORE.INTRA>
0

>  <SCORE.INTRA.DIHEDRAL>
0

>  <SCORE.INTRA.DIHEDRAL.0>
0

>  <SCORE.INTRA.POLAR>
0

>  <SCORE.INTRA.POLAR.0>
0

>  <SCORE.INTRA.REPUL>
0

>  <SCORE.INTRA.REPUL.0>
0

>  <SCORE.INTRA.SOLV>
0

>  <SCORE.INTRA.SOLV.lig_0>
0.449748

>  <SCORE.INTRA.VDW>
0

>  <SCORE.INTRA.VDW.0>
0

>  <SCORE.INTRA.norm>
0

>  <SCORE.RESTR>
0

>  <SCORE.RESTR.CAVITY>
0

>  <SCORE.RESTR.norm>
0

>  <SCORE.SYSTEM>
0

>  <SCORE.SYSTEM.CONST>
0

>  <SCORE.SYSTEM.DIHEDRAL>
0

>  <SCORE.SYSTEM.SOLV>
0

>  <SCORE.SYSTEM.norm>
0

>  <SCORE.heavy>
4

>  <SCORE.norm>
-1.25384

>  <RMSD>
1.968

$$$$
ligand
 OpenBabel11021811493D
libRbt.so/2013.1/901 2013/11/27
  4  3  0  0  0  0  0  0  0  0999 V2000
   36.5855   18.5292    9.1304 C   0  0  0  0  0  0  0  0  0  0  0  0
   36.6592   17.7248    8.1753 O   0  0  0  0  0  0  0  0  0  0  0  0
   35.8042   19.8115    8.8757 C   0  0  0  0  0  0  0  0  0  0  0  0
   37.0981   18.4122   10.3291 O   0  0  0  0  0  0  0  0  0  0  0  0
  1  2  1  0  0  0  0
  1  3  1  0  0  0  0
  1  4  1  0  0  0  0
M  END
>  <CHROM.1>
36.54541147,18.60603471,9.13156342,0.02921536,0.99193327,-2.18132602

>  <Name>
ligand

>  <RI>
0

>  <Rbt.Current_Directory>
/home/itssahil/PROJECTS/Mol_Feturizer/New_Systems/rnas/4FEN

>  <Rbt.Executable>
rbdock ($Id: //depot/dev/client3/rdock/2013.1/src/exe/rbdock.cxx#4 $)

>  <Rbt.Library>
libRbt.so (2013.1, Build901 2013/11/27)

>  <Rbt.Parameter_File>
/export/apps/rDock/src/rDock_2013.1_src/data/scripts/dock_solv.prm

>  <Rbt.Receptor>
prm/pocket_docking_8.prm

>  <SCORE>
-5.00477

>  <SCORE.INTER>
-5.00477

>  <SCORE.INTER.CONST>
1

>  <SCORE.INTER.POLAR>
0

>  <SCORE.INTER.ROT>
0

>  <SCORE.INTER.SOLV>
1.57538

>  <SCORE.INTER.VDW>
-7.46164

>  <SCORE.INTER.norm>
-1.25119

>  <SCORE.INTRA>
0

>  <SCORE.INTRA.DIHEDRAL>
0

>  <SCORE.INTRA.DIHEDRAL.0>
0

>  <SCORE.INTRA.POLAR>
0

>  <SCORE.INTRA.POLAR.0>
0

>  <SCORE.INTRA.REPUL>
0

>  <SCORE.INTRA.REPUL.0>
0

>  <SCORE.INTRA.SOLV>
0

>  <SCORE.INTRA.SOLV.lig_0>
0.449748

>  <SCORE.INTRA.VDW>
0

>  <SCORE.INTRA.VDW.0>
0

>  <SCORE.INTRA.norm>
0

>  <SCORE.RESTR>
0

>  <SCORE.RESTR.CAVITY>
0

>  <SCORE.RESTR.norm>
0

>  <SCORE.SYSTEM>
0

>  <SCORE.SYSTEM.CONST>
0

>  <SCORE.SYSTEM.DIHEDRAL>
0

>  <SCORE.SYSTEM.SOLV>
0

>  <SCORE.SYSTEM.norm>
0

>  <SCORE.heavy>
4

>  <SCORE.norm>
-1.25119

>  <RMSD>
1.970

$$$$
ligand
 OpenBabel11021811493D
libRbt.so/2013.1/901 2013/11/27
  4  3  0  0  0  0  0  0  0  0999 V2000
   36.6056   18.4868    9.1566 C   0  0  0  0  0  0  0  0  0  0  0  0
   36.5995   17.7473    8.1478 O   0  0  0  0  0  0  0  0  0  0  0  0
   35.9173   19.8374    9.0092 C   0  0  0  0  0  0  0  0  0  0  0  0
   37.1325   18.2499   10.3311 O   0  0  0  0  0  0  0  0  0  0  0  0
  1  2  1  0  0  0  0
  1  3  1  0  0  0  0
  1  4  1  0  0  0  0
M  END
>  <CHROM.1>
36.57146631,18.56609371,9.16395733,0.14700050,1.03849934,-2.21287845

>  <Name>
ligand

>  <RI>
0

>  <Rbt.Current_Directory>
/home/itssahil/PROJECTS/Mol_Feturizer/New_Systems/rnas/4FEN

>  <Rbt.Executable>
rbdock ($Id: //depot/dev/client3/rdock/2013.1/src/exe/rbdock.cxx#4 $)

>  <Rbt.Library>
libRbt.so (2013.1, Build901 2013/11/27)

>  <Rbt.Parameter_File>
/export/apps/rDock/src/rDock_2013.1_src/data/scripts/dock_solv.prm

>  <Rbt.Receptor>
prm/pocket_docking_5.prm

>  <SCORE>
-5.02119

>  <SCORE.INTER>
-5.02119

>  <SCORE.INTER.CONST>
1

>  <SCORE.INTER.POLAR>
0

>  <SCORE.INTER.ROT>
0

>  <SCORE.INTER.SOLV>
1.57689

>  <SCORE.INTER.VDW>
-7.47309

>  <SCORE.INTER.norm>
-1.2553

>  <SCORE.INTRA>
0

>  <SCORE.INTRA.DIHEDRAL>
0

>  <SCORE.INTRA.DIHEDRAL.0>
0

>  <SCORE.INTRA.POLAR>
0

>  <SCORE.INTRA.POLAR.0>
0

>  <SCORE.INTRA.REPUL>
0

>  <SCORE.INTRA.REPUL.0>
0

>  <SCORE.INTRA.SOLV>
0

>  <SCORE.INTRA.SOLV.lig_0>
0.449748

>  <SCORE.INTRA.VDW>
0

>  <SCORE.INTRA.VDW.0>
0

>  <SCORE.INTRA.norm>
0

>  <SCORE.RESTR>
0

>  <SCORE.RESTR.CAVITY>
0

>  <SCORE.RESTR.norm>
0

>  <SCORE.SYSTEM>
0

>  <SCORE.SYSTEM.CONST>
0

>  <SCORE.SYSTEM.DIHEDRAL>
0

>  <SCORE.SYSTEM.SOLV>
0

>  <SCORE.SYSTEM.norm>
0

>  <SCORE.heavy>
4

>  <SCORE.norm>
-1.2553

>  <RMSD>
1.973

$$$$
ligand
 OpenBabel11021811493D
libRbt.so/2013.1/901 2013/11/27
  4  3  0  0  0  0  0  0  0  0999 V2000
   36.5809   18.5235    9.1347 C   0  0  0  0  0  0  0  0  0  0  0  0
   36.6798   17.7408    8.1639 O   0  0  0  0  0  0  0  0  0  0  0  0
   35.7593   19.7851    8.9051 C   0  0  0  0  0  0  0  0  0  0  0  0
   37.0974   18.3992   10.3309 O   0  0  0  0  0  0  0  0  0  0  0  0
  1  2  1  0  0  0  0
  1  3  1  0  0  0  0
  1  4  1  0  0  0  0
M  END
>  <CHROM.1>
36.53844838,18.59897303,9.13730856,-0.00220719,0.96552957,-2.13550477

>  <Name>
ligand

>  <RI>
0

>  <Rbt.Current_Directory>
/home/itssahil/PROJECTS/Mol_Feturizer/New_Systems/rnas/4FEN

>  <Rbt.Executable>
rbdock ($Id: //depot/dev/client3/rdock/2013.1/src/exe/rbdock.cxx#4 $)

>  <Rbt.Library>
libRbt.so (2013.1, Build901 2013/11/27)

>  <Rbt.Parameter_File>
/export/apps/rDock/src/rDock_2013.1_src/data/scripts/dock_solv.prm

>  <Rbt.Receptor>
prm/pocket_docking_8.prm

>  <SCORE>
-5.00711

>  <SCORE.INTER>
-5.00711

>  <SCORE.INTER.CONST>
1

>  <SCORE.INTER.POLAR>
0

>  <SCORE.INTER.ROT>
0

>  <SCORE.INTER.SOLV>
1.57315

>  <SCORE.INTER.VDW>
-7.46246

>  <SCORE.INTER.norm>
-1.25178

>  <SCORE.INTRA>
0

>  <SCORE.INTRA.DIHEDRAL>
0

>  <SCORE.INTRA.DIHEDRAL.0>
0

>  <SCORE.INTRA.POLAR>
0

>  <SCORE.INTRA.POLAR.0>
0

>  <SCORE.INTRA.REPUL>
0

>  <SCORE.INTRA.REPUL.0>
0

>  <SCORE.INTRA.SOLV>
0

>  <SCORE.INTRA.SOLV.lig_0>
0.449748

>  <SCORE.INTRA.VDW>
0

>  <SCORE.INTRA.VDW.0>
0

>  <SCORE.INTRA.norm>
0

>  <SCORE.RESTR>
0

>  <SCORE.RESTR.CAVITY>
0

>  <SCORE.RESTR.norm>
0

>  <SCORE.SYSTEM>
0

>  <SCORE.SYSTEM.CONST>
0

>  <SCORE.SYSTEM.DIHEDRAL>
0

>  <SCORE.SYSTEM.SOLV>
0

>  <SCORE.SYSTEM.norm>
0

>  <SCORE.heavy>
4

>  <SCORE.norm>
-1.25178

>  <RMSD>
1.975

$$$$
ligand
 OpenBabel11021811493D
libRbt.so/2013.1/901 2013/11/27
  4  3  0  0  0  0  0  0  0  0999 V2000
   36.5905   18.4823    9.1920 C   0  0  0  0  0  0  0  0  0  0  0  0
   37.1110   18.2351   10.3023 O   0  0  0  0  0  0  0  0  0  0  0  0
   35.8473   19.8063    9.0735 C   0  0  0  0  0  0  0  0  0  0  0  0
   36.5999   17.7444    8.1110 O   0  0  0  0  0  0  0  0  0  0  0  0
  1  2  1  0  0  0  0
  1  3  1  0  0  0  0
  1  4  1  0  0  0  0
M  END
>  <CHROM.1>
36.54484904,18.55250035,9.16974607,-0.75321702,-1.00472169,0.98419259

>  <Name>
ligand

>  <RI>
0

>  <Rbt.Current_Directory>
/home/itssahil/PROJECTS/Mol_Feturizer/New_Systems/rnas/4FEN

>  <Rbt.Executable>
rbdock ($Id: //depot/dev/client3/rdock/2013.1/src/exe/rbdock.cxx#4 $)

>  <Rbt.Library>
libRbt.so (2013.1, Build901 2013/11/27)

>  <Rbt.Parameter_File>
/export/apps/rDock/src/rDock_2013.1_src/data/scripts/dock_solv.prm

>  <Rbt.Receptor>
prm/pocket_docking_5.prm

>  <SCORE>
-4.97164

>  <SCORE.INTER>
-4.97164

>  <SCORE.INTER.CONST>
1

>  <SCORE.INTER.POLAR>
0

>  <SCORE.INTER.ROT>
0

>  <SCORE.INTER.SOLV>
1.56919

>  <SCORE.INTER.VDW>
-7.43749

>  <SCORE.INTER.norm>
-1.24291

>  <SCORE.INTRA>
0

>  <SCORE.INTRA.DIHEDRAL>
0

>  <SCORE.INTRA.DIHEDRAL.0>
0

>  <SCORE.INTRA.POLAR>
0

>  <SCORE.INTRA.POLAR.0>
0

>  <SCORE.INTRA.REPUL>
0

>  <SCORE.INTRA.REPUL.0>
0

>  <SCORE.INTRA.SOLV>
0

>  <SCORE.INTRA.SOLV.lig_0>
0.449748

>  <SCORE.INTRA.VDW>
0

>  <SCORE.INTRA.VDW.0>
0

>  <SCORE.INTRA.norm>
0

>  <SCORE.RESTR>
0

>  <SCORE.RESTR.CAVITY>
0

>  <SCORE.RESTR.norm>
0

>  <SCORE.SYSTEM>
0

>  <SCORE.SYSTEM.CONST>
0

>  <SCORE.SYSTEM.DIHEDRAL>
0

>  <SCORE.SYSTEM.SOLV>
0

>  <SCORE.SYSTEM.norm>
0

>  <SCORE.heavy>
4

>  <SCORE.norm>
-1.24291

>  <RMSD>
1.976

$$$$
ligand
 OpenBabel11021811493D
libRbt.so/2013.1/901 2013/11/27
  4  3  0  0  0  0  0  0  0  0999 V2000
   36.5712   18.5447    9.1398 C   0  0  0  0  0  0  0  0  0  0  0  0
   37.0397   18.3914   10.2895 O   0  0  0  0  0  0  0  0  0  0  0  0
   35.7458   19.8034    8.9083 C   0  0  0  0  0  0  0  0  0  0  0  0
   36.6976   17.7568    8.1022 O   0  0  0  0  0  0  0  0  0  0  0  0
  1  2  1  0  0  0  0
  1  3  1  0  0  0  0
  1  4  1  0  0  0  0
M  END
>  <CHROM.1>
36.52222156,18.61016930,9.11123337,-0.59408973,-0.97394348,1.06549456

>  <Name>
ligand

>  <RI>
0

>  <Rbt.Current_Directory>
/home/itssahil/PROJECTS/Mol_Feturizer/New_Systems/rnas/4FEN

>  <Rbt.Executable>
rbdock ($Id: //depot/dev/client3/rdock/2013.1/src/exe/rbdock.cxx#4 $)

>  <Rbt.Library>
libRbt.so (2013.1, Build901 2013/11/27)

>  <Rbt.Parameter_File>
/export/apps/rDock/src/rDock_2013.1_src/data/scripts/dock_solv.prm

>  <Rbt.Receptor>
prm/pocket_docking_8.prm

>  <SCORE>
-4.96085

>  <SCORE.INTER>
-4.96085

>  <SCORE.INTER.CONST>
1

>  <SCORE.INTER.POLAR>
0

>  <SCORE.INTER.ROT>
0

>  <SCORE.INTER.SOLV>
1.57713

>  <SCORE.INTER.VDW>
-7.43294

>  <SCORE.INTER.norm>
-1.24021

>  <SCORE.INTRA>
0

>  <SCORE.INTRA.DIHEDRAL>
0

>  <SCORE.INTRA.DIHEDRAL.0>
0

>  <SCORE.INTRA.POLAR>
0

>  <SCORE.INTRA.POLAR.0>
0

>  <SCORE.INTRA.REPUL>
0

>  <SCORE.INTRA.REPUL.0>
0

>  <SCORE.INTRA.SOLV>
0

>  <SCORE.INTRA.SOLV.lig_0>
0.449748

>  <SCORE.INTRA.VDW>
0

>  <SCORE.INTRA.VDW.0>
0

>  <SCORE.INTRA.norm>
0

>  <SCORE.RESTR>
0

>  <SCORE.RESTR.CAVITY>
0

>  <SCORE.RESTR.norm>
0

>  <SCORE.SYSTEM>
0

>  <SCORE.SYSTEM.CONST>
0

>  <SCORE.SYSTEM.DIHEDRAL>
0

>  <SCORE.SYSTEM.SOLV>
0

>  <SCORE.SYSTEM.norm>
0

>  <SCORE.heavy>
4

>  <SCORE.norm>
-1.24021

>  <RMSD>
1.977

$$$$
ligand
 OpenBabel11021811493D
libRbt.so/2013.1/901 2013/11/27
  4  3  0  0  0  0  0  0  0  0999 V2000
   36.5996   18.4760    9.1611 C   0  0  0  0  0  0  0  0  0  0  0  0
   36.5994   17.7423    8.1480 O   0  0  0  0  0  0  0  0  0  0  0  0
   35.8901   19.8167    9.0252 C   0  0  0  0  0  0  0  0  0  0  0  0
   37.1362   18.2403   10.3315 O   0  0  0  0  0  0  0  0  0  0  0  0
  1  2  1  0  0  0  0
  1  3  1  0  0  0  0
  1  4  1  0  0  0  0
M  END
>  <CHROM.1>
36.56426016,18.55468532,9.16913618,0.13756703,1.02315472,-2.19896538

>  <Name>
ligand

>  <RI>
0

>  <Rbt.Current_Directory>
/home/itssahil/PROJECTS/Mol_Feturizer/New_Systems/rnas/4FEN

>  <Rbt.Executable>
rbdock ($Id: //depot/dev/client3/rdock/2013.1/src/exe/rbdock.cxx#4 $)

>  <Rbt.Library>
libRbt.so (2013.1, Build901 2013/11/27)

>  <Rbt.Parameter_File>
/export/apps/rDock/src/rDock_2013.1_src/data/scripts/dock_solv.prm

>  <Rbt.Receptor>
prm/pocket_docking_5.prm

>  <SCORE>
-5.02262

>  <SCORE.INTER>
-5.02262

>  <SCORE.INTER.CONST>
1

>  <SCORE.INTER.POLAR>
0

>  <SCORE.INTER.ROT>
0

>  <SCORE.INTER.SOLV>
1.57125

>  <SCORE.INTER.VDW>
-7.47216

>  <SCORE.INTER.norm>
-1.25565

>  <SCORE.INTRA>
0

>  <SCORE.INTRA.DIHEDRAL>
0

>  <SCORE.INTRA.DIHEDRAL.0>
0

>  <SCORE.INTRA.POLAR>
0

>  <SCORE.INTRA.POLAR.0>
0

>  <SCORE.INTRA.REPUL>
0

>  <SCORE.INTRA.REPUL.0>
0

>  <SCORE.INTRA.SOLV>
0

>  <SCORE.INTRA.SOLV.lig_0>
0.449748

>  <SCORE.INTRA.VDW>
0

>  <SCORE.INTRA.VDW.0>
0

>  <SCORE.INTRA.norm>
0

>  <SCORE.RESTR>
0

>  <SCORE.RESTR.CAVITY>
0

>  <SCORE.RESTR.norm>
0

>  <SCORE.SYSTEM>
0

>  <SCORE.SYSTEM.CONST>
0

>  <SCORE.SYSTEM.DIHEDRAL>
0

>  <SCORE.SYSTEM.SOLV>
0

>  <SCORE.SYSTEM.norm>
0

>  <SCORE.heavy>
4

>  <SCORE.norm>
-1.25565

>  <RMSD>
1.978

$$$$
ligand
 OpenBabel11021811493D
libRbt.so/2013.1/901 2013/11/27
  4  3  0  0  0  0  0  0  0  0999 V2000
   36.4238   18.9880    8.7460 C   0  0  0  0  0  0  0  0  0  0  0  0
   36.2873   19.9326    7.9374 O   0  0  0  0  0  0  0  0  0  0  0  0
   36.5460   19.3683   10.2157 C   0  0  0  0  0  0  0  0  0  0  0  0
   36.4778   17.7053    8.4911 O   0  0  0  0  0  0  0  0  0  0  0  0
  1  2  1  0  0  0  0
  1  3  1  0  0  0  0
  1  4  1  0  0  0  0
M  END
>  <CHROM.1>
36.43254799,18.99319765,8.83205414,2.01301148,1.45545259,-2.58655817

>  <Name>
ligand

>  <RI>
0

>  <Rbt.Current_Directory>
/home/itssahil/PROJECTS/Mol_Feturizer/New_Systems/rnas/4FEN

>  <Rbt.Executable>
rbdock ($Id: //depot/dev/client3/rdock/2013.1/src/exe/rbdock.cxx#4 $)

>  <Rbt.Library>
libRbt.so (2013.1, Build901 2013/11/27)

>  <Rbt.Parameter_File>
/export/apps/rDock/src/rDock_2013.1_src/data/scripts/dock_solv.prm

>  <Rbt.Receptor>
prm/pocket_docking_5.prm

>  <SCORE>
-4.95283

>  <SCORE.INTER>
-4.95283

>  <SCORE.INTER.CONST>
1

>  <SCORE.INTER.POLAR>
0

>  <SCORE.INTER.ROT>
0

>  <SCORE.INTER.SOLV>
1.59034

>  <SCORE.INTER.VDW>
-7.432

>  <SCORE.INTER.norm>
-1.23821

>  <SCORE.INTRA>
0

>  <SCORE.INTRA.DIHEDRAL>
0

>  <SCORE.INTRA.DIHEDRAL.0>
0

>  <SCORE.INTRA.POLAR>
0

>  <SCORE.INTRA.POLAR.0>
0

>  <SCORE.INTRA.REPUL>
0

>  <SCORE.INTRA.REPUL.0>
0

>  <SCORE.INTRA.SOLV>
0

>  <SCORE.INTRA.SOLV.lig_0>
0.449748

>  <SCORE.INTRA.VDW>
0

>  <SCORE.INTRA.VDW.0>
0

>  <SCORE.INTRA.norm>
0

>  <SCORE.RESTR>
0

>  <SCORE.RESTR.CAVITY>
0

>  <SCORE.RESTR.norm>
0

>  <SCORE.SYSTEM>
0

>  <SCORE.SYSTEM.CONST>
0

>  <SCORE.SYSTEM.DIHEDRAL>
0

>  <SCORE.SYSTEM.SOLV>
0

>  <SCORE.SYSTEM.norm>
0

>  <SCORE.heavy>
4

>  <SCORE.norm>
-1.23821

>  <RMSD>
1.980

$$$$
ligand
 OpenBabel11021811493D
libRbt.so/2013.1/901 2013/11/27
  4  3  0  0  0  0  0  0  0  0999 V2000
   36.4340   18.9776    8.7484 C   0  0  0  0  0  0  0  0  0  0  0  0
   36.5473   17.7576    8.4966 O   0  0  0  0  0  0  0  0  0  0  0  0
   36.5281   19.3769   10.2151 C   0  0  0  0  0  0  0  0  0  0  0  0
   36.2417   19.9632    7.9089 O   0  0  0  0  0  0  0  0  0  0  0  0
  1  2  1  0  0  0  0
  1  3  1  0  0  0  0
  1  4  1  0  0  0  0
M  END
>  <CHROM.1>
36.43653541,19.01574989,8.82613706,-2.33350023,-1.42385735,0.87013094

>  <Name>
ligand

>  <RI>
0

>  <Rbt.Current_Directory>
/home/itssahil/PROJECTS/Mol_Feturizer/New_Systems/rnas/4FEN

>  <Rbt.Executable>
rbdock ($Id: //depot/dev/client3/rdock/2013.1/src/exe/rbdock.cxx#4 $)

>  <Rbt.Library>
libRbt.so (2013.1, Build901 2013/11/27)

>  <Rbt.Parameter_File>
/export/apps/rDock/src/rDock_2013.1_src/data/scripts/dock_solv.prm

>  <Rbt.Receptor>
prm/pocket_docking_7.prm

>  <SCORE>
-4.98647

>  <SCORE.INTER>
-4.98647

>  <SCORE.INTER.CONST>
1

>  <SCORE.INTER.POLAR>
0

>  <SCORE.INTER.ROT>
0

>  <SCORE.INTER.SOLV>
1.59035

>  <SCORE.INTER.VDW>
-7.45443

>  <SCORE.INTER.norm>
-1.24662

>  <SCORE.INTRA>
0

>  <SCORE.INTRA.DIHEDRAL>
0

>  <SCORE.INTRA.DIHEDRAL.0>
0

>  <SCORE.INTRA.POLAR>
0

>  <SCORE.INTRA.POLAR.0>
0

>  <SCORE.INTRA.REPUL>
0

>  <SCORE.INTRA.REPUL.0>
0

>  <SCORE.INTRA.SOLV>
0

>  <SCORE.INTRA.SOLV.lig_0>
0.449748

>  <SCORE.INTRA.VDW>
0

>  <SCORE.INTRA.VDW.0>
0

>  <SCORE.INTRA.norm>
0

>  <SCORE.RESTR>
0

>  <SCORE.RESTR.CAVITY>
0

>  <SCORE.RESTR.norm>
0

>  <SCORE.SYSTEM>
0

>  <SCORE.SYSTEM.CONST>
0

>  <SCORE.SYSTEM.DIHEDRAL>
0

>  <SCORE.SYSTEM.SOLV>
0

>  <SCORE.SYSTEM.norm>
0

>  <SCORE.heavy>
4

>  <SCORE.norm>
-1.24662

>  <RMSD>
1.980

$$$$
ligand
 OpenBabel11021811493D
libRbt.so/2013.1/901 2013/11/27
  4  3  0  0  0  0  0  0  0  0999 V2000
   36.4119   18.9861    8.7420 C   0  0  0  0  0  0  0  0  0  0  0  0
   36.3894   17.7543    8.5254 O   0  0  0  0  0  0  0  0  0  0  0  0
   36.4950   19.4147   10.2010 C   0  0  0  0  0  0  0  0  0  0  0  0
   36.3710   19.9622    7.8709 O   0  0  0  0  0  0  0  0  0  0  0  0
  1  2  1  0  0  0  0
  1  3  1  0  0  0  0
  1  4  1  0  0  0  0
M  END
>  <CHROM.1>
36.41587996,19.02592392,8.81876662,2.95914827,-1.51521138,-0.14424395

>  <Name>
ligand

>  <RI>
0

>  <Rbt.Current_Directory>
/home/itssahil/PROJECTS/Mol_Feturizer/New_Systems/rnas/4FEN

>  <Rbt.Executable>
rbdock ($Id: //depot/dev/client3/rdock/2013.1/src/exe/rbdock.cxx#4 $)

>  <Rbt.Library>
libRbt.so (2013.1, Build901 2013/11/27)

>  <Rbt.Parameter_File>
/export/apps/rDock/src/rDock_2013.1_src/data/scripts/dock_solv.prm

>  <Rbt.Receptor>
prm/pocket_docking_7.prm

>  <SCORE>
-4.94057

>  <SCORE.INTER>
-4.94057

>  <SCORE.INTER.CONST>
1

>  <SCORE.INTER.POLAR>
0

>  <SCORE.INTER.ROT>
0

>  <SCORE.INTER.SOLV>
1.58243

>  <SCORE.INTER.VDW>
-7.42119

>  <SCORE.INTER.norm>
-1.23514

>  <SCORE.INTRA>
0

>  <SCORE.INTRA.DIHEDRAL>
0

>  <SCORE.INTRA.DIHEDRAL.0>
0

>  <SCORE.INTRA.POLAR>
0

>  <SCORE.INTRA.POLAR.0>
0

>  <SCORE.INTRA.REPUL>
0

>  <SCORE.INTRA.REPUL.0>
0

>  <SCORE.INTRA.SOLV>
0

>  <SCORE.INTRA.SOLV.lig_0>
0.449748

>  <SCORE.INTRA.VDW>
0

>  <SCORE.INTRA.VDW.0>
0

>  <SCORE.INTRA.norm>
0

>  <SCORE.RESTR>
0

>  <SCORE.RESTR.CAVITY>
0

>  <SCORE.RESTR.norm>
0

>  <SCORE.SYSTEM>
0

>  <SCORE.SYSTEM.CONST>
0

>  <SCORE.SYSTEM.DIHEDRAL>
0

>  <SCORE.SYSTEM.SOLV>
0

>  <SCORE.SYSTEM.norm>
0

>  <SCORE.heavy>
4

>  <SCORE.norm>
-1.23514

>  <RMSD>
1.980

$$$$
ligand
 OpenBabel11021811493D
libRbt.so/2013.1/901 2013/11/27
  4  3  0  0  0  0  0  0  0  0999 V2000
   36.6021   18.5258    9.1214 C   0  0  0  0  0  0  0  0  0  0  0  0
   36.6964   17.7293    8.1614 O   0  0  0  0  0  0  0  0  0  0  0  0
   35.8297   19.8120    8.8595 C   0  0  0  0  0  0  0  0  0  0  0  0
   37.0863   18.3973   10.3306 O   0  0  0  0  0  0  0  0  0  0  0  0
  1  2  1  0  0  0  0
  1  3  1  0  0  0  0
  1  4  1  0  0  0  0
M  END
>  <CHROM.1>
36.56219368,18.60265771,9.12225673,-0.00430572,1.00680871,-2.14457077

>  <Name>
ligand

>  <RI>
0

>  <Rbt.Current_Directory>
/home/itssahil/PROJECTS/Mol_Feturizer/New_Systems/rnas/4FEN

>  <Rbt.Executable>
rbdock ($Id: //depot/dev/client3/rdock/2013.1/src/exe/rbdock.cxx#4 $)

>  <Rbt.Library>
libRbt.so (2013.1, Build901 2013/11/27)

>  <Rbt.Parameter_File>
/export/apps/rDock/src/rDock_2013.1_src/data/scripts/dock_solv.prm

>  <Rbt.Receptor>
prm/pocket_docking_8.prm

>  <SCORE>
-5.00396

>  <SCORE.INTER>
-5.00396

>  <SCORE.INTER.CONST>
1

>  <SCORE.INTER.POLAR>
0

>  <SCORE.INTER.ROT>
0

>  <SCORE.INTER.SOLV>
1.57915

>  <SCORE.INTER.VDW>
-7.46236

>  <SCORE.INTER.norm>
-1.25099

>  <SCORE.INTRA>
0

>  <SCORE.INTRA.DIHEDRAL>
0

>  <SCORE.INTRA.DIHEDRAL.0>
0

>  <SCORE.INTRA.POLAR>
0

>  <SCORE.INTRA.POLAR.0>
0

>  <SCORE.INTRA.REPUL>
0

>  <SCORE.INTRA.REPUL.0>
0

>  <SCORE.INTRA.SOLV>
0

>  <SCORE.INTRA.SOLV.lig_0>
0.449748

>  <SCORE.INTRA.VDW>
0

>  <SCORE.INTRA.VDW.0>
0

>  <SCORE.INTRA.norm>
0

>  <SCORE.RESTR>
0

>  <SCORE.RESTR.CAVITY>
0

>  <SCORE.RESTR.norm>
0

>  <SCORE.SYSTEM>
0

>  <SCORE.SYSTEM.CONST>
0

>  <SCORE.SYSTEM.DIHEDRAL>
0

>  <SCORE.SYSTEM.SOLV>
0

>  <SCORE.SYSTEM.norm>
0

>  <SCORE.heavy>
4

>  <SCORE.norm>
-1.25099

>  <RMSD>
1.981

$$$$
ligand
 OpenBabel11021811493D
libRbt.so/2013.1/901 2013/11/27
  4  3  0  0  0  0  0  0  0  0999 V2000
   36.5944   18.4707    9.1601 C   0  0  0  0  0  0  0  0  0  0  0  0
   36.5987   17.7451    8.1412 O   0  0  0  0  0  0  0  0  0  0  0  0
   35.8717   19.8055    9.0367 C   0  0  0  0  0  0  0  0  0  0  0  0
   37.1363   18.2309   10.3272 O   0  0  0  0  0  0  0  0  0  0  0  0
  1  2  1  0  0  0  0
  1  3  1  0  0  0  0
  1  4  1  0  0  0  0
M  END
>  <CHROM.1>
36.55838487,18.54897104,9.16883342,0.13086565,1.01378815,-2.18528403

>  <Name>
ligand

>  <RI>
0

>  <Rbt.Current_Directory>
/home/itssahil/PROJECTS/Mol_Feturizer/New_Systems/rnas/4FEN

>  <Rbt.Executable>
rbdock ($Id: //depot/dev/client3/rdock/2013.1/src/exe/rbdock.cxx#4 $)

>  <Rbt.Library>
libRbt.so (2013.1, Build901 2013/11/27)

>  <Rbt.Parameter_File>
/export/apps/rDock/src/rDock_2013.1_src/data/scripts/dock_solv.prm

>  <Rbt.Receptor>
prm/pocket_docking_5.prm

>  <SCORE>
-5.02218

>  <SCORE.INTER>
-5.02218

>  <SCORE.INTER.CONST>
1

>  <SCORE.INTER.POLAR>
0

>  <SCORE.INTER.ROT>
0

>  <SCORE.INTER.SOLV>
1.56938

>  <SCORE.INTER.VDW>
-7.47125

>  <SCORE.INTER.norm>
-1.25555

>  <SCORE.INTRA>
0

>  <SCORE.INTRA.DIHEDRAL>
0

>  <SCORE.INTRA.DIHEDRAL.0>
0

>  <SCORE.INTRA.POLAR>
0

>  <SCORE.INTRA.POLAR.0>
0

>  <SCORE.INTRA.REPUL>
0

>  <SCORE.INTRA.REPUL.0>
0

>  <SCORE.INTRA.SOLV>
0

>  <SCORE.INTRA.SOLV.lig_0>
0.449748

>  <SCORE.INTRA.VDW>
0

>  <SCORE.INTRA.VDW.0>
0

>  <SCORE.INTRA.norm>
0

>  <SCORE.RESTR>
0

>  <SCORE.RESTR.CAVITY>
0

>  <SCORE.RESTR.norm>
0

>  <SCORE.SYSTEM>
0

>  <SCORE.SYSTEM.CONST>
0

>  <SCORE.SYSTEM.DIHEDRAL>
0

>  <SCORE.SYSTEM.SOLV>
0

>  <SCORE.SYSTEM.norm>
0

>  <SCORE.heavy>
4

>  <SCORE.norm>
-1.25555

>  <RMSD>
1.983

$$$$
ligand
 OpenBabel11021811493D
libRbt.so/2013.1/901 2013/11/27
  4  3  0  0  0  0  0  0  0  0999 V2000
   36.6037   18.4841    9.1482 C   0  0  0  0  0  0  0  0  0  0  0  0
   36.5989   17.7550    8.1318 O   0  0  0  0  0  0  0  0  0  0  0  0
   35.8954   19.8263    9.0210 C   0  0  0  0  0  0  0  0  0  0  0  0
   37.1443   18.2424   10.3155 O   0  0  0  0  0  0  0  0  0  0  0  0
  1  2  1  0  0  0  0
  1  3  1  0  0  0  0
  1  4  1  0  0  0  0
M  END
>  <CHROM.1>
36.56854387,18.56277436,9.15673118,0.14466637,1.02198537,-2.20044521

>  <Name>
ligand

>  <RI>
0

>  <Rbt.Current_Directory>
/home/itssahil/PROJECTS/Mol_Feturizer/New_Systems/rnas/4FEN

>  <Rbt.Executable>
rbdock ($Id: //depot/dev/client3/rdock/2013.1/src/exe/rbdock.cxx#4 $)

>  <Rbt.Library>
libRbt.so (2013.1, Build901 2013/11/27)

>  <Rbt.Parameter_File>
/export/apps/rDock/src/rDock_2013.1_src/data/scripts/dock_solv.prm

>  <Rbt.Receptor>
prm/pocket_docking_5.prm

>  <SCORE>
-5.02125

>  <SCORE.INTER>
-5.02125

>  <SCORE.INTER.CONST>
1

>  <SCORE.INTER.POLAR>
0

>  <SCORE.INTER.ROT>
0

>  <SCORE.INTER.SOLV>
1.58136

>  <SCORE.INTER.VDW>
-7.47462

>  <SCORE.INTER.norm>
-1.25531

>  <SCORE.INTRA>
0

>  <SCORE.INTRA.DIHEDRAL>
0

>  <SCORE.INTRA.DIHEDRAL.0>
0

>  <SCORE.INTRA.POLAR>
0

>  <SCORE.INTRA.POLAR.0>
0

>  <SCORE.INTRA.REPUL>
0

>  <SCORE.INTRA.REPUL.0>
0

>  <SCORE.INTRA.SOLV>
0

>  <SCORE.INTRA.SOLV.lig_0>
0.449748

>  <SCORE.INTRA.VDW>
0

>  <SCORE.INTRA.VDW.0>
0

>  <SCORE.INTRA.norm>
0

>  <SCORE.RESTR>
0

>  <SCORE.RESTR.CAVITY>
0

>  <SCORE.RESTR.norm>
0

>  <SCORE.SYSTEM>
0

>  <SCORE.SYSTEM.CONST>
0

>  <SCORE.SYSTEM.DIHEDRAL>
0

>  <SCORE.SYSTEM.SOLV>
0

>  <SCORE.SYSTEM.norm>
0

>  <SCORE.heavy>
4

>  <SCORE.norm>
-1.25531

>  <RMSD>
1.983

$$$$
ligand
 OpenBabel11021811493D
libRbt.so/2013.1/901 2013/11/27
  4  3  0  0  0  0  0  0  0  0999 V2000
   36.5714   18.4515    9.2242 C   0  0  0  0  0  0  0  0  0  0  0  0
   37.1448   18.2142   10.3103 O   0  0  0  0  0  0  0  0  0  0  0  0
   35.7289   19.7189    9.1671 C   0  0  0  0  0  0  0  0  0  0  0  0
   36.5998   17.7455    8.1223 O   0  0  0  0  0  0  0  0  0  0  0  0
  1  2  1  0  0  0  0
  1  3  1  0  0  0  0
  1  4  1  0  0  0  0
M  END
>  <CHROM.1>
36.51996120,18.51861501,9.20535541,-0.73061415,-0.92487140,1.03076352

>  <Name>
ligand

>  <RI>
0

>  <Rbt.Current_Directory>
/home/itssahil/PROJECTS/Mol_Feturizer/New_Systems/rnas/4FEN

>  <Rbt.Executable>
rbdock ($Id: //depot/dev/client3/rdock/2013.1/src/exe/rbdock.cxx#4 $)

>  <Rbt.Library>
libRbt.so (2013.1, Build901 2013/11/27)

>  <Rbt.Parameter_File>
/export/apps/rDock/src/rDock_2013.1_src/data/scripts/dock_solv.prm

>  <Rbt.Receptor>
prm/pocket_docking_5.prm

>  <SCORE>
-4.97821

>  <SCORE.INTER>
-4.97821

>  <SCORE.INTER.CONST>
1

>  <SCORE.INTER.POLAR>
0

>  <SCORE.INTER.ROT>
0

>  <SCORE.INTER.SOLV>
1.54927

>  <SCORE.INTER.VDW>
-7.43523

>  <SCORE.INTER.norm>
-1.24455

>  <SCORE.INTRA>
0

>  <SCORE.INTRA.DIHEDRAL>
0

>  <SCORE.INTRA.DIHEDRAL.0>
0

>  <SCORE.INTRA.POLAR>
0

>  <SCORE.INTRA.POLAR.0>
0

>  <SCORE.INTRA.REPUL>
0

>  <SCORE.INTRA.REPUL.0>
0

>  <SCORE.INTRA.SOLV>
0

>  <SCORE.INTRA.SOLV.lig_0>
0.449748

>  <SCORE.INTRA.VDW>
0

>  <SCORE.INTRA.VDW.0>
0

>  <SCORE.INTRA.norm>
0

>  <SCORE.RESTR>
0

>  <SCORE.RESTR.CAVITY>
0

>  <SCORE.RESTR.norm>
0

>  <SCORE.SYSTEM>
0

>  <SCORE.SYSTEM.CONST>
0

>  <SCORE.SYSTEM.DIHEDRAL>
0

>  <SCORE.SYSTEM.SOLV>
0

>  <SCORE.SYSTEM.norm>
0

>  <SCORE.heavy>
4

>  <SCORE.norm>
-1.24455

>  <RMSD>
1.987

$$$$
ligand
 OpenBabel11021811493D
libRbt.so/2013.1/901 2013/11/27
  4  3  0  0  0  0  0  0  0  0999 V2000
   36.5978   18.4693    9.1529 C   0  0  0  0  0  0  0  0  0  0  0  0
   36.5998   17.7431    8.1344 O   0  0  0  0  0  0  0  0  0  0  0  0
   35.8855   19.8095    9.0264 C   0  0  0  0  0  0  0  0  0  0  0  0
   37.1342   18.2262   10.3219 O   0  0  0  0  0  0  0  0  0  0  0  0
  1  2  1  0  0  0  0
  1  3  1  0  0  0  0
  1  4  1  0  0  0  0
M  END
>  <CHROM.1>
36.56229938,18.54786732,9.16146848,0.13421066,1.02175886,-2.18873659

>  <Name>
ligand

>  <RI>
0

>  <Rbt.Current_Directory>
/home/itssahil/PROJECTS/Mol_Feturizer/New_Systems/rnas/4FEN

>  <Rbt.Executable>
rbdock ($Id: //depot/dev/client3/rdock/2013.1/src/exe/rbdock.cxx#4 $)

>  <Rbt.Library>
libRbt.so (2013.1, Build901 2013/11/27)

>  <Rbt.Parameter_File>
/export/apps/rDock/src/rDock_2013.1_src/data/scripts/dock_solv.prm

>  <Rbt.Receptor>
prm/pocket_docking_5.prm

>  <SCORE>
-5.02377

>  <SCORE.INTER>
-5.02377

>  <SCORE.INTER.CONST>
1

>  <SCORE.INTER.POLAR>
0

>  <SCORE.INTER.ROT>
0

>  <SCORE.INTER.SOLV>
1.57237

>  <SCORE.INTER.VDW>
-7.4733

>  <SCORE.INTER.norm>
-1.25594

>  <SCORE.INTRA>
0

>  <SCORE.INTRA.DIHEDRAL>
0

>  <SCORE.INTRA.DIHEDRAL.0>
0

>  <SCORE.INTRA.POLAR>
0

>  <SCORE.INTRA.POLAR.0>
0

>  <SCORE.INTRA.REPUL>
0

>  <SCORE.INTRA.REPUL.0>
0

>  <SCORE.INTRA.SOLV>
0

>  <SCORE.INTRA.SOLV.lig_0>
0.449748

>  <SCORE.INTRA.VDW>
0

>  <SCORE.INTRA.VDW.0>
0

>  <SCORE.INTRA.norm>
0

>  <SCORE.RESTR>
0

>  <SCORE.RESTR.CAVITY>
0

>  <SCORE.RESTR.norm>
0

>  <SCORE.SYSTEM>
0

>  <SCORE.SYSTEM.CONST>
0

>  <SCORE.SYSTEM.DIHEDRAL>
0

>  <SCORE.SYSTEM.SOLV>
0

>  <SCORE.SYSTEM.norm>
0

>  <SCORE.heavy>
4

>  <SCORE.norm>
-1.25594

>  <RMSD>
1.988

$$$$
ligand
 OpenBabel11021811493D
libRbt.so/2013.1/901 2013/11/27
  4  3  0  0  0  0  0  0  0  0999 V2000
   36.5980   18.4712    9.1506 C   0  0  0  0  0  0  0  0  0  0  0  0
   36.5989   17.7459    8.1314 O   0  0  0  0  0  0  0  0  0  0  0  0
   35.8877   19.8125    9.0253 C   0  0  0  0  0  0  0  0  0  0  0  0
   37.1340   18.2261   10.3193 O   0  0  0  0  0  0  0  0  0  0  0  0
  1  2  1  0  0  0  0
  1  3  1  0  0  0  0
  1  4  1  0  0  0  0
M  END
>  <CHROM.1>
36.56265226,18.54980101,9.15918745,0.13587887,1.02299496,-2.18919685

>  <Name>
ligand

>  <RI>
0

>  <Rbt.Current_Directory>
/home/itssahil/PROJECTS/Mol_Feturizer/New_Systems/rnas/4FEN

>  <Rbt.Executable>
rbdock ($Id: //depot/dev/client3/rdock/2013.1/src/exe/rbdock.cxx#4 $)

>  <Rbt.Library>
libRbt.so (2013.1, Build901 2013/11/27)

>  <Rbt.Parameter_File>
/export/apps/rDock/src/rDock_2013.1_src/data/scripts/dock_solv.prm

>  <Rbt.Receptor>
prm/pocket_docking_5.prm

>  <SCORE>
-5.0232

>  <SCORE.INTER>
-5.0232

>  <SCORE.INTER.CONST>
1

>  <SCORE.INTER.POLAR>
0

>  <SCORE.INTER.ROT>
0

>  <SCORE.INTER.SOLV>
1.57411

>  <SCORE.INTER.VDW>
-7.4735

>  <SCORE.INTER.norm>
-1.2558

>  <SCORE.INTRA>
0

>  <SCORE.INTRA.DIHEDRAL>
0

>  <SCORE.INTRA.DIHEDRAL.0>
0

>  <SCORE.INTRA.POLAR>
0

>  <SCORE.INTRA.POLAR.0>
0

>  <SCORE.INTRA.REPUL>
0

>  <SCORE.INTRA.REPUL.0>
0

>  <SCORE.INTRA.SOLV>
0

>  <SCORE.INTRA.SOLV.lig_0>
0.449748

>  <SCORE.INTRA.VDW>
0

>  <SCORE.INTRA.VDW.0>
0

>  <SCORE.INTRA.norm>
0

>  <SCORE.RESTR>
0

>  <SCORE.RESTR.CAVITY>
0

>  <SCORE.RESTR.norm>
0

>  <SCORE.SYSTEM>
0

>  <SCORE.SYSTEM.CONST>
0

>  <SCORE.SYSTEM.DIHEDRAL>
0

>  <SCORE.SYSTEM.SOLV>
0

>  <SCORE.SYSTEM.norm>
0

>  <SCORE.heavy>
4

>  <SCORE.norm>
-1.2558

>  <RMSD>
1.988

$$$$
ligand
 OpenBabel11021811493D
libRbt.so/2013.1/901 2013/11/27
  4  3  0  0  0  0  0  0  0  0999 V2000
   36.5935   18.4652    9.1519 C   0  0  0  0  0  0  0  0  0  0  0  0
   36.5998   17.7469    8.1279 O   0  0  0  0  0  0  0  0  0  0  0  0
   35.8806   19.8058    9.0331 C   0  0  0  0  0  0  0  0  0  0  0  0
   37.1259   18.2135   10.3209 O   0  0  0  0  0  0  0  0  0  0  0  0
  1  2  1  0  0  0  0
  1  3  1  0  0  0  0
  1  4  1  0  0  0  0
M  END
>  <CHROM.1>
36.55794896,18.54369682,9.16090862,0.12761969,1.02321273,-2.17539855

>  <Name>
ligand

>  <RI>
0

>  <Rbt.Current_Directory>
/home/itssahil/PROJECTS/Mol_Feturizer/New_Systems/rnas/4FEN

>  <Rbt.Executable>
rbdock ($Id: //depot/dev/client3/rdock/2013.1/src/exe/rbdock.cxx#4 $)

>  <Rbt.Library>
libRbt.so (2013.1, Build901 2013/11/27)

>  <Rbt.Parameter_File>
/export/apps/rDock/src/rDock_2013.1_src/data/scripts/dock_solv.prm

>  <Rbt.Receptor>
prm/pocket_docking_5.prm

>  <SCORE>
-5.02203

>  <SCORE.INTER>
-5.02203

>  <SCORE.INTER.CONST>
1

>  <SCORE.INTER.POLAR>
0

>  <SCORE.INTER.ROT>
0

>  <SCORE.INTER.SOLV>
1.5711

>  <SCORE.INTER.VDW>
-7.47172

>  <SCORE.INTER.norm>
-1.25551

>  <SCORE.INTRA>
0

>  <SCORE.INTRA.DIHEDRAL>
0

>  <SCORE.INTRA.DIHEDRAL.0>
0

>  <SCORE.INTRA.POLAR>
0

>  <SCORE.INTRA.POLAR.0>
0

>  <SCORE.INTRA.REPUL>
0

>  <SCORE.INTRA.REPUL.0>
0

>  <SCORE.INTRA.SOLV>
0

>  <SCORE.INTRA.SOLV.lig_0>
0.449748

>  <SCORE.INTRA.VDW>
0

>  <SCORE.INTRA.VDW.0>
0

>  <SCORE.INTRA.norm>
0

>  <SCORE.RESTR>
0

>  <SCORE.RESTR.CAVITY>
0

>  <SCORE.RESTR.norm>
0

>  <SCORE.SYSTEM>
0

>  <SCORE.SYSTEM.CONST>
0

>  <SCORE.SYSTEM.DIHEDRAL>
0

>  <SCORE.SYSTEM.SOLV>
0

>  <SCORE.SYSTEM.norm>
0

>  <SCORE.heavy>
4

>  <SCORE.norm>
-1.25551

>  <RMSD>
1.990

$$$$
ligand
 OpenBabel11021811493D
libRbt.so/2013.1/901 2013/11/27
  4  3  0  0  0  0  0  0  0  0999 V2000
   36.4292   18.9829    8.7435 C   0  0  0  0  0  0  0  0  0  0  0  0
   36.2410   19.9080    7.9229 O   0  0  0  0  0  0  0  0  0  0  0  0
   36.4397   19.3758   10.2148 C   0  0  0  0  0  0  0  0  0  0  0  0
   36.6216   17.7113    8.5000 O   0  0  0  0  0  0  0  0  0  0  0  0
  1  2  1  0  0  0  0
  1  3  1  0  0  0  0
  1  4  1  0  0  0  0
M  END
>  <CHROM.1>
36.43301130,18.98904230,8.82977968,1.28636179,1.40462405,-1.87043716

>  <Name>
ligand

>  <RI>
0

>  <Rbt.Current_Directory>
/home/itssahil/PROJECTS/Mol_Feturizer/New_Systems/rnas/4FEN

>  <Rbt.Executable>
rbdock ($Id: //depot/dev/client3/rdock/2013.1/src/exe/rbdock.cxx#4 $)

>  <Rbt.Library>
libRbt.so (2013.1, Build901 2013/11/27)

>  <Rbt.Parameter_File>
/export/apps/rDock/src/rDock_2013.1_src/data/scripts/dock_solv.prm

>  <Rbt.Receptor>
prm/pocket_docking_7.prm

>  <SCORE>
-4.96495

>  <SCORE.INTER>
-4.96495

>  <SCORE.INTER.CONST>
1

>  <SCORE.INTER.POLAR>
0

>  <SCORE.INTER.ROT>
0

>  <SCORE.INTER.SOLV>
1.57535

>  <SCORE.INTER.VDW>
-7.43508

>  <SCORE.INTER.norm>
-1.24124

>  <SCORE.INTRA>
0

>  <SCORE.INTRA.DIHEDRAL>
0

>  <SCORE.INTRA.DIHEDRAL.0>
0

>  <SCORE.INTRA.POLAR>
0

>  <SCORE.INTRA.POLAR.0>
0

>  <SCORE.INTRA.REPUL>
0

>  <SCORE.INTRA.REPUL.0>
0

>  <SCORE.INTRA.SOLV>
0

>  <SCORE.INTRA.SOLV.lig_0>
0.449748

>  <SCORE.INTRA.VDW>
0

>  <SCORE.INTRA.VDW.0>
0

>  <SCORE.INTRA.norm>
0

>  <SCORE.RESTR>
0

>  <SCORE.RESTR.CAVITY>
0

>  <SCORE.RESTR.norm>
0

>  <SCORE.SYSTEM>
0

>  <SCORE.SYSTEM.CONST>
0

>  <SCORE.SYSTEM.DIHEDRAL>
0

>  <SCORE.SYSTEM.SOLV>
0

>  <SCORE.SYSTEM.norm>
0

>  <SCORE.heavy>
4

>  <SCORE.norm>
-1.24124

>  <RMSD>
1.990

$$$$
ligand
 OpenBabel11021811493D
libRbt.so/2013.1/901 2013/11/27
  4  3  0  0  0  0  0  0  0  0999 V2000
   36.6031   18.4728    9.1436 C   0  0  0  0  0  0  0  0  0  0  0  0
   36.5996   17.7462    8.1254 O   0  0  0  0  0  0  0  0  0  0  0  0
   35.9077   19.8215    9.0142 C   0  0  0  0  0  0  0  0  0  0  0  0
   37.1325   18.2235   10.3144 O   0  0  0  0  0  0  0  0  0  0  0  0
  1  2  1  0  0  0  0
  1  3  1  0  0  0  0
  1  4  1  0  0  0  0
M  END
>  <CHROM.1>
36.56852871,18.55179832,9.15200947,0.14266185,1.03369634,-2.19630085

>  <Name>
ligand

>  <RI>
0

>  <Rbt.Current_Directory>
/home/itssahil/PROJECTS/Mol_Feturizer/New_Systems/rnas/4FEN

>  <Rbt.Executable>
rbdock ($Id: //depot/dev/client3/rdock/2013.1/src/exe/rbdock.cxx#4 $)

>  <Rbt.Library>
libRbt.so (2013.1, Build901 2013/11/27)

>  <Rbt.Parameter_File>
/export/apps/rDock/src/rDock_2013.1_src/data/scripts/dock_solv.prm

>  <Rbt.Receptor>
prm/blind_docking_80.prm

>  <SCORE>
-5.02244

>  <SCORE.INTER>
-5.02244

>  <SCORE.INTER.CONST>
1

>  <SCORE.INTER.POLAR>
0

>  <SCORE.INTER.ROT>
0

>  <SCORE.INTER.SOLV>
1.57825

>  <SCORE.INTER.VDW>
-7.47438

>  <SCORE.INTER.norm>
-1.25561

>  <SCORE.INTRA>
0

>  <SCORE.INTRA.DIHEDRAL>
0

>  <SCORE.INTRA.DIHEDRAL.0>
0

>  <SCORE.INTRA.POLAR>
0

>  <SCORE.INTRA.POLAR.0>
0

>  <SCORE.INTRA.REPUL>
0

>  <SCORE.INTRA.REPUL.0>
0

>  <SCORE.INTRA.SOLV>
0

>  <SCORE.INTRA.SOLV.lig_0>
0.449748

>  <SCORE.INTRA.VDW>
0

>  <SCORE.INTRA.VDW.0>
0

>  <SCORE.INTRA.norm>
0

>  <SCORE.RESTR>
0

>  <SCORE.RESTR.CAVITY>
0

>  <SCORE.RESTR.norm>
0

>  <SCORE.SYSTEM>
0

>  <SCORE.SYSTEM.CONST>
0

>  <SCORE.SYSTEM.DIHEDRAL>
0

>  <SCORE.SYSTEM.SOLV>
0

>  <SCORE.SYSTEM.norm>
0

>  <SCORE.heavy>
4

>  <SCORE.norm>
-1.25561

>  <RMSD>
1.991

$$$$
ligand
 OpenBabel11021811493D
libRbt.so/2013.1/901 2013/11/27
  4  3  0  0  0  0  0  0  0  0999 V2000
   36.5847   18.4284    9.2059 C   0  0  0  0  0  0  0  0  0  0  0  0
   36.5995   17.7445    8.1586 O   0  0  0  0  0  0  0  0  0  0  0  0
   35.7893   19.7261    9.1549 C   0  0  0  0  0  0  0  0  0  0  0  0
   37.1702   18.1726   10.3482 O   0  0  0  0  0  0  0  0  0  0  0  0
  1  2  1  0  0  0  0
  1  3  1  0  0  0  0
  1  4  1  0  0  0  0
M  END
>  <CHROM.1>
36.54484602,18.50418273,9.21863751,0.11665888,0.95474625,-2.13354548

>  <Name>
ligand

>  <RI>
0

>  <Rbt.Current_Directory>
/home/itssahil/PROJECTS/Mol_Feturizer/New_Systems/rnas/4FEN

>  <Rbt.Executable>
rbdock ($Id: //depot/dev/client3/rdock/2013.1/src/exe/rbdock.cxx#4 $)

>  <Rbt.Library>
libRbt.so (2013.1, Build901 2013/11/27)

>  <Rbt.Parameter_File>
/export/apps/rDock/src/rDock_2013.1_src/data/scripts/dock_solv.prm

>  <Rbt.Receptor>
prm/pocket_docking_5.prm

>  <SCORE>
-5.01475

>  <SCORE.INTER>
-5.01475

>  <SCORE.INTER.CONST>
1

>  <SCORE.INTER.POLAR>
0

>  <SCORE.INTER.ROT>
0

>  <SCORE.INTER.SOLV>
1.5451

>  <SCORE.INTER.VDW>
-7.4582

>  <SCORE.INTER.norm>
-1.25369

>  <SCORE.INTRA>
0

>  <SCORE.INTRA.DIHEDRAL>
0

>  <SCORE.INTRA.DIHEDRAL.0>
0

>  <SCORE.INTRA.POLAR>
0

>  <SCORE.INTRA.POLAR.0>
0

>  <SCORE.INTRA.REPUL>
0

>  <SCORE.INTRA.REPUL.0>
0

>  <SCORE.INTRA.SOLV>
0

>  <SCORE.INTRA.SOLV.lig_0>
0.449748

>  <SCORE.INTRA.VDW>
0

>  <SCORE.INTRA.VDW.0>
0

>  <SCORE.INTRA.norm>
0

>  <SCORE.RESTR>
0

>  <SCORE.RESTR.CAVITY>
0

>  <SCORE.RESTR.norm>
0

>  <SCORE.SYSTEM>
0

>  <SCORE.SYSTEM.CONST>
0

>  <SCORE.SYSTEM.DIHEDRAL>
0

>  <SCORE.SYSTEM.SOLV>
0

>  <SCORE.SYSTEM.norm>
0

>  <SCORE.heavy>
4

>  <SCORE.norm>
-1.25369

>  <RMSD>
1.991

$$$$
ligand
 OpenBabel11021811493D
libRbt.so/2013.1/901 2013/11/27
  4  3  0  0  0  0  0  0  0  0999 V2000
   36.5798   18.4334    9.2025 C   0  0  0  0  0  0  0  0  0  0  0  0
   36.5997   17.7531    8.1530 O   0  0  0  0  0  0  0  0  0  0  0  0
   35.7672   19.7207    9.1586 C   0  0  0  0  0  0  0  0  0  0  0  0
   37.1729   18.1819   10.3420 O   0  0  0  0  0  0  0  0  0  0  0  0
  1  2  1  0  0  0  0
  1  3  1  0  0  0  0
  1  4  1  0  0  0  0
M  END
>  <CHROM.1>
36.53899413,18.50868579,9.21571164,0.11009499,0.94162480,-2.12508781

>  <Name>
ligand

>  <RI>
0

>  <Rbt.Current_Directory>
/home/itssahil/PROJECTS/Mol_Feturizer/New_Systems/rnas/4FEN

>  <Rbt.Executable>
rbdock ($Id: //depot/dev/client3/rdock/2013.1/src/exe/rbdock.cxx#4 $)

>  <Rbt.Library>
libRbt.so (2013.1, Build901 2013/11/27)

>  <Rbt.Parameter_File>
/export/apps/rDock/src/rDock_2013.1_src/data/scripts/dock_solv.prm

>  <Rbt.Receptor>
prm/pocket_docking_5.prm

>  <SCORE>
-5.01603

>  <SCORE.INTER>
-5.01603

>  <SCORE.INTER.CONST>
1

>  <SCORE.INTER.POLAR>
0

>  <SCORE.INTER.ROT>
0

>  <SCORE.INTER.SOLV>
1.54612

>  <SCORE.INTER.VDW>
-7.45939

>  <SCORE.INTER.norm>
-1.25401

>  <SCORE.INTRA>
0

>  <SCORE.INTRA.DIHEDRAL>
0

>  <SCORE.INTRA.DIHEDRAL.0>
0

>  <SCORE.INTRA.POLAR>
0

>  <SCORE.INTRA.POLAR.0>
0

>  <SCORE.INTRA.REPUL>
0

>  <SCORE.INTRA.REPUL.0>
0

>  <SCORE.INTRA.SOLV>
0

>  <SCORE.INTRA.SOLV.lig_0>
0.449748

>  <SCORE.INTRA.VDW>
0

>  <SCORE.INTRA.VDW.0>
0

>  <SCORE.INTRA.norm>
0

>  <SCORE.RESTR>
0

>  <SCORE.RESTR.CAVITY>
0

>  <SCORE.RESTR.norm>
0

>  <SCORE.SYSTEM>
0

>  <SCORE.SYSTEM.CONST>
0

>  <SCORE.SYSTEM.DIHEDRAL>
0

>  <SCORE.SYSTEM.SOLV>
0

>  <SCORE.SYSTEM.norm>
0

>  <SCORE.heavy>
4

>  <SCORE.norm>
-1.25401

>  <RMSD>
1.991

$$$$
ligand
 OpenBabel11021811493D
libRbt.so/2013.1/901 2013/11/27
  4  3  0  0  0  0  0  0  0  0999 V2000
   36.5661   18.4355    9.2023 C   0  0  0  0  0  0  0  0  0  0  0  0
   36.5995   17.7527    8.1547 O   0  0  0  0  0  0  0  0  0  0  0  0
   35.7236   19.7034    9.1565 C   0  0  0  0  0  0  0  0  0  0  0  0
   37.1672   18.2011   10.3412 O   0  0  0  0  0  0  0  0  0  0  0  0
  1  2  1  0  0  0  0
  1  3  1  0  0  0  0
  1  4  1  0  0  0  0
M  END
>  <CHROM.1>
36.52349925,18.50979735,9.21538966,0.09286323,0.92064365,-2.11413001

>  <Name>
ligand

>  <RI>
0

>  <Rbt.Current_Directory>
/home/itssahil/PROJECTS/Mol_Feturizer/New_Systems/rnas/4FEN

>  <Rbt.Executable>
rbdock ($Id: //depot/dev/client3/rdock/2013.1/src/exe/rbdock.cxx#4 $)

>  <Rbt.Library>
libRbt.so (2013.1, Build901 2013/11/27)

>  <Rbt.Parameter_File>
/export/apps/rDock/src/rDock_2013.1_src/data/scripts/dock_solv.prm

>  <Rbt.Receptor>
prm/pocket_docking_5.prm

>  <SCORE>
-5.01549

>  <SCORE.INTER>
-5.01549

>  <SCORE.INTER.CONST>
1

>  <SCORE.INTER.POLAR>
0

>  <SCORE.INTER.ROT>
0

>  <SCORE.INTER.SOLV>
1.54306

>  <SCORE.INTER.VDW>
-7.45801

>  <SCORE.INTER.norm>
-1.25387

>  <SCORE.INTRA>
0

>  <SCORE.INTRA.DIHEDRAL>
0

>  <SCORE.INTRA.DIHEDRAL.0>
0

>  <SCORE.INTRA.POLAR>
0

>  <SCORE.INTRA.POLAR.0>
0

>  <SCORE.INTRA.REPUL>
0

>  <SCORE.INTRA.REPUL.0>
0

>  <SCORE.INTRA.SOLV>
0

>  <SCORE.INTRA.SOLV.lig_0>
0.449748

>  <SCORE.INTRA.VDW>
0

>  <SCORE.INTRA.VDW.0>
0

>  <SCORE.INTRA.norm>
0

>  <SCORE.RESTR>
0

>  <SCORE.RESTR.CAVITY>
0

>  <SCORE.RESTR.norm>
0

>  <SCORE.SYSTEM>
0

>  <SCORE.SYSTEM.CONST>
0

>  <SCORE.SYSTEM.DIHEDRAL>
0

>  <SCORE.SYSTEM.SOLV>
0

>  <SCORE.SYSTEM.norm>
0

>  <SCORE.heavy>
4

>  <SCORE.norm>
-1.25387

>  <RMSD>
1.991

$$$$
ligand
 OpenBabel11021811493D
libRbt.so/2013.1/901 2013/11/27
  4  3  0  0  0  0  0  0  0  0999 V2000
   36.4317   18.9847    8.7448 C   0  0  0  0  0  0  0  0  0  0  0  0
   36.2882   19.9038    7.9085 O   0  0  0  0  0  0  0  0  0  0  0  0
   36.4895   19.4045   10.2076 C   0  0  0  0  0  0  0  0  0  0  0  0
   36.5416   17.6992    8.5243 O   0  0  0  0  0  0  0  0  0  0  0  0
  1  2  1  0  0  0  0
  1  3  1  0  0  0  0
  1  4  1  0  0  0  0
M  END
>  <CHROM.1>
36.43731088,18.99228919,8.83089401,1.57490127,1.45416916,-2.17597352

>  <Name>
ligand

>  <RI>
0

>  <Rbt.Current_Directory>
/home/itssahil/PROJECTS/Mol_Feturizer/New_Systems/rnas/4FEN

>  <Rbt.Executable>
rbdock ($Id: //depot/dev/client3/rdock/2013.1/src/exe/rbdock.cxx#4 $)

>  <Rbt.Library>
libRbt.so (2013.1, Build901 2013/11/27)

>  <Rbt.Parameter_File>
/export/apps/rDock/src/rDock_2013.1_src/data/scripts/dock_solv.prm

>  <Rbt.Receptor>
prm/pocket_docking_7.prm

>  <SCORE>
-4.98075

>  <SCORE.INTER>
-4.98075

>  <SCORE.INTER.CONST>
1

>  <SCORE.INTER.POLAR>
0

>  <SCORE.INTER.ROT>
0

>  <SCORE.INTER.SOLV>
1.58725

>  <SCORE.INTER.VDW>
-7.44958

>  <SCORE.INTER.norm>
-1.24519

>  <SCORE.INTRA>
0

>  <SCORE.INTRA.DIHEDRAL>
0

>  <SCORE.INTRA.DIHEDRAL.0>
0

>  <SCORE.INTRA.POLAR>
0

>  <SCORE.INTRA.POLAR.0>
0

>  <SCORE.INTRA.REPUL>
0

>  <SCORE.INTRA.REPUL.0>
0

>  <SCORE.INTRA.SOLV>
0

>  <SCORE.INTRA.SOLV.lig_0>
0.449748

>  <SCORE.INTRA.VDW>
0

>  <SCORE.INTRA.VDW.0>
0

>  <SCORE.INTRA.norm>
0

>  <SCORE.RESTR>
0

>  <SCORE.RESTR.CAVITY>
0

>  <SCORE.RESTR.norm>
0

>  <SCORE.SYSTEM>
0

>  <SCORE.SYSTEM.CONST>
0

>  <SCORE.SYSTEM.DIHEDRAL>
0

>  <SCORE.SYSTEM.SOLV>
0

>  <SCORE.SYSTEM.norm>
0

>  <SCORE.heavy>
4

>  <SCORE.norm>
-1.24519

>  <RMSD>
1.992

$$$$
ligand
 OpenBabel11021811493D
libRbt.so/2013.1/901 2013/11/27
  4  3  0  0  0  0  0  0  0  0999 V2000
   36.4249   18.9772    8.7388 C   0  0  0  0  0  0  0  0  0  0  0  0
   36.2850   19.9054    7.9121 O   0  0  0  0  0  0  0  0  0  0  0  0
   36.4404   19.3771   10.2083 C   0  0  0  0  0  0  0  0  0  0  0  0
   36.5629   17.6971    8.5034 O   0  0  0  0  0  0  0  0  0  0  0  0
  1  2  1  0  0  0  0
  1  3  1  0  0  0  0
  1  4  1  0  0  0  0
M  END
>  <CHROM.1>
36.42831342,18.98369264,8.82515909,1.32739720,1.44941123,-1.91619577

>  <Name>
ligand

>  <RI>
0

>  <Rbt.Current_Directory>
/home/itssahil/PROJECTS/Mol_Feturizer/New_Systems/rnas/4FEN

>  <Rbt.Executable>
rbdock ($Id: //depot/dev/client3/rdock/2013.1/src/exe/rbdock.cxx#4 $)

>  <Rbt.Library>
libRbt.so (2013.1, Build901 2013/11/27)

>  <Rbt.Parameter_File>
/export/apps/rDock/src/rDock_2013.1_src/data/scripts/dock_solv.prm

>  <Rbt.Receptor>
prm/pocket_docking_5.prm

>  <SCORE>
-4.98458

>  <SCORE.INTER>
-4.98458

>  <SCORE.INTER.CONST>
1

>  <SCORE.INTER.POLAR>
0

>  <SCORE.INTER.ROT>
0

>  <SCORE.INTER.SOLV>
1.57019

>  <SCORE.INTER.VDW>
-7.44645

>  <SCORE.INTER.norm>
-1.24615

>  <SCORE.INTRA>
0

>  <SCORE.INTRA.DIHEDRAL>
0

>  <SCORE.INTRA.DIHEDRAL.0>
0

>  <SCORE.INTRA.POLAR>
0

>  <SCORE.INTRA.POLAR.0>
0

>  <SCORE.INTRA.REPUL>
0

>  <SCORE.INTRA.REPUL.0>
0

>  <SCORE.INTRA.SOLV>
0

>  <SCORE.INTRA.SOLV.lig_0>
0.449748

>  <SCORE.INTRA.VDW>
0

>  <SCORE.INTRA.VDW.0>
0

>  <SCORE.INTRA.norm>
0

>  <SCORE.RESTR>
0

>  <SCORE.RESTR.CAVITY>
0

>  <SCORE.RESTR.norm>
0

>  <SCORE.SYSTEM>
0

>  <SCORE.SYSTEM.CONST>
0

>  <SCORE.SYSTEM.DIHEDRAL>
0

>  <SCORE.SYSTEM.SOLV>
0

>  <SCORE.SYSTEM.norm>
0

>  <SCORE.heavy>
4

>  <SCORE.norm>
-1.24615

>  <RMSD>
1.994

$$$$
ligand
 OpenBabel11021811493D
libRbt.so/2013.1/901 2013/11/27
  4  3  0  0  0  0  0  0  0  0999 V2000
   36.4180   18.9700    8.7342 C   0  0  0  0  0  0  0  0  0  0  0  0
   36.5025   17.7404    8.5201 O   0  0  0  0  0  0  0  0  0  0  0  0
   36.4239   19.4042   10.1939 C   0  0  0  0  0  0  0  0  0  0  0  0
   36.3225   19.9394    7.8599 O   0  0  0  0  0  0  0  0  0  0  0  0
  1  2  1  0  0  0  0
  1  3  1  0  0  0  0
  1  4  1  0  0  0  0
M  END
>  <CHROM.1>
36.41654581,19.01005809,8.81094946,-1.94964446,-1.49243161,1.22666489

>  <Name>
ligand

>  <RI>
0

>  <Rbt.Current_Directory>
/home/itssahil/PROJECTS/Mol_Feturizer/New_Systems/rnas/4FEN

>  <Rbt.Executable>
rbdock ($Id: //depot/dev/client3/rdock/2013.1/src/exe/rbdock.cxx#4 $)

>  <Rbt.Library>
libRbt.so (2013.1, Build901 2013/11/27)

>  <Rbt.Parameter_File>
/export/apps/rDock/src/rDock_2013.1_src/data/scripts/dock_solv.prm

>  <Rbt.Receptor>
prm/pocket_docking_4.prm

>  <SCORE>
-4.99092

>  <SCORE.INTER>
-4.99092

>  <SCORE.INTER.CONST>
1

>  <SCORE.INTER.POLAR>
0

>  <SCORE.INTER.ROT>
0

>  <SCORE.INTER.SOLV>
1.5711

>  <SCORE.INTER.VDW>
-7.45098

>  <SCORE.INTER.norm>
-1.24773

>  <SCORE.INTRA>
0

>  <SCORE.INTRA.DIHEDRAL>
0

>  <SCORE.INTRA.DIHEDRAL.0>
0

>  <SCORE.INTRA.POLAR>
0

>  <SCORE.INTRA.POLAR.0>
0

>  <SCORE.INTRA.REPUL>
0

>  <SCORE.INTRA.REPUL.0>
0

>  <SCORE.INTRA.SOLV>
0

>  <SCORE.INTRA.SOLV.lig_0>
0.449748

>  <SCORE.INTRA.VDW>
0

>  <SCORE.INTRA.VDW.0>
0

>  <SCORE.INTRA.norm>
0

>  <SCORE.RESTR>
0

>  <SCORE.RESTR.CAVITY>
0

>  <SCORE.RESTR.norm>
0

>  <SCORE.SYSTEM>
0

>  <SCORE.SYSTEM.CONST>
0

>  <SCORE.SYSTEM.DIHEDRAL>
0

>  <SCORE.SYSTEM.SOLV>
0

>  <SCORE.SYSTEM.norm>
0

>  <SCORE.heavy>
4

>  <SCORE.norm>
-1.24773

>  <RMSD>
1.995

$$$$
ligand
 OpenBabel11021811493D
libRbt.so/2013.1/901 2013/11/27
  4  3  0  0  0  0  0  0  0  0999 V2000
   36.5831   18.5245    9.1334 C   0  0  0  0  0  0  0  0  0  0  0  0
   37.0578   18.3702   10.2804 O   0  0  0  0  0  0  0  0  0  0  0  0
   35.7589   19.7849    8.9067 C   0  0  0  0  0  0  0  0  0  0  0  0
   36.7018   17.7363    8.0952 O   0  0  0  0  0  0  0  0  0  0  0  0
  1  2  1  0  0  0  0
  1  3  1  0  0  0  0
  1  4  1  0  0  0  0
M  END
>  <CHROM.1>
36.53401751,18.59003828,9.10513279,-0.60473272,-0.97291289,1.05670593

>  <Name>
ligand

>  <RI>
0

>  <Rbt.Current_Directory>
/home/itssahil/PROJECTS/Mol_Feturizer/New_Systems/rnas/4FEN

>  <Rbt.Executable>
rbdock ($Id: //depot/dev/client3/rdock/2013.1/src/exe/rbdock.cxx#4 $)

>  <Rbt.Library>
libRbt.so (2013.1, Build901 2013/11/27)

>  <Rbt.Parameter_File>
/export/apps/rDock/src/rDock_2013.1_src/data/scripts/dock_solv.prm

>  <Rbt.Receptor>
prm/pocket_docking_8.prm

>  <SCORE>
-4.97425

>  <SCORE.INTER>
-4.97425

>  <SCORE.INTER.CONST>
1

>  <SCORE.INTER.POLAR>
0

>  <SCORE.INTER.ROT>
0

>  <SCORE.INTER.SOLV>
1.58158

>  <SCORE.INTER.VDW>
-7.44336

>  <SCORE.INTER.norm>
-1.24356

>  <SCORE.INTRA>
0

>  <SCORE.INTRA.DIHEDRAL>
0

>  <SCORE.INTRA.DIHEDRAL.0>
0

>  <SCORE.INTRA.POLAR>
0

>  <SCORE.INTRA.POLAR.0>
0

>  <SCORE.INTRA.REPUL>
0

>  <SCORE.INTRA.REPUL.0>
0

>  <SCORE.INTRA.SOLV>
0

>  <SCORE.INTRA.SOLV.lig_0>
0.449748

>  <SCORE.INTRA.VDW>
0

>  <SCORE.INTRA.VDW.0>
0

>  <SCORE.INTRA.norm>
0

>  <SCORE.RESTR>
0

>  <SCORE.RESTR.CAVITY>
0

>  <SCORE.RESTR.norm>
0

>  <SCORE.SYSTEM>
0

>  <SCORE.SYSTEM.CONST>
0

>  <SCORE.SYSTEM.DIHEDRAL>
0

>  <SCORE.SYSTEM.SOLV>
0

>  <SCORE.SYSTEM.norm>
0

>  <SCORE.heavy>
4

>  <SCORE.norm>
-1.24356

>  <RMSD>
1.997

$$$$
ligand
 OpenBabel11021811493D
libRbt.so/2013.1/901 2013/11/27
  4  3  0  0  0  0  0  0  0  0999 V2000
   36.6128   18.4584    9.1543 C   0  0  0  0  0  0  0  0  0  0  0  0
   36.6524   17.7492    8.1246 O   0  0  0  0  0  0  0  0  0  0  0  0
   35.8714   19.7834    9.0347 C   0  0  0  0  0  0  0  0  0  0  0  0
   37.1315   18.2088   10.3299 O   0  0  0  0  0  0  0  0  0  0  0  0
  1  2  1  0  0  0  0
  1  3  1  0  0  0  0
  1  4  1  0  0  0  0
M  END
>  <CHROM.1>
36.57529142,18.53596407,9.16339258,0.07744952,1.01316415,-2.12425750

>  <Name>
ligand

>  <RI>
0

>  <Rbt.Current_Directory>
/home/itssahil/PROJECTS/Mol_Feturizer/New_Systems/rnas/4FEN

>  <Rbt.Executable>
rbdock ($Id: //depot/dev/client3/rdock/2013.1/src/exe/rbdock.cxx#4 $)

>  <Rbt.Library>
libRbt.so (2013.1, Build901 2013/11/27)

>  <Rbt.Parameter_File>
/export/apps/rDock/src/rDock_2013.1_src/data/scripts/dock_solv.prm

>  <Rbt.Receptor>
prm/pocket_docking_6.prm

>  <SCORE>
-5.04684

>  <SCORE.INTER>
-5.04684

>  <SCORE.INTER.CONST>
1

>  <SCORE.INTER.POLAR>
0

>  <SCORE.INTER.ROT>
0

>  <SCORE.INTER.SOLV>
1.57057

>  <SCORE.INTER.VDW>
-7.48809

>  <SCORE.INTER.norm>
-1.26171

>  <SCORE.INTRA>
0

>  <SCORE.INTRA.DIHEDRAL>
0

>  <SCORE.INTRA.DIHEDRAL.0>
0

>  <SCORE.INTRA.POLAR>
0

>  <SCORE.INTRA.POLAR.0>
0

>  <SCORE.INTRA.REPUL>
0

>  <SCORE.INTRA.REPUL.0>
0

>  <SCORE.INTRA.SOLV>
0

>  <SCORE.INTRA.SOLV.lig_0>
0.449748

>  <SCORE.INTRA.VDW>
0

>  <SCORE.INTRA.VDW.0>
0

>  <SCORE.INTRA.norm>
0

>  <SCORE.RESTR>
0

>  <SCORE.RESTR.CAVITY>
0

>  <SCORE.RESTR.norm>
0

>  <SCORE.SYSTEM>
0

>  <SCORE.SYSTEM.CONST>
0

>  <SCORE.SYSTEM.DIHEDRAL>
0

>  <SCORE.SYSTEM.SOLV>
0

>  <SCORE.SYSTEM.norm>
0

>  <SCORE.heavy>
4

>  <SCORE.norm>
-1.26171

>  <RMSD>
2.000

$$$$
ligand
 OpenBabel11021811493D
libRbt.so/2013.1/901 2013/11/27
  4  3  0  0  0  0  0  0  0  0999 V2000
   36.6460   18.4494    9.1985 C   0  0  0  0  0  0  0  0  0  0  0  0
   37.1146   18.0886   10.3007 O   0  0  0  0  0  0  0  0  0  0  0  0
   35.9307   19.7937    9.1753 C   0  0  0  0  0  0  0  0  0  0  0  0
   36.6891   17.8159    8.0539 O   0  0  0  0  0  0  0  0  0  0  0  0
  1  2  1  0  0  0  0
  1  3  1  0  0  0  0
  1  4  1  0  0  0  0
M  END
>  <CHROM.1>
36.60253281,18.52228673,9.18109788,-0.70133990,-1.04160221,1.12268282

>  <Name>
ligand

>  <RI>
0

>  <Rbt.Current_Directory>
/home/itssahil/PROJECTS/Mol_Feturizer/New_Systems/rnas/4FEN

>  <Rbt.Executable>
rbdock ($Id: //depot/dev/client3/rdock/2013.1/src/exe/rbdock.cxx#4 $)

>  <Rbt.Library>
libRbt.so (2013.1, Build901 2013/11/27)

>  <Rbt.Parameter_File>
/export/apps/rDock/src/rDock_2013.1_src/data/scripts/dock_solv.prm

>  <Rbt.Receptor>
prm/pocket_docking_6.prm

>  <SCORE>
-5.03427

>  <SCORE.INTER>
-5.03427

>  <SCORE.INTER.CONST>
1

>  <SCORE.INTER.POLAR>
0

>  <SCORE.INTER.ROT>
0

>  <SCORE.INTER.SOLV>
1.59397

>  <SCORE.INTER.VDW>
-7.4875

>  <SCORE.INTER.norm>
-1.25857

>  <SCORE.INTRA>
0

>  <SCORE.INTRA.DIHEDRAL>
0

>  <SCORE.INTRA.DIHEDRAL.0>
0

>  <SCORE.INTRA.POLAR>
0

>  <SCORE.INTRA.POLAR.0>
0

>  <SCORE.INTRA.REPUL>
0

>  <SCORE.INTRA.REPUL.0>
0

>  <SCORE.INTRA.SOLV>
0

>  <SCORE.INTRA.SOLV.lig_0>
0.449748

>  <SCORE.INTRA.VDW>
0

>  <SCORE.INTRA.VDW.0>
0

>  <SCORE.INTRA.norm>
0

>  <SCORE.RESTR>
0

>  <SCORE.RESTR.CAVITY>
0

>  <SCORE.RESTR.norm>
0

>  <SCORE.SYSTEM>
0

>  <SCORE.SYSTEM.CONST>
0

>  <SCORE.SYSTEM.DIHEDRAL>
0

>  <SCORE.SYSTEM.SOLV>
0

>  <SCORE.SYSTEM.norm>
0

>  <SCORE.heavy>
4

>  <SCORE.norm>
-1.25857

>  <RMSD>
2.007

$$$$
ligand
 OpenBabel11021811493D
libRbt.so/2013.1/901 2013/11/27
  4  3  0  0  0  0  0  0  0  0999 V2000
   36.4598   18.9485    8.7292 C   0  0  0  0  0  0  0  0  0  0  0  0
   36.5982   17.7270    8.4975 O   0  0  0  0  0  0  0  0  0  0  0  0
   36.4709   19.3644   10.1942 C   0  0  0  0  0  0  0  0  0  0  0  0
   36.3036   19.9231    7.8695 O   0  0  0  0  0  0  0  0  0  0  0  0
  1  2  1  0  0  0  0
  1  3  1  0  0  0  0
  1  4  1  0  0  0  0
M  END
>  <CHROM.1>
36.45781088,18.98749906,8.80647995,-1.95484863,-1.44230864,1.23429814

>  <Name>
ligand

>  <RI>
0

>  <Rbt.Current_Directory>
/home/itssahil/PROJECTS/Mol_Feturizer/New_Systems/rnas/4FEN

>  <Rbt.Executable>
rbdock ($Id: //depot/dev/client3/rdock/2013.1/src/exe/rbdock.cxx#4 $)

>  <Rbt.Library>
libRbt.so (2013.1, Build901 2013/11/27)

>  <Rbt.Parameter_File>
/export/apps/rDock/src/rDock_2013.1_src/data/scripts/dock_solv.prm

>  <Rbt.Receptor>
prm/pocket_docking_7.prm

>  <SCORE>
-4.97707

>  <SCORE.INTER>
-4.97707

>  <SCORE.INTER.CONST>
1

>  <SCORE.INTER.POLAR>
0

>  <SCORE.INTER.ROT>
0

>  <SCORE.INTER.SOLV>
1.5857

>  <SCORE.INTER.VDW>
-7.44661

>  <SCORE.INTER.norm>
-1.24427

>  <SCORE.INTRA>
0

>  <SCORE.INTRA.DIHEDRAL>
0

>  <SCORE.INTRA.DIHEDRAL.0>
0

>  <SCORE.INTRA.POLAR>
0

>  <SCORE.INTRA.POLAR.0>
0

>  <SCORE.INTRA.REPUL>
0

>  <SCORE.INTRA.REPUL.0>
0

>  <SCORE.INTRA.SOLV>
0

>  <SCORE.INTRA.SOLV.lig_0>
0.449748

>  <SCORE.INTRA.VDW>
0

>  <SCORE.INTRA.VDW.0>
0

>  <SCORE.INTRA.norm>
0

>  <SCORE.RESTR>
0

>  <SCORE.RESTR.CAVITY>
0

>  <SCORE.RESTR.norm>
0

>  <SCORE.SYSTEM>
0

>  <SCORE.SYSTEM.CONST>
0

>  <SCORE.SYSTEM.DIHEDRAL>
0

>  <SCORE.SYSTEM.SOLV>
0

>  <SCORE.SYSTEM.norm>
0

>  <SCORE.heavy>
4

>  <SCORE.norm>
-1.24427

>  <RMSD>
2.015

$$$$
ligand
 OpenBabel11021811493D
libRbt.so/2013.1/901 2013/11/27
  4  3  0  0  0  0  0  0  0  0999 V2000
   36.4475   18.9287    8.7140 C   0  0  0  0  0  0  0  0  0  0  0  0
   36.5571   17.7215    8.4052 O   0  0  0  0  0  0  0  0  0  0  0  0
   36.5719   19.2619   10.1948 C   0  0  0  0  0  0  0  0  0  0  0  0
   36.2361   19.9506    7.9239 O   0  0  0  0  0  0  0  0  0  0  0  0
  1  2  1  0  0  0  0
  1  3  1  0  0  0  0
  1  4  1  0  0  0  0
M  END
>  <CHROM.1>
36.45158410,18.96337016,8.79328106,-2.42765104,-1.40849384,0.82206016

>  <Name>
ligand

>  <RI>
0

>  <Rbt.Current_Directory>
/home/itssahil/PROJECTS/Mol_Feturizer/New_Systems/rnas/4FEN

>  <Rbt.Executable>
rbdock ($Id: //depot/dev/client3/rdock/2013.1/src/exe/rbdock.cxx#4 $)

>  <Rbt.Library>
libRbt.so (2013.1, Build901 2013/11/27)

>  <Rbt.Parameter_File>
/export/apps/rDock/src/rDock_2013.1_src/data/scripts/dock_solv.prm

>  <Rbt.Receptor>
prm/pocket_docking_7.prm

>  <SCORE>
-4.968

>  <SCORE.INTER>
-4.968

>  <SCORE.INTER.CONST>
1

>  <SCORE.INTER.POLAR>
0

>  <SCORE.INTER.ROT>
0

>  <SCORE.INTER.SOLV>
1.59952

>  <SCORE.INTER.VDW>
-7.44518

>  <SCORE.INTER.norm>
-1.242

>  <SCORE.INTRA>
0

>  <SCORE.INTRA.DIHEDRAL>
0

>  <SCORE.INTRA.DIHEDRAL.0>
0

>  <SCORE.INTRA.POLAR>
0

>  <SCORE.INTRA.POLAR.0>
0

>  <SCORE.INTRA.REPUL>
0

>  <SCORE.INTRA.REPUL.0>
0

>  <SCORE.INTRA.SOLV>
0

>  <SCORE.INTRA.SOLV.lig_0>
0.449748

>  <SCORE.INTRA.VDW>
0

>  <SCORE.INTRA.VDW.0>
0

>  <SCORE.INTRA.norm>
0

>  <SCORE.RESTR>
0

>  <SCORE.RESTR.CAVITY>
0

>  <SCORE.RESTR.norm>
0

>  <SCORE.SYSTEM>
0

>  <SCORE.SYSTEM.CONST>
0

>  <SCORE.SYSTEM.DIHEDRAL>
0

>  <SCORE.SYSTEM.SOLV>
0

>  <SCORE.SYSTEM.norm>
0

>  <SCORE.heavy>
4

>  <SCORE.norm>
-1.242

>  <RMSD>
2.019

$$$$
ligand
 OpenBabel11021811493D
libRbt.so/2013.1/901 2013/11/27
  4  3  0  0  0  0  0  0  0  0999 V2000
   36.6178   18.6252    9.3601 C   0  0  0  0  0  0  0  0  0  0  0  0
   36.9433   17.5180    9.8426 O   0  0  0  0  0  0  0  0  0  0  0  0
   36.3669   19.7495   10.3563 C   0  0  0  0  0  0  0  0  0  0  0  0
   36.4617   18.9452    8.1006 O   0  0  0  0  0  0  0  0  0  0  0  0
  1  2  1  0  0  0  0
  1  3  1  0  0  0  0
  1  4  1  0  0  0  0
M  END
>  <CHROM.1>
36.59981186,18.69818058,9.40323137,-1.22959082,-1.30118539,1.37212031

>  <Name>
ligand

>  <RI>
0

>  <Rbt.Current_Directory>
/home/itssahil/PROJECTS/Mol_Feturizer/New_Systems/rnas/4FEN

>  <Rbt.Executable>
rbdock ($Id: //depot/dev/client3/rdock/2013.1/src/exe/rbdock.cxx#4 $)

>  <Rbt.Library>
libRbt.so (2013.1, Build901 2013/11/27)

>  <Rbt.Parameter_File>
/export/apps/rDock/src/rDock_2013.1_src/data/scripts/dock_solv.prm

>  <Rbt.Receptor>
prm/pocket_docking_4.prm

>  <SCORE>
-4.64256

>  <SCORE.INTER>
-4.64256

>  <SCORE.INTER.CONST>
1

>  <SCORE.INTER.POLAR>
0

>  <SCORE.INTER.ROT>
0

>  <SCORE.INTER.SOLV>
1.82123

>  <SCORE.INTER.VDW>
-7.30212

>  <SCORE.INTER.norm>
-1.16064

>  <SCORE.INTRA>
0

>  <SCORE.INTRA.DIHEDRAL>
0

>  <SCORE.INTRA.DIHEDRAL.0>
0

>  <SCORE.INTRA.POLAR>
0

>  <SCORE.INTRA.POLAR.0>
0

>  <SCORE.INTRA.REPUL>
0

>  <SCORE.INTRA.REPUL.0>
0

>  <SCORE.INTRA.SOLV>
0

>  <SCORE.INTRA.SOLV.lig_0>
0.449748

>  <SCORE.INTRA.VDW>
0

>  <SCORE.INTRA.VDW.0>
0

>  <SCORE.INTRA.norm>
0

>  <SCORE.RESTR>
0

>  <SCORE.RESTR.CAVITY>
0

>  <SCORE.RESTR.norm>
0

>  <SCORE.SYSTEM>
0

>  <SCORE.SYSTEM.CONST>
0

>  <SCORE.SYSTEM.DIHEDRAL>
0

>  <SCORE.SYSTEM.SOLV>
0

>  <SCORE.SYSTEM.norm>
0

>  <SCORE.heavy>
4

>  <SCORE.norm>
-1.16064

>  <RMSD>
2.020

$$$$
ligand
 OpenBabel11021811493D
libRbt.so/2013.1/901 2013/11/27
  4  3  0  0  0  0  0  0  0  0999 V2000
   36.4415   18.9409    8.7195 C   0  0  0  0  0  0  0  0  0  0  0  0
   36.5718   17.7185    8.4879 O   0  0  0  0  0  0  0  0  0  0  0  0
   36.4371   19.3546   10.1852 C   0  0  0  0  0  0  0  0  0  0  0  0
   36.3053   19.9180    7.8593 O   0  0  0  0  0  0  0  0  0  0  0  0
  1  2  1  0  0  0  0
  1  3  1  0  0  0  0
  1  4  1  0  0  0  0
M  END
>  <CHROM.1>
36.43877585,18.97978444,8.79684380,-1.87370279,-1.45473962,1.31627776

>  <Name>
ligand

>  <RI>
0

>  <Rbt.Current_Directory>
/home/itssahil/PROJECTS/Mol_Feturizer/New_Systems/rnas/4FEN

>  <Rbt.Executable>
rbdock ($Id: //depot/dev/client3/rdock/2013.1/src/exe/rbdock.cxx#4 $)

>  <Rbt.Library>
libRbt.so (2013.1, Build901 2013/11/27)

>  <Rbt.Parameter_File>
/export/apps/rDock/src/rDock_2013.1_src/data/scripts/dock_solv.prm

>  <Rbt.Receptor>
prm/pocket_docking_4.prm

>  <SCORE>
-4.97266

>  <SCORE.INTER>
-4.97266

>  <SCORE.INTER.CONST>
1

>  <SCORE.INTER.POLAR>
0

>  <SCORE.INTER.ROT>
0

>  <SCORE.INTER.SOLV>
1.57993

>  <SCORE.INTER.VDW>
-7.44175

>  <SCORE.INTER.norm>
-1.24317

>  <SCORE.INTRA>
0

>  <SCORE.INTRA.DIHEDRAL>
0

>  <SCORE.INTRA.DIHEDRAL.0>
0

>  <SCORE.INTRA.POLAR>
0

>  <SCORE.INTRA.POLAR.0>
0

>  <SCORE.INTRA.REPUL>
0

>  <SCORE.INTRA.REPUL.0>
0

>  <SCORE.INTRA.SOLV>
0

>  <SCORE.INTRA.SOLV.lig_0>
0.449748

>  <SCORE.INTRA.VDW>
0

>  <SCORE.INTRA.VDW.0>
0

>  <SCORE.INTRA.norm>
0

>  <SCORE.RESTR>
0

>  <SCORE.RESTR.CAVITY>
0

>  <SCORE.RESTR.norm>
0

>  <SCORE.SYSTEM>
0

>  <SCORE.SYSTEM.CONST>
0

>  <SCORE.SYSTEM.DIHEDRAL>
0

>  <SCORE.SYSTEM.SOLV>
0

>  <SCORE.SYSTEM.norm>
0

>  <SCORE.heavy>
4

>  <SCORE.norm>
-1.24317

>  <RMSD>
2.021

$$$$
ligand
 OpenBabel11021811493D
libRbt.so/2013.1/901 2013/11/27
  4  3  0  0  0  0  0  0  0  0999 V2000
   36.4408   18.9393    8.7186 C   0  0  0  0  0  0  0  0  0  0  0  0
   36.5855   17.7182    8.4890 O   0  0  0  0  0  0  0  0  0  0  0  0
   36.4174   19.3537   10.1839 C   0  0  0  0  0  0  0  0  0  0  0  0
   36.3039   19.9147    7.8566 O   0  0  0  0  0  0  0  0  0  0  0  0
  1  2  1  0  0  0  0
  1  3  1  0  0  0  0
  1  4  1  0  0  0  0
M  END
>  <CHROM.1>
36.43696974,18.97823806,8.79593150,-1.77295250,-1.44725170,1.41579145

>  <Name>
ligand

>  <RI>
0

>  <Rbt.Current_Directory>
/home/itssahil/PROJECTS/Mol_Feturizer/New_Systems/rnas/4FEN

>  <Rbt.Executable>
rbdock ($Id: //depot/dev/client3/rdock/2013.1/src/exe/rbdock.cxx#4 $)

>  <Rbt.Library>
libRbt.so (2013.1, Build901 2013/11/27)

>  <Rbt.Parameter_File>
/export/apps/rDock/src/rDock_2013.1_src/data/scripts/dock_solv.prm

>  <Rbt.Receptor>
prm/pocket_docking_7.prm

>  <SCORE>
-4.96827

>  <SCORE.INTER>
-4.96827

>  <SCORE.INTER.CONST>
1

>  <SCORE.INTER.POLAR>
0

>  <SCORE.INTER.ROT>
0

>  <SCORE.INTER.SOLV>
1.57442

>  <SCORE.INTER.VDW>
-7.43699

>  <SCORE.INTER.norm>
-1.24207

>  <SCORE.INTRA>
0

>  <SCORE.INTRA.DIHEDRAL>
0

>  <SCORE.INTRA.DIHEDRAL.0>
0

>  <SCORE.INTRA.POLAR>
0

>  <SCORE.INTRA.POLAR.0>
0

>  <SCORE.INTRA.REPUL>
0

>  <SCORE.INTRA.REPUL.0>
0

>  <SCORE.INTRA.SOLV>
0

>  <SCORE.INTRA.SOLV.lig_0>
0.449748

>  <SCORE.INTRA.VDW>
0

>  <SCORE.INTRA.VDW.0>
0

>  <SCORE.INTRA.norm>
0

>  <SCORE.RESTR>
0

>  <SCORE.RESTR.CAVITY>
0

>  <SCORE.RESTR.norm>
0

>  <SCORE.SYSTEM>
0

>  <SCORE.SYSTEM.CONST>
0

>  <SCORE.SYSTEM.DIHEDRAL>
0

>  <SCORE.SYSTEM.SOLV>
0

>  <SCORE.SYSTEM.norm>
0

>  <SCORE.heavy>
4

>  <SCORE.norm>
-1.24207

>  <RMSD>
2.023

$$$$
ligand
 OpenBabel11021811493D
libRbt.so/2013.1/901 2013/11/27
  4  3  0  0  0  0  0  0  0  0999 V2000
   36.5604   18.5193    9.0406 C   0  0  0  0  0  0  0  0  0  0  0  0
   36.6954   17.7887    8.0342 O   0  0  0  0  0  0  0  0  0  0  0  0
   35.7492   19.7936    8.8471 C   0  0  0  0  0  0  0  0  0  0  0  0
   37.0309   18.3304   10.2473 O   0  0  0  0  0  0  0  0  0  0  0  0
  1  2  1  0  0  0  0
  1  3  1  0  0  0  0
  1  4  1  0  0  0  0
M  END
>  <CHROM.1>
36.51791104,18.59463728,9.04560503,-0.05957938,0.98585833,-2.03507151

>  <Name>
ligand

>  <RI>
0

>  <Rbt.Current_Directory>
/home/itssahil/PROJECTS/Mol_Feturizer/New_Systems/rnas/4FEN

>  <Rbt.Executable>
rbdock ($Id: //depot/dev/client3/rdock/2013.1/src/exe/rbdock.cxx#4 $)

>  <Rbt.Library>
libRbt.so (2013.1, Build901 2013/11/27)

>  <Rbt.Parameter_File>
/export/apps/rDock/src/rDock_2013.1_src/data/scripts/dock_solv.prm

>  <Rbt.Receptor>
prm/pocket_docking_8.prm

>  <SCORE>
-4.98925

>  <SCORE.INTER>
-4.98925

>  <SCORE.INTER.CONST>
1

>  <SCORE.INTER.POLAR>
0

>  <SCORE.INTER.ROT>
0

>  <SCORE.INTER.SOLV>
1.59926

>  <SCORE.INTER.VDW>
-7.45925

>  <SCORE.INTER.norm>
-1.24731

>  <SCORE.INTRA>
0

>  <SCORE.INTRA.DIHEDRAL>
0

>  <SCORE.INTRA.DIHEDRAL.0>
0

>  <SCORE.INTRA.POLAR>
0

>  <SCORE.INTRA.POLAR.0>
0

>  <SCORE.INTRA.REPUL>
0

>  <SCORE.INTRA.REPUL.0>
0

>  <SCORE.INTRA.SOLV>
0

>  <SCORE.INTRA.SOLV.lig_0>
0.449748

>  <SCORE.INTRA.VDW>
0

>  <SCORE.INTRA.VDW.0>
0

>  <SCORE.INTRA.norm>
0

>  <SCORE.RESTR>
0

>  <SCORE.RESTR.CAVITY>
0

>  <SCORE.RESTR.norm>
0

>  <SCORE.SYSTEM>
0

>  <SCORE.SYSTEM.CONST>
0

>  <SCORE.SYSTEM.DIHEDRAL>
0

>  <SCORE.SYSTEM.SOLV>
0

>  <SCORE.SYSTEM.norm>
0

>  <SCORE.heavy>
4

>  <SCORE.norm>
-1.24731

>  <RMSD>
2.033

$$$$
ligand
 OpenBabel11021811493D
libRbt.so/2013.1/901 2013/11/27
  4  3  0  0  0  0  0  0  0  0999 V2000
   36.6263   18.5981    9.3543 C   0  0  0  0  0  0  0  0  0  0  0  0
   36.9382   17.4873    9.8375 O   0  0  0  0  0  0  0  0  0  0  0  0
   36.4013   19.7291   10.3490 C   0  0  0  0  0  0  0  0  0  0  0  0
   36.4650   18.9168    8.0950 O   0  0  0  0  0  0  0  0  0  0  0  0
  1  2  1  0  0  0  0
  1  3  1  0  0  0  0
  1  4  1  0  0  0  0
M  END
>  <CHROM.1>
36.60982411,18.67142392,9.39728623,-1.27357505,-1.31481798,1.32663982

>  <Name>
ligand

>  <RI>
0

>  <Rbt.Current_Directory>
/home/itssahil/PROJECTS/Mol_Feturizer/New_Systems/rnas/4FEN

>  <Rbt.Executable>
rbdock ($Id: //depot/dev/client3/rdock/2013.1/src/exe/rbdock.cxx#4 $)

>  <Rbt.Library>
libRbt.so (2013.1, Build901 2013/11/27)

>  <Rbt.Parameter_File>
/export/apps/rDock/src/rDock_2013.1_src/data/scripts/dock_solv.prm

>  <Rbt.Receptor>
prm/pocket_docking_4.prm

>  <SCORE>
-4.67602

>  <SCORE.INTER>
-4.67602

>  <SCORE.INTER.CONST>
1

>  <SCORE.INTER.POLAR>
0

>  <SCORE.INTER.ROT>
0

>  <SCORE.INTER.SOLV>
1.82785

>  <SCORE.INTER.VDW>
-7.32663

>  <SCORE.INTER.norm>
-1.16901

>  <SCORE.INTRA>
0

>  <SCORE.INTRA.DIHEDRAL>
0

>  <SCORE.INTRA.DIHEDRAL.0>
0

>  <SCORE.INTRA.POLAR>
0

>  <SCORE.INTRA.POLAR.0>
0

>  <SCORE.INTRA.REPUL>
0

>  <SCORE.INTRA.REPUL.0>
0

>  <SCORE.INTRA.SOLV>
0

>  <SCORE.INTRA.SOLV.lig_0>
0.449748

>  <SCORE.INTRA.VDW>
0

>  <SCORE.INTRA.VDW.0>
0

>  <SCORE.INTRA.norm>
0

>  <SCORE.RESTR>
0

>  <SCORE.RESTR.CAVITY>
0

>  <SCORE.RESTR.norm>
0

>  <SCORE.SYSTEM>
0

>  <SCORE.SYSTEM.CONST>
0

>  <SCORE.SYSTEM.DIHEDRAL>
0

>  <SCORE.SYSTEM.SOLV>
0

>  <SCORE.SYSTEM.norm>
0

>  <SCORE.heavy>
4

>  <SCORE.norm>
-1.16901

>  <RMSD>
2.039

$$$$
ligand
 OpenBabel11021811493D
libRbt.so/2013.1/901 2013/11/27
  4  3  0  0  0  0  0  0  0  0999 V2000
   36.4524   19.0405    8.6320 C   0  0  0  0  0  0  0  0  0  0  0  0
   36.2726   20.2784    8.6280 O   0  0  0  0  0  0  0  0  0  0  0  0
   36.6083   18.3843    9.9975 C   0  0  0  0  0  0  0  0  0  0  0  0
   36.5264   18.2297    7.6072 O   0  0  0  0  0  0  0  0  0  0  0  0
  1  2  1  0  0  0  0
  1  3  1  0  0  0  0
  1  4  1  0  0  0  0
M  END
>  <CHROM.1>
36.46343961,18.98911038,8.70092921,1.99203052,1.41990771,-1.86204359

>  <Name>
ligand

>  <RI>
0

>  <Rbt.Current_Directory>
/home/itssahil/PROJECTS/Mol_Feturizer/New_Systems/rnas/4FEN

>  <Rbt.Executable>
rbdock ($Id: //depot/dev/client3/rdock/2013.1/src/exe/rbdock.cxx#4 $)

>  <Rbt.Library>
libRbt.so (2013.1, Build901 2013/11/27)

>  <Rbt.Parameter_File>
/export/apps/rDock/src/rDock_2013.1_src/data/scripts/dock_solv.prm

>  <Rbt.Receptor>
prm/pocket_docking_6.prm

>  <SCORE>
-0.702942

>  <SCORE.INTER>
-0.702942

>  <SCORE.INTER.CONST>
1

>  <SCORE.INTER.POLAR>
0

>  <SCORE.INTER.ROT>
0

>  <SCORE.INTER.SOLV>
1.63997

>  <SCORE.INTER.VDW>
-4.61529

>  <SCORE.INTER.norm>
-0.175735

>  <SCORE.INTRA>
0

>  <SCORE.INTRA.DIHEDRAL>
0

>  <SCORE.INTRA.DIHEDRAL.0>
0

>  <SCORE.INTRA.POLAR>
0

>  <SCORE.INTRA.POLAR.0>
0

>  <SCORE.INTRA.REPUL>
0

>  <SCORE.INTRA.REPUL.0>
0

>  <SCORE.INTRA.SOLV>
0

>  <SCORE.INTRA.SOLV.lig_0>
0.449748

>  <SCORE.INTRA.VDW>
0

>  <SCORE.INTRA.VDW.0>
0

>  <SCORE.INTRA.norm>
0

>  <SCORE.RESTR>
0

>  <SCORE.RESTR.CAVITY>
0

>  <SCORE.RESTR.norm>
0

>  <SCORE.SYSTEM>
0

>  <SCORE.SYSTEM.CONST>
0

>  <SCORE.SYSTEM.DIHEDRAL>
0

>  <SCORE.SYSTEM.SOLV>
0

>  <SCORE.SYSTEM.norm>
0

>  <SCORE.heavy>
4

>  <SCORE.norm>
-0.175735

>  <RMSD>
2.039

$$$$
ligand
 OpenBabel11021811493D
libRbt.so/2013.1/901 2013/11/27
  4  3  0  0  0  0  0  0  0  0999 V2000
   36.4517   19.0192    8.6551 C   0  0  0  0  0  0  0  0  0  0  0  0
   36.3558   19.9806    7.8605 O   0  0  0  0  0  0  0  0  0  0  0  0
   36.4177   19.3621   10.1385 C   0  0  0  0  0  0  0  0  0  0  0  0
   36.5804   17.7471    8.3751 O   0  0  0  0  0  0  0  0  0  0  0  0
  1  2  1  0  0  0  0
  1  3  1  0  0  0  0
  1  4  1  0  0  0  0
M  END
>  <CHROM.1>
36.45190692,19.02232739,8.74163175,1.01758459,1.47054242,-1.56948060

>  <Name>
ligand

>  <RI>
0

>  <Rbt.Current_Directory>
/home/itssahil/PROJECTS/Mol_Feturizer/New_Systems/rnas/4FEN

>  <Rbt.Executable>
rbdock ($Id: //depot/dev/client3/rdock/2013.1/src/exe/rbdock.cxx#4 $)

>  <Rbt.Library>
libRbt.so (2013.1, Build901 2013/11/27)

>  <Rbt.Parameter_File>
/export/apps/rDock/src/rDock_2013.1_src/data/scripts/dock_solv.prm

>  <Rbt.Receptor>
prm/pocket_docking_7.prm

>  <SCORE>
-4.98629

>  <SCORE.INTER>
-4.98629

>  <SCORE.INTER.CONST>
1

>  <SCORE.INTER.POLAR>
0

>  <SCORE.INTER.ROT>
0

>  <SCORE.INTER.SOLV>
1.57902

>  <SCORE.INTER.VDW>
-7.45053

>  <SCORE.INTER.norm>
-1.24657

>  <SCORE.INTRA>
0

>  <SCORE.INTRA.DIHEDRAL>
0

>  <SCORE.INTRA.DIHEDRAL.0>
0

>  <SCORE.INTRA.POLAR>
0

>  <SCORE.INTRA.POLAR.0>
0

>  <SCORE.INTRA.REPUL>
0

>  <SCORE.INTRA.REPUL.0>
0

>  <SCORE.INTRA.SOLV>
0

>  <SCORE.INTRA.SOLV.lig_0>
0.449748

>  <SCORE.INTRA.VDW>
0

>  <SCORE.INTRA.VDW.0>
0

>  <SCORE.INTRA.norm>
0

>  <SCORE.RESTR>
0

>  <SCORE.RESTR.CAVITY>
0

>  <SCORE.RESTR.norm>
0

>  <SCORE.SYSTEM>
0

>  <SCORE.SYSTEM.CONST>
0

>  <SCORE.SYSTEM.DIHEDRAL>
0

>  <SCORE.SYSTEM.SOLV>
0

>  <SCORE.SYSTEM.norm>
0

>  <SCORE.heavy>
4

>  <SCORE.norm>
-1.24657

>  <RMSD>
2.040

$$$$
ligand
 OpenBabel11021811493D
libRbt.so/2013.1/901 2013/11/27
  4  3  0  0  0  0  0  0  0  0999 V2000
   36.4591   19.0170    8.6579 C   0  0  0  0  0  0  0  0  0  0  0  0
   36.3513   19.9774    7.8638 O   0  0  0  0  0  0  0  0  0  0  0  0
   36.4126   19.3577   10.1416 C   0  0  0  0  0  0  0  0  0  0  0  0
   36.6097   17.7474    8.3774 O   0  0  0  0  0  0  0  0  0  0  0  0
  1  2  1  0  0  0  0
  1  3  1  0  0  0  0
  1  4  1  0  0  0  0
M  END
>  <CHROM.1>
36.45884828,19.01997473,8.74452334,0.97776123,1.45419381,-1.52895001

>  <Name>
ligand

>  <RI>
0

>  <Rbt.Current_Directory>
/home/itssahil/PROJECTS/Mol_Feturizer/New_Systems/rnas/4FEN

>  <Rbt.Executable>
rbdock ($Id: //depot/dev/client3/rdock/2013.1/src/exe/rbdock.cxx#4 $)

>  <Rbt.Library>
libRbt.so (2013.1, Build901 2013/11/27)

>  <Rbt.Parameter_File>
/export/apps/rDock/src/rDock_2013.1_src/data/scripts/dock_solv.prm

>  <Rbt.Receptor>
prm/pocket_docking_7.prm

>  <SCORE>
-4.98526

>  <SCORE.INTER>
-4.98526

>  <SCORE.INTER.CONST>
1

>  <SCORE.INTER.POLAR>
0

>  <SCORE.INTER.ROT>
0

>  <SCORE.INTER.SOLV>
1.57651

>  <SCORE.INTER.VDW>
-7.44901

>  <SCORE.INTER.norm>
-1.24631

>  <SCORE.INTRA>
0

>  <SCORE.INTRA.DIHEDRAL>
0

>  <SCORE.INTRA.DIHEDRAL.0>
0

>  <SCORE.INTRA.POLAR>
0

>  <SCORE.INTRA.POLAR.0>
0

>  <SCORE.INTRA.REPUL>
0

>  <SCORE.INTRA.REPUL.0>
0

>  <SCORE.INTRA.SOLV>
0

>  <SCORE.INTRA.SOLV.lig_0>
0.449748

>  <SCORE.INTRA.VDW>
0

>  <SCORE.INTRA.VDW.0>
0

>  <SCORE.INTRA.norm>
0

>  <SCORE.RESTR>
0

>  <SCORE.RESTR.CAVITY>
0

>  <SCORE.RESTR.norm>
0

>  <SCORE.SYSTEM>
0

>  <SCORE.SYSTEM.CONST>
0

>  <SCORE.SYSTEM.DIHEDRAL>
0

>  <SCORE.SYSTEM.SOLV>
0

>  <SCORE.SYSTEM.norm>
0

>  <SCORE.heavy>
4

>  <SCORE.norm>
-1.24631

>  <RMSD>
2.040

$$$$
ligand
 OpenBabel11021811493D
libRbt.so/2013.1/901 2013/11/27
  4  3  0  0  0  0  0  0  0  0999 V2000
   36.4548   19.0372    8.6345 C   0  0  0  0  0  0  0  0  0  0  0  0
   36.2871   20.2768    8.6347 O   0  0  0  0  0  0  0  0  0  0  0  0
   36.6478   18.3808    9.9951 C   0  0  0  0  0  0  0  0  0  0  0  0
   36.4881   18.2248    7.6088 O   0  0  0  0  0  0  0  0  0  0  0  0
  1  2  1  0  0  0  0
  1  3  1  0  0  0  0
  1  4  1  0  0  0  0
M  END
>  <CHROM.1>
36.46754398,18.98581632,8.70308033,2.20516868,1.41515469,-2.07365764

>  <Name>
ligand

>  <RI>
0

>  <Rbt.Current_Directory>
/home/itssahil/PROJECTS/Mol_Feturizer/New_Systems/rnas/4FEN

>  <Rbt.Executable>
rbdock ($Id: //depot/dev/client3/rdock/2013.1/src/exe/rbdock.cxx#4 $)

>  <Rbt.Library>
libRbt.so (2013.1, Build901 2013/11/27)

>  <Rbt.Parameter_File>
/export/apps/rDock/src/rDock_2013.1_src/data/scripts/dock_solv.prm

>  <Rbt.Receptor>
prm/pocket_docking_8.prm

>  <SCORE>
-0.212205

>  <SCORE.INTER>
-0.322425

>  <SCORE.INTER.CONST>
1

>  <SCORE.INTER.POLAR>
0

>  <SCORE.INTER.ROT>
0

>  <SCORE.INTER.SOLV>
1.65539

>  <SCORE.INTER.VDW>
-4.36675

>  <SCORE.INTER.norm>
-0.0806063

>  <SCORE.INTRA>
0

>  <SCORE.INTRA.DIHEDRAL>
0

>  <SCORE.INTRA.DIHEDRAL.0>
0

>  <SCORE.INTRA.POLAR>
0

>  <SCORE.INTRA.POLAR.0>
0

>  <SCORE.INTRA.REPUL>
0

>  <SCORE.INTRA.REPUL.0>
0

>  <SCORE.INTRA.SOLV>
0

>  <SCORE.INTRA.SOLV.lig_0>
0.449748

>  <SCORE.INTRA.VDW>
0

>  <SCORE.INTRA.VDW.0>
0

>  <SCORE.INTRA.norm>
0

>  <SCORE.RESTR>
0.11022

>  <SCORE.RESTR.CAVITY>
0.11022

>  <SCORE.RESTR.norm>
0.027555

>  <SCORE.SYSTEM>
0

>  <SCORE.SYSTEM.CONST>
0

>  <SCORE.SYSTEM.DIHEDRAL>
0

>  <SCORE.SYSTEM.SOLV>
0

>  <SCORE.SYSTEM.norm>
0

>  <SCORE.heavy>
4

>  <SCORE.norm>
-0.0530513

>  <RMSD>
2.040

$$$$
ligand
 OpenBabel11021811493D
libRbt.so/2013.1/901 2013/11/27
  4  3  0  0  0  0  0  0  0  0999 V2000
   36.6064   18.6092    9.3279 C   0  0  0  0  0  0  0  0  0  0  0  0
   36.9328   17.5065    9.8202 O   0  0  0  0  0  0  0  0  0  0  0  0
   36.3115   19.7300   10.3159 C   0  0  0  0  0  0  0  0  0  0  0  0
   36.4827   18.9269    8.0642 O   0  0  0  0  0  0  0  0  0  0  0  0
  1  2  1  0  0  0  0
  1  3  1  0  0  0  0
  1  4  1  0  0  0  0
M  END
>  <CHROM.1>
36.58621036,18.68187067,9.37047656,-1.11617124,-1.29194448,1.48105337

>  <Name>
ligand

>  <RI>
0

>  <Rbt.Current_Directory>
/home/itssahil/PROJECTS/Mol_Feturizer/New_Systems/rnas/4FEN

>  <Rbt.Executable>
rbdock ($Id: //depot/dev/client3/rdock/2013.1/src/exe/rbdock.cxx#4 $)

>  <Rbt.Library>
libRbt.so (2013.1, Build901 2013/11/27)

>  <Rbt.Parameter_File>
/export/apps/rDock/src/rDock_2013.1_src/data/scripts/dock_solv.prm

>  <Rbt.Receptor>
prm/pocket_docking_4.prm

>  <SCORE>
-4.64316

>  <SCORE.INTER>
-4.64316

>  <SCORE.INTER.CONST>
1

>  <SCORE.INTER.POLAR>
0

>  <SCORE.INTER.ROT>
0

>  <SCORE.INTER.SOLV>
1.79863

>  <SCORE.INTER.VDW>
-7.29498

>  <SCORE.INTER.norm>
-1.16079

>  <SCORE.INTRA>
0

>  <SCORE.INTRA.DIHEDRAL>
0

>  <SCORE.INTRA.DIHEDRAL.0>
0

>  <SCORE.INTRA.POLAR>
0

>  <SCORE.INTRA.POLAR.0>
0

>  <SCORE.INTRA.REPUL>
0

>  <SCORE.INTRA.REPUL.0>
0

>  <SCORE.INTRA.SOLV>
0

>  <SCORE.INTRA.SOLV.lig_0>
0.449748

>  <SCORE.INTRA.VDW>
0

>  <SCORE.INTRA.VDW.0>
0

>  <SCORE.INTRA.norm>
0

>  <SCORE.RESTR>
0

>  <SCORE.RESTR.CAVITY>
0

>  <SCORE.RESTR.norm>
0

>  <SCORE.SYSTEM>
0

>  <SCORE.SYSTEM.CONST>
0

>  <SCORE.SYSTEM.DIHEDRAL>
0

>  <SCORE.SYSTEM.SOLV>
0

>  <SCORE.SYSTEM.norm>
0

>  <SCORE.heavy>
4

>  <SCORE.norm>
-1.16079

>  <RMSD>
2.041

$$$$
ligand
 OpenBabel11021811493D
libRbt.so/2013.1/901 2013/11/27
  4  3  0  0  0  0  0  0  0  0999 V2000
   36.5932   18.6221    9.3072 C   0  0  0  0  0  0  0  0  0  0  0  0
   36.4533   18.9230    8.1011 O   0  0  0  0  0  0  0  0  0  0  0  0
   36.3424   19.7356   10.3154 C   0  0  0  0  0  0  0  0  0  0  0  0
   36.9316   17.4660    9.8193 O   0  0  0  0  0  0  0  0  0  0  0  0
  1  2  1  0  0  0  0
  1  3  1  0  0  0  0
  1  4  1  0  0  0  0
M  END
>  <CHROM.1>
36.58311941,18.67389996,9.37585143,0.57427905,1.30265101,-1.75055167

>  <Name>
ligand

>  <RI>
0

>  <Rbt.Current_Directory>
/home/itssahil/PROJECTS/Mol_Feturizer/New_Systems/rnas/4FEN

>  <Rbt.Executable>
rbdock ($Id: //depot/dev/client3/rdock/2013.1/src/exe/rbdock.cxx#4 $)

>  <Rbt.Library>
libRbt.so (2013.1, Build901 2013/11/27)

>  <Rbt.Parameter_File>
/export/apps/rDock/src/rDock_2013.1_src/data/scripts/dock_solv.prm

>  <Rbt.Receptor>
prm/pocket_docking_4.prm

>  <SCORE>
-4.62868

>  <SCORE.INTER>
-4.62868

>  <SCORE.INTER.CONST>
1

>  <SCORE.INTER.POLAR>
0

>  <SCORE.INTER.ROT>
0

>  <SCORE.INTER.SOLV>
1.79582

>  <SCORE.INTER.VDW>
-7.28439

>  <SCORE.INTER.norm>
-1.15717

>  <SCORE.INTRA>
0

>  <SCORE.INTRA.DIHEDRAL>
0

>  <SCORE.INTRA.DIHEDRAL.0>
0

>  <SCORE.INTRA.POLAR>
0

>  <SCORE.INTRA.POLAR.0>
0

>  <SCORE.INTRA.REPUL>
0

>  <SCORE.INTRA.REPUL.0>
0

>  <SCORE.INTRA.SOLV>
0

>  <SCORE.INTRA.SOLV.lig_0>
0.449748

>  <SCORE.INTRA.VDW>
0

>  <SCORE.INTRA.VDW.0>
0

>  <SCORE.INTRA.norm>
0

>  <SCORE.RESTR>
0

>  <SCORE.RESTR.CAVITY>
0

>  <SCORE.RESTR.norm>
0

>  <SCORE.SYSTEM>
0

>  <SCORE.SYSTEM.CONST>
0

>  <SCORE.SYSTEM.DIHEDRAL>
0

>  <SCORE.SYSTEM.SOLV>
0

>  <SCORE.SYSTEM.norm>
0

>  <SCORE.heavy>
4

>  <SCORE.norm>
-1.15717

>  <RMSD>
2.043

$$$$
ligand
 OpenBabel11021811493D
libRbt.so/2013.1/901 2013/11/27
  4  3  0  0  0  0  0  0  0  0999 V2000
   36.4425   19.0205    8.6494 C   0  0  0  0  0  0  0  0  0  0  0  0
   36.2506   19.9832    7.8742 O   0  0  0  0  0  0  0  0  0  0  0  0
   36.5028   19.3503   10.1350 C   0  0  0  0  0  0  0  0  0  0  0  0
   36.6013   17.7568    8.3474 O   0  0  0  0  0  0  0  0  0  0  0  0
  1  2  1  0  0  0  0
  1  3  1  0  0  0  0
  1  4  1  0  0  0  0
M  END
>  <CHROM.1>
36.44890390,19.02291465,8.73578209,1.49862983,1.41277905,-2.03771708

>  <Name>
ligand

>  <RI>
0

>  <Rbt.Current_Directory>
/home/itssahil/PROJECTS/Mol_Feturizer/New_Systems/rnas/4FEN

>  <Rbt.Executable>
rbdock ($Id: //depot/dev/client3/rdock/2013.1/src/exe/rbdock.cxx#4 $)

>  <Rbt.Library>
libRbt.so (2013.1, Build901 2013/11/27)

>  <Rbt.Parameter_File>
/export/apps/rDock/src/rDock_2013.1_src/data/scripts/dock_solv.prm

>  <Rbt.Receptor>
prm/pocket_docking_7.prm

>  <SCORE>
-4.98946

>  <SCORE.INTER>
-4.98946

>  <SCORE.INTER.CONST>
1

>  <SCORE.INTER.POLAR>
0

>  <SCORE.INTER.ROT>
0

>  <SCORE.INTER.SOLV>
1.6208

>  <SCORE.INTER.VDW>
-7.46658

>  <SCORE.INTER.norm>
-1.24737

>  <SCORE.INTRA>
0

>  <SCORE.INTRA.DIHEDRAL>
0

>  <SCORE.INTRA.DIHEDRAL.0>
0

>  <SCORE.INTRA.POLAR>
0

>  <SCORE.INTRA.POLAR.0>
0

>  <SCORE.INTRA.REPUL>
0

>  <SCORE.INTRA.REPUL.0>
0

>  <SCORE.INTRA.SOLV>
0

>  <SCORE.INTRA.SOLV.lig_0>
0.449748

>  <SCORE.INTRA.VDW>
0

>  <SCORE.INTRA.VDW.0>
0

>  <SCORE.INTRA.norm>
0

>  <SCORE.RESTR>
0

>  <SCORE.RESTR.CAVITY>
0

>  <SCORE.RESTR.norm>
0

>  <SCORE.SYSTEM>
0

>  <SCORE.SYSTEM.CONST>
0

>  <SCORE.SYSTEM.DIHEDRAL>
0

>  <SCORE.SYSTEM.SOLV>
0

>  <SCORE.SYSTEM.norm>
0

>  <SCORE.heavy>
4

>  <SCORE.norm>
-1.24737

>  <RMSD>
2.044

$$$$
ligand
 OpenBabel11021811493D
libRbt.so/2013.1/901 2013/11/27
  4  3  0  0  0  0  0  0  0  0999 V2000
   36.5948   18.4123    9.1554 C   0  0  0  0  0  0  0  0  0  0  0  0
   36.6935   17.7834    8.0787 O   0  0  0  0  0  0  0  0  0  0  0  0
   35.7338   19.6682    9.1285 C   0  0  0  0  0  0  0  0  0  0  0  0
   37.1412   18.1302   10.3109 O   0  0  0  0  0  0  0  0  0  0  0  0
  1  2  1  0  0  0  0
  1  3  1  0  0  0  0
  1  4  1  0  0  0  0
M  END
>  <CHROM.1>
36.55039410,18.48525446,9.16990726,0.00473374,0.93020114,-1.99403607

>  <Name>
ligand

>  <RI>
0

>  <Rbt.Current_Directory>
/home/itssahil/PROJECTS/Mol_Feturizer/New_Systems/rnas/4FEN

>  <Rbt.Executable>
rbdock ($Id: //depot/dev/client3/rdock/2013.1/src/exe/rbdock.cxx#4 $)

>  <Rbt.Library>
libRbt.so (2013.1, Build901 2013/11/27)

>  <Rbt.Parameter_File>
/export/apps/rDock/src/rDock_2013.1_src/data/scripts/dock_solv.prm

>  <Rbt.Receptor>
prm/pocket_docking_6.prm

>  <SCORE>
-5.06385

>  <SCORE.INTER>
-5.06385

>  <SCORE.INTER.CONST>
1

>  <SCORE.INTER.POLAR>
0

>  <SCORE.INTER.ROT>
0

>  <SCORE.INTER.SOLV>
1.56452

>  <SCORE.INTER.VDW>
-7.49741

>  <SCORE.INTER.norm>
-1.26596

>  <SCORE.INTRA>
0

>  <SCORE.INTRA.DIHEDRAL>
0

>  <SCORE.INTRA.DIHEDRAL.0>
0

>  <SCORE.INTRA.POLAR>
0

>  <SCORE.INTRA.POLAR.0>
0

>  <SCORE.INTRA.REPUL>
0

>  <SCORE.INTRA.REPUL.0>
0

>  <SCORE.INTRA.SOLV>
0

>  <SCORE.INTRA.SOLV.lig_0>
0.449748

>  <SCORE.INTRA.VDW>
0

>  <SCORE.INTRA.VDW.0>
0

>  <SCORE.INTRA.norm>
0

>  <SCORE.RESTR>
0

>  <SCORE.RESTR.CAVITY>
0

>  <SCORE.RESTR.norm>
0

>  <SCORE.SYSTEM>
0

>  <SCORE.SYSTEM.CONST>
0

>  <SCORE.SYSTEM.DIHEDRAL>
0

>  <SCORE.SYSTEM.SOLV>
0

>  <SCORE.SYSTEM.norm>
0

>  <SCORE.heavy>
4

>  <SCORE.norm>
-1.26596

>  <RMSD>
2.045

$$$$
ligand
 OpenBabel11021811493D
libRbt.so/2013.1/901 2013/11/27
  4  3  0  0  0  0  0  0  0  0999 V2000
   36.4460   19.0346    8.6412 C   0  0  0  0  0  0  0  0  0  0  0  0
   36.3202   19.9925    7.8467 O   0  0  0  0  0  0  0  0  0  0  0  0
   36.5063   19.3873   10.1215 C   0  0  0  0  0  0  0  0  0  0  0  0
   36.5353   17.7586    8.3635 O   0  0  0  0  0  0  0  0  0  0  0  0
  1  2  1  0  0  0  0
  1  3  1  0  0  0  0
  1  4  1  0  0  0  0
M  END
>  <CHROM.1>
36.45146723,19.03822146,8.72757481,1.64324354,1.46922352,-2.19900855

>  <Name>
ligand

>  <RI>
0

>  <Rbt.Current_Directory>
/home/itssahil/PROJECTS/Mol_Feturizer/New_Systems/rnas/4FEN

>  <Rbt.Executable>
rbdock ($Id: //depot/dev/client3/rdock/2013.1/src/exe/rbdock.cxx#4 $)

>  <Rbt.Library>
libRbt.so (2013.1, Build901 2013/11/27)

>  <Rbt.Parameter_File>
/export/apps/rDock/src/rDock_2013.1_src/data/scripts/dock_solv.prm

>  <Rbt.Receptor>
prm/pocket_docking_4.prm

>  <SCORE>
-4.97634

>  <SCORE.INTER>
-4.97634

>  <SCORE.INTER.CONST>
1

>  <SCORE.INTER.POLAR>
0

>  <SCORE.INTER.ROT>
0

>  <SCORE.INTER.SOLV>
1.62734

>  <SCORE.INTER.VDW>
-7.46001

>  <SCORE.INTER.norm>
-1.24408

>  <SCORE.INTRA>
0

>  <SCORE.INTRA.DIHEDRAL>
0

>  <SCORE.INTRA.DIHEDRAL.0>
0

>  <SCORE.INTRA.POLAR>
0

>  <SCORE.INTRA.POLAR.0>
0

>  <SCORE.INTRA.REPUL>
0

>  <SCORE.INTRA.REPUL.0>
0

>  <SCORE.INTRA.SOLV>
0

>  <SCORE.INTRA.SOLV.lig_0>
0.449748

>  <SCORE.INTRA.VDW>
0

>  <SCORE.INTRA.VDW.0>
0

>  <SCORE.INTRA.norm>
0

>  <SCORE.RESTR>
0

>  <SCORE.RESTR.CAVITY>
0

>  <SCORE.RESTR.norm>
0

>  <SCORE.SYSTEM>
0

>  <SCORE.SYSTEM.CONST>
0

>  <SCORE.SYSTEM.DIHEDRAL>
0

>  <SCORE.SYSTEM.SOLV>
0

>  <SCORE.SYSTEM.norm>
0

>  <SCORE.heavy>
4

>  <SCORE.norm>
-1.24408

>  <RMSD>
2.048

$$$$
ligand
 OpenBabel11021811493D
libRbt.so/2013.1/901 2013/11/27
  4  3  0  0  0  0  0  0  0  0999 V2000
   36.4401   19.0157    8.6449 C   0  0  0  0  0  0  0  0  0  0  0  0
   36.2550   19.9816    7.8719 O   0  0  0  0  0  0  0  0  0  0  0  0
   36.4776   19.3379   10.1329 C   0  0  0  0  0  0  0  0  0  0  0  0
   36.6089   17.7543    8.3386 O   0  0  0  0  0  0  0  0  0  0  0  0
  1  2  1  0  0  0  0
  1  3  1  0  0  0  0
  1  4  1  0  0  0  0
M  END
>  <CHROM.1>
36.44524939,19.01766368,8.73130958,1.40335614,1.41454338,-1.93841172

>  <Name>
ligand

>  <RI>
0

>  <Rbt.Current_Directory>
/home/itssahil/PROJECTS/Mol_Feturizer/New_Systems/rnas/4FEN

>  <Rbt.Executable>
rbdock ($Id: //depot/dev/client3/rdock/2013.1/src/exe/rbdock.cxx#4 $)

>  <Rbt.Library>
libRbt.so (2013.1, Build901 2013/11/27)

>  <Rbt.Parameter_File>
/export/apps/rDock/src/rDock_2013.1_src/data/scripts/dock_solv.prm

>  <Rbt.Receptor>
prm/pocket_docking_4.prm

>  <SCORE>
-4.99508

>  <SCORE.INTER>
-4.99508

>  <SCORE.INTER.CONST>
1

>  <SCORE.INTER.POLAR>
0

>  <SCORE.INTER.ROT>
0

>  <SCORE.INTER.SOLV>
1.61548

>  <SCORE.INTER.VDW>
-7.46855

>  <SCORE.INTER.norm>
-1.24877

>  <SCORE.INTRA>
0

>  <SCORE.INTRA.DIHEDRAL>
0

>  <SCORE.INTRA.DIHEDRAL.0>
0

>  <SCORE.INTRA.POLAR>
0

>  <SCORE.INTRA.POLAR.0>
0

>  <SCORE.INTRA.REPUL>
0

>  <SCORE.INTRA.REPUL.0>
0

>  <SCORE.INTRA.SOLV>
0

>  <SCORE.INTRA.SOLV.lig_0>
0.449748

>  <SCORE.INTRA.VDW>
0

>  <SCORE.INTRA.VDW.0>
0

>  <SCORE.INTRA.norm>
0

>  <SCORE.RESTR>
0

>  <SCORE.RESTR.CAVITY>
0

>  <SCORE.RESTR.norm>
0

>  <SCORE.SYSTEM>
0

>  <SCORE.SYSTEM.CONST>
0

>  <SCORE.SYSTEM.DIHEDRAL>
0

>  <SCORE.SYSTEM.SOLV>
0

>  <SCORE.SYSTEM.norm>
0

>  <SCORE.heavy>
4

>  <SCORE.norm>
-1.24877

>  <RMSD>
2.048

$$$$
ligand
 OpenBabel11021811493D
libRbt.so/2013.1/901 2013/11/27
  4  3  0  0  0  0  0  0  0  0999 V2000
   36.6040   18.4190    9.1420 C   0  0  0  0  0  0  0  0  0  0  0  0
   36.6947   17.8099    8.0532 O   0  0  0  0  0  0  0  0  0  0  0  0
   35.7642   19.6895    9.1381 C   0  0  0  0  0  0  0  0  0  0  0  0
   37.1427   18.1049   10.2928 O   0  0  0  0  0  0  0  0  0  0  0  0
  1  2  1  0  0  0  0
  1  3  1  0  0  0  0
  1  4  1  0  0  0  0
M  END
>  <CHROM.1>
36.56069941,18.49233996,9.15781608,0.01268098,0.94653973,-1.98065277

>  <Name>
ligand

>  <RI>
0

>  <Rbt.Current_Directory>
/home/itssahil/PROJECTS/Mol_Feturizer/New_Systems/rnas/4FEN

>  <Rbt.Executable>
rbdock ($Id: //depot/dev/client3/rdock/2013.1/src/exe/rbdock.cxx#4 $)

>  <Rbt.Library>
libRbt.so (2013.1, Build901 2013/11/27)

>  <Rbt.Parameter_File>
/export/apps/rDock/src/rDock_2013.1_src/data/scripts/dock_solv.prm

>  <Rbt.Receptor>
prm/pocket_docking_6.prm

>  <SCORE>
-5.07939

>  <SCORE.INTER>
-5.07939

>  <SCORE.INTER.CONST>
1

>  <SCORE.INTER.POLAR>
0

>  <SCORE.INTER.ROT>
0

>  <SCORE.INTER.SOLV>
1.57617

>  <SCORE.INTER.VDW>
-7.51165

>  <SCORE.INTER.norm>
-1.26985

>  <SCORE.INTRA>
0

>  <SCORE.INTRA.DIHEDRAL>
0

>  <SCORE.INTRA.DIHEDRAL.0>
0

>  <SCORE.INTRA.POLAR>
0

>  <SCORE.INTRA.POLAR.0>
0

>  <SCORE.INTRA.REPUL>
0

>  <SCORE.INTRA.REPUL.0>
0

>  <SCORE.INTRA.SOLV>
0

>  <SCORE.INTRA.SOLV.lig_0>
0.449748

>  <SCORE.INTRA.VDW>
0

>  <SCORE.INTRA.VDW.0>
0

>  <SCORE.INTRA.norm>
0

>  <SCORE.RESTR>
0

>  <SCORE.RESTR.CAVITY>
0

>  <SCORE.RESTR.norm>
0

>  <SCORE.SYSTEM>
0

>  <SCORE.SYSTEM.CONST>
0

>  <SCORE.SYSTEM.DIHEDRAL>
0

>  <SCORE.SYSTEM.SOLV>
0

>  <SCORE.SYSTEM.norm>
0

>  <SCORE.heavy>
4

>  <SCORE.norm>
-1.26985

>  <RMSD>
2.050

$$$$
ligand
 OpenBabel11021811493D
libRbt.so/2013.1/901 2013/11/27
  4  3  0  0  0  0  0  0  0  0999 V2000
   36.4513   19.0389    8.6340 C   0  0  0  0  0  0  0  0  0  0  0  0
   36.3132   20.0021    7.8478 O   0  0  0  0  0  0  0  0  0  0  0  0
   36.4712   19.3758   10.1191 C   0  0  0  0  0  0  0  0  0  0  0  0
   36.5838   17.7695    8.3439 O   0  0  0  0  0  0  0  0  0  0  0  0
  1  2  1  0  0  0  0
  1  3  1  0  0  0  0
  1  4  1  0  0  0  0
M  END
>  <CHROM.1>
36.45487780,19.04170385,8.72051064,1.35429625,1.45229245,-1.90027417

>  <Name>
ligand

>  <RI>
0

>  <Rbt.Current_Directory>
/home/itssahil/PROJECTS/Mol_Feturizer/New_Systems/rnas/4FEN

>  <Rbt.Executable>
rbdock ($Id: //depot/dev/client3/rdock/2013.1/src/exe/rbdock.cxx#4 $)

>  <Rbt.Library>
libRbt.so (2013.1, Build901 2013/11/27)

>  <Rbt.Parameter_File>
/export/apps/rDock/src/rDock_2013.1_src/data/scripts/dock_solv.prm

>  <Rbt.Receptor>
prm/pocket_docking_7.prm

>  <SCORE>
-5.00239

>  <SCORE.INTER>
-5.00239

>  <SCORE.INTER.CONST>
1

>  <SCORE.INTER.POLAR>
0

>  <SCORE.INTER.ROT>
0

>  <SCORE.INTER.SOLV>
1.61818

>  <SCORE.INTER.VDW>
-7.47432

>  <SCORE.INTER.norm>
-1.2506

>  <SCORE.INTRA>
0

>  <SCORE.INTRA.DIHEDRAL>
0

>  <SCORE.INTRA.DIHEDRAL.0>
0

>  <SCORE.INTRA.POLAR>
0

>  <SCORE.INTRA.POLAR.0>
0

>  <SCORE.INTRA.REPUL>
0

>  <SCORE.INTRA.REPUL.0>
0

>  <SCORE.INTRA.SOLV>
0

>  <SCORE.INTRA.SOLV.lig_0>
0.449748

>  <SCORE.INTRA.VDW>
0

>  <SCORE.INTRA.VDW.0>
0

>  <SCORE.INTRA.norm>
0

>  <SCORE.RESTR>
0

>  <SCORE.RESTR.CAVITY>
0

>  <SCORE.RESTR.norm>
0

>  <SCORE.SYSTEM>
0

>  <SCORE.SYSTEM.CONST>
0

>  <SCORE.SYSTEM.DIHEDRAL>
0

>  <SCORE.SYSTEM.SOLV>
0

>  <SCORE.SYSTEM.norm>
0

>  <SCORE.heavy>
4

>  <SCORE.norm>
-1.2506

>  <RMSD>
2.051

$$$$
ligand
 OpenBabel11021811493D
libRbt.so/2013.1/901 2013/11/27
  4  3  0  0  0  0  0  0  0  0999 V2000
   36.4513   19.0342    8.6356 C   0  0  0  0  0  0  0  0  0  0  0  0
   36.3178   19.9952    7.8460 O   0  0  0  0  0  0  0  0  0  0  0  0
   36.4600   19.3747   10.1199 C   0  0  0  0  0  0  0  0  0  0  0  0
   36.5874   17.7642    8.3495 O   0  0  0  0  0  0  0  0  0  0  0  0
  1  2  1  0  0  0  0
  1  3  1  0  0  0  0
  1  4  1  0  0  0  0
M  END
>  <CHROM.1>
36.45421932,19.03719596,8.72208998,1.29204806,1.45331982,-1.84091846

>  <Name>
ligand

>  <RI>
0

>  <Rbt.Current_Directory>
/home/itssahil/PROJECTS/Mol_Feturizer/New_Systems/rnas/4FEN

>  <Rbt.Executable>
rbdock ($Id: //depot/dev/client3/rdock/2013.1/src/exe/rbdock.cxx#4 $)

>  <Rbt.Library>
libRbt.so (2013.1, Build901 2013/11/27)

>  <Rbt.Parameter_File>
/export/apps/rDock/src/rDock_2013.1_src/data/scripts/dock_solv.prm

>  <Rbt.Receptor>
prm/pocket_docking_7.prm

>  <SCORE>
-5.00311

>  <SCORE.INTER>
-5.00311

>  <SCORE.INTER.CONST>
1

>  <SCORE.INTER.POLAR>
0

>  <SCORE.INTER.ROT>
0

>  <SCORE.INTER.SOLV>
1.61255

>  <SCORE.INTER.VDW>
-7.47292

>  <SCORE.INTER.norm>
-1.25078

>  <SCORE.INTRA>
0

>  <SCORE.INTRA.DIHEDRAL>
0

>  <SCORE.INTRA.DIHEDRAL.0>
0

>  <SCORE.INTRA.POLAR>
0

>  <SCORE.INTRA.POLAR.0>
0

>  <SCORE.INTRA.REPUL>
0

>  <SCORE.INTRA.REPUL.0>
0

>  <SCORE.INTRA.SOLV>
0

>  <SCORE.INTRA.SOLV.lig_0>
0.449748

>  <SCORE.INTRA.VDW>
0

>  <SCORE.INTRA.VDW.0>
0

>  <SCORE.INTRA.norm>
0

>  <SCORE.RESTR>
0

>  <SCORE.RESTR.CAVITY>
0

>  <SCORE.RESTR.norm>
0

>  <SCORE.SYSTEM>
0

>  <SCORE.SYSTEM.CONST>
0

>  <SCORE.SYSTEM.DIHEDRAL>
0

>  <SCORE.SYSTEM.SOLV>
0

>  <SCORE.SYSTEM.norm>
0

>  <SCORE.heavy>
4

>  <SCORE.norm>
-1.25078

>  <RMSD>
2.051

$$$$
ligand
 OpenBabel11021811493D
libRbt.so/2013.1/901 2013/11/27
  4  3  0  0  0  0  0  0  0  0999 V2000
   36.4752   19.0049    8.6495 C   0  0  0  0  0  0  0  0  0  0  0  0
   36.3460   19.9762    7.8718 O   0  0  0  0  0  0  0  0  0  0  0  0
   36.4854   19.3272   10.1379 C   0  0  0  0  0  0  0  0  0  0  0  0
   36.6057   17.7379    8.3479 O   0  0  0  0  0  0  0  0  0  0  0  0
  1  2  1  0  0  0  0
  1  3  1  0  0  0  0
  1  4  1  0  0  0  0
M  END
>  <CHROM.1>
36.47813601,19.00682675,8.73604919,1.30240210,1.45763067,-1.83893087

>  <Name>
ligand

>  <RI>
0

>  <Rbt.Current_Directory>
/home/itssahil/PROJECTS/Mol_Feturizer/New_Systems/rnas/4FEN

>  <Rbt.Executable>
rbdock ($Id: //depot/dev/client3/rdock/2013.1/src/exe/rbdock.cxx#4 $)

>  <Rbt.Library>
libRbt.so (2013.1, Build901 2013/11/27)

>  <Rbt.Parameter_File>
/export/apps/rDock/src/rDock_2013.1_src/data/scripts/dock_solv.prm

>  <Rbt.Receptor>
prm/pocket_docking_7.prm

>  <SCORE>
-5.00605

>  <SCORE.INTER>
-5.00605

>  <SCORE.INTER.CONST>
1

>  <SCORE.INTER.POLAR>
0

>  <SCORE.INTER.ROT>
0

>  <SCORE.INTER.SOLV>
1.60247

>  <SCORE.INTER.VDW>
-7.47152

>  <SCORE.INTER.norm>
-1.25151

>  <SCORE.INTRA>
0

>  <SCORE.INTRA.DIHEDRAL>
0

>  <SCORE.INTRA.DIHEDRAL.0>
0

>  <SCORE.INTRA.POLAR>
0

>  <SCORE.INTRA.POLAR.0>
0

>  <SCORE.INTRA.REPUL>
0

>  <SCORE.INTRA.REPUL.0>
0

>  <SCORE.INTRA.SOLV>
0

>  <SCORE.INTRA.SOLV.lig_0>
0.449748

>  <SCORE.INTRA.VDW>
0

>  <SCORE.INTRA.VDW.0>
0

>  <SCORE.INTRA.norm>
0

>  <SCORE.RESTR>
0

>  <SCORE.RESTR.CAVITY>
0

>  <SCORE.RESTR.norm>
0

>  <SCORE.SYSTEM>
0

>  <SCORE.SYSTEM.CONST>
0

>  <SCORE.SYSTEM.DIHEDRAL>
0

>  <SCORE.SYSTEM.SOLV>
0

>  <SCORE.SYSTEM.norm>
0

>  <SCORE.heavy>
4

>  <SCORE.norm>
-1.25151

>  <RMSD>
2.053

$$$$
ligand
 OpenBabel11021811493D
libRbt.so/2013.1/901 2013/11/27
  4  3  0  0  0  0  0  0  0  0999 V2000
   36.6113   18.4006    9.1391 C   0  0  0  0  0  0  0  0  0  0  0  0
   36.6849   17.8003    8.0441 O   0  0  0  0  0  0  0  0  0  0  0  0
   35.8504   19.7198    9.1371 C   0  0  0  0  0  0  0  0  0  0  0  0
   37.1088   18.0405   10.2949 O   0  0  0  0  0  0  0  0  0  0  0  0
  1  2  1  0  0  0  0
  1  3  1  0  0  0  0
  1  4  1  0  0  0  0
M  END
>  <CHROM.1>
36.57228486,18.47627028,9.15506754,0.02653188,1.00943739,-1.97952816

>  <Name>
ligand

>  <RI>
0

>  <Rbt.Current_Directory>
/home/itssahil/PROJECTS/Mol_Feturizer/New_Systems/rnas/4FEN

>  <Rbt.Executable>
rbdock ($Id: //depot/dev/client3/rdock/2013.1/src/exe/rbdock.cxx#4 $)

>  <Rbt.Library>
libRbt.so (2013.1, Build901 2013/11/27)

>  <Rbt.Parameter_File>
/export/apps/rDock/src/rDock_2013.1_src/data/scripts/dock_solv.prm

>  <Rbt.Receptor>
prm/pocket_docking_6.prm

>  <SCORE>
-5.06081

>  <SCORE.INTER>
-5.06081

>  <SCORE.INTER.CONST>
1

>  <SCORE.INTER.POLAR>
0

>  <SCORE.INTER.ROT>
0

>  <SCORE.INTER.SOLV>
1.57877

>  <SCORE.INTER.VDW>
-7.50013

>  <SCORE.INTER.norm>
-1.2652

>  <SCORE.INTRA>
0

>  <SCORE.INTRA.DIHEDRAL>
0

>  <SCORE.INTRA.DIHEDRAL.0>
0

>  <SCORE.INTRA.POLAR>
0

>  <SCORE.INTRA.POLAR.0>
0

>  <SCORE.INTRA.REPUL>
0

>  <SCORE.INTRA.REPUL.0>
0

>  <SCORE.INTRA.SOLV>
0

>  <SCORE.INTRA.SOLV.lig_0>
0.449748

>  <SCORE.INTRA.VDW>
0

>  <SCORE.INTRA.VDW.0>
0

>  <SCORE.INTRA.norm>
0

>  <SCORE.RESTR>
0

>  <SCORE.RESTR.CAVITY>
0

>  <SCORE.RESTR.norm>
0

>  <SCORE.SYSTEM>
0

>  <SCORE.SYSTEM.CONST>
0

>  <SCORE.SYSTEM.DIHEDRAL>
0

>  <SCORE.SYSTEM.SOLV>
0

>  <SCORE.SYSTEM.norm>
0

>  <SCORE.heavy>
4

>  <SCORE.norm>
-1.2652

>  <RMSD>
2.054

$$$$
ligand
 OpenBabel11021811493D
libRbt.so/2013.1/901 2013/11/27
  4  3  0  0  0  0  0  0  0  0999 V2000
   36.4341   18.9952    8.6426 C   0  0  0  0  0  0  0  0  0  0  0  0
   36.2353   19.9738    7.8892 O   0  0  0  0  0  0  0  0  0  0  0  0
   36.5532   19.3001   10.1299 C   0  0  0  0  0  0  0  0  0  0  0  0
   36.5558   17.7335    8.3160 O   0  0  0  0  0  0  0  0  0  0  0  0
  1  2  1  0  0  0  0
  1  3  1  0  0  0  0
  1  4  1  0  0  0  0
M  END
>  <CHROM.1>
36.44353648,18.99612406,8.72867435,1.75602679,1.41047017,-2.27638104

>  <Name>
ligand

>  <RI>
0

>  <Rbt.Current_Directory>
/home/itssahil/PROJECTS/Mol_Feturizer/New_Systems/rnas/4FEN

>  <Rbt.Executable>
rbdock ($Id: //depot/dev/client3/rdock/2013.1/src/exe/rbdock.cxx#4 $)

>  <Rbt.Library>
libRbt.so (2013.1, Build901 2013/11/27)

>  <Rbt.Parameter_File>
/export/apps/rDock/src/rDock_2013.1_src/data/scripts/dock_solv.prm

>  <Rbt.Receptor>
prm/pocket_docking_4.prm

>  <SCORE>
-4.99869

>  <SCORE.INTER>
-4.99869

>  <SCORE.INTER.CONST>
1

>  <SCORE.INTER.POLAR>
0

>  <SCORE.INTER.ROT>
0

>  <SCORE.INTER.SOLV>
1.64552

>  <SCORE.INTER.VDW>
-7.48097

>  <SCORE.INTER.norm>
-1.24967

>  <SCORE.INTRA>
0

>  <SCORE.INTRA.DIHEDRAL>
0

>  <SCORE.INTRA.DIHEDRAL.0>
0

>  <SCORE.INTRA.POLAR>
0

>  <SCORE.INTRA.POLAR.0>
0

>  <SCORE.INTRA.REPUL>
0

>  <SCORE.INTRA.REPUL.0>
0

>  <SCORE.INTRA.SOLV>
0

>  <SCORE.INTRA.SOLV.lig_0>
0.449748

>  <SCORE.INTRA.VDW>
0

>  <SCORE.INTRA.VDW.0>
0

>  <SCORE.INTRA.norm>
0

>  <SCORE.RESTR>
0

>  <SCORE.RESTR.CAVITY>
0

>  <SCORE.RESTR.norm>
0

>  <SCORE.SYSTEM>
0

>  <SCORE.SYSTEM.CONST>
0

>  <SCORE.SYSTEM.DIHEDRAL>
0

>  <SCORE.SYSTEM.SOLV>
0

>  <SCORE.SYSTEM.norm>
0

>  <SCORE.heavy>
4

>  <SCORE.norm>
-1.24967

>  <RMSD>
2.055

$$$$
ligand
 OpenBabel11021811493D
libRbt.so/2013.1/901 2013/11/27
  4  3  0  0  0  0  0  0  0  0999 V2000
   36.4529   18.9967    8.6444 C   0  0  0  0  0  0  0  0  0  0  0  0
   36.2675   19.9756    7.8880 O   0  0  0  0  0  0  0  0  0  0  0  0
   36.5554   19.3021   10.1329 C   0  0  0  0  0  0  0  0  0  0  0  0
   36.5732   17.7343    8.3202 O   0  0  0  0  0  0  0  0  0  0  0  0
  1  2  1  0  0  0  0
  1  3  1  0  0  0  0
  1  4  1  0  0  0  0
M  END
>  <CHROM.1>
36.46133960,18.99763169,8.73059873,1.71304781,1.42146907,-2.23461942

>  <Name>
ligand

>  <RI>
0

>  <Rbt.Current_Directory>
/home/itssahil/PROJECTS/Mol_Feturizer/New_Systems/rnas/4FEN

>  <Rbt.Executable>
rbdock ($Id: //depot/dev/client3/rdock/2013.1/src/exe/rbdock.cxx#4 $)

>  <Rbt.Library>
libRbt.so (2013.1, Build901 2013/11/27)

>  <Rbt.Parameter_File>
/export/apps/rDock/src/rDock_2013.1_src/data/scripts/dock_solv.prm

>  <Rbt.Receptor>
prm/pocket_docking_4.prm

>  <SCORE>
-5.00643

>  <SCORE.INTER>
-5.00643

>  <SCORE.INTER.CONST>
1

>  <SCORE.INTER.POLAR>
0

>  <SCORE.INTER.ROT>
0

>  <SCORE.INTER.SOLV>
1.63967

>  <SCORE.INTER.VDW>
-7.48418

>  <SCORE.INTER.norm>
-1.25161

>  <SCORE.INTRA>
0

>  <SCORE.INTRA.DIHEDRAL>
0

>  <SCORE.INTRA.DIHEDRAL.0>
0

>  <SCORE.INTRA.POLAR>
0

>  <SCORE.INTRA.POLAR.0>
0

>  <SCORE.INTRA.REPUL>
0

>  <SCORE.INTRA.REPUL.0>
0

>  <SCORE.INTRA.SOLV>
0

>  <SCORE.INTRA.SOLV.lig_0>
0.449748

>  <SCORE.INTRA.VDW>
0

>  <SCORE.INTRA.VDW.0>
0

>  <SCORE.INTRA.norm>
0

>  <SCORE.RESTR>
0

>  <SCORE.RESTR.CAVITY>
0

>  <SCORE.RESTR.norm>
0

>  <SCORE.SYSTEM>
0

>  <SCORE.SYSTEM.CONST>
0

>  <SCORE.SYSTEM.DIHEDRAL>
0

>  <SCORE.SYSTEM.SOLV>
0

>  <SCORE.SYSTEM.norm>
0

>  <SCORE.heavy>
4

>  <SCORE.norm>
-1.25161

>  <RMSD>
2.056

$$$$
ligand
 OpenBabel11021811493D
libRbt.so/2013.1/901 2013/11/27
  4  3  0  0  0  0  0  0  0  0999 V2000
   36.4586   18.9891    8.6420 C   0  0  0  0  0  0  0  0  0  0  0  0
   36.5864   17.7801    8.3475 O   0  0  0  0  0  0  0  0  0  0  0  0
   36.4828   19.3297   10.1261 C   0  0  0  0  0  0  0  0  0  0  0  0
   36.3035   20.0072    7.8342 O   0  0  0  0  0  0  0  0  0  0  0  0
  1  2  1  0  0  0  0
  1  3  1  0  0  0  0
  1  4  1  0  0  0  0
M  END
>  <CHROM.1>
36.45735251,19.02409228,8.72118590,-2.02697145,-1.44656535,1.21369560

>  <Name>
ligand

>  <RI>
0

>  <Rbt.Current_Directory>
/home/itssahil/PROJECTS/Mol_Feturizer/New_Systems/rnas/4FEN

>  <Rbt.Executable>
rbdock ($Id: //depot/dev/client3/rdock/2013.1/src/exe/rbdock.cxx#4 $)

>  <Rbt.Library>
libRbt.so (2013.1, Build901 2013/11/27)

>  <Rbt.Parameter_File>
/export/apps/rDock/src/rDock_2013.1_src/data/scripts/dock_solv.prm

>  <Rbt.Receptor>
prm/pocket_docking_7.prm

>  <SCORE>
-5.00768

>  <SCORE.INTER>
-5.00768

>  <SCORE.INTER.CONST>
1

>  <SCORE.INTER.POLAR>
0

>  <SCORE.INTER.ROT>
0

>  <SCORE.INTER.SOLV>
1.61859

>  <SCORE.INTER.VDW>
-7.47799

>  <SCORE.INTER.norm>
-1.25192

>  <SCORE.INTRA>
0

>  <SCORE.INTRA.DIHEDRAL>
0

>  <SCORE.INTRA.DIHEDRAL.0>
0

>  <SCORE.INTRA.POLAR>
0

>  <SCORE.INTRA.POLAR.0>
0

>  <SCORE.INTRA.REPUL>
0

>  <SCORE.INTRA.REPUL.0>
0

>  <SCORE.INTRA.SOLV>
0

>  <SCORE.INTRA.SOLV.lig_0>
0.449748

>  <SCORE.INTRA.VDW>
0

>  <SCORE.INTRA.VDW.0>
0

>  <SCORE.INTRA.norm>
0

>  <SCORE.RESTR>
0

>  <SCORE.RESTR.CAVITY>
0

>  <SCORE.RESTR.norm>
0

>  <SCORE.SYSTEM>
0

>  <SCORE.SYSTEM.CONST>
0

>  <SCORE.SYSTEM.DIHEDRAL>
0

>  <SCORE.SYSTEM.SOLV>
0

>  <SCORE.SYSTEM.norm>
0

>  <SCORE.heavy>
4

>  <SCORE.norm>
-1.25192

>  <RMSD>
2.056

$$$$
ligand
 OpenBabel11021811493D
libRbt.so/2013.1/901 2013/11/27
  4  3  0  0  0  0  0  0  0  0999 V2000
   36.4437   18.9931    8.6422 C   0  0  0  0  0  0  0  0  0  0  0  0
   36.2439   19.9677    7.8839 O   0  0  0  0  0  0  0  0  0  0  0  0
   36.5537   19.3045   10.1289 C   0  0  0  0  0  0  0  0  0  0  0  0
   36.5735   17.7308    8.3213 O   0  0  0  0  0  0  0  0  0  0  0  0
  1  2  1  0  0  0  0
  1  3  1  0  0  0  0
  1  4  1  0  0  0  0
M  END
>  <CHROM.1>
36.45276368,18.99441673,8.72831195,1.71123587,1.40981517,-2.23618545

>  <Name>
ligand

>  <RI>
0

>  <Rbt.Current_Directory>
/home/itssahil/PROJECTS/Mol_Feturizer/New_Systems/rnas/4FEN

>  <Rbt.Executable>
rbdock ($Id: //depot/dev/client3/rdock/2013.1/src/exe/rbdock.cxx#4 $)

>  <Rbt.Library>
libRbt.so (2013.1, Build901 2013/11/27)

>  <Rbt.Parameter_File>
/export/apps/rDock/src/rDock_2013.1_src/data/scripts/dock_solv.prm

>  <Rbt.Receptor>
prm/pocket_docking_4.prm

>  <SCORE>
-5.0059

>  <SCORE.INTER>
-5.0059

>  <SCORE.INTER.CONST>
1

>  <SCORE.INTER.POLAR>
0

>  <SCORE.INTER.ROT>
0

>  <SCORE.INTER.SOLV>
1.64356

>  <SCORE.INTER.VDW>
-7.48512

>  <SCORE.INTER.norm>
-1.25147

>  <SCORE.INTRA>
0

>  <SCORE.INTRA.DIHEDRAL>
0

>  <SCORE.INTRA.DIHEDRAL.0>
0

>  <SCORE.INTRA.POLAR>
0

>  <SCORE.INTRA.POLAR.0>
0

>  <SCORE.INTRA.REPUL>
0

>  <SCORE.INTRA.REPUL.0>
0

>  <SCORE.INTRA.SOLV>
0

>  <SCORE.INTRA.SOLV.lig_0>
0.449748

>  <SCORE.INTRA.VDW>
0

>  <SCORE.INTRA.VDW.0>
0

>  <SCORE.INTRA.norm>
0

>  <SCORE.RESTR>
0

>  <SCORE.RESTR.CAVITY>
0

>  <SCORE.RESTR.norm>
0

>  <SCORE.SYSTEM>
0

>  <SCORE.SYSTEM.CONST>
0

>  <SCORE.SYSTEM.DIHEDRAL>
0

>  <SCORE.SYSTEM.SOLV>
0

>  <SCORE.SYSTEM.norm>
0

>  <SCORE.heavy>
4

>  <SCORE.norm>
-1.25147

>  <RMSD>
2.059

$$$$
ligand
 OpenBabel11021811493D
libRbt.so/2013.1/901 2013/11/27
  4  3  0  0  0  0  0  0  0  0999 V2000
   36.4589   18.9922    8.6395 C   0  0  0  0  0  0  0  0  0  0  0  0
   36.3455   19.9800    7.8805 O   0  0  0  0  0  0  0  0  0  0  0  0
   36.5434   19.2911   10.1304 C   0  0  0  0  0  0  0  0  0  0  0  0
   36.5168   17.7251    8.3163 O   0  0  0  0  0  0  0  0  0  0  0  0
  1  2  1  0  0  0  0
  1  3  1  0  0  0  0
  1  4  1  0  0  0  0
M  END
>  <CHROM.1>
36.46539360,18.99264711,8.72588562,1.88280603,1.47800398,-2.40232841

>  <Name>
ligand

>  <RI>
0

>  <Rbt.Current_Directory>
/home/itssahil/PROJECTS/Mol_Feturizer/New_Systems/rnas/4FEN

>  <Rbt.Executable>
rbdock ($Id: //depot/dev/client3/rdock/2013.1/src/exe/rbdock.cxx#4 $)

>  <Rbt.Library>
libRbt.so (2013.1, Build901 2013/11/27)

>  <Rbt.Parameter_File>
/export/apps/rDock/src/rDock_2013.1_src/data/scripts/dock_solv.prm

>  <Rbt.Receptor>
prm/pocket_docking_5.prm

>  <SCORE>
-5.00119

>  <SCORE.INTER>
-5.00119

>  <SCORE.INTER.CONST>
1

>  <SCORE.INTER.POLAR>
0

>  <SCORE.INTER.ROT>
0

>  <SCORE.INTER.SOLV>
1.63586

>  <SCORE.INTER.VDW>
-7.47942

>  <SCORE.INTER.norm>
-1.2503

>  <SCORE.INTRA>
0

>  <SCORE.INTRA.DIHEDRAL>
0

>  <SCORE.INTRA.DIHEDRAL.0>
0

>  <SCORE.INTRA.POLAR>
0

>  <SCORE.INTRA.POLAR.0>
0

>  <SCORE.INTRA.REPUL>
0

>  <SCORE.INTRA.REPUL.0>
0

>  <SCORE.INTRA.SOLV>
0

>  <SCORE.INTRA.SOLV.lig_0>
0.449748

>  <SCORE.INTRA.VDW>
0

>  <SCORE.INTRA.VDW.0>
0

>  <SCORE.INTRA.norm>
0

>  <SCORE.RESTR>
0

>  <SCORE.RESTR.CAVITY>
0

>  <SCORE.RESTR.norm>
0

>  <SCORE.SYSTEM>
0

>  <SCORE.SYSTEM.CONST>
0

>  <SCORE.SYSTEM.DIHEDRAL>
0

>  <SCORE.SYSTEM.SOLV>
0

>  <SCORE.SYSTEM.norm>
0

>  <SCORE.heavy>
4

>  <SCORE.norm>
-1.2503

>  <RMSD>
2.059

$$$$
ligand
 OpenBabel11021811493D
libRbt.so/2013.1/901 2013/11/27
  4  3  0  0  0  0  0  0  0  0999 V2000
   36.5959   18.4136    9.1609 C   0  0  0  0  0  0  0  0  0  0  0  0
   37.1155   18.1253   10.2616 O   0  0  0  0  0  0  0  0  0  0  0  0
   35.7322   19.6675    9.1286 C   0  0  0  0  0  0  0  0  0  0  0  0
   36.6973   17.7716    8.0247 O   0  0  0  0  0  0  0  0  0  0  0  0
  1  2  1  0  0  0  0
  1  3  1  0  0  0  0
  1  4  1  0  0  0  0
M  END
>  <CHROM.1>
36.54423596,18.48081602,9.14305060,-0.63634721,-0.93271548,1.16233709

>  <Name>
ligand

>  <RI>
0

>  <Rbt.Current_Directory>
/home/itssahil/PROJECTS/Mol_Feturizer/New_Systems/rnas/4FEN

>  <Rbt.Executable>
rbdock ($Id: //depot/dev/client3/rdock/2013.1/src/exe/rbdock.cxx#4 $)

>  <Rbt.Library>
libRbt.so (2013.1, Build901 2013/11/27)

>  <Rbt.Parameter_File>
/export/apps/rDock/src/rDock_2013.1_src/data/scripts/dock_solv.prm

>  <Rbt.Receptor>
prm/pocket_docking_6.prm

>  <SCORE>
-5.06371

>  <SCORE.INTER>
-5.06371

>  <SCORE.INTER.CONST>
1

>  <SCORE.INTER.POLAR>
0

>  <SCORE.INTER.ROT>
0

>  <SCORE.INTER.SOLV>
1.57639

>  <SCORE.INTER.VDW>
-7.50127

>  <SCORE.INTER.norm>
-1.26593

>  <SCORE.INTRA>
0

>  <SCORE.INTRA.DIHEDRAL>
0

>  <SCORE.INTRA.DIHEDRAL.0>
0

>  <SCORE.INTRA.POLAR>
0

>  <SCORE.INTRA.POLAR.0>
0

>  <SCORE.INTRA.REPUL>
0

>  <SCORE.INTRA.REPUL.0>
0

>  <SCORE.INTRA.SOLV>
0

>  <SCORE.INTRA.SOLV.lig_0>
0.449748

>  <SCORE.INTRA.VDW>
0

>  <SCORE.INTRA.VDW.0>
0

>  <SCORE.INTRA.norm>
0

>  <SCORE.RESTR>
0

>  <SCORE.RESTR.CAVITY>
0

>  <SCORE.RESTR.norm>
0

>  <SCORE.SYSTEM>
0

>  <SCORE.SYSTEM.CONST>
0

>  <SCORE.SYSTEM.DIHEDRAL>
0

>  <SCORE.SYSTEM.SOLV>
0

>  <SCORE.SYSTEM.norm>
0

>  <SCORE.heavy>
4

>  <SCORE.norm>
-1.26593

>  <RMSD>
2.061

$$$$
ligand
 OpenBabel11021811493D
libRbt.so/2013.1/901 2013/11/27
  4  3  0  0  0  0  0  0  0  0999 V2000
   36.5886   18.4141    9.1559 C   0  0  0  0  0  0  0  0  0  0  0  0
   37.0938   18.1080   10.2586 O   0  0  0  0  0  0  0  0  0  0  0  0
   35.7270   19.6697    9.1322 C   0  0  0  0  0  0  0  0  0  0  0  0
   36.7035   17.7897    8.0113 O   0  0  0  0  0  0  0  0  0  0  0  0
  1  2  1  0  0  0  0
  1  3  1  0  0  0  0
  1  4  1  0  0  0  0
M  END
>  <CHROM.1>
36.53725463,18.48166607,9.13852179,-0.61753245,-0.93889132,1.19302493

>  <Name>
ligand

>  <RI>
0

>  <Rbt.Current_Directory>
/home/itssahil/PROJECTS/Mol_Feturizer/New_Systems/rnas/4FEN

>  <Rbt.Executable>
rbdock ($Id: //depot/dev/client3/rdock/2013.1/src/exe/rbdock.cxx#4 $)

>  <Rbt.Library>
libRbt.so (2013.1, Build901 2013/11/27)

>  <Rbt.Parameter_File>
/export/apps/rDock/src/rDock_2013.1_src/data/scripts/dock_solv.prm

>  <Rbt.Receptor>
prm/pocket_docking_6.prm

>  <SCORE>
-5.05841

>  <SCORE.INTER>
-5.05841

>  <SCORE.INTER.CONST>
1

>  <SCORE.INTER.POLAR>
0

>  <SCORE.INTER.ROT>
0

>  <SCORE.INTER.SOLV>
1.57736

>  <SCORE.INTER.VDW>
-7.49806

>  <SCORE.INTER.norm>
-1.2646

>  <SCORE.INTRA>
0

>  <SCORE.INTRA.DIHEDRAL>
0

>  <SCORE.INTRA.DIHEDRAL.0>
0

>  <SCORE.INTRA.POLAR>
0

>  <SCORE.INTRA.POLAR.0>
0

>  <SCORE.INTRA.REPUL>
0

>  <SCORE.INTRA.REPUL.0>
0

>  <SCORE.INTRA.SOLV>
0

>  <SCORE.INTRA.SOLV.lig_0>
0.449748

>  <SCORE.INTRA.VDW>
0

>  <SCORE.INTRA.VDW.0>
0

>  <SCORE.INTRA.norm>
0

>  <SCORE.RESTR>
0

>  <SCORE.RESTR.CAVITY>
0

>  <SCORE.RESTR.norm>
0

>  <SCORE.SYSTEM>
0

>  <SCORE.SYSTEM.CONST>
0

>  <SCORE.SYSTEM.DIHEDRAL>
0

>  <SCORE.SYSTEM.SOLV>
0

>  <SCORE.SYSTEM.norm>
0

>  <SCORE.heavy>
4

>  <SCORE.norm>
-1.2646

>  <RMSD>
2.062

$$$$
ligand
 OpenBabel11021811493D
libRbt.so/2013.1/901 2013/11/27
  4  3  0  0  0  0  0  0  0  0999 V2000
   36.6168   18.4027    9.1359 C   0  0  0  0  0  0  0  0  0  0  0  0
   36.7045   17.7947    8.0462 O   0  0  0  0  0  0  0  0  0  0  0  0
   35.8096   19.6941    9.1267 C   0  0  0  0  0  0  0  0  0  0  0  0
   37.1343   18.0716   10.2917 O   0  0  0  0  0  0  0  0  0  0  0  0
  1  2  1  0  0  0  0
  1  3  1  0  0  0  0
  1  4  1  0  0  0  0
M  END
>  <CHROM.1>
36.57524462,18.47706237,9.15144616,0.01205207,0.97425706,-1.97700377

>  <Name>
ligand

>  <RI>
0

>  <Rbt.Current_Directory>
/home/itssahil/PROJECTS/Mol_Feturizer/New_Systems/rnas/4FEN

>  <Rbt.Executable>
rbdock ($Id: //depot/dev/client3/rdock/2013.1/src/exe/rbdock.cxx#4 $)

>  <Rbt.Library>
libRbt.so (2013.1, Build901 2013/11/27)

>  <Rbt.Parameter_File>
/export/apps/rDock/src/rDock_2013.1_src/data/scripts/dock_solv.prm

>  <Rbt.Receptor>
prm/pocket_docking_6.prm

>  <SCORE>
-5.07613

>  <SCORE.INTER>
-5.07613

>  <SCORE.INTER.CONST>
1

>  <SCORE.INTER.POLAR>
0

>  <SCORE.INTER.ROT>
0

>  <SCORE.INTER.SOLV>
1.58081

>  <SCORE.INTER.VDW>
-7.51102

>  <SCORE.INTER.norm>
-1.26903

>  <SCORE.INTRA>
0

>  <SCORE.INTRA.DIHEDRAL>
0

>  <SCORE.INTRA.DIHEDRAL.0>
0

>  <SCORE.INTRA.POLAR>
0

>  <SCORE.INTRA.POLAR.0>
0

>  <SCORE.INTRA.REPUL>
0

>  <SCORE.INTRA.REPUL.0>
0

>  <SCORE.INTRA.SOLV>
0

>  <SCORE.INTRA.SOLV.lig_0>
0.449748

>  <SCORE.INTRA.VDW>
0

>  <SCORE.INTRA.VDW.0>
0

>  <SCORE.INTRA.norm>
0

>  <SCORE.RESTR>
0

>  <SCORE.RESTR.CAVITY>
0

>  <SCORE.RESTR.norm>
0

>  <SCORE.SYSTEM>
0

>  <SCORE.SYSTEM.CONST>
0

>  <SCORE.SYSTEM.DIHEDRAL>
0

>  <SCORE.SYSTEM.SOLV>
0

>  <SCORE.SYSTEM.norm>
0

>  <SCORE.heavy>
4

>  <SCORE.norm>
-1.26903

>  <RMSD>
2.062

$$$$
ligand
 OpenBabel11021811493D
libRbt.so/2013.1/901 2013/11/27
  4  3  0  0  0  0  0  0  0  0999 V2000
   36.4411   18.9947    8.6319 C   0  0  0  0  0  0  0  0  0  0  0  0
   36.2304   19.9780    7.8880 O   0  0  0  0  0  0  0  0  0  0  0  0
   36.5324   19.2832   10.1245 C   0  0  0  0  0  0  0  0  0  0  0  0
   36.5963   17.7404    8.2915 O   0  0  0  0  0  0  0  0  0  0  0  0
  1  2  1  0  0  0  0
  1  3  1  0  0  0  0
  1  4  1  0  0  0  0
M  END
>  <CHROM.1>
36.44930601,18.99474262,8.71816826,1.60526794,1.40013194,-2.11510065

>  <Name>
ligand

>  <RI>
0

>  <Rbt.Current_Directory>
/home/itssahil/PROJECTS/Mol_Feturizer/New_Systems/rnas/4FEN

>  <Rbt.Executable>
rbdock ($Id: //depot/dev/client3/rdock/2013.1/src/exe/rbdock.cxx#4 $)

>  <Rbt.Library>
libRbt.so (2013.1, Build901 2013/11/27)

>  <Rbt.Parameter_File>
/export/apps/rDock/src/rDock_2013.1_src/data/scripts/dock_solv.prm

>  <Rbt.Receptor>
prm/pocket_docking_5.prm

>  <SCORE>
-5.01893

>  <SCORE.INTER>
-5.01893

>  <SCORE.INTER.CONST>
1

>  <SCORE.INTER.POLAR>
0

>  <SCORE.INTER.ROT>
0

>  <SCORE.INTER.SOLV>
1.64698

>  <SCORE.INTER.VDW>
-7.49495

>  <SCORE.INTER.norm>
-1.25473

>  <SCORE.INTRA>
0

>  <SCORE.INTRA.DIHEDRAL>
0

>  <SCORE.INTRA.DIHEDRAL.0>
0

>  <SCORE.INTRA.POLAR>
0

>  <SCORE.INTRA.POLAR.0>
0

>  <SCORE.INTRA.REPUL>
0

>  <SCORE.INTRA.REPUL.0>
0

>  <SCORE.INTRA.SOLV>
0

>  <SCORE.INTRA.SOLV.lig_0>
0.449748

>  <SCORE.INTRA.VDW>
0

>  <SCORE.INTRA.VDW.0>
0

>  <SCORE.INTRA.norm>
0

>  <SCORE.RESTR>
0

>  <SCORE.RESTR.CAVITY>
0

>  <SCORE.RESTR.norm>
0

>  <SCORE.SYSTEM>
0

>  <SCORE.SYSTEM.CONST>
0

>  <SCORE.SYSTEM.DIHEDRAL>
0

>  <SCORE.SYSTEM.SOLV>
0

>  <SCORE.SYSTEM.norm>
0

>  <SCORE.heavy>
4

>  <SCORE.norm>
-1.25473

>  <RMSD>
2.063

$$$$
ligand
 OpenBabel11021811493D
libRbt.so/2013.1/901 2013/11/27
  4  3  0  0  0  0  0  0  0  0999 V2000
   36.6014   18.4079    9.1627 C   0  0  0  0  0  0  0  0  0  0  0  0
   37.1113   18.1135   10.2664 O   0  0  0  0  0  0  0  0  0  0  0  0
   35.7510   19.6708    9.1261 C   0  0  0  0  0  0  0  0  0  0  0  0
   36.7030   17.7657    8.0267 O   0  0  0  0  0  0  0  0  0  0  0  0
  1  2  1  0  0  0  0
  1  3  1  0  0  0  0
  1  4  1  0  0  0  0
M  END
>  <CHROM.1>
36.55056551,18.47570113,9.14464368,-0.63393133,-0.94463569,1.16499949

>  <Name>
ligand

>  <RI>
0

>  <Rbt.Current_Directory>
/home/itssahil/PROJECTS/Mol_Feturizer/New_Systems/rnas/4FEN

>  <Rbt.Executable>
rbdock ($Id: //depot/dev/client3/rdock/2013.1/src/exe/rbdock.cxx#4 $)

>  <Rbt.Library>
libRbt.so (2013.1, Build901 2013/11/27)

>  <Rbt.Parameter_File>
/export/apps/rDock/src/rDock_2013.1_src/data/scripts/dock_solv.prm

>  <Rbt.Receptor>
prm/pocket_docking_6.prm

>  <SCORE>
-5.0637

>  <SCORE.INTER>
-5.0637

>  <SCORE.INTER.CONST>
1

>  <SCORE.INTER.POLAR>
0

>  <SCORE.INTER.ROT>
0

>  <SCORE.INTER.SOLV>
1.57601

>  <SCORE.INTER.VDW>
-7.50114

>  <SCORE.INTER.norm>
-1.26593

>  <SCORE.INTRA>
0

>  <SCORE.INTRA.DIHEDRAL>
0

>  <SCORE.INTRA.DIHEDRAL.0>
0

>  <SCORE.INTRA.POLAR>
0

>  <SCORE.INTRA.POLAR.0>
0

>  <SCORE.INTRA.REPUL>
0

>  <SCORE.INTRA.REPUL.0>
0

>  <SCORE.INTRA.SOLV>
0

>  <SCORE.INTRA.SOLV.lig_0>
0.449748

>  <SCORE.INTRA.VDW>
0

>  <SCORE.INTRA.VDW.0>
0

>  <SCORE.INTRA.norm>
0

>  <SCORE.RESTR>
0

>  <SCORE.RESTR.CAVITY>
0

>  <SCORE.RESTR.norm>
0

>  <SCORE.SYSTEM>
0

>  <SCORE.SYSTEM.CONST>
0

>  <SCORE.SYSTEM.DIHEDRAL>
0

>  <SCORE.SYSTEM.SOLV>
0

>  <SCORE.SYSTEM.norm>
0

>  <SCORE.heavy>
4

>  <SCORE.norm>
-1.26593

>  <RMSD>
2.063

$$$$
ligand
 OpenBabel11021811493D
libRbt.so/2013.1/901 2013/11/27
  4  3  0  0  0  0  0  0  0  0999 V2000
   36.6069   18.4076    9.1638 C   0  0  0  0  0  0  0  0  0  0  0  0
   37.1119   18.1155   10.2703 O   0  0  0  0  0  0  0  0  0  0  0  0
   35.7498   19.6658    9.1227 C   0  0  0  0  0  0  0  0  0  0  0  0
   36.7185   17.7663    8.0282 O   0  0  0  0  0  0  0  0  0  0  0  0
  1  2  1  0  0  0  0
  1  3  1  0  0  0  0
  1  4  1  0  0  0  0
M  END
>  <CHROM.1>
36.55572416,18.47506554,9.14543726,-0.62126857,-0.94193939,1.17560178

>  <Name>
ligand

>  <RI>
0

>  <Rbt.Current_Directory>
/home/itssahil/PROJECTS/Mol_Feturizer/New_Systems/rnas/4FEN

>  <Rbt.Executable>
rbdock ($Id: //depot/dev/client3/rdock/2013.1/src/exe/rbdock.cxx#4 $)

>  <Rbt.Library>
libRbt.so (2013.1, Build901 2013/11/27)

>  <Rbt.Parameter_File>
/export/apps/rDock/src/rDock_2013.1_src/data/scripts/dock_solv.prm

>  <Rbt.Receptor>
prm/pocket_docking_6.prm

>  <SCORE>
-5.06331

>  <SCORE.INTER>
-5.06331

>  <SCORE.INTER.CONST>
1

>  <SCORE.INTER.POLAR>
0

>  <SCORE.INTER.ROT>
0

>  <SCORE.INTER.SOLV>
1.57551

>  <SCORE.INTER.VDW>
-7.50071

>  <SCORE.INTER.norm>
-1.26583

>  <SCORE.INTRA>
0

>  <SCORE.INTRA.DIHEDRAL>
0

>  <SCORE.INTRA.DIHEDRAL.0>
0

>  <SCORE.INTRA.POLAR>
0

>  <SCORE.INTRA.POLAR.0>
0

>  <SCORE.INTRA.REPUL>
0

>  <SCORE.INTRA.REPUL.0>
0

>  <SCORE.INTRA.SOLV>
0

>  <SCORE.INTRA.SOLV.lig_0>
0.449748

>  <SCORE.INTRA.VDW>
0

>  <SCORE.INTRA.VDW.0>
0

>  <SCORE.INTRA.norm>
0

>  <SCORE.RESTR>
0

>  <SCORE.RESTR.CAVITY>
0

>  <SCORE.RESTR.norm>
0

>  <SCORE.SYSTEM>
0

>  <SCORE.SYSTEM.CONST>
0

>  <SCORE.SYSTEM.DIHEDRAL>
0

>  <SCORE.SYSTEM.SOLV>
0

>  <SCORE.SYSTEM.norm>
0

>  <SCORE.heavy>
4

>  <SCORE.norm>
-1.26583

>  <RMSD>
2.064

$$$$
ligand
 OpenBabel11021811493D
libRbt.so/2013.1/901 2013/11/27
  4  3  0  0  0  0  0  0  0  0999 V2000
   36.6066   18.4077    9.1615 C   0  0  0  0  0  0  0  0  0  0  0  0
   37.1185   18.1156   10.2648 O   0  0  0  0  0  0  0  0  0  0  0  0
   35.7542   19.6693    9.1244 C   0  0  0  0  0  0  0  0  0  0  0  0
   36.7075   17.7641    8.0262 O   0  0  0  0  0  0  0  0  0  0  0  0
  1  2  1  0  0  0  0
  1  3  1  0  0  0  0
  1  4  1  0  0  0  0
M  END
>  <CHROM.1>
36.55561457,18.47540000,9.14339417,-0.63513258,-0.94273089,1.16266699

>  <Name>
ligand

>  <RI>
0

>  <Rbt.Current_Directory>
/home/itssahil/PROJECTS/Mol_Feturizer/New_Systems/rnas/4FEN

>  <Rbt.Executable>
rbdock ($Id: //depot/dev/client3/rdock/2013.1/src/exe/rbdock.cxx#4 $)

>  <Rbt.Library>
libRbt.so (2013.1, Build901 2013/11/27)

>  <Rbt.Parameter_File>
/export/apps/rDock/src/rDock_2013.1_src/data/scripts/dock_solv.prm

>  <Rbt.Receptor>
prm/pocket_docking_6.prm

>  <SCORE>
-5.06409

>  <SCORE.INTER>
-5.06409

>  <SCORE.INTER.CONST>
1

>  <SCORE.INTER.POLAR>
0

>  <SCORE.INTER.ROT>
0

>  <SCORE.INTER.SOLV>
1.57744

>  <SCORE.INTER.VDW>
-7.50187

>  <SCORE.INTER.norm>
-1.26602

>  <SCORE.INTRA>
0

>  <SCORE.INTRA.DIHEDRAL>
0

>  <SCORE.INTRA.DIHEDRAL.0>
0

>  <SCORE.INTRA.POLAR>
0

>  <SCORE.INTRA.POLAR.0>
0

>  <SCORE.INTRA.REPUL>
0

>  <SCORE.INTRA.REPUL.0>
0

>  <SCORE.INTRA.SOLV>
0

>  <SCORE.INTRA.SOLV.lig_0>
0.449748

>  <SCORE.INTRA.VDW>
0

>  <SCORE.INTRA.VDW.0>
0

>  <SCORE.INTRA.norm>
0

>  <SCORE.RESTR>
0

>  <SCORE.RESTR.CAVITY>
0

>  <SCORE.RESTR.norm>
0

>  <SCORE.SYSTEM>
0

>  <SCORE.SYSTEM.CONST>
0

>  <SCORE.SYSTEM.DIHEDRAL>
0

>  <SCORE.SYSTEM.SOLV>
0

>  <SCORE.SYSTEM.norm>
0

>  <SCORE.heavy>
4

>  <SCORE.norm>
-1.26602

>  <RMSD>
2.065

$$$$
ligand
 OpenBabel11021811493D
libRbt.so/2013.1/901 2013/11/27
  4  3  0  0  0  0  0  0  0  0999 V2000
   36.6058   18.4086    9.1593 C   0  0  0  0  0  0  0  0  0  0  0  0
   37.1166   18.1162   10.2631 O   0  0  0  0  0  0  0  0  0  0  0  0
   35.7475   19.6661    9.1232 C   0  0  0  0  0  0  0  0  0  0  0  0
   36.7124   17.7681    8.0228 O   0  0  0  0  0  0  0  0  0  0  0  0
  1  2  1  0  0  0  0
  1  3  1  0  0  0  0
  1  4  1  0  0  0  0
M  END
>  <CHROM.1>
36.55456869,18.47600601,9.14125294,-0.62845852,-0.93920617,1.17040180

>  <Name>
ligand

>  <RI>
0

>  <Rbt.Current_Directory>
/home/itssahil/PROJECTS/Mol_Feturizer/New_Systems/rnas/4FEN

>  <Rbt.Executable>
rbdock ($Id: //depot/dev/client3/rdock/2013.1/src/exe/rbdock.cxx#4 $)

>  <Rbt.Library>
libRbt.so (2013.1, Build901 2013/11/27)

>  <Rbt.Parameter_File>
/export/apps/rDock/src/rDock_2013.1_src/data/scripts/dock_solv.prm

>  <Rbt.Receptor>
prm/pocket_docking_6.prm

>  <SCORE>
-5.06448

>  <SCORE.INTER>
-5.06448

>  <SCORE.INTER.CONST>
1

>  <SCORE.INTER.POLAR>
0

>  <SCORE.INTER.ROT>
0

>  <SCORE.INTER.SOLV>
1.57801

>  <SCORE.INTER.VDW>
-7.50232

>  <SCORE.INTER.norm>
-1.26612

>  <SCORE.INTRA>
0

>  <SCORE.INTRA.DIHEDRAL>
0

>  <SCORE.INTRA.DIHEDRAL.0>
0

>  <SCORE.INTRA.POLAR>
0

>  <SCORE.INTRA.POLAR.0>
0

>  <SCORE.INTRA.REPUL>
0

>  <SCORE.INTRA.REPUL.0>
0

>  <SCORE.INTRA.SOLV>
0

>  <SCORE.INTRA.SOLV.lig_0>
0.449748

>  <SCORE.INTRA.VDW>
0

>  <SCORE.INTRA.VDW.0>
0

>  <SCORE.INTRA.norm>
0

>  <SCORE.RESTR>
0

>  <SCORE.RESTR.CAVITY>
0

>  <SCORE.RESTR.norm>
0

>  <SCORE.SYSTEM>
0

>  <SCORE.SYSTEM.CONST>
0

>  <SCORE.SYSTEM.DIHEDRAL>
0

>  <SCORE.SYSTEM.SOLV>
0

>  <SCORE.SYSTEM.norm>
0

>  <SCORE.heavy>
4

>  <SCORE.norm>
-1.26612

>  <RMSD>
2.067

$$$$
ligand
 OpenBabel11021811493D
libRbt.so/2013.1/901 2013/11/27
  4  3  0  0  0  0  0  0  0  0999 V2000
   36.5981   18.4088    9.1547 C   0  0  0  0  0  0  0  0  0  0  0  0
   37.1114   18.1082   10.2550 O   0  0  0  0  0  0  0  0  0  0  0  0
   35.7469   19.6714    9.1280 C   0  0  0  0  0  0  0  0  0  0  0  0
   36.6966   17.7733    8.0146 O   0  0  0  0  0  0  0  0  0  0  0  0
  1  2  1  0  0  0  0
  1  3  1  0  0  0  0
  1  4  1  0  0  0  0
M  END
>  <CHROM.1>
36.54715803,18.47662853,9.13713293,-0.63829181,-0.94299553,1.16733877

>  <Name>
ligand

>  <RI>
0

>  <Rbt.Current_Directory>
/home/itssahil/PROJECTS/Mol_Feturizer/New_Systems/rnas/4FEN

>  <Rbt.Executable>
rbdock ($Id: //depot/dev/client3/rdock/2013.1/src/exe/rbdock.cxx#4 $)

>  <Rbt.Library>
libRbt.so (2013.1, Build901 2013/11/27)

>  <Rbt.Parameter_File>
/export/apps/rDock/src/rDock_2013.1_src/data/scripts/dock_solv.prm

>  <Rbt.Receptor>
prm/pocket_docking_6.prm

>  <SCORE>
-5.06196

>  <SCORE.INTER>
-5.06196

>  <SCORE.INTER.CONST>
1

>  <SCORE.INTER.POLAR>
0

>  <SCORE.INTER.ROT>
0

>  <SCORE.INTER.SOLV>
1.5799

>  <SCORE.INTER.VDW>
-7.50127

>  <SCORE.INTER.norm>
-1.26549

>  <SCORE.INTRA>
0

>  <SCORE.INTRA.DIHEDRAL>
0

>  <SCORE.INTRA.DIHEDRAL.0>
0

>  <SCORE.INTRA.POLAR>
0

>  <SCORE.INTRA.POLAR.0>
0

>  <SCORE.INTRA.REPUL>
0

>  <SCORE.INTRA.REPUL.0>
0

>  <SCORE.INTRA.SOLV>
0

>  <SCORE.INTRA.SOLV.lig_0>
0.449748

>  <SCORE.INTRA.VDW>
0

>  <SCORE.INTRA.VDW.0>
0

>  <SCORE.INTRA.norm>
0

>  <SCORE.RESTR>
0

>  <SCORE.RESTR.CAVITY>
0

>  <SCORE.RESTR.norm>
0

>  <SCORE.SYSTEM>
0

>  <SCORE.SYSTEM.CONST>
0

>  <SCORE.SYSTEM.DIHEDRAL>
0

>  <SCORE.SYSTEM.SOLV>
0

>  <SCORE.SYSTEM.norm>
0

>  <SCORE.heavy>
4

>  <SCORE.norm>
-1.26549

>  <RMSD>
2.067

$$$$
ligand
 OpenBabel11021811493D
libRbt.so/2013.1/901 2013/11/27
  4  3  0  0  0  0  0  0  0  0999 V2000
   36.4560   18.9824    8.6385 C   0  0  0  0  0  0  0  0  0  0  0  0
   36.2652   19.9563    7.8770 O   0  0  0  0  0  0  0  0  0  0  0  0
   36.5424   19.2944   10.1266 C   0  0  0  0  0  0  0  0  0  0  0  0
   36.5940   17.7204    8.3199 O   0  0  0  0  0  0  0  0  0  0  0  0
  1  2  1  0  0  0  0
  1  3  1  0  0  0  0
  1  4  1  0  0  0  0
M  END
>  <CHROM.1>
36.46369619,18.98379137,8.72473126,1.62240666,1.41654987,-2.14868127

>  <Name>
ligand

>  <RI>
0

>  <Rbt.Current_Directory>
/home/itssahil/PROJECTS/Mol_Feturizer/New_Systems/rnas/4FEN

>  <Rbt.Executable>
rbdock ($Id: //depot/dev/client3/rdock/2013.1/src/exe/rbdock.cxx#4 $)

>  <Rbt.Library>
libRbt.so (2013.1, Build901 2013/11/27)

>  <Rbt.Parameter_File>
/export/apps/rDock/src/rDock_2013.1_src/data/scripts/dock_solv.prm

>  <Rbt.Receptor>
prm/pocket_docking_4.prm

>  <SCORE>
-5.01382

>  <SCORE.INTER>
-5.01382

>  <SCORE.INTER.CONST>
1

>  <SCORE.INTER.POLAR>
0

>  <SCORE.INTER.ROT>
0

>  <SCORE.INTER.SOLV>
1.63872

>  <SCORE.INTER.VDW>
-7.48878

>  <SCORE.INTER.norm>
-1.25345

>  <SCORE.INTRA>
0

>  <SCORE.INTRA.DIHEDRAL>
0

>  <SCORE.INTRA.DIHEDRAL.0>
0

>  <SCORE.INTRA.POLAR>
0

>  <SCORE.INTRA.POLAR.0>
0

>  <SCORE.INTRA.REPUL>
0

>  <SCORE.INTRA.REPUL.0>
0

>  <SCORE.INTRA.SOLV>
0

>  <SCORE.INTRA.SOLV.lig_0>
0.449748

>  <SCORE.INTRA.VDW>
0

>  <SCORE.INTRA.VDW.0>
0

>  <SCORE.INTRA.norm>
0

>  <SCORE.RESTR>
0

>  <SCORE.RESTR.CAVITY>
0

>  <SCORE.RESTR.norm>
0

>  <SCORE.SYSTEM>
0

>  <SCORE.SYSTEM.CONST>
0

>  <SCORE.SYSTEM.DIHEDRAL>
0

>  <SCORE.SYSTEM.SOLV>
0

>  <SCORE.SYSTEM.norm>
0

>  <SCORE.heavy>
4

>  <SCORE.norm>
-1.25345

>  <RMSD>
2.069

$$$$
ligand
 OpenBabel11021811493D
libRbt.so/2013.1/901 2013/11/27
  4  3  0  0  0  0  0  0  0  0999 V2000
   36.6002   18.4072    9.1553 C   0  0  0  0  0  0  0  0  0  0  0  0
   37.1097   18.1090   10.2582 O   0  0  0  0  0  0  0  0  0  0  0  0
   35.7414   19.6646    9.1251 C   0  0  0  0  0  0  0  0  0  0  0  0
   36.7086   17.7732    8.0154 O   0  0  0  0  0  0  0  0  0  0  0  0
  1  2  1  0  0  0  0
  1  3  1  0  0  0  0
  1  4  1  0  0  0  0
M  END
>  <CHROM.1>
36.54895138,18.47477214,9.13758769,-0.62606563,-0.93930979,1.17791157

>  <Name>
ligand

>  <RI>
0

>  <Rbt.Current_Directory>
/home/itssahil/PROJECTS/Mol_Feturizer/New_Systems/rnas/4FEN

>  <Rbt.Executable>
rbdock ($Id: //depot/dev/client3/rdock/2013.1/src/exe/rbdock.cxx#4 $)

>  <Rbt.Library>
libRbt.so (2013.1, Build901 2013/11/27)

>  <Rbt.Parameter_File>
/export/apps/rDock/src/rDock_2013.1_src/data/scripts/dock_solv.prm

>  <Rbt.Receptor>
prm/pocket_docking_6.prm

>  <SCORE>
-5.06395

>  <SCORE.INTER>
-5.06395

>  <SCORE.INTER.CONST>
1

>  <SCORE.INTER.POLAR>
0

>  <SCORE.INTER.ROT>
0

>  <SCORE.INTER.SOLV>
1.57878

>  <SCORE.INTER.VDW>
-7.50222

>  <SCORE.INTER.norm>
-1.26599

>  <SCORE.INTRA>
0

>  <SCORE.INTRA.DIHEDRAL>
0

>  <SCORE.INTRA.DIHEDRAL.0>
0

>  <SCORE.INTRA.POLAR>
0

>  <SCORE.INTRA.POLAR.0>
0

>  <SCORE.INTRA.REPUL>
0

>  <SCORE.INTRA.REPUL.0>
0

>  <SCORE.INTRA.SOLV>
0

>  <SCORE.INTRA.SOLV.lig_0>
0.449748

>  <SCORE.INTRA.VDW>
0

>  <SCORE.INTRA.VDW.0>
0

>  <SCORE.INTRA.norm>
0

>  <SCORE.RESTR>
0

>  <SCORE.RESTR.CAVITY>
0

>  <SCORE.RESTR.norm>
0

>  <SCORE.SYSTEM>
0

>  <SCORE.SYSTEM.CONST>
0

>  <SCORE.SYSTEM.DIHEDRAL>
0

>  <SCORE.SYSTEM.SOLV>
0

>  <SCORE.SYSTEM.norm>
0

>  <SCORE.heavy>
4

>  <SCORE.norm>
-1.26599

>  <RMSD>
2.069

$$$$
ligand
 OpenBabel11021811493D
libRbt.so/2013.1/901 2013/11/27
  4  3  0  0  0  0  0  0  0  0999 V2000
   36.6048   18.4059    9.1587 C   0  0  0  0  0  0  0  0  0  0  0  0
   37.1169   18.1155   10.2624 O   0  0  0  0  0  0  0  0  0  0  0  0
   35.7441   19.6618    9.1221 C   0  0  0  0  0  0  0  0  0  0  0  0
   36.7116   17.7646    8.0227 O   0  0  0  0  0  0  0  0  0  0  0  0
  1  2  1  0  0  0  0
  1  3  1  0  0  0  0
  1  4  1  0  0  0  0
M  END
>  <CHROM.1>
36.55335509,18.47323776,9.14060799,-0.62844049,-0.93721196,1.16949049

>  <Name>
ligand

>  <RI>
0

>  <Rbt.Current_Directory>
/home/itssahil/PROJECTS/Mol_Feturizer/New_Systems/rnas/4FEN

>  <Rbt.Executable>
rbdock ($Id: //depot/dev/client3/rdock/2013.1/src/exe/rbdock.cxx#4 $)

>  <Rbt.Library>
libRbt.so (2013.1, Build901 2013/11/27)

>  <Rbt.Parameter_File>
/export/apps/rDock/src/rDock_2013.1_src/data/scripts/dock_solv.prm

>  <Rbt.Receptor>
prm/pocket_docking_6.prm

>  <SCORE>
-5.06506

>  <SCORE.INTER>
-5.06506

>  <SCORE.INTER.CONST>
1

>  <SCORE.INTER.POLAR>
0

>  <SCORE.INTER.ROT>
0

>  <SCORE.INTER.SOLV>
1.57745

>  <SCORE.INTER.VDW>
-7.50252

>  <SCORE.INTER.norm>
-1.26626

>  <SCORE.INTRA>
0

>  <SCORE.INTRA.DIHEDRAL>
0

>  <SCORE.INTRA.DIHEDRAL.0>
0

>  <SCORE.INTRA.POLAR>
0

>  <SCORE.INTRA.POLAR.0>
0

>  <SCORE.INTRA.REPUL>
0

>  <SCORE.INTRA.REPUL.0>
0

>  <SCORE.INTRA.SOLV>
0

>  <SCORE.INTRA.SOLV.lig_0>
0.449748

>  <SCORE.INTRA.VDW>
0

>  <SCORE.INTRA.VDW.0>
0

>  <SCORE.INTRA.norm>
0

>  <SCORE.RESTR>
0

>  <SCORE.RESTR.CAVITY>
0

>  <SCORE.RESTR.norm>
0

>  <SCORE.SYSTEM>
0

>  <SCORE.SYSTEM.CONST>
0

>  <SCORE.SYSTEM.DIHEDRAL>
0

>  <SCORE.SYSTEM.SOLV>
0

>  <SCORE.SYSTEM.norm>
0

>  <SCORE.heavy>
4

>  <SCORE.norm>
-1.26626

>  <RMSD>
2.069

$$$$
ligand
 OpenBabel11021811493D
libRbt.so/2013.1/901 2013/11/27
  4  3  0  0  0  0  0  0  0  0999 V2000
   36.6174   18.3885    9.1483 C   0  0  0  0  0  0  0  0  0  0  0  0
   36.7043   17.7409    8.0816 O   0  0  0  0  0  0  0  0  0  0  0  0
   35.7623   19.6480    9.1069 C   0  0  0  0  0  0  0  0  0  0  0  0
   37.1718   18.1234   10.3039 O   0  0  0  0  0  0  0  0  0  0  0  0
  1  2  1  0  0  0  0
  1  3  1  0  0  0  0
  1  4  1  0  0  0  0
M  END
>  <CHROM.1>
36.57343483,18.46188249,9.16183074,0.02050708,0.93122167,-2.02371226

>  <Name>
ligand

>  <RI>
0

>  <Rbt.Current_Directory>
/home/itssahil/PROJECTS/Mol_Feturizer/New_Systems/rnas/4FEN

>  <Rbt.Executable>
rbdock ($Id: //depot/dev/client3/rdock/2013.1/src/exe/rbdock.cxx#4 $)

>  <Rbt.Library>
libRbt.so (2013.1, Build901 2013/11/27)

>  <Rbt.Parameter_File>
/export/apps/rDock/src/rDock_2013.1_src/data/scripts/dock_solv.prm

>  <Rbt.Receptor>
prm/pocket_docking_6.prm

>  <SCORE>
-5.05964

>  <SCORE.INTER>
-5.05964

>  <SCORE.INTER.CONST>
1

>  <SCORE.INTER.POLAR>
0

>  <SCORE.INTER.ROT>
0

>  <SCORE.INTER.SOLV>
1.56815

>  <SCORE.INTER.VDW>
-7.49581

>  <SCORE.INTER.norm>
-1.26491

>  <SCORE.INTRA>
0

>  <SCORE.INTRA.DIHEDRAL>
0

>  <SCORE.INTRA.DIHEDRAL.0>
0

>  <SCORE.INTRA.POLAR>
0

>  <SCORE.INTRA.POLAR.0>
0

>  <SCORE.INTRA.REPUL>
0

>  <SCORE.INTRA.REPUL.0>
0

>  <SCORE.INTRA.SOLV>
0

>  <SCORE.INTRA.SOLV.lig_0>
0.449748

>  <SCORE.INTRA.VDW>
0

>  <SCORE.INTRA.VDW.0>
0

>  <SCORE.INTRA.norm>
0

>  <SCORE.RESTR>
0

>  <SCORE.RESTR.CAVITY>
0

>  <SCORE.RESTR.norm>
0

>  <SCORE.SYSTEM>
0

>  <SCORE.SYSTEM.CONST>
0

>  <SCORE.SYSTEM.DIHEDRAL>
0

>  <SCORE.SYSTEM.SOLV>
0

>  <SCORE.SYSTEM.norm>
0

>  <SCORE.heavy>
4

>  <SCORE.norm>
-1.26491

>  <RMSD>
2.070

$$$$
ligand
 OpenBabel11021811493D
libRbt.so/2013.1/901 2013/11/27
  4  3  0  0  0  0  0  0  0  0999 V2000
   36.6058   18.4046    9.1551 C   0  0  0  0  0  0  0  0  0  0  0  0
   37.1116   18.1027   10.2586 O   0  0  0  0  0  0  0  0  0  0  0  0
   35.7564   19.6683    9.1237 C   0  0  0  0  0  0  0  0  0  0  0  0
   36.7107   17.7696    8.0153 O   0  0  0  0  0  0  0  0  0  0  0  0
  1  2  1  0  0  0  0
  1  3  1  0  0  0  0
  1  4  1  0  0  0  0
M  END
>  <CHROM.1>
36.55499884,18.47248397,9.13725524,-0.62906240,-0.94666611,1.17536472

>  <Name>
ligand

>  <RI>
0

>  <Rbt.Current_Directory>
/home/itssahil/PROJECTS/Mol_Feturizer/New_Systems/rnas/4FEN

>  <Rbt.Executable>
rbdock ($Id: //depot/dev/client3/rdock/2013.1/src/exe/rbdock.cxx#4 $)

>  <Rbt.Library>
libRbt.so (2013.1, Build901 2013/11/27)

>  <Rbt.Parameter_File>
/export/apps/rDock/src/rDock_2013.1_src/data/scripts/dock_solv.prm

>  <Rbt.Receptor>
prm/pocket_docking_6.prm

>  <SCORE>
-5.06332

>  <SCORE.INTER>
-5.06332

>  <SCORE.INTER.CONST>
1

>  <SCORE.INTER.POLAR>
0

>  <SCORE.INTER.ROT>
0

>  <SCORE.INTER.SOLV>
1.57997

>  <SCORE.INTER.VDW>
-7.5022

>  <SCORE.INTER.norm>
-1.26583

>  <SCORE.INTRA>
0

>  <SCORE.INTRA.DIHEDRAL>
0

>  <SCORE.INTRA.DIHEDRAL.0>
0

>  <SCORE.INTRA.POLAR>
0

>  <SCORE.INTRA.POLAR.0>
0

>  <SCORE.INTRA.REPUL>
0

>  <SCORE.INTRA.REPUL.0>
0

>  <SCORE.INTRA.SOLV>
0

>  <SCORE.INTRA.SOLV.lig_0>
0.449748

>  <SCORE.INTRA.VDW>
0

>  <SCORE.INTRA.VDW.0>
0

>  <SCORE.INTRA.norm>
0

>  <SCORE.RESTR>
0

>  <SCORE.RESTR.CAVITY>
0

>  <SCORE.RESTR.norm>
0

>  <SCORE.SYSTEM>
0

>  <SCORE.SYSTEM.CONST>
0

>  <SCORE.SYSTEM.DIHEDRAL>
0

>  <SCORE.SYSTEM.SOLV>
0

>  <SCORE.SYSTEM.norm>
0

>  <SCORE.heavy>
4

>  <SCORE.norm>
-1.26583

>  <RMSD>
2.071

$$$$
ligand
 OpenBabel11021811493D
libRbt.so/2013.1/901 2013/11/27
  4  3  0  0  0  0  0  0  0  0999 V2000
   36.4729   18.9298    8.6450 C   0  0  0  0  0  0  0  0  0  0  0  0
   36.5429   17.7247    8.3172 O   0  0  0  0  0  0  0  0  0  0  0  0
   36.5393   19.2297   10.1367 C   0  0  0  0  0  0  0  0  0  0  0  0
   36.3469   19.9747    7.8668 O   0  0  0  0  0  0  0  0  0  0  0  0
  1  2  1  0  0  0  0
  1  3  1  0  0  0  0
  1  4  1  0  0  0  0
M  END
>  <CHROM.1>
36.47464707,18.96273901,8.72514238,-2.37303721,-1.47491899,0.89572598

>  <Name>
ligand

>  <RI>
0

>  <Rbt.Current_Directory>
/home/itssahil/PROJECTS/Mol_Feturizer/New_Systems/rnas/4FEN

>  <Rbt.Executable>
rbdock ($Id: //depot/dev/client3/rdock/2013.1/src/exe/rbdock.cxx#4 $)

>  <Rbt.Library>
libRbt.so (2013.1, Build901 2013/11/27)

>  <Rbt.Parameter_File>
/export/apps/rDock/src/rDock_2013.1_src/data/scripts/dock_solv.prm

>  <Rbt.Receptor>
prm/pocket_docking_7.prm

>  <SCORE>
-5.00971

>  <SCORE.INTER>
-5.00971

>  <SCORE.INTER.CONST>
1

>  <SCORE.INTER.POLAR>
0

>  <SCORE.INTER.ROT>
0

>  <SCORE.INTER.SOLV>
1.62595

>  <SCORE.INTER.VDW>
-7.48179

>  <SCORE.INTER.norm>
-1.25243

>  <SCORE.INTRA>
0

>  <SCORE.INTRA.DIHEDRAL>
0

>  <SCORE.INTRA.DIHEDRAL.0>
0

>  <SCORE.INTRA.POLAR>
0

>  <SCORE.INTRA.POLAR.0>
0

>  <SCORE.INTRA.REPUL>
0

>  <SCORE.INTRA.REPUL.0>
0

>  <SCORE.INTRA.SOLV>
0

>  <SCORE.INTRA.SOLV.lig_0>
0.449748

>  <SCORE.INTRA.VDW>
0

>  <SCORE.INTRA.VDW.0>
0

>  <SCORE.INTRA.norm>
0

>  <SCORE.RESTR>
0

>  <SCORE.RESTR.CAVITY>
0

>  <SCORE.RESTR.norm>
0

>  <SCORE.SYSTEM>
0

>  <SCORE.SYSTEM.CONST>
0

>  <SCORE.SYSTEM.DIHEDRAL>
0

>  <SCORE.SYSTEM.SOLV>
0

>  <SCORE.SYSTEM.norm>
0

>  <SCORE.heavy>
4

>  <SCORE.norm>
-1.25243

>  <RMSD>
2.072

$$$$
ligand
 OpenBabel11021811493D
libRbt.so/2013.1/901 2013/11/27
  4  3  0  0  0  0  0  0  0  0999 V2000
   36.6094   18.4041    9.1567 C   0  0  0  0  0  0  0  0  0  0  0  0
   37.1256   18.1162   10.2592 O   0  0  0  0  0  0  0  0  0  0  0  0
   35.7499   19.6608    9.1200 C   0  0  0  0  0  0  0  0  0  0  0  0
   36.7112   17.7596    8.0220 O   0  0  0  0  0  0  0  0  0  0  0  0
  1  2  1  0  0  0  0
  1  3  1  0  0  0  0
  1  4  1  0  0  0  0
M  END
>  <CHROM.1>
36.55802249,18.47144716,9.13861709,-0.63511351,-0.93664750,1.16141399

>  <Name>
ligand

>  <RI>
0

>  <Rbt.Current_Directory>
/home/itssahil/PROJECTS/Mol_Feturizer/New_Systems/rnas/4FEN

>  <Rbt.Executable>
rbdock ($Id: //depot/dev/client3/rdock/2013.1/src/exe/rbdock.cxx#4 $)

>  <Rbt.Library>
libRbt.so (2013.1, Build901 2013/11/27)

>  <Rbt.Parameter_File>
/export/apps/rDock/src/rDock_2013.1_src/data/scripts/dock_solv.prm

>  <Rbt.Receptor>
prm/pocket_docking_6.prm

>  <SCORE>
-5.06418

>  <SCORE.INTER>
-5.06418

>  <SCORE.INTER.CONST>
1

>  <SCORE.INTER.POLAR>
0

>  <SCORE.INTER.ROT>
0

>  <SCORE.INTER.SOLV>
1.57916

>  <SCORE.INTER.VDW>
-7.50251

>  <SCORE.INTER.norm>
-1.26605

>  <SCORE.INTRA>
0

>  <SCORE.INTRA.DIHEDRAL>
0

>  <SCORE.INTRA.DIHEDRAL.0>
0

>  <SCORE.INTRA.POLAR>
0

>  <SCORE.INTRA.POLAR.0>
0

>  <SCORE.INTRA.REPUL>
0

>  <SCORE.INTRA.REPUL.0>
0

>  <SCORE.INTRA.SOLV>
0

>  <SCORE.INTRA.SOLV.lig_0>
0.449748

>  <SCORE.INTRA.VDW>
0

>  <SCORE.INTRA.VDW.0>
0

>  <SCORE.INTRA.norm>
0

>  <SCORE.RESTR>
0

>  <SCORE.RESTR.CAVITY>
0

>  <SCORE.RESTR.norm>
0

>  <SCORE.SYSTEM>
0

>  <SCORE.SYSTEM.CONST>
0

>  <SCORE.SYSTEM.DIHEDRAL>
0

>  <SCORE.SYSTEM.SOLV>
0

>  <SCORE.SYSTEM.norm>
0

>  <SCORE.heavy>
4

>  <SCORE.norm>
-1.26605

>  <RMSD>
2.073

$$$$
ligand
 OpenBabel11021811493D
libRbt.so/2013.1/901 2013/11/27
  4  3  0  0  0  0  0  0  0  0999 V2000
   36.6051   18.4003    9.1589 C   0  0  0  0  0  0  0  0  0  0  0  0
   37.1132   18.1108   10.2647 O   0  0  0  0  0  0  0  0  0  0  0  0
   35.7427   19.6550    9.1187 C   0  0  0  0  0  0  0  0  0  0  0  0
   36.7175   17.7591    8.0234 O   0  0  0  0  0  0  0  0  0  0  0  0
  1  2  1  0  0  0  0
  1  3  1  0  0  0  0
  1  4  1  0  0  0  0
M  END
>  <CHROM.1>
36.55364373,18.46760709,9.14063676,-0.62109503,-0.93744101,1.17531739

>  <Name>
ligand

>  <RI>
0

>  <Rbt.Current_Directory>
/home/itssahil/PROJECTS/Mol_Feturizer/New_Systems/rnas/4FEN

>  <Rbt.Executable>
rbdock ($Id: //depot/dev/client3/rdock/2013.1/src/exe/rbdock.cxx#4 $)

>  <Rbt.Library>
libRbt.so (2013.1, Build901 2013/11/27)

>  <Rbt.Parameter_File>
/export/apps/rDock/src/rDock_2013.1_src/data/scripts/dock_solv.prm

>  <Rbt.Receptor>
prm/pocket_docking_6.prm

>  <SCORE>
-5.06514

>  <SCORE.INTER>
-5.06514

>  <SCORE.INTER.CONST>
1

>  <SCORE.INTER.POLAR>
0

>  <SCORE.INTER.ROT>
0

>  <SCORE.INTER.SOLV>
1.57586

>  <SCORE.INTER.VDW>
-7.50204

>  <SCORE.INTER.norm>
-1.26628

>  <SCORE.INTRA>
0

>  <SCORE.INTRA.DIHEDRAL>
0

>  <SCORE.INTRA.DIHEDRAL.0>
0

>  <SCORE.INTRA.POLAR>
0

>  <SCORE.INTRA.POLAR.0>
0

>  <SCORE.INTRA.REPUL>
0

>  <SCORE.INTRA.REPUL.0>
0

>  <SCORE.INTRA.SOLV>
0

>  <SCORE.INTRA.SOLV.lig_0>
0.449748

>  <SCORE.INTRA.VDW>
0

>  <SCORE.INTRA.VDW.0>
0

>  <SCORE.INTRA.norm>
0

>  <SCORE.RESTR>
0

>  <SCORE.RESTR.CAVITY>
0

>  <SCORE.RESTR.norm>
0

>  <SCORE.SYSTEM>
0

>  <SCORE.SYSTEM.CONST>
0

>  <SCORE.SYSTEM.DIHEDRAL>
0

>  <SCORE.SYSTEM.SOLV>
0

>  <SCORE.SYSTEM.norm>
0

>  <SCORE.heavy>
4

>  <SCORE.norm>
-1.26628

>  <RMSD>
2.073

$$$$
ligand
 OpenBabel11021811493D
libRbt.so/2013.1/901 2013/11/27
  4  3  0  0  0  0  0  0  0  0999 V2000
   36.4717   18.9992    8.6308 C   0  0  0  0  0  0  0  0  0  0  0  0
   36.3462   19.9600    7.8396 O   0  0  0  0  0  0  0  0  0  0  0  0
   36.4927   19.3431   10.1142 C   0  0  0  0  0  0  0  0  0  0  0  0
   36.5902   17.7269    8.3471 O   0  0  0  0  0  0  0  0  0  0  0  0
  1  2  1  0  0  0  0
  1  3  1  0  0  0  0
  1  4  1  0  0  0  0
M  END
>  <CHROM.1>
36.47513071,19.00232079,8.71726272,1.37211897,1.46374279,-1.92287748

>  <Name>
ligand

>  <RI>
0

>  <Rbt.Current_Directory>
/home/itssahil/PROJECTS/Mol_Feturizer/New_Systems/rnas/4FEN

>  <Rbt.Executable>
rbdock ($Id: //depot/dev/client3/rdock/2013.1/src/exe/rbdock.cxx#4 $)

>  <Rbt.Library>
libRbt.so (2013.1, Build901 2013/11/27)

>  <Rbt.Parameter_File>
/export/apps/rDock/src/rDock_2013.1_src/data/scripts/dock_solv.prm

>  <Rbt.Receptor>
prm/pocket_docking_4.prm

>  <SCORE>
-5.00369

>  <SCORE.INTER>
-5.00369

>  <SCORE.INTER.CONST>
1

>  <SCORE.INTER.POLAR>
0

>  <SCORE.INTER.ROT>
0

>  <SCORE.INTER.SOLV>
1.62148

>  <SCORE.INTER.VDW>
-7.47629

>  <SCORE.INTER.norm>
-1.25092

>  <SCORE.INTRA>
0

>  <SCORE.INTRA.DIHEDRAL>
0

>  <SCORE.INTRA.DIHEDRAL.0>
0

>  <SCORE.INTRA.POLAR>
0

>  <SCORE.INTRA.POLAR.0>
0

>  <SCORE.INTRA.REPUL>
0

>  <SCORE.INTRA.REPUL.0>
0

>  <SCORE.INTRA.SOLV>
0

>  <SCORE.INTRA.SOLV.lig_0>
0.449748

>  <SCORE.INTRA.VDW>
0

>  <SCORE.INTRA.VDW.0>
0

>  <SCORE.INTRA.norm>
0

>  <SCORE.RESTR>
0

>  <SCORE.RESTR.CAVITY>
0

>  <SCORE.RESTR.norm>
0

>  <SCORE.SYSTEM>
0

>  <SCORE.SYSTEM.CONST>
0

>  <SCORE.SYSTEM.DIHEDRAL>
0

>  <SCORE.SYSTEM.SOLV>
0

>  <SCORE.SYSTEM.norm>
0

>  <SCORE.heavy>
4

>  <SCORE.norm>
-1.25092

>  <RMSD>
2.074

$$$$
ligand
 OpenBabel11021811493D
libRbt.so/2013.1/901 2013/11/27
  4  3  0  0  0  0  0  0  0  0999 V2000
   36.4499   18.9863    8.6192 C   0  0  0  0  0  0  0  0  0  0  0  0
   36.2510   19.9822    7.8890 O   0  0  0  0  0  0  0  0  0  0  0  0
   36.5344   19.2518   10.1165 C   0  0  0  0  0  0  0  0  0  0  0  0
   36.5980   17.7361    8.2609 O   0  0  0  0  0  0  0  0  0  0  0  0
  1  2  1  0  0  0  0
  1  3  1  0  0  0  0
  1  4  1  0  0  0  0
M  END
>  <CHROM.1>
36.45765522,18.98499840,8.70550918,1.59702584,1.40950892,-2.09197656

>  <Name>
ligand

>  <RI>
0

>  <Rbt.Current_Directory>
/home/itssahil/PROJECTS/Mol_Feturizer/New_Systems/rnas/4FEN

>  <Rbt.Executable>
rbdock ($Id: //depot/dev/client3/rdock/2013.1/src/exe/rbdock.cxx#4 $)

>  <Rbt.Library>
libRbt.so (2013.1, Build901 2013/11/27)

>  <Rbt.Parameter_File>
/export/apps/rDock/src/rDock_2013.1_src/data/scripts/dock_solv.prm

>  <Rbt.Receptor>
prm/pocket_docking_5.prm

>  <SCORE>
-5.04112

>  <SCORE.INTER>
-5.04112

>  <SCORE.INTER.CONST>
1

>  <SCORE.INTER.POLAR>
0

>  <SCORE.INTER.ROT>
0

>  <SCORE.INTER.SOLV>
1.65566

>  <SCORE.INTER.VDW>
-7.51263

>  <SCORE.INTER.norm>
-1.26028

>  <SCORE.INTRA>
0

>  <SCORE.INTRA.DIHEDRAL>
0

>  <SCORE.INTRA.DIHEDRAL.0>
0

>  <SCORE.INTRA.POLAR>
0

>  <SCORE.INTRA.POLAR.0>
0

>  <SCORE.INTRA.REPUL>
0

>  <SCORE.INTRA.REPUL.0>
0

>  <SCORE.INTRA.SOLV>
0

>  <SCORE.INTRA.SOLV.lig_0>
0.449748

>  <SCORE.INTRA.VDW>
0

>  <SCORE.INTRA.VDW.0>
0

>  <SCORE.INTRA.norm>
0

>  <SCORE.RESTR>
0

>  <SCORE.RESTR.CAVITY>
0

>  <SCORE.RESTR.norm>
0

>  <SCORE.SYSTEM>
0

>  <SCORE.SYSTEM.CONST>
0

>  <SCORE.SYSTEM.DIHEDRAL>
0

>  <SCORE.SYSTEM.SOLV>
0

>  <SCORE.SYSTEM.norm>
0

>  <SCORE.heavy>
4

>  <SCORE.norm>
-1.26028

>  <RMSD>
2.075

$$$$
ligand
 OpenBabel11021811493D
libRbt.so/2013.1/901 2013/11/27
  4  3  0  0  0  0  0  0  0  0999 V2000
   36.4440   18.9953    8.6110 C   0  0  0  0  0  0  0  0  0  0  0  0
   36.2545   19.9904    7.8771 O   0  0  0  0  0  0  0  0  0  0  0  0
   36.5112   19.2628   10.1088 C   0  0  0  0  0  0  0  0  0  0  0  0
   36.5951   17.7445    8.2562 O   0  0  0  0  0  0  0  0  0  0  0  0
  1  2  1  0  0  0  0
  1  3  1  0  0  0  0
  1  4  1  0  0  0  0
M  END
>  <CHROM.1>
36.45069932,18.99410427,8.69737912,1.53422969,1.41584880,-2.03135008

>  <Name>
ligand

>  <RI>
0

>  <Rbt.Current_Directory>
/home/itssahil/PROJECTS/Mol_Feturizer/New_Systems/rnas/4FEN

>  <Rbt.Executable>
rbdock ($Id: //depot/dev/client3/rdock/2013.1/src/exe/rbdock.cxx#4 $)

>  <Rbt.Library>
libRbt.so (2013.1, Build901 2013/11/27)

>  <Rbt.Parameter_File>
/export/apps/rDock/src/rDock_2013.1_src/data/scripts/dock_solv.prm

>  <Rbt.Receptor>
prm/blind_docking_100.prm

>  <SCORE>
-5.04577

>  <SCORE.INTER>
-5.04577

>  <SCORE.INTER.CONST>
1

>  <SCORE.INTER.POLAR>
0

>  <SCORE.INTER.ROT>
0

>  <SCORE.INTER.SOLV>
1.65607

>  <SCORE.INTER.VDW>
-7.51587

>  <SCORE.INTER.norm>
-1.26144

>  <SCORE.INTRA>
0

>  <SCORE.INTRA.DIHEDRAL>
0

>  <SCORE.INTRA.DIHEDRAL.0>
0

>  <SCORE.INTRA.POLAR>
0

>  <SCORE.INTRA.POLAR.0>
0

>  <SCORE.INTRA.REPUL>
0

>  <SCORE.INTRA.REPUL.0>
0

>  <SCORE.INTRA.SOLV>
0

>  <SCORE.INTRA.SOLV.lig_0>
0.449748

>  <SCORE.INTRA.VDW>
0

>  <SCORE.INTRA.VDW.0>
0

>  <SCORE.INTRA.norm>
0

>  <SCORE.RESTR>
0

>  <SCORE.RESTR.CAVITY>
0

>  <SCORE.RESTR.norm>
0

>  <SCORE.SYSTEM>
0

>  <SCORE.SYSTEM.CONST>
0

>  <SCORE.SYSTEM.DIHEDRAL>
0

>  <SCORE.SYSTEM.SOLV>
0

>  <SCORE.SYSTEM.norm>
0

>  <SCORE.heavy>
4

>  <SCORE.norm>
-1.26144

>  <RMSD>
2.076

$$$$
ligand
 OpenBabel11021811493D
libRbt.so/2013.1/901 2013/11/27
  4  3  0  0  0  0  0  0  0  0999 V2000
   36.4524   18.9948    8.6233 C   0  0  0  0  0  0  0  0  0  0  0  0
   36.3474   19.9562    7.8300 O   0  0  0  0  0  0  0  0  0  0  0  0
   36.4220   19.3361   10.1072 C   0  0  0  0  0  0  0  0  0  0  0  0
   36.5880   17.7237    8.3417 O   0  0  0  0  0  0  0  0  0  0  0  0
  1  2  1  0  0  0  0
  1  3  1  0  0  0  0
  1  4  1  0  0  0  0
M  END
>  <CHROM.1>
36.45294599,18.99779359,8.70988281,1.05405787,1.46416769,-1.60485538

>  <Name>
ligand

>  <RI>
0

>  <Rbt.Current_Directory>
/home/itssahil/PROJECTS/Mol_Feturizer/New_Systems/rnas/4FEN

>  <Rbt.Executable>
rbdock ($Id: //depot/dev/client3/rdock/2013.1/src/exe/rbdock.cxx#4 $)

>  <Rbt.Library>
libRbt.so (2013.1, Build901 2013/11/27)

>  <Rbt.Parameter_File>
/export/apps/rDock/src/rDock_2013.1_src/data/scripts/dock_solv.prm

>  <Rbt.Receptor>
prm/pocket_docking_4.prm

>  <SCORE>
-4.97736

>  <SCORE.INTER>
-4.97736

>  <SCORE.INTER.CONST>
1

>  <SCORE.INTER.POLAR>
0

>  <SCORE.INTER.ROT>
0

>  <SCORE.INTER.SOLV>
1.6055

>  <SCORE.INTER.VDW>
-7.45341

>  <SCORE.INTER.norm>
-1.24434

>  <SCORE.INTRA>
0

>  <SCORE.INTRA.DIHEDRAL>
0

>  <SCORE.INTRA.DIHEDRAL.0>
0

>  <SCORE.INTRA.POLAR>
0

>  <SCORE.INTRA.POLAR.0>
0

>  <SCORE.INTRA.REPUL>
0

>  <SCORE.INTRA.REPUL.0>
0

>  <SCORE.INTRA.SOLV>
0

>  <SCORE.INTRA.SOLV.lig_0>
0.449748

>  <SCORE.INTRA.VDW>
0

>  <SCORE.INTRA.VDW.0>
0

>  <SCORE.INTRA.norm>
0

>  <SCORE.RESTR>
0

>  <SCORE.RESTR.CAVITY>
0

>  <SCORE.RESTR.norm>
0

>  <SCORE.SYSTEM>
0

>  <SCORE.SYSTEM.CONST>
0

>  <SCORE.SYSTEM.DIHEDRAL>
0

>  <SCORE.SYSTEM.SOLV>
0

>  <SCORE.SYSTEM.norm>
0

>  <SCORE.heavy>
4

>  <SCORE.norm>
-1.24434

>  <RMSD>
2.076

$$$$
ligand
 OpenBabel11021811493D
libRbt.so/2013.1/901 2013/11/27
  4  3  0  0  0  0  0  0  0  0999 V2000
   36.4404   18.9886    8.6152 C   0  0  0  0  0  0  0  0  0  0  0  0
   36.2490   19.9811    7.8784 O   0  0  0  0  0  0  0  0  0  0  0  0
   36.5040   19.2601   10.1124 C   0  0  0  0  0  0  0  0  0  0  0  0
   36.5963   17.7374    8.2639 O   0  0  0  0  0  0  0  0  0  0  0  0
  1  2  1  0  0  0  0
  1  3  1  0  0  0  0
  1  4  1  0  0  0  0
M  END
>  <CHROM.1>
36.44696592,18.98762964,8.70158392,1.51414254,1.41367971,-2.01406322

>  <Name>
ligand

>  <RI>
0

>  <Rbt.Current_Directory>
/home/itssahil/PROJECTS/Mol_Feturizer/New_Systems/rnas/4FEN

>  <Rbt.Executable>
rbdock ($Id: //depot/dev/client3/rdock/2013.1/src/exe/rbdock.cxx#4 $)

>  <Rbt.Library>
libRbt.so (2013.1, Build901 2013/11/27)

>  <Rbt.Parameter_File>
/export/apps/rDock/src/rDock_2013.1_src/data/scripts/dock_solv.prm

>  <Rbt.Receptor>
prm/pocket_docking_5.prm

>  <SCORE>
-5.04695

>  <SCORE.INTER>
-5.04695

>  <SCORE.INTER.CONST>
1

>  <SCORE.INTER.POLAR>
0

>  <SCORE.INTER.ROT>
0

>  <SCORE.INTER.SOLV>
1.65031

>  <SCORE.INTER.VDW>
-7.51473

>  <SCORE.INTER.norm>
-1.26174

>  <SCORE.INTRA>
0

>  <SCORE.INTRA.DIHEDRAL>
0

>  <SCORE.INTRA.DIHEDRAL.0>
0

>  <SCORE.INTRA.POLAR>
0

>  <SCORE.INTRA.POLAR.0>
0

>  <SCORE.INTRA.REPUL>
0

>  <SCORE.INTRA.REPUL.0>
0

>  <SCORE.INTRA.SOLV>
0

>  <SCORE.INTRA.SOLV.lig_0>
0.449748

>  <SCORE.INTRA.VDW>
0

>  <SCORE.INTRA.VDW.0>
0

>  <SCORE.INTRA.norm>
0

>  <SCORE.RESTR>
0

>  <SCORE.RESTR.CAVITY>
0

>  <SCORE.RESTR.norm>
0

>  <SCORE.SYSTEM>
0

>  <SCORE.SYSTEM.CONST>
0

>  <SCORE.SYSTEM.DIHEDRAL>
0

>  <SCORE.SYSTEM.SOLV>
0

>  <SCORE.SYSTEM.norm>
0

>  <SCORE.heavy>
4

>  <SCORE.norm>
-1.26174

>  <RMSD>
2.076

$$$$
ligand
 OpenBabel11021811493D
libRbt.so/2013.1/901 2013/11/27
  4  3  0  0  0  0  0  0  0  0999 V2000
   36.4467   18.9844    8.6176 C   0  0  0  0  0  0  0  0  0  0  0  0
   36.2670   19.9764    7.8770 O   0  0  0  0  0  0  0  0  0  0  0  0
   36.4988   19.2589   10.1147 C   0  0  0  0  0  0  0  0  0  0  0  0
   36.5989   17.7316    8.2703 O   0  0  0  0  0  0  0  0  0  0  0  0
  1  2  1  0  0  0  0
  1  3  1  0  0  0  0
  1  4  1  0  0  0  0
M  END
>  <CHROM.1>
36.45253013,18.98362091,8.70402096,1.47719054,1.42209689,-1.97973105

>  <Name>
ligand

>  <RI>
0

>  <Rbt.Current_Directory>
/home/itssahil/PROJECTS/Mol_Feturizer/New_Systems/rnas/4FEN

>  <Rbt.Executable>
rbdock ($Id: //depot/dev/client3/rdock/2013.1/src/exe/rbdock.cxx#4 $)

>  <Rbt.Library>
libRbt.so (2013.1, Build901 2013/11/27)

>  <Rbt.Parameter_File>
/export/apps/rDock/src/rDock_2013.1_src/data/scripts/dock_solv.prm

>  <Rbt.Receptor>
prm/pocket_docking_5.prm

>  <SCORE>
-5.04831

>  <SCORE.INTER>
-5.04831

>  <SCORE.INTER.CONST>
1

>  <SCORE.INTER.POLAR>
0

>  <SCORE.INTER.ROT>
0

>  <SCORE.INTER.SOLV>
1.64381

>  <SCORE.INTER.VDW>
-7.51348

>  <SCORE.INTER.norm>
-1.26208

>  <SCORE.INTRA>
0

>  <SCORE.INTRA.DIHEDRAL>
0

>  <SCORE.INTRA.DIHEDRAL.0>
0

>  <SCORE.INTRA.POLAR>
0

>  <SCORE.INTRA.POLAR.0>
0

>  <SCORE.INTRA.REPUL>
0

>  <SCORE.INTRA.REPUL.0>
0

>  <SCORE.INTRA.SOLV>
0

>  <SCORE.INTRA.SOLV.lig_0>
0.449748

>  <SCORE.INTRA.VDW>
0

>  <SCORE.INTRA.VDW.0>
0

>  <SCORE.INTRA.norm>
0

>  <SCORE.RESTR>
0

>  <SCORE.RESTR.CAVITY>
0

>  <SCORE.RESTR.norm>
0

>  <SCORE.SYSTEM>
0

>  <SCORE.SYSTEM.CONST>
0

>  <SCORE.SYSTEM.DIHEDRAL>
0

>  <SCORE.SYSTEM.SOLV>
0

>  <SCORE.SYSTEM.norm>
0

>  <SCORE.heavy>
4

>  <SCORE.norm>
-1.26208

>  <RMSD>
2.076

$$$$
ligand
 OpenBabel11021811493D
libRbt.so/2013.1/901 2013/11/27
  4  3  0  0  0  0  0  0  0  0999 V2000
   36.4661   18.9832    8.6206 C   0  0  0  0  0  0  0  0  0  0  0  0
   36.2867   19.9805    7.8872 O   0  0  0  0  0  0  0  0  0  0  0  0
   36.4778   19.2408   10.1215 C   0  0  0  0  0  0  0  0  0  0  0  0
   36.6485   17.7374    8.2628 O   0  0  0  0  0  0  0  0  0  0  0  0
  1  2  1  0  0  0  0
  1  3  1  0  0  0  0
  1  4  1  0  0  0  0
M  END
>  <CHROM.1>
36.46989194,18.98144592,8.70708827,1.29312815,1.41286906,-1.78620165

>  <Name>
ligand

>  <RI>
0

>  <Rbt.Current_Directory>
/home/itssahil/PROJECTS/Mol_Feturizer/New_Systems/rnas/4FEN

>  <Rbt.Executable>
rbdock ($Id: //depot/dev/client3/rdock/2013.1/src/exe/rbdock.cxx#4 $)

>  <Rbt.Library>
libRbt.so (2013.1, Build901 2013/11/27)

>  <Rbt.Parameter_File>
/export/apps/rDock/src/rDock_2013.1_src/data/scripts/dock_solv.prm

>  <Rbt.Receptor>
prm/pocket_docking_6.prm

>  <SCORE>
-5.04147

>  <SCORE.INTER>
-5.04147

>  <SCORE.INTER.CONST>
1

>  <SCORE.INTER.POLAR>
0

>  <SCORE.INTER.ROT>
0

>  <SCORE.INTER.SOLV>
1.6279

>  <SCORE.INTER.VDW>
-7.50361

>  <SCORE.INTER.norm>
-1.26037

>  <SCORE.INTRA>
0

>  <SCORE.INTRA.DIHEDRAL>
0

>  <SCORE.INTRA.DIHEDRAL.0>
0

>  <SCORE.INTRA.POLAR>
0

>  <SCORE.INTRA.POLAR.0>
0

>  <SCORE.INTRA.REPUL>
0

>  <SCORE.INTRA.REPUL.0>
0

>  <SCORE.INTRA.SOLV>
0

>  <SCORE.INTRA.SOLV.lig_0>
0.449748

>  <SCORE.INTRA.VDW>
0

>  <SCORE.INTRA.VDW.0>
0

>  <SCORE.INTRA.norm>
0

>  <SCORE.RESTR>
0

>  <SCORE.RESTR.CAVITY>
0

>  <SCORE.RESTR.norm>
0

>  <SCORE.SYSTEM>
0

>  <SCORE.SYSTEM.CONST>
0

>  <SCORE.SYSTEM.DIHEDRAL>
0

>  <SCORE.SYSTEM.SOLV>
0

>  <SCORE.SYSTEM.norm>
0

>  <SCORE.heavy>
4

>  <SCORE.norm>
-1.26037

>  <RMSD>
2.076

$$$$
ligand
 OpenBabel11021811493D
libRbt.so/2013.1/901 2013/11/27
  4  3  0  0  0  0  0  0  0  0999 V2000
   36.4466   18.9856    8.6157 C   0  0  0  0  0  0  0  0  0  0  0  0
   36.2569   19.9810    7.8822 O   0  0  0  0  0  0  0  0  0  0  0  0
   36.4899   19.2490   10.1151 C   0  0  0  0  0  0  0  0  0  0  0  0
   36.6160   17.7376    8.2592 O   0  0  0  0  0  0  0  0  0  0  0  0
  1  2  1  0  0  0  0
  1  3  1  0  0  0  0
  1  4  1  0  0  0  0
M  END
>  <CHROM.1>
36.45211539,18.98424648,8.70213659,1.42454021,1.41159815,-1.91988731

>  <Name>
ligand

>  <RI>
0

>  <Rbt.Current_Directory>
/home/itssahil/PROJECTS/Mol_Feturizer/New_Systems/rnas/4FEN

>  <Rbt.Executable>
rbdock ($Id: //depot/dev/client3/rdock/2013.1/src/exe/rbdock.cxx#4 $)

>  <Rbt.Library>
libRbt.so (2013.1, Build901 2013/11/27)

>  <Rbt.Parameter_File>
/export/apps/rDock/src/rDock_2013.1_src/data/scripts/dock_solv.prm

>  <Rbt.Receptor>
prm/pocket_docking_8.prm

>  <SCORE>
-5.05068

>  <SCORE.INTER>
-5.05068

>  <SCORE.INTER.CONST>
1

>  <SCORE.INTER.POLAR>
0

>  <SCORE.INTER.ROT>
0

>  <SCORE.INTER.SOLV>
1.6427

>  <SCORE.INTER.VDW>
-7.51469

>  <SCORE.INTER.norm>
-1.26267

>  <SCORE.INTRA>
0

>  <SCORE.INTRA.DIHEDRAL>
0

>  <SCORE.INTRA.DIHEDRAL.0>
0

>  <SCORE.INTRA.POLAR>
0

>  <SCORE.INTRA.POLAR.0>
0

>  <SCORE.INTRA.REPUL>
0

>  <SCORE.INTRA.REPUL.0>
0

>  <SCORE.INTRA.SOLV>
0

>  <SCORE.INTRA.SOLV.lig_0>
0.449748

>  <SCORE.INTRA.VDW>
0

>  <SCORE.INTRA.VDW.0>
0

>  <SCORE.INTRA.norm>
0

>  <SCORE.RESTR>
0

>  <SCORE.RESTR.CAVITY>
0

>  <SCORE.RESTR.norm>
0

>  <SCORE.SYSTEM>
0

>  <SCORE.SYSTEM.CONST>
0

>  <SCORE.SYSTEM.DIHEDRAL>
0

>  <SCORE.SYSTEM.SOLV>
0

>  <SCORE.SYSTEM.norm>
0

>  <SCORE.heavy>
4

>  <SCORE.norm>
-1.26267

>  <RMSD>
2.076

$$$$
ligand
 OpenBabel11021811493D
libRbt.so/2013.1/901 2013/11/27
  4  3  0  0  0  0  0  0  0  0999 V2000
   36.4609   18.9600    8.6234 C   0  0  0  0  0  0  0  0  0  0  0  0
   36.6092   17.7646    8.2863 O   0  0  0  0  0  0  0  0  0  0  0  0
   36.4984   19.2508   10.1179 C   0  0  0  0  0  0  0  0  0  0  0  0
   36.2743   20.0015    7.8528 O   0  0  0  0  0  0  0  0  0  0  0  0
  1  2  1  0  0  0  0
  1  3  1  0  0  0  0
  1  4  1  0  0  0  0
M  END
>  <CHROM.1>
36.46008171,18.99233823,8.70381897,-2.06529961,-1.42272114,1.20961929

>  <Name>
ligand

>  <RI>
0

>  <Rbt.Current_Directory>
/home/itssahil/PROJECTS/Mol_Feturizer/New_Systems/rnas/4FEN

>  <Rbt.Executable>
rbdock ($Id: //depot/dev/client3/rdock/2013.1/src/exe/rbdock.cxx#4 $)

>  <Rbt.Library>
libRbt.so (2013.1, Build901 2013/11/27)

>  <Rbt.Parameter_File>
/export/apps/rDock/src/rDock_2013.1_src/data/scripts/dock_solv.prm

>  <Rbt.Receptor>
prm/pocket_docking_8.prm

>  <SCORE>
-5.05327

>  <SCORE.INTER>
-5.05327

>  <SCORE.INTER.CONST>
1

>  <SCORE.INTER.POLAR>
0

>  <SCORE.INTER.ROT>
0

>  <SCORE.INTER.SOLV>
1.63761

>  <SCORE.INTER.VDW>
-7.51472

>  <SCORE.INTER.norm>
-1.26332

>  <SCORE.INTRA>
0

>  <SCORE.INTRA.DIHEDRAL>
0

>  <SCORE.INTRA.DIHEDRAL.0>
0

>  <SCORE.INTRA.POLAR>
0

>  <SCORE.INTRA.POLAR.0>
0

>  <SCORE.INTRA.REPUL>
0

>  <SCORE.INTRA.REPUL.0>
0

>  <SCORE.INTRA.SOLV>
0

>  <SCORE.INTRA.SOLV.lig_0>
0.449748

>  <SCORE.INTRA.VDW>
0

>  <SCORE.INTRA.VDW.0>
0

>  <SCORE.INTRA.norm>
0

>  <SCORE.RESTR>
0

>  <SCORE.RESTR.CAVITY>
0

>  <SCORE.RESTR.norm>
0

>  <SCORE.SYSTEM>
0

>  <SCORE.SYSTEM.CONST>
0

>  <SCORE.SYSTEM.DIHEDRAL>
0

>  <SCORE.SYSTEM.SOLV>
0

>  <SCORE.SYSTEM.norm>
0

>  <SCORE.heavy>
4

>  <SCORE.norm>
-1.26332

>  <RMSD>
2.076

$$$$
ligand
 OpenBabel11021811493D
libRbt.so/2013.1/901 2013/11/27
  4  3  0  0  0  0  0  0  0  0999 V2000
   36.4514   18.9839    8.6188 C   0  0  0  0  0  0  0  0  0  0  0  0
   36.2463   19.9747    7.8832 O   0  0  0  0  0  0  0  0  0  0  0  0
   36.5082   19.2539   10.1165 C   0  0  0  0  0  0  0  0  0  0  0  0
   36.6267   17.7358    8.2657 O   0  0  0  0  0  0  0  0  0  0  0  0
  1  2  1  0  0  0  0
  1  3  1  0  0  0  0
  1  4  1  0  0  0  0
M  END
>  <CHROM.1>
36.45780967,18.98289425,8.70514848,1.46675356,1.40063246,-1.96566435

>  <Name>
ligand

>  <RI>
0

>  <Rbt.Current_Directory>
/home/itssahil/PROJECTS/Mol_Feturizer/New_Systems/rnas/4FEN

>  <Rbt.Executable>
rbdock ($Id: //depot/dev/client3/rdock/2013.1/src/exe/rbdock.cxx#4 $)

>  <Rbt.Library>
libRbt.so (2013.1, Build901 2013/11/27)

>  <Rbt.Parameter_File>
/export/apps/rDock/src/rDock_2013.1_src/data/scripts/dock_solv.prm

>  <Rbt.Receptor>
prm/pocket_docking_8.prm

>  <SCORE>
-5.05122

>  <SCORE.INTER>
-5.05122

>  <SCORE.INTER.CONST>
1

>  <SCORE.INTER.POLAR>
0

>  <SCORE.INTER.ROT>
0

>  <SCORE.INTER.SOLV>
1.64615

>  <SCORE.INTER.VDW>
-7.5162

>  <SCORE.INTER.norm>
-1.26281

>  <SCORE.INTRA>
0

>  <SCORE.INTRA.DIHEDRAL>
0

>  <SCORE.INTRA.DIHEDRAL.0>
0

>  <SCORE.INTRA.POLAR>
0

>  <SCORE.INTRA.POLAR.0>
0

>  <SCORE.INTRA.REPUL>
0

>  <SCORE.INTRA.REPUL.0>
0

>  <SCORE.INTRA.SOLV>
0

>  <SCORE.INTRA.SOLV.lig_0>
0.449748

>  <SCORE.INTRA.VDW>
0

>  <SCORE.INTRA.VDW.0>
0

>  <SCORE.INTRA.norm>
0

>  <SCORE.RESTR>
0

>  <SCORE.RESTR.CAVITY>
0

>  <SCORE.RESTR.norm>
0

>  <SCORE.SYSTEM>
0

>  <SCORE.SYSTEM.CONST>
0

>  <SCORE.SYSTEM.DIHEDRAL>
0

>  <SCORE.SYSTEM.SOLV>
0

>  <SCORE.SYSTEM.norm>
0

>  <SCORE.heavy>
4

>  <SCORE.norm>
-1.26281

>  <RMSD>
2.077

$$$$
ligand
 OpenBabel11021811493D
libRbt.so/2013.1/901 2013/11/27
  4  3  0  0  0  0  0  0  0  0999 V2000
   36.4669   18.9604    8.6211 C   0  0  0  0  0  0  0  0  0  0  0  0
   36.5958   17.7611    8.2899 O   0  0  0  0  0  0  0  0  0  0  0  0
   36.4884   19.2555   10.1150 C   0  0  0  0  0  0  0  0  0  0  0  0
   36.3128   20.0028    7.8445 O   0  0  0  0  0  0  0  0  0  0  0  0
  1  2  1  0  0  0  0
  1  3  1  0  0  0  0
  1  4  1  0  0  0  0
M  END
>  <CHROM.1>
36.46554682,18.99301931,8.70132096,-2.01228881,-1.44674431,1.25888008

>  <Name>
ligand

>  <RI>
0

>  <Rbt.Current_Directory>
/home/itssahil/PROJECTS/Mol_Feturizer/New_Systems/rnas/4FEN

>  <Rbt.Executable>
rbdock ($Id: //depot/dev/client3/rdock/2013.1/src/exe/rbdock.cxx#4 $)

>  <Rbt.Library>
libRbt.so (2013.1, Build901 2013/11/27)

>  <Rbt.Parameter_File>
/export/apps/rDock/src/rDock_2013.1_src/data/scripts/dock_solv.prm

>  <Rbt.Receptor>
prm/pocket_docking_5.prm

>  <SCORE>
-5.06652

>  <SCORE.INTER>
-5.06652

>  <SCORE.INTER.CONST>
1

>  <SCORE.INTER.POLAR>
0

>  <SCORE.INTER.ROT>
0

>  <SCORE.INTER.SOLV>
1.63313

>  <SCORE.INTER.VDW>
-7.52206

>  <SCORE.INTER.norm>
-1.26663

>  <SCORE.INTRA>
0

>  <SCORE.INTRA.DIHEDRAL>
0

>  <SCORE.INTRA.DIHEDRAL.0>
0

>  <SCORE.INTRA.POLAR>
0

>  <SCORE.INTRA.POLAR.0>
0

>  <SCORE.INTRA.REPUL>
0

>  <SCORE.INTRA.REPUL.0>
0

>  <SCORE.INTRA.SOLV>
0

>  <SCORE.INTRA.SOLV.lig_0>
0.449748

>  <SCORE.INTRA.VDW>
0

>  <SCORE.INTRA.VDW.0>
0

>  <SCORE.INTRA.norm>
0

>  <SCORE.RESTR>
0

>  <SCORE.RESTR.CAVITY>
0

>  <SCORE.RESTR.norm>
0

>  <SCORE.SYSTEM>
0

>  <SCORE.SYSTEM.CONST>
0

>  <SCORE.SYSTEM.DIHEDRAL>
0

>  <SCORE.SYSTEM.SOLV>
0

>  <SCORE.SYSTEM.norm>
0

>  <SCORE.heavy>
4

>  <SCORE.norm>
-1.26663

>  <RMSD>
2.078

$$$$
ligand
 OpenBabel11021811493D
libRbt.so/2013.1/901 2013/11/27
  4  3  0  0  0  0  0  0  0  0999 V2000
   36.4617   18.9589    8.6236 C   0  0  0  0  0  0  0  0  0  0  0  0
   36.6108   17.7628    8.2893 O   0  0  0  0  0  0  0  0  0  0  0  0
   36.5143   19.2553   10.1165 C   0  0  0  0  0  0  0  0  0  0  0  0
   36.2629   19.9968    7.8513 O   0  0  0  0  0  0  0  0  0  0  0  0
  1  2  1  0  0  0  0
  1  3  1  0  0  0  0
  1  4  1  0  0  0  0
M  END
>  <CHROM.1>
36.46162978,18.99147744,8.70388606,-2.12234913,-1.41520454,1.14956405

>  <Name>
ligand

>  <RI>
0

>  <Rbt.Current_Directory>
/home/itssahil/PROJECTS/Mol_Feturizer/New_Systems/rnas/4FEN

>  <Rbt.Executable>
rbdock ($Id: //depot/dev/client3/rdock/2013.1/src/exe/rbdock.cxx#4 $)

>  <Rbt.Library>
libRbt.so (2013.1, Build901 2013/11/27)

>  <Rbt.Parameter_File>
/export/apps/rDock/src/rDock_2013.1_src/data/scripts/dock_solv.prm

>  <Rbt.Receptor>
prm/pocket_docking_6.prm

>  <SCORE>
-5.05151

>  <SCORE.INTER>
-5.05151

>  <SCORE.INTER.CONST>
1

>  <SCORE.INTER.POLAR>
0

>  <SCORE.INTER.ROT>
0

>  <SCORE.INTER.SOLV>
1.64377

>  <SCORE.INTER.VDW>
-7.5156

>  <SCORE.INTER.norm>
-1.26288

>  <SCORE.INTRA>
0

>  <SCORE.INTRA.DIHEDRAL>
0

>  <SCORE.INTRA.DIHEDRAL.0>
0

>  <SCORE.INTRA.POLAR>
0

>  <SCORE.INTRA.POLAR.0>
0

>  <SCORE.INTRA.REPUL>
0

>  <SCORE.INTRA.REPUL.0>
0

>  <SCORE.INTRA.SOLV>
0

>  <SCORE.INTRA.SOLV.lig_0>
0.449748

>  <SCORE.INTRA.VDW>
0

>  <SCORE.INTRA.VDW.0>
0

>  <SCORE.INTRA.norm>
0

>  <SCORE.RESTR>
0

>  <SCORE.RESTR.CAVITY>
0

>  <SCORE.RESTR.norm>
0

>  <SCORE.SYSTEM>
0

>  <SCORE.SYSTEM.CONST>
0

>  <SCORE.SYSTEM.DIHEDRAL>
0

>  <SCORE.SYSTEM.SOLV>
0

>  <SCORE.SYSTEM.norm>
0

>  <SCORE.heavy>
4

>  <SCORE.norm>
-1.26288

>  <RMSD>
2.078

$$$$
ligand
 OpenBabel11021811493D
libRbt.so/2013.1/901 2013/11/27
  4  3  0  0  0  0  0  0  0  0999 V2000
   36.4470   18.9892    8.6129 C   0  0  0  0  0  0  0  0  0  0  0  0
   36.2544   19.9829    7.8778 O   0  0  0  0  0  0  0  0  0  0  0  0
   36.5079   19.2579   10.1107 C   0  0  0  0  0  0  0  0  0  0  0  0
   36.6061   17.7391    8.2592 O   0  0  0  0  0  0  0  0  0  0  0  0
  1  2  1  0  0  0  0
  1  3  1  0  0  0  0
  1  4  1  0  0  0  0
M  END
>  <CHROM.1>
36.45340726,18.98813286,8.69926727,1.50041388,1.41226367,-1.99848152

>  <Name>
ligand

>  <RI>
0

>  <Rbt.Current_Directory>
/home/itssahil/PROJECTS/Mol_Feturizer/New_Systems/rnas/4FEN

>  <Rbt.Executable>
rbdock ($Id: //depot/dev/client3/rdock/2013.1/src/exe/rbdock.cxx#4 $)

>  <Rbt.Library>
libRbt.so (2013.1, Build901 2013/11/27)

>  <Rbt.Parameter_File>
/export/apps/rDock/src/rDock_2013.1_src/data/scripts/dock_solv.prm

>  <Rbt.Receptor>
prm/pocket_docking_6.prm

>  <SCORE>
-5.04884

>  <SCORE.INTER>
-5.04884

>  <SCORE.INTER.CONST>
1

>  <SCORE.INTER.POLAR>
0

>  <SCORE.INTER.ROT>
0

>  <SCORE.INTER.SOLV>
1.65216

>  <SCORE.INTER.VDW>
-7.51661

>  <SCORE.INTER.norm>
-1.26221

>  <SCORE.INTRA>
0

>  <SCORE.INTRA.DIHEDRAL>
0

>  <SCORE.INTRA.DIHEDRAL.0>
0

>  <SCORE.INTRA.POLAR>
0

>  <SCORE.INTRA.POLAR.0>
0

>  <SCORE.INTRA.REPUL>
0

>  <SCORE.INTRA.REPUL.0>
0

>  <SCORE.INTRA.SOLV>
0

>  <SCORE.INTRA.SOLV.lig_0>
0.449748

>  <SCORE.INTRA.VDW>
0

>  <SCORE.INTRA.VDW.0>
0

>  <SCORE.INTRA.norm>
0

>  <SCORE.RESTR>
0

>  <SCORE.RESTR.CAVITY>
0

>  <SCORE.RESTR.norm>
0

>  <SCORE.SYSTEM>
0

>  <SCORE.SYSTEM.CONST>
0

>  <SCORE.SYSTEM.DIHEDRAL>
0

>  <SCORE.SYSTEM.SOLV>
0

>  <SCORE.SYSTEM.norm>
0

>  <SCORE.heavy>
4

>  <SCORE.norm>
-1.26221

>  <RMSD>
2.078

$$$$
ligand
 OpenBabel11021811493D
libRbt.so/2013.1/901 2013/11/27
  4  3  0  0  0  0  0  0  0  0999 V2000
   36.4533   18.9928    8.6132 C   0  0  0  0  0  0  0  0  0  0  0  0
   36.2603   19.9848    7.8760 O   0  0  0  0  0  0  0  0  0  0  0  0
   36.4925   19.2615   10.1118 C   0  0  0  0  0  0  0  0  0  0  0  0
   36.6293   17.7445    8.2613 O   0  0  0  0  0  0  0  0  0  0  0  0
  1  2  1  0  0  0  0
  1  3  1  0  0  0  0
  1  4  1  0  0  0  0
M  END
>  <CHROM.1>
36.45867965,18.99175797,8.69969412,1.40354099,1.40779072,-1.90252459

>  <Name>
ligand

>  <RI>
0

>  <Rbt.Current_Directory>
/home/itssahil/PROJECTS/Mol_Feturizer/New_Systems/rnas/4FEN

>  <Rbt.Executable>
rbdock ($Id: //depot/dev/client3/rdock/2013.1/src/exe/rbdock.cxx#4 $)

>  <Rbt.Library>
libRbt.so (2013.1, Build901 2013/11/27)

>  <Rbt.Parameter_File>
/export/apps/rDock/src/rDock_2013.1_src/data/scripts/dock_solv.prm

>  <Rbt.Receptor>
prm/pocket_docking_6.prm

>  <SCORE>
-5.05368

>  <SCORE.INTER>
-5.05368

>  <SCORE.INTER.CONST>
1

>  <SCORE.INTER.POLAR>
0

>  <SCORE.INTER.ROT>
0

>  <SCORE.INTER.SOLV>
1.64453

>  <SCORE.INTER.VDW>
-7.5173

>  <SCORE.INTER.norm>
-1.26342

>  <SCORE.INTRA>
0

>  <SCORE.INTRA.DIHEDRAL>
0

>  <SCORE.INTRA.DIHEDRAL.0>
0

>  <SCORE.INTRA.POLAR>
0

>  <SCORE.INTRA.POLAR.0>
0

>  <SCORE.INTRA.REPUL>
0

>  <SCORE.INTRA.REPUL.0>
0

>  <SCORE.INTRA.SOLV>
0

>  <SCORE.INTRA.SOLV.lig_0>
0.449748

>  <SCORE.INTRA.VDW>
0

>  <SCORE.INTRA.VDW.0>
0

>  <SCORE.INTRA.norm>
0

>  <SCORE.RESTR>
0

>  <SCORE.RESTR.CAVITY>
0

>  <SCORE.RESTR.norm>
0

>  <SCORE.SYSTEM>
0

>  <SCORE.SYSTEM.CONST>
0

>  <SCORE.SYSTEM.DIHEDRAL>
0

>  <SCORE.SYSTEM.SOLV>
0

>  <SCORE.SYSTEM.norm>
0

>  <SCORE.heavy>
4

>  <SCORE.norm>
-1.26342

>  <RMSD>
2.078

$$$$
ligand
 OpenBabel11021811493D
libRbt.so/2013.1/901 2013/11/27
  4  3  0  0  0  0  0  0  0  0999 V2000
   36.4571   18.9930    8.6144 C   0  0  0  0  0  0  0  0  0  0  0  0
   36.2554   19.9848    7.8793 O   0  0  0  0  0  0  0  0  0  0  0  0
   36.4904   19.2583   10.1137 C   0  0  0  0  0  0  0  0  0  0  0  0
   36.6467   17.7474    8.2598 O   0  0  0  0  0  0  0  0  0  0  0  0
  1  2  1  0  0  0  0
  1  3  1  0  0  0  0
  1  4  1  0  0  0  0
M  END
>  <CHROM.1>
36.46229652,18.99178798,8.70090106,1.37239354,1.39864513,-1.86930132

>  <Name>
ligand

>  <RI>
0

>  <Rbt.Current_Directory>
/home/itssahil/PROJECTS/Mol_Feturizer/New_Systems/rnas/4FEN

>  <Rbt.Executable>
rbdock ($Id: //depot/dev/client3/rdock/2013.1/src/exe/rbdock.cxx#4 $)

>  <Rbt.Library>
libRbt.so (2013.1, Build901 2013/11/27)

>  <Rbt.Parameter_File>
/export/apps/rDock/src/rDock_2013.1_src/data/scripts/dock_solv.prm

>  <Rbt.Receptor>
prm/pocket_docking_8.prm

>  <SCORE>
-5.05209

>  <SCORE.INTER>
-5.05209

>  <SCORE.INTER.CONST>
1

>  <SCORE.INTER.POLAR>
0

>  <SCORE.INTER.ROT>
0

>  <SCORE.INTER.SOLV>
1.64199

>  <SCORE.INTER.VDW>
-7.51539

>  <SCORE.INTER.norm>
-1.26302

>  <SCORE.INTRA>
0

>  <SCORE.INTRA.DIHEDRAL>
0

>  <SCORE.INTRA.DIHEDRAL.0>
0

>  <SCORE.INTRA.POLAR>
0

>  <SCORE.INTRA.POLAR.0>
0

>  <SCORE.INTRA.REPUL>
0

>  <SCORE.INTRA.REPUL.0>
0

>  <SCORE.INTRA.SOLV>
0

>  <SCORE.INTRA.SOLV.lig_0>
0.449748

>  <SCORE.INTRA.VDW>
0

>  <SCORE.INTRA.VDW.0>
0

>  <SCORE.INTRA.norm>
0

>  <SCORE.RESTR>
0

>  <SCORE.RESTR.CAVITY>
0

>  <SCORE.RESTR.norm>
0

>  <SCORE.SYSTEM>
0

>  <SCORE.SYSTEM.CONST>
0

>  <SCORE.SYSTEM.DIHEDRAL>
0

>  <SCORE.SYSTEM.SOLV>
0

>  <SCORE.SYSTEM.norm>
0

>  <SCORE.heavy>
4

>  <SCORE.norm>
-1.26302

>  <RMSD>
2.078

$$$$
ligand
 OpenBabel11021811493D
libRbt.so/2013.1/901 2013/11/27
  4  3  0  0  0  0  0  0  0  0999 V2000
   36.4686   18.9577    8.6217 C   0  0  0  0  0  0  0  0  0  0  0  0
   36.5955   17.7592    8.2868 O   0  0  0  0  0  0  0  0  0  0  0  0
   36.4898   19.2480   10.1166 C   0  0  0  0  0  0  0  0  0  0  0  0
   36.3169   20.0028    7.8484 O   0  0  0  0  0  0  0  0  0  0  0  0
  1  2  1  0  0  0  0
  1  3  1  0  0  0  0
  1  4  1  0  0  0  0
M  END
>  <CHROM.1>
36.46726535,18.99002383,8.70206455,-2.01256557,-1.44869462,1.26178231

>  <Name>
ligand

>  <RI>
0

>  <Rbt.Current_Directory>
/home/itssahil/PROJECTS/Mol_Feturizer/New_Systems/rnas/4FEN

>  <Rbt.Executable>
rbdock ($Id: //depot/dev/client3/rdock/2013.1/src/exe/rbdock.cxx#4 $)

>  <Rbt.Library>
libRbt.so (2013.1, Build901 2013/11/27)

>  <Rbt.Parameter_File>
/export/apps/rDock/src/rDock_2013.1_src/data/scripts/dock_solv.prm

>  <Rbt.Receptor>
prm/pocket_docking_8.prm

>  <SCORE>
-5.0636

>  <SCORE.INTER>
-5.0636

>  <SCORE.INTER.CONST>
1

>  <SCORE.INTER.POLAR>
0

>  <SCORE.INTER.ROT>
0

>  <SCORE.INTER.SOLV>
1.63218

>  <SCORE.INTER.VDW>
-7.51979

>  <SCORE.INTER.norm>
-1.2659

>  <SCORE.INTRA>
0

>  <SCORE.INTRA.DIHEDRAL>
0

>  <SCORE.INTRA.DIHEDRAL.0>
0

>  <SCORE.INTRA.POLAR>
0

>  <SCORE.INTRA.POLAR.0>
0

>  <SCORE.INTRA.REPUL>
0

>  <SCORE.INTRA.REPUL.0>
0

>  <SCORE.INTRA.SOLV>
0

>  <SCORE.INTRA.SOLV.lig_0>
0.449748

>  <SCORE.INTRA.VDW>
0

>  <SCORE.INTRA.VDW.0>
0

>  <SCORE.INTRA.norm>
0

>  <SCORE.RESTR>
0

>  <SCORE.RESTR.CAVITY>
0

>  <SCORE.RESTR.norm>
0

>  <SCORE.SYSTEM>
0

>  <SCORE.SYSTEM.CONST>
0

>  <SCORE.SYSTEM.DIHEDRAL>
0

>  <SCORE.SYSTEM.SOLV>
0

>  <SCORE.SYSTEM.norm>
0

>  <SCORE.heavy>
4

>  <SCORE.norm>
-1.2659

>  <RMSD>
2.078

$$$$
ligand
 OpenBabel11021811493D
libRbt.so/2013.1/901 2013/11/27
  4  3  0  0  0  0  0  0  0  0999 V2000
   36.5696   18.4934    9.0259 C   0  0  0  0  0  0  0  0  0  0  0  0
   36.9627   18.2263   10.1830 O   0  0  0  0  0  0  0  0  0  0  0  0
   35.7983   19.7958    8.8576 C   0  0  0  0  0  0  0  0  0  0  0  0
   36.7345   17.7927    7.9327 O   0  0  0  0  0  0  0  0  0  0  0  0
  1  2  1  0  0  0  0
  1  3  1  0  0  0  0
  1  4  1  0  0  0  0
M  END
>  <CHROM.1>
36.52439534,18.56275180,9.00033802,-0.51980463,-1.02868245,1.21435369

>  <Name>
ligand

>  <RI>
0

>  <Rbt.Current_Directory>
/home/itssahil/PROJECTS/Mol_Feturizer/New_Systems/rnas/4FEN

>  <Rbt.Executable>
rbdock ($Id: //depot/dev/client3/rdock/2013.1/src/exe/rbdock.cxx#4 $)

>  <Rbt.Library>
libRbt.so (2013.1, Build901 2013/11/27)

>  <Rbt.Parameter_File>
/export/apps/rDock/src/rDock_2013.1_src/data/scripts/dock_solv.prm

>  <Rbt.Receptor>
prm/pocket_docking_8.prm

>  <SCORE>
-4.95462

>  <SCORE.INTER>
-4.95478

>  <SCORE.INTER.CONST>
1

>  <SCORE.INTER.POLAR>
0

>  <SCORE.INTER.ROT>
0

>  <SCORE.INTER.SOLV>
1.61779

>  <SCORE.INTER.VDW>
-7.44245

>  <SCORE.INTER.norm>
-1.2387

>  <SCORE.INTRA>
0

>  <SCORE.INTRA.DIHEDRAL>
0

>  <SCORE.INTRA.DIHEDRAL.0>
0

>  <SCORE.INTRA.POLAR>
0

>  <SCORE.INTRA.POLAR.0>
0

>  <SCORE.INTRA.REPUL>
0

>  <SCORE.INTRA.REPUL.0>
0

>  <SCORE.INTRA.SOLV>
0

>  <SCORE.INTRA.SOLV.lig_0>
0.449748

>  <SCORE.INTRA.VDW>
0

>  <SCORE.INTRA.VDW.0>
0

>  <SCORE.INTRA.norm>
0

>  <SCORE.RESTR>
0.000158574

>  <SCORE.RESTR.CAVITY>
0.000158574

>  <SCORE.RESTR.norm>
3.96434e-05

>  <SCORE.SYSTEM>
0

>  <SCORE.SYSTEM.CONST>
0

>  <SCORE.SYSTEM.DIHEDRAL>
0

>  <SCORE.SYSTEM.SOLV>
0

>  <SCORE.SYSTEM.norm>
0

>  <SCORE.heavy>
4

>  <SCORE.norm>
-1.23866

>  <RMSD>
2.078

$$$$
ligand
 OpenBabel11021811493D
libRbt.so/2013.1/901 2013/11/27
  4  3  0  0  0  0  0  0  0  0999 V2000
   36.4628   18.9553    8.6253 C   0  0  0  0  0  0  0  0  0  0  0  0
   36.6274   17.7608    8.2924 O   0  0  0  0  0  0  0  0  0  0  0  0
   36.5035   19.2528   10.1184 C   0  0  0  0  0  0  0  0  0  0  0  0
   36.2567   19.9906    7.8515 O   0  0  0  0  0  0  0  0  0  0  0  0
  1  2  1  0  0  0  0
  1  3  1  0  0  0  0
  1  4  1  0  0  0  0
M  END
>  <CHROM.1>
36.46191637,18.98788567,8.70559383,-2.06176235,-1.40691076,1.20900108

>  <Name>
ligand

>  <RI>
0

>  <Rbt.Current_Directory>
/home/itssahil/PROJECTS/Mol_Feturizer/New_Systems/rnas/4FEN

>  <Rbt.Executable>
rbdock ($Id: //depot/dev/client3/rdock/2013.1/src/exe/rbdock.cxx#4 $)

>  <Rbt.Library>
libRbt.so (2013.1, Build901 2013/11/27)

>  <Rbt.Parameter_File>
/export/apps/rDock/src/rDock_2013.1_src/data/scripts/dock_solv.prm

>  <Rbt.Receptor>
prm/pocket_docking_8.prm

>  <SCORE>
-5.05161

>  <SCORE.INTER>
-5.05161

>  <SCORE.INTER.CONST>
1

>  <SCORE.INTER.POLAR>
0

>  <SCORE.INTER.ROT>
0

>  <SCORE.INTER.SOLV>
1.63804

>  <SCORE.INTER.VDW>
-7.51375

>  <SCORE.INTER.norm>
-1.2629

>  <SCORE.INTRA>
0

>  <SCORE.INTRA.DIHEDRAL>
0

>  <SCORE.INTRA.DIHEDRAL.0>
0

>  <SCORE.INTRA.POLAR>
0

>  <SCORE.INTRA.POLAR.0>
0

>  <SCORE.INTRA.REPUL>
0

>  <SCORE.INTRA.REPUL.0>
0

>  <SCORE.INTRA.SOLV>
0

>  <SCORE.INTRA.SOLV.lig_0>
0.449748

>  <SCORE.INTRA.VDW>
0

>  <SCORE.INTRA.VDW.0>
0

>  <SCORE.INTRA.norm>
0

>  <SCORE.RESTR>
0

>  <SCORE.RESTR.CAVITY>
0

>  <SCORE.RESTR.norm>
0

>  <SCORE.SYSTEM>
0

>  <SCORE.SYSTEM.CONST>
0

>  <SCORE.SYSTEM.DIHEDRAL>
0

>  <SCORE.SYSTEM.SOLV>
0

>  <SCORE.SYSTEM.norm>
0

>  <SCORE.heavy>
4

>  <SCORE.norm>
-1.2629

>  <RMSD>
2.078

$$$$
ligand
 OpenBabel11021811493D
libRbt.so/2013.1/901 2013/11/27
  4  3  0  0  0  0  0  0  0  0999 V2000
   36.4664   18.9262    8.6415 C   0  0  0  0  0  0  0  0  0  0  0  0
   36.5930   17.7238    8.3206 O   0  0  0  0  0  0  0  0  0  0  0  0
   36.5225   19.2379   10.1312 C   0  0  0  0  0  0  0  0  0  0  0  0
   36.2887   19.9591    7.8575 O   0  0  0  0  0  0  0  0  0  0  0  0
  1  2  1  0  0  0  0
  1  3  1  0  0  0  0
  1  4  1  0  0  0  0
M  END
>  <CHROM.1>
36.46682874,18.95962566,8.72141352,-2.16941923,-1.43316384,1.09201375

>  <Name>
ligand

>  <RI>
0

>  <Rbt.Current_Directory>
/home/itssahil/PROJECTS/Mol_Feturizer/New_Systems/rnas/4FEN

>  <Rbt.Executable>
rbdock ($Id: //depot/dev/client3/rdock/2013.1/src/exe/rbdock.cxx#4 $)

>  <Rbt.Library>
libRbt.so (2013.1, Build901 2013/11/27)

>  <Rbt.Parameter_File>
/export/apps/rDock/src/rDock_2013.1_src/data/scripts/dock_solv.prm

>  <Rbt.Receptor>
prm/pocket_docking_4.prm

>  <SCORE>
-5.0063

>  <SCORE.INTER>
-5.0063

>  <SCORE.INTER.CONST>
1

>  <SCORE.INTER.POLAR>
0

>  <SCORE.INTER.ROT>
0

>  <SCORE.INTER.SOLV>
1.62649

>  <SCORE.INTER.VDW>
-7.47969

>  <SCORE.INTER.norm>
-1.25157

>  <SCORE.INTRA>
0

>  <SCORE.INTRA.DIHEDRAL>
0

>  <SCORE.INTRA.DIHEDRAL.0>
0

>  <SCORE.INTRA.POLAR>
0

>  <SCORE.INTRA.POLAR.0>
0

>  <SCORE.INTRA.REPUL>
0

>  <SCORE.INTRA.REPUL.0>
0

>  <SCORE.INTRA.SOLV>
0

>  <SCORE.INTRA.SOLV.lig_0>
0.449748

>  <SCORE.INTRA.VDW>
0

>  <SCORE.INTRA.VDW.0>
0

>  <SCORE.INTRA.norm>
0

>  <SCORE.RESTR>
0

>  <SCORE.RESTR.CAVITY>
0

>  <SCORE.RESTR.norm>
0

>  <SCORE.SYSTEM>
0

>  <SCORE.SYSTEM.CONST>
0

>  <SCORE.SYSTEM.DIHEDRAL>
0

>  <SCORE.SYSTEM.SOLV>
0

>  <SCORE.SYSTEM.norm>
0

>  <SCORE.heavy>
4

>  <SCORE.norm>
-1.25157

>  <RMSD>
2.079

$$$$
ligand
 OpenBabel11021811493D
libRbt.so/2013.1/901 2013/11/27
  4  3  0  0  0  0  0  0  0  0999 V2000
   36.4830   18.9303    8.6411 C   0  0  0  0  0  0  0  0  0  0  0  0
   36.5804   17.7256    8.3187 O   0  0  0  0  0  0  0  0  0  0  0  0
   36.5244   19.2366   10.1323 C   0  0  0  0  0  0  0  0  0  0  0  0
   36.3471   19.9698    7.8574 O   0  0  0  0  0  0  0  0  0  0  0  0
  1  2  1  0  0  0  0
  1  3  1  0  0  0  0
  1  4  1  0  0  0  0
M  END
>  <CHROM.1>
36.48312240,18.96351005,8.72107207,-2.16118262,-1.46567410,1.10287605

>  <Name>
ligand

>  <RI>
0

>  <Rbt.Current_Directory>
/home/itssahil/PROJECTS/Mol_Feturizer/New_Systems/rnas/4FEN

>  <Rbt.Executable>
rbdock ($Id: //depot/dev/client3/rdock/2013.1/src/exe/rbdock.cxx#4 $)

>  <Rbt.Library>
libRbt.so (2013.1, Build901 2013/11/27)

>  <Rbt.Parameter_File>
/export/apps/rDock/src/rDock_2013.1_src/data/scripts/dock_solv.prm

>  <Rbt.Receptor>
prm/pocket_docking_4.prm

>  <SCORE>
-5.02415

>  <SCORE.INTER>
-5.02415

>  <SCORE.INTER.CONST>
1

>  <SCORE.INTER.POLAR>
0

>  <SCORE.INTER.ROT>
0

>  <SCORE.INTER.SOLV>
1.62141

>  <SCORE.INTER.VDW>
-7.4899

>  <SCORE.INTER.norm>
-1.25604

>  <SCORE.INTRA>
0

>  <SCORE.INTRA.DIHEDRAL>
0

>  <SCORE.INTRA.DIHEDRAL.0>
0

>  <SCORE.INTRA.POLAR>
0

>  <SCORE.INTRA.POLAR.0>
0

>  <SCORE.INTRA.REPUL>
0

>  <SCORE.INTRA.REPUL.0>
0

>  <SCORE.INTRA.SOLV>
0

>  <SCORE.INTRA.SOLV.lig_0>
0.449748

>  <SCORE.INTRA.VDW>
0

>  <SCORE.INTRA.VDW.0>
0

>  <SCORE.INTRA.norm>
0

>  <SCORE.RESTR>
0

>  <SCORE.RESTR.CAVITY>
0

>  <SCORE.RESTR.norm>
0

>  <SCORE.SYSTEM>
0

>  <SCORE.SYSTEM.CONST>
0

>  <SCORE.SYSTEM.DIHEDRAL>
0

>  <SCORE.SYSTEM.SOLV>
0

>  <SCORE.SYSTEM.norm>
0

>  <SCORE.heavy>
4

>  <SCORE.norm>
-1.25604

>  <RMSD>
2.079

$$$$
ligand
 OpenBabel11021811493D
libRbt.so/2013.1/901 2013/11/27
  4  3  0  0  0  0  0  0  0  0999 V2000
   36.4648   18.9465    8.6390 C   0  0  0  0  0  0  0  0  0  0  0  0
   36.3137   19.9322    7.8838 O   0  0  0  0  0  0  0  0  0  0  0  0
   36.4814   19.2364   10.1340 C   0  0  0  0  0  0  0  0  0  0  0  0
   36.6137   17.6888    8.3087 O   0  0  0  0  0  0  0  0  0  0  0  0
  1  2  1  0  0  0  0
  1  3  1  0  0  0  0
  1  4  1  0  0  0  0
M  END
>  <CHROM.1>
36.46841906,18.94661025,8.72554793,1.32690796,1.43970544,-1.84139621

>  <Name>
ligand

>  <RI>
0

>  <Rbt.Current_Directory>
/home/itssahil/PROJECTS/Mol_Feturizer/New_Systems/rnas/4FEN

>  <Rbt.Executable>
rbdock ($Id: //depot/dev/client3/rdock/2013.1/src/exe/rbdock.cxx#4 $)

>  <Rbt.Library>
libRbt.so (2013.1, Build901 2013/11/27)

>  <Rbt.Parameter_File>
/export/apps/rDock/src/rDock_2013.1_src/data/scripts/dock_solv.prm

>  <Rbt.Receptor>
prm/pocket_docking_4.prm

>  <SCORE>
-5.00674

>  <SCORE.INTER>
-5.00674

>  <SCORE.INTER.CONST>
1

>  <SCORE.INTER.POLAR>
0

>  <SCORE.INTER.ROT>
0

>  <SCORE.INTER.SOLV>
1.60944

>  <SCORE.INTER.VDW>
-7.4743

>  <SCORE.INTER.norm>
-1.25168

>  <SCORE.INTRA>
0

>  <SCORE.INTRA.DIHEDRAL>
0

>  <SCORE.INTRA.DIHEDRAL.0>
0

>  <SCORE.INTRA.POLAR>
0

>  <SCORE.INTRA.POLAR.0>
0

>  <SCORE.INTRA.REPUL>
0

>  <SCORE.INTRA.REPUL.0>
0

>  <SCORE.INTRA.SOLV>
0

>  <SCORE.INTRA.SOLV.lig_0>
0.449748

>  <SCORE.INTRA.VDW>
0

>  <SCORE.INTRA.VDW.0>
0

>  <SCORE.INTRA.norm>
0

>  <SCORE.RESTR>
0

>  <SCORE.RESTR.CAVITY>
0

>  <SCORE.RESTR.norm>
0

>  <SCORE.SYSTEM>
0

>  <SCORE.SYSTEM.CONST>
0

>  <SCORE.SYSTEM.DIHEDRAL>
0

>  <SCORE.SYSTEM.SOLV>
0

>  <SCORE.SYSTEM.norm>
0

>  <SCORE.heavy>
4

>  <SCORE.norm>
-1.25168

>  <RMSD>
2.079

$$$$
ligand
 OpenBabel11021811493D
libRbt.so/2013.1/901 2013/11/27
  4  3  0  0  0  0  0  0  0  0999 V2000
   36.4478   18.9816    8.6170 C   0  0  0  0  0  0  0  0  0  0  0  0
   36.2527   19.9706    7.8763 O   0  0  0  0  0  0  0  0  0  0  0  0
   36.5021   19.2580   10.1137 C   0  0  0  0  0  0  0  0  0  0  0  0
   36.6145   17.7306    8.2701 O   0  0  0  0  0  0  0  0  0  0  0  0
  1  2  1  0  0  0  0
  1  3  1  0  0  0  0
  1  4  1  0  0  0  0
M  END
>  <CHROM.1>
36.45392900,18.98098212,8.70337828,1.46757719,1.40901730,-1.97100900

>  <Name>
ligand

>  <RI>
0

>  <Rbt.Current_Directory>
/home/itssahil/PROJECTS/Mol_Feturizer/New_Systems/rnas/4FEN

>  <Rbt.Executable>
rbdock ($Id: //depot/dev/client3/rdock/2013.1/src/exe/rbdock.cxx#4 $)

>  <Rbt.Library>
libRbt.so (2013.1, Build901 2013/11/27)

>  <Rbt.Parameter_File>
/export/apps/rDock/src/rDock_2013.1_src/data/scripts/dock_solv.prm

>  <Rbt.Receptor>
prm/pocket_docking_6.prm

>  <SCORE>
-5.05088

>  <SCORE.INTER>
-5.05088

>  <SCORE.INTER.CONST>
1

>  <SCORE.INTER.POLAR>
0

>  <SCORE.INTER.ROT>
0

>  <SCORE.INTER.SOLV>
1.64575

>  <SCORE.INTER.VDW>
-7.51584

>  <SCORE.INTER.norm>
-1.26272

>  <SCORE.INTRA>
0

>  <SCORE.INTRA.DIHEDRAL>
0

>  <SCORE.INTRA.DIHEDRAL.0>
0

>  <SCORE.INTRA.POLAR>
0

>  <SCORE.INTRA.POLAR.0>
0

>  <SCORE.INTRA.REPUL>
0

>  <SCORE.INTRA.REPUL.0>
0

>  <SCORE.INTRA.SOLV>
0

>  <SCORE.INTRA.SOLV.lig_0>
0.449748

>  <SCORE.INTRA.VDW>
0

>  <SCORE.INTRA.VDW.0>
0

>  <SCORE.INTRA.norm>
0

>  <SCORE.RESTR>
0

>  <SCORE.RESTR.CAVITY>
0

>  <SCORE.RESTR.norm>
0

>  <SCORE.SYSTEM>
0

>  <SCORE.SYSTEM.CONST>
0

>  <SCORE.SYSTEM.DIHEDRAL>
0

>  <SCORE.SYSTEM.SOLV>
0

>  <SCORE.SYSTEM.norm>
0

>  <SCORE.heavy>
4

>  <SCORE.norm>
-1.26272

>  <RMSD>
2.079

$$$$
ligand
 OpenBabel11021811493D
libRbt.so/2013.1/901 2013/11/27
  4  3  0  0  0  0  0  0  0  0999 V2000
   36.4494   18.9923    8.6108 C   0  0  0  0  0  0  0  0  0  0  0  0
   36.2625   19.9851    7.8732 O   0  0  0  0  0  0  0  0  0  0  0  0
   36.5055   19.2634   10.1084 C   0  0  0  0  0  0  0  0  0  0  0  0
   36.6061   17.7410    8.2600 O   0  0  0  0  0  0  0  0  0  0  0  0
  1  2  1  0  0  0  0
  1  3  1  0  0  0  0
  1  4  1  0  0  0  0
M  END
>  <CHROM.1>
36.45552134,18.99128707,8.69721772,1.48633014,1.41649599,-1.98637842

>  <Name>
ligand

>  <RI>
0

>  <Rbt.Current_Directory>
/home/itssahil/PROJECTS/Mol_Feturizer/New_Systems/rnas/4FEN

>  <Rbt.Executable>
rbdock ($Id: //depot/dev/client3/rdock/2013.1/src/exe/rbdock.cxx#4 $)

>  <Rbt.Library>
libRbt.so (2013.1, Build901 2013/11/27)

>  <Rbt.Parameter_File>
/export/apps/rDock/src/rDock_2013.1_src/data/scripts/dock_solv.prm

>  <Rbt.Receptor>
prm/pocket_docking_8.prm

>  <SCORE>
-5.04963

>  <SCORE.INTER>
-5.04963

>  <SCORE.INTER.CONST>
1

>  <SCORE.INTER.POLAR>
0

>  <SCORE.INTER.ROT>
0

>  <SCORE.INTER.SOLV>
1.65237

>  <SCORE.INTER.VDW>
-7.51721

>  <SCORE.INTER.norm>
-1.26241

>  <SCORE.INTRA>
0

>  <SCORE.INTRA.DIHEDRAL>
0

>  <SCORE.INTRA.DIHEDRAL.0>
0

>  <SCORE.INTRA.POLAR>
0

>  <SCORE.INTRA.POLAR.0>
0

>  <SCORE.INTRA.REPUL>
0

>  <SCORE.INTRA.REPUL.0>
0

>  <SCORE.INTRA.SOLV>
0

>  <SCORE.INTRA.SOLV.lig_0>
0.449748

>  <SCORE.INTRA.VDW>
0

>  <SCORE.INTRA.VDW.0>
0

>  <SCORE.INTRA.norm>
0

>  <SCORE.RESTR>
0

>  <SCORE.RESTR.CAVITY>
0

>  <SCORE.RESTR.norm>
0

>  <SCORE.SYSTEM>
0

>  <SCORE.SYSTEM.CONST>
0

>  <SCORE.SYSTEM.DIHEDRAL>
0

>  <SCORE.SYSTEM.SOLV>
0

>  <SCORE.SYSTEM.norm>
0

>  <SCORE.heavy>
4

>  <SCORE.norm>
-1.26241

>  <RMSD>
2.079

$$$$
ligand
 OpenBabel11021811493D
libRbt.so/2013.1/901 2013/11/27
  4  3  0  0  0  0  0  0  0  0999 V2000
   36.4603   18.9520    8.6204 C   0  0  0  0  0  0  0  0  0  0  0  0
   36.5760   17.7543    8.2784 O   0  0  0  0  0  0  0  0  0  0  0  0
   36.5287   19.2382   10.1147 C   0  0  0  0  0  0  0  0  0  0  0  0
   36.2848   19.9993    7.8551 O   0  0  0  0  0  0  0  0  0  0  0  0
  1  2  1  0  0  0  0
  1  3  1  0  0  0  0
  1  4  1  0  0  0  0
M  END
>  <CHROM.1>
36.46151144,18.98410700,8.70084107,-2.23904959,-1.43618994,1.03986446

>  <Name>
ligand

>  <RI>
0

>  <Rbt.Current_Directory>
/home/itssahil/PROJECTS/Mol_Feturizer/New_Systems/rnas/4FEN

>  <Rbt.Executable>
rbdock ($Id: //depot/dev/client3/rdock/2013.1/src/exe/rbdock.cxx#4 $)

>  <Rbt.Library>
libRbt.so (2013.1, Build901 2013/11/27)

>  <Rbt.Parameter_File>
/export/apps/rDock/src/rDock_2013.1_src/data/scripts/dock_solv.prm

>  <Rbt.Receptor>
prm/blind_docking_80.prm

>  <SCORE>
-5.04172

>  <SCORE.INTER>
-5.04172

>  <SCORE.INTER.CONST>
1

>  <SCORE.INTER.POLAR>
0

>  <SCORE.INTER.ROT>
0

>  <SCORE.INTER.SOLV>
1.65032

>  <SCORE.INTER.VDW>
-7.51126

>  <SCORE.INTER.norm>
-1.26043

>  <SCORE.INTRA>
0

>  <SCORE.INTRA.DIHEDRAL>
0

>  <SCORE.INTRA.DIHEDRAL.0>
0

>  <SCORE.INTRA.POLAR>
0

>  <SCORE.INTRA.POLAR.0>
0

>  <SCORE.INTRA.REPUL>
0

>  <SCORE.INTRA.REPUL.0>
0

>  <SCORE.INTRA.SOLV>
0

>  <SCORE.INTRA.SOLV.lig_0>
0.449748

>  <SCORE.INTRA.VDW>
0

>  <SCORE.INTRA.VDW.0>
0

>  <SCORE.INTRA.norm>
0

>  <SCORE.RESTR>
0

>  <SCORE.RESTR.CAVITY>
0

>  <SCORE.RESTR.norm>
0

>  <SCORE.SYSTEM>
0

>  <SCORE.SYSTEM.CONST>
0

>  <SCORE.SYSTEM.DIHEDRAL>
0

>  <SCORE.SYSTEM.SOLV>
0

>  <SCORE.SYSTEM.norm>
0

>  <SCORE.heavy>
4

>  <SCORE.norm>
-1.26043

>  <RMSD>
2.080

$$$$
ligand
 OpenBabel11021811493D
libRbt.so/2013.1/901 2013/11/27
  4  3  0  0  0  0  0  0  0  0999 V2000
   36.4638   18.9563    8.6210 C   0  0  0  0  0  0  0  0  0  0  0  0
   36.6274   17.7622    8.2860 O   0  0  0  0  0  0  0  0  0  0  0  0
   36.4852   19.2482   10.1156 C   0  0  0  0  0  0  0  0  0  0  0  0
   36.2733   19.9953    7.8481 O   0  0  0  0  0  0  0  0  0  0  0  0
  1  2  1  0  0  0  0
  1  3  1  0  0  0  0
  1  4  1  0  0  0  0
M  END
>  <CHROM.1>
36.46196941,18.98861853,8.70134492,-1.98834558,-1.41579035,1.28509698

>  <Name>
ligand

>  <RI>
0

>  <Rbt.Current_Directory>
/home/itssahil/PROJECTS/Mol_Feturizer/New_Systems/rnas/4FEN

>  <Rbt.Executable>
rbdock ($Id: //depot/dev/client3/rdock/2013.1/src/exe/rbdock.cxx#4 $)

>  <Rbt.Library>
libRbt.so (2013.1, Build901 2013/11/27)

>  <Rbt.Parameter_File>
/export/apps/rDock/src/rDock_2013.1_src/data/scripts/dock_solv.prm

>  <Rbt.Receptor>
prm/pocket_docking_6.prm

>  <SCORE>
-5.05232

>  <SCORE.INTER>
-5.05232

>  <SCORE.INTER.CONST>
1

>  <SCORE.INTER.POLAR>
0

>  <SCORE.INTER.ROT>
0

>  <SCORE.INTER.SOLV>
1.63401

>  <SCORE.INTER.VDW>
-7.51288

>  <SCORE.INTER.norm>
-1.26308

>  <SCORE.INTRA>
0

>  <SCORE.INTRA.DIHEDRAL>
0

>  <SCORE.INTRA.DIHEDRAL.0>
0

>  <SCORE.INTRA.POLAR>
0

>  <SCORE.INTRA.POLAR.0>
0

>  <SCORE.INTRA.REPUL>
0

>  <SCORE.INTRA.REPUL.0>
0

>  <SCORE.INTRA.SOLV>
0

>  <SCORE.INTRA.SOLV.lig_0>
0.449748

>  <SCORE.INTRA.VDW>
0

>  <SCORE.INTRA.VDW.0>
0

>  <SCORE.INTRA.norm>
0

>  <SCORE.RESTR>
0

>  <SCORE.RESTR.CAVITY>
0

>  <SCORE.RESTR.norm>
0

>  <SCORE.SYSTEM>
0

>  <SCORE.SYSTEM.CONST>
0

>  <SCORE.SYSTEM.DIHEDRAL>
0

>  <SCORE.SYSTEM.SOLV>
0

>  <SCORE.SYSTEM.norm>
0

>  <SCORE.heavy>
4

>  <SCORE.norm>
-1.26308

>  <RMSD>
2.080

$$$$
ligand
 OpenBabel11021811493D
libRbt.so/2013.1/901 2013/11/27
  4  3  0  0  0  0  0  0  0  0999 V2000
   36.4524   18.9934    8.6108 C   0  0  0  0  0  0  0  0  0  0  0  0
   36.2566   19.9853    7.8742 O   0  0  0  0  0  0  0  0  0  0  0  0
   36.4954   19.2619   10.1093 C   0  0  0  0  0  0  0  0  0  0  0  0
   36.6284   17.7452    8.2583 O   0  0  0  0  0  0  0  0  0  0  0  0
  1  2  1  0  0  0  0
  1  3  1  0  0  0  0
  1  4  1  0  0  0  0
M  END
>  <CHROM.1>
36.45796175,18.99229559,8.69725757,1.41771639,1.40613816,-1.91642318

>  <Name>
ligand

>  <RI>
0

>  <Rbt.Current_Directory>
/home/itssahil/PROJECTS/Mol_Feturizer/New_Systems/rnas/4FEN

>  <Rbt.Executable>
rbdock ($Id: //depot/dev/client3/rdock/2013.1/src/exe/rbdock.cxx#4 $)

>  <Rbt.Library>
libRbt.so (2013.1, Build901 2013/11/27)

>  <Rbt.Parameter_File>
/export/apps/rDock/src/rDock_2013.1_src/data/scripts/dock_solv.prm

>  <Rbt.Receptor>
prm/pocket_docking_6.prm

>  <SCORE>
-5.05333

>  <SCORE.INTER>
-5.05333

>  <SCORE.INTER.CONST>
1

>  <SCORE.INTER.POLAR>
0

>  <SCORE.INTER.ROT>
0

>  <SCORE.INTER.SOLV>
1.64818

>  <SCORE.INTER.VDW>
-7.51828

>  <SCORE.INTER.norm>
-1.26333

>  <SCORE.INTRA>
0

>  <SCORE.INTRA.DIHEDRAL>
0

>  <SCORE.INTRA.DIHEDRAL.0>
0

>  <SCORE.INTRA.POLAR>
0

>  <SCORE.INTRA.POLAR.0>
0

>  <SCORE.INTRA.REPUL>
0

>  <SCORE.INTRA.REPUL.0>
0

>  <SCORE.INTRA.SOLV>
0

>  <SCORE.INTRA.SOLV.lig_0>
0.449748

>  <SCORE.INTRA.VDW>
0

>  <SCORE.INTRA.VDW.0>
0

>  <SCORE.INTRA.norm>
0

>  <SCORE.RESTR>
0

>  <SCORE.RESTR.CAVITY>
0

>  <SCORE.RESTR.norm>
0

>  <SCORE.SYSTEM>
0

>  <SCORE.SYSTEM.CONST>
0

>  <SCORE.SYSTEM.DIHEDRAL>
0

>  <SCORE.SYSTEM.SOLV>
0

>  <SCORE.SYSTEM.norm>
0

>  <SCORE.heavy>
4

>  <SCORE.norm>
-1.26333

>  <RMSD>
2.080

$$$$
ligand
 OpenBabel11021811493D
libRbt.so/2013.1/901 2013/11/27
  4  3  0  0  0  0  0  0  0  0999 V2000
   36.4565   18.9304    8.6355 C   0  0  0  0  0  0  0  0  0  0  0  0
   36.5750   17.7275    8.3137 O   0  0  0  0  0  0  0  0  0  0  0  0
   36.5259   19.2420   10.1247 C   0  0  0  0  0  0  0  0  0  0  0  0
   36.2773   19.9641    7.8529 O   0  0  0  0  0  0  0  0  0  0  0  0
  1  2  1  0  0  0  0
  1  3  1  0  0  0  0
  1  4  1  0  0  0  0
M  END
>  <CHROM.1>
36.45774187,18.96391061,8.71543601,-2.23665169,-1.43328496,1.02532215

>  <Name>
ligand

>  <RI>
0

>  <Rbt.Current_Directory>
/home/itssahil/PROJECTS/Mol_Feturizer/New_Systems/rnas/4FEN

>  <Rbt.Executable>
rbdock ($Id: //depot/dev/client3/rdock/2013.1/src/exe/rbdock.cxx#4 $)

>  <Rbt.Library>
libRbt.so (2013.1, Build901 2013/11/27)

>  <Rbt.Parameter_File>
/export/apps/rDock/src/rDock_2013.1_src/data/scripts/dock_solv.prm

>  <Rbt.Receptor>
prm/pocket_docking_7.prm

>  <SCORE>
-5.00443

>  <SCORE.INTER>
-5.00443

>  <SCORE.INTER.CONST>
1

>  <SCORE.INTER.POLAR>
0

>  <SCORE.INTER.ROT>
0

>  <SCORE.INTER.SOLV>
1.63598

>  <SCORE.INTER.VDW>
-7.48162

>  <SCORE.INTER.norm>
-1.25111

>  <SCORE.INTRA>
0

>  <SCORE.INTRA.DIHEDRAL>
0

>  <SCORE.INTRA.DIHEDRAL.0>
0

>  <SCORE.INTRA.POLAR>
0

>  <SCORE.INTRA.POLAR.0>
0

>  <SCORE.INTRA.REPUL>
0

>  <SCORE.INTRA.REPUL.0>
0

>  <SCORE.INTRA.SOLV>
0

>  <SCORE.INTRA.SOLV.lig_0>
0.449748

>  <SCORE.INTRA.VDW>
0

>  <SCORE.INTRA.VDW.0>
0

>  <SCORE.INTRA.norm>
0

>  <SCORE.RESTR>
0

>  <SCORE.RESTR.CAVITY>
0

>  <SCORE.RESTR.norm>
0

>  <SCORE.SYSTEM>
0

>  <SCORE.SYSTEM.CONST>
0

>  <SCORE.SYSTEM.DIHEDRAL>
0

>  <SCORE.SYSTEM.SOLV>
0

>  <SCORE.SYSTEM.norm>
0

>  <SCORE.heavy>
4

>  <SCORE.norm>
-1.25111

>  <RMSD>
2.080

$$$$
ligand
 OpenBabel11021811493D
libRbt.so/2013.1/901 2013/11/27
  4  3  0  0  0  0  0  0  0  0999 V2000
   36.4650   18.9815    8.6187 C   0  0  0  0  0  0  0  0  0  0  0  0
   36.2695   19.9745    7.8836 O   0  0  0  0  0  0  0  0  0  0  0  0
   36.4815   19.2435   10.1189 C   0  0  0  0  0  0  0  0  0  0  0  0
   36.6605   17.7370    8.2634 O   0  0  0  0  0  0  0  0  0  0  0  0
  1  2  1  0  0  0  0
  1  3  1  0  0  0  0
  1  4  1  0  0  0  0
M  END
>  <CHROM.1>
36.46921096,18.98003658,8.70523518,1.30855407,1.39983290,-1.80421280

>  <Name>
ligand

>  <RI>
0

>  <Rbt.Current_Directory>
/home/itssahil/PROJECTS/Mol_Feturizer/New_Systems/rnas/4FEN

>  <Rbt.Executable>
rbdock ($Id: //depot/dev/client3/rdock/2013.1/src/exe/rbdock.cxx#4 $)

>  <Rbt.Library>
libRbt.so (2013.1, Build901 2013/11/27)

>  <Rbt.Parameter_File>
/export/apps/rDock/src/rDock_2013.1_src/data/scripts/dock_solv.prm

>  <Rbt.Receptor>
prm/pocket_docking_8.prm

>  <SCORE>
-5.04465

>  <SCORE.INTER>
-5.04465

>  <SCORE.INTER.CONST>
1

>  <SCORE.INTER.POLAR>
0

>  <SCORE.INTER.ROT>
0

>  <SCORE.INTER.SOLV>
1.63169

>  <SCORE.INTER.VDW>
-7.50699

>  <SCORE.INTER.norm>
-1.26116

>  <SCORE.INTRA>
0

>  <SCORE.INTRA.DIHEDRAL>
0

>  <SCORE.INTRA.DIHEDRAL.0>
0

>  <SCORE.INTRA.POLAR>
0

>  <SCORE.INTRA.POLAR.0>
0

>  <SCORE.INTRA.REPUL>
0

>  <SCORE.INTRA.REPUL.0>
0

>  <SCORE.INTRA.SOLV>
0

>  <SCORE.INTRA.SOLV.lig_0>
0.449748

>  <SCORE.INTRA.VDW>
0

>  <SCORE.INTRA.VDW.0>
0

>  <SCORE.INTRA.norm>
0

>  <SCORE.RESTR>
0

>  <SCORE.RESTR.CAVITY>
0

>  <SCORE.RESTR.norm>
0

>  <SCORE.SYSTEM>
0

>  <SCORE.SYSTEM.CONST>
0

>  <SCORE.SYSTEM.DIHEDRAL>
0

>  <SCORE.SYSTEM.SOLV>
0

>  <SCORE.SYSTEM.norm>
0

>  <SCORE.heavy>
4

>  <SCORE.norm>
-1.26116

>  <RMSD>
2.080

$$$$
ligand
 OpenBabel11021811493D
libRbt.so/2013.1/901 2013/11/27
  4  3  0  0  0  0  0  0  0  0999 V2000
   36.4504   18.9757    8.6188 C   0  0  0  0  0  0  0  0  0  0  0  0
   36.2649   19.9656    7.8769 O   0  0  0  0  0  0  0  0  0  0  0  0
   36.5288   19.2562   10.1136 C   0  0  0  0  0  0  0  0  0  0  0  0
   36.5889   17.7204    8.2746 O   0  0  0  0  0  0  0  0  0  0  0  0
  1  2  1  0  0  0  0
  1  3  1  0  0  0  0
  1  4  1  0  0  0  0
M  END
>  <CHROM.1>
36.45763220,18.97520023,8.70509407,1.59478929,1.42040539,-2.10036245

>  <Name>
ligand

>  <RI>
0

>  <Rbt.Current_Directory>
/home/itssahil/PROJECTS/Mol_Feturizer/New_Systems/rnas/4FEN

>  <Rbt.Executable>
rbdock ($Id: //depot/dev/client3/rdock/2013.1/src/exe/rbdock.cxx#4 $)

>  <Rbt.Library>
libRbt.so (2013.1, Build901 2013/11/27)

>  <Rbt.Parameter_File>
/export/apps/rDock/src/rDock_2013.1_src/data/scripts/dock_solv.prm

>  <Rbt.Receptor>
prm/blind_docking_60.prm

>  <SCORE>
-5.03833

>  <SCORE.INTER>
-5.03833

>  <SCORE.INTER.CONST>
1

>  <SCORE.INTER.POLAR>
0

>  <SCORE.INTER.ROT>
0

>  <SCORE.INTER.SOLV>
1.65242

>  <SCORE.INTER.VDW>
-7.50969

>  <SCORE.INTER.norm>
-1.25958

>  <SCORE.INTRA>
0

>  <SCORE.INTRA.DIHEDRAL>
0

>  <SCORE.INTRA.DIHEDRAL.0>
0

>  <SCORE.INTRA.POLAR>
0

>  <SCORE.INTRA.POLAR.0>
0

>  <SCORE.INTRA.REPUL>
0

>  <SCORE.INTRA.REPUL.0>
0

>  <SCORE.INTRA.SOLV>
0

>  <SCORE.INTRA.SOLV.lig_0>
0.449748

>  <SCORE.INTRA.VDW>
0

>  <SCORE.INTRA.VDW.0>
0

>  <SCORE.INTRA.norm>
0

>  <SCORE.RESTR>
0

>  <SCORE.RESTR.CAVITY>
0

>  <SCORE.RESTR.norm>
0

>  <SCORE.SYSTEM>
0

>  <SCORE.SYSTEM.CONST>
0

>  <SCORE.SYSTEM.DIHEDRAL>
0

>  <SCORE.SYSTEM.SOLV>
0

>  <SCORE.SYSTEM.norm>
0

>  <SCORE.heavy>
4

>  <SCORE.norm>
-1.25958

>  <RMSD>
2.081

$$$$
ligand
 OpenBabel11021811493D
libRbt.so/2013.1/901 2013/11/27
  4  3  0  0  0  0  0  0  0  0999 V2000
   36.4611   18.9629    8.6167 C   0  0  0  0  0  0  0  0  0  0  0  0
   36.5523   17.7600    8.2858 O   0  0  0  0  0  0  0  0  0  0  0  0
   36.5334   19.2612   10.1085 C   0  0  0  0  0  0  0  0  0  0  0  0
   36.3085   20.0066    7.8417 O   0  0  0  0  0  0  0  0  0  0  0  0
  1  2  1  0  0  0  0
  1  3  1  0  0  0  0
  1  4  1  0  0  0  0
M  END
>  <CHROM.1>
36.46285674,18.99572508,8.69689331,-2.31983608,-1.45446132,0.95064602

>  <Name>
ligand

>  <RI>
0

>  <Rbt.Current_Directory>
/home/itssahil/PROJECTS/Mol_Feturizer/New_Systems/rnas/4FEN

>  <Rbt.Executable>
rbdock ($Id: //depot/dev/client3/rdock/2013.1/src/exe/rbdock.cxx#4 $)

>  <Rbt.Library>
libRbt.so (2013.1, Build901 2013/11/27)

>  <Rbt.Parameter_File>
/export/apps/rDock/src/rDock_2013.1_src/data/scripts/dock_solv.prm

>  <Rbt.Receptor>
prm/pocket_docking_5.prm

>  <SCORE>
-5.04861

>  <SCORE.INTER>
-5.04861

>  <SCORE.INTER.CONST>
1

>  <SCORE.INTER.POLAR>
0

>  <SCORE.INTER.ROT>
0

>  <SCORE.INTER.SOLV>
1.65511

>  <SCORE.INTER.VDW>
-7.51745

>  <SCORE.INTER.norm>
-1.26215

>  <SCORE.INTRA>
0

>  <SCORE.INTRA.DIHEDRAL>
0

>  <SCORE.INTRA.DIHEDRAL.0>
0

>  <SCORE.INTRA.POLAR>
0

>  <SCORE.INTRA.POLAR.0>
0

>  <SCORE.INTRA.REPUL>
0

>  <SCORE.INTRA.REPUL.0>
0

>  <SCORE.INTRA.SOLV>
0

>  <SCORE.INTRA.SOLV.lig_0>
0.449748

>  <SCORE.INTRA.VDW>
0

>  <SCORE.INTRA.VDW.0>
0

>  <SCORE.INTRA.norm>
0

>  <SCORE.RESTR>
0

>  <SCORE.RESTR.CAVITY>
0

>  <SCORE.RESTR.norm>
0

>  <SCORE.SYSTEM>
0

>  <SCORE.SYSTEM.CONST>
0

>  <SCORE.SYSTEM.DIHEDRAL>
0

>  <SCORE.SYSTEM.SOLV>
0

>  <SCORE.SYSTEM.norm>
0

>  <SCORE.heavy>
4

>  <SCORE.norm>
-1.26215

>  <RMSD>
2.081

$$$$
ligand
 OpenBabel11021811493D
libRbt.so/2013.1/901 2013/11/27
  4  3  0  0  0  0  0  0  0  0999 V2000
   36.4669   18.9630    8.6180 C   0  0  0  0  0  0  0  0  0  0  0  0
   36.5894   17.7624    8.2889 O   0  0  0  0  0  0  0  0  0  0  0  0
   36.5043   19.2622   10.1108 C   0  0  0  0  0  0  0  0  0  0  0  0
   36.3075   20.0036    7.8401 O   0  0  0  0  0  0  0  0  0  0  0  0
  1  2  1  0  0  0  0
  1  3  1  0  0  0  0
  1  4  1  0  0  0  0
M  END
>  <CHROM.1>
36.46640316,18.99583979,8.69812556,-2.09606135,-1.44560432,1.17290992

>  <Name>
ligand

>  <RI>
0

>  <Rbt.Current_Directory>
/home/itssahil/PROJECTS/Mol_Feturizer/New_Systems/rnas/4FEN

>  <Rbt.Executable>
rbdock ($Id: //depot/dev/client3/rdock/2013.1/src/exe/rbdock.cxx#4 $)

>  <Rbt.Library>
libRbt.so (2013.1, Build901 2013/11/27)

>  <Rbt.Parameter_File>
/export/apps/rDock/src/rDock_2013.1_src/data/scripts/dock_solv.prm

>  <Rbt.Receptor>
prm/pocket_docking_5.prm

>  <SCORE>
-5.06591

>  <SCORE.INTER>
-5.06591

>  <SCORE.INTER.CONST>
1

>  <SCORE.INTER.POLAR>
0

>  <SCORE.INTER.ROT>
0

>  <SCORE.INTER.SOLV>
1.64228

>  <SCORE.INTER.VDW>
-7.5247

>  <SCORE.INTER.norm>
-1.26648

>  <SCORE.INTRA>
0

>  <SCORE.INTRA.DIHEDRAL>
0

>  <SCORE.INTRA.DIHEDRAL.0>
0

>  <SCORE.INTRA.POLAR>
0

>  <SCORE.INTRA.POLAR.0>
0

>  <SCORE.INTRA.REPUL>
0

>  <SCORE.INTRA.REPUL.0>
0

>  <SCORE.INTRA.SOLV>
0

>  <SCORE.INTRA.SOLV.lig_0>
0.449748

>  <SCORE.INTRA.VDW>
0

>  <SCORE.INTRA.VDW.0>
0

>  <SCORE.INTRA.norm>
0

>  <SCORE.RESTR>
0

>  <SCORE.RESTR.CAVITY>
0

>  <SCORE.RESTR.norm>
0

>  <SCORE.SYSTEM>
0

>  <SCORE.SYSTEM.CONST>
0

>  <SCORE.SYSTEM.DIHEDRAL>
0

>  <SCORE.SYSTEM.SOLV>
0

>  <SCORE.SYSTEM.norm>
0

>  <SCORE.heavy>
4

>  <SCORE.norm>
-1.26648

>  <RMSD>
2.081

$$$$
ligand
 OpenBabel11021811493D
libRbt.so/2013.1/901 2013/11/27
  4  3  0  0  0  0  0  0  0  0999 V2000
   36.4472   18.9826    8.6147 C   0  0  0  0  0  0  0  0  0  0  0  0
   36.2593   19.9725    7.8734 O   0  0  0  0  0  0  0  0  0  0  0  0
   36.5179   19.2616   10.1102 C   0  0  0  0  0  0  0  0  0  0  0  0
   36.5940   17.7286    8.2694 O   0  0  0  0  0  0  0  0  0  0  0  0
  1  2  1  0  0  0  0
  1  3  1  0  0  0  0
  1  4  1  0  0  0  0
M  END
>  <CHROM.1>
36.45407482,18.98207561,8.70106494,1.55342914,1.41764514,-2.05814243

>  <Name>
ligand

>  <RI>
0

>  <Rbt.Current_Directory>
/home/itssahil/PROJECTS/Mol_Feturizer/New_Systems/rnas/4FEN

>  <Rbt.Executable>
rbdock ($Id: //depot/dev/client3/rdock/2013.1/src/exe/rbdock.cxx#4 $)

>  <Rbt.Library>
libRbt.so (2013.1, Build901 2013/11/27)

>  <Rbt.Parameter_File>
/export/apps/rDock/src/rDock_2013.1_src/data/scripts/dock_solv.prm

>  <Rbt.Receptor>
prm/pocket_docking_5.prm

>  <SCORE>
-5.04379

>  <SCORE.INTER>
-5.04379

>  <SCORE.INTER.CONST>
1

>  <SCORE.INTER.POLAR>
0

>  <SCORE.INTER.ROT>
0

>  <SCORE.INTER.SOLV>
1.65347

>  <SCORE.INTER.VDW>
-7.51369

>  <SCORE.INTER.norm>
-1.26095

>  <SCORE.INTRA>
0

>  <SCORE.INTRA.DIHEDRAL>
0

>  <SCORE.INTRA.DIHEDRAL.0>
0

>  <SCORE.INTRA.POLAR>
0

>  <SCORE.INTRA.POLAR.0>
0

>  <SCORE.INTRA.REPUL>
0

>  <SCORE.INTRA.REPUL.0>
0

>  <SCORE.INTRA.SOLV>
0

>  <SCORE.INTRA.SOLV.lig_0>
0.449748

>  <SCORE.INTRA.VDW>
0

>  <SCORE.INTRA.VDW.0>
0

>  <SCORE.INTRA.norm>
0

>  <SCORE.RESTR>
0

>  <SCORE.RESTR.CAVITY>
0

>  <SCORE.RESTR.norm>
0

>  <SCORE.SYSTEM>
0

>  <SCORE.SYSTEM.CONST>
0

>  <SCORE.SYSTEM.DIHEDRAL>
0

>  <SCORE.SYSTEM.SOLV>
0

>  <SCORE.SYSTEM.norm>
0

>  <SCORE.heavy>
4

>  <SCORE.norm>
-1.26095

>  <RMSD>
2.081

$$$$
ligand
 OpenBabel11021811493D
libRbt.so/2013.1/901 2013/11/27
  4  3  0  0  0  0  0  0  0  0999 V2000
   36.4565   18.9906    8.6119 C   0  0  0  0  0  0  0  0  0  0  0  0
   36.2627   19.9803    7.8718 O   0  0  0  0  0  0  0  0  0  0  0  0
   36.4964   19.2638   10.1096 C   0  0  0  0  0  0  0  0  0  0  0  0
   36.6328   17.7413    8.2636 O   0  0  0  0  0  0  0  0  0  0  0  0
  1  2  1  0  0  0  0
  1  3  1  0  0  0  0
  1  4  1  0  0  0  0
M  END
>  <CHROM.1>
36.46192726,18.98983143,8.69832264,1.40580676,1.40723279,-1.90777110

>  <Name>
ligand

>  <RI>
0

>  <Rbt.Current_Directory>
/home/itssahil/PROJECTS/Mol_Feturizer/New_Systems/rnas/4FEN

>  <Rbt.Executable>
rbdock ($Id: //depot/dev/client3/rdock/2013.1/src/exe/rbdock.cxx#4 $)

>  <Rbt.Library>
libRbt.so (2013.1, Build901 2013/11/27)

>  <Rbt.Parameter_File>
/export/apps/rDock/src/rDock_2013.1_src/data/scripts/dock_solv.prm

>  <Rbt.Receptor>
prm/pocket_docking_6.prm

>  <SCORE>
-5.05318

>  <SCORE.INTER>
-5.05318

>  <SCORE.INTER.CONST>
1

>  <SCORE.INTER.POLAR>
0

>  <SCORE.INTER.ROT>
0

>  <SCORE.INTER.SOLV>
1.64617

>  <SCORE.INTER.VDW>
-7.51751

>  <SCORE.INTER.norm>
-1.2633

>  <SCORE.INTRA>
0

>  <SCORE.INTRA.DIHEDRAL>
0

>  <SCORE.INTRA.DIHEDRAL.0>
0

>  <SCORE.INTRA.POLAR>
0

>  <SCORE.INTRA.POLAR.0>
0

>  <SCORE.INTRA.REPUL>
0

>  <SCORE.INTRA.REPUL.0>
0

>  <SCORE.INTRA.SOLV>
0

>  <SCORE.INTRA.SOLV.lig_0>
0.449748

>  <SCORE.INTRA.VDW>
0

>  <SCORE.INTRA.VDW.0>
0

>  <SCORE.INTRA.norm>
0

>  <SCORE.RESTR>
0

>  <SCORE.RESTR.CAVITY>
0

>  <SCORE.RESTR.norm>
0

>  <SCORE.SYSTEM>
0

>  <SCORE.SYSTEM.CONST>
0

>  <SCORE.SYSTEM.DIHEDRAL>
0

>  <SCORE.SYSTEM.SOLV>
0

>  <SCORE.SYSTEM.norm>
0

>  <SCORE.heavy>
4

>  <SCORE.norm>
-1.2633

>  <RMSD>
2.081

$$$$
ligand
 OpenBabel11021811493D
libRbt.so/2013.1/901 2013/11/27
  4  3  0  0  0  0  0  0  0  0999 V2000
   36.4638   18.9543    8.6226 C   0  0  0  0  0  0  0  0  0  0  0  0
   36.6045   17.7549    8.2964 O   0  0  0  0  0  0  0  0  0  0  0  0
   36.4969   19.2575   10.1147 C   0  0  0  0  0  0  0  0  0  0  0  0
   36.2884   19.9905    7.8424 O   0  0  0  0  0  0  0  0  0  0  0  0
  1  2  1  0  0  0  0
  1  3  1  0  0  0  0
  1  4  1  0  0  0  0
M  END
>  <CHROM.1>
36.46281954,18.98728560,8.70273876,-2.05485655,-1.43137757,1.21146114

>  <Name>
ligand

>  <RI>
0

>  <Rbt.Current_Directory>
/home/itssahil/PROJECTS/Mol_Feturizer/New_Systems/rnas/4FEN

>  <Rbt.Executable>
rbdock ($Id: //depot/dev/client3/rdock/2013.1/src/exe/rbdock.cxx#4 $)

>  <Rbt.Library>
libRbt.so (2013.1, Build901 2013/11/27)

>  <Rbt.Parameter_File>
/export/apps/rDock/src/rDock_2013.1_src/data/scripts/dock_solv.prm

>  <Rbt.Receptor>
prm/pocket_docking_6.prm

>  <SCORE>
-5.05298

>  <SCORE.INTER>
-5.05298

>  <SCORE.INTER.CONST>
1

>  <SCORE.INTER.POLAR>
0

>  <SCORE.INTER.ROT>
0

>  <SCORE.INTER.SOLV>
1.63637

>  <SCORE.INTER.VDW>
-7.51411

>  <SCORE.INTER.norm>
-1.26325

>  <SCORE.INTRA>
0

>  <SCORE.INTRA.DIHEDRAL>
0

>  <SCORE.INTRA.DIHEDRAL.0>
0

>  <SCORE.INTRA.POLAR>
0

>  <SCORE.INTRA.POLAR.0>
0

>  <SCORE.INTRA.REPUL>
0

>  <SCORE.INTRA.REPUL.0>
0

>  <SCORE.INTRA.SOLV>
0

>  <SCORE.INTRA.SOLV.lig_0>
0.449748

>  <SCORE.INTRA.VDW>
0

>  <SCORE.INTRA.VDW.0>
0

>  <SCORE.INTRA.norm>
0

>  <SCORE.RESTR>
0

>  <SCORE.RESTR.CAVITY>
0

>  <SCORE.RESTR.norm>
0

>  <SCORE.SYSTEM>
0

>  <SCORE.SYSTEM.CONST>
0

>  <SCORE.SYSTEM.DIHEDRAL>
0

>  <SCORE.SYSTEM.SOLV>
0

>  <SCORE.SYSTEM.norm>
0

>  <SCORE.heavy>
4

>  <SCORE.norm>
-1.26325

>  <RMSD>
2.081

$$$$
ligand
 OpenBabel11021811493D
libRbt.so/2013.1/901 2013/11/27
  4  3  0  0  0  0  0  0  0  0999 V2000
   36.4615   18.9537    8.6227 C   0  0  0  0  0  0  0  0  0  0  0  0
   36.6053   17.7558    8.2922 O   0  0  0  0  0  0  0  0  0  0  0  0
   36.5087   19.2538   10.1150 C   0  0  0  0  0  0  0  0  0  0  0  0
   36.2724   19.9907    7.8467 O   0  0  0  0  0  0  0  0  0  0  0  0
  1  2  1  0  0  0  0
  1  3  1  0  0  0  0
  1  4  1  0  0  0  0
M  END
>  <CHROM.1>
36.46126883,18.98650695,8.70284750,-2.10873097,-1.42239750,1.16037301

>  <Name>
ligand

>  <RI>
0

>  <Rbt.Current_Directory>
/home/itssahil/PROJECTS/Mol_Feturizer/New_Systems/rnas/4FEN

>  <Rbt.Executable>
rbdock ($Id: //depot/dev/client3/rdock/2013.1/src/exe/rbdock.cxx#4 $)

>  <Rbt.Library>
libRbt.so (2013.1, Build901 2013/11/27)

>  <Rbt.Parameter_File>
/export/apps/rDock/src/rDock_2013.1_src/data/scripts/dock_solv.prm

>  <Rbt.Receptor>
prm/pocket_docking_6.prm

>  <SCORE>
-5.05244

>  <SCORE.INTER>
-5.05244

>  <SCORE.INTER.CONST>
1

>  <SCORE.INTER.POLAR>
0

>  <SCORE.INTER.ROT>
0

>  <SCORE.INTER.SOLV>
1.64185

>  <SCORE.INTER.VDW>
-7.51557

>  <SCORE.INTER.norm>
-1.26311

>  <SCORE.INTRA>
0

>  <SCORE.INTRA.DIHEDRAL>
0

>  <SCORE.INTRA.DIHEDRAL.0>
0

>  <SCORE.INTRA.POLAR>
0

>  <SCORE.INTRA.POLAR.0>
0

>  <SCORE.INTRA.REPUL>
0

>  <SCORE.INTRA.REPUL.0>
0

>  <SCORE.INTRA.SOLV>
0

>  <SCORE.INTRA.SOLV.lig_0>
0.449748

>  <SCORE.INTRA.VDW>
0

>  <SCORE.INTRA.VDW.0>
0

>  <SCORE.INTRA.norm>
0

>  <SCORE.RESTR>
0

>  <SCORE.RESTR.CAVITY>
0

>  <SCORE.RESTR.norm>
0

>  <SCORE.SYSTEM>
0

>  <SCORE.SYSTEM.CONST>
0

>  <SCORE.SYSTEM.DIHEDRAL>
0

>  <SCORE.SYSTEM.SOLV>
0

>  <SCORE.SYSTEM.norm>
0

>  <SCORE.heavy>
4

>  <SCORE.norm>
-1.26311

>  <RMSD>
2.081

$$$$
ligand
 OpenBabel11021811493D
libRbt.so/2013.1/901 2013/11/27
  4  3  0  0  0  0  0  0  0  0999 V2000
   36.4583   18.9859    8.6157 C   0  0  0  0  0  0  0  0  0  0  0  0
   36.2626   19.9746    7.8748 O   0  0  0  0  0  0  0  0  0  0  0  0
   36.4946   19.2600   10.1134 C   0  0  0  0  0  0  0  0  0  0  0  0
   36.6393   17.7370    8.2684 O   0  0  0  0  0  0  0  0  0  0  0  0
  1  2  1  0  0  0  0
  1  3  1  0  0  0  0
  1  4  1  0  0  0  0
M  END
>  <CHROM.1>
36.46355060,18.98517531,8.70219530,1.38907390,1.40472113,-1.89176798

>  <Name>
ligand

>  <RI>
0

>  <Rbt.Current_Directory>
/home/itssahil/PROJECTS/Mol_Feturizer/New_Systems/rnas/4FEN

>  <Rbt.Executable>
rbdock ($Id: //depot/dev/client3/rdock/2013.1/src/exe/rbdock.cxx#4 $)

>  <Rbt.Library>
libRbt.so (2013.1, Build901 2013/11/27)

>  <Rbt.Parameter_File>
/export/apps/rDock/src/rDock_2013.1_src/data/scripts/dock_solv.prm

>  <Rbt.Receptor>
prm/pocket_docking_8.prm

>  <SCORE>
-5.05266

>  <SCORE.INTER>
-5.05266

>  <SCORE.INTER.CONST>
1

>  <SCORE.INTER.POLAR>
0

>  <SCORE.INTER.ROT>
0

>  <SCORE.INTER.SOLV>
1.64137

>  <SCORE.INTER.VDW>
-7.51556

>  <SCORE.INTER.norm>
-1.26316

>  <SCORE.INTRA>
0

>  <SCORE.INTRA.DIHEDRAL>
0

>  <SCORE.INTRA.DIHEDRAL.0>
0

>  <SCORE.INTRA.POLAR>
0

>  <SCORE.INTRA.POLAR.0>
0

>  <SCORE.INTRA.REPUL>
0

>  <SCORE.INTRA.REPUL.0>
0

>  <SCORE.INTRA.SOLV>
0

>  <SCORE.INTRA.SOLV.lig_0>
0.449748

>  <SCORE.INTRA.VDW>
0

>  <SCORE.INTRA.VDW.0>
0

>  <SCORE.INTRA.norm>
0

>  <SCORE.RESTR>
0

>  <SCORE.RESTR.CAVITY>
0

>  <SCORE.RESTR.norm>
0

>  <SCORE.SYSTEM>
0

>  <SCORE.SYSTEM.CONST>
0

>  <SCORE.SYSTEM.DIHEDRAL>
0

>  <SCORE.SYSTEM.SOLV>
0

>  <SCORE.SYSTEM.norm>
0

>  <SCORE.heavy>
4

>  <SCORE.norm>
-1.26316

>  <RMSD>
2.081

$$$$
ligand
 OpenBabel11021811493D
libRbt.so/2013.1/901 2013/11/27
  4  3  0  0  0  0  0  0  0  0999 V2000
   36.4485   18.9910    8.6100 C   0  0  0  0  0  0  0  0  0  0  0  0
   36.2499   19.9814    7.8722 O   0  0  0  0  0  0  0  0  0  0  0  0
   36.5045   19.2635   10.1073 C   0  0  0  0  0  0  0  0  0  0  0  0
   36.6176   17.7412    8.2595 O   0  0  0  0  0  0  0  0  0  0  0  0
  1  2  1  0  0  0  0
  1  3  1  0  0  0  0
  1  4  1  0  0  0  0
M  END
>  <CHROM.1>
36.45476650,18.99010626,8.69634924,1.47071623,1.40622602,-1.97149577

>  <Name>
ligand

>  <RI>
0

>  <Rbt.Current_Directory>
/home/itssahil/PROJECTS/Mol_Feturizer/New_Systems/rnas/4FEN

>  <Rbt.Executable>
rbdock ($Id: //depot/dev/client3/rdock/2013.1/src/exe/rbdock.cxx#4 $)

>  <Rbt.Library>
libRbt.so (2013.1, Build901 2013/11/27)

>  <Rbt.Parameter_File>
/export/apps/rDock/src/rDock_2013.1_src/data/scripts/dock_solv.prm

>  <Rbt.Receptor>
prm/pocket_docking_8.prm

>  <SCORE>
-5.05118

>  <SCORE.INTER>
-5.05118

>  <SCORE.INTER.CONST>
1

>  <SCORE.INTER.POLAR>
0

>  <SCORE.INTER.ROT>
0

>  <SCORE.INTER.SOLV>
1.65338

>  <SCORE.INTER.VDW>
-7.51858

>  <SCORE.INTER.norm>
-1.2628

>  <SCORE.INTRA>
0

>  <SCORE.INTRA.DIHEDRAL>
0

>  <SCORE.INTRA.DIHEDRAL.0>
0

>  <SCORE.INTRA.POLAR>
0

>  <SCORE.INTRA.POLAR.0>
0

>  <SCORE.INTRA.REPUL>
0

>  <SCORE.INTRA.REPUL.0>
0

>  <SCORE.INTRA.SOLV>
0

>  <SCORE.INTRA.SOLV.lig_0>
0.449748

>  <SCORE.INTRA.VDW>
0

>  <SCORE.INTRA.VDW.0>
0

>  <SCORE.INTRA.norm>
0

>  <SCORE.RESTR>
0

>  <SCORE.RESTR.CAVITY>
0

>  <SCORE.RESTR.norm>
0

>  <SCORE.SYSTEM>
0

>  <SCORE.SYSTEM.CONST>
0

>  <SCORE.SYSTEM.DIHEDRAL>
0

>  <SCORE.SYSTEM.SOLV>
0

>  <SCORE.SYSTEM.norm>
0

>  <SCORE.heavy>
4

>  <SCORE.norm>
-1.2628

>  <RMSD>
2.081

$$$$
ligand
 OpenBabel11021811493D
libRbt.so/2013.1/901 2013/11/27
  4  3  0  0  0  0  0  0  0  0999 V2000
   36.4722   18.9665    8.6165 C   0  0  0  0  0  0  0  0  0  0  0  0
   36.6123   17.7685    8.2849 O   0  0  0  0  0  0  0  0  0  0  0  0
   36.4960   19.2618   10.1104 C   0  0  0  0  0  0  0  0  0  0  0  0
   36.3045   20.0072    7.8406 O   0  0  0  0  0  0  0  0  0  0  0  0
  1  2  1  0  0  0  0
  1  3  1  0  0  0  0
  1  4  1  0  0  0  0
M  END
>  <CHROM.1>
36.47079084,18.99906957,8.69677536,-2.01409931,-1.43579973,1.25709203

>  <Name>
ligand

>  <RI>
0

>  <Rbt.Current_Directory>
/home/itssahil/PROJECTS/Mol_Feturizer/New_Systems/rnas/4FEN

>  <Rbt.Executable>
rbdock ($Id: //depot/dev/client3/rdock/2013.1/src/exe/rbdock.cxx#4 $)

>  <Rbt.Library>
libRbt.so (2013.1, Build901 2013/11/27)

>  <Rbt.Parameter_File>
/export/apps/rDock/src/rDock_2013.1_src/data/scripts/dock_solv.prm

>  <Rbt.Receptor>
prm/pocket_docking_8.prm

>  <SCORE>
-5.06741

>  <SCORE.INTER>
-5.06741

>  <SCORE.INTER.CONST>
1

>  <SCORE.INTER.POLAR>
0

>  <SCORE.INTER.ROT>
0

>  <SCORE.INTER.SOLV>
1.63941

>  <SCORE.INTER.VDW>
-7.52474

>  <SCORE.INTER.norm>
-1.26685

>  <SCORE.INTRA>
0

>  <SCORE.INTRA.DIHEDRAL>
0

>  <SCORE.INTRA.DIHEDRAL.0>
0

>  <SCORE.INTRA.POLAR>
0

>  <SCORE.INTRA.POLAR.0>
0

>  <SCORE.INTRA.REPUL>
0

>  <SCORE.INTRA.REPUL.0>
0

>  <SCORE.INTRA.SOLV>
0

>  <SCORE.INTRA.SOLV.lig_0>
0.449748

>  <SCORE.INTRA.VDW>
0

>  <SCORE.INTRA.VDW.0>
0

>  <SCORE.INTRA.norm>
0

>  <SCORE.RESTR>
0

>  <SCORE.RESTR.CAVITY>
0

>  <SCORE.RESTR.norm>
0

>  <SCORE.SYSTEM>
0

>  <SCORE.SYSTEM.CONST>
0

>  <SCORE.SYSTEM.DIHEDRAL>
0

>  <SCORE.SYSTEM.SOLV>
0

>  <SCORE.SYSTEM.norm>
0

>  <SCORE.heavy>
4

>  <SCORE.norm>
-1.26685

>  <RMSD>
2.081

$$$$
ligand
 OpenBabel11021811493D
libRbt.so/2013.1/901 2013/11/27
  4  3  0  0  0  0  0  0  0  0999 V2000
   36.4581   18.9641    8.6143 C   0  0  0  0  0  0  0  0  0  0  0  0
   36.5524   17.7607    8.2861 O   0  0  0  0  0  0  0  0  0  0  0  0
   36.5271   19.2656   10.1055 C   0  0  0  0  0  0  0  0  0  0  0  0
   36.3046   20.0058    7.8369 O   0  0  0  0  0  0  0  0  0  0  0  0
  1  2  1  0  0  0  0
  1  3  1  0  0  0  0
  1  4  1  0  0  0  0
M  END
>  <CHROM.1>
36.45960742,18.99706158,8.69441450,-2.29731170,-1.45370878,0.97092753

>  <Name>
ligand

>  <RI>
0

>  <Rbt.Current_Directory>
/home/itssahil/PROJECTS/Mol_Feturizer/New_Systems/rnas/4FEN

>  <Rbt.Executable>
rbdock ($Id: //depot/dev/client3/rdock/2013.1/src/exe/rbdock.cxx#4 $)

>  <Rbt.Library>
libRbt.so (2013.1, Build901 2013/11/27)

>  <Rbt.Parameter_File>
/export/apps/rDock/src/rDock_2013.1_src/data/scripts/dock_solv.prm

>  <Rbt.Receptor>
prm/blind_docking_60.prm

>  <SCORE>
-5.05106

>  <SCORE.INTER>
-5.05106

>  <SCORE.INTER.CONST>
1

>  <SCORE.INTER.POLAR>
0

>  <SCORE.INTER.ROT>
0

>  <SCORE.INTER.SOLV>
1.65597

>  <SCORE.INTER.VDW>
-7.51936

>  <SCORE.INTER.norm>
-1.26276

>  <SCORE.INTRA>
0

>  <SCORE.INTRA.DIHEDRAL>
0

>  <SCORE.INTRA.DIHEDRAL.0>
0

>  <SCORE.INTRA.POLAR>
0

>  <SCORE.INTRA.POLAR.0>
0

>  <SCORE.INTRA.REPUL>
0

>  <SCORE.INTRA.REPUL.0>
0

>  <SCORE.INTRA.SOLV>
0

>  <SCORE.INTRA.SOLV.lig_0>
0.449748

>  <SCORE.INTRA.VDW>
0

>  <SCORE.INTRA.VDW.0>
0

>  <SCORE.INTRA.norm>
0

>  <SCORE.RESTR>
0

>  <SCORE.RESTR.CAVITY>
0

>  <SCORE.RESTR.norm>
0

>  <SCORE.SYSTEM>
0

>  <SCORE.SYSTEM.CONST>
0

>  <SCORE.SYSTEM.DIHEDRAL>
0

>  <SCORE.SYSTEM.SOLV>
0

>  <SCORE.SYSTEM.norm>
0

>  <SCORE.heavy>
4

>  <SCORE.norm>
-1.26276

>  <RMSD>
2.082

$$$$
ligand
 OpenBabel11021811493D
libRbt.so/2013.1/901 2013/11/27
  4  3  0  0  0  0  0  0  0  0999 V2000
   36.4717   18.9586    8.6194 C   0  0  0  0  0  0  0  0  0  0  0  0
   36.5851   17.7577    8.2882 O   0  0  0  0  0  0  0  0  0  0  0  0
   36.5222   19.2560   10.1122 C   0  0  0  0  0  0  0  0  0  0  0  0
   36.3119   20.0008    7.8439 O   0  0  0  0  0  0  0  0  0  0  0  0
  1  2  1  0  0  0  0
  1  3  1  0  0  0  0
  1  4  1  0  0  0  0
M  END
>  <CHROM.1>
36.47199556,18.99130159,8.69962720,-2.17115572,-1.44723944,1.09945812

>  <Name>
ligand

>  <RI>
0

>  <Rbt.Current_Directory>
/home/itssahil/PROJECTS/Mol_Feturizer/New_Systems/rnas/4FEN

>  <Rbt.Executable>
rbdock ($Id: //depot/dev/client3/rdock/2013.1/src/exe/rbdock.cxx#4 $)

>  <Rbt.Library>
libRbt.so (2013.1, Build901 2013/11/27)

>  <Rbt.Parameter_File>
/export/apps/rDock/src/rDock_2013.1_src/data/scripts/dock_solv.prm

>  <Rbt.Receptor>
prm/blind_docking_80.prm

>  <SCORE>
-5.05947

>  <SCORE.INTER>
-5.05947

>  <SCORE.INTER.CONST>
1

>  <SCORE.INTER.POLAR>
0

>  <SCORE.INTER.ROT>
0

>  <SCORE.INTER.SOLV>
1.64604

>  <SCORE.INTER.VDW>
-7.52166

>  <SCORE.INTER.norm>
-1.26487

>  <SCORE.INTRA>
0

>  <SCORE.INTRA.DIHEDRAL>
0

>  <SCORE.INTRA.DIHEDRAL.0>
0

>  <SCORE.INTRA.POLAR>
0

>  <SCORE.INTRA.POLAR.0>
0

>  <SCORE.INTRA.REPUL>
0

>  <SCORE.INTRA.REPUL.0>
0

>  <SCORE.INTRA.SOLV>
0

>  <SCORE.INTRA.SOLV.lig_0>
0.449748

>  <SCORE.INTRA.VDW>
0

>  <SCORE.INTRA.VDW.0>
0

>  <SCORE.INTRA.norm>
0

>  <SCORE.RESTR>
0

>  <SCORE.RESTR.CAVITY>
0

>  <SCORE.RESTR.norm>
0

>  <SCORE.SYSTEM>
0

>  <SCORE.SYSTEM.CONST>
0

>  <SCORE.SYSTEM.DIHEDRAL>
0

>  <SCORE.SYSTEM.SOLV>
0

>  <SCORE.SYSTEM.norm>
0

>  <SCORE.heavy>
4

>  <SCORE.norm>
-1.26487

>  <RMSD>
2.082

$$$$
ligand
 OpenBabel11021811493D
libRbt.so/2013.1/901 2013/11/27
  4  3  0  0  0  0  0  0  0  0999 V2000
   36.4561   18.9629    8.6268 C   0  0  0  0  0  0  0  0  0  0  0  0
   36.2835   19.9543    7.8838 O   0  0  0  0  0  0  0  0  0  0  0  0
   36.5779   19.2484   10.1178 C   0  0  0  0  0  0  0  0  0  0  0  0
   36.5483   17.7023    8.2867 O   0  0  0  0  0  0  0  0  0  0  0  0
  1  2  1  0  0  0  0
  1  3  1  0  0  0  0
  1  4  1  0  0  0  0
M  END
>  <CHROM.1>
36.46530167,18.96264953,8.71293737,1.85143266,1.43032602,-2.35970333

>  <Name>
ligand

>  <RI>
0

>  <Rbt.Current_Directory>
/home/itssahil/PROJECTS/Mol_Feturizer/New_Systems/rnas/4FEN

>  <Rbt.Executable>
rbdock ($Id: //depot/dev/client3/rdock/2013.1/src/exe/rbdock.cxx#4 $)

>  <Rbt.Library>
libRbt.so (2013.1, Build901 2013/11/27)

>  <Rbt.Parameter_File>
/export/apps/rDock/src/rDock_2013.1_src/data/scripts/dock_solv.prm

>  <Rbt.Receptor>
prm/pocket_docking_4.prm

>  <SCORE>
-4.99276

>  <SCORE.INTER>
-4.99276

>  <SCORE.INTER.CONST>
1

>  <SCORE.INTER.POLAR>
0

>  <SCORE.INTER.ROT>
0

>  <SCORE.INTER.SOLV>
1.65928

>  <SCORE.INTER.VDW>
-7.4816

>  <SCORE.INTER.norm>
-1.24819

>  <SCORE.INTRA>
0

>  <SCORE.INTRA.DIHEDRAL>
0

>  <SCORE.INTRA.DIHEDRAL.0>
0

>  <SCORE.INTRA.POLAR>
0

>  <SCORE.INTRA.POLAR.0>
0

>  <SCORE.INTRA.REPUL>
0

>  <SCORE.INTRA.REPUL.0>
0

>  <SCORE.INTRA.SOLV>
0

>  <SCORE.INTRA.SOLV.lig_0>
0.449748

>  <SCORE.INTRA.VDW>
0

>  <SCORE.INTRA.VDW.0>
0

>  <SCORE.INTRA.norm>
0

>  <SCORE.RESTR>
0

>  <SCORE.RESTR.CAVITY>
0

>  <SCORE.RESTR.norm>
0

>  <SCORE.SYSTEM>
0

>  <SCORE.SYSTEM.CONST>
0

>  <SCORE.SYSTEM.DIHEDRAL>
0

>  <SCORE.SYSTEM.SOLV>
0

>  <SCORE.SYSTEM.norm>
0

>  <SCORE.heavy>
4

>  <SCORE.norm>
-1.24819

>  <RMSD>
2.082

$$$$
ligand
 OpenBabel11021811493D
libRbt.so/2013.1/901 2013/11/27
  4  3  0  0  0  0  0  0  0  0999 V2000
   36.4585   18.9730    8.6204 C   0  0  0  0  0  0  0  0  0  0  0  0
   36.2698   19.9643    7.8810 O   0  0  0  0  0  0  0  0  0  0  0  0
   36.5425   19.2508   10.1154 C   0  0  0  0  0  0  0  0  0  0  0  0
   36.5961   17.7185    8.2733 O   0  0  0  0  0  0  0  0  0  0  0  0
  1  2  1  0  0  0  0
  1  3  1  0  0  0  0
  1  4  1  0  0  0  0
M  END
>  <CHROM.1>
36.46602097,18.97240273,8.70665636,1.61526369,1.41820475,-2.11871742

>  <Name>
ligand

>  <RI>
0

>  <Rbt.Current_Directory>
/home/itssahil/PROJECTS/Mol_Feturizer/New_Systems/rnas/4FEN

>  <Rbt.Executable>
rbdock ($Id: //depot/dev/client3/rdock/2013.1/src/exe/rbdock.cxx#4 $)

>  <Rbt.Library>
libRbt.so (2013.1, Build901 2013/11/27)

>  <Rbt.Parameter_File>
/export/apps/rDock/src/rDock_2013.1_src/data/scripts/dock_solv.prm

>  <Rbt.Receptor>
prm/pocket_docking_5.prm

>  <SCORE>
-5.03477

>  <SCORE.INTER>
-5.03477

>  <SCORE.INTER.CONST>
1

>  <SCORE.INTER.POLAR>
0

>  <SCORE.INTER.ROT>
0

>  <SCORE.INTER.SOLV>
1.65382

>  <SCORE.INTER.VDW>
-7.50779

>  <SCORE.INTER.norm>
-1.25869

>  <SCORE.INTRA>
0

>  <SCORE.INTRA.DIHEDRAL>
0

>  <SCORE.INTRA.DIHEDRAL.0>
0

>  <SCORE.INTRA.POLAR>
0

>  <SCORE.INTRA.POLAR.0>
0

>  <SCORE.INTRA.REPUL>
0

>  <SCORE.INTRA.REPUL.0>
0

>  <SCORE.INTRA.SOLV>
0

>  <SCORE.INTRA.SOLV.lig_0>
0.449748

>  <SCORE.INTRA.VDW>
0

>  <SCORE.INTRA.VDW.0>
0

>  <SCORE.INTRA.norm>
0

>  <SCORE.RESTR>
0

>  <SCORE.RESTR.CAVITY>
0

>  <SCORE.RESTR.norm>
0

>  <SCORE.SYSTEM>
0

>  <SCORE.SYSTEM.CONST>
0

>  <SCORE.SYSTEM.DIHEDRAL>
0

>  <SCORE.SYSTEM.SOLV>
0

>  <SCORE.SYSTEM.norm>
0

>  <SCORE.heavy>
4

>  <SCORE.norm>
-1.25869

>  <RMSD>
2.082

$$$$
ligand
 OpenBabel11021811493D
libRbt.so/2013.1/901 2013/11/27
  4  3  0  0  0  0  0  0  0  0999 V2000
   36.4514   18.9893    8.6112 C   0  0  0  0  0  0  0  0  0  0  0  0
   36.2573   19.9781    7.8701 O   0  0  0  0  0  0  0  0  0  0  0  0
   36.4989   19.2653   10.1082 C   0  0  0  0  0  0  0  0  0  0  0  0
   36.6222   17.7387    8.2646 O   0  0  0  0  0  0  0  0  0  0  0  0
  1  2  1  0  0  0  0
  1  3  1  0  0  0  0
  1  4  1  0  0  0  0
M  END
>  <CHROM.1>
36.45716644,18.98866093,8.69763389,1.43881083,1.40857076,-1.94231323

>  <Name>
ligand

>  <RI>
0

>  <Rbt.Current_Directory>
/home/itssahil/PROJECTS/Mol_Feturizer/New_Systems/rnas/4FEN

>  <Rbt.Executable>
rbdock ($Id: //depot/dev/client3/rdock/2013.1/src/exe/rbdock.cxx#4 $)

>  <Rbt.Library>
libRbt.so (2013.1, Build901 2013/11/27)

>  <Rbt.Parameter_File>
/export/apps/rDock/src/rDock_2013.1_src/data/scripts/dock_solv.prm

>  <Rbt.Receptor>
prm/pocket_docking_8.prm

>  <SCORE>
-5.05291

>  <SCORE.INTER>
-5.05291

>  <SCORE.INTER.CONST>
1

>  <SCORE.INTER.POLAR>
0

>  <SCORE.INTER.ROT>
0

>  <SCORE.INTER.SOLV>
1.64907

>  <SCORE.INTER.VDW>
-7.5183

>  <SCORE.INTER.norm>
-1.26323

>  <SCORE.INTRA>
0

>  <SCORE.INTRA.DIHEDRAL>
0

>  <SCORE.INTRA.DIHEDRAL.0>
0

>  <SCORE.INTRA.POLAR>
0

>  <SCORE.INTRA.POLAR.0>
0

>  <SCORE.INTRA.REPUL>
0

>  <SCORE.INTRA.REPUL.0>
0

>  <SCORE.INTRA.SOLV>
0

>  <SCORE.INTRA.SOLV.lig_0>
0.449748

>  <SCORE.INTRA.VDW>
0

>  <SCORE.INTRA.VDW.0>
0

>  <SCORE.INTRA.norm>
0

>  <SCORE.RESTR>
0

>  <SCORE.RESTR.CAVITY>
0

>  <SCORE.RESTR.norm>
0

>  <SCORE.SYSTEM>
0

>  <SCORE.SYSTEM.CONST>
0

>  <SCORE.SYSTEM.DIHEDRAL>
0

>  <SCORE.SYSTEM.SOLV>
0

>  <SCORE.SYSTEM.norm>
0

>  <SCORE.heavy>
4

>  <SCORE.norm>
-1.26323

>  <RMSD>
2.082

$$$$
ligand
 OpenBabel11021811493D
libRbt.so/2013.1/901 2013/11/27
  4  3  0  0  0  0  0  0  0  0999 V2000
   36.4646   18.9518    8.6228 C   0  0  0  0  0  0  0  0  0  0  0  0
   36.6296   17.7563    8.2938 O   0  0  0  0  0  0  0  0  0  0  0  0
   36.4847   19.2512   10.1159 C   0  0  0  0  0  0  0  0  0  0  0  0
   36.2735   19.9868    7.8447 O   0  0  0  0  0  0  0  0  0  0  0  0
  1  2  1  0  0  0  0
  1  3  1  0  0  0  0
  1  4  1  0  0  0  0
M  END
>  <CHROM.1>
36.46264125,18.98453827,8.70301516,-1.98258229,-1.41496683,1.28585756

>  <Name>
ligand

>  <RI>
0

>  <Rbt.Current_Directory>
/home/itssahil/PROJECTS/Mol_Feturizer/New_Systems/rnas/4FEN

>  <Rbt.Executable>
rbdock ($Id: //depot/dev/client3/rdock/2013.1/src/exe/rbdock.cxx#4 $)

>  <Rbt.Library>
libRbt.so (2013.1, Build901 2013/11/27)

>  <Rbt.Parameter_File>
/export/apps/rDock/src/rDock_2013.1_src/data/scripts/dock_solv.prm

>  <Rbt.Receptor>
prm/pocket_docking_8.prm

>  <SCORE>
-5.05246

>  <SCORE.INTER>
-5.05246

>  <SCORE.INTER.CONST>
1

>  <SCORE.INTER.POLAR>
0

>  <SCORE.INTER.ROT>
0

>  <SCORE.INTER.SOLV>
1.63192

>  <SCORE.INTER.VDW>
-7.51228

>  <SCORE.INTER.norm>
-1.26311

>  <SCORE.INTRA>
0

>  <SCORE.INTRA.DIHEDRAL>
0

>  <SCORE.INTRA.DIHEDRAL.0>
0

>  <SCORE.INTRA.POLAR>
0

>  <SCORE.INTRA.POLAR.0>
0

>  <SCORE.INTRA.REPUL>
0

>  <SCORE.INTRA.REPUL.0>
0

>  <SCORE.INTRA.SOLV>
0

>  <SCORE.INTRA.SOLV.lig_0>
0.449748

>  <SCORE.INTRA.VDW>
0

>  <SCORE.INTRA.VDW.0>
0

>  <SCORE.INTRA.norm>
0

>  <SCORE.RESTR>
0

>  <SCORE.RESTR.CAVITY>
0

>  <SCORE.RESTR.norm>
0

>  <SCORE.SYSTEM>
0

>  <SCORE.SYSTEM.CONST>
0

>  <SCORE.SYSTEM.DIHEDRAL>
0

>  <SCORE.SYSTEM.SOLV>
0

>  <SCORE.SYSTEM.norm>
0

>  <SCORE.heavy>
4

>  <SCORE.norm>
-1.26311

>  <RMSD>
2.082

$$$$
ligand
 OpenBabel11021811493D
libRbt.so/2013.1/901 2013/11/27
  4  3  0  0  0  0  0  0  0  0999 V2000
   36.4603   18.9561    8.6183 C   0  0  0  0  0  0  0  0  0  0  0  0
   36.5455   17.7508    8.2948 O   0  0  0  0  0  0  0  0  0  0  0  0
   36.5339   19.2631   10.1082 C   0  0  0  0  0  0  0  0  0  0  0  0
   36.3130   19.9957    7.8369 O   0  0  0  0  0  0  0  0  0  0  0  0
  1  2  1  0  0  0  0
  1  3  1  0  0  0  0
  1  4  1  0  0  0  0
M  END
>  <CHROM.1>
36.46221508,18.98937248,8.69830071,-2.34488219,-1.45857283,0.91961116

>  <Name>
ligand

>  <RI>
0

>  <Rbt.Current_Directory>
/home/itssahil/PROJECTS/Mol_Feturizer/New_Systems/rnas/4FEN

>  <Rbt.Executable>
rbdock ($Id: //depot/dev/client3/rdock/2013.1/src/exe/rbdock.cxx#4 $)

>  <Rbt.Library>
libRbt.so (2013.1, Build901 2013/11/27)

>  <Rbt.Parameter_File>
/export/apps/rDock/src/rDock_2013.1_src/data/scripts/dock_solv.prm

>  <Rbt.Receptor>
prm/pocket_docking_5.prm

>  <SCORE>
-5.04524

>  <SCORE.INTER>
-5.04524

>  <SCORE.INTER.CONST>
1

>  <SCORE.INTER.POLAR>
0

>  <SCORE.INTER.ROT>
0

>  <SCORE.INTER.SOLV>
1.65355

>  <SCORE.INTER.VDW>
-7.51468

>  <SCORE.INTER.norm>
-1.26131

>  <SCORE.INTRA>
0

>  <SCORE.INTRA.DIHEDRAL>
0

>  <SCORE.INTRA.DIHEDRAL.0>
0

>  <SCORE.INTRA.POLAR>
0

>  <SCORE.INTRA.POLAR.0>
0

>  <SCORE.INTRA.REPUL>
0

>  <SCORE.INTRA.REPUL.0>
0

>  <SCORE.INTRA.SOLV>
0

>  <SCORE.INTRA.SOLV.lig_0>
0.449748

>  <SCORE.INTRA.VDW>
0

>  <SCORE.INTRA.VDW.0>
0

>  <SCORE.INTRA.norm>
0

>  <SCORE.RESTR>
0

>  <SCORE.RESTR.CAVITY>
0

>  <SCORE.RESTR.norm>
0

>  <SCORE.SYSTEM>
0

>  <SCORE.SYSTEM.CONST>
0

>  <SCORE.SYSTEM.DIHEDRAL>
0

>  <SCORE.SYSTEM.SOLV>
0

>  <SCORE.SYSTEM.norm>
0

>  <SCORE.heavy>
4

>  <SCORE.norm>
-1.26131

>  <RMSD>
2.083

$$$$
ligand
 OpenBabel11021811493D
libRbt.so/2013.1/901 2013/11/27
  4  3  0  0  0  0  0  0  0  0999 V2000
   36.4724   18.9582    8.6172 C   0  0  0  0  0  0  0  0  0  0  0  0
   36.5955   17.7599    8.2801 O   0  0  0  0  0  0  0  0  0  0  0  0
   36.5129   19.2477   10.1119 C   0  0  0  0  0  0  0  0  0  0  0  0
   36.3101   20.0036    7.8465 O   0  0  0  0  0  0  0  0  0  0  0  0
  1  2  1  0  0  0  0
  1  3  1  0  0  0  0
  1  4  1  0  0  0  0
M  END
>  <CHROM.1>
36.47210736,18.99044878,8.69759727,-2.10945393,-1.44370185,1.16615375

>  <Name>
ligand

>  <RI>
0

>  <Rbt.Current_Directory>
/home/itssahil/PROJECTS/Mol_Feturizer/New_Systems/rnas/4FEN

>  <Rbt.Executable>
rbdock ($Id: //depot/dev/client3/rdock/2013.1/src/exe/rbdock.cxx#4 $)

>  <Rbt.Library>
libRbt.so (2013.1, Build901 2013/11/27)

>  <Rbt.Parameter_File>
/export/apps/rDock/src/rDock_2013.1_src/data/scripts/dock_solv.prm

>  <Rbt.Receptor>
prm/pocket_docking_6.prm

>  <SCORE>
-5.0622

>  <SCORE.INTER>
-5.0622

>  <SCORE.INTER.CONST>
1

>  <SCORE.INTER.POLAR>
0

>  <SCORE.INTER.ROT>
0

>  <SCORE.INTER.SOLV>
1.64418

>  <SCORE.INTER.VDW>
-7.52286

>  <SCORE.INTER.norm>
-1.26555

>  <SCORE.INTRA>
0

>  <SCORE.INTRA.DIHEDRAL>
0

>  <SCORE.INTRA.DIHEDRAL.0>
0

>  <SCORE.INTRA.POLAR>
0

>  <SCORE.INTRA.POLAR.0>
0

>  <SCORE.INTRA.REPUL>
0

>  <SCORE.INTRA.REPUL.0>
0

>  <SCORE.INTRA.SOLV>
0

>  <SCORE.INTRA.SOLV.lig_0>
0.449748

>  <SCORE.INTRA.VDW>
0

>  <SCORE.INTRA.VDW.0>
0

>  <SCORE.INTRA.norm>
0

>  <SCORE.RESTR>
0

>  <SCORE.RESTR.CAVITY>
0

>  <SCORE.RESTR.norm>
0

>  <SCORE.SYSTEM>
0

>  <SCORE.SYSTEM.CONST>
0

>  <SCORE.SYSTEM.DIHEDRAL>
0

>  <SCORE.SYSTEM.SOLV>
0

>  <SCORE.SYSTEM.norm>
0

>  <SCORE.heavy>
4

>  <SCORE.norm>
-1.26555

>  <RMSD>
2.083

$$$$
ligand
 OpenBabel11021811493D
libRbt.so/2013.1/901 2013/11/27
  4  3  0  0  0  0  0  0  0  0999 V2000
   36.4581   18.9806    8.6127 C   0  0  0  0  0  0  0  0  0  0  0  0
   36.2595   19.9767    7.8826 O   0  0  0  0  0  0  0  0  0  0  0  0
   36.5041   19.2401   10.1127 C   0  0  0  0  0  0  0  0  0  0  0  0
   36.6349   17.7348    8.2523 O   0  0  0  0  0  0  0  0  0  0  0  0
  1  2  1  0  0  0  0
  1  3  1  0  0  0  0
  1  4  1  0  0  0  0
M  END
>  <CHROM.1>
36.46391142,18.97902411,8.69915590,1.42748423,1.40424769,-1.91998720

>  <Name>
ligand

>  <RI>
0

>  <Rbt.Current_Directory>
/home/itssahil/PROJECTS/Mol_Feturizer/New_Systems/rnas/4FEN

>  <Rbt.Executable>
rbdock ($Id: //depot/dev/client3/rdock/2013.1/src/exe/rbdock.cxx#4 $)

>  <Rbt.Library>
libRbt.so (2013.1, Build901 2013/11/27)

>  <Rbt.Parameter_File>
/export/apps/rDock/src/rDock_2013.1_src/data/scripts/dock_solv.prm

>  <Rbt.Receptor>
prm/pocket_docking_8.prm

>  <SCORE>
-5.049

>  <SCORE.INTER>
-5.049

>  <SCORE.INTER.CONST>
1

>  <SCORE.INTER.POLAR>
0

>  <SCORE.INTER.ROT>
0

>  <SCORE.INTER.SOLV>
1.64742

>  <SCORE.INTER.VDW>
-7.51514

>  <SCORE.INTER.norm>
-1.26225

>  <SCORE.INTRA>
0

>  <SCORE.INTRA.DIHEDRAL>
0

>  <SCORE.INTRA.DIHEDRAL.0>
0

>  <SCORE.INTRA.POLAR>
0

>  <SCORE.INTRA.POLAR.0>
0

>  <SCORE.INTRA.REPUL>
0

>  <SCORE.INTRA.REPUL.0>
0

>  <SCORE.INTRA.SOLV>
0

>  <SCORE.INTRA.SOLV.lig_0>
0.449748

>  <SCORE.INTRA.VDW>
0

>  <SCORE.INTRA.VDW.0>
0

>  <SCORE.INTRA.norm>
0

>  <SCORE.RESTR>
0

>  <SCORE.RESTR.CAVITY>
0

>  <SCORE.RESTR.norm>
0

>  <SCORE.SYSTEM>
0

>  <SCORE.SYSTEM.CONST>
0

>  <SCORE.SYSTEM.DIHEDRAL>
0

>  <SCORE.SYSTEM.SOLV>
0

>  <SCORE.SYSTEM.norm>
0

>  <SCORE.heavy>
4

>  <SCORE.norm>
-1.26225

>  <RMSD>
2.083

$$$$
ligand
 OpenBabel11021811493D
libRbt.so/2013.1/901 2013/11/27
  4  3  0  0  0  0  0  0  0  0999 V2000
   36.4603   18.9536    8.6194 C   0  0  0  0  0  0  0  0  0  0  0  0
   36.5998   17.7564    8.2850 O   0  0  0  0  0  0  0  0  0  0  0  0
   36.5187   19.2500   10.1121 C   0  0  0  0  0  0  0  0  0  0  0  0
   36.2674   19.9928    7.8473 O   0  0  0  0  0  0  0  0  0  0  0  0
  1  2  1  0  0  0  0
  1  3  1  0  0  0  0
  1  4  1  0  0  0  0
M  END
>  <CHROM.1>
36.46069708,18.98624246,8.69963397,2.15651240,1.42078396,-2.02602692

>  <Name>
ligand

>  <RI>
0

>  <Rbt.Current_Directory>
/home/itssahil/PROJECTS/Mol_Feturizer/New_Systems/rnas/4FEN

>  <Rbt.Executable>
rbdock ($Id: //depot/dev/client3/rdock/2013.1/src/exe/rbdock.cxx#4 $)

>  <Rbt.Library>
libRbt.so (2013.1, Build901 2013/11/27)

>  <Rbt.Parameter_File>
/export/apps/rDock/src/rDock_2013.1_src/data/scripts/dock_solv.prm

>  <Rbt.Receptor>
prm/pocket_docking_8.prm

>  <SCORE>
-5.04949

>  <SCORE.INTER>
-5.04949

>  <SCORE.INTER.CONST>
1

>  <SCORE.INTER.POLAR>
0

>  <SCORE.INTER.ROT>
0

>  <SCORE.INTER.SOLV>
1.64879

>  <SCORE.INTER.VDW>
-7.51593

>  <SCORE.INTER.norm>
-1.26237

>  <SCORE.INTRA>
0

>  <SCORE.INTRA.DIHEDRAL>
0

>  <SCORE.INTRA.DIHEDRAL.0>
0

>  <SCORE.INTRA.POLAR>
0

>  <SCORE.INTRA.POLAR.0>
0

>  <SCORE.INTRA.REPUL>
0

>  <SCORE.INTRA.REPUL.0>
0

>  <SCORE.INTRA.SOLV>
0

>  <SCORE.INTRA.SOLV.lig_0>
0.449748

>  <SCORE.INTRA.VDW>
0

>  <SCORE.INTRA.VDW.0>
0

>  <SCORE.INTRA.norm>
0

>  <SCORE.RESTR>
0

>  <SCORE.RESTR.CAVITY>
0

>  <SCORE.RESTR.norm>
0

>  <SCORE.SYSTEM>
0

>  <SCORE.SYSTEM.CONST>
0

>  <SCORE.SYSTEM.DIHEDRAL>
0

>  <SCORE.SYSTEM.SOLV>
0

>  <SCORE.SYSTEM.norm>
0

>  <SCORE.heavy>
4

>  <SCORE.norm>
-1.26237

>  <RMSD>
2.083

$$$$
ligand
 OpenBabel11021811493D
libRbt.so/2013.1/901 2013/11/27
  4  3  0  0  0  0  0  0  0  0999 V2000
   36.4685   18.9651    8.6150 C   0  0  0  0  0  0  0  0  0  0  0  0
   36.5833   17.7646    8.2830 O   0  0  0  0  0  0  0  0  0  0  0  0
   36.5208   19.2617   10.1079 C   0  0  0  0  0  0  0  0  0  0  0  0
   36.3060   20.0076    7.8403 O   0  0  0  0  0  0  0  0  0  0  0  0
  1  2  1  0  0  0  0
  1  3  1  0  0  0  0
  1  4  1  0  0  0  0
M  END
>  <CHROM.1>
36.46889800,18.99780437,8.69526040,-2.17603004,-1.44518344,1.09521065

>  <Name>
ligand

>  <RI>
0

>  <Rbt.Current_Directory>
/home/itssahil/PROJECTS/Mol_Feturizer/New_Systems/rnas/4FEN

>  <Rbt.Executable>
rbdock ($Id: //depot/dev/client3/rdock/2013.1/src/exe/rbdock.cxx#4 $)

>  <Rbt.Library>
libRbt.so (2013.1, Build901 2013/11/27)

>  <Rbt.Parameter_File>
/export/apps/rDock/src/rDock_2013.1_src/data/scripts/dock_solv.prm

>  <Rbt.Receptor>
prm/pocket_docking_8.prm

>  <SCORE>
-5.0605

>  <SCORE.INTER>
-5.0605

>  <SCORE.INTER.CONST>
1

>  <SCORE.INTER.POLAR>
0

>  <SCORE.INTER.ROT>
0

>  <SCORE.INTER.SOLV>
1.65076

>  <SCORE.INTER.VDW>
-7.52392

>  <SCORE.INTER.norm>
-1.26512

>  <SCORE.INTRA>
0

>  <SCORE.INTRA.DIHEDRAL>
0

>  <SCORE.INTRA.DIHEDRAL.0>
0

>  <SCORE.INTRA.POLAR>
0

>  <SCORE.INTRA.POLAR.0>
0

>  <SCORE.INTRA.REPUL>
0

>  <SCORE.INTRA.REPUL.0>
0

>  <SCORE.INTRA.SOLV>
0

>  <SCORE.INTRA.SOLV.lig_0>
0.449748

>  <SCORE.INTRA.VDW>
0

>  <SCORE.INTRA.VDW.0>
0

>  <SCORE.INTRA.norm>
0

>  <SCORE.RESTR>
0

>  <SCORE.RESTR.CAVITY>
0

>  <SCORE.RESTR.norm>
0

>  <SCORE.SYSTEM>
0

>  <SCORE.SYSTEM.CONST>
0

>  <SCORE.SYSTEM.DIHEDRAL>
0

>  <SCORE.SYSTEM.SOLV>
0

>  <SCORE.SYSTEM.norm>
0

>  <SCORE.heavy>
4

>  <SCORE.norm>
-1.26512

>  <RMSD>
2.083

$$$$
ligand
 OpenBabel11021811493D
libRbt.so/2013.1/901 2013/11/27
  4  3  0  0  0  0  0  0  0  0999 V2000
   36.4516   18.9751    8.6162 C   0  0  0  0  0  0  0  0  0  0  0  0
   36.2705   19.9655    7.8739 O   0  0  0  0  0  0  0  0  0  0  0  0
   36.5493   19.2582   10.1094 C   0  0  0  0  0  0  0  0  0  0  0  0
   36.5708   17.7175    8.2736 O   0  0  0  0  0  0  0  0  0  0  0  0
  1  2  1  0  0  0  0
  1  3  1  0  0  0  0
  1  4  1  0  0  0  0
M  END
>  <CHROM.1>
36.45970840,18.97478343,8.70242560,1.70105062,1.42495405,-2.20784847

>  <Name>
ligand

>  <RI>
0

>  <Rbt.Current_Directory>
/home/itssahil/PROJECTS/Mol_Feturizer/New_Systems/rnas/4FEN

>  <Rbt.Executable>
rbdock ($Id: //depot/dev/client3/rdock/2013.1/src/exe/rbdock.cxx#4 $)

>  <Rbt.Library>
libRbt.so (2013.1, Build901 2013/11/27)

>  <Rbt.Parameter_File>
/export/apps/rDock/src/rDock_2013.1_src/data/scripts/dock_solv.prm

>  <Rbt.Receptor>
prm/blind_docking_80.prm

>  <SCORE>
-5.02267

>  <SCORE.INTER>
-5.02267

>  <SCORE.INTER.CONST>
1

>  <SCORE.INTER.POLAR>
0

>  <SCORE.INTER.ROT>
0

>  <SCORE.INTER.SOLV>
1.66136

>  <SCORE.INTER.VDW>
-7.50223

>  <SCORE.INTER.norm>
-1.25567

>  <SCORE.INTRA>
0

>  <SCORE.INTRA.DIHEDRAL>
0

>  <SCORE.INTRA.DIHEDRAL.0>
0

>  <SCORE.INTRA.POLAR>
0

>  <SCORE.INTRA.POLAR.0>
0

>  <SCORE.INTRA.REPUL>
0

>  <SCORE.INTRA.REPUL.0>
0

>  <SCORE.INTRA.SOLV>
0

>  <SCORE.INTRA.SOLV.lig_0>
0.449748

>  <SCORE.INTRA.VDW>
0

>  <SCORE.INTRA.VDW.0>
0

>  <SCORE.INTRA.norm>
0

>  <SCORE.RESTR>
0

>  <SCORE.RESTR.CAVITY>
0

>  <SCORE.RESTR.norm>
0

>  <SCORE.SYSTEM>
0

>  <SCORE.SYSTEM.CONST>
0

>  <SCORE.SYSTEM.DIHEDRAL>
0

>  <SCORE.SYSTEM.SOLV>
0

>  <SCORE.SYSTEM.norm>
0

>  <SCORE.heavy>
4

>  <SCORE.norm>
-1.25567

>  <RMSD>
2.084

$$$$
ligand
 OpenBabel11021811493D
libRbt.so/2013.1/901 2013/11/27
  4  3  0  0  0  0  0  0  0  0999 V2000
   36.4626   18.9661    8.6122 C   0  0  0  0  0  0  0  0  0  0  0  0
   36.5720   17.7638    8.2848 O   0  0  0  0  0  0  0  0  0  0  0  0
   36.5130   19.2681   10.1040 C   0  0  0  0  0  0  0  0  0  0  0  0
   36.3072   20.0065    7.8332 O   0  0  0  0  0  0  0  0  0  0  0  0
  1  2  1  0  0  0  0
  1  3  1  0  0  0  0
  1  4  1  0  0  0  0
M  END
>  <CHROM.1>
36.46296814,18.99912665,8.69227188,-2.17851628,-1.45081358,1.08900143

>  <Name>
ligand

>  <RI>
0

>  <Rbt.Current_Directory>
/home/itssahil/PROJECTS/Mol_Feturizer/New_Systems/rnas/4FEN

>  <Rbt.Executable>
rbdock ($Id: //depot/dev/client3/rdock/2013.1/src/exe/rbdock.cxx#4 $)

>  <Rbt.Library>
libRbt.so (2013.1, Build901 2013/11/27)

>  <Rbt.Parameter_File>
/export/apps/rDock/src/rDock_2013.1_src/data/scripts/dock_solv.prm

>  <Rbt.Receptor>
prm/blind_docking_80.prm

>  <SCORE>
-5.05995

>  <SCORE.INTER>
-5.05995

>  <SCORE.INTER.CONST>
1

>  <SCORE.INTER.POLAR>
0

>  <SCORE.INTER.ROT>
0

>  <SCORE.INTER.SOLV>
1.65184

>  <SCORE.INTER.VDW>
-7.52391

>  <SCORE.INTER.norm>
-1.26499

>  <SCORE.INTRA>
0

>  <SCORE.INTRA.DIHEDRAL>
0

>  <SCORE.INTRA.DIHEDRAL.0>
0

>  <SCORE.INTRA.POLAR>
0

>  <SCORE.INTRA.POLAR.0>
0

>  <SCORE.INTRA.REPUL>
0

>  <SCORE.INTRA.REPUL.0>
0

>  <SCORE.INTRA.SOLV>
0

>  <SCORE.INTRA.SOLV.lig_0>
0.449748

>  <SCORE.INTRA.VDW>
0

>  <SCORE.INTRA.VDW.0>
0

>  <SCORE.INTRA.norm>
0

>  <SCORE.RESTR>
0

>  <SCORE.RESTR.CAVITY>
0

>  <SCORE.RESTR.norm>
0

>  <SCORE.SYSTEM>
0

>  <SCORE.SYSTEM.CONST>
0

>  <SCORE.SYSTEM.DIHEDRAL>
0

>  <SCORE.SYSTEM.SOLV>
0

>  <SCORE.SYSTEM.norm>
0

>  <SCORE.heavy>
4

>  <SCORE.norm>
-1.26499

>  <RMSD>
2.084

$$$$
ligand
 OpenBabel11021811493D
libRbt.so/2013.1/901 2013/11/27
  4  3  0  0  0  0  0  0  0  0999 V2000
   36.4516   18.9789    8.6144 C   0  0  0  0  0  0  0  0  0  0  0  0
   36.2741   19.9716    7.8742 O   0  0  0  0  0  0  0  0  0  0  0  0
   36.5660   19.2601   10.1068 C   0  0  0  0  0  0  0  0  0  0  0  0
   36.5547   17.7203    8.2702 O   0  0  0  0  0  0  0  0  0  0  0  0
  1  2  1  0  0  0  0
  1  3  1  0  0  0  0
  1  4  1  0  0  0  0
M  END
>  <CHROM.1>
36.46056120,18.97845601,8.70057980,1.79589086,1.42721059,-2.30120974

>  <Name>
ligand

>  <RI>
0

>  <Rbt.Current_Directory>
/home/itssahil/PROJECTS/Mol_Feturizer/New_Systems/rnas/4FEN

>  <Rbt.Executable>
rbdock ($Id: //depot/dev/client3/rdock/2013.1/src/exe/rbdock.cxx#4 $)

>  <Rbt.Library>
libRbt.so (2013.1, Build901 2013/11/27)

>  <Rbt.Parameter_File>
/export/apps/rDock/src/rDock_2013.1_src/data/scripts/dock_solv.prm

>  <Rbt.Receptor>
prm/pocket_docking_5.prm

>  <SCORE>
-5.00596

>  <SCORE.INTER>
-5.00596

>  <SCORE.INTER.CONST>
1

>  <SCORE.INTER.POLAR>
0

>  <SCORE.INTER.ROT>
0

>  <SCORE.INTER.SOLV>
1.66874

>  <SCORE.INTER.VDW>
-7.49355

>  <SCORE.INTER.norm>
-1.25149

>  <SCORE.INTRA>
0

>  <SCORE.INTRA.DIHEDRAL>
0

>  <SCORE.INTRA.DIHEDRAL.0>
0

>  <SCORE.INTRA.POLAR>
0

>  <SCORE.INTRA.POLAR.0>
0

>  <SCORE.INTRA.REPUL>
0

>  <SCORE.INTRA.REPUL.0>
0

>  <SCORE.INTRA.SOLV>
0

>  <SCORE.INTRA.SOLV.lig_0>
0.449748

>  <SCORE.INTRA.VDW>
0

>  <SCORE.INTRA.VDW.0>
0

>  <SCORE.INTRA.norm>
0

>  <SCORE.RESTR>
0

>  <SCORE.RESTR.CAVITY>
0

>  <SCORE.RESTR.norm>
0

>  <SCORE.SYSTEM>
0

>  <SCORE.SYSTEM.CONST>
0

>  <SCORE.SYSTEM.DIHEDRAL>
0

>  <SCORE.SYSTEM.SOLV>
0

>  <SCORE.SYSTEM.norm>
0

>  <SCORE.heavy>
4

>  <SCORE.norm>
-1.25149

>  <RMSD>
2.084

$$$$
ligand
 OpenBabel11021811493D
libRbt.so/2013.1/901 2013/11/27
  4  3  0  0  0  0  0  0  0  0999 V2000
   36.4641   18.9613    8.6149 C   0  0  0  0  0  0  0  0  0  0  0  0
   36.5831   17.7591    8.2903 O   0  0  0  0  0  0  0  0  0  0  0  0
   36.5003   19.2656   10.1067 C   0  0  0  0  0  0  0  0  0  0  0  0
   36.3093   19.9996    7.8331 O   0  0  0  0  0  0  0  0  0  0  0  0
  1  2  1  0  0  0  0
  1  3  1  0  0  0  0
  1  4  1  0  0  0  0
M  END
>  <CHROM.1>
36.46362047,18.99436536,8.69495732,-2.09554291,-1.44922727,1.16990194

>  <Name>
ligand

>  <RI>
0

>  <Rbt.Current_Directory>
/home/itssahil/PROJECTS/Mol_Feturizer/New_Systems/rnas/4FEN

>  <Rbt.Executable>
rbdock ($Id: //depot/dev/client3/rdock/2013.1/src/exe/rbdock.cxx#4 $)

>  <Rbt.Library>
libRbt.so (2013.1, Build901 2013/11/27)

>  <Rbt.Parameter_File>
/export/apps/rDock/src/rDock_2013.1_src/data/scripts/dock_solv.prm

>  <Rbt.Receptor>
prm/pocket_docking_6.prm

>  <SCORE>
-5.06521

>  <SCORE.INTER>
-5.06521

>  <SCORE.INTER.CONST>
1

>  <SCORE.INTER.POLAR>
0

>  <SCORE.INTER.ROT>
0

>  <SCORE.INTER.SOLV>
1.64404

>  <SCORE.INTER.VDW>
-7.52482

>  <SCORE.INTER.norm>
-1.2663

>  <SCORE.INTRA>
0

>  <SCORE.INTRA.DIHEDRAL>
0

>  <SCORE.INTRA.DIHEDRAL.0>
0

>  <SCORE.INTRA.POLAR>
0

>  <SCORE.INTRA.POLAR.0>
0

>  <SCORE.INTRA.REPUL>
0

>  <SCORE.INTRA.REPUL.0>
0

>  <SCORE.INTRA.SOLV>
0

>  <SCORE.INTRA.SOLV.lig_0>
0.449748

>  <SCORE.INTRA.VDW>
0

>  <SCORE.INTRA.VDW.0>
0

>  <SCORE.INTRA.norm>
0

>  <SCORE.RESTR>
0

>  <SCORE.RESTR.CAVITY>
0

>  <SCORE.RESTR.norm>
0

>  <SCORE.SYSTEM>
0

>  <SCORE.SYSTEM.CONST>
0

>  <SCORE.SYSTEM.DIHEDRAL>
0

>  <SCORE.SYSTEM.SOLV>
0

>  <SCORE.SYSTEM.norm>
0

>  <SCORE.heavy>
4

>  <SCORE.norm>
-1.2663

>  <RMSD>
2.084

$$$$
ligand
 OpenBabel11021811493D
libRbt.so/2013.1/901 2013/11/27
  4  3  0  0  0  0  0  0  0  0999 V2000
   36.4799   18.9271    8.6373 C   0  0  0  0  0  0  0  0  0  0  0  0
   36.5491   17.7196    8.3181 O   0  0  0  0  0  0  0  0  0  0  0  0
   36.5570   19.2384   10.1261 C   0  0  0  0  0  0  0  0  0  0  0  0
   36.3468   19.9658    7.8522 O   0  0  0  0  0  0  0  0  0  0  0  0
  1  2  1  0  0  0  0
  1  3  1  0  0  0  0
  1  4  1  0  0  0  0
M  END
>  <CHROM.1>
36.48221527,18.96064051,8.71716859,-2.42200830,-1.46912264,0.83936696

>  <Name>
ligand

>  <RI>
0

>  <Rbt.Current_Directory>
/home/itssahil/PROJECTS/Mol_Feturizer/New_Systems/rnas/4FEN

>  <Rbt.Executable>
rbdock ($Id: //depot/dev/client3/rdock/2013.1/src/exe/rbdock.cxx#4 $)

>  <Rbt.Library>
libRbt.so (2013.1, Build901 2013/11/27)

>  <Rbt.Parameter_File>
/export/apps/rDock/src/rDock_2013.1_src/data/scripts/dock_solv.prm

>  <Rbt.Receptor>
prm/pocket_docking_7.prm

>  <SCORE>
-5.00648

>  <SCORE.INTER>
-5.00648

>  <SCORE.INTER.CONST>
1

>  <SCORE.INTER.POLAR>
0

>  <SCORE.INTER.ROT>
0

>  <SCORE.INTER.SOLV>
1.63756

>  <SCORE.INTER.VDW>
-7.48351

>  <SCORE.INTER.norm>
-1.25162

>  <SCORE.INTRA>
0

>  <SCORE.INTRA.DIHEDRAL>
0

>  <SCORE.INTRA.DIHEDRAL.0>
0

>  <SCORE.INTRA.POLAR>
0

>  <SCORE.INTRA.POLAR.0>
0

>  <SCORE.INTRA.REPUL>
0

>  <SCORE.INTRA.REPUL.0>
0

>  <SCORE.INTRA.SOLV>
0

>  <SCORE.INTRA.SOLV.lig_0>
0.449748

>  <SCORE.INTRA.VDW>
0

>  <SCORE.INTRA.VDW.0>
0

>  <SCORE.INTRA.norm>
0

>  <SCORE.RESTR>
0

>  <SCORE.RESTR.CAVITY>
0

>  <SCORE.RESTR.norm>
0

>  <SCORE.SYSTEM>
0

>  <SCORE.SYSTEM.CONST>
0

>  <SCORE.SYSTEM.DIHEDRAL>
0

>  <SCORE.SYSTEM.SOLV>
0

>  <SCORE.SYSTEM.norm>
0

>  <SCORE.heavy>
4

>  <SCORE.norm>
-1.25162

>  <RMSD>
2.084

$$$$
ligand
 OpenBabel11021811493D
libRbt.so/2013.1/901 2013/11/27
  4  3  0  0  0  0  0  0  0  0999 V2000
   36.4671   18.9861    8.6134 C   0  0  0  0  0  0  0  0  0  0  0  0
   36.2660   19.9768    7.8767 O   0  0  0  0  0  0  0  0  0  0  0  0
   36.4892   19.2519   10.1129 C   0  0  0  0  0  0  0  0  0  0  0  0
   36.6645   17.7413    8.2604 O   0  0  0  0  0  0  0  0  0  0  0  0
  1  2  1  0  0  0  0
  1  3  1  0  0  0  0
  1  4  1  0  0  0  0
M  END
>  <CHROM.1>
36.47172543,18.98492580,8.69994804,1.32810897,1.39625020,-1.82592824

>  <Name>
ligand

>  <RI>
0

>  <Rbt.Current_Directory>
/home/itssahil/PROJECTS/Mol_Feturizer/New_Systems/rnas/4FEN

>  <Rbt.Executable>
rbdock ($Id: //depot/dev/client3/rdock/2013.1/src/exe/rbdock.cxx#4 $)

>  <Rbt.Library>
libRbt.so (2013.1, Build901 2013/11/27)

>  <Rbt.Parameter_File>
/export/apps/rDock/src/rDock_2013.1_src/data/scripts/dock_solv.prm

>  <Rbt.Receptor>
prm/pocket_docking_8.prm

>  <SCORE>
-5.04581

>  <SCORE.INTER>
-5.04581

>  <SCORE.INTER.CONST>
1

>  <SCORE.INTER.POLAR>
0

>  <SCORE.INTER.ROT>
0

>  <SCORE.INTER.SOLV>
1.63887

>  <SCORE.INTER.VDW>
-7.51017

>  <SCORE.INTER.norm>
-1.26145

>  <SCORE.INTRA>
0

>  <SCORE.INTRA.DIHEDRAL>
0

>  <SCORE.INTRA.DIHEDRAL.0>
0

>  <SCORE.INTRA.POLAR>
0

>  <SCORE.INTRA.POLAR.0>
0

>  <SCORE.INTRA.REPUL>
0

>  <SCORE.INTRA.REPUL.0>
0

>  <SCORE.INTRA.SOLV>
0

>  <SCORE.INTRA.SOLV.lig_0>
0.449748

>  <SCORE.INTRA.VDW>
0

>  <SCORE.INTRA.VDW.0>
0

>  <SCORE.INTRA.norm>
0

>  <SCORE.RESTR>
0

>  <SCORE.RESTR.CAVITY>
0

>  <SCORE.RESTR.norm>
0

>  <SCORE.SYSTEM>
0

>  <SCORE.SYSTEM.CONST>
0

>  <SCORE.SYSTEM.DIHEDRAL>
0

>  <SCORE.SYSTEM.SOLV>
0

>  <SCORE.SYSTEM.norm>
0

>  <SCORE.heavy>
4

>  <SCORE.norm>
-1.26145

>  <RMSD>
2.084

$$$$
ligand
 OpenBabel11021811493D
libRbt.so/2013.1/901 2013/11/27
  4  3  0  0  0  0  0  0  0  0999 V2000
   36.4621   18.9575    8.6134 C   0  0  0  0  0  0  0  0  0  0  0  0
   36.5676   17.7560    8.2817 O   0  0  0  0  0  0  0  0  0  0  0  0
   36.5151   19.2539   10.1063 C   0  0  0  0  0  0  0  0  0  0  0  0
   36.3089   20.0010    7.8383 O   0  0  0  0  0  0  0  0  0  0  0  0
  1  2  1  0  0  0  0
  1  3  1  0  0  0  0
  1  4  1  0  0  0  0
M  END
>  <CHROM.1>
36.46268734,18.99015424,8.69364522,-2.19888621,-1.45289311,1.07233111

>  <Name>
ligand

>  <RI>
0

>  <Rbt.Current_Directory>
/home/itssahil/PROJECTS/Mol_Feturizer/New_Systems/rnas/4FEN

>  <Rbt.Executable>
rbdock ($Id: //depot/dev/client3/rdock/2013.1/src/exe/rbdock.cxx#4 $)

>  <Rbt.Library>
libRbt.so (2013.1, Build901 2013/11/27)

>  <Rbt.Parameter_File>
/export/apps/rDock/src/rDock_2013.1_src/data/scripts/dock_solv.prm

>  <Rbt.Receptor>
prm/pocket_docking_5.prm

>  <SCORE>
-5.05765

>  <SCORE.INTER>
-5.05765

>  <SCORE.INTER.CONST>
1

>  <SCORE.INTER.POLAR>
0

>  <SCORE.INTER.ROT>
0

>  <SCORE.INTER.SOLV>
1.65082

>  <SCORE.INTER.VDW>
-7.52204

>  <SCORE.INTER.norm>
-1.26441

>  <SCORE.INTRA>
0

>  <SCORE.INTRA.DIHEDRAL>
0

>  <SCORE.INTRA.DIHEDRAL.0>
0

>  <SCORE.INTRA.POLAR>
0

>  <SCORE.INTRA.POLAR.0>
0

>  <SCORE.INTRA.REPUL>
0

>  <SCORE.INTRA.REPUL.0>
0

>  <SCORE.INTRA.SOLV>
0

>  <SCORE.INTRA.SOLV.lig_0>
0.449748

>  <SCORE.INTRA.VDW>
0

>  <SCORE.INTRA.VDW.0>
0

>  <SCORE.INTRA.norm>
0

>  <SCORE.RESTR>
0

>  <SCORE.RESTR.CAVITY>
0

>  <SCORE.RESTR.norm>
0

>  <SCORE.SYSTEM>
0

>  <SCORE.SYSTEM.CONST>
0

>  <SCORE.SYSTEM.DIHEDRAL>
0

>  <SCORE.SYSTEM.SOLV>
0

>  <SCORE.SYSTEM.norm>
0

>  <SCORE.heavy>
4

>  <SCORE.norm>
-1.26441

>  <RMSD>
2.085

$$$$
ligand
 OpenBabel11021811493D
libRbt.so/2013.1/901 2013/11/27
  4  3  0  0  0  0  0  0  0  0999 V2000
   36.4664   18.9507    8.6200 C   0  0  0  0  0  0  0  0  0  0  0  0
   36.6091   17.7537    8.2863 O   0  0  0  0  0  0  0  0  0  0  0  0
   36.5194   19.2474   10.1129 C   0  0  0  0  0  0  0  0  0  0  0  0
   36.2740   19.9894    7.8472 O   0  0  0  0  0  0  0  0  0  0  0  0
  1  2  1  0  0  0  0
  1  3  1  0  0  0  0
  1  4  1  0  0  0  0
M  END
>  <CHROM.1>
36.46640376,18.98336097,8.70029380,-2.13240621,-1.42060996,1.13924693

>  <Name>
ligand

>  <RI>
0

>  <Rbt.Current_Directory>
/home/itssahil/PROJECTS/Mol_Feturizer/New_Systems/rnas/4FEN

>  <Rbt.Executable>
rbdock ($Id: //depot/dev/client3/rdock/2013.1/src/exe/rbdock.cxx#4 $)

>  <Rbt.Library>
libRbt.so (2013.1, Build901 2013/11/27)

>  <Rbt.Parameter_File>
/export/apps/rDock/src/rDock_2013.1_src/data/scripts/dock_solv.prm

>  <Rbt.Receptor>
prm/pocket_docking_6.prm

>  <SCORE>
-5.04981

>  <SCORE.INTER>
-5.04981

>  <SCORE.INTER.CONST>
1

>  <SCORE.INTER.POLAR>
0

>  <SCORE.INTER.ROT>
0

>  <SCORE.INTER.SOLV>
1.64665

>  <SCORE.INTER.VDW>
-7.51543

>  <SCORE.INTER.norm>
-1.26245

>  <SCORE.INTRA>
0

>  <SCORE.INTRA.DIHEDRAL>
0

>  <SCORE.INTRA.DIHEDRAL.0>
0

>  <SCORE.INTRA.POLAR>
0

>  <SCORE.INTRA.POLAR.0>
0

>  <SCORE.INTRA.REPUL>
0

>  <SCORE.INTRA.REPUL.0>
0

>  <SCORE.INTRA.SOLV>
0

>  <SCORE.INTRA.SOLV.lig_0>
0.449748

>  <SCORE.INTRA.VDW>
0

>  <SCORE.INTRA.VDW.0>
0

>  <SCORE.INTRA.norm>
0

>  <SCORE.RESTR>
0

>  <SCORE.RESTR.CAVITY>
0

>  <SCORE.RESTR.norm>
0

>  <SCORE.SYSTEM>
0

>  <SCORE.SYSTEM.CONST>
0

>  <SCORE.SYSTEM.DIHEDRAL>
0

>  <SCORE.SYSTEM.SOLV>
0

>  <SCORE.SYSTEM.norm>
0

>  <SCORE.heavy>
4

>  <SCORE.norm>
-1.26245

>  <RMSD>
2.085

$$$$
ligand
 OpenBabel11021811493D
libRbt.so/2013.1/901 2013/11/27
  4  3  0  0  0  0  0  0  0  0999 V2000
   36.4750   18.9658    8.6328 C   0  0  0  0  0  0  0  0  0  0  0  0
   36.3167   19.9342    7.8570 O   0  0  0  0  0  0  0  0  0  0  0  0
   36.5393   19.2933   10.1187 C   0  0  0  0  0  0  0  0  0  0  0  0
   36.5954   17.6978    8.3311 O   0  0  0  0  0  0  0  0  0  0  0  0
  1  2  1  0  0  0  0
  1  3  1  0  0  0  0
  1  4  1  0  0  0  0
M  END
>  <CHROM.1>
36.48110973,18.96799264,8.71917940,1.57938860,1.44227133,-2.11744609

>  <Name>
ligand

>  <RI>
0

>  <Rbt.Current_Directory>
/home/itssahil/PROJECTS/Mol_Feturizer/New_Systems/rnas/4FEN

>  <Rbt.Executable>
rbdock ($Id: //depot/dev/client3/rdock/2013.1/src/exe/rbdock.cxx#4 $)

>  <Rbt.Library>
libRbt.so (2013.1, Build901 2013/11/27)

>  <Rbt.Parameter_File>
/export/apps/rDock/src/rDock_2013.1_src/data/scripts/dock_solv.prm

>  <Rbt.Receptor>
prm/pocket_docking_7.prm

>  <SCORE>
-5.01796

>  <SCORE.INTER>
-5.01796

>  <SCORE.INTER.CONST>
1

>  <SCORE.INTER.POLAR>
0

>  <SCORE.INTER.ROT>
0

>  <SCORE.INTER.SOLV>
1.63489

>  <SCORE.INTER.VDW>
-7.49027

>  <SCORE.INTER.norm>
-1.25449

>  <SCORE.INTRA>
0

>  <SCORE.INTRA.DIHEDRAL>
0

>  <SCORE.INTRA.DIHEDRAL.0>
0

>  <SCORE.INTRA.POLAR>
0

>  <SCORE.INTRA.POLAR.0>
0

>  <SCORE.INTRA.REPUL>
0

>  <SCORE.INTRA.REPUL.0>
0

>  <SCORE.INTRA.SOLV>
0

>  <SCORE.INTRA.SOLV.lig_0>
0.449748

>  <SCORE.INTRA.VDW>
0

>  <SCORE.INTRA.VDW.0>
0

>  <SCORE.INTRA.norm>
0

>  <SCORE.RESTR>
0

>  <SCORE.RESTR.CAVITY>
0

>  <SCORE.RESTR.norm>
0

>  <SCORE.SYSTEM>
0

>  <SCORE.SYSTEM.CONST>
0

>  <SCORE.SYSTEM.DIHEDRAL>
0

>  <SCORE.SYSTEM.SOLV>
0

>  <SCORE.SYSTEM.norm>
0

>  <SCORE.heavy>
4

>  <SCORE.norm>
-1.25449

>  <RMSD>
2.085

$$$$
ligand
 OpenBabel11021811493D
libRbt.so/2013.1/901 2013/11/27
  4  3  0  0  0  0  0  0  0  0999 V2000
   36.4696   18.9521    8.6253 C   0  0  0  0  0  0  0  0  0  0  0  0
   36.5174   17.7374    8.3305 O   0  0  0  0  0  0  0  0  0  0  0  0
   36.5284   19.2907   10.1090 C   0  0  0  0  0  0  0  0  0  0  0  0
   36.3730   19.9781    7.8182 O   0  0  0  0  0  0  0  0  0  0  0  0
  1  2  1  0  0  0  0
  1  3  1  0  0  0  0
  1  4  1  0  0  0  0
M  END
>  <CHROM.1>
36.47132704,18.98718191,8.70452548,-2.45217130,-1.49695849,0.79001146

>  <Name>
ligand

>  <RI>
0

>  <Rbt.Current_Directory>
/home/itssahil/PROJECTS/Mol_Feturizer/New_Systems/rnas/4FEN

>  <Rbt.Executable>
rbdock ($Id: //depot/dev/client3/rdock/2013.1/src/exe/rbdock.cxx#4 $)

>  <Rbt.Library>
libRbt.so (2013.1, Build901 2013/11/27)

>  <Rbt.Parameter_File>
/export/apps/rDock/src/rDock_2013.1_src/data/scripts/dock_solv.prm

>  <Rbt.Receptor>
prm/pocket_docking_7.prm

>  <SCORE>
-5.00525

>  <SCORE.INTER>
-5.00525

>  <SCORE.INTER.CONST>
1

>  <SCORE.INTER.POLAR>
0

>  <SCORE.INTER.ROT>
0

>  <SCORE.INTER.SOLV>
1.64275

>  <SCORE.INTER.VDW>
-7.48442

>  <SCORE.INTER.norm>
-1.25131

>  <SCORE.INTRA>
0

>  <SCORE.INTRA.DIHEDRAL>
0

>  <SCORE.INTRA.DIHEDRAL.0>
0

>  <SCORE.INTRA.POLAR>
0

>  <SCORE.INTRA.POLAR.0>
0

>  <SCORE.INTRA.REPUL>
0

>  <SCORE.INTRA.REPUL.0>
0

>  <SCORE.INTRA.SOLV>
0

>  <SCORE.INTRA.SOLV.lig_0>
0.449748

>  <SCORE.INTRA.VDW>
0

>  <SCORE.INTRA.VDW.0>
0

>  <SCORE.INTRA.norm>
0

>  <SCORE.RESTR>
0

>  <SCORE.RESTR.CAVITY>
0

>  <SCORE.RESTR.norm>
0

>  <SCORE.SYSTEM>
0

>  <SCORE.SYSTEM.CONST>
0

>  <SCORE.SYSTEM.DIHEDRAL>
0

>  <SCORE.SYSTEM.SOLV>
0

>  <SCORE.SYSTEM.norm>
0

>  <SCORE.heavy>
4

>  <SCORE.norm>
-1.25131

>  <RMSD>
2.085

$$$$
ligand
 OpenBabel11021811493D
libRbt.so/2013.1/901 2013/11/27
  4  3  0  0  0  0  0  0  0  0999 V2000
   36.4511   18.9897    8.6074 C   0  0  0  0  0  0  0  0  0  0  0  0
   36.2479   19.9806    7.8715 O   0  0  0  0  0  0  0  0  0  0  0  0
   36.5275   19.2630   10.1037 C   0  0  0  0  0  0  0  0  0  0  0  0
   36.6099   17.7390    8.2557 O   0  0  0  0  0  0  0  0  0  0  0  0
  1  2  1  0  0  0  0
  1  3  1  0  0  0  0
  1  4  1  0  0  0  0
M  END
>  <CHROM.1>
36.45853354,18.98887388,8.69368682,1.55319445,1.40506856,-2.05352850

>  <Name>
ligand

>  <RI>
0

>  <Rbt.Current_Directory>
/home/itssahil/PROJECTS/Mol_Feturizer/New_Systems/rnas/4FEN

>  <Rbt.Executable>
rbdock ($Id: //depot/dev/client3/rdock/2013.1/src/exe/rbdock.cxx#4 $)

>  <Rbt.Library>
libRbt.so (2013.1, Build901 2013/11/27)

>  <Rbt.Parameter_File>
/export/apps/rDock/src/rDock_2013.1_src/data/scripts/dock_solv.prm

>  <Rbt.Receptor>
prm/pocket_docking_8.prm

>  <SCORE>
-5.04354

>  <SCORE.INTER>
-5.04354

>  <SCORE.INTER.CONST>
1

>  <SCORE.INTER.POLAR>
0

>  <SCORE.INTER.ROT>
0

>  <SCORE.INTER.SOLV>
1.66354

>  <SCORE.INTER.VDW>
-7.51688

>  <SCORE.INTER.norm>
-1.26089

>  <SCORE.INTRA>
0

>  <SCORE.INTRA.DIHEDRAL>
0

>  <SCORE.INTRA.DIHEDRAL.0>
0

>  <SCORE.INTRA.POLAR>
0

>  <SCORE.INTRA.POLAR.0>
0

>  <SCORE.INTRA.REPUL>
0

>  <SCORE.INTRA.REPUL.0>
0

>  <SCORE.INTRA.SOLV>
0

>  <SCORE.INTRA.SOLV.lig_0>
0.449748

>  <SCORE.INTRA.VDW>
0

>  <SCORE.INTRA.VDW.0>
0

>  <SCORE.INTRA.norm>
0

>  <SCORE.RESTR>
0

>  <SCORE.RESTR.CAVITY>
0

>  <SCORE.RESTR.norm>
0

>  <SCORE.SYSTEM>
0

>  <SCORE.SYSTEM.CONST>
0

>  <SCORE.SYSTEM.DIHEDRAL>
0

>  <SCORE.SYSTEM.SOLV>
0

>  <SCORE.SYSTEM.norm>
0

>  <SCORE.heavy>
4

>  <SCORE.norm>
-1.26089

>  <RMSD>
2.085

$$$$
ligand
 OpenBabel11021811493D
libRbt.so/2013.1/901 2013/11/27
  4  3  0  0  0  0  0  0  0  0999 V2000
   36.4576   18.9821    8.6134 C   0  0  0  0  0  0  0  0  0  0  0  0
   36.2582   19.9671    7.8685 O   0  0  0  0  0  0  0  0  0  0  0  0
   36.4921   19.2622   10.1100 C   0  0  0  0  0  0  0  0  0  0  0  0
   36.6437   17.7326    8.2711 O   0  0  0  0  0  0  0  0  0  0  0  0
  1  2  1  0  0  0  0
  1  3  1  0  0  0  0
  1  4  1  0  0  0  0
M  END
>  <CHROM.1>
36.46279688,18.98172844,8.69988652,1.37924045,1.40103772,-1.88599260

>  <Name>
ligand

>  <RI>
0

>  <Rbt.Current_Directory>
/home/itssahil/PROJECTS/Mol_Feturizer/New_Systems/rnas/4FEN

>  <Rbt.Executable>
rbdock ($Id: //depot/dev/client3/rdock/2013.1/src/exe/rbdock.cxx#4 $)

>  <Rbt.Library>
libRbt.so (2013.1, Build901 2013/11/27)

>  <Rbt.Parameter_File>
/export/apps/rDock/src/rDock_2013.1_src/data/scripts/dock_solv.prm

>  <Rbt.Receptor>
prm/pocket_docking_8.prm

>  <SCORE>
-5.05243

>  <SCORE.INTER>
-5.05243

>  <SCORE.INTER.CONST>
1

>  <SCORE.INTER.POLAR>
0

>  <SCORE.INTER.ROT>
0

>  <SCORE.INTER.SOLV>
1.64247

>  <SCORE.INTER.VDW>
-7.51577

>  <SCORE.INTER.norm>
-1.26311

>  <SCORE.INTRA>
0

>  <SCORE.INTRA.DIHEDRAL>
0

>  <SCORE.INTRA.DIHEDRAL.0>
0

>  <SCORE.INTRA.POLAR>
0

>  <SCORE.INTRA.POLAR.0>
0

>  <SCORE.INTRA.REPUL>
0

>  <SCORE.INTRA.REPUL.0>
0

>  <SCORE.INTRA.SOLV>
0

>  <SCORE.INTRA.SOLV.lig_0>
0.449748

>  <SCORE.INTRA.VDW>
0

>  <SCORE.INTRA.VDW.0>
0

>  <SCORE.INTRA.norm>
0

>  <SCORE.RESTR>
0

>  <SCORE.RESTR.CAVITY>
0

>  <SCORE.RESTR.norm>
0

>  <SCORE.SYSTEM>
0

>  <SCORE.SYSTEM.CONST>
0

>  <SCORE.SYSTEM.DIHEDRAL>
0

>  <SCORE.SYSTEM.SOLV>
0

>  <SCORE.SYSTEM.norm>
0

>  <SCORE.heavy>
4

>  <SCORE.norm>
-1.26311

>  <RMSD>
2.085

$$$$
ligand
 OpenBabel11021811493D
libRbt.so/2013.1/901 2013/11/27
  4  3  0  0  0  0  0  0  0  0999 V2000
   36.4633   18.9617    8.6134 C   0  0  0  0  0  0  0  0  0  0  0  0
   36.5532   17.7572    8.2880 O   0  0  0  0  0  0  0  0  0  0  0  0
   36.5421   19.2672   10.1033 C   0  0  0  0  0  0  0  0  0  0  0  0
   36.3071   20.0015    7.8340 O   0  0  0  0  0  0  0  0  0  0  0  0
  1  2  1  0  0  0  0
  1  3  1  0  0  0  0
  1  4  1  0  0  0  0
M  END
>  <CHROM.1>
36.46541546,18.99486116,8.69341912,-2.34931432,-1.45170956,0.91646921

>  <Name>
ligand

>  <RI>
0

>  <Rbt.Current_Directory>
/home/itssahil/PROJECTS/Mol_Feturizer/New_Systems/rnas/4FEN

>  <Rbt.Executable>
rbdock ($Id: //depot/dev/client3/rdock/2013.1/src/exe/rbdock.cxx#4 $)

>  <Rbt.Library>
libRbt.so (2013.1, Build901 2013/11/27)

>  <Rbt.Parameter_File>
/export/apps/rDock/src/rDock_2013.1_src/data/scripts/dock_solv.prm

>  <Rbt.Receptor>
prm/blind_docking_100.prm

>  <SCORE>
-5.04425

>  <SCORE.INTER>
-5.04425

>  <SCORE.INTER.CONST>
1

>  <SCORE.INTER.POLAR>
0

>  <SCORE.INTER.ROT>
0

>  <SCORE.INTER.SOLV>
1.6608

>  <SCORE.INTER.VDW>
-7.51643

>  <SCORE.INTER.norm>
-1.26106

>  <SCORE.INTRA>
0

>  <SCORE.INTRA.DIHEDRAL>
0

>  <SCORE.INTRA.DIHEDRAL.0>
0

>  <SCORE.INTRA.POLAR>
0

>  <SCORE.INTRA.POLAR.0>
0

>  <SCORE.INTRA.REPUL>
0

>  <SCORE.INTRA.REPUL.0>
0

>  <SCORE.INTRA.SOLV>
0

>  <SCORE.INTRA.SOLV.lig_0>
0.449748

>  <SCORE.INTRA.VDW>
0

>  <SCORE.INTRA.VDW.0>
0

>  <SCORE.INTRA.norm>
0

>  <SCORE.RESTR>
0

>  <SCORE.RESTR.CAVITY>
0

>  <SCORE.RESTR.norm>
0

>  <SCORE.SYSTEM>
0

>  <SCORE.SYSTEM.CONST>
0

>  <SCORE.SYSTEM.DIHEDRAL>
0

>  <SCORE.SYSTEM.SOLV>
0

>  <SCORE.SYSTEM.norm>
0

>  <SCORE.heavy>
4

>  <SCORE.norm>
-1.26106

>  <RMSD>
2.086

$$$$
ligand
 OpenBabel11021811493D
libRbt.so/2013.1/901 2013/11/27
  4  3  0  0  0  0  0  0  0  0999 V2000
   36.4730   18.9274    8.6336 C   0  0  0  0  0  0  0  0  0  0  0  0
   36.5517   17.7181    8.3237 O   0  0  0  0  0  0  0  0  0  0  0  0
   36.5251   19.2490   10.1213 C   0  0  0  0  0  0  0  0  0  0  0  0
   36.3488   19.9604    7.8394 O   0  0  0  0  0  0  0  0  0  0  0  0
  1  2  1  0  0  0  0
  1  3  1  0  0  0  0
  1  4  1  0  0  0  0
M  END
>  <CHROM.1>
36.47397218,18.96149482,8.71320259,-2.26950883,-1.47607239,0.98440727

>  <Name>
ligand

>  <RI>
0

>  <Rbt.Current_Directory>
/home/itssahil/PROJECTS/Mol_Feturizer/New_Systems/rnas/4FEN

>  <Rbt.Executable>
rbdock ($Id: //depot/dev/client3/rdock/2013.1/src/exe/rbdock.cxx#4 $)

>  <Rbt.Library>
libRbt.so (2013.1, Build901 2013/11/27)

>  <Rbt.Parameter_File>
/export/apps/rDock/src/rDock_2013.1_src/data/scripts/dock_solv.prm

>  <Rbt.Receptor>
prm/pocket_docking_4.prm

>  <SCORE>
-5.01832

>  <SCORE.INTER>
-5.01832

>  <SCORE.INTER.CONST>
1

>  <SCORE.INTER.POLAR>
0

>  <SCORE.INTER.ROT>
0

>  <SCORE.INTER.SOLV>
1.63147

>  <SCORE.INTER.VDW>
-7.48937

>  <SCORE.INTER.norm>
-1.25458

>  <SCORE.INTRA>
0

>  <SCORE.INTRA.DIHEDRAL>
0

>  <SCORE.INTRA.DIHEDRAL.0>
0

>  <SCORE.INTRA.POLAR>
0

>  <SCORE.INTRA.POLAR.0>
0

>  <SCORE.INTRA.REPUL>
0

>  <SCORE.INTRA.REPUL.0>
0

>  <SCORE.INTRA.SOLV>
0

>  <SCORE.INTRA.SOLV.lig_0>
0.449748

>  <SCORE.INTRA.VDW>
0

>  <SCORE.INTRA.VDW.0>
0

>  <SCORE.INTRA.norm>
0

>  <SCORE.RESTR>
0

>  <SCORE.RESTR.CAVITY>
0

>  <SCORE.RESTR.norm>
0

>  <SCORE.SYSTEM>
0

>  <SCORE.SYSTEM.CONST>
0

>  <SCORE.SYSTEM.DIHEDRAL>
0

>  <SCORE.SYSTEM.SOLV>
0

>  <SCORE.SYSTEM.norm>
0

>  <SCORE.heavy>
4

>  <SCORE.norm>
-1.25458

>  <RMSD>
2.086

$$$$
ligand
 OpenBabel11021811493D
libRbt.so/2013.1/901 2013/11/27
  4  3  0  0  0  0  0  0  0  0999 V2000
   36.4559   18.9627    8.6063 C   0  0  0  0  0  0  0  0  0  0  0  0
   36.5730   17.7637    8.2696 O   0  0  0  0  0  0  0  0  0  0  0  0
   36.4890   19.2515   10.1013 C   0  0  0  0  0  0  0  0  0  0  0  0
   36.3056   20.0094    7.8349 O   0  0  0  0  0  0  0  0  0  0  0  0
  1  2  1  0  0  0  0
  1  3  1  0  0  0  0
  1  4  1  0  0  0  0
M  END
>  <CHROM.1>
36.45534910,18.99495161,8.68673243,-2.08311061,-1.45233854,1.19257003

>  <Name>
ligand

>  <RI>
0

>  <Rbt.Current_Directory>
/home/itssahil/PROJECTS/Mol_Feturizer/New_Systems/rnas/4FEN

>  <Rbt.Executable>
rbdock ($Id: //depot/dev/client3/rdock/2013.1/src/exe/rbdock.cxx#4 $)

>  <Rbt.Library>
libRbt.so (2013.1, Build901 2013/11/27)

>  <Rbt.Parameter_File>
/export/apps/rDock/src/rDock_2013.1_src/data/scripts/dock_solv.prm

>  <Rbt.Receptor>
prm/pocket_docking_5.prm

>  <SCORE>
-5.02637

>  <SCORE.INTER>
-5.02637

>  <SCORE.INTER.CONST>
1

>  <SCORE.INTER.POLAR>
0

>  <SCORE.INTER.ROT>
0

>  <SCORE.INTER.SOLV>
1.649

>  <SCORE.INTER.VDW>
-7.50058

>  <SCORE.INTER.norm>
-1.25659

>  <SCORE.INTRA>
0

>  <SCORE.INTRA.DIHEDRAL>
0

>  <SCORE.INTRA.DIHEDRAL.0>
0

>  <SCORE.INTRA.POLAR>
0

>  <SCORE.INTRA.POLAR.0>
0

>  <SCORE.INTRA.REPUL>
0

>  <SCORE.INTRA.REPUL.0>
0

>  <SCORE.INTRA.SOLV>
0

>  <SCORE.INTRA.SOLV.lig_0>
0.449748

>  <SCORE.INTRA.VDW>
0

>  <SCORE.INTRA.VDW.0>
0

>  <SCORE.INTRA.norm>
0

>  <SCORE.RESTR>
0

>  <SCORE.RESTR.CAVITY>
0

>  <SCORE.RESTR.norm>
0

>  <SCORE.SYSTEM>
0

>  <SCORE.SYSTEM.CONST>
0

>  <SCORE.SYSTEM.DIHEDRAL>
0

>  <SCORE.SYSTEM.SOLV>
0

>  <SCORE.SYSTEM.norm>
0

>  <SCORE.heavy>
4

>  <SCORE.norm>
-1.25659

>  <RMSD>
2.086

$$$$
ligand
 OpenBabel11021811493D
libRbt.so/2013.1/901 2013/11/27
  4  3  0  0  0  0  0  0  0  0999 V2000
   36.4511   18.9837    8.6104 C   0  0  0  0  0  0  0  0  0  0  0  0
   36.2432   19.9690    7.8683 O   0  0  0  0  0  0  0  0  0  0  0  0
   36.4974   19.2622   10.1070 C   0  0  0  0  0  0  0  0  0  0  0  0
   36.6375   17.7350    8.2652 O   0  0  0  0  0  0  0  0  0  0  0  0
  1  2  1  0  0  0  0
  1  3  1  0  0  0  0
  1  4  1  0  0  0  0
M  END
>  <CHROM.1>
36.45703628,18.98324587,8.69684438,1.42012446,1.39602087,-1.92519547

>  <Name>
ligand

>  <RI>
0

>  <Rbt.Current_Directory>
/home/itssahil/PROJECTS/Mol_Feturizer/New_Systems/rnas/4FEN

>  <Rbt.Executable>
rbdock ($Id: //depot/dev/client3/rdock/2013.1/src/exe/rbdock.cxx#4 $)

>  <Rbt.Library>
libRbt.so (2013.1, Build901 2013/11/27)

>  <Rbt.Parameter_File>
/export/apps/rDock/src/rDock_2013.1_src/data/scripts/dock_solv.prm

>  <Rbt.Receptor>
prm/pocket_docking_8.prm

>  <SCORE>
-5.05168

>  <SCORE.INTER>
-5.05168

>  <SCORE.INTER.CONST>
1

>  <SCORE.INTER.POLAR>
0

>  <SCORE.INTER.ROT>
0

>  <SCORE.INTER.SOLV>
1.64942

>  <SCORE.INTER.VDW>
-7.51759

>  <SCORE.INTER.norm>
-1.26292

>  <SCORE.INTRA>
0

>  <SCORE.INTRA.DIHEDRAL>
0

>  <SCORE.INTRA.DIHEDRAL.0>
0

>  <SCORE.INTRA.POLAR>
0

>  <SCORE.INTRA.POLAR.0>
0

>  <SCORE.INTRA.REPUL>
0

>  <SCORE.INTRA.REPUL.0>
0

>  <SCORE.INTRA.SOLV>
0

>  <SCORE.INTRA.SOLV.lig_0>
0.449748

>  <SCORE.INTRA.VDW>
0

>  <SCORE.INTRA.VDW.0>
0

>  <SCORE.INTRA.norm>
0

>  <SCORE.RESTR>
0

>  <SCORE.RESTR.CAVITY>
0

>  <SCORE.RESTR.norm>
0

>  <SCORE.SYSTEM>
0

>  <SCORE.SYSTEM.CONST>
0

>  <SCORE.SYSTEM.DIHEDRAL>
0

>  <SCORE.SYSTEM.SOLV>
0

>  <SCORE.SYSTEM.norm>
0

>  <SCORE.heavy>
4

>  <SCORE.norm>
-1.26292

>  <RMSD>
2.086

$$$$
ligand
 OpenBabel11021811493D
libRbt.so/2013.1/901 2013/11/27
  4  3  0  0  0  0  0  0  0  0999 V2000
   36.4582   18.9609    8.6077 C   0  0  0  0  0  0  0  0  0  0  0  0
   36.5838   17.7611    8.2770 O   0  0  0  0  0  0  0  0  0  0  0  0
   36.4807   19.2565   10.1015 C   0  0  0  0  0  0  0  0  0  0  0  0
   36.3069   20.0033    7.8308 O   0  0  0  0  0  0  0  0  0  0  0  0
  1  2  1  0  0  0  0
  1  3  1  0  0  0  0
  1  4  1  0  0  0  0
M  END
>  <CHROM.1>
36.45696725,18.99351618,8.68795013,-2.02011634,-1.44932498,1.25069024

>  <Name>
ligand

>  <RI>
0

>  <Rbt.Current_Directory>
/home/itssahil/PROJECTS/Mol_Feturizer/New_Systems/rnas/4FEN

>  <Rbt.Executable>
rbdock ($Id: //depot/dev/client3/rdock/2013.1/src/exe/rbdock.cxx#4 $)

>  <Rbt.Library>
libRbt.so (2013.1, Build901 2013/11/27)

>  <Rbt.Parameter_File>
/export/apps/rDock/src/rDock_2013.1_src/data/scripts/dock_solv.prm

>  <Rbt.Receptor>
prm/blind_docking_60.prm

>  <SCORE>
-5.03061

>  <SCORE.INTER>
-5.03061

>  <SCORE.INTER.CONST>
1

>  <SCORE.INTER.POLAR>
0

>  <SCORE.INTER.ROT>
0

>  <SCORE.INTER.SOLV>
1.64414

>  <SCORE.INTER.VDW>
-7.50179

>  <SCORE.INTER.norm>
-1.25765

>  <SCORE.INTRA>
0

>  <SCORE.INTRA.DIHEDRAL>
0

>  <SCORE.INTRA.DIHEDRAL.0>
0

>  <SCORE.INTRA.POLAR>
0

>  <SCORE.INTRA.POLAR.0>
0

>  <SCORE.INTRA.REPUL>
0

>  <SCORE.INTRA.REPUL.0>
0

>  <SCORE.INTRA.SOLV>
0

>  <SCORE.INTRA.SOLV.lig_0>
0.449748

>  <SCORE.INTRA.VDW>
0

>  <SCORE.INTRA.VDW.0>
0

>  <SCORE.INTRA.norm>
0

>  <SCORE.RESTR>
0

>  <SCORE.RESTR.CAVITY>
0

>  <SCORE.RESTR.norm>
0

>  <SCORE.SYSTEM>
0

>  <SCORE.SYSTEM.CONST>
0

>  <SCORE.SYSTEM.DIHEDRAL>
0

>  <SCORE.SYSTEM.SOLV>
0

>  <SCORE.SYSTEM.norm>
0

>  <SCORE.heavy>
4

>  <SCORE.norm>
-1.25765

>  <RMSD>
2.087

$$$$
ligand
 OpenBabel11021811493D
libRbt.so/2013.1/901 2013/11/27
  4  3  0  0  0  0  0  0  0  0999 V2000
   36.4767   18.9949    8.6183 C   0  0  0  0  0  0  0  0  0  0  0  0
   36.3480   19.9533    7.8248 O   0  0  0  0  0  0  0  0  0  0  0  0
   36.4343   19.3353   10.1021 C   0  0  0  0  0  0  0  0  0  0  0  0
   36.6463   17.7279    8.3370 O   0  0  0  0  0  0  0  0  0  0  0  0
  1  2  1  0  0  0  0
  1  3  1  0  0  0  0
  1  4  1  0  0  0  0
M  END
>  <CHROM.1>
36.47697062,18.99795160,8.70489060,1.03210037,1.43788352,-1.58308921

>  <Name>
ligand

>  <RI>
0

>  <Rbt.Current_Directory>
/home/itssahil/PROJECTS/Mol_Feturizer/New_Systems/rnas/4FEN

>  <Rbt.Executable>
rbdock ($Id: //depot/dev/client3/rdock/2013.1/src/exe/rbdock.cxx#4 $)

>  <Rbt.Library>
libRbt.so (2013.1, Build901 2013/11/27)

>  <Rbt.Parameter_File>
/export/apps/rDock/src/rDock_2013.1_src/data/scripts/dock_solv.prm

>  <Rbt.Receptor>
prm/pocket_docking_4.prm

>  <SCORE>
-4.96882

>  <SCORE.INTER>
-4.96906

>  <SCORE.INTER.CONST>
1

>  <SCORE.INTER.POLAR>
0

>  <SCORE.INTER.ROT>
0

>  <SCORE.INTER.SOLV>
1.60948

>  <SCORE.INTER.VDW>
-7.4492

>  <SCORE.INTER.norm>
-1.24227

>  <SCORE.INTRA>
0

>  <SCORE.INTRA.DIHEDRAL>
0

>  <SCORE.INTRA.DIHEDRAL.0>
0

>  <SCORE.INTRA.POLAR>
0

>  <SCORE.INTRA.POLAR.0>
0

>  <SCORE.INTRA.REPUL>
0

>  <SCORE.INTRA.REPUL.0>
0

>  <SCORE.INTRA.SOLV>
0

>  <SCORE.INTRA.SOLV.lig_0>
0.449748

>  <SCORE.INTRA.VDW>
0

>  <SCORE.INTRA.VDW.0>
0

>  <SCORE.INTRA.norm>
0

>  <SCORE.RESTR>
0.000241606

>  <SCORE.RESTR.CAVITY>
0.000241606

>  <SCORE.RESTR.norm>
6.04016e-05

>  <SCORE.SYSTEM>
0

>  <SCORE.SYSTEM.CONST>
0

>  <SCORE.SYSTEM.DIHEDRAL>
0

>  <SCORE.SYSTEM.SOLV>
0

>  <SCORE.SYSTEM.norm>
0

>  <SCORE.heavy>
4

>  <SCORE.norm>
-1.24221

>  <RMSD>
2.087

$$$$
ligand
 OpenBabel11021811493D
libRbt.so/2013.1/901 2013/11/27
  4  3  0  0  0  0  0  0  0  0999 V2000
   36.4790   18.9310    8.6312 C   0  0  0  0  0  0  0  0  0  0  0  0
   36.5928   17.7246    8.3208 O   0  0  0  0  0  0  0  0  0  0  0  0
   36.4854   19.2496   10.1205 C   0  0  0  0  0  0  0  0  0  0  0  0
   36.3521   19.9631    7.8363 O   0  0  0  0  0  0  0  0  0  0  0  0
  1  2  1  0  0  0  0
  1  3  1  0  0  0  0
  1  4  1  0  0  0  0
M  END
>  <CHROM.1>
36.47708058,18.96491312,8.71094386,-1.93924979,-1.46596822,1.31553822

>  <Name>
ligand

>  <RI>
0

>  <Rbt.Current_Directory>
/home/itssahil/PROJECTS/Mol_Feturizer/New_Systems/rnas/4FEN

>  <Rbt.Executable>
rbdock ($Id: //depot/dev/client3/rdock/2013.1/src/exe/rbdock.cxx#4 $)

>  <Rbt.Library>
libRbt.so (2013.1, Build901 2013/11/27)

>  <Rbt.Parameter_File>
/export/apps/rDock/src/rDock_2013.1_src/data/scripts/dock_solv.prm

>  <Rbt.Receptor>
prm/pocket_docking_5.prm

>  <SCORE>
-5.03097

>  <SCORE.INTER>
-5.03097

>  <SCORE.INTER.CONST>
1

>  <SCORE.INTER.POLAR>
0

>  <SCORE.INTER.ROT>
0

>  <SCORE.INTER.SOLV>
1.61664

>  <SCORE.INTER.VDW>
-7.49286

>  <SCORE.INTER.norm>
-1.25774

>  <SCORE.INTRA>
0

>  <SCORE.INTRA.DIHEDRAL>
0

>  <SCORE.INTRA.DIHEDRAL.0>
0

>  <SCORE.INTRA.POLAR>
0

>  <SCORE.INTRA.POLAR.0>
0

>  <SCORE.INTRA.REPUL>
0

>  <SCORE.INTRA.REPUL.0>
0

>  <SCORE.INTRA.SOLV>
0

>  <SCORE.INTRA.SOLV.lig_0>
0.449748

>  <SCORE.INTRA.VDW>
0

>  <SCORE.INTRA.VDW.0>
0

>  <SCORE.INTRA.norm>
0

>  <SCORE.RESTR>
0

>  <SCORE.RESTR.CAVITY>
0

>  <SCORE.RESTR.norm>
0

>  <SCORE.SYSTEM>
0

>  <SCORE.SYSTEM.CONST>
0

>  <SCORE.SYSTEM.DIHEDRAL>
0

>  <SCORE.SYSTEM.SOLV>
0

>  <SCORE.SYSTEM.norm>
0

>  <SCORE.heavy>
4

>  <SCORE.norm>
-1.25774

>  <RMSD>
2.087

$$$$
ligand
 OpenBabel11021811493D
libRbt.so/2013.1/901 2013/11/27
  4  3  0  0  0  0  0  0  0  0999 V2000
   36.4907   18.9258    8.6384 C   0  0  0  0  0  0  0  0  0  0  0  0
   36.5778   17.7190    8.3209 O   0  0  0  0  0  0  0  0  0  0  0  0
   36.5544   19.2396   10.1273 C   0  0  0  0  0  0  0  0  0  0  0  0
   36.3489   19.9619    7.8512 O   0  0  0  0  0  0  0  0  0  0  0  0
  1  2  1  0  0  0  0
  1  3  1  0  0  0  0
  1  4  1  0  0  0  0
M  END
>  <CHROM.1>
36.49210448,18.95942611,8.71816984,-2.29680150,-1.46268332,0.96284983

>  <Name>
ligand

>  <RI>
0

>  <Rbt.Current_Directory>
/home/itssahil/PROJECTS/Mol_Feturizer/New_Systems/rnas/4FEN

>  <Rbt.Executable>
rbdock ($Id: //depot/dev/client3/rdock/2013.1/src/exe/rbdock.cxx#4 $)

>  <Rbt.Library>
libRbt.so (2013.1, Build901 2013/11/27)

>  <Rbt.Parameter_File>
/export/apps/rDock/src/rDock_2013.1_src/data/scripts/dock_solv.prm

>  <Rbt.Receptor>
prm/pocket_docking_7.prm

>  <SCORE>
-5.01127

>  <SCORE.INTER>
-5.01127

>  <SCORE.INTER.CONST>
1

>  <SCORE.INTER.POLAR>
0

>  <SCORE.INTER.ROT>
0

>  <SCORE.INTER.SOLV>
1.63262

>  <SCORE.INTER.VDW>
-7.48505

>  <SCORE.INTER.norm>
-1.25282

>  <SCORE.INTRA>
0

>  <SCORE.INTRA.DIHEDRAL>
0

>  <SCORE.INTRA.DIHEDRAL.0>
0

>  <SCORE.INTRA.POLAR>
0

>  <SCORE.INTRA.POLAR.0>
0

>  <SCORE.INTRA.REPUL>
0

>  <SCORE.INTRA.REPUL.0>
0

>  <SCORE.INTRA.SOLV>
0

>  <SCORE.INTRA.SOLV.lig_0>
0.449748

>  <SCORE.INTRA.VDW>
0

>  <SCORE.INTRA.VDW.0>
0

>  <SCORE.INTRA.norm>
0

>  <SCORE.RESTR>
0

>  <SCORE.RESTR.CAVITY>
0

>  <SCORE.RESTR.norm>
0

>  <SCORE.SYSTEM>
0

>  <SCORE.SYSTEM.CONST>
0

>  <SCORE.SYSTEM.DIHEDRAL>
0

>  <SCORE.SYSTEM.SOLV>
0

>  <SCORE.SYSTEM.norm>
0

>  <SCORE.heavy>
4

>  <SCORE.norm>
-1.25282

>  <RMSD>
2.087

$$$$
ligand
 OpenBabel11021811493D
libRbt.so/2013.1/901 2013/11/27
  4  3  0  0  0  0  0  0  0  0999 V2000
   36.4800   18.9103    8.6429 C   0  0  0  0  0  0  0  0  0  0  0  0
   36.6027   17.7048    8.3322 O   0  0  0  0  0  0  0  0  0  0  0  0
   36.5113   19.2315   10.1312 C   0  0  0  0  0  0  0  0  0  0  0  0
   36.3252   19.9393    7.8490 O   0  0  0  0  0  0  0  0  0  0  0  0
  1  2  1  0  0  0  0
  1  3  1  0  0  0  0
  1  4  1  0  0  0  0
M  END
>  <CHROM.1>
36.47927882,18.94425418,8.72254533,-2.06677526,-1.44825819,1.18718107

>  <Name>
ligand

>  <RI>
0

>  <Rbt.Current_Directory>
/home/itssahil/PROJECTS/Mol_Feturizer/New_Systems/rnas/4FEN

>  <Rbt.Executable>
rbdock ($Id: //depot/dev/client3/rdock/2013.1/src/exe/rbdock.cxx#4 $)

>  <Rbt.Library>
libRbt.so (2013.1, Build901 2013/11/27)

>  <Rbt.Parameter_File>
/export/apps/rDock/src/rDock_2013.1_src/data/scripts/dock_solv.prm

>  <Rbt.Receptor>
prm/pocket_docking_4.prm

>  <SCORE>
-5.01606

>  <SCORE.INTER>
-5.01606

>  <SCORE.INTER.CONST>
1

>  <SCORE.INTER.POLAR>
0

>  <SCORE.INTER.ROT>
0

>  <SCORE.INTER.SOLV>
1.61544

>  <SCORE.INTER.VDW>
-7.48252

>  <SCORE.INTER.norm>
-1.25401

>  <SCORE.INTRA>
0

>  <SCORE.INTRA.DIHEDRAL>
0

>  <SCORE.INTRA.DIHEDRAL.0>
0

>  <SCORE.INTRA.POLAR>
0

>  <SCORE.INTRA.POLAR.0>
0

>  <SCORE.INTRA.REPUL>
0

>  <SCORE.INTRA.REPUL.0>
0

>  <SCORE.INTRA.SOLV>
0

>  <SCORE.INTRA.SOLV.lig_0>
0.449748

>  <SCORE.INTRA.VDW>
0

>  <SCORE.INTRA.VDW.0>
0

>  <SCORE.INTRA.norm>
0

>  <SCORE.RESTR>
0

>  <SCORE.RESTR.CAVITY>
0

>  <SCORE.RESTR.norm>
0

>  <SCORE.SYSTEM>
0

>  <SCORE.SYSTEM.CONST>
0

>  <SCORE.SYSTEM.DIHEDRAL>
0

>  <SCORE.SYSTEM.SOLV>
0

>  <SCORE.SYSTEM.norm>
0

>  <SCORE.heavy>
4

>  <SCORE.norm>
-1.25401

>  <RMSD>
2.088

$$$$
ligand
 OpenBabel11021811493D
libRbt.so/2013.1/901 2013/11/27
  4  3  0  0  0  0  0  0  0  0999 V2000
   36.4746   18.9284    8.6317 C   0  0  0  0  0  0  0  0  0  0  0  0
   36.5612   17.7198    8.3209 O   0  0  0  0  0  0  0  0  0  0  0  0
   36.5162   19.2485   10.1201 C   0  0  0  0  0  0  0  0  0  0  0  0
   36.3500   19.9617    7.8380 O   0  0  0  0  0  0  0  0  0  0  0  0
  1  2  1  0  0  0  0
  1  3  1  0  0  0  0
  1  4  1  0  0  0  0
M  END
>  <CHROM.1>
36.47490567,18.96241980,8.71141708,-2.18877007,-1.47494208,1.06593917

>  <Name>
ligand

>  <RI>
0

>  <Rbt.Current_Directory>
/home/itssahil/PROJECTS/Mol_Feturizer/New_Systems/rnas/4FEN

>  <Rbt.Executable>
rbdock ($Id: //depot/dev/client3/rdock/2013.1/src/exe/rbdock.cxx#4 $)

>  <Rbt.Library>
libRbt.so (2013.1, Build901 2013/11/27)

>  <Rbt.Parameter_File>
/export/apps/rDock/src/rDock_2013.1_src/data/scripts/dock_solv.prm

>  <Rbt.Receptor>
prm/pocket_docking_4.prm

>  <SCORE>
-5.02269

>  <SCORE.INTER>
-5.02269

>  <SCORE.INTER.CONST>
1

>  <SCORE.INTER.POLAR>
0

>  <SCORE.INTER.ROT>
0

>  <SCORE.INTER.SOLV>
1.62897

>  <SCORE.INTER.VDW>
-7.49145

>  <SCORE.INTER.norm>
-1.25567

>  <SCORE.INTRA>
0

>  <SCORE.INTRA.DIHEDRAL>
0

>  <SCORE.INTRA.DIHEDRAL.0>
0

>  <SCORE.INTRA.POLAR>
0

>  <SCORE.INTRA.POLAR.0>
0

>  <SCORE.INTRA.REPUL>
0

>  <SCORE.INTRA.REPUL.0>
0

>  <SCORE.INTRA.SOLV>
0

>  <SCORE.INTRA.SOLV.lig_0>
0.449748

>  <SCORE.INTRA.VDW>
0

>  <SCORE.INTRA.VDW.0>
0

>  <SCORE.INTRA.norm>
0

>  <SCORE.RESTR>
0

>  <SCORE.RESTR.CAVITY>
0

>  <SCORE.RESTR.norm>
0

>  <SCORE.SYSTEM>
0

>  <SCORE.SYSTEM.CONST>
0

>  <SCORE.SYSTEM.DIHEDRAL>
0

>  <SCORE.SYSTEM.SOLV>
0

>  <SCORE.SYSTEM.norm>
0

>  <SCORE.heavy>
4

>  <SCORE.norm>
-1.25567

>  <RMSD>
2.088

$$$$
ligand
 OpenBabel11021811493D
libRbt.so/2013.1/901 2013/11/27
  4  3  0  0  0  0  0  0  0  0999 V2000
   36.4667   18.9052    8.6452 C   0  0  0  0  0  0  0  0  0  0  0  0
   36.5365   17.6937    8.3419 O   0  0  0  0  0  0  0  0  0  0  0  0
   36.5598   19.2373   10.1286 C   0  0  0  0  0  0  0  0  0  0  0  0
   36.3210   19.9326    7.8474 O   0  0  0  0  0  0  0  0  0  0  0  0
  1  2  1  0  0  0  0
  1  3  1  0  0  0  0
  1  4  1  0  0  0  0
M  END
>  <CHROM.1>
36.46984071,18.93985698,8.72458287,-2.47703284,-1.45871123,0.77089417

>  <Name>
ligand

>  <RI>
0

>  <Rbt.Current_Directory>
/home/itssahil/PROJECTS/Mol_Feturizer/New_Systems/rnas/4FEN

>  <Rbt.Executable>
rbdock ($Id: //depot/dev/client3/rdock/2013.1/src/exe/rbdock.cxx#4 $)

>  <Rbt.Library>
libRbt.so (2013.1, Build901 2013/11/27)

>  <Rbt.Parameter_File>
/export/apps/rDock/src/rDock_2013.1_src/data/scripts/dock_solv.prm

>  <Rbt.Receptor>
prm/pocket_docking_7.prm

>  <SCORE>
-4.9858

>  <SCORE.INTER>
-4.9858

>  <SCORE.INTER.CONST>
1

>  <SCORE.INTER.POLAR>
0

>  <SCORE.INTER.ROT>
0

>  <SCORE.INTER.SOLV>
1.6362

>  <SCORE.INTER.VDW>
-7.46927

>  <SCORE.INTER.norm>
-1.24645

>  <SCORE.INTRA>
0

>  <SCORE.INTRA.DIHEDRAL>
0

>  <SCORE.INTRA.DIHEDRAL.0>
0

>  <SCORE.INTRA.POLAR>
0

>  <SCORE.INTRA.POLAR.0>
0

>  <SCORE.INTRA.REPUL>
0

>  <SCORE.INTRA.REPUL.0>
0

>  <SCORE.INTRA.SOLV>
0

>  <SCORE.INTRA.SOLV.lig_0>
0.449748

>  <SCORE.INTRA.VDW>
0

>  <SCORE.INTRA.VDW.0>
0

>  <SCORE.INTRA.norm>
0

>  <SCORE.RESTR>
0

>  <SCORE.RESTR.CAVITY>
0

>  <SCORE.RESTR.norm>
0

>  <SCORE.SYSTEM>
0

>  <SCORE.SYSTEM.CONST>
0

>  <SCORE.SYSTEM.DIHEDRAL>
0

>  <SCORE.SYSTEM.SOLV>
0

>  <SCORE.SYSTEM.norm>
0

>  <SCORE.heavy>
4

>  <SCORE.norm>
-1.24645

>  <RMSD>
2.088

$$$$
ligand
 OpenBabel11021811493D
libRbt.so/2013.1/901 2013/11/27
  4  3  0  0  0  0  0  0  0  0999 V2000
   36.4633   18.9607    8.6059 C   0  0  0  0  0  0  0  0  0  0  0  0
   36.5982   17.7629    8.2717 O   0  0  0  0  0  0  0  0  0  0  0  0
   36.4839   19.2521   10.1005 C   0  0  0  0  0  0  0  0  0  0  0  0
   36.3036   20.0042    7.8320 O   0  0  0  0  0  0  0  0  0  0  0  0
  1  2  1  0  0  0  0
  1  3  1  0  0  0  0
  1  4  1  0  0  0  0
M  END
>  <CHROM.1>
36.46183377,18.99310807,8.68619979,-2.00325650,-1.44178629,1.27034009

>  <Name>
ligand

>  <RI>
0

>  <Rbt.Current_Directory>
/home/itssahil/PROJECTS/Mol_Feturizer/New_Systems/rnas/4FEN

>  <Rbt.Executable>
rbdock ($Id: //depot/dev/client3/rdock/2013.1/src/exe/rbdock.cxx#4 $)

>  <Rbt.Library>
libRbt.so (2013.1, Build901 2013/11/27)

>  <Rbt.Parameter_File>
/export/apps/rDock/src/rDock_2013.1_src/data/scripts/dock_solv.prm

>  <Rbt.Receptor>
prm/pocket_docking_6.prm

>  <SCORE>
-5.03207

>  <SCORE.INTER>
-5.03207

>  <SCORE.INTER.CONST>
1

>  <SCORE.INTER.POLAR>
0

>  <SCORE.INTER.ROT>
0

>  <SCORE.INTER.SOLV>
1.64581

>  <SCORE.INTER.VDW>
-7.50332

>  <SCORE.INTER.norm>
-1.25802

>  <SCORE.INTRA>
0

>  <SCORE.INTRA.DIHEDRAL>
0

>  <SCORE.INTRA.DIHEDRAL.0>
0

>  <SCORE.INTRA.POLAR>
0

>  <SCORE.INTRA.POLAR.0>
0

>  <SCORE.INTRA.REPUL>
0

>  <SCORE.INTRA.REPUL.0>
0

>  <SCORE.INTRA.SOLV>
0

>  <SCORE.INTRA.SOLV.lig_0>
0.449748

>  <SCORE.INTRA.VDW>
0

>  <SCORE.INTRA.VDW.0>
0

>  <SCORE.INTRA.norm>
0

>  <SCORE.RESTR>
0

>  <SCORE.RESTR.CAVITY>
0

>  <SCORE.RESTR.norm>
0

>  <SCORE.SYSTEM>
0

>  <SCORE.SYSTEM.CONST>
0

>  <SCORE.SYSTEM.DIHEDRAL>
0

>  <SCORE.SYSTEM.SOLV>
0

>  <SCORE.SYSTEM.norm>
0

>  <SCORE.heavy>
4

>  <SCORE.norm>
-1.25802

>  <RMSD>
2.090

$$$$
ligand
 OpenBabel11021811493D
libRbt.so/2013.1/901 2013/11/27
  4  3  0  0  0  0  0  0  0  0999 V2000
   36.4799   18.9082    8.6436 C   0  0  0  0  0  0  0  0  0  0  0  0
   36.5995   17.7013    8.3371 O   0  0  0  0  0  0  0  0  0  0  0  0
   36.5194   19.2353   10.1305 C   0  0  0  0  0  0  0  0  0  0  0  0
   36.3221   19.9343    7.8465 O   0  0  0  0  0  0  0  0  0  0  0  0
  1  2  1  0  0  0  0
  1  3  1  0  0  0  0
  1  4  1  0  0  0  0
M  END
>  <CHROM.1>
36.47960268,18.94250111,8.72314330,2.11369134,1.44792763,-2.00500648

>  <Name>
ligand

>  <RI>
0

>  <Rbt.Current_Directory>
/home/itssahil/PROJECTS/Mol_Feturizer/New_Systems/rnas/4FEN

>  <Rbt.Executable>
rbdock ($Id: //depot/dev/client3/rdock/2013.1/src/exe/rbdock.cxx#4 $)

>  <Rbt.Library>
libRbt.so (2013.1, Build901 2013/11/27)

>  <Rbt.Parameter_File>
/export/apps/rDock/src/rDock_2013.1_src/data/scripts/dock_solv.prm

>  <Rbt.Receptor>
prm/pocket_docking_7.prm

>  <SCORE>
-5.01552

>  <SCORE.INTER>
-5.01552

>  <SCORE.INTER.CONST>
1

>  <SCORE.INTER.POLAR>
0

>  <SCORE.INTER.ROT>
0

>  <SCORE.INTER.SOLV>
1.61844

>  <SCORE.INTER.VDW>
-7.48316

>  <SCORE.INTER.norm>
-1.25388

>  <SCORE.INTRA>
0

>  <SCORE.INTRA.DIHEDRAL>
0

>  <SCORE.INTRA.DIHEDRAL.0>
0

>  <SCORE.INTRA.POLAR>
0

>  <SCORE.INTRA.POLAR.0>
0

>  <SCORE.INTRA.REPUL>
0

>  <SCORE.INTRA.REPUL.0>
0

>  <SCORE.INTRA.SOLV>
0

>  <SCORE.INTRA.SOLV.lig_0>
0.449748

>  <SCORE.INTRA.VDW>
0

>  <SCORE.INTRA.VDW.0>
0

>  <SCORE.INTRA.norm>
0

>  <SCORE.RESTR>
0

>  <SCORE.RESTR.CAVITY>
0

>  <SCORE.RESTR.norm>
0

>  <SCORE.SYSTEM>
0

>  <SCORE.SYSTEM.CONST>
0

>  <SCORE.SYSTEM.DIHEDRAL>
0

>  <SCORE.SYSTEM.SOLV>
0

>  <SCORE.SYSTEM.norm>
0

>  <SCORE.heavy>
4

>  <SCORE.norm>
-1.25388

>  <RMSD>
2.090

$$$$
ligand
 OpenBabel11021811493D
libRbt.so/2013.1/901 2013/11/27
  4  3  0  0  0  0  0  0  0  0999 V2000
   36.4803   18.9439    8.6207 C   0  0  0  0  0  0  0  0  0  0  0  0
   36.5717   17.7366    8.3065 O   0  0  0  0  0  0  0  0  0  0  0  0
   36.4978   19.2580   10.1108 C   0  0  0  0  0  0  0  0  0  0  0  0
   36.3686   19.9804    7.8292 O   0  0  0  0  0  0  0  0  0  0  0  0
  1  2  1  0  0  0  0
  1  3  1  0  0  0  0
  1  4  1  0  0  0  0
M  END
>  <CHROM.1>
36.47925122,18.97761190,8.70048194,-2.02913070,-1.48171594,1.22891387

>  <Name>
ligand

>  <RI>
0

>  <Rbt.Current_Directory>
/home/itssahil/PROJECTS/Mol_Feturizer/New_Systems/rnas/4FEN

>  <Rbt.Executable>
rbdock ($Id: //depot/dev/client3/rdock/2013.1/src/exe/rbdock.cxx#4 $)

>  <Rbt.Library>
libRbt.so (2013.1, Build901 2013/11/27)

>  <Rbt.Parameter_File>
/export/apps/rDock/src/rDock_2013.1_src/data/scripts/dock_solv.prm

>  <Rbt.Receptor>
prm/pocket_docking_8.prm

>  <SCORE>
-5.05631

>  <SCORE.INTER>
-5.05631

>  <SCORE.INTER.CONST>
1

>  <SCORE.INTER.POLAR>
0

>  <SCORE.INTER.ROT>
0

>  <SCORE.INTER.SOLV>
1.63035

>  <SCORE.INTER.VDW>
-7.51432

>  <SCORE.INTER.norm>
-1.26408

>  <SCORE.INTRA>
0

>  <SCORE.INTRA.DIHEDRAL>
0

>  <SCORE.INTRA.DIHEDRAL.0>
0

>  <SCORE.INTRA.POLAR>
0

>  <SCORE.INTRA.POLAR.0>
0

>  <SCORE.INTRA.REPUL>
0

>  <SCORE.INTRA.REPUL.0>
0

>  <SCORE.INTRA.SOLV>
0

>  <SCORE.INTRA.SOLV.lig_0>
0.449748

>  <SCORE.INTRA.VDW>
0

>  <SCORE.INTRA.VDW.0>
0

>  <SCORE.INTRA.norm>
0

>  <SCORE.RESTR>
0

>  <SCORE.RESTR.CAVITY>
0

>  <SCORE.RESTR.norm>
0

>  <SCORE.SYSTEM>
0

>  <SCORE.SYSTEM.CONST>
0

>  <SCORE.SYSTEM.DIHEDRAL>
0

>  <SCORE.SYSTEM.SOLV>
0

>  <SCORE.SYSTEM.norm>
0

>  <SCORE.heavy>
4

>  <SCORE.norm>
-1.26408

>  <RMSD>
2.090

$$$$
ligand
 OpenBabel11021811493D
libRbt.so/2013.1/901 2013/11/27
  4  3  0  0  0  0  0  0  0  0999 V2000
   36.4958   18.9775    8.6166 C   0  0  0  0  0  0  0  0  0  0  0  0
   36.3498   19.9694    7.8685 O   0  0  0  0  0  0  0  0  0  0  0  0
   36.4859   19.2529   10.1144 C   0  0  0  0  0  0  0  0  0  0  0  0
   36.6592   17.7241    8.2767 O   0  0  0  0  0  0  0  0  0  0  0  0
  1  2  1  0  0  0  0
  1  3  1  0  0  0  0
  1  4  1  0  0  0  0
M  END
>  <CHROM.1>
36.49797060,18.97675994,8.70315218,1.19532045,1.43587739,-1.70128360

>  <Name>
ligand

>  <RI>
0

>  <Rbt.Current_Directory>
/home/itssahil/PROJECTS/Mol_Feturizer/New_Systems/rnas/4FEN

>  <Rbt.Executable>
rbdock ($Id: //depot/dev/client3/rdock/2013.1/src/exe/rbdock.cxx#4 $)

>  <Rbt.Library>
libRbt.so (2013.1, Build901 2013/11/27)

>  <Rbt.Parameter_File>
/export/apps/rDock/src/rDock_2013.1_src/data/scripts/dock_solv.prm

>  <Rbt.Receptor>
prm/pocket_docking_8.prm

>  <SCORE>
-5.04689

>  <SCORE.INTER>
-5.04689

>  <SCORE.INTER.CONST>
1

>  <SCORE.INTER.POLAR>
0

>  <SCORE.INTER.ROT>
0

>  <SCORE.INTER.SOLV>
1.62306

>  <SCORE.INTER.VDW>
-7.50561

>  <SCORE.INTER.norm>
-1.26172

>  <SCORE.INTRA>
0

>  <SCORE.INTRA.DIHEDRAL>
0

>  <SCORE.INTRA.DIHEDRAL.0>
0

>  <SCORE.INTRA.POLAR>
0

>  <SCORE.INTRA.POLAR.0>
0

>  <SCORE.INTRA.REPUL>
0

>  <SCORE.INTRA.REPUL.0>
0

>  <SCORE.INTRA.SOLV>
0

>  <SCORE.INTRA.SOLV.lig_0>
0.449748

>  <SCORE.INTRA.VDW>
0

>  <SCORE.INTRA.VDW.0>
0

>  <SCORE.INTRA.norm>
0

>  <SCORE.RESTR>
0

>  <SCORE.RESTR.CAVITY>
0

>  <SCORE.RESTR.norm>
0

>  <SCORE.SYSTEM>
0

>  <SCORE.SYSTEM.CONST>
0

>  <SCORE.SYSTEM.DIHEDRAL>
0

>  <SCORE.SYSTEM.SOLV>
0

>  <SCORE.SYSTEM.norm>
0

>  <SCORE.heavy>
4

>  <SCORE.norm>
-1.26172

>  <RMSD>
2.090

$$$$
ligand
 OpenBabel11021811493D
libRbt.so/2013.1/901 2013/11/27
  4  3  0  0  0  0  0  0  0  0999 V2000
   36.4531   18.9811    8.6081 C   0  0  0  0  0  0  0  0  0  0  0  0
   36.2608   19.9648    7.8598 O   0  0  0  0  0  0  0  0  0  0  0  0
   36.5042   19.2683   10.1029 C   0  0  0  0  0  0  0  0  0  0  0  0
   36.6193   17.7274    8.2708 O   0  0  0  0  0  0  0  0  0  0  0  0
  1  2  1  0  0  0  0
  1  3  1  0  0  0  0
  1  4  1  0  0  0  0
M  END
>  <CHROM.1>
36.45904804,18.98107410,8.69453169,1.45647854,1.41086375,-1.96736948

>  <Name>
ligand

>  <RI>
0

>  <Rbt.Current_Directory>
/home/itssahil/PROJECTS/Mol_Feturizer/New_Systems/rnas/4FEN

>  <Rbt.Executable>
rbdock ($Id: //depot/dev/client3/rdock/2013.1/src/exe/rbdock.cxx#4 $)

>  <Rbt.Library>
libRbt.so (2013.1, Build901 2013/11/27)

>  <Rbt.Parameter_File>
/export/apps/rDock/src/rDock_2013.1_src/data/scripts/dock_solv.prm

>  <Rbt.Receptor>
prm/pocket_docking_8.prm

>  <SCORE>
-5.04991

>  <SCORE.INTER>
-5.04991

>  <SCORE.INTER.CONST>
1

>  <SCORE.INTER.POLAR>
0

>  <SCORE.INTER.ROT>
0

>  <SCORE.INTER.SOLV>
1.6525

>  <SCORE.INTER.VDW>
-7.51744

>  <SCORE.INTER.norm>
-1.26248

>  <SCORE.INTRA>
0

>  <SCORE.INTRA.DIHEDRAL>
0

>  <SCORE.INTRA.DIHEDRAL.0>
0

>  <SCORE.INTRA.POLAR>
0

>  <SCORE.INTRA.POLAR.0>
0

>  <SCORE.INTRA.REPUL>
0

>  <SCORE.INTRA.REPUL.0>
0

>  <SCORE.INTRA.SOLV>
0

>  <SCORE.INTRA.SOLV.lig_0>
0.449748

>  <SCORE.INTRA.VDW>
0

>  <SCORE.INTRA.VDW.0>
0

>  <SCORE.INTRA.norm>
0

>  <SCORE.RESTR>
0

>  <SCORE.RESTR.CAVITY>
0

>  <SCORE.RESTR.norm>
0

>  <SCORE.SYSTEM>
0

>  <SCORE.SYSTEM.CONST>
0

>  <SCORE.SYSTEM.DIHEDRAL>
0

>  <SCORE.SYSTEM.SOLV>
0

>  <SCORE.SYSTEM.norm>
0

>  <SCORE.heavy>
4

>  <SCORE.norm>
-1.26248

>  <RMSD>
2.090

$$$$
ligand
 OpenBabel11021811493D
libRbt.so/2013.1/901 2013/11/27
  4  3  0  0  0  0  0  0  0  0999 V2000
   36.4684   18.9650    8.6055 C   0  0  0  0  0  0  0  0  0  0  0  0
   36.6089   17.7673    8.2729 O   0  0  0  0  0  0  0  0  0  0  0  0
   36.4831   19.2579   10.0999 C   0  0  0  0  0  0  0  0  0  0  0  0
   36.3070   20.0071    7.8301 O   0  0  0  0  0  0  0  0  0  0  0  0
  1  2  1  0  0  0  0
  1  3  1  0  0  0  0
  1  4  1  0  0  0  0
M  END
>  <CHROM.1>
36.46649252,18.99742739,8.68579698,-1.97160768,-1.43894654,1.30074447

>  <Name>
ligand

>  <RI>
0

>  <Rbt.Current_Directory>
/home/itssahil/PROJECTS/Mol_Feturizer/New_Systems/rnas/4FEN

>  <Rbt.Executable>
rbdock ($Id: //depot/dev/client3/rdock/2013.1/src/exe/rbdock.cxx#4 $)

>  <Rbt.Library>
libRbt.so (2013.1, Build901 2013/11/27)

>  <Rbt.Parameter_File>
/export/apps/rDock/src/rDock_2013.1_src/data/scripts/dock_solv.prm

>  <Rbt.Receptor>
prm/pocket_docking_8.prm

>  <SCORE>
-5.03164

>  <SCORE.INTER>
-5.03164

>  <SCORE.INTER.CONST>
1

>  <SCORE.INTER.POLAR>
0

>  <SCORE.INTER.ROT>
0

>  <SCORE.INTER.SOLV>
1.64479

>  <SCORE.INTER.VDW>
-7.50269

>  <SCORE.INTER.norm>
-1.25791

>  <SCORE.INTRA>
0

>  <SCORE.INTRA.DIHEDRAL>
0

>  <SCORE.INTRA.DIHEDRAL.0>
0

>  <SCORE.INTRA.POLAR>
0

>  <SCORE.INTRA.POLAR.0>
0

>  <SCORE.INTRA.REPUL>
0

>  <SCORE.INTRA.REPUL.0>
0

>  <SCORE.INTRA.SOLV>
0

>  <SCORE.INTRA.SOLV.lig_0>
0.449748

>  <SCORE.INTRA.VDW>
0

>  <SCORE.INTRA.VDW.0>
0

>  <SCORE.INTRA.norm>
0

>  <SCORE.RESTR>
0

>  <SCORE.RESTR.CAVITY>
0

>  <SCORE.RESTR.norm>
0

>  <SCORE.SYSTEM>
0

>  <SCORE.SYSTEM.CONST>
0

>  <SCORE.SYSTEM.DIHEDRAL>
0

>  <SCORE.SYSTEM.SOLV>
0

>  <SCORE.SYSTEM.norm>
0

>  <SCORE.heavy>
4

>  <SCORE.norm>
-1.25791

>  <RMSD>
2.090

$$$$
ligand
 OpenBabel11021811493D
libRbt.so/2013.1/901 2013/11/27
  4  3  0  0  0  0  0  0  0  0999 V2000
   36.4606   18.9738    8.6141 C   0  0  0  0  0  0  0  0  0  0  0  0
   36.2581   19.9559    7.8663 O   0  0  0  0  0  0  0  0  0  0  0  0
   36.4949   19.2584   10.1098 C   0  0  0  0  0  0  0  0  0  0  0  0
   36.6503   17.7237    8.2755 O   0  0  0  0  0  0  0  0  0  0  0  0
  1  2  1  0  0  0  0
  1  3  1  0  0  0  0
  1  4  1  0  0  0  0
M  END
>  <CHROM.1>
36.46584182,18.97365185,8.70056356,1.37590239,1.39815444,-1.88571752

>  <Name>
ligand

>  <RI>
0

>  <Rbt.Current_Directory>
/home/itssahil/PROJECTS/Mol_Feturizer/New_Systems/rnas/4FEN

>  <Rbt.Executable>
rbdock ($Id: //depot/dev/client3/rdock/2013.1/src/exe/rbdock.cxx#4 $)

>  <Rbt.Library>
libRbt.so (2013.1, Build901 2013/11/27)

>  <Rbt.Parameter_File>
/export/apps/rDock/src/rDock_2013.1_src/data/scripts/dock_solv.prm

>  <Rbt.Receptor>
prm/pocket_docking_8.prm

>  <SCORE>
-5.04971

>  <SCORE.INTER>
-5.04971

>  <SCORE.INTER.CONST>
1

>  <SCORE.INTER.POLAR>
0

>  <SCORE.INTER.ROT>
0

>  <SCORE.INTER.SOLV>
1.64153

>  <SCORE.INTER.VDW>
-7.51365

>  <SCORE.INTER.norm>
-1.26243

>  <SCORE.INTRA>
0

>  <SCORE.INTRA.DIHEDRAL>
0

>  <SCORE.INTRA.DIHEDRAL.0>
0

>  <SCORE.INTRA.POLAR>
0

>  <SCORE.INTRA.POLAR.0>
0

>  <SCORE.INTRA.REPUL>
0

>  <SCORE.INTRA.REPUL.0>
0

>  <SCORE.INTRA.SOLV>
0

>  <SCORE.INTRA.SOLV.lig_0>
0.449748

>  <SCORE.INTRA.VDW>
0

>  <SCORE.INTRA.VDW.0>
0

>  <SCORE.INTRA.norm>
0

>  <SCORE.RESTR>
0

>  <SCORE.RESTR.CAVITY>
0

>  <SCORE.RESTR.norm>
0

>  <SCORE.SYSTEM>
0

>  <SCORE.SYSTEM.CONST>
0

>  <SCORE.SYSTEM.DIHEDRAL>
0

>  <SCORE.SYSTEM.SOLV>
0

>  <SCORE.SYSTEM.norm>
0

>  <SCORE.heavy>
4

>  <SCORE.norm>
-1.26243

>  <RMSD>
2.090

$$$$
ligand
 OpenBabel11021811493D
libRbt.so/2013.1/901 2013/11/27
  4  3  0  0  0  0  0  0  0  0999 V2000
   36.4574   18.9643    8.6018 C   0  0  0  0  0  0  0  0  0  0  0  0
   36.5892   17.7655    8.2696 O   0  0  0  0  0  0  0  0  0  0  0  0
   36.4778   19.2581   10.0960 C   0  0  0  0  0  0  0  0  0  0  0  0
   36.3011   20.0069    7.8261 O   0  0  0  0  0  0  0  0  0  0  0  0
  1  2  1  0  0  0  0
  1  3  1  0  0  0  0
  1  4  1  0  0  0  0
M  END
>  <CHROM.1>
36.45595197,18.99680378,8.68204670,-2.00467272,-1.44461393,1.26728934

>  <Name>
ligand

>  <RI>
0

>  <Rbt.Current_Directory>
/home/itssahil/PROJECTS/Mol_Feturizer/New_Systems/rnas/4FEN

>  <Rbt.Executable>
rbdock ($Id: //depot/dev/client3/rdock/2013.1/src/exe/rbdock.cxx#4 $)

>  <Rbt.Library>
libRbt.so (2013.1, Build901 2013/11/27)

>  <Rbt.Parameter_File>
/export/apps/rDock/src/rDock_2013.1_src/data/scripts/dock_solv.prm

>  <Rbt.Receptor>
prm/pocket_docking_5.prm

>  <SCORE>
-5.03155

>  <SCORE.INTER>
-5.03155

>  <SCORE.INTER.CONST>
1

>  <SCORE.INTER.POLAR>
0

>  <SCORE.INTER.ROT>
0

>  <SCORE.INTER.SOLV>
1.64885

>  <SCORE.INTER.VDW>
-7.50398

>  <SCORE.INTER.norm>
-1.25789

>  <SCORE.INTRA>
0

>  <SCORE.INTRA.DIHEDRAL>
0

>  <SCORE.INTRA.DIHEDRAL.0>
0

>  <SCORE.INTRA.POLAR>
0

>  <SCORE.INTRA.POLAR.0>
0

>  <SCORE.INTRA.REPUL>
0

>  <SCORE.INTRA.REPUL.0>
0

>  <SCORE.INTRA.SOLV>
0

>  <SCORE.INTRA.SOLV.lig_0>
0.449748

>  <SCORE.INTRA.VDW>
0

>  <SCORE.INTRA.VDW.0>
0

>  <SCORE.INTRA.norm>
0

>  <SCORE.RESTR>
0

>  <SCORE.RESTR.CAVITY>
0

>  <SCORE.RESTR.norm>
0

>  <SCORE.SYSTEM>
0

>  <SCORE.SYSTEM.CONST>
0

>  <SCORE.SYSTEM.DIHEDRAL>
0

>  <SCORE.SYSTEM.SOLV>
0

>  <SCORE.SYSTEM.norm>
0

>  <SCORE.heavy>
4

>  <SCORE.norm>
-1.25789

>  <RMSD>
2.091

$$$$
ligand
 OpenBabel11021811493D
libRbt.so/2013.1/901 2013/11/27
  4  3  0  0  0  0  0  0  0  0999 V2000
   36.4613   18.9650    8.6020 C   0  0  0  0  0  0  0  0  0  0  0  0
   36.5978   17.7675    8.2674 O   0  0  0  0  0  0  0  0  0  0  0  0
   36.4788   19.2557   10.0968 C   0  0  0  0  0  0  0  0  0  0  0  0
   36.3023   20.0088    7.8284 O   0  0  0  0  0  0  0  0  0  0  0  0
  1  2  1  0  0  0  0
  1  3  1  0  0  0  0
  1  4  1  0  0  0  0
M  END
>  <CHROM.1>
36.45966656,18.99736943,8.68233275,-1.98702035,-1.44163432,1.28695887

>  <Name>
ligand

>  <RI>
0

>  <Rbt.Current_Directory>
/home/itssahil/PROJECTS/Mol_Feturizer/New_Systems/rnas/4FEN

>  <Rbt.Executable>
rbdock ($Id: //depot/dev/client3/rdock/2013.1/src/exe/rbdock.cxx#4 $)

>  <Rbt.Library>
libRbt.so (2013.1, Build901 2013/11/27)

>  <Rbt.Parameter_File>
/export/apps/rDock/src/rDock_2013.1_src/data/scripts/dock_solv.prm

>  <Rbt.Receptor>
prm/pocket_docking_5.prm

>  <SCORE>
-5.03211

>  <SCORE.INTER>
-5.03211

>  <SCORE.INTER.CONST>
1

>  <SCORE.INTER.POLAR>
0

>  <SCORE.INTER.ROT>
0

>  <SCORE.INTER.SOLV>
1.64801

>  <SCORE.INTER.VDW>
-7.50408

>  <SCORE.INTER.norm>
-1.25803

>  <SCORE.INTRA>
0

>  <SCORE.INTRA.DIHEDRAL>
0

>  <SCORE.INTRA.DIHEDRAL.0>
0

>  <SCORE.INTRA.POLAR>
0

>  <SCORE.INTRA.POLAR.0>
0

>  <SCORE.INTRA.REPUL>
0

>  <SCORE.INTRA.REPUL.0>
0

>  <SCORE.INTRA.SOLV>
0

>  <SCORE.INTRA.SOLV.lig_0>
0.449748

>  <SCORE.INTRA.VDW>
0

>  <SCORE.INTRA.VDW.0>
0

>  <SCORE.INTRA.norm>
0

>  <SCORE.RESTR>
0

>  <SCORE.RESTR.CAVITY>
0

>  <SCORE.RESTR.norm>
0

>  <SCORE.SYSTEM>
0

>  <SCORE.SYSTEM.CONST>
0

>  <SCORE.SYSTEM.DIHEDRAL>
0

>  <SCORE.SYSTEM.SOLV>
0

>  <SCORE.SYSTEM.norm>
0

>  <SCORE.heavy>
4

>  <SCORE.norm>
-1.25803

>  <RMSD>
2.091

$$$$
ligand
 OpenBabel11021811493D
libRbt.so/2013.1/901 2013/11/27
  4  3  0  0  0  0  0  0  0  0999 V2000
   36.4660   18.8859    8.6550 C   0  0  0  0  0  0  0  0  0  0  0  0
   36.5994   17.6768    8.3636 O   0  0  0  0  0  0  0  0  0  0  0  0
   36.5057   19.2326   10.1375 C   0  0  0  0  0  0  0  0  0  0  0  0
   36.2935   19.8997    7.8453 O   0  0  0  0  0  0  0  0  0  0  0  0
  1  2  1  0  0  0  0
  1  3  1  0  0  0  0
  1  4  1  0  0  0  0
M  END
>  <CHROM.1>
36.46554596,18.92126364,8.73412193,-2.09152859,-1.43498500,1.14578551

>  <Name>
ligand

>  <RI>
0

>  <Rbt.Current_Directory>
/home/itssahil/PROJECTS/Mol_Feturizer/New_Systems/rnas/4FEN

>  <Rbt.Executable>
rbdock ($Id: //depot/dev/client3/rdock/2013.1/src/exe/rbdock.cxx#4 $)

>  <Rbt.Library>
libRbt.so (2013.1, Build901 2013/11/27)

>  <Rbt.Parameter_File>
/export/apps/rDock/src/rDock_2013.1_src/data/scripts/dock_solv.prm

>  <Rbt.Receptor>
prm/pocket_docking_7.prm

>  <SCORE>
-4.98413

>  <SCORE.INTER>
-4.98413

>  <SCORE.INTER.CONST>
1

>  <SCORE.INTER.POLAR>
0

>  <SCORE.INTER.ROT>
0

>  <SCORE.INTER.SOLV>
1.61742

>  <SCORE.INTER.VDW>
-7.46189

>  <SCORE.INTER.norm>
-1.24603

>  <SCORE.INTRA>
0

>  <SCORE.INTRA.DIHEDRAL>
0

>  <SCORE.INTRA.DIHEDRAL.0>
0

>  <SCORE.INTRA.POLAR>
0

>  <SCORE.INTRA.POLAR.0>
0

>  <SCORE.INTRA.REPUL>
0

>  <SCORE.INTRA.REPUL.0>
0

>  <SCORE.INTRA.SOLV>
0

>  <SCORE.INTRA.SOLV.lig_0>
0.449748

>  <SCORE.INTRA.VDW>
0

>  <SCORE.INTRA.VDW.0>
0

>  <SCORE.INTRA.norm>
0

>  <SCORE.RESTR>
0

>  <SCORE.RESTR.CAVITY>
0

>  <SCORE.RESTR.norm>
0

>  <SCORE.SYSTEM>
0

>  <SCORE.SYSTEM.CONST>
0

>  <SCORE.SYSTEM.DIHEDRAL>
0

>  <SCORE.SYSTEM.SOLV>
0

>  <SCORE.SYSTEM.norm>
0

>  <SCORE.heavy>
4

>  <SCORE.norm>
-1.24603

>  <RMSD>
2.091

$$$$
ligand
 OpenBabel11021811493D
libRbt.so/2013.1/901 2013/11/27
  4  3  0  0  0  0  0  0  0  0999 V2000
   36.4620   18.9865    8.6059 C   0  0  0  0  0  0  0  0  0  0  0  0
   36.2562   19.9722    7.8638 O   0  0  0  0  0  0  0  0  0  0  0  0
   36.5169   19.2662   10.1019 C   0  0  0  0  0  0  0  0  0  0  0  0
   36.6396   17.7364    8.2610 O   0  0  0  0  0  0  0  0  0  0  0  0
  1  2  1  0  0  0  0
  1  3  1  0  0  0  0
  1  4  1  0  0  0  0
M  END
>  <CHROM.1>
36.46835587,18.98607722,8.69228119,1.45750763,1.39962327,-1.96298682

>  <Name>
ligand

>  <RI>
0

>  <Rbt.Current_Directory>
/home/itssahil/PROJECTS/Mol_Feturizer/New_Systems/rnas/4FEN

>  <Rbt.Executable>
rbdock ($Id: //depot/dev/client3/rdock/2013.1/src/exe/rbdock.cxx#4 $)

>  <Rbt.Library>
libRbt.so (2013.1, Build901 2013/11/27)

>  <Rbt.Parameter_File>
/export/apps/rDock/src/rDock_2013.1_src/data/scripts/dock_solv.prm

>  <Rbt.Receptor>
prm/pocket_docking_8.prm

>  <SCORE>
-5.04711

>  <SCORE.INTER>
-5.04711

>  <SCORE.INTER.CONST>
1

>  <SCORE.INTER.POLAR>
0

>  <SCORE.INTER.ROT>
0

>  <SCORE.INTER.SOLV>
1.65778

>  <SCORE.INTER.VDW>
-7.51733

>  <SCORE.INTER.norm>
-1.26178

>  <SCORE.INTRA>
0

>  <SCORE.INTRA.DIHEDRAL>
0

>  <SCORE.INTRA.DIHEDRAL.0>
0

>  <SCORE.INTRA.POLAR>
0

>  <SCORE.INTRA.POLAR.0>
0

>  <SCORE.INTRA.REPUL>
0

>  <SCORE.INTRA.REPUL.0>
0

>  <SCORE.INTRA.SOLV>
0

>  <SCORE.INTRA.SOLV.lig_0>
0.449748

>  <SCORE.INTRA.VDW>
0

>  <SCORE.INTRA.VDW.0>
0

>  <SCORE.INTRA.norm>
0

>  <SCORE.RESTR>
0

>  <SCORE.RESTR.CAVITY>
0

>  <SCORE.RESTR.norm>
0

>  <SCORE.SYSTEM>
0

>  <SCORE.SYSTEM.CONST>
0

>  <SCORE.SYSTEM.DIHEDRAL>
0

>  <SCORE.SYSTEM.SOLV>
0

>  <SCORE.SYSTEM.norm>
0

>  <SCORE.heavy>
4

>  <SCORE.norm>
-1.26178

>  <RMSD>
2.091

$$$$
ligand
 OpenBabel11021811493D
libRbt.so/2013.1/901 2013/11/27
  4  3  0  0  0  0  0  0  0  0999 V2000
   36.4664   18.9443    8.6169 C   0  0  0  0  0  0  0  0  0  0  0  0
   36.5353   17.7339    8.3086 O   0  0  0  0  0  0  0  0  0  0  0  0
   36.5425   19.2690   10.1029 C   0  0  0  0  0  0  0  0  0  0  0  0
   36.3344   19.9760    7.8223 O   0  0  0  0  0  0  0  0  0  0  0  0
  1  2  1  0  0  0  0
  1  3  1  0  0  0  0
  1  4  1  0  0  0  0
M  END
>  <CHROM.1>
36.46870351,18.97857112,8.69641837,-2.41918127,-1.46998045,0.83317196

>  <Name>
ligand

>  <RI>
0

>  <Rbt.Current_Directory>
/home/itssahil/PROJECTS/Mol_Feturizer/New_Systems/rnas/4FEN

>  <Rbt.Executable>
rbdock ($Id: //depot/dev/client3/rdock/2013.1/src/exe/rbdock.cxx#4 $)

>  <Rbt.Library>
libRbt.so (2013.1, Build901 2013/11/27)

>  <Rbt.Parameter_File>
/export/apps/rDock/src/rDock_2013.1_src/data/scripts/dock_solv.prm

>  <Rbt.Receptor>
prm/pocket_docking_4.prm

>  <SCORE>
-5.02638

>  <SCORE.INTER>
-5.02638

>  <SCORE.INTER.CONST>
1

>  <SCORE.INTER.POLAR>
0

>  <SCORE.INTER.ROT>
0

>  <SCORE.INTER.SOLV>
1.65505

>  <SCORE.INTER.VDW>
-7.5026

>  <SCORE.INTER.norm>
-1.25659

>  <SCORE.INTRA>
0

>  <SCORE.INTRA.DIHEDRAL>
0

>  <SCORE.INTRA.DIHEDRAL.0>
0

>  <SCORE.INTRA.POLAR>
0

>  <SCORE.INTRA.POLAR.0>
0

>  <SCORE.INTRA.REPUL>
0

>  <SCORE.INTRA.REPUL.0>
0

>  <SCORE.INTRA.SOLV>
0

>  <SCORE.INTRA.SOLV.lig_0>
0.449748

>  <SCORE.INTRA.VDW>
0

>  <SCORE.INTRA.VDW.0>
0

>  <SCORE.INTRA.norm>
0

>  <SCORE.RESTR>
0

>  <SCORE.RESTR.CAVITY>
0

>  <SCORE.RESTR.norm>
0

>  <SCORE.SYSTEM>
0

>  <SCORE.SYSTEM.CONST>
0

>  <SCORE.SYSTEM.DIHEDRAL>
0

>  <SCORE.SYSTEM.SOLV>
0

>  <SCORE.SYSTEM.norm>
0

>  <SCORE.heavy>
4

>  <SCORE.norm>
-1.25659

>  <RMSD>
2.093

$$$$
ligand
 OpenBabel11021811493D
libRbt.so/2013.1/901 2013/11/27
  4  3  0  0  0  0  0  0  0  0999 V2000
   36.4686   18.9555    8.6053 C   0  0  0  0  0  0  0  0  0  0  0  0
   36.6185   17.7599    8.2694 O   0  0  0  0  0  0  0  0  0  0  0  0
   36.4651   19.2423   10.1010 C   0  0  0  0  0  0  0  0  0  0  0  0
   36.3112   20.0001    7.8324 O   0  0  0  0  0  0  0  0  0  0  0  0
  1  2  1  0  0  0  0
  1  3  1  0  0  0  0
  1  4  1  0  0  0  0
M  END
>  <CHROM.1>
36.46569146,18.98760013,8.68568525,-1.88068435,-1.43693132,1.39498814

>  <Name>
ligand

>  <RI>
0

>  <Rbt.Current_Directory>
/home/itssahil/PROJECTS/Mol_Feturizer/New_Systems/rnas/4FEN

>  <Rbt.Executable>
rbdock ($Id: //depot/dev/client3/rdock/2013.1/src/exe/rbdock.cxx#4 $)

>  <Rbt.Library>
libRbt.so (2013.1, Build901 2013/11/27)

>  <Rbt.Parameter_File>
/export/apps/rDock/src/rDock_2013.1_src/data/scripts/dock_solv.prm

>  <Rbt.Receptor>
prm/pocket_docking_6.prm

>  <SCORE>
-5.02986

>  <SCORE.INTER>
-5.02986

>  <SCORE.INTER.CONST>
1

>  <SCORE.INTER.POLAR>
0

>  <SCORE.INTER.ROT>
0

>  <SCORE.INTER.SOLV>
1.63704

>  <SCORE.INTER.VDW>
-7.49892

>  <SCORE.INTER.norm>
-1.25746

>  <SCORE.INTRA>
0

>  <SCORE.INTRA.DIHEDRAL>
0

>  <SCORE.INTRA.DIHEDRAL.0>
0

>  <SCORE.INTRA.POLAR>
0

>  <SCORE.INTRA.POLAR.0>
0

>  <SCORE.INTRA.REPUL>
0

>  <SCORE.INTRA.REPUL.0>
0

>  <SCORE.INTRA.SOLV>
0

>  <SCORE.INTRA.SOLV.lig_0>
0.449748

>  <SCORE.INTRA.VDW>
0

>  <SCORE.INTRA.VDW.0>
0

>  <SCORE.INTRA.norm>
0

>  <SCORE.RESTR>
0

>  <SCORE.RESTR.CAVITY>
0

>  <SCORE.RESTR.norm>
0

>  <SCORE.SYSTEM>
0

>  <SCORE.SYSTEM.CONST>
0

>  <SCORE.SYSTEM.DIHEDRAL>
0

>  <SCORE.SYSTEM.SOLV>
0

>  <SCORE.SYSTEM.norm>
0

>  <SCORE.heavy>
4

>  <SCORE.norm>
-1.25746

>  <RMSD>
2.093

$$$$
ligand
 OpenBabel11021811493D
libRbt.so/2013.1/901 2013/11/27
  4  3  0  0  0  0  0  0  0  0999 V2000
   36.4837   18.9274    8.6297 C   0  0  0  0  0  0  0  0  0  0  0  0
   36.6075   17.7208    8.3239 O   0  0  0  0  0  0  0  0  0  0  0  0
   36.4895   19.2518   10.1177 C   0  0  0  0  0  0  0  0  0  0  0  0
   36.3467   19.9552    7.8309 O   0  0  0  0  0  0  0  0  0  0  0  0
  1  2  1  0  0  0  0
  1  3  1  0  0  0  0
  1  4  1  0  0  0  0
M  END
>  <CHROM.1>
36.48162522,18.96154026,8.70927534,1.92984557,1.45649651,-1.82062872

>  <Name>
ligand

>  <RI>
0

>  <Rbt.Current_Directory>
/home/itssahil/PROJECTS/Mol_Feturizer/New_Systems/rnas/4FEN

>  <Rbt.Executable>
rbdock ($Id: //depot/dev/client3/rdock/2013.1/src/exe/rbdock.cxx#4 $)

>  <Rbt.Library>
libRbt.so (2013.1, Build901 2013/11/27)

>  <Rbt.Parameter_File>
/export/apps/rDock/src/rDock_2013.1_src/data/scripts/dock_solv.prm

>  <Rbt.Receptor>
prm/pocket_docking_7.prm

>  <SCORE>
-5.03352

>  <SCORE.INTER>
-5.03352

>  <SCORE.INTER.CONST>
1

>  <SCORE.INTER.POLAR>
0

>  <SCORE.INTER.ROT>
0

>  <SCORE.INTER.SOLV>
1.61822

>  <SCORE.INTER.VDW>
-7.49509

>  <SCORE.INTER.norm>
-1.25838

>  <SCORE.INTRA>
0

>  <SCORE.INTRA.DIHEDRAL>
0

>  <SCORE.INTRA.DIHEDRAL.0>
0

>  <SCORE.INTRA.POLAR>
0

>  <SCORE.INTRA.POLAR.0>
0

>  <SCORE.INTRA.REPUL>
0

>  <SCORE.INTRA.REPUL.0>
0

>  <SCORE.INTRA.SOLV>
0

>  <SCORE.INTRA.SOLV.lig_0>
0.449748

>  <SCORE.INTRA.VDW>
0

>  <SCORE.INTRA.VDW.0>
0

>  <SCORE.INTRA.norm>
0

>  <SCORE.RESTR>
0

>  <SCORE.RESTR.CAVITY>
0

>  <SCORE.RESTR.norm>
0

>  <SCORE.SYSTEM>
0

>  <SCORE.SYSTEM.CONST>
0

>  <SCORE.SYSTEM.DIHEDRAL>
0

>  <SCORE.SYSTEM.SOLV>
0

>  <SCORE.SYSTEM.norm>
0

>  <SCORE.heavy>
4

>  <SCORE.norm>
-1.25838

>  <RMSD>
2.093

$$$$
ligand
 OpenBabel11021811493D
libRbt.so/2013.1/901 2013/11/27
  4  3  0  0  0  0  0  0  0  0999 V2000
   36.4711   18.9518    8.6232 C   0  0  0  0  0  0  0  0  0  0  0  0
   36.3157   19.9328    7.8627 O   0  0  0  0  0  0  0  0  0  0  0  0
   36.5390   19.2559   10.1139 C   0  0  0  0  0  0  0  0  0  0  0  0
   36.5859   17.6882    8.3016 O   0  0  0  0  0  0  0  0  0  0  0  0
  1  2  1  0  0  0  0
  1  3  1  0  0  0  0
  1  4  1  0  0  0  0
M  END
>  <CHROM.1>
36.47739593,18.95268326,8.70955235,1.60639496,1.44498829,-2.12870282

>  <Name>
ligand

>  <RI>
0

>  <Rbt.Current_Directory>
/home/itssahil/PROJECTS/Mol_Feturizer/New_Systems/rnas/4FEN

>  <Rbt.Executable>
rbdock ($Id: //depot/dev/client3/rdock/2013.1/src/exe/rbdock.cxx#4 $)

>  <Rbt.Library>
libRbt.so (2013.1, Build901 2013/11/27)

>  <Rbt.Parameter_File>
/export/apps/rDock/src/rDock_2013.1_src/data/scripts/dock_solv.prm

>  <Rbt.Receptor>
prm/pocket_docking_4.prm

>  <SCORE>
-5.03729

>  <SCORE.INTER>
-5.03729

>  <SCORE.INTER.CONST>
1

>  <SCORE.INTER.POLAR>
0

>  <SCORE.INTER.ROT>
0

>  <SCORE.INTER.SOLV>
1.64297

>  <SCORE.INTER.VDW>
-7.50585

>  <SCORE.INTER.norm>
-1.25932

>  <SCORE.INTRA>
0

>  <SCORE.INTRA.DIHEDRAL>
0

>  <SCORE.INTRA.DIHEDRAL.0>
0

>  <SCORE.INTRA.POLAR>
0

>  <SCORE.INTRA.POLAR.0>
0

>  <SCORE.INTRA.REPUL>
0

>  <SCORE.INTRA.REPUL.0>
0

>  <SCORE.INTRA.SOLV>
0

>  <SCORE.INTRA.SOLV.lig_0>
0.449748

>  <SCORE.INTRA.VDW>
0

>  <SCORE.INTRA.VDW.0>
0

>  <SCORE.INTRA.norm>
0

>  <SCORE.RESTR>
0

>  <SCORE.RESTR.CAVITY>
0

>  <SCORE.RESTR.norm>
0

>  <SCORE.SYSTEM>
0

>  <SCORE.SYSTEM.CONST>
0

>  <SCORE.SYSTEM.DIHEDRAL>
0

>  <SCORE.SYSTEM.SOLV>
0

>  <SCORE.SYSTEM.norm>
0

>  <SCORE.heavy>
4

>  <SCORE.norm>
-1.25932

>  <RMSD>
2.094

$$$$
ligand
 OpenBabel11021811493D
libRbt.so/2013.1/901 2013/11/27
  4  3  0  0  0  0  0  0  0  0999 V2000
   36.4713   18.9554    8.6206 C   0  0  0  0  0  0  0  0  0  0  0  0
   36.3189   19.9401    7.8644 O   0  0  0  0  0  0  0  0  0  0  0  0
   36.5438   19.2533   10.1124 C   0  0  0  0  0  0  0  0  0  0  0  0
   36.5794   17.6926    8.2938 O   0  0  0  0  0  0  0  0  0  0  0  0
  1  2  1  0  0  0  0
  1  3  1  0  0  0  0
  1  4  1  0  0  0  0
M  END
>  <CHROM.1>
36.47777535,18.95588517,8.70699450,1.64150718,1.44779541,-2.15956820

>  <Name>
ligand

>  <RI>
0

>  <Rbt.Current_Directory>
/home/itssahil/PROJECTS/Mol_Feturizer/New_Systems/rnas/4FEN

>  <Rbt.Executable>
rbdock ($Id: //depot/dev/client3/rdock/2013.1/src/exe/rbdock.cxx#4 $)

>  <Rbt.Library>
libRbt.so (2013.1, Build901 2013/11/27)

>  <Rbt.Parameter_File>
/export/apps/rDock/src/rDock_2013.1_src/data/scripts/dock_solv.prm

>  <Rbt.Receptor>
prm/pocket_docking_4.prm

>  <SCORE>
-5.03326

>  <SCORE.INTER>
-5.03326

>  <SCORE.INTER.CONST>
1

>  <SCORE.INTER.POLAR>
0

>  <SCORE.INTER.ROT>
0

>  <SCORE.INTER.SOLV>
1.64721

>  <SCORE.INTER.VDW>
-7.50458

>  <SCORE.INTER.norm>
-1.25832

>  <SCORE.INTRA>
0

>  <SCORE.INTRA.DIHEDRAL>
0

>  <SCORE.INTRA.DIHEDRAL.0>
0

>  <SCORE.INTRA.POLAR>
0

>  <SCORE.INTRA.POLAR.0>
0

>  <SCORE.INTRA.REPUL>
0

>  <SCORE.INTRA.REPUL.0>
0

>  <SCORE.INTRA.SOLV>
0

>  <SCORE.INTRA.SOLV.lig_0>
0.449748

>  <SCORE.INTRA.VDW>
0

>  <SCORE.INTRA.VDW.0>
0

>  <SCORE.INTRA.norm>
0

>  <SCORE.RESTR>
0

>  <SCORE.RESTR.CAVITY>
0

>  <SCORE.RESTR.norm>
0

>  <SCORE.SYSTEM>
0

>  <SCORE.SYSTEM.CONST>
0

>  <SCORE.SYSTEM.DIHEDRAL>
0

>  <SCORE.SYSTEM.SOLV>
0

>  <SCORE.SYSTEM.norm>
0

>  <SCORE.heavy>
4

>  <SCORE.norm>
-1.25832

>  <RMSD>
2.094

$$$$
ligand
 OpenBabel11021811493D
libRbt.so/2013.1/901 2013/11/27
  4  3  0  0  0  0  0  0  0  0999 V2000
   36.4622   18.9592    8.6163 C   0  0  0  0  0  0  0  0  0  0  0  0
   36.3237   19.9399    7.8522 O   0  0  0  0  0  0  0  0  0  0  0  0
   36.5108   19.2653   10.1074 C   0  0  0  0  0  0  0  0  0  0  0  0
   36.5736   17.6944    8.2984 O   0  0  0  0  0  0  0  0  0  0  0  0
  1  2  1  0  0  0  0
  1  3  1  0  0  0  0
  1  4  1  0  0  0  0
M  END
>  <CHROM.1>
36.46722130,18.96014403,8.70281189,1.52930925,1.45749550,-2.05376313

>  <Name>
ligand

>  <RI>
0

>  <Rbt.Current_Directory>
/home/itssahil/PROJECTS/Mol_Feturizer/New_Systems/rnas/4FEN

>  <Rbt.Executable>
rbdock ($Id: //depot/dev/client3/rdock/2013.1/src/exe/rbdock.cxx#4 $)

>  <Rbt.Library>
libRbt.so (2013.1, Build901 2013/11/27)

>  <Rbt.Parameter_File>
/export/apps/rDock/src/rDock_2013.1_src/data/scripts/dock_solv.prm

>  <Rbt.Receptor>
prm/pocket_docking_4.prm

>  <SCORE>
-5.04217

>  <SCORE.INTER>
-5.04217

>  <SCORE.INTER.CONST>
1

>  <SCORE.INTER.POLAR>
0

>  <SCORE.INTER.ROT>
0

>  <SCORE.INTER.SOLV>
1.64077

>  <SCORE.INTER.VDW>
-7.50837

>  <SCORE.INTER.norm>
-1.26054

>  <SCORE.INTRA>
0

>  <SCORE.INTRA.DIHEDRAL>
0

>  <SCORE.INTRA.DIHEDRAL.0>
0

>  <SCORE.INTRA.POLAR>
0

>  <SCORE.INTRA.POLAR.0>
0

>  <SCORE.INTRA.REPUL>
0

>  <SCORE.INTRA.REPUL.0>
0

>  <SCORE.INTRA.SOLV>
0

>  <SCORE.INTRA.SOLV.lig_0>
0.449748

>  <SCORE.INTRA.VDW>
0

>  <SCORE.INTRA.VDW.0>
0

>  <SCORE.INTRA.norm>
0

>  <SCORE.RESTR>
0

>  <SCORE.RESTR.CAVITY>
0

>  <SCORE.RESTR.norm>
0

>  <SCORE.SYSTEM>
0

>  <SCORE.SYSTEM.CONST>
0

>  <SCORE.SYSTEM.DIHEDRAL>
0

>  <SCORE.SYSTEM.SOLV>
0

>  <SCORE.SYSTEM.norm>
0

>  <SCORE.heavy>
4

>  <SCORE.norm>
-1.26054

>  <RMSD>
2.094

$$$$
ligand
 OpenBabel11021811493D
libRbt.so/2013.1/901 2013/11/27
  4  3  0  0  0  0  0  0  0  0999 V2000
   36.4657   18.9524    8.6207 C   0  0  0  0  0  0  0  0  0  0  0  0
   36.3153   19.9345    7.8607 O   0  0  0  0  0  0  0  0  0  0  0  0
   36.5230   19.2543   10.1123 C   0  0  0  0  0  0  0  0  0  0  0  0
   36.5830   17.6893    8.2981 O   0  0  0  0  0  0  0  0  0  0  0  0
  1  2  1  0  0  0  0
  1  3  1  0  0  0  0
  1  4  1  0  0  0  0
M  END
>  <CHROM.1>
36.47130817,18.95315557,8.70713463,1.55644832,1.44831523,-2.07764669

>  <Name>
ligand

>  <RI>
0

>  <Rbt.Current_Directory>
/home/itssahil/PROJECTS/Mol_Feturizer/New_Systems/rnas/4FEN

>  <Rbt.Executable>
rbdock ($Id: //depot/dev/client3/rdock/2013.1/src/exe/rbdock.cxx#4 $)

>  <Rbt.Library>
libRbt.so (2013.1, Build901 2013/11/27)

>  <Rbt.Parameter_File>
/export/apps/rDock/src/rDock_2013.1_src/data/scripts/dock_solv.prm

>  <Rbt.Receptor>
prm/pocket_docking_7.prm

>  <SCORE>
-5.04258

>  <SCORE.INTER>
-5.04258

>  <SCORE.INTER.CONST>
1

>  <SCORE.INTER.POLAR>
0

>  <SCORE.INTER.ROT>
0

>  <SCORE.INTER.SOLV>
1.64061

>  <SCORE.INTER.VDW>
-7.50859

>  <SCORE.INTER.norm>
-1.26064

>  <SCORE.INTRA>
0

>  <SCORE.INTRA.DIHEDRAL>
0

>  <SCORE.INTRA.DIHEDRAL.0>
0

>  <SCORE.INTRA.POLAR>
0

>  <SCORE.INTRA.POLAR.0>
0

>  <SCORE.INTRA.REPUL>
0

>  <SCORE.INTRA.REPUL.0>
0

>  <SCORE.INTRA.SOLV>
0

>  <SCORE.INTRA.SOLV.lig_0>
0.449748

>  <SCORE.INTRA.VDW>
0

>  <SCORE.INTRA.VDW.0>
0

>  <SCORE.INTRA.norm>
0

>  <SCORE.RESTR>
0

>  <SCORE.RESTR.CAVITY>
0

>  <SCORE.RESTR.norm>
0

>  <SCORE.SYSTEM>
0

>  <SCORE.SYSTEM.CONST>
0

>  <SCORE.SYSTEM.DIHEDRAL>
0

>  <SCORE.SYSTEM.SOLV>
0

>  <SCORE.SYSTEM.norm>
0

>  <SCORE.heavy>
4

>  <SCORE.norm>
-1.26064

>  <RMSD>
2.094

$$$$
ligand
 OpenBabel11021811493D
libRbt.so/2013.1/901 2013/11/27
  4  3  0  0  0  0  0  0  0  0999 V2000
   36.4687   18.9519    8.6230 C   0  0  0  0  0  0  0  0  0  0  0  0
   36.3195   19.9291    7.8566 O   0  0  0  0  0  0  0  0  0  0  0  0
   36.4934   19.2597   10.1144 C   0  0  0  0  0  0  0  0  0  0  0  0
   36.6093   17.6894    8.3075 O   0  0  0  0  0  0  0  0  0  0  0  0
  1  2  1  0  0  0  0
  1  3  1  0  0  0  0
  1  4  1  0  0  0  0
M  END
>  <CHROM.1>
36.47265098,18.95297553,8.70957876,1.37187239,1.44360958,-1.89811368

>  <Name>
ligand

>  <RI>
0

>  <Rbt.Current_Directory>
/home/itssahil/PROJECTS/Mol_Feturizer/New_Systems/rnas/4FEN

>  <Rbt.Executable>
rbdock ($Id: //depot/dev/client3/rdock/2013.1/src/exe/rbdock.cxx#4 $)

>  <Rbt.Library>
libRbt.so (2013.1, Build901 2013/11/27)

>  <Rbt.Parameter_File>
/export/apps/rDock/src/rDock_2013.1_src/data/scripts/dock_solv.prm

>  <Rbt.Receptor>
prm/pocket_docking_7.prm

>  <SCORE>
-5.05233

>  <SCORE.INTER>
-5.05233

>  <SCORE.INTER.CONST>
1

>  <SCORE.INTER.POLAR>
0

>  <SCORE.INTER.ROT>
0

>  <SCORE.INTER.SOLV>
1.62614

>  <SCORE.INTER.VDW>
-7.51026

>  <SCORE.INTER.norm>
-1.26308

>  <SCORE.INTRA>
0

>  <SCORE.INTRA.DIHEDRAL>
0

>  <SCORE.INTRA.DIHEDRAL.0>
0

>  <SCORE.INTRA.POLAR>
0

>  <SCORE.INTRA.POLAR.0>
0

>  <SCORE.INTRA.REPUL>
0

>  <SCORE.INTRA.REPUL.0>
0

>  <SCORE.INTRA.SOLV>
0

>  <SCORE.INTRA.SOLV.lig_0>
0.449748

>  <SCORE.INTRA.VDW>
0

>  <SCORE.INTRA.VDW.0>
0

>  <SCORE.INTRA.norm>
0

>  <SCORE.RESTR>
0

>  <SCORE.RESTR.CAVITY>
0

>  <SCORE.RESTR.norm>
0

>  <SCORE.SYSTEM>
0

>  <SCORE.SYSTEM.CONST>
0

>  <SCORE.SYSTEM.DIHEDRAL>
0

>  <SCORE.SYSTEM.SOLV>
0

>  <SCORE.SYSTEM.norm>
0

>  <SCORE.heavy>
4

>  <SCORE.norm>
-1.26308

>  <RMSD>
2.094

$$$$
ligand
 OpenBabel11021811493D
libRbt.so/2013.1/901 2013/11/27
  4  3  0  0  0  0  0  0  0  0999 V2000
   36.4658   18.9600    8.6022 C   0  0  0  0  0  0  0  0  0  0  0  0
   36.6057   17.7610    8.2742 O   0  0  0  0  0  0  0  0  0  0  0  0
   36.4807   19.2585   10.0956 C   0  0  0  0  0  0  0  0  0  0  0  0
   36.3049   19.9992    7.8229 O   0  0  0  0  0  0  0  0  0  0  0  0
  1  2  1  0  0  0  0
  1  3  1  0  0  0  0
  1  4  1  0  0  0  0
M  END
>  <CHROM.1>
36.46391291,18.99271253,8.68241259,-1.97307094,-1.43943721,1.29551017

>  <Name>
ligand

>  <RI>
0

>  <Rbt.Current_Directory>
/home/itssahil/PROJECTS/Mol_Feturizer/New_Systems/rnas/4FEN

>  <Rbt.Executable>
rbdock ($Id: //depot/dev/client3/rdock/2013.1/src/exe/rbdock.cxx#4 $)

>  <Rbt.Library>
libRbt.so (2013.1, Build901 2013/11/27)

>  <Rbt.Parameter_File>
/export/apps/rDock/src/rDock_2013.1_src/data/scripts/dock_solv.prm

>  <Rbt.Receptor>
prm/pocket_docking_8.prm

>  <SCORE>
-5.03226

>  <SCORE.INTER>
-5.03226

>  <SCORE.INTER.CONST>
1

>  <SCORE.INTER.POLAR>
0

>  <SCORE.INTER.ROT>
0

>  <SCORE.INTER.SOLV>
1.64726

>  <SCORE.INTER.VDW>
-7.50393

>  <SCORE.INTER.norm>
-1.25806

>  <SCORE.INTRA>
0

>  <SCORE.INTRA.DIHEDRAL>
0

>  <SCORE.INTRA.DIHEDRAL.0>
0

>  <SCORE.INTRA.POLAR>
0

>  <SCORE.INTRA.POLAR.0>
0

>  <SCORE.INTRA.REPUL>
0

>  <SCORE.INTRA.REPUL.0>
0

>  <SCORE.INTRA.SOLV>
0

>  <SCORE.INTRA.SOLV.lig_0>
0.449748

>  <SCORE.INTRA.VDW>
0

>  <SCORE.INTRA.VDW.0>
0

>  <SCORE.INTRA.norm>
0

>  <SCORE.RESTR>
0

>  <SCORE.RESTR.CAVITY>
0

>  <SCORE.RESTR.norm>
0

>  <SCORE.SYSTEM>
0

>  <SCORE.SYSTEM.CONST>
0

>  <SCORE.SYSTEM.DIHEDRAL>
0

>  <SCORE.SYSTEM.SOLV>
0

>  <SCORE.SYSTEM.norm>
0

>  <SCORE.heavy>
4

>  <SCORE.norm>
-1.25806

>  <RMSD>
2.095

$$$$
ligand
 OpenBabel11021811493D
libRbt.so/2013.1/901 2013/11/27
  4  3  0  0  0  0  0  0  0  0999 V2000
   36.4649   18.9527    8.6182 C   0  0  0  0  0  0  0  0  0  0  0  0
   36.3166   19.9322    7.8545 O   0  0  0  0  0  0  0  0  0  0  0  0
   36.5121   19.2588   10.1093 C   0  0  0  0  0  0  0  0  0  0  0  0
   36.5878   17.6890    8.2998 O   0  0  0  0  0  0  0  0  0  0  0  0
  1  2  1  0  0  0  0
  1  3  1  0  0  0  0
  1  4  1  0  0  0  0
M  END
>  <CHROM.1>
36.47005279,18.95364248,8.70465110,1.50069390,1.44871434,-2.02504068

>  <Name>
ligand

>  <RI>
0

>  <Rbt.Current_Directory>
/home/itssahil/PROJECTS/Mol_Feturizer/New_Systems/rnas/4FEN

>  <Rbt.Executable>
rbdock ($Id: //depot/dev/client3/rdock/2013.1/src/exe/rbdock.cxx#4 $)

>  <Rbt.Library>
libRbt.so (2013.1, Build901 2013/11/27)

>  <Rbt.Parameter_File>
/export/apps/rDock/src/rDock_2013.1_src/data/scripts/dock_solv.prm

>  <Rbt.Receptor>
prm/pocket_docking_7.prm

>  <SCORE>
-5.04635

>  <SCORE.INTER>
-5.04635

>  <SCORE.INTER.CONST>
1

>  <SCORE.INTER.POLAR>
0

>  <SCORE.INTER.ROT>
0

>  <SCORE.INTER.SOLV>
1.63875

>  <SCORE.INTER.VDW>
-7.51049

>  <SCORE.INTER.norm>
-1.26159

>  <SCORE.INTRA>
0

>  <SCORE.INTRA.DIHEDRAL>
0

>  <SCORE.INTRA.DIHEDRAL.0>
0

>  <SCORE.INTRA.POLAR>
0

>  <SCORE.INTRA.POLAR.0>
0

>  <SCORE.INTRA.REPUL>
0

>  <SCORE.INTRA.REPUL.0>
0

>  <SCORE.INTRA.SOLV>
0

>  <SCORE.INTRA.SOLV.lig_0>
0.449748

>  <SCORE.INTRA.VDW>
0

>  <SCORE.INTRA.VDW.0>
0

>  <SCORE.INTRA.norm>
0

>  <SCORE.RESTR>
0

>  <SCORE.RESTR.CAVITY>
0

>  <SCORE.RESTR.norm>
0

>  <SCORE.SYSTEM>
0

>  <SCORE.SYSTEM.CONST>
0

>  <SCORE.SYSTEM.DIHEDRAL>
0

>  <SCORE.SYSTEM.SOLV>
0

>  <SCORE.SYSTEM.norm>
0

>  <SCORE.heavy>
4

>  <SCORE.norm>
-1.26159

>  <RMSD>
2.096

$$$$
ligand
 OpenBabel11021811493D
libRbt.so/2013.1/901 2013/11/27
  4  3  0  0  0  0  0  0  0  0999 V2000
   36.4546   18.9885    8.5934 C   0  0  0  0  0  0  0  0  0  0  0  0
   36.2640   19.9816    7.8570 O   0  0  0  0  0  0  0  0  0  0  0  0
   36.4727   19.2525   10.0932 C   0  0  0  0  0  0  0  0  0  0  0  0
   36.6440   17.7426    8.2397 O   0  0  0  0  0  0  0  0  0  0  0  0
  1  2  1  0  0  0  0
  1  3  1  0  0  0  0
  1  4  1  0  0  0  0
M  END
>  <CHROM.1>
36.45886279,18.98722555,8.67990192,1.31631127,1.40460368,-1.81320823

>  <Name>
ligand

>  <RI>
0

>  <Rbt.Current_Directory>
/home/itssahil/PROJECTS/Mol_Feturizer/New_Systems/rnas/4FEN

>  <Rbt.Executable>
rbdock ($Id: //depot/dev/client3/rdock/2013.1/src/exe/rbdock.cxx#4 $)

>  <Rbt.Library>
libRbt.so (2013.1, Build901 2013/11/27)

>  <Rbt.Parameter_File>
/export/apps/rDock/src/rDock_2013.1_src/data/scripts/dock_solv.prm

>  <Rbt.Receptor>
prm/pocket_docking_8.prm

>  <SCORE>
-5.01557

>  <SCORE.INTER>
-5.01557

>  <SCORE.INTER.CONST>
1

>  <SCORE.INTER.POLAR>
0

>  <SCORE.INTER.ROT>
0

>  <SCORE.INTER.SOLV>
1.65311

>  <SCORE.INTER.VDW>
-7.49475

>  <SCORE.INTER.norm>
-1.25389

>  <SCORE.INTRA>
0

>  <SCORE.INTRA.DIHEDRAL>
0

>  <SCORE.INTRA.DIHEDRAL.0>
0

>  <SCORE.INTRA.POLAR>
0

>  <SCORE.INTRA.POLAR.0>
0

>  <SCORE.INTRA.REPUL>
0

>  <SCORE.INTRA.REPUL.0>
0

>  <SCORE.INTRA.SOLV>
0

>  <SCORE.INTRA.SOLV.lig_0>
0.449748

>  <SCORE.INTRA.VDW>
0

>  <SCORE.INTRA.VDW.0>
0

>  <SCORE.INTRA.norm>
0

>  <SCORE.RESTR>
0

>  <SCORE.RESTR.CAVITY>
0

>  <SCORE.RESTR.norm>
0

>  <SCORE.SYSTEM>
0

>  <SCORE.SYSTEM.CONST>
0

>  <SCORE.SYSTEM.DIHEDRAL>
0

>  <SCORE.SYSTEM.SOLV>
0

>  <SCORE.SYSTEM.norm>
0

>  <SCORE.heavy>
4

>  <SCORE.norm>
-1.25389

>  <RMSD>
2.096

$$$$
ligand
 OpenBabel11021811493D
libRbt.so/2013.1/901 2013/11/27
  4  3  0  0  0  0  0  0  0  0999 V2000
   36.4482   18.9996    8.5815 C   0  0  0  0  0  0  0  0  0  0  0  0
   36.3139   20.0017    7.8451 O   0  0  0  0  0  0  0  0  0  0  0  0
   36.4725   19.2612   10.0816 C   0  0  0  0  0  0  0  0  0  0  0  0
   36.5733   17.7456    8.2277 O   0  0  0  0  0  0  0  0  0  0  0  0
  1  2  1  0  0  0  0
  1  3  1  0  0  0  0
  1  4  1  0  0  0  0
M  END
>  <CHROM.1>
36.45190468,18.99796116,8.66806718,1.38400812,1.45679964,-1.87949818

>  <Name>
ligand

>  <RI>
0

>  <Rbt.Current_Directory>
/home/itssahil/PROJECTS/Mol_Feturizer/New_Systems/rnas/4FEN

>  <Rbt.Executable>
rbdock ($Id: //depot/dev/client3/rdock/2013.1/src/exe/rbdock.cxx#4 $)

>  <Rbt.Library>
libRbt.so (2013.1, Build901 2013/11/27)

>  <Rbt.Parameter_File>
/export/apps/rDock/src/rDock_2013.1_src/data/scripts/dock_solv.prm

>  <Rbt.Receptor>
prm/pocket_docking_5.prm

>  <SCORE>
-5.01066

>  <SCORE.INTER>
-5.01066

>  <SCORE.INTER.CONST>
1

>  <SCORE.INTER.POLAR>
0

>  <SCORE.INTER.ROT>
0

>  <SCORE.INTER.SOLV>
1.66373

>  <SCORE.INTER.VDW>
-7.49501

>  <SCORE.INTER.norm>
-1.25266

>  <SCORE.INTRA>
0

>  <SCORE.INTRA.DIHEDRAL>
0

>  <SCORE.INTRA.DIHEDRAL.0>
0

>  <SCORE.INTRA.POLAR>
0

>  <SCORE.INTRA.POLAR.0>
0

>  <SCORE.INTRA.REPUL>
0

>  <SCORE.INTRA.REPUL.0>
0

>  <SCORE.INTRA.SOLV>
0

>  <SCORE.INTRA.SOLV.lig_0>
0.449748

>  <SCORE.INTRA.VDW>
0

>  <SCORE.INTRA.VDW.0>
0

>  <SCORE.INTRA.norm>
0

>  <SCORE.RESTR>
0

>  <SCORE.RESTR.CAVITY>
0

>  <SCORE.RESTR.norm>
0

>  <SCORE.SYSTEM>
0

>  <SCORE.SYSTEM.CONST>
0

>  <SCORE.SYSTEM.DIHEDRAL>
0

>  <SCORE.SYSTEM.SOLV>
0

>  <SCORE.SYSTEM.norm>
0

>  <SCORE.heavy>
4

>  <SCORE.norm>
-1.25266

>  <RMSD>
2.097

$$$$
ligand
 OpenBabel11021811493D
libRbt.so/2013.1/901 2013/11/27
  4  3  0  0  0  0  0  0  0  0999 V2000
   36.4447   18.9922    8.5841 C   0  0  0  0  0  0  0  0  0  0  0  0
   36.2877   19.9941    7.8517 O   0  0  0  0  0  0  0  0  0  0  0  0
   36.4608   19.2478   10.0853 C   0  0  0  0  0  0  0  0  0  0  0  0
   36.6001   17.7431    8.2250 O   0  0  0  0  0  0  0  0  0  0  0  0
  1  2  1  0  0  0  0
  1  3  1  0  0  0  0
  1  4  1  0  0  0  0
M  END
>  <CHROM.1>
36.44833372,18.99030527,8.67058774,1.32159934,1.43431792,-1.81323571

>  <Name>
ligand

>  <RI>
0

>  <Rbt.Current_Directory>
/home/itssahil/PROJECTS/Mol_Feturizer/New_Systems/rnas/4FEN

>  <Rbt.Executable>
rbdock ($Id: //depot/dev/client3/rdock/2013.1/src/exe/rbdock.cxx#4 $)

>  <Rbt.Library>
libRbt.so (2013.1, Build901 2013/11/27)

>  <Rbt.Parameter_File>
/export/apps/rDock/src/rDock_2013.1_src/data/scripts/dock_solv.prm

>  <Rbt.Receptor>
prm/pocket_docking_5.prm

>  <SCORE>
-5.00615

>  <SCORE.INTER>
-5.00622

>  <SCORE.INTER.CONST>
1

>  <SCORE.INTER.POLAR>
0

>  <SCORE.INTER.ROT>
0

>  <SCORE.INTER.SOLV>
1.65819

>  <SCORE.INTER.VDW>
-7.49021

>  <SCORE.INTER.norm>
-1.25155

>  <SCORE.INTRA>
0

>  <SCORE.INTRA.DIHEDRAL>
0

>  <SCORE.INTRA.DIHEDRAL.0>
0

>  <SCORE.INTRA.POLAR>
0

>  <SCORE.INTRA.POLAR.0>
0

>  <SCORE.INTRA.REPUL>
0

>  <SCORE.INTRA.REPUL.0>
0

>  <SCORE.INTRA.SOLV>
0

>  <SCORE.INTRA.SOLV.lig_0>
0.449748

>  <SCORE.INTRA.VDW>
0

>  <SCORE.INTRA.VDW.0>
0

>  <SCORE.INTRA.norm>
0

>  <SCORE.RESTR>
6.22284e-05

>  <SCORE.RESTR.CAVITY>
6.22284e-05

>  <SCORE.RESTR.norm>
1.55571e-05

>  <SCORE.SYSTEM>
0

>  <SCORE.SYSTEM.CONST>
0

>  <SCORE.SYSTEM.DIHEDRAL>
0

>  <SCORE.SYSTEM.SOLV>
0

>  <SCORE.SYSTEM.norm>
0

>  <SCORE.heavy>
4

>  <SCORE.norm>
-1.25154

>  <RMSD>
2.097

$$$$
ligand
 OpenBabel11021811493D
libRbt.so/2013.1/901 2013/11/27
  4  3  0  0  0  0  0  0  0  0999 V2000
   36.4540   18.9509    8.6183 C   0  0  0  0  0  0  0  0  0  0  0  0
   36.2761   19.9213    7.8493 O   0  0  0  0  0  0  0  0  0  0  0  0
   36.4977   19.2673   10.1074 C   0  0  0  0  0  0  0  0  0  0  0  0
   36.6108   17.6892    8.3071 O   0  0  0  0  0  0  0  0  0  0  0  0
  1  2  1  0  0  0  0
  1  3  1  0  0  0  0
  1  4  1  0  0  0  0
M  END
>  <CHROM.1>
36.45941130,18.95254406,8.70476158,1.43875353,1.42214888,-1.96974800

>  <Name>
ligand

>  <RI>
0

>  <Rbt.Current_Directory>
/home/itssahil/PROJECTS/Mol_Feturizer/New_Systems/rnas/4FEN

>  <Rbt.Executable>
rbdock ($Id: //depot/dev/client3/rdock/2013.1/src/exe/rbdock.cxx#4 $)

>  <Rbt.Library>
libRbt.so (2013.1, Build901 2013/11/27)

>  <Rbt.Parameter_File>
/export/apps/rDock/src/rDock_2013.1_src/data/scripts/dock_solv.prm

>  <Rbt.Receptor>
prm/pocket_docking_4.prm

>  <SCORE>
-5.03636

>  <SCORE.INTER>
-5.03636

>  <SCORE.INTER.CONST>
1

>  <SCORE.INTER.POLAR>
0

>  <SCORE.INTER.ROT>
0

>  <SCORE.INTER.SOLV>
1.63718

>  <SCORE.INTER.VDW>
-7.5033

>  <SCORE.INTER.norm>
-1.25909

>  <SCORE.INTRA>
0

>  <SCORE.INTRA.DIHEDRAL>
0

>  <SCORE.INTRA.DIHEDRAL.0>
0

>  <SCORE.INTRA.POLAR>
0

>  <SCORE.INTRA.POLAR.0>
0

>  <SCORE.INTRA.REPUL>
0

>  <SCORE.INTRA.REPUL.0>
0

>  <SCORE.INTRA.SOLV>
0

>  <SCORE.INTRA.SOLV.lig_0>
0.449748

>  <SCORE.INTRA.VDW>
0

>  <SCORE.INTRA.VDW.0>
0

>  <SCORE.INTRA.norm>
0

>  <SCORE.RESTR>
0

>  <SCORE.RESTR.CAVITY>
0

>  <SCORE.RESTR.norm>
0

>  <SCORE.SYSTEM>
0

>  <SCORE.SYSTEM.CONST>
0

>  <SCORE.SYSTEM.DIHEDRAL>
0

>  <SCORE.SYSTEM.SOLV>
0

>  <SCORE.SYSTEM.norm>
0

>  <SCORE.heavy>
4

>  <SCORE.norm>
-1.25909

>  <RMSD>
2.098

$$$$
ligand
 OpenBabel11021811493D
libRbt.so/2013.1/901 2013/11/27
  4  3  0  0  0  0  0  0  0  0999 V2000
   36.4705   18.9482    8.6224 C   0  0  0  0  0  0  0  0  0  0  0  0
   36.3076   19.9214    7.8536 O   0  0  0  0  0  0  0  0  0  0  0  0
   36.4991   19.2611   10.1126 C   0  0  0  0  0  0  0  0  0  0  0  0
   36.6228   17.6862    8.3101 O   0  0  0  0  0  0  0  0  0  0  0  0
  1  2  1  0  0  0  0
  1  3  1  0  0  0  0
  1  4  1  0  0  0  0
M  END
>  <CHROM.1>
36.47488707,18.94962822,8.70888562,1.38014750,1.43220068,-1.90950864

>  <Name>
ligand

>  <RI>
0

>  <Rbt.Current_Directory>
/home/itssahil/PROJECTS/Mol_Feturizer/New_Systems/rnas/4FEN

>  <Rbt.Executable>
rbdock ($Id: //depot/dev/client3/rdock/2013.1/src/exe/rbdock.cxx#4 $)

>  <Rbt.Library>
libRbt.so (2013.1, Build901 2013/11/27)

>  <Rbt.Parameter_File>
/export/apps/rDock/src/rDock_2013.1_src/data/scripts/dock_solv.prm

>  <Rbt.Receptor>
prm/pocket_docking_4.prm

>  <SCORE>
-5.05598

>  <SCORE.INTER>
-5.05598

>  <SCORE.INTER.CONST>
1

>  <SCORE.INTER.POLAR>
0

>  <SCORE.INTER.ROT>
0

>  <SCORE.INTER.SOLV>
1.6286

>  <SCORE.INTER.VDW>
-7.51352

>  <SCORE.INTER.norm>
-1.26399

>  <SCORE.INTRA>
0

>  <SCORE.INTRA.DIHEDRAL>
0

>  <SCORE.INTRA.DIHEDRAL.0>
0

>  <SCORE.INTRA.POLAR>
0

>  <SCORE.INTRA.POLAR.0>
0

>  <SCORE.INTRA.REPUL>
0

>  <SCORE.INTRA.REPUL.0>
0

>  <SCORE.INTRA.SOLV>
0

>  <SCORE.INTRA.SOLV.lig_0>
0.449748

>  <SCORE.INTRA.VDW>
0

>  <SCORE.INTRA.VDW.0>
0

>  <SCORE.INTRA.norm>
0

>  <SCORE.RESTR>
0

>  <SCORE.RESTR.CAVITY>
0

>  <SCORE.RESTR.norm>
0

>  <SCORE.SYSTEM>
0

>  <SCORE.SYSTEM.CONST>
0

>  <SCORE.SYSTEM.DIHEDRAL>
0

>  <SCORE.SYSTEM.SOLV>
0

>  <SCORE.SYSTEM.norm>
0

>  <SCORE.heavy>
4

>  <SCORE.norm>
-1.26399

>  <RMSD>
2.098

$$$$
ligand
 OpenBabel11021811493D
libRbt.so/2013.1/901 2013/11/27
  4  3  0  0  0  0  0  0  0  0999 V2000
   36.4642   18.9536    8.5983 C   0  0  0  0  0  0  0  0  0  0  0  0
   36.6147   17.7587    8.2600 O   0  0  0  0  0  0  0  0  0  0  0  0
   36.4540   19.2364   10.0948 C   0  0  0  0  0  0  0  0  0  0  0  0
   36.3114   20.0003    7.8275 O   0  0  0  0  0  0  0  0  0  0  0  0
  1  2  1  0  0  0  0
  1  3  1  0  0  0  0
  1  4  1  0  0  0  0
M  END
>  <CHROM.1>
36.46095112,18.98544780,8.67880578,-1.84670582,-1.43853892,1.43132943

>  <Name>
ligand

>  <RI>
0

>  <Rbt.Current_Directory>
/home/itssahil/PROJECTS/Mol_Feturizer/New_Systems/rnas/4FEN

>  <Rbt.Executable>
rbdock ($Id: //depot/dev/client3/rdock/2013.1/src/exe/rbdock.cxx#4 $)

>  <Rbt.Library>
libRbt.so (2013.1, Build901 2013/11/27)

>  <Rbt.Parameter_File>
/export/apps/rDock/src/rDock_2013.1_src/data/scripts/dock_solv.prm

>  <Rbt.Receptor>
prm/pocket_docking_8.prm

>  <SCORE>
-5.02851

>  <SCORE.INTER>
-5.02851

>  <SCORE.INTER.CONST>
1

>  <SCORE.INTER.POLAR>
0

>  <SCORE.INTER.ROT>
0

>  <SCORE.INTER.SOLV>
1.63954

>  <SCORE.INTER.VDW>
-7.49885

>  <SCORE.INTER.norm>
-1.25713

>  <SCORE.INTRA>
0

>  <SCORE.INTRA.DIHEDRAL>
0

>  <SCORE.INTRA.DIHEDRAL.0>
0

>  <SCORE.INTRA.POLAR>
0

>  <SCORE.INTRA.POLAR.0>
0

>  <SCORE.INTRA.REPUL>
0

>  <SCORE.INTRA.REPUL.0>
0

>  <SCORE.INTRA.SOLV>
0

>  <SCORE.INTRA.SOLV.lig_0>
0.449748

>  <SCORE.INTRA.VDW>
0

>  <SCORE.INTRA.VDW.0>
0

>  <SCORE.INTRA.norm>
0

>  <SCORE.RESTR>
0

>  <SCORE.RESTR.CAVITY>
0

>  <SCORE.RESTR.norm>
0

>  <SCORE.SYSTEM>
0

>  <SCORE.SYSTEM.CONST>
0

>  <SCORE.SYSTEM.DIHEDRAL>
0

>  <SCORE.SYSTEM.SOLV>
0

>  <SCORE.SYSTEM.norm>
0

>  <SCORE.heavy>
4

>  <SCORE.norm>
-1.25713

>  <RMSD>
2.098

$$$$
ligand
 OpenBabel11021811493D
libRbt.so/2013.1/901 2013/11/27
  4  3  0  0  0  0  0  0  0  0999 V2000
   36.4527   18.9867    8.5860 C   0  0  0  0  0  0  0  0  0  0  0  0
   36.3243   19.9883    7.8476 O   0  0  0  0  0  0  0  0  0  0  0  0
   36.4622   19.2493   10.0861 C   0  0  0  0  0  0  0  0  0  0  0  0
   36.5829   17.7327    8.2341 O   0  0  0  0  0  0  0  0  0  0  0  0
  1  2  1  0  0  0  0
  1  3  1  0  0  0  0
  1  4  1  0  0  0  0
M  END
>  <CHROM.1>
36.45562736,18.98519193,8.67252896,1.29856090,1.45811370,-1.79520258

>  <Name>
ligand

>  <RI>
0

>  <Rbt.Current_Directory>
/home/itssahil/PROJECTS/Mol_Feturizer/New_Systems/rnas/4FEN

>  <Rbt.Executable>
rbdock ($Id: //depot/dev/client3/rdock/2013.1/src/exe/rbdock.cxx#4 $)

>  <Rbt.Library>
libRbt.so (2013.1, Build901 2013/11/27)

>  <Rbt.Parameter_File>
/export/apps/rDock/src/rDock_2013.1_src/data/scripts/dock_solv.prm

>  <Rbt.Receptor>
prm/blind_docking_80.prm

>  <SCORE>
-5.00969

>  <SCORE.INTER>
-5.00969

>  <SCORE.INTER.CONST>
1

>  <SCORE.INTER.POLAR>
0

>  <SCORE.INTER.ROT>
0

>  <SCORE.INTER.SOLV>
1.65348

>  <SCORE.INTER.VDW>
-7.49095

>  <SCORE.INTER.norm>
-1.25242

>  <SCORE.INTRA>
0

>  <SCORE.INTRA.DIHEDRAL>
0

>  <SCORE.INTRA.DIHEDRAL.0>
0

>  <SCORE.INTRA.POLAR>
0

>  <SCORE.INTRA.POLAR.0>
0

>  <SCORE.INTRA.REPUL>
0

>  <SCORE.INTRA.REPUL.0>
0

>  <SCORE.INTRA.SOLV>
0

>  <SCORE.INTRA.SOLV.lig_0>
0.449748

>  <SCORE.INTRA.VDW>
0

>  <SCORE.INTRA.VDW.0>
0

>  <SCORE.INTRA.norm>
0

>  <SCORE.RESTR>
0

>  <SCORE.RESTR.CAVITY>
0

>  <SCORE.RESTR.norm>
0

>  <SCORE.SYSTEM>
0

>  <SCORE.SYSTEM.CONST>
0

>  <SCORE.SYSTEM.DIHEDRAL>
0

>  <SCORE.SYSTEM.SOLV>
0

>  <SCORE.SYSTEM.norm>
0

>  <SCORE.heavy>
4

>  <SCORE.norm>
-1.25242

>  <RMSD>
2.099

$$$$
ligand
 OpenBabel11021811493D
libRbt.so/2013.1/901 2013/11/27
  4  3  0  0  0  0  0  0  0  0999 V2000
   36.4642   18.9481    8.6194 C   0  0  0  0  0  0  0  0  0  0  0  0
   36.3092   19.9207    7.8482 O   0  0  0  0  0  0  0  0  0  0  0  0
   36.4991   19.2649   10.1086 C   0  0  0  0  0  0  0  0  0  0  0  0
   36.6033   17.6839    8.3103 O   0  0  0  0  0  0  0  0  0  0  0  0
  1  2  1  0  0  0  0
  1  3  1  0  0  0  0
  1  4  1  0  0  0  0
M  END
>  <CHROM.1>
36.46876721,18.94974828,8.70585444,1.42128732,1.44066908,-1.95307227

>  <Name>
ligand

>  <RI>
0

>  <Rbt.Current_Directory>
/home/itssahil/PROJECTS/Mol_Feturizer/New_Systems/rnas/4FEN

>  <Rbt.Executable>
rbdock ($Id: //depot/dev/client3/rdock/2013.1/src/exe/rbdock.cxx#4 $)

>  <Rbt.Library>
libRbt.so (2013.1, Build901 2013/11/27)

>  <Rbt.Parameter_File>
/export/apps/rDock/src/rDock_2013.1_src/data/scripts/dock_solv.prm

>  <Rbt.Receptor>
prm/pocket_docking_4.prm

>  <SCORE>
-5.0528

>  <SCORE.INTER>
-5.0528

>  <SCORE.INTER.CONST>
1

>  <SCORE.INTER.POLAR>
0

>  <SCORE.INTER.ROT>
0

>  <SCORE.INTER.SOLV>
1.63258

>  <SCORE.INTER.VDW>
-7.51273

>  <SCORE.INTER.norm>
-1.2632

>  <SCORE.INTRA>
0

>  <SCORE.INTRA.DIHEDRAL>
0

>  <SCORE.INTRA.DIHEDRAL.0>
0

>  <SCORE.INTRA.POLAR>
0

>  <SCORE.INTRA.POLAR.0>
0

>  <SCORE.INTRA.REPUL>
0

>  <SCORE.INTRA.REPUL.0>
0

>  <SCORE.INTRA.SOLV>
0

>  <SCORE.INTRA.SOLV.lig_0>
0.449748

>  <SCORE.INTRA.VDW>
0

>  <SCORE.INTRA.VDW.0>
0

>  <SCORE.INTRA.norm>
0

>  <SCORE.RESTR>
0

>  <SCORE.RESTR.CAVITY>
0

>  <SCORE.RESTR.norm>
0

>  <SCORE.SYSTEM>
0

>  <SCORE.SYSTEM.CONST>
0

>  <SCORE.SYSTEM.DIHEDRAL>
0

>  <SCORE.SYSTEM.SOLV>
0

>  <SCORE.SYSTEM.norm>
0

>  <SCORE.heavy>
4

>  <SCORE.norm>
-1.2632

>  <RMSD>
2.099

$$$$
ligand
 OpenBabel11021811493D
libRbt.so/2013.1/901 2013/11/27
  4  3  0  0  0  0  0  0  0  0999 V2000
   36.4621   18.9656    8.5913 C   0  0  0  0  0  0  0  0  0  0  0  0
   36.6121   17.7707    8.2532 O   0  0  0  0  0  0  0  0  0  0  0  0
   36.4691   19.2511   10.0873 C   0  0  0  0  0  0  0  0  0  0  0  0
   36.2967   20.0106    7.8206 O   0  0  0  0  0  0  0  0  0  0  0  0
  1  2  1  0  0  0  0
  1  3  1  0  0  0  0
  1  4  1  0  0  0  0
M  END
>  <CHROM.1>
36.45970370,18.99766282,8.67177395,-1.93145195,-1.43334510,1.34560663

>  <Name>
ligand

>  <RI>
0

>  <Rbt.Current_Directory>
/home/itssahil/PROJECTS/Mol_Feturizer/New_Systems/rnas/4FEN

>  <Rbt.Executable>
rbdock ($Id: //depot/dev/client3/rdock/2013.1/src/exe/rbdock.cxx#4 $)

>  <Rbt.Library>
libRbt.so (2013.1, Build901 2013/11/27)

>  <Rbt.Parameter_File>
/export/apps/rDock/src/rDock_2013.1_src/data/scripts/dock_solv.prm

>  <Rbt.Receptor>
prm/pocket_docking_8.prm

>  <SCORE>
-5.03114

>  <SCORE.INTER>
-5.03114

>  <SCORE.INTER.CONST>
1

>  <SCORE.INTER.POLAR>
0

>  <SCORE.INTER.ROT>
0

>  <SCORE.INTER.SOLV>
1.65344

>  <SCORE.INTER.VDW>
-7.50524

>  <SCORE.INTER.norm>
-1.25779

>  <SCORE.INTRA>
0

>  <SCORE.INTRA.DIHEDRAL>
0

>  <SCORE.INTRA.DIHEDRAL.0>
0

>  <SCORE.INTRA.POLAR>
0

>  <SCORE.INTRA.POLAR.0>
0

>  <SCORE.INTRA.REPUL>
0

>  <SCORE.INTRA.REPUL.0>
0

>  <SCORE.INTRA.SOLV>
0

>  <SCORE.INTRA.SOLV.lig_0>
0.449748

>  <SCORE.INTRA.VDW>
0

>  <SCORE.INTRA.VDW.0>
0

>  <SCORE.INTRA.norm>
0

>  <SCORE.RESTR>
0

>  <SCORE.RESTR.CAVITY>
0

>  <SCORE.RESTR.norm>
0

>  <SCORE.SYSTEM>
0

>  <SCORE.SYSTEM.CONST>
0

>  <SCORE.SYSTEM.DIHEDRAL>
0

>  <SCORE.SYSTEM.SOLV>
0

>  <SCORE.SYSTEM.norm>
0

>  <SCORE.heavy>
4

>  <SCORE.norm>
-1.25779

>  <RMSD>
2.099

$$$$
ligand
 OpenBabel11021811493D
libRbt.so/2013.1/901 2013/11/27
  4  3  0  0  0  0  0  0  0  0999 V2000
   36.4087   18.9969    8.5773 C   0  0  0  0  0  0  0  0  0  0  0  0
   36.4299   19.9676    7.7887 O   0  0  0  0  0  0  0  0  0  0  0  0
   36.2656   19.3303   10.0564 C   0  0  0  0  0  0  0  0  0  0  0  0
   36.4962   17.7219    8.2945 O   0  0  0  0  0  0  0  0  0  0  0  0
  1  2  1  0  0  0  0
  1  3  1  0  0  0  0
  1  4  1  0  0  0  0
M  END
>  <CHROM.1>
36.40173463,18.99933330,8.66362343,-0.03007210,1.47201181,-0.51668142

>  <Name>
ligand

>  <RI>
0

>  <Rbt.Current_Directory>
/home/itssahil/PROJECTS/Mol_Feturizer/New_Systems/rnas/4FEN

>  <Rbt.Executable>
rbdock ($Id: //depot/dev/client3/rdock/2013.1/src/exe/rbdock.cxx#4 $)

>  <Rbt.Library>
libRbt.so (2013.1, Build901 2013/11/27)

>  <Rbt.Parameter_File>
/export/apps/rDock/src/rDock_2013.1_src/data/scripts/dock_solv.prm

>  <Rbt.Receptor>
prm/blind_docking_60.prm

>  <SCORE>
-4.84341

>  <SCORE.INTER>
-4.84341

>  <SCORE.INTER.CONST>
1

>  <SCORE.INTER.POLAR>
0

>  <SCORE.INTER.ROT>
0

>  <SCORE.INTER.SOLV>
1.58304

>  <SCORE.INTER.VDW>
-7.35662

>  <SCORE.INTER.norm>
-1.21085

>  <SCORE.INTRA>
0

>  <SCORE.INTRA.DIHEDRAL>
0

>  <SCORE.INTRA.DIHEDRAL.0>
0

>  <SCORE.INTRA.POLAR>
0

>  <SCORE.INTRA.POLAR.0>
0

>  <SCORE.INTRA.REPUL>
0

>  <SCORE.INTRA.REPUL.0>
0

>  <SCORE.INTRA.SOLV>
0

>  <SCORE.INTRA.SOLV.lig_0>
0.449748

>  <SCORE.INTRA.VDW>
0

>  <SCORE.INTRA.VDW.0>
0

>  <SCORE.INTRA.norm>
0

>  <SCORE.RESTR>
0

>  <SCORE.RESTR.CAVITY>
0

>  <SCORE.RESTR.norm>
0

>  <SCORE.SYSTEM>
0

>  <SCORE.SYSTEM.CONST>
0

>  <SCORE.SYSTEM.DIHEDRAL>
0

>  <SCORE.SYSTEM.SOLV>
0

>  <SCORE.SYSTEM.norm>
0

>  <SCORE.heavy>
4

>  <SCORE.norm>
-1.21085

>  <RMSD>
2.101

$$$$
ligand
 OpenBabel11021811493D
libRbt.so/2013.1/901 2013/11/27
  4  3  0  0  0  0  0  0  0  0999 V2000
   36.4633   18.9498    8.6176 C   0  0  0  0  0  0  0  0  0  0  0  0
   36.2781   19.9225    7.8532 O   0  0  0  0  0  0  0  0  0  0  0  0
   36.5417   19.2644   10.1056 C   0  0  0  0  0  0  0  0  0  0  0  0
   36.6015   17.6870    8.3022 O   0  0  0  0  0  0  0  0  0  0  0  0
  1  2  1  0  0  0  0
  1  3  1  0  0  0  0
  1  4  1  0  0  0  0
M  END
>  <CHROM.1>
36.47054460,18.95129093,8.70387795,1.59524712,1.42067170,-2.12369210

>  <Name>
ligand

>  <RI>
0

>  <Rbt.Current_Directory>
/home/itssahil/PROJECTS/Mol_Feturizer/New_Systems/rnas/4FEN

>  <Rbt.Executable>
rbdock ($Id: //depot/dev/client3/rdock/2013.1/src/exe/rbdock.cxx#4 $)

>  <Rbt.Library>
libRbt.so (2013.1, Build901 2013/11/27)

>  <Rbt.Parameter_File>
/export/apps/rDock/src/rDock_2013.1_src/data/scripts/dock_solv.prm

>  <Rbt.Receptor>
prm/pocket_docking_4.prm

>  <SCORE>
-5.02155

>  <SCORE.INTER>
-5.02155

>  <SCORE.INTER.CONST>
1

>  <SCORE.INTER.POLAR>
0

>  <SCORE.INTER.ROT>
0

>  <SCORE.INTER.SOLV>
1.65191

>  <SCORE.INTER.VDW>
-7.49833

>  <SCORE.INTER.norm>
-1.25539

>  <SCORE.INTRA>
0

>  <SCORE.INTRA.DIHEDRAL>
0

>  <SCORE.INTRA.DIHEDRAL.0>
0

>  <SCORE.INTRA.POLAR>
0

>  <SCORE.INTRA.POLAR.0>
0

>  <SCORE.INTRA.REPUL>
0

>  <SCORE.INTRA.REPUL.0>
0

>  <SCORE.INTRA.SOLV>
0

>  <SCORE.INTRA.SOLV.lig_0>
0.449748

>  <SCORE.INTRA.VDW>
0

>  <SCORE.INTRA.VDW.0>
0

>  <SCORE.INTRA.norm>
0

>  <SCORE.RESTR>
0

>  <SCORE.RESTR.CAVITY>
0

>  <SCORE.RESTR.norm>
0

>  <SCORE.SYSTEM>
0

>  <SCORE.SYSTEM.CONST>
0

>  <SCORE.SYSTEM.DIHEDRAL>
0

>  <SCORE.SYSTEM.SOLV>
0

>  <SCORE.SYSTEM.norm>
0

>  <SCORE.heavy>
4

>  <SCORE.norm>
-1.25539

>  <RMSD>
2.101

$$$$
ligand
 OpenBabel11021811493D
libRbt.so/2013.1/901 2013/11/27
  4  3  0  0  0  0  0  0  0  0999 V2000
   36.4600   18.9995    8.5794 C   0  0  0  0  0  0  0  0  0  0  0  0
   36.3126   20.0008    7.8442 O   0  0  0  0  0  0  0  0  0  0  0  0
   36.4678   19.2580   10.0803 C   0  0  0  0  0  0  0  0  0  0  0  0
   36.6117   17.7490    8.2237 O   0  0  0  0  0  0  0  0  0  0  0  0
  1  2  1  0  0  0  0
  1  3  1  0  0  0  0
  1  4  1  0  0  0  0
M  END
>  <CHROM.1>
36.46315158,18.99779587,8.66599979,1.28295987,1.44047203,-1.77683990

>  <Name>
ligand

>  <RI>
0

>  <Rbt.Current_Directory>
/home/itssahil/PROJECTS/Mol_Feturizer/New_Systems/rnas/4FEN

>  <Rbt.Executable>
rbdock ($Id: //depot/dev/client3/rdock/2013.1/src/exe/rbdock.cxx#4 $)

>  <Rbt.Library>
libRbt.so (2013.1, Build901 2013/11/27)

>  <Rbt.Parameter_File>
/export/apps/rDock/src/rDock_2013.1_src/data/scripts/dock_solv.prm

>  <Rbt.Receptor>
prm/pocket_docking_6.prm

>  <SCORE>
-5.02215

>  <SCORE.INTER>
-5.02215

>  <SCORE.INTER.CONST>
1

>  <SCORE.INTER.POLAR>
0

>  <SCORE.INTER.ROT>
0

>  <SCORE.INTER.SOLV>
1.66072

>  <SCORE.INTER.VDW>
-7.50167

>  <SCORE.INTER.norm>
-1.25554

>  <SCORE.INTRA>
0

>  <SCORE.INTRA.DIHEDRAL>
0

>  <SCORE.INTRA.DIHEDRAL.0>
0

>  <SCORE.INTRA.POLAR>
0

>  <SCORE.INTRA.POLAR.0>
0

>  <SCORE.INTRA.REPUL>
0

>  <SCORE.INTRA.REPUL.0>
0

>  <SCORE.INTRA.SOLV>
0

>  <SCORE.INTRA.SOLV.lig_0>
0.449748

>  <SCORE.INTRA.VDW>
0

>  <SCORE.INTRA.VDW.0>
0

>  <SCORE.INTRA.norm>
0

>  <SCORE.RESTR>
0

>  <SCORE.RESTR.CAVITY>
0

>  <SCORE.RESTR.norm>
0

>  <SCORE.SYSTEM>
0

>  <SCORE.SYSTEM.CONST>
0

>  <SCORE.SYSTEM.DIHEDRAL>
0

>  <SCORE.SYSTEM.SOLV>
0

>  <SCORE.SYSTEM.norm>
0

>  <SCORE.heavy>
4

>  <SCORE.norm>
-1.25554

>  <RMSD>
2.102

$$$$
ligand
 OpenBabel11021811493D
libRbt.so/2013.1/901 2013/11/27
  4  3  0  0  0  0  0  0  0  0999 V2000
   36.4767   18.9351    8.6155 C   0  0  0  0  0  0  0  0  0  0  0  0
   36.5480   17.7223    8.3175 O   0  0  0  0  0  0  0  0  0  0  0  0
   36.5285   19.2708   10.1001 C   0  0  0  0  0  0  0  0  0  0  0  0
   36.3606   19.9611    7.8111 O   0  0  0  0  0  0  0  0  0  0  0  0
  1  2  1  0  0  0  0
  1  3  1  0  0  0  0
  1  4  1  0  0  0  0
M  END
>  <CHROM.1>
36.47775626,18.96997043,8.69479772,-2.29511914,-1.48242590,0.94918438

>  <Name>
ligand

>  <RI>
0

>  <Rbt.Current_Directory>
/home/itssahil/PROJECTS/Mol_Feturizer/New_Systems/rnas/4FEN

>  <Rbt.Executable>
rbdock ($Id: //depot/dev/client3/rdock/2013.1/src/exe/rbdock.cxx#4 $)

>  <Rbt.Library>
libRbt.so (2013.1, Build901 2013/11/27)

>  <Rbt.Parameter_File>
/export/apps/rDock/src/rDock_2013.1_src/data/scripts/dock_solv.prm

>  <Rbt.Receptor>
prm/pocket_docking_7.prm

>  <SCORE>
-5.04434

>  <SCORE.INTER>
-5.04434

>  <SCORE.INTER.CONST>
1

>  <SCORE.INTER.POLAR>
0

>  <SCORE.INTER.ROT>
0

>  <SCORE.INTER.SOLV>
1.64748

>  <SCORE.INTER.VDW>
-7.51206

>  <SCORE.INTER.norm>
-1.26109

>  <SCORE.INTRA>
0

>  <SCORE.INTRA.DIHEDRAL>
0

>  <SCORE.INTRA.DIHEDRAL.0>
0

>  <SCORE.INTRA.POLAR>
0

>  <SCORE.INTRA.POLAR.0>
0

>  <SCORE.INTRA.REPUL>
0

>  <SCORE.INTRA.REPUL.0>
0

>  <SCORE.INTRA.SOLV>
0

>  <SCORE.INTRA.SOLV.lig_0>
0.449748

>  <SCORE.INTRA.VDW>
0

>  <SCORE.INTRA.VDW.0>
0

>  <SCORE.INTRA.norm>
0

>  <SCORE.RESTR>
0

>  <SCORE.RESTR.CAVITY>
0

>  <SCORE.RESTR.norm>
0

>  <SCORE.SYSTEM>
0

>  <SCORE.SYSTEM.CONST>
0

>  <SCORE.SYSTEM.DIHEDRAL>
0

>  <SCORE.SYSTEM.SOLV>
0

>  <SCORE.SYSTEM.norm>
0

>  <SCORE.heavy>
4

>  <SCORE.norm>
-1.26109

>  <RMSD>
2.102

$$$$
ligand
 OpenBabel11021811493D
libRbt.so/2013.1/901 2013/11/27
  4  3  0  0  0  0  0  0  0  0999 V2000
   36.4759   18.9304    8.6097 C   0  0  0  0  0  0  0  0  0  0  0  0
   36.5876   17.7254    8.2931 O   0  0  0  0  0  0  0  0  0  0  0  0
   36.4662   19.2397   10.1009 C   0  0  0  0  0  0  0  0  0  0  0  0
   36.3636   19.9681    7.8198 O   0  0  0  0  0  0  0  0  0  0  0  0
  1  2  1  0  0  0  0
  1  3  1  0  0  0  0
  1  4  1  0  0  0  0
M  END
>  <CHROM.1>
36.47327065,18.96382010,8.68960471,-1.83307517,-1.47314460,1.42740934

>  <Name>
ligand

>  <RI>
0

>  <Rbt.Current_Directory>
/home/itssahil/PROJECTS/Mol_Feturizer/New_Systems/rnas/4FEN

>  <Rbt.Executable>
rbdock ($Id: //depot/dev/client3/rdock/2013.1/src/exe/rbdock.cxx#4 $)

>  <Rbt.Library>
libRbt.so (2013.1, Build901 2013/11/27)

>  <Rbt.Parameter_File>
/export/apps/rDock/src/rDock_2013.1_src/data/scripts/dock_solv.prm

>  <Rbt.Receptor>
prm/pocket_docking_5.prm

>  <SCORE>
-5.02583

>  <SCORE.INTER>
-5.02583

>  <SCORE.INTER.CONST>
1

>  <SCORE.INTER.POLAR>
0

>  <SCORE.INTER.ROT>
0

>  <SCORE.INTER.SOLV>
1.62786

>  <SCORE.INTER.VDW>
-7.49317

>  <SCORE.INTER.norm>
-1.25646

>  <SCORE.INTRA>
0

>  <SCORE.INTRA.DIHEDRAL>
0

>  <SCORE.INTRA.DIHEDRAL.0>
0

>  <SCORE.INTRA.POLAR>
0

>  <SCORE.INTRA.POLAR.0>
0

>  <SCORE.INTRA.REPUL>
0

>  <SCORE.INTRA.REPUL.0>
0

>  <SCORE.INTRA.SOLV>
0

>  <SCORE.INTRA.SOLV.lig_0>
0.449748

>  <SCORE.INTRA.VDW>
0

>  <SCORE.INTRA.VDW.0>
0

>  <SCORE.INTRA.norm>
0

>  <SCORE.RESTR>
0

>  <SCORE.RESTR.CAVITY>
0

>  <SCORE.RESTR.norm>
0

>  <SCORE.SYSTEM>
0

>  <SCORE.SYSTEM.CONST>
0

>  <SCORE.SYSTEM.DIHEDRAL>
0

>  <SCORE.SYSTEM.SOLV>
0

>  <SCORE.SYSTEM.norm>
0

>  <SCORE.heavy>
4

>  <SCORE.norm>
-1.25646

>  <RMSD>
2.103

$$$$
ligand
 OpenBabel11021811493D
libRbt.so/2013.1/901 2013/11/27
  4  3  0  0  0  0  0  0  0  0999 V2000
   36.4742   18.8978    8.6295 C   0  0  0  0  0  0  0  0  0  0  0  0
   36.5833   17.6905    8.3208 O   0  0  0  0  0  0  0  0  0  0  0  0
   36.5239   19.2227   10.1166 C   0  0  0  0  0  0  0  0  0  0  0  0
   36.3196   19.9261    7.8345 O   0  0  0  0  0  0  0  0  0  0  0  0
  1  2  1  0  0  0  0
  1  3  1  0  0  0  0
  1  4  1  0  0  0  0
M  END
>  <CHROM.1>
36.47452119,18.93201838,8.70908757,-2.17618220,-1.45139325,1.07587964

>  <Name>
ligand

>  <RI>
0

>  <Rbt.Current_Directory>
/home/itssahil/PROJECTS/Mol_Feturizer/New_Systems/rnas/4FEN

>  <Rbt.Executable>
rbdock ($Id: //depot/dev/client3/rdock/2013.1/src/exe/rbdock.cxx#4 $)

>  <Rbt.Library>
libRbt.so (2013.1, Build901 2013/11/27)

>  <Rbt.Parameter_File>
/export/apps/rDock/src/rDock_2013.1_src/data/scripts/dock_solv.prm

>  <Rbt.Receptor>
prm/pocket_docking_4.prm

>  <SCORE>
-5.00803

>  <SCORE.INTER>
-5.00803

>  <SCORE.INTER.CONST>
1

>  <SCORE.INTER.POLAR>
0

>  <SCORE.INTER.ROT>
0

>  <SCORE.INTER.SOLV>
1.63222

>  <SCORE.INTER.VDW>
-7.48276

>  <SCORE.INTER.norm>
-1.25201

>  <SCORE.INTRA>
0

>  <SCORE.INTRA.DIHEDRAL>
0

>  <SCORE.INTRA.DIHEDRAL.0>
0

>  <SCORE.INTRA.POLAR>
0

>  <SCORE.INTRA.POLAR.0>
0

>  <SCORE.INTRA.REPUL>
0

>  <SCORE.INTRA.REPUL.0>
0

>  <SCORE.INTRA.SOLV>
0

>  <SCORE.INTRA.SOLV.lig_0>
0.449748

>  <SCORE.INTRA.VDW>
0

>  <SCORE.INTRA.VDW.0>
0

>  <SCORE.INTRA.norm>
0

>  <SCORE.RESTR>
0

>  <SCORE.RESTR.CAVITY>
0

>  <SCORE.RESTR.norm>
0

>  <SCORE.SYSTEM>
0

>  <SCORE.SYSTEM.CONST>
0

>  <SCORE.SYSTEM.DIHEDRAL>
0

>  <SCORE.SYSTEM.SOLV>
0

>  <SCORE.SYSTEM.norm>
0

>  <SCORE.heavy>
4

>  <SCORE.norm>
-1.25201

>  <RMSD>
2.104

$$$$
ligand
 OpenBabel11021811493D
libRbt.so/2013.1/901 2013/11/27
  4  3  0  0  0  0  0  0  0  0999 V2000
   36.4786   18.9333    8.6117 C   0  0  0  0  0  0  0  0  0  0  0  0
   36.5830   17.7245    8.3073 O   0  0  0  0  0  0  0  0  0  0  0  0
   36.4852   19.2588   10.0995 C   0  0  0  0  0  0  0  0  0  0  0  0
   36.3614   19.9626    7.8117 O   0  0  0  0  0  0  0  0  0  0  0  0
  1  2  1  0  0  0  0
  1  3  1  0  0  0  0
  1  4  1  0  0  0  0
M  END
>  <CHROM.1>
36.47680620,18.96754520,8.69125762,-1.94423053,-1.47429348,1.30582323

>  <Name>
ligand

>  <RI>
0

>  <Rbt.Current_Directory>
/home/itssahil/PROJECTS/Mol_Feturizer/New_Systems/rnas/4FEN

>  <Rbt.Executable>
rbdock ($Id: //depot/dev/client3/rdock/2013.1/src/exe/rbdock.cxx#4 $)

>  <Rbt.Library>
libRbt.so (2013.1, Build901 2013/11/27)

>  <Rbt.Parameter_File>
/export/apps/rDock/src/rDock_2013.1_src/data/scripts/dock_solv.prm

>  <Rbt.Receptor>
prm/pocket_docking_5.prm

>  <SCORE>
-5.02766

>  <SCORE.INTER>
-5.02766

>  <SCORE.INTER.CONST>
1

>  <SCORE.INTER.POLAR>
0

>  <SCORE.INTER.ROT>
0

>  <SCORE.INTER.SOLV>
1.63332

>  <SCORE.INTER.VDW>
-7.49621

>  <SCORE.INTER.norm>
-1.25692

>  <SCORE.INTRA>
0

>  <SCORE.INTRA.DIHEDRAL>
0

>  <SCORE.INTRA.DIHEDRAL.0>
0

>  <SCORE.INTRA.POLAR>
0

>  <SCORE.INTRA.POLAR.0>
0

>  <SCORE.INTRA.REPUL>
0

>  <SCORE.INTRA.REPUL.0>
0

>  <SCORE.INTRA.SOLV>
0

>  <SCORE.INTRA.SOLV.lig_0>
0.449748

>  <SCORE.INTRA.VDW>
0

>  <SCORE.INTRA.VDW.0>
0

>  <SCORE.INTRA.norm>
0

>  <SCORE.RESTR>
0

>  <SCORE.RESTR.CAVITY>
0

>  <SCORE.RESTR.norm>
0

>  <SCORE.SYSTEM>
0

>  <SCORE.SYSTEM.CONST>
0

>  <SCORE.SYSTEM.DIHEDRAL>
0

>  <SCORE.SYSTEM.SOLV>
0

>  <SCORE.SYSTEM.norm>
0

>  <SCORE.heavy>
4

>  <SCORE.norm>
-1.25692

>  <RMSD>
2.104

$$$$
ligand
 OpenBabel11021811493D
libRbt.so/2013.1/901 2013/11/27
  4  3  0  0  0  0  0  0  0  0999 V2000
   36.4591   18.9450    8.6152 C   0  0  0  0  0  0  0  0  0  0  0  0
   36.3087   19.9178    7.8433 O   0  0  0  0  0  0  0  0  0  0  0  0
   36.5416   19.2674   10.1013 C   0  0  0  0  0  0  0  0  0  0  0  0
   36.5575   17.6762    8.3091 O   0  0  0  0  0  0  0  0  0  0  0  0
  1  2  1  0  0  0  0
  1  3  1  0  0  0  0
  1  4  1  0  0  0  0
M  END
>  <CHROM.1>
36.46603529,18.94686363,8.70151470,1.70792063,1.44968384,-2.24231608

>  <Name>
ligand

>  <RI>
0

>  <Rbt.Current_Directory>
/home/itssahil/PROJECTS/Mol_Feturizer/New_Systems/rnas/4FEN

>  <Rbt.Executable>
rbdock ($Id: //depot/dev/client3/rdock/2013.1/src/exe/rbdock.cxx#4 $)

>  <Rbt.Library>
libRbt.so (2013.1, Build901 2013/11/27)

>  <Rbt.Parameter_File>
/export/apps/rDock/src/rDock_2013.1_src/data/scripts/dock_solv.prm

>  <Rbt.Receptor>
prm/pocket_docking_7.prm

>  <SCORE>
-5.01972

>  <SCORE.INTER>
-5.01972

>  <SCORE.INTER.CONST>
1

>  <SCORE.INTER.POLAR>
0

>  <SCORE.INTER.ROT>
0

>  <SCORE.INTER.SOLV>
1.65287

>  <SCORE.INTER.VDW>
-7.49744

>  <SCORE.INTER.norm>
-1.25493

>  <SCORE.INTRA>
0

>  <SCORE.INTRA.DIHEDRAL>
0

>  <SCORE.INTRA.DIHEDRAL.0>
0

>  <SCORE.INTRA.POLAR>
0

>  <SCORE.INTRA.POLAR.0>
0

>  <SCORE.INTRA.REPUL>
0

>  <SCORE.INTRA.REPUL.0>
0

>  <SCORE.INTRA.SOLV>
0

>  <SCORE.INTRA.SOLV.lig_0>
0.449748

>  <SCORE.INTRA.VDW>
0

>  <SCORE.INTRA.VDW.0>
0

>  <SCORE.INTRA.norm>
0

>  <SCORE.RESTR>
0

>  <SCORE.RESTR.CAVITY>
0

>  <SCORE.RESTR.norm>
0

>  <SCORE.SYSTEM>
0

>  <SCORE.SYSTEM.CONST>
0

>  <SCORE.SYSTEM.DIHEDRAL>
0

>  <SCORE.SYSTEM.SOLV>
0

>  <SCORE.SYSTEM.norm>
0

>  <SCORE.heavy>
4

>  <SCORE.norm>
-1.25493

>  <RMSD>
2.104

$$$$
ligand
 OpenBabel11021811493D
libRbt.so/2013.1/901 2013/11/27
  4  3  0  0  0  0  0  0  0  0999 V2000
   36.4799   18.9441    8.6217 C   0  0  0  0  0  0  0  0  0  0  0  0
   36.2880   19.9157    7.8575 O   0  0  0  0  0  0  0  0  0  0  0  0
   36.5640   19.2602   10.1092 C   0  0  0  0  0  0  0  0  0  0  0  0
   36.6208   17.6816    8.3066 O   0  0  0  0  0  0  0  0  0  0  0  0
  1  2  1  0  0  0  0
  1  3  1  0  0  0  0
  1  4  1  0  0  0  0
M  END
>  <CHROM.1>
36.48751458,18.94575484,8.70801538,1.60920069,1.41548350,-2.13822489

>  <Name>
ligand

>  <RI>
0

>  <Rbt.Current_Directory>
/home/itssahil/PROJECTS/Mol_Feturizer/New_Systems/rnas/4FEN

>  <Rbt.Executable>
rbdock ($Id: //depot/dev/client3/rdock/2013.1/src/exe/rbdock.cxx#4 $)

>  <Rbt.Library>
libRbt.so (2013.1, Build901 2013/11/27)

>  <Rbt.Parameter_File>
/export/apps/rDock/src/rDock_2013.1_src/data/scripts/dock_solv.prm

>  <Rbt.Receptor>
prm/pocket_docking_7.prm

>  <SCORE>
-5.00731

>  <SCORE.INTER>
-5.00731

>  <SCORE.INTER.CONST>
1

>  <SCORE.INTER.POLAR>
0

>  <SCORE.INTER.ROT>
0

>  <SCORE.INTER.SOLV>
1.65162

>  <SCORE.INTER.VDW>
-7.48874

>  <SCORE.INTER.norm>
-1.25183

>  <SCORE.INTRA>
0

>  <SCORE.INTRA.DIHEDRAL>
0

>  <SCORE.INTRA.DIHEDRAL.0>
0

>  <SCORE.INTRA.POLAR>
0

>  <SCORE.INTRA.POLAR.0>
0

>  <SCORE.INTRA.REPUL>
0

>  <SCORE.INTRA.REPUL.0>
0

>  <SCORE.INTRA.SOLV>
0

>  <SCORE.INTRA.SOLV.lig_0>
0.449748

>  <SCORE.INTRA.VDW>
0

>  <SCORE.INTRA.VDW.0>
0

>  <SCORE.INTRA.norm>
0

>  <SCORE.RESTR>
0

>  <SCORE.RESTR.CAVITY>
0

>  <SCORE.RESTR.norm>
0

>  <SCORE.SYSTEM>
0

>  <SCORE.SYSTEM.CONST>
0

>  <SCORE.SYSTEM.DIHEDRAL>
0

>  <SCORE.SYSTEM.SOLV>
0

>  <SCORE.SYSTEM.norm>
0

>  <SCORE.heavy>
4

>  <SCORE.norm>
-1.25183

>  <RMSD>
2.105

$$$$
ligand
 OpenBabel11021811493D
libRbt.so/2013.1/901 2013/11/27
  4  3  0  0  0  0  0  0  0  0999 V2000
   36.4330   18.9892    8.5818 C   0  0  0  0  0  0  0  0  0  0  0  0
   36.3652   19.9543    7.7889 O   0  0  0  0  0  0  0  0  0  0  0  0
   36.3158   19.3219   10.0634 C   0  0  0  0  0  0  0  0  0  0  0  0
   36.5947   17.7209    8.3017 O   0  0  0  0  0  0  0  0  0  0  0  0
  1  2  1  0  0  0  0
  1  3  1  0  0  0  0
  1  4  1  0  0  0  0
M  END
>  <CHROM.1>
36.42862748,18.99177789,8.66827322,0.58586233,1.44447132,-1.13424863

>  <Name>
ligand

>  <RI>
0

>  <Rbt.Current_Directory>
/home/itssahil/PROJECTS/Mol_Feturizer/New_Systems/rnas/4FEN

>  <Rbt.Executable>
rbdock ($Id: //depot/dev/client3/rdock/2013.1/src/exe/rbdock.cxx#4 $)

>  <Rbt.Library>
libRbt.so (2013.1, Build901 2013/11/27)

>  <Rbt.Parameter_File>
/export/apps/rDock/src/rDock_2013.1_src/data/scripts/dock_solv.prm

>  <Rbt.Receptor>
prm/pocket_docking_5.prm

>  <SCORE>
-4.97279

>  <SCORE.INTER>
-4.97279

>  <SCORE.INTER.CONST>
1

>  <SCORE.INTER.POLAR>
0

>  <SCORE.INTER.ROT>
0

>  <SCORE.INTER.SOLV>
1.59829

>  <SCORE.INTER.VDW>
-7.44796

>  <SCORE.INTER.norm>
-1.2432

>  <SCORE.INTRA>
0

>  <SCORE.INTRA.DIHEDRAL>
0

>  <SCORE.INTRA.DIHEDRAL.0>
0

>  <SCORE.INTRA.POLAR>
0

>  <SCORE.INTRA.POLAR.0>
0

>  <SCORE.INTRA.REPUL>
0

>  <SCORE.INTRA.REPUL.0>
0

>  <SCORE.INTRA.SOLV>
0

>  <SCORE.INTRA.SOLV.lig_0>
0.449748

>  <SCORE.INTRA.VDW>
0

>  <SCORE.INTRA.VDW.0>
0

>  <SCORE.INTRA.norm>
0

>  <SCORE.RESTR>
0

>  <SCORE.RESTR.CAVITY>
0

>  <SCORE.RESTR.norm>
0

>  <SCORE.SYSTEM>
0

>  <SCORE.SYSTEM.CONST>
0

>  <SCORE.SYSTEM.DIHEDRAL>
0

>  <SCORE.SYSTEM.SOLV>
0

>  <SCORE.SYSTEM.norm>
0

>  <SCORE.heavy>
4

>  <SCORE.norm>
-1.2432

>  <RMSD>
2.108

$$$$
ligand
 OpenBabel11021811493D
libRbt.so/2013.1/901 2013/11/27
  4  3  0  0  0  0  0  0  0  0999 V2000
   36.4452   19.0002    8.5772 C   0  0  0  0  0  0  0  0  0  0  0  0
   36.3788   19.9711    7.7913 O   0  0  0  0  0  0  0  0  0  0  0  0
   36.3262   19.3219   10.0610 C   0  0  0  0  0  0  0  0  0  0  0  0
   36.6067   17.7339    8.2879 O   0  0  0  0  0  0  0  0  0  0  0  0
  1  2  1  0  0  0  0
  1  3  1  0  0  0  0
  1  4  1  0  0  0  0
M  END
>  <CHROM.1>
36.44066228,19.00204804,8.66367305,0.57491066,1.44430899,-1.11601725

>  <Name>
ligand

>  <RI>
0

>  <Rbt.Current_Directory>
/home/itssahil/PROJECTS/Mol_Feturizer/New_Systems/rnas/4FEN

>  <Rbt.Executable>
rbdock ($Id: //depot/dev/client3/rdock/2013.1/src/exe/rbdock.cxx#4 $)

>  <Rbt.Library>
libRbt.so (2013.1, Build901 2013/11/27)

>  <Rbt.Parameter_File>
/export/apps/rDock/src/rDock_2013.1_src/data/scripts/dock_solv.prm

>  <Rbt.Receptor>
prm/pocket_docking_8.prm

>  <SCORE>
-4.97216

>  <SCORE.INTER>
-4.97216

>  <SCORE.INTER.CONST>
1

>  <SCORE.INTER.POLAR>
0

>  <SCORE.INTER.ROT>
0

>  <SCORE.INTER.SOLV>
1.60392

>  <SCORE.INTER.VDW>
-7.44941

>  <SCORE.INTER.norm>
-1.24304

>  <SCORE.INTRA>
0

>  <SCORE.INTRA.DIHEDRAL>
0

>  <SCORE.INTRA.DIHEDRAL.0>
0

>  <SCORE.INTRA.POLAR>
0

>  <SCORE.INTRA.POLAR.0>
0

>  <SCORE.INTRA.REPUL>
0

>  <SCORE.INTRA.REPUL.0>
0

>  <SCORE.INTRA.SOLV>
0

>  <SCORE.INTRA.SOLV.lig_0>
0.449748

>  <SCORE.INTRA.VDW>
0

>  <SCORE.INTRA.VDW.0>
0

>  <SCORE.INTRA.norm>
0

>  <SCORE.RESTR>
0

>  <SCORE.RESTR.CAVITY>
0

>  <SCORE.RESTR.norm>
0

>  <SCORE.SYSTEM>
0

>  <SCORE.SYSTEM.CONST>
0

>  <SCORE.SYSTEM.DIHEDRAL>
0

>  <SCORE.SYSTEM.SOLV>
0

>  <SCORE.SYSTEM.norm>
0

>  <SCORE.heavy>
4

>  <SCORE.norm>
-1.24304

>  <RMSD>
2.108

$$$$
ligand
 OpenBabel11021811493D
libRbt.so/2013.1/901 2013/11/27
  4  3  0  0  0  0  0  0  0  0999 V2000
   36.4773   18.9431    8.6161 C   0  0  0  0  0  0  0  0  0  0  0  0
   36.3027   19.9068    7.8379 O   0  0  0  0  0  0  0  0  0  0  0  0
   36.5059   19.2713   10.1030 C   0  0  0  0  0  0  0  0  0  0  0  0
   36.6417   17.6796    8.3162 O   0  0  0  0  0  0  0  0  0  0  0  0
  1  2  1  0  0  0  0
  1  3  1  0  0  0  0
  1  4  1  0  0  0  0
M  END
>  <CHROM.1>
36.48181209,18.94542293,8.70255920,1.37136843,1.42187535,-1.91090691

>  <Name>
ligand

>  <RI>
0

>  <Rbt.Current_Directory>
/home/itssahil/PROJECTS/Mol_Feturizer/New_Systems/rnas/4FEN

>  <Rbt.Executable>
rbdock ($Id: //depot/dev/client3/rdock/2013.1/src/exe/rbdock.cxx#4 $)

>  <Rbt.Library>
libRbt.so (2013.1, Build901 2013/11/27)

>  <Rbt.Parameter_File>
/export/apps/rDock/src/rDock_2013.1_src/data/scripts/dock_solv.prm

>  <Rbt.Receptor>
prm/pocket_docking_4.prm

>  <SCORE>
-5.04742

>  <SCORE.INTER>
-5.04742

>  <SCORE.INTER.CONST>
1

>  <SCORE.INTER.POLAR>
0

>  <SCORE.INTER.ROT>
0

>  <SCORE.INTER.SOLV>
1.63901

>  <SCORE.INTER.VDW>
-7.51128

>  <SCORE.INTER.norm>
-1.26186

>  <SCORE.INTRA>
0

>  <SCORE.INTRA.DIHEDRAL>
0

>  <SCORE.INTRA.DIHEDRAL.0>
0

>  <SCORE.INTRA.POLAR>
0

>  <SCORE.INTRA.POLAR.0>
0

>  <SCORE.INTRA.REPUL>
0

>  <SCORE.INTRA.REPUL.0>
0

>  <SCORE.INTRA.SOLV>
0

>  <SCORE.INTRA.SOLV.lig_0>
0.449748

>  <SCORE.INTRA.VDW>
0

>  <SCORE.INTRA.VDW.0>
0

>  <SCORE.INTRA.norm>
0

>  <SCORE.RESTR>
0

>  <SCORE.RESTR.CAVITY>
0

>  <SCORE.RESTR.norm>
0

>  <SCORE.SYSTEM>
0

>  <SCORE.SYSTEM.CONST>
0

>  <SCORE.SYSTEM.DIHEDRAL>
0

>  <SCORE.SYSTEM.SOLV>
0

>  <SCORE.SYSTEM.norm>
0

>  <SCORE.heavy>
4

>  <SCORE.norm>
-1.26186

>  <RMSD>
2.110

$$$$
ligand
 OpenBabel11021811493D
libRbt.so/2013.1/901 2013/11/27
  4  3  0  0  0  0  0  0  0  0999 V2000
   36.4777   18.9239    8.6070 C   0  0  0  0  0  0  0  0  0  0  0  0
   36.5801   17.7157    8.2997 O   0  0  0  0  0  0  0  0  0  0  0  0
   36.4942   19.2469   10.0952 C   0  0  0  0  0  0  0  0  0  0  0  0
   36.3552   19.9547    7.8095 O   0  0  0  0  0  0  0  0  0  0  0  0
  1  2  1  0  0  0  0
  1  3  1  0  0  0  0
  1  4  1  0  0  0  0
M  END
>  <CHROM.1>
36.47647991,18.95808896,8.68657282,-2.00974436,-1.47236824,1.24235482

>  <Name>
ligand

>  <RI>
0

>  <Rbt.Current_Directory>
/home/itssahil/PROJECTS/Mol_Feturizer/New_Systems/rnas/4FEN

>  <Rbt.Executable>
rbdock ($Id: //depot/dev/client3/rdock/2013.1/src/exe/rbdock.cxx#4 $)

>  <Rbt.Library>
libRbt.so (2013.1, Build901 2013/11/27)

>  <Rbt.Parameter_File>
/export/apps/rDock/src/rDock_2013.1_src/data/scripts/dock_solv.prm

>  <Rbt.Receptor>
prm/blind_docking_80.prm

>  <SCORE>
-5.02604

>  <SCORE.INTER>
-5.02604

>  <SCORE.INTER.CONST>
1

>  <SCORE.INTER.POLAR>
0

>  <SCORE.INTER.ROT>
0

>  <SCORE.INTER.SOLV>
1.64064

>  <SCORE.INTER.VDW>
-7.49757

>  <SCORE.INTER.norm>
-1.25651

>  <SCORE.INTRA>
0

>  <SCORE.INTRA.DIHEDRAL>
0

>  <SCORE.INTRA.DIHEDRAL.0>
0

>  <SCORE.INTRA.POLAR>
0

>  <SCORE.INTRA.POLAR.0>
0

>  <SCORE.INTRA.REPUL>
0

>  <SCORE.INTRA.REPUL.0>
0

>  <SCORE.INTRA.SOLV>
0

>  <SCORE.INTRA.SOLV.lig_0>
0.449748

>  <SCORE.INTRA.VDW>
0

>  <SCORE.INTRA.VDW.0>
0

>  <SCORE.INTRA.norm>
0

>  <SCORE.RESTR>
0

>  <SCORE.RESTR.CAVITY>
0

>  <SCORE.RESTR.norm>
0

>  <SCORE.SYSTEM>
0

>  <SCORE.SYSTEM.CONST>
0

>  <SCORE.SYSTEM.DIHEDRAL>
0

>  <SCORE.SYSTEM.SOLV>
0

>  <SCORE.SYSTEM.norm>
0

>  <SCORE.heavy>
4

>  <SCORE.norm>
-1.25651

>  <RMSD>
2.111

$$$$
ligand
 OpenBabel11021811493D
libRbt.so/2013.1/901 2013/11/27
  4  3  0  0  0  0  0  0  0  0999 V2000
   36.4734   18.9479    8.6009 C   0  0  0  0  0  0  0  0  0  0  0  0
   36.3201   19.9313    7.8433 O   0  0  0  0  0  0  0  0  0  0  0  0
   36.4634   19.2380   10.0959 C   0  0  0  0  0  0  0  0  0  0  0  0
   36.6446   17.6922    8.2733 O   0  0  0  0  0  0  0  0  0  0  0  0
  1  2  1  0  0  0  0
  1  3  1  0  0  0  0
  1  4  1  0  0  0  0
M  END
>  <CHROM.1>
36.47571295,18.94799503,8.68750690,1.19754220,1.42928961,-1.71338849

>  <Name>
ligand

>  <RI>
0

>  <Rbt.Current_Directory>
/home/itssahil/PROJECTS/Mol_Feturizer/New_Systems/rnas/4FEN

>  <Rbt.Executable>
rbdock ($Id: //depot/dev/client3/rdock/2013.1/src/exe/rbdock.cxx#4 $)

>  <Rbt.Library>
libRbt.so (2013.1, Build901 2013/11/27)

>  <Rbt.Parameter_File>
/export/apps/rDock/src/rDock_2013.1_src/data/scripts/dock_solv.prm

>  <Rbt.Receptor>
prm/pocket_docking_8.prm

>  <SCORE>
-5.01716

>  <SCORE.INTER>
-5.01716

>  <SCORE.INTER.CONST>
1

>  <SCORE.INTER.POLAR>
0

>  <SCORE.INTER.ROT>
0

>  <SCORE.INTER.SOLV>
1.63235

>  <SCORE.INTER.VDW>
-7.48889

>  <SCORE.INTER.norm>
-1.25429

>  <SCORE.INTRA>
0

>  <SCORE.INTRA.DIHEDRAL>
0

>  <SCORE.INTRA.DIHEDRAL.0>
0

>  <SCORE.INTRA.POLAR>
0

>  <SCORE.INTRA.POLAR.0>
0

>  <SCORE.INTRA.REPUL>
0

>  <SCORE.INTRA.REPUL.0>
0

>  <SCORE.INTRA.SOLV>
0

>  <SCORE.INTRA.SOLV.lig_0>
0.449748

>  <SCORE.INTRA.VDW>
0

>  <SCORE.INTRA.VDW.0>
0

>  <SCORE.INTRA.norm>
0

>  <SCORE.RESTR>
0

>  <SCORE.RESTR.CAVITY>
0

>  <SCORE.RESTR.norm>
0

>  <SCORE.SYSTEM>
0

>  <SCORE.SYSTEM.CONST>
0

>  <SCORE.SYSTEM.DIHEDRAL>
0

>  <SCORE.SYSTEM.SOLV>
0

>  <SCORE.SYSTEM.norm>
0

>  <SCORE.heavy>
4

>  <SCORE.norm>
-1.25429

>  <RMSD>
2.113

$$$$
ligand
 OpenBabel11021811493D
libRbt.so/2013.1/901 2013/11/27
  4  3  0  0  0  0  0  0  0  0999 V2000
   36.4641   18.9229    8.5999 C   0  0  0  0  0  0  0  0  0  0  0  0
   36.5646   17.7142    8.2939 O   0  0  0  0  0  0  0  0  0  0  0  0
   36.4601   19.2456   10.0883 C   0  0  0  0  0  0  0  0  0  0  0  0
   36.3591   19.9544    7.8010 O   0  0  0  0  0  0  0  0  0  0  0  0
  1  2  1  0  0  0  0
  1  3  1  0  0  0  0
  1  4  1  0  0  0  0
M  END
>  <CHROM.1>
36.46185275,18.95707671,8.67951535,-1.87009008,-1.48143661,1.38160652

>  <Name>
ligand

>  <RI>
0

>  <Rbt.Current_Directory>
/home/itssahil/PROJECTS/Mol_Feturizer/New_Systems/rnas/4FEN

>  <Rbt.Executable>
rbdock ($Id: //depot/dev/client3/rdock/2013.1/src/exe/rbdock.cxx#4 $)

>  <Rbt.Library>
libRbt.so (2013.1, Build901 2013/11/27)

>  <Rbt.Parameter_File>
/export/apps/rDock/src/rDock_2013.1_src/data/scripts/dock_solv.prm

>  <Rbt.Receptor>
prm/blind_docking_60.prm

>  <SCORE>
-5.02193

>  <SCORE.INTER>
-5.02193

>  <SCORE.INTER.CONST>
1

>  <SCORE.INTER.POLAR>
0

>  <SCORE.INTER.ROT>
0

>  <SCORE.INTER.SOLV>
1.6365

>  <SCORE.INTER.VDW>
-7.49345

>  <SCORE.INTER.norm>
-1.25548

>  <SCORE.INTRA>
0

>  <SCORE.INTRA.DIHEDRAL>
0

>  <SCORE.INTRA.DIHEDRAL.0>
0

>  <SCORE.INTRA.POLAR>
0

>  <SCORE.INTRA.POLAR.0>
0

>  <SCORE.INTRA.REPUL>
0

>  <SCORE.INTRA.REPUL.0>
0

>  <SCORE.INTRA.SOLV>
0

>  <SCORE.INTRA.SOLV.lig_0>
0.449748

>  <SCORE.INTRA.VDW>
0

>  <SCORE.INTRA.VDW.0>
0

>  <SCORE.INTRA.norm>
0

>  <SCORE.RESTR>
0

>  <SCORE.RESTR.CAVITY>
0

>  <SCORE.RESTR.norm>
0

>  <SCORE.SYSTEM>
0

>  <SCORE.SYSTEM.CONST>
0

>  <SCORE.SYSTEM.DIHEDRAL>
0

>  <SCORE.SYSTEM.SOLV>
0

>  <SCORE.SYSTEM.norm>
0

>  <SCORE.heavy>
4

>  <SCORE.norm>
-1.25548

>  <RMSD>
2.114

$$$$
ligand
 OpenBabel11021811493D
libRbt.so/2013.1/901 2013/11/27
  4  3  0  0  0  0  0  0  0  0999 V2000
   36.4723   18.9236    8.6053 C   0  0  0  0  0  0  0  0  0  0  0  0
   36.5750   17.7126    8.3093 O   0  0  0  0  0  0  0  0  0  0  0  0
   36.4814   19.2598   10.0906 C   0  0  0  0  0  0  0  0  0  0  0  0
   36.3552   19.9473    7.7981 O   0  0  0  0  0  0  0  0  0  0  0  0
  1  2  1  0  0  0  0
  1  3  1  0  0  0  0
  1  4  1  0  0  0  0
M  END
>  <CHROM.1>
36.47070089,18.95846187,8.68456976,-1.96157984,-1.47500448,1.28142209

>  <Name>
ligand

>  <RI>
0

>  <Rbt.Current_Directory>
/home/itssahil/PROJECTS/Mol_Feturizer/New_Systems/rnas/4FEN

>  <Rbt.Executable>
rbdock ($Id: //depot/dev/client3/rdock/2013.1/src/exe/rbdock.cxx#4 $)

>  <Rbt.Library>
libRbt.so (2013.1, Build901 2013/11/27)

>  <Rbt.Parameter_File>
/export/apps/rDock/src/rDock_2013.1_src/data/scripts/dock_solv.prm

>  <Rbt.Receptor>
prm/pocket_docking_7.prm

>  <SCORE>
-5.02646

>  <SCORE.INTER>
-5.02646

>  <SCORE.INTER.CONST>
1

>  <SCORE.INTER.POLAR>
0

>  <SCORE.INTER.ROT>
0

>  <SCORE.INTER.SOLV>
1.63847

>  <SCORE.INTER.VDW>
-7.49713

>  <SCORE.INTER.norm>
-1.25661

>  <SCORE.INTRA>
0

>  <SCORE.INTRA.DIHEDRAL>
0

>  <SCORE.INTRA.DIHEDRAL.0>
0

>  <SCORE.INTRA.POLAR>
0

>  <SCORE.INTRA.POLAR.0>
0

>  <SCORE.INTRA.REPUL>
0

>  <SCORE.INTRA.REPUL.0>
0

>  <SCORE.INTRA.SOLV>
0

>  <SCORE.INTRA.SOLV.lig_0>
0.449748

>  <SCORE.INTRA.VDW>
0

>  <SCORE.INTRA.VDW.0>
0

>  <SCORE.INTRA.norm>
0

>  <SCORE.RESTR>
0

>  <SCORE.RESTR.CAVITY>
0

>  <SCORE.RESTR.norm>
0

>  <SCORE.SYSTEM>
0

>  <SCORE.SYSTEM.CONST>
0

>  <SCORE.SYSTEM.DIHEDRAL>
0

>  <SCORE.SYSTEM.SOLV>
0

>  <SCORE.SYSTEM.norm>
0

>  <SCORE.heavy>
4

>  <SCORE.norm>
-1.25661

>  <RMSD>
2.114

$$$$
ligand
 OpenBabel11021811493D
libRbt.so/2013.1/901 2013/11/27
  4  3  0  0  0  0  0  0  0  0999 V2000
   36.4789   18.9671    8.5869 C   0  0  0  0  0  0  0  0  0  0  0  0
   36.3484   19.9590    7.8360 O   0  0  0  0  0  0  0  0  0  0  0  0
   36.4716   19.2467   10.0839 C   0  0  0  0  0  0  0  0  0  0  0  0
   36.6240   17.7105    8.2506 O   0  0  0  0  0  0  0  0  0  0  0  0
  1  2  1  0  0  0  0
  1  3  1  0  0  0  0
  1  4  1  0  0  0  0
M  END
>  <CHROM.1>
36.48099403,18.96656024,8.67348995,1.20313525,1.45070605,-1.71173886

>  <Name>
ligand

>  <RI>
0

>  <Rbt.Current_Directory>
/home/itssahil/PROJECTS/Mol_Feturizer/New_Systems/rnas/4FEN

>  <Rbt.Executable>
rbdock ($Id: //depot/dev/client3/rdock/2013.1/src/exe/rbdock.cxx#4 $)

>  <Rbt.Library>
libRbt.so (2013.1, Build901 2013/11/27)

>  <Rbt.Parameter_File>
/export/apps/rDock/src/rDock_2013.1_src/data/scripts/dock_solv.prm

>  <Rbt.Receptor>
prm/pocket_docking_8.prm

>  <SCORE>
-5.02545

>  <SCORE.INTER>
-5.02545

>  <SCORE.INTER.CONST>
1

>  <SCORE.INTER.POLAR>
0

>  <SCORE.INTER.ROT>
0

>  <SCORE.INTER.SOLV>
1.64696

>  <SCORE.INTER.VDW>
-7.49929

>  <SCORE.INTER.norm>
-1.25636

>  <SCORE.INTRA>
0

>  <SCORE.INTRA.DIHEDRAL>
0

>  <SCORE.INTRA.DIHEDRAL.0>
0

>  <SCORE.INTRA.POLAR>
0

>  <SCORE.INTRA.POLAR.0>
0

>  <SCORE.INTRA.REPUL>
0

>  <SCORE.INTRA.REPUL.0>
0

>  <SCORE.INTRA.SOLV>
0

>  <SCORE.INTRA.SOLV.lig_0>
0.449748

>  <SCORE.INTRA.VDW>
0

>  <SCORE.INTRA.VDW.0>
0

>  <SCORE.INTRA.norm>
0

>  <SCORE.RESTR>
0

>  <SCORE.RESTR.CAVITY>
0

>  <SCORE.RESTR.norm>
0

>  <SCORE.SYSTEM>
0

>  <SCORE.SYSTEM.CONST>
0

>  <SCORE.SYSTEM.DIHEDRAL>
0

>  <SCORE.SYSTEM.SOLV>
0

>  <SCORE.SYSTEM.norm>
0

>  <SCORE.heavy>
4

>  <SCORE.norm>
-1.25636

>  <RMSD>
2.115

$$$$
ligand
 OpenBabel11021811493D
libRbt.so/2013.1/901 2013/11/27
  4  3  0  0  0  0  0  0  0  0999 V2000
   36.4681   18.9244    8.5979 C   0  0  0  0  0  0  0  0  0  0  0  0
   36.5364   17.7126    8.2952 O   0  0  0  0  0  0  0  0  0  0  0  0
   36.5127   19.2537   10.0842 C   0  0  0  0  0  0  0  0  0  0  0  0
   36.3606   19.9542    7.7972 O   0  0  0  0  0  0  0  0  0  0  0  0
  1  2  1  0  0  0  0
  1  3  1  0  0  0  0
  1  4  1  0  0  0  0
M  END
>  <CHROM.1>
36.46880731,18.95893242,8.67738511,-2.26597869,-1.48887120,0.98243059

>  <Name>
ligand

>  <RI>
0

>  <Rbt.Current_Directory>
/home/itssahil/PROJECTS/Mol_Feturizer/New_Systems/rnas/4FEN

>  <Rbt.Executable>
rbdock ($Id: //depot/dev/client3/rdock/2013.1/src/exe/rbdock.cxx#4 $)

>  <Rbt.Library>
libRbt.so (2013.1, Build901 2013/11/27)

>  <Rbt.Parameter_File>
/export/apps/rDock/src/rDock_2013.1_src/data/scripts/dock_solv.prm

>  <Rbt.Receptor>
prm/pocket_docking_7.prm

>  <SCORE>
-5.00038

>  <SCORE.INTER>
-5.00038

>  <SCORE.INTER.CONST>
1

>  <SCORE.INTER.POLAR>
0

>  <SCORE.INTER.ROT>
0

>  <SCORE.INTER.SOLV>
1.65741

>  <SCORE.INTER.VDW>
-7.48606

>  <SCORE.INTER.norm>
-1.25009

>  <SCORE.INTRA>
0

>  <SCORE.INTRA.DIHEDRAL>
0

>  <SCORE.INTRA.DIHEDRAL.0>
0

>  <SCORE.INTRA.POLAR>
0

>  <SCORE.INTRA.POLAR.0>
0

>  <SCORE.INTRA.REPUL>
0

>  <SCORE.INTRA.REPUL.0>
0

>  <SCORE.INTRA.SOLV>
0

>  <SCORE.INTRA.SOLV.lig_0>
0.449748

>  <SCORE.INTRA.VDW>
0

>  <SCORE.INTRA.VDW.0>
0

>  <SCORE.INTRA.norm>
0

>  <SCORE.RESTR>
0

>  <SCORE.RESTR.CAVITY>
0

>  <SCORE.RESTR.norm>
0

>  <SCORE.SYSTEM>
0

>  <SCORE.SYSTEM.CONST>
0

>  <SCORE.SYSTEM.DIHEDRAL>
0

>  <SCORE.SYSTEM.SOLV>
0

>  <SCORE.SYSTEM.norm>
0

>  <SCORE.heavy>
4

>  <SCORE.norm>
-1.25009

>  <RMSD>
2.117

$$$$
ligand
 OpenBabel11021811493D
libRbt.so/2013.1/901 2013/11/27
  4  3  0  0  0  0  0  0  0  0999 V2000
   36.4678   18.9186    8.6020 C   0  0  0  0  0  0  0  0  0  0  0  0
   36.5689   17.7066    8.3095 O   0  0  0  0  0  0  0  0  0  0  0  0
   36.4783   19.2591   10.0863 C   0  0  0  0  0  0  0  0  0  0  0  0
   36.3514   19.9400    7.7918 O   0  0  0  0  0  0  0  0  0  0  0  0
  1  2  1  0  0  0  0
  1  3  1  0  0  0  0
  1  4  1  0  0  0  0
M  END
>  <CHROM.1>
36.46632440,18.95365389,8.68115630,-1.97197840,-1.47594140,1.26809885

>  <Name>
ligand

>  <RI>
0

>  <Rbt.Current_Directory>
/home/itssahil/PROJECTS/Mol_Feturizer/New_Systems/rnas/4FEN

>  <Rbt.Executable>
rbdock ($Id: //depot/dev/client3/rdock/2013.1/src/exe/rbdock.cxx#4 $)

>  <Rbt.Library>
libRbt.so (2013.1, Build901 2013/11/27)

>  <Rbt.Parameter_File>
/export/apps/rDock/src/rDock_2013.1_src/data/scripts/dock_solv.prm

>  <Rbt.Receptor>
prm/pocket_docking_4.prm

>  <SCORE>
-5.02395

>  <SCORE.INTER>
-5.02395

>  <SCORE.INTER.CONST>
1

>  <SCORE.INTER.POLAR>
0

>  <SCORE.INTER.ROT>
0

>  <SCORE.INTER.SOLV>
1.64095

>  <SCORE.INTER.VDW>
-7.49628

>  <SCORE.INTER.norm>
-1.25599

>  <SCORE.INTRA>
0

>  <SCORE.INTRA.DIHEDRAL>
0

>  <SCORE.INTRA.DIHEDRAL.0>
0

>  <SCORE.INTRA.POLAR>
0

>  <SCORE.INTRA.POLAR.0>
0

>  <SCORE.INTRA.REPUL>
0

>  <SCORE.INTRA.REPUL.0>
0

>  <SCORE.INTRA.SOLV>
0

>  <SCORE.INTRA.SOLV.lig_0>
0.449748

>  <SCORE.INTRA.VDW>
0

>  <SCORE.INTRA.VDW.0>
0

>  <SCORE.INTRA.norm>
0

>  <SCORE.RESTR>
0

>  <SCORE.RESTR.CAVITY>
0

>  <SCORE.RESTR.norm>
0

>  <SCORE.SYSTEM>
0

>  <SCORE.SYSTEM.CONST>
0

>  <SCORE.SYSTEM.DIHEDRAL>
0

>  <SCORE.SYSTEM.SOLV>
0

>  <SCORE.SYSTEM.norm>
0

>  <SCORE.heavy>
4

>  <SCORE.norm>
-1.25599

>  <RMSD>
2.118

$$$$
ligand
 OpenBabel11021811493D
libRbt.so/2013.1/901 2013/11/27
  4  3  0  0  0  0  0  0  0  0999 V2000
   36.4803   18.9341    8.5838 C   0  0  0  0  0  0  0  0  0  0  0  0
   36.6065   17.7344    8.2529 O   0  0  0  0  0  0  0  0  0  0  0  0
   36.4334   19.2218   10.0786 C   0  0  0  0  0  0  0  0  0  0  0  0
   36.3807   19.9823    7.8063 O   0  0  0  0  0  0  0  0  0  0  0  0
  1  2  1  0  0  0  0
  1  3  1  0  0  0  0
  1  4  1  0  0  0  0
M  END
>  <CHROM.1>
36.47558273,18.96629547,8.66407591,-1.59441804,-1.46788129,1.67916192

>  <Name>
ligand

>  <RI>
0

>  <Rbt.Current_Directory>
/home/itssahil/PROJECTS/Mol_Feturizer/New_Systems/rnas/4FEN

>  <Rbt.Executable>
rbdock ($Id: //depot/dev/client3/rdock/2013.1/src/exe/rbdock.cxx#4 $)

>  <Rbt.Library>
libRbt.so (2013.1, Build901 2013/11/27)

>  <Rbt.Parameter_File>
/export/apps/rDock/src/rDock_2013.1_src/data/scripts/dock_solv.prm

>  <Rbt.Receptor>
prm/pocket_docking_6.prm

>  <SCORE>
-5.00836

>  <SCORE.INTER>
-5.00836

>  <SCORE.INTER.CONST>
1

>  <SCORE.INTER.POLAR>
0

>  <SCORE.INTER.ROT>
0

>  <SCORE.INTER.SOLV>
1.63483

>  <SCORE.INTER.VDW>
-7.48385

>  <SCORE.INTER.norm>
-1.25209

>  <SCORE.INTRA>
0

>  <SCORE.INTRA.DIHEDRAL>
0

>  <SCORE.INTRA.DIHEDRAL.0>
0

>  <SCORE.INTRA.POLAR>
0

>  <SCORE.INTRA.POLAR.0>
0

>  <SCORE.INTRA.REPUL>
0

>  <SCORE.INTRA.REPUL.0>
0

>  <SCORE.INTRA.SOLV>
0

>  <SCORE.INTRA.SOLV.lig_0>
0.449748

>  <SCORE.INTRA.VDW>
0

>  <SCORE.INTRA.VDW.0>
0

>  <SCORE.INTRA.norm>
0

>  <SCORE.RESTR>
0

>  <SCORE.RESTR.CAVITY>
0

>  <SCORE.RESTR.norm>
0

>  <SCORE.SYSTEM>
0

>  <SCORE.SYSTEM.CONST>
0

>  <SCORE.SYSTEM.DIHEDRAL>
0

>  <SCORE.SYSTEM.SOLV>
0

>  <SCORE.SYSTEM.norm>
0

>  <SCORE.heavy>
4

>  <SCORE.norm>
-1.25209

>  <RMSD>
2.120

$$$$
ligand
 OpenBabel11021811493D
libRbt.so/2013.1/901 2013/11/27
  4  3  0  0  0  0  0  0  0  0999 V2000
   36.4858   18.9000    8.5940 C   0  0  0  0  0  0  0  0  0  0  0  0
   36.6200   17.6889    8.3111 O   0  0  0  0  0  0  0  0  0  0  0  0
   36.4537   19.2486   10.0762 C   0  0  0  0  0  0  0  0  0  0  0  0
   36.3664   19.9143    7.7754 O   0  0  0  0  0  0  0  0  0  0  0  0
  1  2  1  0  0  0  0
  1  3  1  0  0  0  0
  1  4  1  0  0  0  0
M  END
>  <CHROM.1>
36.48163282,18.93542106,8.67292177,-1.70952975,-1.45848470,1.52355809

>  <Name>
ligand

>  <RI>
0

>  <Rbt.Current_Directory>
/home/itssahil/PROJECTS/Mol_Feturizer/New_Systems/rnas/4FEN

>  <Rbt.Executable>
rbdock ($Id: //depot/dev/client3/rdock/2013.1/src/exe/rbdock.cxx#4 $)

>  <Rbt.Library>
libRbt.so (2013.1, Build901 2013/11/27)

>  <Rbt.Parameter_File>
/export/apps/rDock/src/rDock_2013.1_src/data/scripts/dock_solv.prm

>  <Rbt.Receptor>
prm/pocket_docking_4.prm

>  <SCORE>
-5.00712

>  <SCORE.INTER>
-5.00712

>  <SCORE.INTER.CONST>
1

>  <SCORE.INTER.POLAR>
0

>  <SCORE.INTER.ROT>
0

>  <SCORE.INTER.SOLV>
1.63091

>  <SCORE.INTER.VDW>
-7.48172

>  <SCORE.INTER.norm>
-1.25178

>  <SCORE.INTRA>
0

>  <SCORE.INTRA.DIHEDRAL>
0

>  <SCORE.INTRA.DIHEDRAL.0>
0

>  <SCORE.INTRA.POLAR>
0

>  <SCORE.INTRA.POLAR.0>
0

>  <SCORE.INTRA.REPUL>
0

>  <SCORE.INTRA.REPUL.0>
0

>  <SCORE.INTRA.SOLV>
0

>  <SCORE.INTRA.SOLV.lig_0>
0.449748

>  <SCORE.INTRA.VDW>
0

>  <SCORE.INTRA.VDW.0>
0

>  <SCORE.INTRA.norm>
0

>  <SCORE.RESTR>
0

>  <SCORE.RESTR.CAVITY>
0

>  <SCORE.RESTR.norm>
0

>  <SCORE.SYSTEM>
0

>  <SCORE.SYSTEM.CONST>
0

>  <SCORE.SYSTEM.DIHEDRAL>
0

>  <SCORE.SYSTEM.SOLV>
0

>  <SCORE.SYSTEM.norm>
0

>  <SCORE.heavy>
4

>  <SCORE.norm>
-1.25178

>  <RMSD>
2.139

$$$$
ligand
 OpenBabel11021811493D
libRbt.so/2013.1/901 2013/11/27
  4  3  0  0  0  0  0  0  0  0999 V2000
   36.4445   18.9936    8.5270 C   0  0  0  0  0  0  0  0  0  0  0  0
   36.2958   19.9993    7.7981 O   0  0  0  0  0  0  0  0  0  0  0  0
   36.4615   19.2437   10.0291 C   0  0  0  0  0  0  0  0  0  0  0  0
   36.5904   17.7447    8.1635 O   0  0  0  0  0  0  0  0  0  0  0  0
  1  2  1  0  0  0  0
  1  3  1  0  0  0  0
  1  4  1  0  0  0  0
M  END
>  <CHROM.1>
36.44805121,18.99137260,8.61348822,1.33060927,1.44201581,-1.81858761

>  <Name>
ligand

>  <RI>
0

>  <Rbt.Current_Directory>
/home/itssahil/PROJECTS/Mol_Feturizer/New_Systems/rnas/4FEN

>  <Rbt.Executable>
rbdock ($Id: //depot/dev/client3/rdock/2013.1/src/exe/rbdock.cxx#4 $)

>  <Rbt.Library>
libRbt.so (2013.1, Build901 2013/11/27)

>  <Rbt.Parameter_File>
/export/apps/rDock/src/rDock_2013.1_src/data/scripts/dock_solv.prm

>  <Rbt.Receptor>
prm/pocket_docking_5.prm

>  <SCORE>
-5.02143

>  <SCORE.INTER>
-5.02143

>  <SCORE.INTER.CONST>
1

>  <SCORE.INTER.POLAR>
0

>  <SCORE.INTER.ROT>
0

>  <SCORE.INTER.SOLV>
1.70661

>  <SCORE.INTER.VDW>
-7.51649

>  <SCORE.INTER.norm>
-1.25536

>  <SCORE.INTRA>
0

>  <SCORE.INTRA.DIHEDRAL>
0

>  <SCORE.INTRA.DIHEDRAL.0>
0

>  <SCORE.INTRA.POLAR>
0

>  <SCORE.INTRA.POLAR.0>
0

>  <SCORE.INTRA.REPUL>
0

>  <SCORE.INTRA.REPUL.0>
0

>  <SCORE.INTRA.SOLV>
0

>  <SCORE.INTRA.SOLV.lig_0>
0.449748

>  <SCORE.INTRA.VDW>
0

>  <SCORE.INTRA.VDW.0>
0

>  <SCORE.INTRA.norm>
0

>  <SCORE.RESTR>
0

>  <SCORE.RESTR.CAVITY>
0

>  <SCORE.RESTR.norm>
0

>  <SCORE.SYSTEM>
0

>  <SCORE.SYSTEM.CONST>
0

>  <SCORE.SYSTEM.DIHEDRAL>
0

>  <SCORE.SYSTEM.SOLV>
0

>  <SCORE.SYSTEM.norm>
0

>  <SCORE.heavy>
4

>  <SCORE.norm>
-1.25536

>  <RMSD>
2.145

$$$$
ligand
 OpenBabel11021811493D
libRbt.so/2013.1/901 2013/11/27
  4  3  0  0  0  0  0  0  0  0999 V2000
   36.4777   18.9634    8.5462 C   0  0  0  0  0  0  0  0  0  0  0  0
   36.2772   19.9687    7.8294 O   0  0  0  0  0  0  0  0  0  0  0  0
   36.5161   19.2018   10.0499 C   0  0  0  0  0  0  0  0  0  0  0  0
   36.6621   17.7236    8.1689 O   0  0  0  0  0  0  0  0  0  0  0  0
  1  2  1  0  0  0  0
  1  3  1  0  0  0  0
  1  4  1  0  0  0  0
M  END
>  <CHROM.1>
36.48308323,18.96057061,8.63261603,1.39422778,1.40094537,-1.87306308

>  <Name>
ligand

>  <RI>
0

>  <Rbt.Current_Directory>
/home/itssahil/PROJECTS/Mol_Feturizer/New_Systems/rnas/4FEN

>  <Rbt.Executable>
rbdock ($Id: //depot/dev/client3/rdock/2013.1/src/exe/rbdock.cxx#4 $)

>  <Rbt.Library>
libRbt.so (2013.1, Build901 2013/11/27)

>  <Rbt.Parameter_File>
/export/apps/rDock/src/rDock_2013.1_src/data/scripts/dock_solv.prm

>  <Rbt.Receptor>
prm/pocket_docking_6.prm

>  <SCORE>
-5.01429

>  <SCORE.INTER>
-5.01429

>  <SCORE.INTER.CONST>
1

>  <SCORE.INTER.POLAR>
0

>  <SCORE.INTER.ROT>
0

>  <SCORE.INTER.SOLV>
1.70129

>  <SCORE.INTER.VDW>
-7.50996

>  <SCORE.INTER.norm>
-1.25357

>  <SCORE.INTRA>
0

>  <SCORE.INTRA.DIHEDRAL>
0

>  <SCORE.INTRA.DIHEDRAL.0>
0

>  <SCORE.INTRA.POLAR>
0

>  <SCORE.INTRA.POLAR.0>
0

>  <SCORE.INTRA.REPUL>
0

>  <SCORE.INTRA.REPUL.0>
0

>  <SCORE.INTRA.SOLV>
0

>  <SCORE.INTRA.SOLV.lig_0>
0.449748

>  <SCORE.INTRA.VDW>
0

>  <SCORE.INTRA.VDW.0>
0

>  <SCORE.INTRA.norm>
0

>  <SCORE.RESTR>
0

>  <SCORE.RESTR.CAVITY>
0

>  <SCORE.RESTR.norm>
0

>  <SCORE.SYSTEM>
0

>  <SCORE.SYSTEM.CONST>
0

>  <SCORE.SYSTEM.DIHEDRAL>
0

>  <SCORE.SYSTEM.SOLV>
0

>  <SCORE.SYSTEM.norm>
0

>  <SCORE.heavy>
4

>  <SCORE.norm>
-1.25357

>  <RMSD>
2.148

$$$$
ligand
 OpenBabel11021811493D
libRbt.so/2013.1/901 2013/11/27
  4  3  0  0  0  0  0  0  0  0999 V2000
   36.4715   18.9820    8.5333 C   0  0  0  0  0  0  0  0  0  0  0  0
   36.3113   19.9900    7.8101 O   0  0  0  0  0  0  0  0  0  0  0  0
   36.4784   19.2228   10.0371 C   0  0  0  0  0  0  0  0  0  0  0  0
   36.6370   17.7376    8.1627 O   0  0  0  0  0  0  0  0  0  0  0  0
  1  2  1  0  0  0  0
  1  3  1  0  0  0  0
  1  4  1  0  0  0  0
M  END
>  <CHROM.1>
36.47470249,18.97923896,8.61981784,1.27643666,1.42881695,-1.75861088

>  <Name>
ligand

>  <RI>
0

>  <Rbt.Current_Directory>
/home/itssahil/PROJECTS/Mol_Feturizer/New_Systems/rnas/4FEN

>  <Rbt.Executable>
rbdock ($Id: //depot/dev/client3/rdock/2013.1/src/exe/rbdock.cxx#4 $)

>  <Rbt.Library>
libRbt.so (2013.1, Build901 2013/11/27)

>  <Rbt.Parameter_File>
/export/apps/rDock/src/rDock_2013.1_src/data/scripts/dock_solv.prm

>  <Rbt.Receptor>
prm/pocket_docking_6.prm

>  <SCORE>
-5.03305

>  <SCORE.INTER>
-5.03305

>  <SCORE.INTER.CONST>
1

>  <SCORE.INTER.POLAR>
0

>  <SCORE.INTER.ROT>
0

>  <SCORE.INTER.SOLV>
1.6995

>  <SCORE.INTER.VDW>
-7.52186

>  <SCORE.INTER.norm>
-1.25826

>  <SCORE.INTRA>
0

>  <SCORE.INTRA.DIHEDRAL>
0

>  <SCORE.INTRA.DIHEDRAL.0>
0

>  <SCORE.INTRA.POLAR>
0

>  <SCORE.INTRA.POLAR.0>
0

>  <SCORE.INTRA.REPUL>
0

>  <SCORE.INTRA.REPUL.0>
0

>  <SCORE.INTRA.SOLV>
0

>  <SCORE.INTRA.SOLV.lig_0>
0.449748

>  <SCORE.INTRA.VDW>
0

>  <SCORE.INTRA.VDW.0>
0

>  <SCORE.INTRA.norm>
0

>  <SCORE.RESTR>
0

>  <SCORE.RESTR.CAVITY>
0

>  <SCORE.RESTR.norm>
0

>  <SCORE.SYSTEM>
0

>  <SCORE.SYSTEM.CONST>
0

>  <SCORE.SYSTEM.DIHEDRAL>
0

>  <SCORE.SYSTEM.SOLV>
0

>  <SCORE.SYSTEM.norm>
0

>  <SCORE.heavy>
4

>  <SCORE.norm>
-1.25826

>  <RMSD>
2.149

$$$$
ligand
 OpenBabel11021811493D
libRbt.so/2013.1/901 2013/11/27
  4  3  0  0  0  0  0  0  0  0999 V2000
   36.4668   18.9264    8.5446 C   0  0  0  0  0  0  0  0  0  0  0  0
   36.5970   17.7318    8.1969 O   0  0  0  0  0  0  0  0  0  0  0  0
   36.4823   19.2001   10.0427 C   0  0  0  0  0  0  0  0  0  0  0  0
   36.3158   19.9797    7.7824 O   0  0  0  0  0  0  0  0  0  0  0  0
  1  2  1  0  0  0  0
  1  3  1  0  0  0  0
  1  4  1  0  0  0  0
M  END
>  <CHROM.1>
36.46513224,18.95779156,8.62532009,-1.98139863,-1.44796593,1.30380323

>  <Name>
ligand

>  <RI>
0

>  <Rbt.Current_Directory>
/home/itssahil/PROJECTS/Mol_Feturizer/New_Systems/rnas/4FEN

>  <Rbt.Executable>
rbdock ($Id: //depot/dev/client3/rdock/2013.1/src/exe/rbdock.cxx#4 $)

>  <Rbt.Library>
libRbt.so (2013.1, Build901 2013/11/27)

>  <Rbt.Parameter_File>
/export/apps/rDock/src/rDock_2013.1_src/data/scripts/dock_solv.prm

>  <Rbt.Receptor>
prm/pocket_docking_5.prm

>  <SCORE>
-5.03151

>  <SCORE.INTER>
-5.03151

>  <SCORE.INTER.CONST>
1

>  <SCORE.INTER.POLAR>
0

>  <SCORE.INTER.ROT>
0

>  <SCORE.INTER.SOLV>
1.69295

>  <SCORE.INTER.VDW>
-7.51866

>  <SCORE.INTER.norm>
-1.25788

>  <SCORE.INTRA>
0

>  <SCORE.INTRA.DIHEDRAL>
0

>  <SCORE.INTRA.DIHEDRAL.0>
0

>  <SCORE.INTRA.POLAR>
0

>  <SCORE.INTRA.POLAR.0>
0

>  <SCORE.INTRA.REPUL>
0

>  <SCORE.INTRA.REPUL.0>
0

>  <SCORE.INTRA.SOLV>
0

>  <SCORE.INTRA.SOLV.lig_0>
0.449748

>  <SCORE.INTRA.VDW>
0

>  <SCORE.INTRA.VDW.0>
0

>  <SCORE.INTRA.norm>
0

>  <SCORE.RESTR>
0

>  <SCORE.RESTR.CAVITY>
0

>  <SCORE.RESTR.norm>
0

>  <SCORE.SYSTEM>
0

>  <SCORE.SYSTEM.CONST>
0

>  <SCORE.SYSTEM.DIHEDRAL>
0

>  <SCORE.SYSTEM.SOLV>
0

>  <SCORE.SYSTEM.norm>
0

>  <SCORE.heavy>
4

>  <SCORE.norm>
-1.25788

>  <RMSD>
2.153

$$$$
ligand
 OpenBabel11021811493D
libRbt.so/2013.1/901 2013/11/27
  4  3  0  0  0  0  0  0  0  0999 V2000
   36.4538   18.9564    8.5228 C   0  0  0  0  0  0  0  0  0  0  0  0
   36.5988   17.7667    8.1647 O   0  0  0  0  0  0  0  0  0  0  0  0
   36.4222   19.2116   10.0239 C   0  0  0  0  0  0  0  0  0  0  0  0
   36.3227   20.0186    7.7693 O   0  0  0  0  0  0  0  0  0  0  0  0
  1  2  1  0  0  0  0
  1  3  1  0  0  0  0
  1  4  1  0  0  0  0
M  END
>  <CHROM.1>
36.44951506,18.98682546,8.60381712,-1.72668681,-1.44886953,1.56892898

>  <Name>
ligand

>  <RI>
0

>  <Rbt.Current_Directory>
/home/itssahil/PROJECTS/Mol_Feturizer/New_Systems/rnas/4FEN

>  <Rbt.Executable>
rbdock ($Id: //depot/dev/client3/rdock/2013.1/src/exe/rbdock.cxx#4 $)

>  <Rbt.Library>
libRbt.so (2013.1, Build901 2013/11/27)

>  <Rbt.Parameter_File>
/export/apps/rDock/src/rDock_2013.1_src/data/scripts/dock_solv.prm

>  <Rbt.Receptor>
prm/pocket_docking_5.prm

>  <SCORE>
-5.02161

>  <SCORE.INTER>
-5.02161

>  <SCORE.INTER.CONST>
1

>  <SCORE.INTER.POLAR>
0

>  <SCORE.INTER.ROT>
0

>  <SCORE.INTER.SOLV>
1.69091

>  <SCORE.INTER.VDW>
-7.51138

>  <SCORE.INTER.norm>
-1.2554

>  <SCORE.INTRA>
0

>  <SCORE.INTRA.DIHEDRAL>
0

>  <SCORE.INTRA.DIHEDRAL.0>
0

>  <SCORE.INTRA.POLAR>
0

>  <SCORE.INTRA.POLAR.0>
0

>  <SCORE.INTRA.REPUL>
0

>  <SCORE.INTRA.REPUL.0>
0

>  <SCORE.INTRA.SOLV>
0

>  <SCORE.INTRA.SOLV.lig_0>
0.449748

>  <SCORE.INTRA.VDW>
0

>  <SCORE.INTRA.VDW.0>
0

>  <SCORE.INTRA.norm>
0

>  <SCORE.RESTR>
0

>  <SCORE.RESTR.CAVITY>
0

>  <SCORE.RESTR.norm>
0

>  <SCORE.SYSTEM>
0

>  <SCORE.SYSTEM.CONST>
0

>  <SCORE.SYSTEM.DIHEDRAL>
0

>  <SCORE.SYSTEM.SOLV>
0

>  <SCORE.SYSTEM.norm>
0

>  <SCORE.heavy>
4

>  <SCORE.norm>
-1.2554

>  <RMSD>
2.154

$$$$
ligand
 OpenBabel11021811493D
libRbt.so/2013.1/901 2013/11/27
  4  3  0  0  0  0  0  0  0  0999 V2000
   36.4709   18.9850    8.5279 C   0  0  0  0  0  0  0  0  0  0  0  0
   36.3107   19.9850    7.7936 O   0  0  0  0  0  0  0  0  0  0  0  0
   36.4591   19.2398   10.0293 C   0  0  0  0  0  0  0  0  0  0  0  0
   36.6508   17.7387    8.1708 O   0  0  0  0  0  0  0  0  0  0  0  0
  1  2  1  0  0  0  0
  1  3  1  0  0  0  0
  1  4  1  0  0  0  0
M  END
>  <CHROM.1>
36.47322540,18.98313640,8.61446157,1.19159377,1.42238028,-1.68397305

>  <Name>
ligand

>  <RI>
0

>  <Rbt.Current_Directory>
/home/itssahil/PROJECTS/Mol_Feturizer/New_Systems/rnas/4FEN

>  <Rbt.Executable>
rbdock ($Id: //depot/dev/client3/rdock/2013.1/src/exe/rbdock.cxx#4 $)

>  <Rbt.Library>
libRbt.so (2013.1, Build901 2013/11/27)

>  <Rbt.Parameter_File>
/export/apps/rDock/src/rDock_2013.1_src/data/scripts/dock_solv.prm

>  <Rbt.Receptor>
prm/pocket_docking_8.prm

>  <SCORE>
-5.03499

>  <SCORE.INTER>
-5.03499

>  <SCORE.INTER.CONST>
1

>  <SCORE.INTER.POLAR>
0

>  <SCORE.INTER.ROT>
0

>  <SCORE.INTER.SOLV>
1.69681

>  <SCORE.INTER.VDW>
-7.52226

>  <SCORE.INTER.norm>
-1.25875

>  <SCORE.INTRA>
0

>  <SCORE.INTRA.DIHEDRAL>
0

>  <SCORE.INTRA.DIHEDRAL.0>
0

>  <SCORE.INTRA.POLAR>
0

>  <SCORE.INTRA.POLAR.0>
0

>  <SCORE.INTRA.REPUL>
0

>  <SCORE.INTRA.REPUL.0>
0

>  <SCORE.INTRA.SOLV>
0

>  <SCORE.INTRA.SOLV.lig_0>
0.449748

>  <SCORE.INTRA.VDW>
0

>  <SCORE.INTRA.VDW.0>
0

>  <SCORE.INTRA.norm>
0

>  <SCORE.RESTR>
0

>  <SCORE.RESTR.CAVITY>
0

>  <SCORE.RESTR.norm>
0

>  <SCORE.SYSTEM>
0

>  <SCORE.SYSTEM.CONST>
0

>  <SCORE.SYSTEM.DIHEDRAL>
0

>  <SCORE.SYSTEM.SOLV>
0

>  <SCORE.SYSTEM.norm>
0

>  <SCORE.heavy>
4

>  <SCORE.norm>
-1.25875

>  <RMSD>
2.154

$$$$
ligand
 OpenBabel11021811493D
libRbt.so/2013.1/901 2013/11/27
  4  3  0  0  0  0  0  0  0  0999 V2000
   36.4595   18.9929    8.5194 C   0  0  0  0  0  0  0  0  0  0  0  0
   36.2956   19.9963    7.7907 O   0  0  0  0  0  0  0  0  0  0  0  0
   36.4314   19.2368   10.0224 C   0  0  0  0  0  0  0  0  0  0  0  0
   36.6556   17.7511    8.1551 O   0  0  0  0  0  0  0  0  0  0  0  0
  1  2  1  0  0  0  0
  1  3  1  0  0  0  0
  1  4  1  0  0  0  0
M  END
>  <CHROM.1>
36.46106378,18.99039994,8.60593983,1.12657150,1.41269787,-1.61258898

>  <Name>
ligand

>  <RI>
0

>  <Rbt.Current_Directory>
/home/itssahil/PROJECTS/Mol_Feturizer/New_Systems/rnas/4FEN

>  <Rbt.Executable>
rbdock ($Id: //depot/dev/client3/rdock/2013.1/src/exe/rbdock.cxx#4 $)

>  <Rbt.Library>
libRbt.so (2013.1, Build901 2013/11/27)

>  <Rbt.Parameter_File>
/export/apps/rDock/src/rDock_2013.1_src/data/scripts/dock_solv.prm

>  <Rbt.Receptor>
prm/pocket_docking_6.prm

>  <SCORE>
-5.03586

>  <SCORE.INTER>
-5.03586

>  <SCORE.INTER.CONST>
1

>  <SCORE.INTER.POLAR>
0

>  <SCORE.INTER.ROT>
0

>  <SCORE.INTER.SOLV>
1.69605

>  <SCORE.INTER.VDW>
-7.52259

>  <SCORE.INTER.norm>
-1.25896

>  <SCORE.INTRA>
0

>  <SCORE.INTRA.DIHEDRAL>
0

>  <SCORE.INTRA.DIHEDRAL.0>
0

>  <SCORE.INTRA.POLAR>
0

>  <SCORE.INTRA.POLAR.0>
0

>  <SCORE.INTRA.REPUL>
0

>  <SCORE.INTRA.REPUL.0>
0

>  <SCORE.INTRA.SOLV>
0

>  <SCORE.INTRA.SOLV.lig_0>
0.449748

>  <SCORE.INTRA.VDW>
0

>  <SCORE.INTRA.VDW.0>
0

>  <SCORE.INTRA.norm>
0

>  <SCORE.RESTR>
0

>  <SCORE.RESTR.CAVITY>
0

>  <SCORE.RESTR.norm>
0

>  <SCORE.SYSTEM>
0

>  <SCORE.SYSTEM.CONST>
0

>  <SCORE.SYSTEM.DIHEDRAL>
0

>  <SCORE.SYSTEM.SOLV>
0

>  <SCORE.SYSTEM.norm>
0

>  <SCORE.heavy>
4

>  <SCORE.norm>
-1.25896

>  <RMSD>
2.155

$$$$
ligand
 OpenBabel11021811493D
libRbt.so/2013.1/901 2013/11/27
  4  3  0  0  0  0  0  0  0  0999 V2000
   36.4723   18.9617    8.5384 C   0  0  0  0  0  0  0  0  0  0  0  0
   36.2890   19.9616    7.8095 O   0  0  0  0  0  0  0  0  0  0  0  0
   36.4828   19.2128   10.0405 C   0  0  0  0  0  0  0  0  0  0  0  0
   36.6596   17.7183    8.1752 O   0  0  0  0  0  0  0  0  0  0  0  0
  1  2  1  0  0  0  0
  1  3  1  0  0  0  0
  1  4  1  0  0  0  0
M  END
>  <CHROM.1>
36.47604898,18.95966802,8.62494523,1.28723479,1.40899235,-1.77600318

>  <Name>
ligand

>  <RI>
0

>  <Rbt.Current_Directory>
/home/itssahil/PROJECTS/Mol_Feturizer/New_Systems/rnas/4FEN

>  <Rbt.Executable>
rbdock ($Id: //depot/dev/client3/rdock/2013.1/src/exe/rbdock.cxx#4 $)

>  <Rbt.Library>
libRbt.so (2013.1, Build901 2013/11/27)

>  <Rbt.Parameter_File>
/export/apps/rDock/src/rDock_2013.1_src/data/scripts/dock_solv.prm

>  <Rbt.Receptor>
prm/pocket_docking_8.prm

>  <SCORE>
-5.01882

>  <SCORE.INTER>
-5.01882

>  <SCORE.INTER.CONST>
1

>  <SCORE.INTER.POLAR>
0

>  <SCORE.INTER.ROT>
0

>  <SCORE.INTER.SOLV>
1.696

>  <SCORE.INTER.VDW>
-7.51122

>  <SCORE.INTER.norm>
-1.25471

>  <SCORE.INTRA>
0

>  <SCORE.INTRA.DIHEDRAL>
0

>  <SCORE.INTRA.DIHEDRAL.0>
0

>  <SCORE.INTRA.POLAR>
0

>  <SCORE.INTRA.POLAR.0>
0

>  <SCORE.INTRA.REPUL>
0

>  <SCORE.INTRA.REPUL.0>
0

>  <SCORE.INTRA.SOLV>
0

>  <SCORE.INTRA.SOLV.lig_0>
0.449748

>  <SCORE.INTRA.VDW>
0

>  <SCORE.INTRA.VDW.0>
0

>  <SCORE.INTRA.norm>
0

>  <SCORE.RESTR>
0

>  <SCORE.RESTR.CAVITY>
0

>  <SCORE.RESTR.norm>
0

>  <SCORE.SYSTEM>
0

>  <SCORE.SYSTEM.CONST>
0

>  <SCORE.SYSTEM.DIHEDRAL>
0

>  <SCORE.SYSTEM.SOLV>
0

>  <SCORE.SYSTEM.norm>
0

>  <SCORE.heavy>
4

>  <SCORE.norm>
-1.25471

>  <RMSD>
2.155

$$$$
ligand
 OpenBabel11021811493D
libRbt.so/2013.1/901 2013/11/27
  4  3  0  0  0  0  0  0  0  0999 V2000
   36.4778   18.9327    8.5398 C   0  0  0  0  0  0  0  0  0  0  0  0
   36.6365   17.7449    8.1811 O   0  0  0  0  0  0  0  0  0  0  0  0
   36.4701   19.1904   10.0408 C   0  0  0  0  0  0  0  0  0  0  0  0
   36.3143   19.9910    7.7871 O   0  0  0  0  0  0  0  0  0  0  0  0
  1  2  1  0  0  0  0
  1  3  1  0  0  0  0
  1  4  1  0  0  0  0
M  END
>  <CHROM.1>
36.47453743,18.96324653,8.62085149,-1.86128061,-1.43034892,1.43361442

>  <Name>
ligand

>  <RI>
0

>  <Rbt.Current_Directory>
/home/itssahil/PROJECTS/Mol_Feturizer/New_Systems/rnas/4FEN

>  <Rbt.Executable>
rbdock ($Id: //depot/dev/client3/rdock/2013.1/src/exe/rbdock.cxx#4 $)

>  <Rbt.Library>
libRbt.so (2013.1, Build901 2013/11/27)

>  <Rbt.Parameter_File>
/export/apps/rDock/src/rDock_2013.1_src/data/scripts/dock_solv.prm

>  <Rbt.Receptor>
prm/pocket_docking_8.prm

>  <SCORE>
-5.03702

>  <SCORE.INTER>
-5.03702

>  <SCORE.INTER.CONST>
1

>  <SCORE.INTER.POLAR>
0

>  <SCORE.INTER.ROT>
0

>  <SCORE.INTER.SOLV>
1.68897

>  <SCORE.INTER.VDW>
-7.52101

>  <SCORE.INTER.norm>
-1.25926

>  <SCORE.INTRA>
0

>  <SCORE.INTRA.DIHEDRAL>
0

>  <SCORE.INTRA.DIHEDRAL.0>
0

>  <SCORE.INTRA.POLAR>
0

>  <SCORE.INTRA.POLAR.0>
0

>  <SCORE.INTRA.REPUL>
0

>  <SCORE.INTRA.REPUL.0>
0

>  <SCORE.INTRA.SOLV>
0

>  <SCORE.INTRA.SOLV.lig_0>
0.449748

>  <SCORE.INTRA.VDW>
0

>  <SCORE.INTRA.VDW.0>
0

>  <SCORE.INTRA.norm>
0

>  <SCORE.RESTR>
0

>  <SCORE.RESTR.CAVITY>
0

>  <SCORE.RESTR.norm>
0

>  <SCORE.SYSTEM>
0

>  <SCORE.SYSTEM.CONST>
0

>  <SCORE.SYSTEM.DIHEDRAL>
0

>  <SCORE.SYSTEM.SOLV>
0

>  <SCORE.SYSTEM.norm>
0

>  <SCORE.heavy>
4

>  <SCORE.norm>
-1.25926

>  <RMSD>
2.155

$$$$
ligand
 OpenBabel11021811493D
libRbt.so/2013.1/901 2013/11/27
  4  3  0  0  0  0  0  0  0  0999 V2000
   36.4656   18.9357    8.5340 C   0  0  0  0  0  0  0  0  0  0  0  0
   36.5991   17.7419    8.1848 O   0  0  0  0  0  0  0  0  0  0  0  0
   36.4461   19.2036   10.0330 C   0  0  0  0  0  0  0  0  0  0  0  0
   36.3375   19.9926    7.7725 O   0  0  0  0  0  0  0  0  0  0  0  0
  1  2  1  0  0  0  0
  1  3  1  0  0  0  0
  1  4  1  0  0  0  0
M  END
>  <CHROM.1>
36.46207193,18.96679973,8.61472030,-1.78622043,-1.45624315,1.50149471

>  <Name>
ligand

>  <RI>
0

>  <Rbt.Current_Directory>
/home/itssahil/PROJECTS/Mol_Feturizer/New_Systems/rnas/4FEN

>  <Rbt.Executable>
rbdock ($Id: //depot/dev/client3/rdock/2013.1/src/exe/rbdock.cxx#4 $)

>  <Rbt.Library>
libRbt.so (2013.1, Build901 2013/11/27)

>  <Rbt.Parameter_File>
/export/apps/rDock/src/rDock_2013.1_src/data/scripts/dock_solv.prm

>  <Rbt.Receptor>
prm/pocket_docking_5.prm

>  <SCORE>
-5.02542

>  <SCORE.INTER>
-5.02542

>  <SCORE.INTER.CONST>
1

>  <SCORE.INTER.POLAR>
0

>  <SCORE.INTER.ROT>
0

>  <SCORE.INTER.SOLV>
1.68712

>  <SCORE.INTER.VDW>
-7.51265

>  <SCORE.INTER.norm>
-1.25635

>  <SCORE.INTRA>
0

>  <SCORE.INTRA.DIHEDRAL>
0

>  <SCORE.INTRA.DIHEDRAL.0>
0

>  <SCORE.INTRA.POLAR>
0

>  <SCORE.INTRA.POLAR.0>
0

>  <SCORE.INTRA.REPUL>
0

>  <SCORE.INTRA.REPUL.0>
0

>  <SCORE.INTRA.SOLV>
0

>  <SCORE.INTRA.SOLV.lig_0>
0.449748

>  <SCORE.INTRA.VDW>
0

>  <SCORE.INTRA.VDW.0>
0

>  <SCORE.INTRA.norm>
0

>  <SCORE.RESTR>
0

>  <SCORE.RESTR.CAVITY>
0

>  <SCORE.RESTR.norm>
0

>  <SCORE.SYSTEM>
0

>  <SCORE.SYSTEM.CONST>
0

>  <SCORE.SYSTEM.DIHEDRAL>
0

>  <SCORE.SYSTEM.SOLV>
0

>  <SCORE.SYSTEM.norm>
0

>  <SCORE.heavy>
4

>  <SCORE.norm>
-1.25635

>  <RMSD>
2.157

$$$$
ligand
 OpenBabel11021811493D
libRbt.so/2013.1/901 2013/11/27
  4  3  0  0  0  0  0  0  0  0999 V2000
   36.4743   18.9219    8.5415 C   0  0  0  0  0  0  0  0  0  0  0  0
   36.6313   17.7312    8.1919 O   0  0  0  0  0  0  0  0  0  0  0  0
   36.4687   19.1914   10.0404 C   0  0  0  0  0  0  0  0  0  0  0  0
   36.3110   19.9744    7.7807 O   0  0  0  0  0  0  0  0  0  0  0  0
  1  2  1  0  0  0  0
  1  3  1  0  0  0  0
  1  4  1  0  0  0  0
M  END
>  <CHROM.1>
36.47116712,18.95305997,8.62228268,-1.87143190,-1.43122899,1.41572932

>  <Name>
ligand

>  <RI>
0

>  <Rbt.Current_Directory>
/home/itssahil/PROJECTS/Mol_Feturizer/New_Systems/rnas/4FEN

>  <Rbt.Executable>
rbdock ($Id: //depot/dev/client3/rdock/2013.1/src/exe/rbdock.cxx#4 $)

>  <Rbt.Library>
libRbt.so (2013.1, Build901 2013/11/27)

>  <Rbt.Parameter_File>
/export/apps/rDock/src/rDock_2013.1_src/data/scripts/dock_solv.prm

>  <Rbt.Receptor>
prm/pocket_docking_6.prm

>  <SCORE>
-5.03728

>  <SCORE.INTER>
-5.03728

>  <SCORE.INTER.CONST>
1

>  <SCORE.INTER.POLAR>
0

>  <SCORE.INTER.ROT>
0

>  <SCORE.INTER.SOLV>
1.68774

>  <SCORE.INTER.VDW>
-7.52077

>  <SCORE.INTER.norm>
-1.25932

>  <SCORE.INTRA>
0

>  <SCORE.INTRA.DIHEDRAL>
0

>  <SCORE.INTRA.DIHEDRAL.0>
0

>  <SCORE.INTRA.POLAR>
0

>  <SCORE.INTRA.POLAR.0>
0

>  <SCORE.INTRA.REPUL>
0

>  <SCORE.INTRA.REPUL.0>
0

>  <SCORE.INTRA.SOLV>
0

>  <SCORE.INTRA.SOLV.lig_0>
0.449748

>  <SCORE.INTRA.VDW>
0

>  <SCORE.INTRA.VDW.0>
0

>  <SCORE.INTRA.norm>
0

>  <SCORE.RESTR>
0

>  <SCORE.RESTR.CAVITY>
0

>  <SCORE.RESTR.norm>
0

>  <SCORE.SYSTEM>
0

>  <SCORE.SYSTEM.CONST>
0

>  <SCORE.SYSTEM.DIHEDRAL>
0

>  <SCORE.SYSTEM.SOLV>
0

>  <SCORE.SYSTEM.norm>
0

>  <SCORE.heavy>
4

>  <SCORE.norm>
-1.25932

>  <RMSD>
2.159

$$$$
ligand
 OpenBabel11021811493D
libRbt.so/2013.1/901 2013/11/27
  4  3  0  0  0  0  0  0  0  0999 V2000
   36.4702   18.9443    8.5364 C   0  0  0  0  0  0  0  0  0  0  0  0
   36.3563   19.9525    7.8048 O   0  0  0  0  0  0  0  0  0  0  0  0
   36.4615   19.1945   10.0386 C   0  0  0  0  0  0  0  0  0  0  0  0
   36.5990   17.6926    8.1759 O   0  0  0  0  0  0  0  0  0  0  0  0
  1  2  1  0  0  0  0
  1  3  1  0  0  0  0
  1  4  1  0  0  0  0
M  END
>  <CHROM.1>
36.47201959,18.94203319,8.62298283,1.18852312,1.46503222,-1.67756680

>  <Name>
ligand

>  <RI>
0

>  <Rbt.Current_Directory>
/home/itssahil/PROJECTS/Mol_Feturizer/New_Systems/rnas/4FEN

>  <Rbt.Executable>
rbdock ($Id: //depot/dev/client3/rdock/2013.1/src/exe/rbdock.cxx#4 $)

>  <Rbt.Library>
libRbt.so (2013.1, Build901 2013/11/27)

>  <Rbt.Parameter_File>
/export/apps/rDock/src/rDock_2013.1_src/data/scripts/dock_solv.prm

>  <Rbt.Receptor>
prm/pocket_docking_5.prm

>  <SCORE>
-5.01981

>  <SCORE.INTER>
-5.01981

>  <SCORE.INTER.CONST>
1

>  <SCORE.INTER.POLAR>
0

>  <SCORE.INTER.ROT>
0

>  <SCORE.INTER.SOLV>
1.68524

>  <SCORE.INTER.VDW>
-7.50829

>  <SCORE.INTER.norm>
-1.25495

>  <SCORE.INTRA>
0

>  <SCORE.INTRA.DIHEDRAL>
0

>  <SCORE.INTRA.DIHEDRAL.0>
0

>  <SCORE.INTRA.POLAR>
0

>  <SCORE.INTRA.POLAR.0>
0

>  <SCORE.INTRA.REPUL>
0

>  <SCORE.INTRA.REPUL.0>
0

>  <SCORE.INTRA.SOLV>
0

>  <SCORE.INTRA.SOLV.lig_0>
0.449748

>  <SCORE.INTRA.VDW>
0

>  <SCORE.INTRA.VDW.0>
0

>  <SCORE.INTRA.norm>
0

>  <SCORE.RESTR>
0

>  <SCORE.RESTR.CAVITY>
0

>  <SCORE.RESTR.norm>
0

>  <SCORE.SYSTEM>
0

>  <SCORE.SYSTEM.CONST>
0

>  <SCORE.SYSTEM.DIHEDRAL>
0

>  <SCORE.SYSTEM.SOLV>
0

>  <SCORE.SYSTEM.norm>
0

>  <SCORE.heavy>
4

>  <SCORE.norm>
-1.25495

>  <RMSD>
2.160

$$$$
ligand
 OpenBabel11021811493D
libRbt.so/2013.1/901 2013/11/27
  4  3  0  0  0  0  0  0  0  0999 V2000
   36.4793   18.9327    8.5342 C   0  0  0  0  0  0  0  0  0  0  0  0
   36.6460   17.7456    8.1768 O   0  0  0  0  0  0  0  0  0  0  0  0
   36.4425   19.1881   10.0352 C   0  0  0  0  0  0  0  0  0  0  0  0
   36.3292   19.9919    7.7801 O   0  0  0  0  0  0  0  0  0  0  0  0
  1  2  1  0  0  0  0
  1  3  1  0  0  0  0
  1  4  1  0  0  0  0
M  END
>  <CHROM.1>
36.47442340,18.96305948,8.61521027,-1.72394517,-1.43064683,1.57112044

>  <Name>
ligand

>  <RI>
0

>  <Rbt.Current_Directory>
/home/itssahil/PROJECTS/Mol_Feturizer/New_Systems/rnas/4FEN

>  <Rbt.Executable>
rbdock ($Id: //depot/dev/client3/rdock/2013.1/src/exe/rbdock.cxx#4 $)

>  <Rbt.Library>
libRbt.so (2013.1, Build901 2013/11/27)

>  <Rbt.Parameter_File>
/export/apps/rDock/src/rDock_2013.1_src/data/scripts/dock_solv.prm

>  <Rbt.Receptor>
prm/pocket_docking_6.prm

>  <SCORE>
-5.03124

>  <SCORE.INTER>
-5.03124

>  <SCORE.INTER.CONST>
1

>  <SCORE.INTER.POLAR>
0

>  <SCORE.INTER.ROT>
0

>  <SCORE.INTER.SOLV>
1.68092

>  <SCORE.INTER.VDW>
-7.51446

>  <SCORE.INTER.norm>
-1.25781

>  <SCORE.INTRA>
0

>  <SCORE.INTRA.DIHEDRAL>
0

>  <SCORE.INTRA.DIHEDRAL.0>
0

>  <SCORE.INTRA.POLAR>
0

>  <SCORE.INTRA.POLAR.0>
0

>  <SCORE.INTRA.REPUL>
0

>  <SCORE.INTRA.REPUL.0>
0

>  <SCORE.INTRA.SOLV>
0

>  <SCORE.INTRA.SOLV.lig_0>
0.449748

>  <SCORE.INTRA.VDW>
0

>  <SCORE.INTRA.VDW.0>
0

>  <SCORE.INTRA.norm>
0

>  <SCORE.RESTR>
0

>  <SCORE.RESTR.CAVITY>
0

>  <SCORE.RESTR.norm>
0

>  <SCORE.SYSTEM>
0

>  <SCORE.SYSTEM.CONST>
0

>  <SCORE.SYSTEM.DIHEDRAL>
0

>  <SCORE.SYSTEM.SOLV>
0

>  <SCORE.SYSTEM.norm>
0

>  <SCORE.heavy>
4

>  <SCORE.norm>
-1.25781

>  <RMSD>
2.160

$$$$
ligand
 OpenBabel11021811493D
libRbt.so/2013.1/901 2013/11/27
  4  3  0  0  0  0  0  0  0  0999 V2000
   36.5875   18.3517    9.0599 C   0  0  0  0  0  0  0  0  0  0  0  0
   37.0076   17.9056   10.1504 O   0  0  0  0  0  0  0  0  0  0  0  0
   35.7969   19.6519    9.1207 C   0  0  0  0  0  0  0  0  0  0  0  0
   36.7385   17.8413    7.8641 O   0  0  0  0  0  0  0  0  0  0  0  0
  1  2  1  0  0  0  0
  1  3  1  0  0  0  0
  1  4  1  0  0  0  0
M  END
>  <CHROM.1>
36.54093918,18.42358682,9.04682572,-0.54802156,-1.00972987,1.35429043

>  <Name>
ligand

>  <RI>
0

>  <Rbt.Current_Directory>
/home/itssahil/PROJECTS/Mol_Feturizer/New_Systems/rnas/4FEN

>  <Rbt.Executable>
rbdock ($Id: //depot/dev/client3/rdock/2013.1/src/exe/rbdock.cxx#4 $)

>  <Rbt.Library>
libRbt.so (2013.1, Build901 2013/11/27)

>  <Rbt.Parameter_File>
/export/apps/rDock/src/rDock_2013.1_src/data/scripts/dock_solv.prm

>  <Rbt.Receptor>
prm/pocket_docking_6.prm

>  <SCORE>
-5.03995

>  <SCORE.INTER>
-5.03995

>  <SCORE.INTER.CONST>
1

>  <SCORE.INTER.POLAR>
0

>  <SCORE.INTER.ROT>
0

>  <SCORE.INTER.SOLV>
1.6082

>  <SCORE.INTER.VDW>
-7.49603

>  <SCORE.INTER.norm>
-1.25999

>  <SCORE.INTRA>
0

>  <SCORE.INTRA.DIHEDRAL>
0

>  <SCORE.INTRA.DIHEDRAL.0>
0

>  <SCORE.INTRA.POLAR>
0

>  <SCORE.INTRA.POLAR.0>
0

>  <SCORE.INTRA.REPUL>
0

>  <SCORE.INTRA.REPUL.0>
0

>  <SCORE.INTRA.SOLV>
0

>  <SCORE.INTRA.SOLV.lig_0>
0.449748

>  <SCORE.INTRA.VDW>
0

>  <SCORE.INTRA.VDW.0>
0

>  <SCORE.INTRA.norm>
0

>  <SCORE.RESTR>
0

>  <SCORE.RESTR.CAVITY>
0

>  <SCORE.RESTR.norm>
0

>  <SCORE.SYSTEM>
0

>  <SCORE.SYSTEM.CONST>
0

>  <SCORE.SYSTEM.DIHEDRAL>
0

>  <SCORE.SYSTEM.SOLV>
0

>  <SCORE.SYSTEM.norm>
0

>  <SCORE.heavy>
4

>  <SCORE.norm>
-1.25999

>  <RMSD>
2.160

$$$$
ligand
 OpenBabel11021811493D
libRbt.so/2013.1/901 2013/11/27
  4  3  0  0  0  0  0  0  0  0999 V2000
   36.4897   18.9389    8.5331 C   0  0  0  0  0  0  0  0  0  0  0  0
   36.3503   19.9459    7.8043 O   0  0  0  0  0  0  0  0  0  0  0  0
   36.4641   19.1833   10.0361 C   0  0  0  0  0  0  0  0  0  0  0  0
   36.6579   17.6929    8.1692 O   0  0  0  0  0  0  0  0  0  0  0  0
  1  2  1  0  0  0  0
  1  3  1  0  0  0  0
  1  4  1  0  0  0  0
M  END
>  <CHROM.1>
36.49096575,18.93640462,8.61971807,1.11876674,1.43574752,-1.60479097

>  <Name>
ligand

>  <RI>
0

>  <Rbt.Current_Directory>
/home/itssahil/PROJECTS/Mol_Feturizer/New_Systems/rnas/4FEN

>  <Rbt.Executable>
rbdock ($Id: //depot/dev/client3/rdock/2013.1/src/exe/rbdock.cxx#4 $)

>  <Rbt.Library>
libRbt.so (2013.1, Build901 2013/11/27)

>  <Rbt.Parameter_File>
/export/apps/rDock/src/rDock_2013.1_src/data/scripts/dock_solv.prm

>  <Rbt.Receptor>
prm/pocket_docking_8.prm

>  <SCORE>
-5.02839

>  <SCORE.INTER>
-5.02839

>  <SCORE.INTER.CONST>
1

>  <SCORE.INTER.POLAR>
0

>  <SCORE.INTER.ROT>
0

>  <SCORE.INTER.SOLV>
1.68285

>  <SCORE.INTER.VDW>
-7.51321

>  <SCORE.INTER.norm>
-1.2571

>  <SCORE.INTRA>
0

>  <SCORE.INTRA.DIHEDRAL>
0

>  <SCORE.INTRA.DIHEDRAL.0>
0

>  <SCORE.INTRA.POLAR>
0

>  <SCORE.INTRA.POLAR.0>
0

>  <SCORE.INTRA.REPUL>
0

>  <SCORE.INTRA.REPUL.0>
0

>  <SCORE.INTRA.SOLV>
0

>  <SCORE.INTRA.SOLV.lig_0>
0.449748

>  <SCORE.INTRA.VDW>
0

>  <SCORE.INTRA.VDW.0>
0

>  <SCORE.INTRA.norm>
0

>  <SCORE.RESTR>
0

>  <SCORE.RESTR.CAVITY>
0

>  <SCORE.RESTR.norm>
0

>  <SCORE.SYSTEM>
0

>  <SCORE.SYSTEM.CONST>
0

>  <SCORE.SYSTEM.DIHEDRAL>
0

>  <SCORE.SYSTEM.SOLV>
0

>  <SCORE.SYSTEM.norm>
0

>  <SCORE.heavy>
4

>  <SCORE.norm>
-1.2571

>  <RMSD>
2.170

$$$$
ligand
 OpenBabel11021811493D
libRbt.so/2013.1/901 2013/11/27
  4  3  0  0  0  0  0  0  0  0999 V2000
   36.4937   18.8969    8.5442 C   0  0  0  0  0  0  0  0  0  0  0  0
   36.6380   17.7017    8.2046 O   0  0  0  0  0  0  0  0  0  0  0  0
   36.4588   19.1751   10.0411 C   0  0  0  0  0  0  0  0  0  0  0  0
   36.3659   19.9477    7.7742 O   0  0  0  0  0  0  0  0  0  0  0  0
  1  2  1  0  0  0  0
  1  3  1  0  0  0  0
  1  4  1  0  0  0  0
M  END
>  <CHROM.1>
36.48929399,18.92861620,8.62468618,-1.70660408,-1.45014448,1.57356539

>  <Name>
ligand

>  <RI>
0

>  <Rbt.Current_Directory>
/home/itssahil/PROJECTS/Mol_Feturizer/New_Systems/rnas/4FEN

>  <Rbt.Executable>
rbdock ($Id: //depot/dev/client3/rdock/2013.1/src/exe/rbdock.cxx#4 $)

>  <Rbt.Library>
libRbt.so (2013.1, Build901 2013/11/27)

>  <Rbt.Parameter_File>
/export/apps/rDock/src/rDock_2013.1_src/data/scripts/dock_solv.prm

>  <Rbt.Receptor>
prm/pocket_docking_8.prm

>  <SCORE>
-5.03053

>  <SCORE.INTER>
-5.03053

>  <SCORE.INTER.CONST>
1

>  <SCORE.INTER.POLAR>
0

>  <SCORE.INTER.ROT>
0

>  <SCORE.INTER.SOLV>
1.67125

>  <SCORE.INTER.VDW>
-7.51077

>  <SCORE.INTER.norm>
-1.25763

>  <SCORE.INTRA>
0

>  <SCORE.INTRA.DIHEDRAL>
0

>  <SCORE.INTRA.DIHEDRAL.0>
0

>  <SCORE.INTRA.POLAR>
0

>  <SCORE.INTRA.POLAR.0>
0

>  <SCORE.INTRA.REPUL>
0

>  <SCORE.INTRA.REPUL.0>
0

>  <SCORE.INTRA.SOLV>
0

>  <SCORE.INTRA.SOLV.lig_0>
0.449748

>  <SCORE.INTRA.VDW>
0

>  <SCORE.INTRA.VDW.0>
0

>  <SCORE.INTRA.norm>
0

>  <SCORE.RESTR>
0

>  <SCORE.RESTR.CAVITY>
0

>  <SCORE.RESTR.norm>
0

>  <SCORE.SYSTEM>
0

>  <SCORE.SYSTEM.CONST>
0

>  <SCORE.SYSTEM.DIHEDRAL>
0

>  <SCORE.SYSTEM.SOLV>
0

>  <SCORE.SYSTEM.norm>
0

>  <SCORE.heavy>
4

>  <SCORE.norm>
-1.25763

>  <RMSD>
2.172

$$$$
ligand
 OpenBabel11021811493D
libRbt.so/2013.1/901 2013/11/27
  4  3  0  0  0  0  0  0  0  0999 V2000
   36.4855   18.9478    8.5318 C   0  0  0  0  0  0  0  0  0  0  0  0
   36.3558   19.9361    7.7761 O   0  0  0  0  0  0  0  0  0  0  0  0
   36.4453   19.2305   10.0277 C   0  0  0  0  0  0  0  0  0  0  0  0
   36.6546   17.6926    8.2015 O   0  0  0  0  0  0  0  0  0  0  0  0
  1  2  1  0  0  0  0
  1  3  1  0  0  0  0
  1  4  1  0  0  0  0
M  END
>  <CHROM.1>
36.48590244,18.94747912,8.61841855,1.04292249,1.43798206,-1.55514074

>  <Name>
ligand

>  <RI>
0

>  <Rbt.Current_Directory>
/home/itssahil/PROJECTS/Mol_Feturizer/New_Systems/rnas/4FEN

>  <Rbt.Executable>
rbdock ($Id: //depot/dev/client3/rdock/2013.1/src/exe/rbdock.cxx#4 $)

>  <Rbt.Library>
libRbt.so (2013.1, Build901 2013/11/27)

>  <Rbt.Parameter_File>
/export/apps/rDock/src/rDock_2013.1_src/data/scripts/dock_solv.prm

>  <Rbt.Receptor>
prm/pocket_docking_8.prm

>  <SCORE>
-5.03319

>  <SCORE.INTER>
-5.03319

>  <SCORE.INTER.CONST>
1

>  <SCORE.INTER.POLAR>
0

>  <SCORE.INTER.ROT>
0

>  <SCORE.INTER.SOLV>
1.6785

>  <SCORE.INTER.VDW>
-7.51496

>  <SCORE.INTER.norm>
-1.2583

>  <SCORE.INTRA>
0

>  <SCORE.INTRA.DIHEDRAL>
0

>  <SCORE.INTRA.DIHEDRAL.0>
0

>  <SCORE.INTRA.POLAR>
0

>  <SCORE.INTRA.POLAR.0>
0

>  <SCORE.INTRA.REPUL>
0

>  <SCORE.INTRA.REPUL.0>
0

>  <SCORE.INTRA.SOLV>
0

>  <SCORE.INTRA.SOLV.lig_0>
0.449748

>  <SCORE.INTRA.VDW>
0

>  <SCORE.INTRA.VDW.0>
0

>  <SCORE.INTRA.norm>
0

>  <SCORE.RESTR>
0

>  <SCORE.RESTR.CAVITY>
0

>  <SCORE.RESTR.norm>
0

>  <SCORE.SYSTEM>
0

>  <SCORE.SYSTEM.CONST>
0

>  <SCORE.SYSTEM.DIHEDRAL>
0

>  <SCORE.SYSTEM.SOLV>
0

>  <SCORE.SYSTEM.norm>
0

>  <SCORE.heavy>
4

>  <SCORE.norm>
-1.2583

>  <RMSD>
2.172

$$$$
ligand
 OpenBabel11021811493D
libRbt.so/2013.1/901 2013/11/27
  4  3  0  0  0  0  0  0  0  0999 V2000
   36.4672   18.8878    8.5383 C   0  0  0  0  0  0  0  0  0  0  0  0
   36.5928   17.6886    8.2053 O   0  0  0  0  0  0  0  0  0  0  0  0
   36.4264   19.1735   10.0337 C   0  0  0  0  0  0  0  0  0  0  0  0
   36.3636   19.9370    7.7627 O   0  0  0  0  0  0  0  0  0  0  0  0
  1  2  1  0  0  0  0
  1  3  1  0  0  0  0
  1  4  1  0  0  0  0
M  END
>  <CHROM.1>
36.46278272,18.91990882,8.61867492,-1.63585352,-1.46759619,1.63928451

>  <Name>
ligand

>  <RI>
0

>  <Rbt.Current_Directory>
/home/itssahil/PROJECTS/Mol_Feturizer/New_Systems/rnas/4FEN

>  <Rbt.Executable>
rbdock ($Id: //depot/dev/client3/rdock/2013.1/src/exe/rbdock.cxx#4 $)

>  <Rbt.Library>
libRbt.so (2013.1, Build901 2013/11/27)

>  <Rbt.Parameter_File>
/export/apps/rDock/src/rDock_2013.1_src/data/scripts/dock_solv.prm

>  <Rbt.Receptor>
prm/pocket_docking_5.prm

>  <SCORE>
-5.01635

>  <SCORE.INTER>
-5.01635

>  <SCORE.INTER.CONST>
1

>  <SCORE.INTER.POLAR>
0

>  <SCORE.INTER.ROT>
0

>  <SCORE.INTER.SOLV>
1.66908

>  <SCORE.INTER.VDW>
-7.50059

>  <SCORE.INTER.norm>
-1.25409

>  <SCORE.INTRA>
0

>  <SCORE.INTRA.DIHEDRAL>
0

>  <SCORE.INTRA.DIHEDRAL.0>
0

>  <SCORE.INTRA.POLAR>
0

>  <SCORE.INTRA.POLAR.0>
0

>  <SCORE.INTRA.REPUL>
0

>  <SCORE.INTRA.REPUL.0>
0

>  <SCORE.INTRA.SOLV>
0

>  <SCORE.INTRA.SOLV.lig_0>
0.449748

>  <SCORE.INTRA.VDW>
0

>  <SCORE.INTRA.VDW.0>
0

>  <SCORE.INTRA.norm>
0

>  <SCORE.RESTR>
0

>  <SCORE.RESTR.CAVITY>
0

>  <SCORE.RESTR.norm>
0

>  <SCORE.SYSTEM>
0

>  <SCORE.SYSTEM.CONST>
0

>  <SCORE.SYSTEM.DIHEDRAL>
0

>  <SCORE.SYSTEM.SOLV>
0

>  <SCORE.SYSTEM.norm>
0

>  <SCORE.heavy>
4

>  <SCORE.norm>
-1.25409

>  <RMSD>
2.175

$$$$
ligand
 OpenBabel11021811493D
libRbt.so/2013.1/901 2013/11/27
  4  3  0  0  0  0  0  0  0  0999 V2000
   36.4861   18.8957    8.5362 C   0  0  0  0  0  0  0  0  0  0  0  0
   36.6360   17.6999    8.2009 O   0  0  0  0  0  0  0  0  0  0  0  0
   36.4290   19.1765   10.0319 C   0  0  0  0  0  0  0  0  0  0  0  0
   36.3690   19.9450    7.7625 O   0  0  0  0  0  0  0  0  0  0  0  0
  1  2  1  0  0  0  0
  1  3  1  0  0  0  0
  1  4  1  0  0  0  0
M  END
>  <CHROM.1>
36.48042728,18.92751688,8.61654235,-1.58589153,-1.44868155,1.69164425

>  <Name>
ligand

>  <RI>
0

>  <Rbt.Current_Directory>
/home/itssahil/PROJECTS/Mol_Feturizer/New_Systems/rnas/4FEN

>  <Rbt.Executable>
rbdock ($Id: //depot/dev/client3/rdock/2013.1/src/exe/rbdock.cxx#4 $)

>  <Rbt.Library>
libRbt.so (2013.1, Build901 2013/11/27)

>  <Rbt.Parameter_File>
/export/apps/rDock/src/rDock_2013.1_src/data/scripts/dock_solv.prm

>  <Rbt.Receptor>
prm/pocket_docking_8.prm

>  <SCORE>
-5.02645

>  <SCORE.INTER>
-5.02645

>  <SCORE.INTER.CONST>
1

>  <SCORE.INTER.POLAR>
0

>  <SCORE.INTER.ROT>
0

>  <SCORE.INTER.SOLV>
1.66718

>  <SCORE.INTER.VDW>
-7.50669

>  <SCORE.INTER.norm>
-1.25661

>  <SCORE.INTRA>
0

>  <SCORE.INTRA.DIHEDRAL>
0

>  <SCORE.INTRA.DIHEDRAL.0>
0

>  <SCORE.INTRA.POLAR>
0

>  <SCORE.INTRA.POLAR.0>
0

>  <SCORE.INTRA.REPUL>
0

>  <SCORE.INTRA.REPUL.0>
0

>  <SCORE.INTRA.SOLV>
0

>  <SCORE.INTRA.SOLV.lig_0>
0.449748

>  <SCORE.INTRA.VDW>
0

>  <SCORE.INTRA.VDW.0>
0

>  <SCORE.INTRA.norm>
0

>  <SCORE.RESTR>
0

>  <SCORE.RESTR.CAVITY>
0

>  <SCORE.RESTR.norm>
0

>  <SCORE.SYSTEM>
0

>  <SCORE.SYSTEM.CONST>
0

>  <SCORE.SYSTEM.DIHEDRAL>
0

>  <SCORE.SYSTEM.SOLV>
0

>  <SCORE.SYSTEM.norm>
0

>  <SCORE.heavy>
4

>  <SCORE.norm>
-1.25661

>  <RMSD>
2.177

$$$$
ligand
 OpenBabel11021811493D
libRbt.so/2013.1/901 2013/11/27
  4  3  0  0  0  0  0  0  0  0999 V2000
   36.5965   18.3353    9.0026 C   0  0  0  0  0  0  0  0  0  0  0  0
   36.7111   17.8458    7.8572 O   0  0  0  0  0  0  0  0  0  0  0  0
   35.8751   19.6732    9.0971 C   0  0  0  0  0  0  0  0  0  0  0  0
   37.0210   17.8442   10.1392 O   0  0  0  0  0  0  0  0  0  0  0  0
  1  2  1  0  0  0  0
  1  3  1  0  0  0  0
  1  4  1  0  0  0  0
M  END
>  <CHROM.1>
36.55890806,18.41027197,9.02426943,-0.04981028,1.05592964,-1.81245550

>  <Name>
ligand

>  <RI>
0

>  <Rbt.Current_Directory>
/home/itssahil/PROJECTS/Mol_Feturizer/New_Systems/rnas/4FEN

>  <Rbt.Executable>
rbdock ($Id: //depot/dev/client3/rdock/2013.1/src/exe/rbdock.cxx#4 $)

>  <Rbt.Library>
libRbt.so (2013.1, Build901 2013/11/27)

>  <Rbt.Parameter_File>
/export/apps/rDock/src/rDock_2013.1_src/data/scripts/dock_solv.prm

>  <Rbt.Receptor>
prm/pocket_docking_6.prm

>  <SCORE>
-5.07885

>  <SCORE.INTER>
-5.07885

>  <SCORE.INTER.CONST>
1

>  <SCORE.INTER.POLAR>
0

>  <SCORE.INTER.ROT>
0

>  <SCORE.INTER.SOLV>
1.62318

>  <SCORE.INTER.VDW>
-7.52696

>  <SCORE.INTER.norm>
-1.26971

>  <SCORE.INTRA>
0

>  <SCORE.INTRA.DIHEDRAL>
0

>  <SCORE.INTRA.DIHEDRAL.0>
0

>  <SCORE.INTRA.POLAR>
0

>  <SCORE.INTRA.POLAR.0>
0

>  <SCORE.INTRA.REPUL>
0

>  <SCORE.INTRA.REPUL.0>
0

>  <SCORE.INTRA.SOLV>
0

>  <SCORE.INTRA.SOLV.lig_0>
0.449748

>  <SCORE.INTRA.VDW>
0

>  <SCORE.INTRA.VDW.0>
0

>  <SCORE.INTRA.norm>
0

>  <SCORE.RESTR>
0

>  <SCORE.RESTR.CAVITY>
0

>  <SCORE.RESTR.norm>
0

>  <SCORE.SYSTEM>
0

>  <SCORE.SYSTEM.CONST>
0

>  <SCORE.SYSTEM.DIHEDRAL>
0

>  <SCORE.SYSTEM.SOLV>
0

>  <SCORE.SYSTEM.norm>
0

>  <SCORE.heavy>
4

>  <SCORE.norm>
-1.26971

>  <RMSD>
2.185

$$$$
ligand
 OpenBabel11021811493D
libRbt.so/2013.1/901 2013/11/27
  4  3  0  0  0  0  0  0  0  0999 V2000
   36.6031   18.3185    9.0784 C   0  0  0  0  0  0  0  0  0  0  0  0
   37.0512   17.8429   10.1450 O   0  0  0  0  0  0  0  0  0  0  0  0
   35.7740   19.5901    9.2007 C   0  0  0  0  0  0  0  0  0  0  0  0
   36.7537   17.8607    7.8614 O   0  0  0  0  0  0  0  0  0  0  0  0
  1  2  1  0  0  0  0
  1  3  1  0  0  0  0
  1  4  1  0  0  0  0
M  END
>  <CHROM.1>
36.55423355,18.38935695,9.06879808,-0.55955802,-0.97695648,1.38442948

>  <Name>
ligand

>  <RI>
0

>  <Rbt.Current_Directory>
/home/itssahil/PROJECTS/Mol_Feturizer/New_Systems/rnas/4FEN

>  <Rbt.Executable>
rbdock ($Id: //depot/dev/client3/rdock/2013.1/src/exe/rbdock.cxx#4 $)

>  <Rbt.Library>
libRbt.so (2013.1, Build901 2013/11/27)

>  <Rbt.Parameter_File>
/export/apps/rDock/src/rDock_2013.1_src/data/scripts/dock_solv.prm

>  <Rbt.Receptor>
prm/pocket_docking_6.prm

>  <SCORE>
-5.01886

>  <SCORE.INTER>
-5.01886

>  <SCORE.INTER.CONST>
1

>  <SCORE.INTER.POLAR>
0

>  <SCORE.INTER.ROT>
0

>  <SCORE.INTER.SOLV>
1.60422

>  <SCORE.INTER.VDW>
-7.48065

>  <SCORE.INTER.norm>
-1.25472

>  <SCORE.INTRA>
0

>  <SCORE.INTRA.DIHEDRAL>
0

>  <SCORE.INTRA.DIHEDRAL.0>
0

>  <SCORE.INTRA.POLAR>
0

>  <SCORE.INTRA.POLAR.0>
0

>  <SCORE.INTRA.REPUL>
0

>  <SCORE.INTRA.REPUL.0>
0

>  <SCORE.INTRA.SOLV>
0

>  <SCORE.INTRA.SOLV.lig_0>
0.449748

>  <SCORE.INTRA.VDW>
0

>  <SCORE.INTRA.VDW.0>
0

>  <SCORE.INTRA.norm>
0

>  <SCORE.RESTR>
0

>  <SCORE.RESTR.CAVITY>
0

>  <SCORE.RESTR.norm>
0

>  <SCORE.SYSTEM>
0

>  <SCORE.SYSTEM.CONST>
0

>  <SCORE.SYSTEM.DIHEDRAL>
0

>  <SCORE.SYSTEM.SOLV>
0

>  <SCORE.SYSTEM.norm>
0

>  <SCORE.heavy>
4

>  <SCORE.norm>
-1.25472

>  <RMSD>
2.185

$$$$
ligand
 OpenBabel11021811493D
libRbt.so/2013.1/901 2013/11/27
  4  3  0  0  0  0  0  0  0  0999 V2000
   36.6179   18.2579    9.1641 C   0  0  0  0  0  0  0  0  0  0  0  0
   37.0244   17.4957   10.0688 O   0  0  0  0  0  0  0  0  0  0  0  0
   35.8556   19.4967    9.6154 C   0  0  0  0  0  0  0  0  0  0  0  0
   36.7620   18.1272    7.8697 O   0  0  0  0  0  0  0  0  0  0  0  0
  1  2  1  0  0  0  0
  1  3  1  0  0  0  0
  1  4  1  0  0  0  0
M  END
>  <CHROM.1>
36.57298251,18.33139207,9.17339955,-0.55044688,-1.03181580,1.65748725

>  <Name>
ligand

>  <RI>
0

>  <Rbt.Current_Directory>
/home/itssahil/PROJECTS/Mol_Feturizer/New_Systems/rnas/4FEN

>  <Rbt.Executable>
rbdock ($Id: //depot/dev/client3/rdock/2013.1/src/exe/rbdock.cxx#4 $)

>  <Rbt.Library>
libRbt.so (2013.1, Build901 2013/11/27)

>  <Rbt.Parameter_File>
/export/apps/rDock/src/rDock_2013.1_src/data/scripts/dock_solv.prm

>  <Rbt.Receptor>
prm/pocket_docking_8.prm

>  <SCORE>
-4.80655

>  <SCORE.INTER>
-4.80655

>  <SCORE.INTER.CONST>
1

>  <SCORE.INTER.POLAR>
0

>  <SCORE.INTER.ROT>
0

>  <SCORE.INTER.SOLV>
1.5638

>  <SCORE.INTER.VDW>
-7.32563

>  <SCORE.INTER.norm>
-1.20164

>  <SCORE.INTRA>
0

>  <SCORE.INTRA.DIHEDRAL>
0

>  <SCORE.INTRA.DIHEDRAL.0>
0

>  <SCORE.INTRA.POLAR>
0

>  <SCORE.INTRA.POLAR.0>
0

>  <SCORE.INTRA.REPUL>
0

>  <SCORE.INTRA.REPUL.0>
0

>  <SCORE.INTRA.SOLV>
0

>  <SCORE.INTRA.SOLV.lig_0>
0.449748

>  <SCORE.INTRA.VDW>
0

>  <SCORE.INTRA.VDW.0>
0

>  <SCORE.INTRA.norm>
0

>  <SCORE.RESTR>
0

>  <SCORE.RESTR.CAVITY>
0

>  <SCORE.RESTR.norm>
0

>  <SCORE.SYSTEM>
0

>  <SCORE.SYSTEM.CONST>
0

>  <SCORE.SYSTEM.DIHEDRAL>
0

>  <SCORE.SYSTEM.SOLV>
0

>  <SCORE.SYSTEM.norm>
0

>  <SCORE.heavy>
4

>  <SCORE.norm>
-1.20164

>  <RMSD>
2.222

$$$$
ligand
 OpenBabel11021811493D
libRbt.so/2013.1/901 2013/11/27
  4  3  0  0  0  0  0  0  0  0999 V2000
   36.5714   18.2890    9.0201 C   0  0  0  0  0  0  0  0  0  0  0  0
   37.0058   17.8049   10.0886 O   0  0  0  0  0  0  0  0  0  0  0  0
   35.6995   19.5313    9.1458 C   0  0  0  0  0  0  0  0  0  0  0  0
   36.7688   17.8622    7.7986 O   0  0  0  0  0  0  0  0  0  0  0  0
  1  2  1  0  0  0  0
  1  3  1  0  0  0  0
  1  4  1  0  0  0  0
M  END
>  <CHROM.1>
36.52060358,18.35850649,9.01063941,-0.50439492,-0.95009417,1.45066957

>  <Name>
ligand

>  <RI>
0

>  <Rbt.Current_Directory>
/home/itssahil/PROJECTS/Mol_Feturizer/New_Systems/rnas/4FEN

>  <Rbt.Executable>
rbdock ($Id: //depot/dev/client3/rdock/2013.1/src/exe/rbdock.cxx#4 $)

>  <Rbt.Library>
libRbt.so (2013.1, Build901 2013/11/27)

>  <Rbt.Parameter_File>
/export/apps/rDock/src/rDock_2013.1_src/data/scripts/dock_solv.prm

>  <Rbt.Receptor>
prm/pocket_docking_6.prm

>  <SCORE>
-5.02461

>  <SCORE.INTER>
-5.02461

>  <SCORE.INTER.CONST>
1

>  <SCORE.INTER.POLAR>
0

>  <SCORE.INTER.ROT>
0

>  <SCORE.INTER.SOLV>
1.60821

>  <SCORE.INTER.VDW>
-7.48581

>  <SCORE.INTER.norm>
-1.25615

>  <SCORE.INTRA>
0

>  <SCORE.INTRA.DIHEDRAL>
0

>  <SCORE.INTRA.DIHEDRAL.0>
0

>  <SCORE.INTRA.POLAR>
0

>  <SCORE.INTRA.POLAR.0>
0

>  <SCORE.INTRA.REPUL>
0

>  <SCORE.INTRA.REPUL.0>
0

>  <SCORE.INTRA.SOLV>
0

>  <SCORE.INTRA.SOLV.lig_0>
0.449748

>  <SCORE.INTRA.VDW>
0

>  <SCORE.INTRA.VDW.0>
0

>  <SCORE.INTRA.norm>
0

>  <SCORE.RESTR>
0

>  <SCORE.RESTR.CAVITY>
0

>  <SCORE.RESTR.norm>
0

>  <SCORE.SYSTEM>
0

>  <SCORE.SYSTEM.CONST>
0

>  <SCORE.SYSTEM.DIHEDRAL>
0

>  <SCORE.SYSTEM.SOLV>
0

>  <SCORE.SYSTEM.norm>
0

>  <SCORE.heavy>
4

>  <SCORE.norm>
-1.25615

>  <RMSD>
2.242

$$$$
ligand
 OpenBabel11021811493D
libRbt.so/2013.1/901 2013/11/27
  4  3  0  0  0  0  0  0  0  0999 V2000
   36.6011   18.2589    8.9439 C   0  0  0  0  0  0  0  0  0  0  0  0
   36.7770   17.8761    7.7661 O   0  0  0  0  0  0  0  0  0  0  0  0
   35.8206   19.5541    9.1246 C   0  0  0  0  0  0  0  0  0  0  0  0
   37.0056   17.6876   10.0499 O   0  0  0  0  0  0  0  0  0  0  0  0
  1  2  1  0  0  0  0
  1  3  1  0  0  0  0
  1  4  1  0  0  0  0
M  END
>  <CHROM.1>
36.55963895,18.33019103,8.97047417,-0.13528380,1.02142119,-1.65213593

>  <Name>
ligand

>  <RI>
0

>  <Rbt.Current_Directory>
/home/itssahil/PROJECTS/Mol_Feturizer/New_Systems/rnas/4FEN

>  <Rbt.Executable>
rbdock ($Id: //depot/dev/client3/rdock/2013.1/src/exe/rbdock.cxx#4 $)

>  <Rbt.Library>
libRbt.so (2013.1, Build901 2013/11/27)

>  <Rbt.Parameter_File>
/export/apps/rDock/src/rDock_2013.1_src/data/scripts/dock_solv.prm

>  <Rbt.Receptor>
prm/pocket_docking_6.prm

>  <SCORE>
-5.07965

>  <SCORE.INTER>
-5.07965

>  <SCORE.INTER.CONST>
1

>  <SCORE.INTER.POLAR>
0

>  <SCORE.INTER.ROT>
0

>  <SCORE.INTER.SOLV>
1.62541

>  <SCORE.INTER.VDW>
-7.52823

>  <SCORE.INTER.norm>
-1.26991

>  <SCORE.INTRA>
0

>  <SCORE.INTRA.DIHEDRAL>
0

>  <SCORE.INTRA.DIHEDRAL.0>
0

>  <SCORE.INTRA.POLAR>
0

>  <SCORE.INTRA.POLAR.0>
0

>  <SCORE.INTRA.REPUL>
0

>  <SCORE.INTRA.REPUL.0>
0

>  <SCORE.INTRA.SOLV>
0

>  <SCORE.INTRA.SOLV.lig_0>
0.449748

>  <SCORE.INTRA.VDW>
0

>  <SCORE.INTRA.VDW.0>
0

>  <SCORE.INTRA.norm>
0

>  <SCORE.RESTR>
0

>  <SCORE.RESTR.CAVITY>
0

>  <SCORE.RESTR.norm>
0

>  <SCORE.SYSTEM>
0

>  <SCORE.SYSTEM.CONST>
0

>  <SCORE.SYSTEM.DIHEDRAL>
0

>  <SCORE.SYSTEM.SOLV>
0

>  <SCORE.SYSTEM.norm>
0

>  <SCORE.heavy>
4

>  <SCORE.norm>
-1.26991

>  <RMSD>
2.292

$$$$
ligand
 OpenBabel11021811493D
libRbt.so/2013.1/901 2013/11/27
  4  3  0  0  0  0  0  0  0  0999 V2000
   36.5828   18.2535    8.9436 C   0  0  0  0  0  0  0  0  0  0  0  0
   36.7716   17.8745    7.7666 O   0  0  0  0  0  0  0  0  0  0  0  0
   35.7501   19.5161    9.1222 C   0  0  0  0  0  0  0  0  0  0  0  0
   37.0130   17.7028   10.0504 O   0  0  0  0  0  0  0  0  0  0  0  0
  1  2  1  0  0  0  0
  1  3  1  0  0  0  0
  1  4  1  0  0  0  0
M  END
>  <CHROM.1>
36.53847581,18.32308545,8.97003953,-0.13720445,0.98022522,-1.65364099

>  <Name>
ligand

>  <RI>
0

>  <Rbt.Current_Directory>
/home/itssahil/PROJECTS/Mol_Feturizer/New_Systems/rnas/4FEN

>  <Rbt.Executable>
rbdock ($Id: //depot/dev/client3/rdock/2013.1/src/exe/rbdock.cxx#4 $)

>  <Rbt.Library>
libRbt.so (2013.1, Build901 2013/11/27)

>  <Rbt.Parameter_File>
/export/apps/rDock/src/rDock_2013.1_src/data/scripts/dock_solv.prm

>  <Rbt.Receptor>
prm/pocket_docking_6.prm

>  <SCORE>
-5.08553

>  <SCORE.INTER>
-5.08553

>  <SCORE.INTER.CONST>
1

>  <SCORE.INTER.POLAR>
0

>  <SCORE.INTER.ROT>
0

>  <SCORE.INTER.SOLV>
1.62215

>  <SCORE.INTER.VDW>
-7.53107

>  <SCORE.INTER.norm>
-1.27138

>  <SCORE.INTRA>
0

>  <SCORE.INTRA.DIHEDRAL>
0

>  <SCORE.INTRA.DIHEDRAL.0>
0

>  <SCORE.INTRA.POLAR>
0

>  <SCORE.INTRA.POLAR.0>
0

>  <SCORE.INTRA.REPUL>
0

>  <SCORE.INTRA.REPUL.0>
0

>  <SCORE.INTRA.SOLV>
0

>  <SCORE.INTRA.SOLV.lig_0>
0.449748

>  <SCORE.INTRA.VDW>
0

>  <SCORE.INTRA.VDW.0>
0

>  <SCORE.INTRA.norm>
0

>  <SCORE.RESTR>
0

>  <SCORE.RESTR.CAVITY>
0

>  <SCORE.RESTR.norm>
0

>  <SCORE.SYSTEM>
0

>  <SCORE.SYSTEM.CONST>
0

>  <SCORE.SYSTEM.DIHEDRAL>
0

>  <SCORE.SYSTEM.SOLV>
0

>  <SCORE.SYSTEM.norm>
0

>  <SCORE.heavy>
4

>  <SCORE.norm>
-1.27138

>  <RMSD>
2.298

$$$$
ligand
 OpenBabel11021811493D
libRbt.so/2013.1/901 2013/11/27
  4  3  0  0  0  0  0  0  0  0999 V2000
   36.5865   18.2122    8.9285 C   0  0  0  0  0  0  0  0  0  0  0  0
   36.7786   17.8864    7.7362 O   0  0  0  0  0  0  0  0  0  0  0  0
   35.7991   19.4950    9.1605 C   0  0  0  0  0  0  0  0  0  0  0  0
   36.9789   17.5900   10.0112 O   0  0  0  0  0  0  0  0  0  0  0  0
  1  2  1  0  0  0  0
  1  3  1  0  0  0  0
  1  4  1  0  0  0  0
M  END
>  <CHROM.1>
36.54438533,18.28195732,8.95788267,-0.16000296,1.01877101,-1.58344656

>  <Name>
ligand

>  <RI>
0

>  <Rbt.Current_Directory>
/home/itssahil/PROJECTS/Mol_Feturizer/New_Systems/rnas/4FEN

>  <Rbt.Executable>
rbdock ($Id: //depot/dev/client3/rdock/2013.1/src/exe/rbdock.cxx#4 $)

>  <Rbt.Library>
libRbt.so (2013.1, Build901 2013/11/27)

>  <Rbt.Parameter_File>
/export/apps/rDock/src/rDock_2013.1_src/data/scripts/dock_solv.prm

>  <Rbt.Receptor>
prm/pocket_docking_6.prm

>  <SCORE>
-5.09058

>  <SCORE.INTER>
-5.09058

>  <SCORE.INTER.CONST>
1

>  <SCORE.INTER.POLAR>
0

>  <SCORE.INTER.ROT>
0

>  <SCORE.INTER.SOLV>
1.60852

>  <SCORE.INTER.VDW>
-7.5299

>  <SCORE.INTER.norm>
-1.27265

>  <SCORE.INTRA>
0

>  <SCORE.INTRA.DIHEDRAL>
0

>  <SCORE.INTRA.DIHEDRAL.0>
0

>  <SCORE.INTRA.POLAR>
0

>  <SCORE.INTRA.POLAR.0>
0

>  <SCORE.INTRA.REPUL>
0

>  <SCORE.INTRA.REPUL.0>
0

>  <SCORE.INTRA.SOLV>
0

>  <SCORE.INTRA.SOLV.lig_0>
0.449748

>  <SCORE.INTRA.VDW>
0

>  <SCORE.INTRA.VDW.0>
0

>  <SCORE.INTRA.norm>
0

>  <SCORE.RESTR>
0

>  <SCORE.RESTR.CAVITY>
0

>  <SCORE.RESTR.norm>
0

>  <SCORE.SYSTEM>
0

>  <SCORE.SYSTEM.CONST>
0

>  <SCORE.SYSTEM.DIHEDRAL>
0

>  <SCORE.SYSTEM.SOLV>
0

>  <SCORE.SYSTEM.norm>
0

>  <SCORE.heavy>
4

>  <SCORE.norm>
-1.27265

>  <RMSD>
2.338

$$$$
ligand
 OpenBabel11021811493D
libRbt.so/2013.1/901 2013/11/27
  4  3  0  0  0  0  0  0  0  0999 V2000
   11.6910   13.0676    8.3999 C   0  0  0  0  0  0  0  0  0  0  0  0
   11.4772   13.7405    7.3673 O   0  0  0  0  0  0  0  0  0  0  0  0
   11.7711   11.5576    8.2184 C   0  0  0  0  0  0  0  0  0  0  0  0
   11.8541   13.4956    9.6260 O   0  0  0  0  0  0  0  0  0  0  0  0
  1  2  1  0  0  0  0
  1  3  1  0  0  0  0
  1  4  1  0  0  0  0
M  END
>  <CHROM.1>
11.69766622,12.98140667,8.40610582,1.56027767,-1.39776759,0.42850193

>  <Name>
ligand

>  <RI>
0

>  <Rbt.Current_Directory>
/home/itssahil/PROJECTS/Mol_Feturizer/New_Systems/rnas/4FEN

>  <Rbt.Executable>
rbdock ($Id: //depot/dev/client3/rdock/2013.1/src/exe/rbdock.cxx#4 $)

>  <Rbt.Library>
libRbt.so (2013.1, Build901 2013/11/27)

>  <Rbt.Parameter_File>
/export/apps/rDock/src/rDock_2013.1_src/data/scripts/dock_solv.prm

>  <Rbt.Receptor>
prm/blind_docking_100.prm

>  <SCORE>
-3.98499

>  <SCORE.INTER>
-3.98499

>  <SCORE.INTER.CONST>
1

>  <SCORE.INTER.POLAR>
0

>  <SCORE.INTER.ROT>
0

>  <SCORE.INTER.SOLV>
1.7609

>  <SCORE.INTER.VDW>
-6.84362

>  <SCORE.INTER.norm>
-0.996247

>  <SCORE.INTRA>
0

>  <SCORE.INTRA.DIHEDRAL>
0

>  <SCORE.INTRA.DIHEDRAL.0>
0

>  <SCORE.INTRA.POLAR>
0

>  <SCORE.INTRA.POLAR.0>
0

>  <SCORE.INTRA.REPUL>
0

>  <SCORE.INTRA.REPUL.0>
0

>  <SCORE.INTRA.SOLV>
0

>  <SCORE.INTRA.SOLV.lig_0>
0.449748

>  <SCORE.INTRA.VDW>
0

>  <SCORE.INTRA.VDW.0>
0

>  <SCORE.INTRA.norm>
0

>  <SCORE.RESTR>
0

>  <SCORE.RESTR.CAVITY>
0

>  <SCORE.RESTR.norm>
0

>  <SCORE.SYSTEM>
0

>  <SCORE.SYSTEM.CONST>
0

>  <SCORE.SYSTEM.DIHEDRAL>
0

>  <SCORE.SYSTEM.SOLV>
0

>  <SCORE.SYSTEM.norm>
0

>  <SCORE.heavy>
4

>  <SCORE.norm>
-0.996247

>  <RMSD>
25.340

$$$$
ligand
 OpenBabel11021811493D
libRbt.so/2013.1/901 2013/11/27
  4  3  0  0  0  0  0  0  0  0999 V2000
   11.6774   13.0445    8.4254 C   0  0  0  0  0  0  0  0  0  0  0  0
   11.4942   13.7429    7.4039 O   0  0  0  0  0  0  0  0  0  0  0  0
   11.8165   11.5443    8.2028 C   0  0  0  0  0  0  0  0  0  0  0  0
   11.7638   13.4382    9.6707 O   0  0  0  0  0  0  0  0  0  0  0  0
  1  2  1  0  0  0  0
  1  3  1  0  0  0  0
  1  4  1  0  0  0  0
M  END
>  <CHROM.1>
11.68658734,12.95840858,8.42937389,1.91075201,-1.42129714,0.80558757

>  <Name>
ligand

>  <RI>
0

>  <Rbt.Current_Directory>
/home/itssahil/PROJECTS/Mol_Feturizer/New_Systems/rnas/4FEN

>  <Rbt.Executable>
rbdock ($Id: //depot/dev/client3/rdock/2013.1/src/exe/rbdock.cxx#4 $)

>  <Rbt.Library>
libRbt.so (2013.1, Build901 2013/11/27)

>  <Rbt.Parameter_File>
/export/apps/rDock/src/rDock_2013.1_src/data/scripts/dock_solv.prm

>  <Rbt.Receptor>
prm/blind_docking_60.prm

>  <SCORE>
-3.99199

>  <SCORE.INTER>
-3.99199

>  <SCORE.INTER.CONST>
1

>  <SCORE.INTER.POLAR>
0

>  <SCORE.INTER.ROT>
0

>  <SCORE.INTER.SOLV>
1.75109

>  <SCORE.INTER.VDW>
-6.84503

>  <SCORE.INTER.norm>
-0.997999

>  <SCORE.INTRA>
0

>  <SCORE.INTRA.DIHEDRAL>
0

>  <SCORE.INTRA.DIHEDRAL.0>
0

>  <SCORE.INTRA.POLAR>
0

>  <SCORE.INTRA.POLAR.0>
0

>  <SCORE.INTRA.REPUL>
0

>  <SCORE.INTRA.REPUL.0>
0

>  <SCORE.INTRA.SOLV>
0

>  <SCORE.INTRA.SOLV.lig_0>
0.449748

>  <SCORE.INTRA.VDW>
0

>  <SCORE.INTRA.VDW.0>
0

>  <SCORE.INTRA.norm>
0

>  <SCORE.RESTR>
0

>  <SCORE.RESTR.CAVITY>
0

>  <SCORE.RESTR.norm>
0

>  <SCORE.SYSTEM>
0

>  <SCORE.SYSTEM.CONST>
0

>  <SCORE.SYSTEM.DIHEDRAL>
0

>  <SCORE.SYSTEM.SOLV>
0

>  <SCORE.SYSTEM.norm>
0

>  <SCORE.heavy>
4

>  <SCORE.norm>
-0.997999

>  <RMSD>
25.353

$$$$
ligand
 OpenBabel11021811493D
libRbt.so/2013.1/901 2013/11/27
  4  3  0  0  0  0  0  0  0  0999 V2000
   11.6925   12.6318    5.6470 C   0  0  0  0  0  0  0  0  0  0  0  0
   12.3297   11.7465    6.2594 O   0  0  0  0  0  0  0  0  0  0  0  0
   10.9583   12.1883    4.3886 C   0  0  0  0  0  0  0  0  0  0  0  0
   11.5754   13.9001    5.9484 O   0  0  0  0  0  0  0  0  0  0  0  0
  1  2  1  0  0  0  0
  1  3  1  0  0  0  0
  1  4  1  0  0  0  0
M  END
>  <CHROM.1>
11.64651618,12.62263042,5.57420889,-0.92205572,0.94726520,-2.78213775

>  <Name>
ligand

>  <RI>
0

>  <Rbt.Current_Directory>
/home/itssahil/PROJECTS/Mol_Feturizer/New_Systems/rnas/4FEN

>  <Rbt.Executable>
rbdock ($Id: //depot/dev/client3/rdock/2013.1/src/exe/rbdock.cxx#4 $)

>  <Rbt.Library>
libRbt.so (2013.1, Build901 2013/11/27)

>  <Rbt.Parameter_File>
/export/apps/rDock/src/rDock_2013.1_src/data/scripts/dock_solv.prm

>  <Rbt.Receptor>
prm/blind_docking_80.prm

>  <SCORE>
-4.50587

>  <SCORE.INTER>
-4.50587

>  <SCORE.INTER.CONST>
1

>  <SCORE.INTER.POLAR>
0

>  <SCORE.INTER.ROT>
0

>  <SCORE.INTER.SOLV>
1.5573

>  <SCORE.INTER.VDW>
-7.12301

>  <SCORE.INTER.norm>
-1.12647

>  <SCORE.INTRA>
0

>  <SCORE.INTRA.DIHEDRAL>
0

>  <SCORE.INTRA.DIHEDRAL.0>
0

>  <SCORE.INTRA.POLAR>
0

>  <SCORE.INTRA.POLAR.0>
0

>  <SCORE.INTRA.REPUL>
0

>  <SCORE.INTRA.REPUL.0>
0

>  <SCORE.INTRA.SOLV>
0

>  <SCORE.INTRA.SOLV.lig_0>
0.449748

>  <SCORE.INTRA.VDW>
0

>  <SCORE.INTRA.VDW.0>
0

>  <SCORE.INTRA.norm>
0

>  <SCORE.RESTR>
0

>  <SCORE.RESTR.CAVITY>
0

>  <SCORE.RESTR.norm>
0

>  <SCORE.SYSTEM>
0

>  <SCORE.SYSTEM.CONST>
0

>  <SCORE.SYSTEM.DIHEDRAL>
0

>  <SCORE.SYSTEM.SOLV>
0

>  <SCORE.SYSTEM.norm>
0

>  <SCORE.heavy>
4

>  <SCORE.norm>
-1.12647

>  <RMSD>
25.882

$$$$
ligand
 OpenBabel11021811493D
libRbt.so/2013.1/901 2013/11/27
  4  3  0  0  0  0  0  0  0  0999 V2000
   11.6783   12.6360    5.7038 C   0  0  0  0  0  0  0  0  0  0  0  0
   12.4436   11.7462    6.1367 O   0  0  0  0  0  0  0  0  0  0  0  0
   10.9812   12.3438    4.3816 C   0  0  0  0  0  0  0  0  0  0  0  0
   11.3978   13.7954    6.2427 O   0  0  0  0  0  0  0  0  0  0  0  0
  1  2  1  0  0  0  0
  1  3  1  0  0  0  0
  1  4  1  0  0  0  0
M  END
>  <CHROM.1>
11.63217804,12.63466044,5.63046050,-1.10624999,0.86863247,-2.44333656

>  <Name>
ligand

>  <RI>
0

>  <Rbt.Current_Directory>
/home/itssahil/PROJECTS/Mol_Feturizer/New_Systems/rnas/4FEN

>  <Rbt.Executable>
rbdock ($Id: //depot/dev/client3/rdock/2013.1/src/exe/rbdock.cxx#4 $)

>  <Rbt.Library>
libRbt.so (2013.1, Build901 2013/11/27)

>  <Rbt.Parameter_File>
/export/apps/rDock/src/rDock_2013.1_src/data/scripts/dock_solv.prm

>  <Rbt.Receptor>
prm/blind_docking_60.prm

>  <SCORE>
-4.51323

>  <SCORE.INTER>
-4.51323

>  <SCORE.INTER.CONST>
1

>  <SCORE.INTER.POLAR>
0

>  <SCORE.INTER.ROT>
0

>  <SCORE.INTER.SOLV>
1.5512

>  <SCORE.INTER.VDW>
-7.12588

>  <SCORE.INTER.norm>
-1.12831

>  <SCORE.INTRA>
0

>  <SCORE.INTRA.DIHEDRAL>
0

>  <SCORE.INTRA.DIHEDRAL.0>
0

>  <SCORE.INTRA.POLAR>
0

>  <SCORE.INTRA.POLAR.0>
0

>  <SCORE.INTRA.REPUL>
0

>  <SCORE.INTRA.REPUL.0>
0

>  <SCORE.INTRA.SOLV>
0

>  <SCORE.INTRA.SOLV.lig_0>
0.449748

>  <SCORE.INTRA.VDW>
0

>  <SCORE.INTRA.VDW.0>
0

>  <SCORE.INTRA.norm>
0

>  <SCORE.RESTR>
0

>  <SCORE.RESTR.CAVITY>
0

>  <SCORE.RESTR.norm>
0

>  <SCORE.SYSTEM>
0

>  <SCORE.SYSTEM.CONST>
0

>  <SCORE.SYSTEM.DIHEDRAL>
0

>  <SCORE.SYSTEM.SOLV>
0

>  <SCORE.SYSTEM.norm>
0

>  <SCORE.heavy>
4

>  <SCORE.norm>
-1.12831

>  <RMSD>
25.886

$$$$
ligand
 OpenBabel11021811493D
libRbt.so/2013.1/901 2013/11/27
  4  3  0  0  0  0  0  0  0  0999 V2000
   11.3761   12.7303    4.9376 C   0  0  0  0  0  0  0  0  0  0  0  0
   11.0183   12.1506    3.8885 O   0  0  0  0  0  0  0  0  0  0  0  0
   11.7543   11.8347    6.1098 C   0  0  0  0  0  0  0  0  0  0  0  0
   11.4665   14.0168    5.1613 O   0  0  0  0  0  0  0  0  0  0  0  0
  1  2  1  0  0  0  0
  1  3  1  0  0  0  0
  1  4  1  0  0  0  0
M  END
>  <CHROM.1>
11.39992088,12.69377519,5.01243307,2.15228407,-1.24895613,-0.03879474

>  <Name>
ligand

>  <RI>
0

>  <Rbt.Current_Directory>
/home/itssahil/PROJECTS/Mol_Feturizer/New_Systems/rnas/4FEN

>  <Rbt.Executable>
rbdock ($Id: //depot/dev/client3/rdock/2013.1/src/exe/rbdock.cxx#4 $)

>  <Rbt.Library>
libRbt.so (2013.1, Build901 2013/11/27)

>  <Rbt.Parameter_File>
/export/apps/rDock/src/rDock_2013.1_src/data/scripts/dock_solv.prm

>  <Rbt.Receptor>
prm/blind_docking_20.prm

>  <SCORE>
-5.46498

>  <SCORE.INTER>
-5.46498

>  <SCORE.INTER.CONST>
1

>  <SCORE.INTER.POLAR>
0

>  <SCORE.INTER.ROT>
0

>  <SCORE.INTER.SOLV>
1.6272

>  <SCORE.INTER.VDW>
-7.78572

>  <SCORE.INTER.norm>
-1.36624

>  <SCORE.INTRA>
0

>  <SCORE.INTRA.DIHEDRAL>
0

>  <SCORE.INTRA.DIHEDRAL.0>
0

>  <SCORE.INTRA.POLAR>
0

>  <SCORE.INTRA.POLAR.0>
0

>  <SCORE.INTRA.REPUL>
0

>  <SCORE.INTRA.REPUL.0>
0

>  <SCORE.INTRA.SOLV>
0

>  <SCORE.INTRA.SOLV.lig_0>
0.449748

>  <SCORE.INTRA.VDW>
0

>  <SCORE.INTRA.VDW.0>
0

>  <SCORE.INTRA.norm>
0

>  <SCORE.RESTR>
0

>  <SCORE.RESTR.CAVITY>
0

>  <SCORE.RESTR.norm>
0

>  <SCORE.SYSTEM>
0

>  <SCORE.SYSTEM.CONST>
0

>  <SCORE.SYSTEM.DIHEDRAL>
0

>  <SCORE.SYSTEM.SOLV>
0

>  <SCORE.SYSTEM.norm>
0

>  <SCORE.heavy>
4

>  <SCORE.norm>
-1.36624

>  <RMSD>
26.185

$$$$
ligand
 OpenBabel11021811493D
libRbt.so/2013.1/901 2013/11/27
  4  3  0  0  0  0  0  0  0  0999 V2000
   11.3779   12.7333    4.9130 C   0  0  0  0  0  0  0  0  0  0  0  0
   11.0637   12.1424    3.8563 O   0  0  0  0  0  0  0  0  0  0  0  0
   11.7702   11.8506    6.0904 C   0  0  0  0  0  0  0  0  0  0  0  0
   11.4117   14.0218    5.1409 O   0  0  0  0  0  0  0  0  0  0  0  0
  1  2  1  0  0  0  0
  1  3  1  0  0  0  0
  1  4  1  0  0  0  0
M  END
>  <CHROM.1>
11.40182313,12.69757828,4.98823455,2.28600193,-1.26672030,0.09079393

>  <Name>
ligand

>  <RI>
0

>  <Rbt.Current_Directory>
/home/itssahil/PROJECTS/Mol_Feturizer/New_Systems/rnas/4FEN

>  <Rbt.Executable>
rbdock ($Id: //depot/dev/client3/rdock/2013.1/src/exe/rbdock.cxx#4 $)

>  <Rbt.Library>
libRbt.so (2013.1, Build901 2013/11/27)

>  <Rbt.Parameter_File>
/export/apps/rDock/src/rDock_2013.1_src/data/scripts/dock_solv.prm

>  <Rbt.Receptor>
prm/blind_docking_20.prm

>  <SCORE>
-5.46246

>  <SCORE.INTER>
-5.46246

>  <SCORE.INTER.CONST>
1

>  <SCORE.INTER.POLAR>
0

>  <SCORE.INTER.ROT>
0

>  <SCORE.INTER.SOLV>
1.63322

>  <SCORE.INTER.VDW>
-7.78605

>  <SCORE.INTER.norm>
-1.36561

>  <SCORE.INTRA>
0

>  <SCORE.INTRA.DIHEDRAL>
0

>  <SCORE.INTRA.DIHEDRAL.0>
0

>  <SCORE.INTRA.POLAR>
0

>  <SCORE.INTRA.POLAR.0>
0

>  <SCORE.INTRA.REPUL>
0

>  <SCORE.INTRA.REPUL.0>
0

>  <SCORE.INTRA.SOLV>
0

>  <SCORE.INTRA.SOLV.lig_0>
0.449748

>  <SCORE.INTRA.VDW>
0

>  <SCORE.INTRA.VDW.0>
0

>  <SCORE.INTRA.norm>
0

>  <SCORE.RESTR>
0

>  <SCORE.RESTR.CAVITY>
0

>  <SCORE.RESTR.norm>
0

>  <SCORE.SYSTEM>
0

>  <SCORE.SYSTEM.CONST>
0

>  <SCORE.SYSTEM.DIHEDRAL>
0

>  <SCORE.SYSTEM.SOLV>
0

>  <SCORE.SYSTEM.norm>
0

>  <SCORE.heavy>
4

>  <SCORE.norm>
-1.36561

>  <RMSD>
26.187

$$$$
ligand
 OpenBabel11021811493D
libRbt.so/2013.1/901 2013/11/27
  4  3  0  0  0  0  0  0  0  0999 V2000
   11.3700   12.7259    4.9105 C   0  0  0  0  0  0  0  0  0  0  0  0
   11.0238   12.1364    3.8629 O   0  0  0  0  0  0  0  0  0  0  0  0
   11.7610   11.8408    6.0866 C   0  0  0  0  0  0  0  0  0  0  0  0
   11.4385   14.0145    5.1297 O   0  0  0  0  0  0  0  0  0  0  0  0
  1  2  1  0  0  0  0
  1  3  1  0  0  0  0
  1  4  1  0  0  0  0
M  END
>  <CHROM.1>
11.39429278,12.68995907,4.98547658,2.20510224,-1.25098802,0.00772441

>  <Name>
ligand

>  <RI>
0

>  <Rbt.Current_Directory>
/home/itssahil/PROJECTS/Mol_Feturizer/New_Systems/rnas/4FEN

>  <Rbt.Executable>
rbdock ($Id: //depot/dev/client3/rdock/2013.1/src/exe/rbdock.cxx#4 $)

>  <Rbt.Library>
libRbt.so (2013.1, Build901 2013/11/27)

>  <Rbt.Parameter_File>
/export/apps/rDock/src/rDock_2013.1_src/data/scripts/dock_solv.prm

>  <Rbt.Receptor>
prm/blind_docking_20.prm

>  <SCORE>
-5.45895

>  <SCORE.INTER>
-5.45895

>  <SCORE.INTER.CONST>
1

>  <SCORE.INTER.POLAR>
0

>  <SCORE.INTER.ROT>
0

>  <SCORE.INTER.SOLV>
1.63211

>  <SCORE.INTER.VDW>
-7.78334

>  <SCORE.INTER.norm>
-1.36474

>  <SCORE.INTRA>
0

>  <SCORE.INTRA.DIHEDRAL>
0

>  <SCORE.INTRA.DIHEDRAL.0>
0

>  <SCORE.INTRA.POLAR>
0

>  <SCORE.INTRA.POLAR.0>
0

>  <SCORE.INTRA.REPUL>
0

>  <SCORE.INTRA.REPUL.0>
0

>  <SCORE.INTRA.SOLV>
0

>  <SCORE.INTRA.SOLV.lig_0>
0.449748

>  <SCORE.INTRA.VDW>
0

>  <SCORE.INTRA.VDW.0>
0

>  <SCORE.INTRA.norm>
0

>  <SCORE.RESTR>
0

>  <SCORE.RESTR.CAVITY>
0

>  <SCORE.RESTR.norm>
0

>  <SCORE.SYSTEM>
0

>  <SCORE.SYSTEM.CONST>
0

>  <SCORE.SYSTEM.DIHEDRAL>
0

>  <SCORE.SYSTEM.SOLV>
0

>  <SCORE.SYSTEM.norm>
0

>  <SCORE.heavy>
4

>  <SCORE.norm>
-1.36474

>  <RMSD>
26.196

$$$$
ligand
 OpenBabel11021811493D
libRbt.so/2013.1/901 2013/11/27
  4  3  0  0  0  0  0  0  0  0999 V2000
   11.3743   12.7318    4.9098 C   0  0  0  0  0  0  0  0  0  0  0  0
   11.3007   13.9794    4.9634 O   0  0  0  0  0  0  0  0  0  0  0  0
   11.7626   12.0214    6.1998 C   0  0  0  0  0  0  0  0  0  0  0  0
   11.1611   11.9515    3.8808 O   0  0  0  0  0  0  0  0  0  0  0  0
  1  2  1  0  0  0  0
  1  3  1  0  0  0  0
  1  4  1  0  0  0  0
M  END
>  <CHROM.1>
11.39545318,12.67754753,4.97393888,3.04893207,1.30622391,-2.87728917

>  <Name>
ligand

>  <RI>
0

>  <Rbt.Current_Directory>
/home/itssahil/PROJECTS/Mol_Feturizer/New_Systems/rnas/4FEN

>  <Rbt.Executable>
rbdock ($Id: //depot/dev/client3/rdock/2013.1/src/exe/rbdock.cxx#4 $)

>  <Rbt.Library>
libRbt.so (2013.1, Build901 2013/11/27)

>  <Rbt.Parameter_File>
/export/apps/rDock/src/rDock_2013.1_src/data/scripts/dock_solv.prm

>  <Rbt.Receptor>
prm/blind_docking_40.prm

>  <SCORE>
-5.39902

>  <SCORE.INTER>
-5.39902

>  <SCORE.INTER.CONST>
1

>  <SCORE.INTER.POLAR>
0

>  <SCORE.INTER.ROT>
0

>  <SCORE.INTER.SOLV>
1.66009

>  <SCORE.INTER.VDW>
-7.75271

>  <SCORE.INTER.norm>
-1.34975

>  <SCORE.INTRA>
0

>  <SCORE.INTRA.DIHEDRAL>
0

>  <SCORE.INTRA.DIHEDRAL.0>
0

>  <SCORE.INTRA.POLAR>
0

>  <SCORE.INTRA.POLAR.0>
0

>  <SCORE.INTRA.REPUL>
0

>  <SCORE.INTRA.REPUL.0>
0

>  <SCORE.INTRA.SOLV>
0

>  <SCORE.INTRA.SOLV.lig_0>
0.449748

>  <SCORE.INTRA.VDW>
0

>  <SCORE.INTRA.VDW.0>
0

>  <SCORE.INTRA.norm>
0

>  <SCORE.RESTR>
0

>  <SCORE.RESTR.CAVITY>
0

>  <SCORE.RESTR.norm>
0

>  <SCORE.SYSTEM>
0

>  <SCORE.SYSTEM.CONST>
0

>  <SCORE.SYSTEM.DIHEDRAL>
0

>  <SCORE.SYSTEM.SOLV>
0

>  <SCORE.SYSTEM.norm>
0

>  <SCORE.heavy>
4

>  <SCORE.norm>
-1.34975

>  <RMSD>
26.197

$$$$
ligand
 OpenBabel11021811493D
libRbt.so/2013.1/901 2013/11/27
  4  3  0  0  0  0  0  0  0  0999 V2000
   11.3592   12.7327    4.9130 C   0  0  0  0  0  0  0  0  0  0  0  0
   11.0253   12.1390    3.8638 O   0  0  0  0  0  0  0  0  0  0  0  0
   11.7491   11.8526    6.0931 C   0  0  0  0  0  0  0  0  0  0  0  0
   11.4156   14.0221    5.1307 O   0  0  0  0  0  0  0  0  0  0  0  0
  1  2  1  0  0  0  0
  1  3  1  0  0  0  0
  1  4  1  0  0  0  0
M  END
>  <CHROM.1>
11.38326037,12.69711084,4.98817184,2.23193195,-1.25792399,0.03179553

>  <Name>
ligand

>  <RI>
0

>  <Rbt.Current_Directory>
/home/itssahil/PROJECTS/Mol_Feturizer/New_Systems/rnas/4FEN

>  <Rbt.Executable>
rbdock ($Id: //depot/dev/client3/rdock/2013.1/src/exe/rbdock.cxx#4 $)

>  <Rbt.Library>
libRbt.so (2013.1, Build901 2013/11/27)

>  <Rbt.Parameter_File>
/export/apps/rDock/src/rDock_2013.1_src/data/scripts/dock_solv.prm

>  <Rbt.Receptor>
prm/blind_docking_100.prm

>  <SCORE>
-5.45832

>  <SCORE.INTER>
-5.45832

>  <SCORE.INTER.CONST>
1

>  <SCORE.INTER.POLAR>
0

>  <SCORE.INTER.ROT>
0

>  <SCORE.INTER.SOLV>
1.63034

>  <SCORE.INTER.VDW>
-7.78233

>  <SCORE.INTER.norm>
-1.36458

>  <SCORE.INTRA>
0

>  <SCORE.INTRA.DIHEDRAL>
0

>  <SCORE.INTRA.DIHEDRAL.0>
0

>  <SCORE.INTRA.POLAR>
0

>  <SCORE.INTRA.POLAR.0>
0

>  <SCORE.INTRA.REPUL>
0

>  <SCORE.INTRA.REPUL.0>
0

>  <SCORE.INTRA.SOLV>
0

>  <SCORE.INTRA.SOLV.lig_0>
0.449748

>  <SCORE.INTRA.VDW>
0

>  <SCORE.INTRA.VDW.0>
0

>  <SCORE.INTRA.norm>
0

>  <SCORE.RESTR>
0

>  <SCORE.RESTR.CAVITY>
0

>  <SCORE.RESTR.norm>
0

>  <SCORE.SYSTEM>
0

>  <SCORE.SYSTEM.CONST>
0

>  <SCORE.SYSTEM.DIHEDRAL>
0

>  <SCORE.SYSTEM.SOLV>
0

>  <SCORE.SYSTEM.norm>
0

>  <SCORE.heavy>
4

>  <SCORE.norm>
-1.36458

>  <RMSD>
26.204

$$$$
ligand
 OpenBabel11021811493D
libRbt.so/2013.1/901 2013/11/27
  4  3  0  0  0  0  0  0  0  0999 V2000
   11.3686   12.7286    4.9143 C   0  0  0  0  0  0  0  0  0  0  0  0
   11.3587   13.9671    5.0897 O   0  0  0  0  0  0  0  0  0  0  0  0
   11.7786   11.8795    6.1103 C   0  0  0  0  0  0  0  0  0  0  0  0
   11.0720   12.0623    3.8274 O   0  0  0  0  0  0  0  0  0  0  0  0
  1  2  1  0  0  0  0
  1  3  1  0  0  0  0
  1  4  1  0  0  0  0
M  END
>  <CHROM.1>
11.38997526,12.66742561,4.97182693,-3.03400409,1.27041228,-2.97326264

>  <Name>
ligand

>  <RI>
0

>  <Rbt.Current_Directory>
/home/itssahil/PROJECTS/Mol_Feturizer/New_Systems/rnas/4FEN

>  <Rbt.Executable>
rbdock ($Id: //depot/dev/client3/rdock/2013.1/src/exe/rbdock.cxx#4 $)

>  <Rbt.Library>
libRbt.so (2013.1, Build901 2013/11/27)

>  <Rbt.Parameter_File>
/export/apps/rDock/src/rDock_2013.1_src/data/scripts/dock_solv.prm

>  <Rbt.Receptor>
prm/blind_docking_20.prm

>  <SCORE>
-5.4153

>  <SCORE.INTER>
-5.4153

>  <SCORE.INTER.CONST>
1

>  <SCORE.INTER.POLAR>
0

>  <SCORE.INTER.ROT>
0

>  <SCORE.INTER.SOLV>
1.62747

>  <SCORE.INTER.VDW>
-7.75269

>  <SCORE.INTER.norm>
-1.35383

>  <SCORE.INTRA>
0

>  <SCORE.INTRA.DIHEDRAL>
0

>  <SCORE.INTRA.DIHEDRAL.0>
0

>  <SCORE.INTRA.POLAR>
0

>  <SCORE.INTRA.POLAR.0>
0

>  <SCORE.INTRA.REPUL>
0

>  <SCORE.INTRA.REPUL.0>
0

>  <SCORE.INTRA.SOLV>
0

>  <SCORE.INTRA.SOLV.lig_0>
0.449748

>  <SCORE.INTRA.VDW>
0

>  <SCORE.INTRA.VDW.0>
0

>  <SCORE.INTRA.norm>
0

>  <SCORE.RESTR>
0

>  <SCORE.RESTR.CAVITY>
0

>  <SCORE.RESTR.norm>
0

>  <SCORE.SYSTEM>
0

>  <SCORE.SYSTEM.CONST>
0

>  <SCORE.SYSTEM.DIHEDRAL>
0

>  <SCORE.SYSTEM.SOLV>
0

>  <SCORE.SYSTEM.norm>
0

>  <SCORE.heavy>
4

>  <SCORE.norm>
-1.35383

>  <RMSD>
26.207

$$$$
ligand
 OpenBabel11021811493D
libRbt.so/2013.1/901 2013/11/27
  4  3  0  0  0  0  0  0  0  0999 V2000
   11.3394   12.7851    4.8644 C   0  0  0  0  0  0  0  0  0  0  0  0
   10.9811   12.2154    3.8099 O   0  0  0  0  0  0  0  0  0  0  0  0
   11.7427   11.8782    6.0195 C   0  0  0  0  0  0  0  0  0  0  0  0
   11.4114   14.0694    5.1066 O   0  0  0  0  0  0  0  0  0  0  0  0
  1  2  1  0  0  0  0
  1  3  1  0  0  0  0
  1  4  1  0  0  0  0
M  END
>  <CHROM.1>
11.36453034,12.74782594,4.93840210,2.20230194,-1.23990477,0.02357500

>  <Name>
ligand

>  <RI>
0

>  <Rbt.Current_Directory>
/home/itssahil/PROJECTS/Mol_Feturizer/New_Systems/rnas/4FEN

>  <Rbt.Executable>
rbdock ($Id: //depot/dev/client3/rdock/2013.1/src/exe/rbdock.cxx#4 $)

>  <Rbt.Library>
libRbt.so (2013.1, Build901 2013/11/27)

>  <Rbt.Parameter_File>
/export/apps/rDock/src/rDock_2013.1_src/data/scripts/dock_solv.prm

>  <Rbt.Receptor>
prm/blind_docking_20.prm

>  <SCORE>
-5.46717

>  <SCORE.INTER>
-5.46717

>  <SCORE.INTER.CONST>
1

>  <SCORE.INTER.POLAR>
0

>  <SCORE.INTER.ROT>
0

>  <SCORE.INTER.SOLV>
1.65198

>  <SCORE.INTER.VDW>
-7.79544

>  <SCORE.INTER.norm>
-1.36679

>  <SCORE.INTRA>
0

>  <SCORE.INTRA.DIHEDRAL>
0

>  <SCORE.INTRA.DIHEDRAL.0>
0

>  <SCORE.INTRA.POLAR>
0

>  <SCORE.INTRA.POLAR.0>
0

>  <SCORE.INTRA.REPUL>
0

>  <SCORE.INTRA.REPUL.0>
0

>  <SCORE.INTRA.SOLV>
0

>  <SCORE.INTRA.SOLV.lig_0>
0.449748

>  <SCORE.INTRA.VDW>
0

>  <SCORE.INTRA.VDW.0>
0

>  <SCORE.INTRA.norm>
0

>  <SCORE.RESTR>
0

>  <SCORE.RESTR.CAVITY>
0

>  <SCORE.RESTR.norm>
0

>  <SCORE.SYSTEM>
0

>  <SCORE.SYSTEM.CONST>
0

>  <SCORE.SYSTEM.DIHEDRAL>
0

>  <SCORE.SYSTEM.SOLV>
0

>  <SCORE.SYSTEM.norm>
0

>  <SCORE.heavy>
4

>  <SCORE.norm>
-1.36679

>  <RMSD>
26.219

$$$$
ligand
 OpenBabel11021811493D
libRbt.so/2013.1/901 2013/11/27
  4  3  0  0  0  0  0  0  0  0999 V2000
   11.3525   12.7896    4.8644 C   0  0  0  0  0  0  0  0  0  0  0  0
   11.3544   14.0255    5.0577 O   0  0  0  0  0  0  0  0  0  0  0  0
   11.7384   11.9188    6.0527 C   0  0  0  0  0  0  0  0  0  0  0  0
   11.0616   12.1425    3.7644 O   0  0  0  0  0  0  0  0  0  0  0  0
  1  2  1  0  0  0  0
  1  3  1  0  0  0  0
  1  4  1  0  0  0  0
M  END
>  <CHROM.1>
11.37245767,12.72740192,4.92128287,-3.00186656,1.28411058,-2.98955029

>  <Name>
ligand

>  <RI>
0

>  <Rbt.Current_Directory>
/home/itssahil/PROJECTS/Mol_Feturizer/New_Systems/rnas/4FEN

>  <Rbt.Executable>
rbdock ($Id: //depot/dev/client3/rdock/2013.1/src/exe/rbdock.cxx#4 $)

>  <Rbt.Library>
libRbt.so (2013.1, Build901 2013/11/27)

>  <Rbt.Parameter_File>
/export/apps/rDock/src/rDock_2013.1_src/data/scripts/dock_solv.prm

>  <Rbt.Receptor>
prm/blind_docking_40.prm

>  <SCORE>
-5.41425

>  <SCORE.INTER>
-5.41425

>  <SCORE.INTER.CONST>
1

>  <SCORE.INTER.POLAR>
0

>  <SCORE.INTER.ROT>
0

>  <SCORE.INTER.SOLV>
1.65265

>  <SCORE.INTER.VDW>
-7.76039

>  <SCORE.INTER.norm>
-1.35356

>  <SCORE.INTRA>
0

>  <SCORE.INTRA.DIHEDRAL>
0

>  <SCORE.INTRA.DIHEDRAL.0>
0

>  <SCORE.INTRA.POLAR>
0

>  <SCORE.INTRA.POLAR.0>
0

>  <SCORE.INTRA.REPUL>
0

>  <SCORE.INTRA.REPUL.0>
0

>  <SCORE.INTRA.SOLV>
0

>  <SCORE.INTRA.SOLV.lig_0>
0.449748

>  <SCORE.INTRA.VDW>
0

>  <SCORE.INTRA.VDW.0>
0

>  <SCORE.INTRA.norm>
0

>  <SCORE.RESTR>
0

>  <SCORE.RESTR.CAVITY>
0

>  <SCORE.RESTR.norm>
0

>  <SCORE.SYSTEM>
0

>  <SCORE.SYSTEM.CONST>
0

>  <SCORE.SYSTEM.DIHEDRAL>
0

>  <SCORE.SYSTEM.SOLV>
0

>  <SCORE.SYSTEM.norm>
0

>  <SCORE.heavy>
4

>  <SCORE.norm>
-1.35356

>  <RMSD>
26.219

$$$$
ligand
 OpenBabel11021811493D
libRbt.so/2013.1/901 2013/11/27
  4  3  0  0  0  0  0  0  0  0999 V2000
   11.3693   12.6888    4.8873 C   0  0  0  0  0  0  0  0  0  0  0  0
   11.2757   13.9295    5.0157 O   0  0  0  0  0  0  0  0  0  0  0  0
   11.7727   11.9088    6.1316 C   0  0  0  0  0  0  0  0  0  0  0  0
   11.1658   11.9682    3.8137 O   0  0  0  0  0  0  0  0  0  0  0  0
  1  2  1  0  0  0  0
  1  3  1  0  0  0  0
  1  4  1  0  0  0  0
M  END
>  <CHROM.1>
11.39149351,12.63109923,4.94801635,2.99347216,1.29886270,-2.76382339

>  <Name>
ligand

>  <RI>
0

>  <Rbt.Current_Directory>
/home/itssahil/PROJECTS/Mol_Feturizer/New_Systems/rnas/4FEN

>  <Rbt.Executable>
rbdock ($Id: //depot/dev/client3/rdock/2013.1/src/exe/rbdock.cxx#4 $)

>  <Rbt.Library>
libRbt.so (2013.1, Build901 2013/11/27)

>  <Rbt.Parameter_File>
/export/apps/rDock/src/rDock_2013.1_src/data/scripts/dock_solv.prm

>  <Rbt.Receptor>
prm/blind_docking_100.prm

>  <SCORE>
-5.38899

>  <SCORE.INTER>
-5.38899

>  <SCORE.INTER.CONST>
1

>  <SCORE.INTER.POLAR>
0

>  <SCORE.INTER.ROT>
0

>  <SCORE.INTER.SOLV>
1.62494

>  <SCORE.INTER.VDW>
-7.7343

>  <SCORE.INTER.norm>
-1.34725

>  <SCORE.INTRA>
0

>  <SCORE.INTRA.DIHEDRAL>
0

>  <SCORE.INTRA.DIHEDRAL.0>
0

>  <SCORE.INTRA.POLAR>
0

>  <SCORE.INTRA.POLAR.0>
0

>  <SCORE.INTRA.REPUL>
0

>  <SCORE.INTRA.REPUL.0>
0

>  <SCORE.INTRA.SOLV>
0

>  <SCORE.INTRA.SOLV.lig_0>
0.449748

>  <SCORE.INTRA.VDW>
0

>  <SCORE.INTRA.VDW.0>
0

>  <SCORE.INTRA.norm>
0

>  <SCORE.RESTR>
0

>  <SCORE.RESTR.CAVITY>
0

>  <SCORE.RESTR.norm>
0

>  <SCORE.SYSTEM>
0

>  <SCORE.SYSTEM.CONST>
0

>  <SCORE.SYSTEM.DIHEDRAL>
0

>  <SCORE.SYSTEM.SOLV>
0

>  <SCORE.SYSTEM.norm>
0

>  <SCORE.heavy>
4

>  <SCORE.norm>
-1.34725

>  <RMSD>
26.220

$$$$
ligand
 OpenBabel11021811493D
libRbt.so/2013.1/901 2013/11/27
  4  3  0  0  0  0  0  0  0  0999 V2000
   11.3467   12.7500    4.9282 C   0  0  0  0  0  0  0  0  0  0  0  0
   11.3493   13.9832    5.1376 O   0  0  0  0  0  0  0  0  0  0  0  0
   11.7500   11.8644    6.0997 C   0  0  0  0  0  0  0  0  0  0  0  0
   11.0420   12.1169    3.8239 O   0  0  0  0  0  0  0  0  0  0  0  0
  1  2  1  0  0  0  0
  1  3  1  0  0  0  0
  1  4  1  0  0  0  0
M  END
>  <CHROM.1>
11.36754486,12.68710390,4.98401273,-3.00006328,1.27050683,-2.97818253

>  <Name>
ligand

>  <RI>
0

>  <Rbt.Current_Directory>
/home/itssahil/PROJECTS/Mol_Feturizer/New_Systems/rnas/4FEN

>  <Rbt.Executable>
rbdock ($Id: //depot/dev/client3/rdock/2013.1/src/exe/rbdock.cxx#4 $)

>  <Rbt.Library>
libRbt.so (2013.1, Build901 2013/11/27)

>  <Rbt.Parameter_File>
/export/apps/rDock/src/rDock_2013.1_src/data/scripts/dock_solv.prm

>  <Rbt.Receptor>
prm/blind_docking_100.prm

>  <SCORE>
-5.42681

>  <SCORE.INTER>
-5.42681

>  <SCORE.INTER.CONST>
1

>  <SCORE.INTER.POLAR>
0

>  <SCORE.INTER.ROT>
0

>  <SCORE.INTER.SOLV>
1.61394

>  <SCORE.INTER.VDW>
-7.75585

>  <SCORE.INTER.norm>
-1.3567

>  <SCORE.INTRA>
0

>  <SCORE.INTRA.DIHEDRAL>
0

>  <SCORE.INTRA.DIHEDRAL.0>
0

>  <SCORE.INTRA.POLAR>
0

>  <SCORE.INTRA.POLAR.0>
0

>  <SCORE.INTRA.REPUL>
0

>  <SCORE.INTRA.REPUL.0>
0

>  <SCORE.INTRA.SOLV>
0

>  <SCORE.INTRA.SOLV.lig_0>
0.449748

>  <SCORE.INTRA.VDW>
0

>  <SCORE.INTRA.VDW.0>
0

>  <SCORE.INTRA.norm>
0

>  <SCORE.RESTR>
0

>  <SCORE.RESTR.CAVITY>
0

>  <SCORE.RESTR.norm>
0

>  <SCORE.SYSTEM>
0

>  <SCORE.SYSTEM.CONST>
0

>  <SCORE.SYSTEM.DIHEDRAL>
0

>  <SCORE.SYSTEM.SOLV>
0

>  <SCORE.SYSTEM.norm>
0

>  <SCORE.heavy>
4

>  <SCORE.norm>
-1.3567

>  <RMSD>
26.221

$$$$
ligand
 OpenBabel11021811493D
libRbt.so/2013.1/901 2013/11/27
  4  3  0  0  0  0  0  0  0  0999 V2000
   11.3508   12.7912    4.8622 C   0  0  0  0  0  0  0  0  0  0  0  0
   11.3652   14.0247    5.0694 O   0  0  0  0  0  0  0  0  0  0  0  0
   11.7254   11.9031    6.0414 C   0  0  0  0  0  0  0  0  0  0  0  0
   11.0553   12.1595    3.7545 O   0  0  0  0  0  0  0  0  0  0  0  0
  1  2  1  0  0  0  0
  1  3  1  0  0  0  0
  1  4  1  0  0  0  0
M  END
>  <CHROM.1>
11.37003133,12.72816100,4.91844645,-2.96610404,1.28740414,-3.01265485

>  <Name>
ligand

>  <RI>
0

>  <Rbt.Current_Directory>
/home/itssahil/PROJECTS/Mol_Feturizer/New_Systems/rnas/4FEN

>  <Rbt.Executable>
rbdock ($Id: //depot/dev/client3/rdock/2013.1/src/exe/rbdock.cxx#4 $)

>  <Rbt.Library>
libRbt.so (2013.1, Build901 2013/11/27)

>  <Rbt.Parameter_File>
/export/apps/rDock/src/rDock_2013.1_src/data/scripts/dock_solv.prm

>  <Rbt.Receptor>
prm/blind_docking_100.prm

>  <SCORE>
-5.41278

>  <SCORE.INTER>
-5.41278

>  <SCORE.INTER.CONST>
1

>  <SCORE.INTER.POLAR>
0

>  <SCORE.INTER.ROT>
0

>  <SCORE.INTER.SOLV>
1.64871

>  <SCORE.INTER.VDW>
-7.75809

>  <SCORE.INTER.norm>
-1.3532

>  <SCORE.INTRA>
0

>  <SCORE.INTRA.DIHEDRAL>
0

>  <SCORE.INTRA.DIHEDRAL.0>
0

>  <SCORE.INTRA.POLAR>
0

>  <SCORE.INTRA.POLAR.0>
0

>  <SCORE.INTRA.REPUL>
0

>  <SCORE.INTRA.REPUL.0>
0

>  <SCORE.INTRA.SOLV>
0

>  <SCORE.INTRA.SOLV.lig_0>
0.449748

>  <SCORE.INTRA.VDW>
0

>  <SCORE.INTRA.VDW.0>
0

>  <SCORE.INTRA.norm>
0

>  <SCORE.RESTR>
0

>  <SCORE.RESTR.CAVITY>
0

>  <SCORE.RESTR.norm>
0

>  <SCORE.SYSTEM>
0

>  <SCORE.SYSTEM.CONST>
0

>  <SCORE.SYSTEM.DIHEDRAL>
0

>  <SCORE.SYSTEM.SOLV>
0

>  <SCORE.SYSTEM.norm>
0

>  <SCORE.heavy>
4

>  <SCORE.norm>
-1.3532

>  <RMSD>
26.222

$$$$
ligand
 OpenBabel11021811493D
libRbt.so/2013.1/901 2013/11/27
  4  3  0  0  0  0  0  0  0  0999 V2000
   11.3432   12.7962    4.8736 C   0  0  0  0  0  0  0  0  0  0  0  0
   11.3527   14.0342    5.0520 O   0  0  0  0  0  0  0  0  0  0  0  0
   11.7329   11.9376    6.0695 C   0  0  0  0  0  0  0  0  0  0  0  0
   11.0413   12.1375    3.7835 O   0  0  0  0  0  0  0  0  0  0  0  0
  1  2  1  0  0  0  0
  1  3  1  0  0  0  0
  1  4  1  0  0  0  0
M  END
>  <CHROM.1>
11.36318112,12.73454895,4.93106193,-2.98085020,1.27789352,-3.02165281

>  <Name>
ligand

>  <RI>
0

>  <Rbt.Current_Directory>
/home/itssahil/PROJECTS/Mol_Feturizer/New_Systems/rnas/4FEN

>  <Rbt.Executable>
rbdock ($Id: //depot/dev/client3/rdock/2013.1/src/exe/rbdock.cxx#4 $)

>  <Rbt.Library>
libRbt.so (2013.1, Build901 2013/11/27)

>  <Rbt.Parameter_File>
/export/apps/rDock/src/rDock_2013.1_src/data/scripts/dock_solv.prm

>  <Rbt.Receptor>
prm/blind_docking_20.prm

>  <SCORE>
-5.41276

>  <SCORE.INTER>
-5.41276

>  <SCORE.INTER.CONST>
1

>  <SCORE.INTER.POLAR>
0

>  <SCORE.INTER.ROT>
0

>  <SCORE.INTER.SOLV>
1.65679

>  <SCORE.INTER.VDW>
-7.76077

>  <SCORE.INTER.norm>
-1.35319

>  <SCORE.INTRA>
0

>  <SCORE.INTRA.DIHEDRAL>
0

>  <SCORE.INTRA.DIHEDRAL.0>
0

>  <SCORE.INTRA.POLAR>
0

>  <SCORE.INTRA.POLAR.0>
0

>  <SCORE.INTRA.REPUL>
0

>  <SCORE.INTRA.REPUL.0>
0

>  <SCORE.INTRA.SOLV>
0

>  <SCORE.INTRA.SOLV.lig_0>
0.449748

>  <SCORE.INTRA.VDW>
0

>  <SCORE.INTRA.VDW.0>
0

>  <SCORE.INTRA.norm>
0

>  <SCORE.RESTR>
0

>  <SCORE.RESTR.CAVITY>
0

>  <SCORE.RESTR.norm>
0

>  <SCORE.SYSTEM>
0

>  <SCORE.SYSTEM.CONST>
0

>  <SCORE.SYSTEM.DIHEDRAL>
0

>  <SCORE.SYSTEM.SOLV>
0

>  <SCORE.SYSTEM.norm>
0

>  <SCORE.heavy>
4

>  <SCORE.norm>
-1.35319

>  <RMSD>
26.223

$$$$
ligand
 OpenBabel11021811493D
libRbt.so/2013.1/901 2013/11/27
  4  3  0  0  0  0  0  0  0  0999 V2000
   11.3487   12.7893    4.8643 C   0  0  0  0  0  0  0  0  0  0  0  0
   11.3662   14.0239    5.0648 O   0  0  0  0  0  0  0  0  0  0  0  0
   11.7346   11.9071    6.0442 C   0  0  0  0  0  0  0  0  0  0  0  0
   11.0413   12.1521    3.7631 O   0  0  0  0  0  0  0  0  0  0  0  0
  1  2  1  0  0  0  0
  1  3  1  0  0  0  0
  1  4  1  0  0  0  0
M  END
>  <CHROM.1>
11.36839251,12.72654719,4.92069842,-2.95880829,1.27732340,-3.02489406

>  <Name>
ligand

>  <RI>
0

>  <Rbt.Current_Directory>
/home/itssahil/PROJECTS/Mol_Feturizer/New_Systems/rnas/4FEN

>  <Rbt.Executable>
rbdock ($Id: //depot/dev/client3/rdock/2013.1/src/exe/rbdock.cxx#4 $)

>  <Rbt.Library>
libRbt.so (2013.1, Build901 2013/11/27)

>  <Rbt.Parameter_File>
/export/apps/rDock/src/rDock_2013.1_src/data/scripts/dock_solv.prm

>  <Rbt.Receptor>
prm/blind_docking_40.prm

>  <SCORE>
-5.41373

>  <SCORE.INTER>
-5.41373

>  <SCORE.INTER.CONST>
1

>  <SCORE.INTER.POLAR>
0

>  <SCORE.INTER.ROT>
0

>  <SCORE.INTER.SOLV>
1.64981

>  <SCORE.INTER.VDW>
-7.75909

>  <SCORE.INTER.norm>
-1.35343

>  <SCORE.INTRA>
0

>  <SCORE.INTRA.DIHEDRAL>
0

>  <SCORE.INTRA.DIHEDRAL.0>
0

>  <SCORE.INTRA.POLAR>
0

>  <SCORE.INTRA.POLAR.0>
0

>  <SCORE.INTRA.REPUL>
0

>  <SCORE.INTRA.REPUL.0>
0

>  <SCORE.INTRA.SOLV>
0

>  <SCORE.INTRA.SOLV.lig_0>
0.449748

>  <SCORE.INTRA.VDW>
0

>  <SCORE.INTRA.VDW.0>
0

>  <SCORE.INTRA.norm>
0

>  <SCORE.RESTR>
0

>  <SCORE.RESTR.CAVITY>
0

>  <SCORE.RESTR.norm>
0

>  <SCORE.SYSTEM>
0

>  <SCORE.SYSTEM.CONST>
0

>  <SCORE.SYSTEM.DIHEDRAL>
0

>  <SCORE.SYSTEM.SOLV>
0

>  <SCORE.SYSTEM.norm>
0

>  <SCORE.heavy>
4

>  <SCORE.norm>
-1.35343

>  <RMSD>
26.223

$$$$
ligand
 OpenBabel11021811493D
libRbt.so/2013.1/901 2013/11/27
  4  3  0  0  0  0  0  0  0  0999 V2000
   11.3650   12.6881    4.8937 C   0  0  0  0  0  0  0  0  0  0  0  0
   11.2768   13.9298    5.0160 O   0  0  0  0  0  0  0  0  0  0  0  0
   11.7633   11.9123    6.1422 C   0  0  0  0  0  0  0  0  0  0  0  0
   11.1596   11.9632    3.8233 O   0  0  0  0  0  0  0  0  0  0  0  0
  1  2  1  0  0  0  0
  1  3  1  0  0  0  0
  1  4  1  0  0  0  0
M  END
>  <CHROM.1>
11.38686118,12.63060637,4.95471524,3.00755008,1.30163104,-2.78219588

>  <Name>
ligand

>  <RI>
0

>  <Rbt.Current_Directory>
/home/itssahil/PROJECTS/Mol_Feturizer/New_Systems/rnas/4FEN

>  <Rbt.Executable>
rbdock ($Id: //depot/dev/client3/rdock/2013.1/src/exe/rbdock.cxx#4 $)

>  <Rbt.Library>
libRbt.so (2013.1, Build901 2013/11/27)

>  <Rbt.Parameter_File>
/export/apps/rDock/src/rDock_2013.1_src/data/scripts/dock_solv.prm

>  <Rbt.Receptor>
prm/blind_docking_60.prm

>  <SCORE>
-5.38944

>  <SCORE.INTER>
-5.38944

>  <SCORE.INTER.CONST>
1

>  <SCORE.INTER.POLAR>
0

>  <SCORE.INTER.ROT>
0

>  <SCORE.INTER.SOLV>
1.6236

>  <SCORE.INTER.VDW>
-7.73416

>  <SCORE.INTER.norm>
-1.34736

>  <SCORE.INTRA>
0

>  <SCORE.INTRA.DIHEDRAL>
0

>  <SCORE.INTRA.DIHEDRAL.0>
0

>  <SCORE.INTRA.POLAR>
0

>  <SCORE.INTRA.POLAR.0>
0

>  <SCORE.INTRA.REPUL>
0

>  <SCORE.INTRA.REPUL.0>
0

>  <SCORE.INTRA.SOLV>
0

>  <SCORE.INTRA.SOLV.lig_0>
0.449748

>  <SCORE.INTRA.VDW>
0

>  <SCORE.INTRA.VDW.0>
0

>  <SCORE.INTRA.norm>
0

>  <SCORE.RESTR>
0

>  <SCORE.RESTR.CAVITY>
0

>  <SCORE.RESTR.norm>
0

>  <SCORE.SYSTEM>
0

>  <SCORE.SYSTEM.CONST>
0

>  <SCORE.SYSTEM.DIHEDRAL>
0

>  <SCORE.SYSTEM.SOLV>
0

>  <SCORE.SYSTEM.norm>
0

>  <SCORE.heavy>
4

>  <SCORE.norm>
-1.34736

>  <RMSD>
26.223

$$$$
ligand
 OpenBabel11021811493D
libRbt.so/2013.1/901 2013/11/27
  4  3  0  0  0  0  0  0  0  0999 V2000
   11.3385   12.7783    4.8514 C   0  0  0  0  0  0  0  0  0  0  0  0
   11.0057   12.2046    3.7908 O   0  0  0  0  0  0  0  0  0  0  0  0
   11.7322   11.8761    6.0134 C   0  0  0  0  0  0  0  0  0  0  0  0
   11.3908   14.0633    5.0949 O   0  0  0  0  0  0  0  0  0  0  0  0
  1  2  1  0  0  0  0
  1  3  1  0  0  0  0
  1  4  1  0  0  0  0
M  END
>  <CHROM.1>
11.36274446,12.74133138,4.92587148,2.24247264,-1.25700774,0.06181646

>  <Name>
ligand

>  <RI>
0

>  <Rbt.Current_Directory>
/home/itssahil/PROJECTS/Mol_Feturizer/New_Systems/rnas/4FEN

>  <Rbt.Executable>
rbdock ($Id: //depot/dev/client3/rdock/2013.1/src/exe/rbdock.cxx#4 $)

>  <Rbt.Library>
libRbt.so (2013.1, Build901 2013/11/27)

>  <Rbt.Parameter_File>
/export/apps/rDock/src/rDock_2013.1_src/data/scripts/dock_solv.prm

>  <Rbt.Receptor>
prm/blind_docking_40.prm

>  <SCORE>
-5.44473

>  <SCORE.INTER>
-5.44473

>  <SCORE.INTER.CONST>
1

>  <SCORE.INTER.POLAR>
0

>  <SCORE.INTER.ROT>
0

>  <SCORE.INTER.SOLV>
1.6496

>  <SCORE.INTER.VDW>
-7.77969

>  <SCORE.INTER.norm>
-1.36118

>  <SCORE.INTRA>
0

>  <SCORE.INTRA.DIHEDRAL>
0

>  <SCORE.INTRA.DIHEDRAL.0>
0

>  <SCORE.INTRA.POLAR>
0

>  <SCORE.INTRA.POLAR.0>
0

>  <SCORE.INTRA.REPUL>
0

>  <SCORE.INTRA.REPUL.0>
0

>  <SCORE.INTRA.SOLV>
0

>  <SCORE.INTRA.SOLV.lig_0>
0.449748

>  <SCORE.INTRA.VDW>
0

>  <SCORE.INTRA.VDW.0>
0

>  <SCORE.INTRA.norm>
0

>  <SCORE.RESTR>
0

>  <SCORE.RESTR.CAVITY>
0

>  <SCORE.RESTR.norm>
0

>  <SCORE.SYSTEM>
0

>  <SCORE.SYSTEM.CONST>
0

>  <SCORE.SYSTEM.DIHEDRAL>
0

>  <SCORE.SYSTEM.SOLV>
0

>  <SCORE.SYSTEM.norm>
0

>  <SCORE.heavy>
4

>  <SCORE.norm>
-1.36118

>  <RMSD>
26.225

$$$$
ligand
 OpenBabel11021811493D
libRbt.so/2013.1/901 2013/11/27
  4  3  0  0  0  0  0  0  0  0999 V2000
   11.3449   12.7948    4.8694 C   0  0  0  0  0  0  0  0  0  0  0  0
   11.4007   14.0274    5.0751 O   0  0  0  0  0  0  0  0  0  0  0  0
   11.7183   11.8961    6.0408 C   0  0  0  0  0  0  0  0  0  0  0  0
   11.0066   12.1720    3.7689 O   0  0  0  0  0  0  0  0  0  0  0  0
  1  2  1  0  0  0  0
  1  3  1  0  0  0  0
  1  4  1  0  0  0  0
M  END
>  <CHROM.1>
11.36343310,12.73118819,4.92522876,-2.85705574,1.26797575,-3.11755819

>  <Name>
ligand

>  <RI>
0

>  <Rbt.Current_Directory>
/home/itssahil/PROJECTS/Mol_Feturizer/New_Systems/rnas/4FEN

>  <Rbt.Executable>
rbdock ($Id: //depot/dev/client3/rdock/2013.1/src/exe/rbdock.cxx#4 $)

>  <Rbt.Library>
libRbt.so (2013.1, Build901 2013/11/27)

>  <Rbt.Parameter_File>
/export/apps/rDock/src/rDock_2013.1_src/data/scripts/dock_solv.prm

>  <Rbt.Receptor>
prm/blind_docking_20.prm

>  <SCORE>
-5.40625

>  <SCORE.INTER>
-5.40625

>  <SCORE.INTER.CONST>
1

>  <SCORE.INTER.POLAR>
0

>  <SCORE.INTER.ROT>
0

>  <SCORE.INTER.SOLV>
1.64948

>  <SCORE.INTER.VDW>
-7.754

>  <SCORE.INTER.norm>
-1.35156

>  <SCORE.INTRA>
0

>  <SCORE.INTRA.DIHEDRAL>
0

>  <SCORE.INTRA.DIHEDRAL.0>
0

>  <SCORE.INTRA.POLAR>
0

>  <SCORE.INTRA.POLAR.0>
0

>  <SCORE.INTRA.REPUL>
0

>  <SCORE.INTRA.REPUL.0>
0

>  <SCORE.INTRA.SOLV>
0

>  <SCORE.INTRA.SOLV.lig_0>
0.449748

>  <SCORE.INTRA.VDW>
0

>  <SCORE.INTRA.VDW.0>
0

>  <SCORE.INTRA.norm>
0

>  <SCORE.RESTR>
0

>  <SCORE.RESTR.CAVITY>
0

>  <SCORE.RESTR.norm>
0

>  <SCORE.SYSTEM>
0

>  <SCORE.SYSTEM.CONST>
0

>  <SCORE.SYSTEM.DIHEDRAL>
0

>  <SCORE.SYSTEM.SOLV>
0

>  <SCORE.SYSTEM.norm>
0

>  <SCORE.heavy>
4

>  <SCORE.norm>
-1.35156

>  <RMSD>
26.226

$$$$
ligand
 OpenBabel11021811493D
libRbt.so/2013.1/901 2013/11/27
  4  3  0  0  0  0  0  0  0  0999 V2000
   11.3456   12.7459    4.8333 C   0  0  0  0  0  0  0  0  0  0  0  0
   11.0329   12.1355    3.7872 O   0  0  0  0  0  0  0  0  0  0  0  0
   11.7473   11.8854    6.0239 C   0  0  0  0  0  0  0  0  0  0  0  0
   11.3708   14.0382    5.0399 O   0  0  0  0  0  0  0  0  0  0  0  0
  1  2  1  0  0  0  0
  1  3  1  0  0  0  0
  1  4  1  0  0  0  0
M  END
>  <CHROM.1>
11.36999111,12.71154935,4.90897181,2.30864285,-1.26340141,0.09596387

>  <Name>
ligand

>  <RI>
0

>  <Rbt.Current_Directory>
/home/itssahil/PROJECTS/Mol_Feturizer/New_Systems/rnas/4FEN

>  <Rbt.Executable>
rbdock ($Id: //depot/dev/client3/rdock/2013.1/src/exe/rbdock.cxx#4 $)

>  <Rbt.Library>
libRbt.so (2013.1, Build901 2013/11/27)

>  <Rbt.Parameter_File>
/export/apps/rDock/src/rDock_2013.1_src/data/scripts/dock_solv.prm

>  <Rbt.Receptor>
prm/blind_docking_60.prm

>  <SCORE>
-5.45242

>  <SCORE.INTER>
-5.45242

>  <SCORE.INTER.CONST>
1

>  <SCORE.INTER.POLAR>
0

>  <SCORE.INTER.ROT>
0

>  <SCORE.INTER.SOLV>
1.65206

>  <SCORE.INTER.VDW>
-7.78563

>  <SCORE.INTER.norm>
-1.3631

>  <SCORE.INTRA>
0

>  <SCORE.INTRA.DIHEDRAL>
0

>  <SCORE.INTRA.DIHEDRAL.0>
0

>  <SCORE.INTRA.POLAR>
0

>  <SCORE.INTRA.POLAR.0>
0

>  <SCORE.INTRA.REPUL>
0

>  <SCORE.INTRA.REPUL.0>
0

>  <SCORE.INTRA.SOLV>
0

>  <SCORE.INTRA.SOLV.lig_0>
0.449748

>  <SCORE.INTRA.VDW>
0

>  <SCORE.INTRA.VDW.0>
0

>  <SCORE.INTRA.norm>
0

>  <SCORE.RESTR>
0

>  <SCORE.RESTR.CAVITY>
0

>  <SCORE.RESTR.norm>
0

>  <SCORE.SYSTEM>
0

>  <SCORE.SYSTEM.CONST>
0

>  <SCORE.SYSTEM.DIHEDRAL>
0

>  <SCORE.SYSTEM.SOLV>
0

>  <SCORE.SYSTEM.norm>
0

>  <SCORE.heavy>
4

>  <SCORE.norm>
-1.3631

>  <RMSD>
26.229

$$$$
ligand
 OpenBabel11021811493D
libRbt.so/2013.1/901 2013/11/27
  4  3  0  0  0  0  0  0  0  0999 V2000
   11.3450   12.7553    4.8794 C   0  0  0  0  0  0  0  0  0  0  0  0
   11.3126   13.9926    5.0606 O   0  0  0  0  0  0  0  0  0  0  0  0
   11.7371   11.9059    6.0811 C   0  0  0  0  0  0  0  0  0  0  0  0
   11.0856   12.0906    3.7821 O   0  0  0  0  0  0  0  0  0  0  0  0
  1  2  1  0  0  0  0
  1  3  1  0  0  0  0
  1  4  1  0  0  0  0
M  END
>  <CHROM.1>
11.36580805,12.69416363,4.93713593,-3.10160048,1.29218270,-2.90336651

>  <Name>
ligand

>  <RI>
0

>  <Rbt.Current_Directory>
/home/itssahil/PROJECTS/Mol_Feturizer/New_Systems/rnas/4FEN

>  <Rbt.Executable>
rbdock ($Id: //depot/dev/client3/rdock/2013.1/src/exe/rbdock.cxx#4 $)

>  <Rbt.Library>
libRbt.so (2013.1, Build901 2013/11/27)

>  <Rbt.Parameter_File>
/export/apps/rDock/src/rDock_2013.1_src/data/scripts/dock_solv.prm

>  <Rbt.Receptor>
prm/blind_docking_100.prm

>  <SCORE>
-5.41264

>  <SCORE.INTER>
-5.41264

>  <SCORE.INTER.CONST>
1

>  <SCORE.INTER.POLAR>
0

>  <SCORE.INTER.ROT>
0

>  <SCORE.INTER.SOLV>
1.63182

>  <SCORE.INTER.VDW>
-7.75237

>  <SCORE.INTER.norm>
-1.35316

>  <SCORE.INTRA>
0

>  <SCORE.INTRA.DIHEDRAL>
0

>  <SCORE.INTRA.DIHEDRAL.0>
0

>  <SCORE.INTRA.POLAR>
0

>  <SCORE.INTRA.POLAR.0>
0

>  <SCORE.INTRA.REPUL>
0

>  <SCORE.INTRA.REPUL.0>
0

>  <SCORE.INTRA.SOLV>
0

>  <SCORE.INTRA.SOLV.lig_0>
0.449748

>  <SCORE.INTRA.VDW>
0

>  <SCORE.INTRA.VDW.0>
0

>  <SCORE.INTRA.norm>
0

>  <SCORE.RESTR>
0

>  <SCORE.RESTR.CAVITY>
0

>  <SCORE.RESTR.norm>
0

>  <SCORE.SYSTEM>
0

>  <SCORE.SYSTEM.CONST>
0

>  <SCORE.SYSTEM.DIHEDRAL>
0

>  <SCORE.SYSTEM.SOLV>
0

>  <SCORE.SYSTEM.norm>
0

>  <SCORE.heavy>
4

>  <SCORE.norm>
-1.35316

>  <RMSD>
26.230

$$$$
ligand
 OpenBabel11021811493D
libRbt.so/2013.1/901 2013/11/27
  4  3  0  0  0  0  0  0  0  0999 V2000
   11.3469   12.7472    4.8323 C   0  0  0  0  0  0  0  0  0  0  0  0
   11.0705   12.1447    3.7715 O   0  0  0  0  0  0  0  0  0  0  0  0
   11.7255   11.8784    6.0244 C   0  0  0  0  0  0  0  0  0  0  0  0
   11.3512   14.0373    5.0533 O   0  0  0  0  0  0  0  0  0  0  0  0
  1  2  1  0  0  0  0
  1  3  1  0  0  0  0
  1  4  1  0  0  0  0
M  END
>  <CHROM.1>
11.36957143,12.71229270,4.90827461,2.36051640,-1.28954194,0.15641110

>  <Name>
ligand

>  <RI>
0

>  <Rbt.Current_Directory>
/home/itssahil/PROJECTS/Mol_Feturizer/New_Systems/rnas/4FEN

>  <Rbt.Executable>
rbdock ($Id: //depot/dev/client3/rdock/2013.1/src/exe/rbdock.cxx#4 $)

>  <Rbt.Library>
libRbt.so (2013.1, Build901 2013/11/27)

>  <Rbt.Parameter_File>
/export/apps/rDock/src/rDock_2013.1_src/data/scripts/dock_solv.prm

>  <Rbt.Receptor>
prm/blind_docking_20.prm

>  <SCORE>
-5.45112

>  <SCORE.INTER>
-5.45112

>  <SCORE.INTER.CONST>
1

>  <SCORE.INTER.POLAR>
0

>  <SCORE.INTER.ROT>
0

>  <SCORE.INTER.SOLV>
1.64554

>  <SCORE.INTER.VDW>
-7.7826

>  <SCORE.INTER.norm>
-1.36278

>  <SCORE.INTRA>
0

>  <SCORE.INTRA.DIHEDRAL>
0

>  <SCORE.INTRA.DIHEDRAL.0>
0

>  <SCORE.INTRA.POLAR>
0

>  <SCORE.INTRA.POLAR.0>
0

>  <SCORE.INTRA.REPUL>
0

>  <SCORE.INTRA.REPUL.0>
0

>  <SCORE.INTRA.SOLV>
0

>  <SCORE.INTRA.SOLV.lig_0>
0.449748

>  <SCORE.INTRA.VDW>
0

>  <SCORE.INTRA.VDW.0>
0

>  <SCORE.INTRA.norm>
0

>  <SCORE.RESTR>
0

>  <SCORE.RESTR.CAVITY>
0

>  <SCORE.RESTR.norm>
0

>  <SCORE.SYSTEM>
0

>  <SCORE.SYSTEM.CONST>
0

>  <SCORE.SYSTEM.DIHEDRAL>
0

>  <SCORE.SYSTEM.SOLV>
0

>  <SCORE.SYSTEM.norm>
0

>  <SCORE.heavy>
4

>  <SCORE.norm>
-1.36278

>  <RMSD>
26.230

$$$$
ligand
 OpenBabel11021811493D
libRbt.so/2013.1/901 2013/11/27
  4  3  0  0  0  0  0  0  0  0999 V2000
   11.3250   12.7914    4.8630 C   0  0  0  0  0  0  0  0  0  0  0  0
   10.9433   12.2243    3.8155 O   0  0  0  0  0  0  0  0  0  0  0  0
   11.7429   11.8816    6.0107 C   0  0  0  0  0  0  0  0  0  0  0  0
   11.4109   14.0751    5.1037 O   0  0  0  0  0  0  0  0  0  0  0  0
  1  2  1  0  0  0  0
  1  3  1  0  0  0  0
  1  4  1  0  0  0  0
M  END
>  <CHROM.1>
11.35126532,12.75388162,4.93659974,2.17960686,-1.22158492,0.00209721

>  <Name>
ligand

>  <RI>
0

>  <Rbt.Current_Directory>
/home/itssahil/PROJECTS/Mol_Feturizer/New_Systems/rnas/4FEN

>  <Rbt.Executable>
rbdock ($Id: //depot/dev/client3/rdock/2013.1/src/exe/rbdock.cxx#4 $)

>  <Rbt.Library>
libRbt.so (2013.1, Build901 2013/11/27)

>  <Rbt.Parameter_File>
/export/apps/rDock/src/rDock_2013.1_src/data/scripts/dock_solv.prm

>  <Rbt.Receptor>
prm/blind_docking_20.prm

>  <SCORE>
-5.4591

>  <SCORE.INTER>
-5.4591

>  <SCORE.INTER.CONST>
1

>  <SCORE.INTER.POLAR>
0

>  <SCORE.INTER.ROT>
0

>  <SCORE.INTER.SOLV>
1.65262

>  <SCORE.INTER.VDW>
-7.79027

>  <SCORE.INTER.norm>
-1.36477

>  <SCORE.INTRA>
0

>  <SCORE.INTRA.DIHEDRAL>
0

>  <SCORE.INTRA.DIHEDRAL.0>
0

>  <SCORE.INTRA.POLAR>
0

>  <SCORE.INTRA.POLAR.0>
0

>  <SCORE.INTRA.REPUL>
0

>  <SCORE.INTRA.REPUL.0>
0

>  <SCORE.INTRA.SOLV>
0

>  <SCORE.INTRA.SOLV.lig_0>
0.449748

>  <SCORE.INTRA.VDW>
0

>  <SCORE.INTRA.VDW.0>
0

>  <SCORE.INTRA.norm>
0

>  <SCORE.RESTR>
0

>  <SCORE.RESTR.CAVITY>
0

>  <SCORE.RESTR.norm>
0

>  <SCORE.SYSTEM>
0

>  <SCORE.SYSTEM.CONST>
0

>  <SCORE.SYSTEM.DIHEDRAL>
0

>  <SCORE.SYSTEM.SOLV>
0

>  <SCORE.SYSTEM.norm>
0

>  <SCORE.heavy>
4

>  <SCORE.norm>
-1.36477

>  <RMSD>
26.230

$$$$
ligand
 OpenBabel11021811493D
libRbt.so/2013.1/901 2013/11/27
  4  3  0  0  0  0  0  0  0  0999 V2000
   11.3444   12.7531    4.8768 C   0  0  0  0  0  0  0  0  0  0  0  0
   11.3126   13.9848    5.0926 O   0  0  0  0  0  0  0  0  0  0  0  0
   11.7655   11.8724    6.0459 C   0  0  0  0  0  0  0  0  0  0  0  0
   11.0626   12.1178    3.7677 O   0  0  0  0  0  0  0  0  0  0  0  0
  1  2  1  0  0  0  0
  1  3  1  0  0  0  0
  1  4  1  0  0  0  0
M  END
>  <CHROM.1>
11.36665107,12.69043765,4.93241544,-3.09306171,1.26995810,-2.88413328

>  <Name>
ligand

>  <RI>
0

>  <Rbt.Current_Directory>
/home/itssahil/PROJECTS/Mol_Feturizer/New_Systems/rnas/4FEN

>  <Rbt.Executable>
rbdock ($Id: //depot/dev/client3/rdock/2013.1/src/exe/rbdock.cxx#4 $)

>  <Rbt.Library>
libRbt.so (2013.1, Build901 2013/11/27)

>  <Rbt.Parameter_File>
/export/apps/rDock/src/rDock_2013.1_src/data/scripts/dock_solv.prm

>  <Rbt.Receptor>
prm/blind_docking_100.prm

>  <SCORE>
-5.43675

>  <SCORE.INTER>
-5.43675

>  <SCORE.INTER.CONST>
1

>  <SCORE.INTER.POLAR>
0

>  <SCORE.INTER.ROT>
0

>  <SCORE.INTER.SOLV>
1.62206

>  <SCORE.INTER.VDW>
-7.76519

>  <SCORE.INTER.norm>
-1.35919

>  <SCORE.INTRA>
0

>  <SCORE.INTRA.DIHEDRAL>
0

>  <SCORE.INTRA.DIHEDRAL.0>
0

>  <SCORE.INTRA.POLAR>
0

>  <SCORE.INTRA.POLAR.0>
0

>  <SCORE.INTRA.REPUL>
0

>  <SCORE.INTRA.REPUL.0>
0

>  <SCORE.INTRA.SOLV>
0

>  <SCORE.INTRA.SOLV.lig_0>
0.449748

>  <SCORE.INTRA.VDW>
0

>  <SCORE.INTRA.VDW.0>
0

>  <SCORE.INTRA.norm>
0

>  <SCORE.RESTR>
0

>  <SCORE.RESTR.CAVITY>
0

>  <SCORE.RESTR.norm>
0

>  <SCORE.SYSTEM>
0

>  <SCORE.SYSTEM.CONST>
0

>  <SCORE.SYSTEM.DIHEDRAL>
0

>  <SCORE.SYSTEM.SOLV>
0

>  <SCORE.SYSTEM.norm>
0

>  <SCORE.heavy>
4

>  <SCORE.norm>
-1.35919

>  <RMSD>
26.232

$$$$
ligand
 OpenBabel11021811493D
libRbt.so/2013.1/901 2013/11/27
  4  3  0  0  0  0  0  0  0  0999 V2000
   11.3450   12.7420    4.8293 C   0  0  0  0  0  0  0  0  0  0  0  0
   11.0643   12.1360    3.7716 O   0  0  0  0  0  0  0  0  0  0  0  0
   11.7331   11.8773    6.0214 C   0  0  0  0  0  0  0  0  0  0  0  0
   11.3467   14.0327    5.0470 O   0  0  0  0  0  0  0  0  0  0  0  0
  1  2  1  0  0  0  0
  1  3  1  0  0  0  0
  1  4  1  0  0  0  0
M  END
>  <CHROM.1>
11.36823520,12.70734249,4.90519731,2.36776246,-1.28336784,0.16088073

>  <Name>
ligand

>  <RI>
0

>  <Rbt.Current_Directory>
/home/itssahil/PROJECTS/Mol_Feturizer/New_Systems/rnas/4FEN

>  <Rbt.Executable>
rbdock ($Id: //depot/dev/client3/rdock/2013.1/src/exe/rbdock.cxx#4 $)

>  <Rbt.Library>
libRbt.so (2013.1, Build901 2013/11/27)

>  <Rbt.Parameter_File>
/export/apps/rDock/src/rDock_2013.1_src/data/scripts/dock_solv.prm

>  <Rbt.Receptor>
prm/blind_docking_60.prm

>  <SCORE>
-5.45241

>  <SCORE.INTER>
-5.45241

>  <SCORE.INTER.CONST>
1

>  <SCORE.INTER.POLAR>
0

>  <SCORE.INTER.ROT>
0

>  <SCORE.INTER.SOLV>
1.6451

>  <SCORE.INTER.VDW>
-7.78331

>  <SCORE.INTER.norm>
-1.3631

>  <SCORE.INTRA>
0

>  <SCORE.INTRA.DIHEDRAL>
0

>  <SCORE.INTRA.DIHEDRAL.0>
0

>  <SCORE.INTRA.POLAR>
0

>  <SCORE.INTRA.POLAR.0>
0

>  <SCORE.INTRA.REPUL>
0

>  <SCORE.INTRA.REPUL.0>
0

>  <SCORE.INTRA.SOLV>
0

>  <SCORE.INTRA.SOLV.lig_0>
0.449748

>  <SCORE.INTRA.VDW>
0

>  <SCORE.INTRA.VDW.0>
0

>  <SCORE.INTRA.norm>
0

>  <SCORE.RESTR>
0

>  <SCORE.RESTR.CAVITY>
0

>  <SCORE.RESTR.norm>
0

>  <SCORE.SYSTEM>
0

>  <SCORE.SYSTEM.CONST>
0

>  <SCORE.SYSTEM.DIHEDRAL>
0

>  <SCORE.SYSTEM.SOLV>
0

>  <SCORE.SYSTEM.norm>
0

>  <SCORE.heavy>
4

>  <SCORE.norm>
-1.3631

>  <RMSD>
26.233

$$$$
ligand
 OpenBabel11021811493D
libRbt.so/2013.1/901 2013/11/27
  4  3  0  0  0  0  0  0  0  0999 V2000
   11.3430   12.7532    4.8771 C   0  0  0  0  0  0  0  0  0  0  0  0
   11.3245   13.9854    5.0918 O   0  0  0  0  0  0  0  0  0  0  0  0
   11.7454   11.8685    6.0496 C   0  0  0  0  0  0  0  0  0  0  0  0
   11.0610   12.1205    3.7665 O   0  0  0  0  0  0  0  0  0  0  0  0
  1  2  1  0  0  0  0
  1  3  1  0  0  0  0
  1  4  1  0  0  0  0
M  END
>  <CHROM.1>
11.36405429,12.69034599,4.93288381,-3.05850738,1.27944551,-2.91792225

>  <Name>
ligand

>  <RI>
0

>  <Rbt.Current_Directory>
/home/itssahil/PROJECTS/Mol_Feturizer/New_Systems/rnas/4FEN

>  <Rbt.Executable>
rbdock ($Id: //depot/dev/client3/rdock/2013.1/src/exe/rbdock.cxx#4 $)

>  <Rbt.Library>
libRbt.so (2013.1, Build901 2013/11/27)

>  <Rbt.Parameter_File>
/export/apps/rDock/src/rDock_2013.1_src/data/scripts/dock_solv.prm

>  <Rbt.Receptor>
prm/blind_docking_40.prm

>  <SCORE>
-5.43884

>  <SCORE.INTER>
-5.43884

>  <SCORE.INTER.CONST>
1

>  <SCORE.INTER.POLAR>
0

>  <SCORE.INTER.ROT>
0

>  <SCORE.INTER.SOLV>
1.62112

>  <SCORE.INTER.VDW>
-7.76627

>  <SCORE.INTER.norm>
-1.35971

>  <SCORE.INTRA>
0

>  <SCORE.INTRA.DIHEDRAL>
0

>  <SCORE.INTRA.DIHEDRAL.0>
0

>  <SCORE.INTRA.POLAR>
0

>  <SCORE.INTRA.POLAR.0>
0

>  <SCORE.INTRA.REPUL>
0

>  <SCORE.INTRA.REPUL.0>
0

>  <SCORE.INTRA.SOLV>
0

>  <SCORE.INTRA.SOLV.lig_0>
0.449748

>  <SCORE.INTRA.VDW>
0

>  <SCORE.INTRA.VDW.0>
0

>  <SCORE.INTRA.norm>
0

>  <SCORE.RESTR>
0

>  <SCORE.RESTR.CAVITY>
0

>  <SCORE.RESTR.norm>
0

>  <SCORE.SYSTEM>
0

>  <SCORE.SYSTEM.CONST>
0

>  <SCORE.SYSTEM.DIHEDRAL>
0

>  <SCORE.SYSTEM.SOLV>
0

>  <SCORE.SYSTEM.norm>
0

>  <SCORE.heavy>
4

>  <SCORE.norm>
-1.35971

>  <RMSD>
26.234

$$$$
ligand
 OpenBabel11021811493D
libRbt.so/2013.1/901 2013/11/27
  4  3  0  0  0  0  0  0  0  0999 V2000
   11.3388   12.7777    4.8620 C   0  0  0  0  0  0  0  0  0  0  0  0
   11.3081   14.0134    5.0536 O   0  0  0  0  0  0  0  0  0  0  0  0
   11.7401   11.9184    6.0536 C   0  0  0  0  0  0  0  0  0  0  0  0
   11.0706   12.1220    3.7613 O   0  0  0  0  0  0  0  0  0  0  0  0
  1  2  1  0  0  0  0
  1  3  1  0  0  0  0
  1  4  1  0  0  0  0
M  END
>  <CHROM.1>
11.36000707,12.71608881,4.91907976,-3.09417739,1.28460831,-2.90229713

>  <Name>
ligand

>  <RI>
0

>  <Rbt.Current_Directory>
/home/itssahil/PROJECTS/Mol_Feturizer/New_Systems/rnas/4FEN

>  <Rbt.Executable>
rbdock ($Id: //depot/dev/client3/rdock/2013.1/src/exe/rbdock.cxx#4 $)

>  <Rbt.Library>
libRbt.so (2013.1, Build901 2013/11/27)

>  <Rbt.Parameter_File>
/export/apps/rDock/src/rDock_2013.1_src/data/scripts/dock_solv.prm

>  <Rbt.Receptor>
prm/blind_docking_60.prm

>  <SCORE>
-5.43313

>  <SCORE.INTER>
-5.43313

>  <SCORE.INTER.CONST>
1

>  <SCORE.INTER.POLAR>
0

>  <SCORE.INTER.ROT>
0

>  <SCORE.INTER.SOLV>
1.64175

>  <SCORE.INTER.VDW>
-7.76934

>  <SCORE.INTER.norm>
-1.35828

>  <SCORE.INTRA>
0

>  <SCORE.INTRA.DIHEDRAL>
0

>  <SCORE.INTRA.DIHEDRAL.0>
0

>  <SCORE.INTRA.POLAR>
0

>  <SCORE.INTRA.POLAR.0>
0

>  <SCORE.INTRA.REPUL>
0

>  <SCORE.INTRA.REPUL.0>
0

>  <SCORE.INTRA.SOLV>
0

>  <SCORE.INTRA.SOLV.lig_0>
0.449748

>  <SCORE.INTRA.VDW>
0

>  <SCORE.INTRA.VDW.0>
0

>  <SCORE.INTRA.norm>
0

>  <SCORE.RESTR>
0

>  <SCORE.RESTR.CAVITY>
0

>  <SCORE.RESTR.norm>
0

>  <SCORE.SYSTEM>
0

>  <SCORE.SYSTEM.CONST>
0

>  <SCORE.SYSTEM.DIHEDRAL>
0

>  <SCORE.SYSTEM.SOLV>
0

>  <SCORE.SYSTEM.norm>
0

>  <SCORE.heavy>
4

>  <SCORE.norm>
-1.35828

>  <RMSD>
26.234

$$$$
ligand
 OpenBabel11021811493D
libRbt.so/2013.1/901 2013/11/27
  4  3  0  0  0  0  0  0  0  0999 V2000
   11.3412   12.7460    4.8328 C   0  0  0  0  0  0  0  0  0  0  0  0
   11.0357   12.1475    3.7777 O   0  0  0  0  0  0  0  0  0  0  0  0
   11.7397   11.8721    6.0147 C   0  0  0  0  0  0  0  0  0  0  0  0
   11.3612   14.0357    5.0554 O   0  0  0  0  0  0  0  0  0  0  0  0
  1  2  1  0  0  0  0
  1  3  1  0  0  0  0
  1  4  1  0  0  0  0
M  END
>  <CHROM.1>
11.36530744,12.71076342,4.90817711,2.32112909,-1.26808066,0.12020156

>  <Name>
ligand

>  <RI>
0

>  <Rbt.Current_Directory>
/home/itssahil/PROJECTS/Mol_Feturizer/New_Systems/rnas/4FEN

>  <Rbt.Executable>
rbdock ($Id: //depot/dev/client3/rdock/2013.1/src/exe/rbdock.cxx#4 $)

>  <Rbt.Library>
libRbt.so (2013.1, Build901 2013/11/27)

>  <Rbt.Parameter_File>
/export/apps/rDock/src/rDock_2013.1_src/data/scripts/dock_solv.prm

>  <Rbt.Receptor>
prm/blind_docking_60.prm

>  <SCORE>
-5.45381

>  <SCORE.INTER>
-5.45381

>  <SCORE.INTER.CONST>
1

>  <SCORE.INTER.POLAR>
0

>  <SCORE.INTER.ROT>
0

>  <SCORE.INTER.SOLV>
1.64468

>  <SCORE.INTER.VDW>
-7.7841

>  <SCORE.INTER.norm>
-1.36345

>  <SCORE.INTRA>
0

>  <SCORE.INTRA.DIHEDRAL>
0

>  <SCORE.INTRA.DIHEDRAL.0>
0

>  <SCORE.INTRA.POLAR>
0

>  <SCORE.INTRA.POLAR.0>
0

>  <SCORE.INTRA.REPUL>
0

>  <SCORE.INTRA.REPUL.0>
0

>  <SCORE.INTRA.SOLV>
0

>  <SCORE.INTRA.SOLV.lig_0>
0.449748

>  <SCORE.INTRA.VDW>
0

>  <SCORE.INTRA.VDW.0>
0

>  <SCORE.INTRA.norm>
0

>  <SCORE.RESTR>
0

>  <SCORE.RESTR.CAVITY>
0

>  <SCORE.RESTR.norm>
0

>  <SCORE.SYSTEM>
0

>  <SCORE.SYSTEM.CONST>
0

>  <SCORE.SYSTEM.DIHEDRAL>
0

>  <SCORE.SYSTEM.SOLV>
0

>  <SCORE.SYSTEM.norm>
0

>  <SCORE.heavy>
4

>  <SCORE.norm>
-1.36345

>  <RMSD>
26.234

$$$$
ligand
 OpenBabel11021811493D
libRbt.so/2013.1/901 2013/11/27
  4  3  0  0  0  0  0  0  0  0999 V2000
   11.3363   12.7467    4.8375 C   0  0  0  0  0  0  0  0  0  0  0  0
   11.0295   12.1380    3.7886 O   0  0  0  0  0  0  0  0  0  0  0  0
   11.7587   11.8853    6.0203 C   0  0  0  0  0  0  0  0  0  0  0  0
   11.3398   14.0377    5.0529 O   0  0  0  0  0  0  0  0  0  0  0  0
  1  2  1  0  0  0  0
  1  3  1  0  0  0  0
  1  4  1  0  0  0  0
M  END
>  <CHROM.1>
11.36165534,12.71224031,4.91282074,2.36388728,-1.25660021,0.15547114

>  <Name>
ligand

>  <RI>
0

>  <Rbt.Current_Directory>
/home/itssahil/PROJECTS/Mol_Feturizer/New_Systems/rnas/4FEN

>  <Rbt.Executable>
rbdock ($Id: //depot/dev/client3/rdock/2013.1/src/exe/rbdock.cxx#4 $)

>  <Rbt.Library>
libRbt.so (2013.1, Build901 2013/11/27)

>  <Rbt.Parameter_File>
/export/apps/rDock/src/rDock_2013.1_src/data/scripts/dock_solv.prm

>  <Rbt.Receptor>
prm/blind_docking_40.prm

>  <SCORE>
-5.4492

>  <SCORE.INTER>
-5.4492

>  <SCORE.INTER.CONST>
1

>  <SCORE.INTER.POLAR>
0

>  <SCORE.INTER.ROT>
0

>  <SCORE.INTER.SOLV>
1.6456

>  <SCORE.INTER.VDW>
-7.78133

>  <SCORE.INTER.norm>
-1.3623

>  <SCORE.INTRA>
0

>  <SCORE.INTRA.DIHEDRAL>
0

>  <SCORE.INTRA.DIHEDRAL.0>
0

>  <SCORE.INTRA.POLAR>
0

>  <SCORE.INTRA.POLAR.0>
0

>  <SCORE.INTRA.REPUL>
0

>  <SCORE.INTRA.REPUL.0>
0

>  <SCORE.INTRA.SOLV>
0

>  <SCORE.INTRA.SOLV.lig_0>
0.449748

>  <SCORE.INTRA.VDW>
0

>  <SCORE.INTRA.VDW.0>
0

>  <SCORE.INTRA.norm>
0

>  <SCORE.RESTR>
0

>  <SCORE.RESTR.CAVITY>
0

>  <SCORE.RESTR.norm>
0

>  <SCORE.SYSTEM>
0

>  <SCORE.SYSTEM.CONST>
0

>  <SCORE.SYSTEM.DIHEDRAL>
0

>  <SCORE.SYSTEM.SOLV>
0

>  <SCORE.SYSTEM.norm>
0

>  <SCORE.heavy>
4

>  <SCORE.norm>
-1.3623

>  <RMSD>
26.236

$$$$
ligand
 OpenBabel11021811493D
libRbt.so/2013.1/901 2013/11/27
  4  3  0  0  0  0  0  0  0  0999 V2000
   11.3420   12.7386    4.8232 C   0  0  0  0  0  0  0  0  0  0  0  0
   11.0860   12.1250    3.7636 O   0  0  0  0  0  0  0  0  0  0  0  0
   11.7401   11.8848    6.0198 C   0  0  0  0  0  0  0  0  0  0  0  0
   11.3102   14.0292    5.0394 O   0  0  0  0  0  0  0  0  0  0  0  0
  1  2  1  0  0  0  0
  1  3  1  0  0  0  0
  1  4  1  0  0  0  0
M  END
>  <CHROM.1>
11.36539470,12.70465082,4.89937787,2.45947008,-1.28744051,0.24784376

>  <Name>
ligand

>  <RI>
0

>  <Rbt.Current_Directory>
/home/itssahil/PROJECTS/Mol_Feturizer/New_Systems/rnas/4FEN

>  <Rbt.Executable>
rbdock ($Id: //depot/dev/client3/rdock/2013.1/src/exe/rbdock.cxx#4 $)

>  <Rbt.Library>
libRbt.so (2013.1, Build901 2013/11/27)

>  <Rbt.Parameter_File>
/export/apps/rDock/src/rDock_2013.1_src/data/scripts/dock_solv.prm

>  <Rbt.Receptor>
prm/blind_docking_100.prm

>  <SCORE>
-5.44445

>  <SCORE.INTER>
-5.44445

>  <SCORE.INTER.CONST>
1

>  <SCORE.INTER.POLAR>
0

>  <SCORE.INTER.ROT>
0

>  <SCORE.INTER.SOLV>
1.64278

>  <SCORE.INTER.VDW>
-7.77723

>  <SCORE.INTER.norm>
-1.36111

>  <SCORE.INTRA>
0

>  <SCORE.INTRA.DIHEDRAL>
0

>  <SCORE.INTRA.DIHEDRAL.0>
0

>  <SCORE.INTRA.POLAR>
0

>  <SCORE.INTRA.POLAR.0>
0

>  <SCORE.INTRA.REPUL>
0

>  <SCORE.INTRA.REPUL.0>
0

>  <SCORE.INTRA.SOLV>
0

>  <SCORE.INTRA.SOLV.lig_0>
0.449748

>  <SCORE.INTRA.VDW>
0

>  <SCORE.INTRA.VDW.0>
0

>  <SCORE.INTRA.norm>
0

>  <SCORE.RESTR>
0

>  <SCORE.RESTR.CAVITY>
0

>  <SCORE.RESTR.norm>
0

>  <SCORE.SYSTEM>
0

>  <SCORE.SYSTEM.CONST>
0

>  <SCORE.SYSTEM.DIHEDRAL>
0

>  <SCORE.SYSTEM.SOLV>
0

>  <SCORE.SYSTEM.norm>
0

>  <SCORE.heavy>
4

>  <SCORE.norm>
-1.36111

>  <RMSD>
26.237

$$$$
ligand
 OpenBabel11021811493D
libRbt.so/2013.1/901 2013/11/27
  4  3  0  0  0  0  0  0  0  0999 V2000
   11.3486   12.7410    4.8238 C   0  0  0  0  0  0  0  0  0  0  0  0
   11.2649   13.9849    4.9261 O   0  0  0  0  0  0  0  0  0  0  0  0
   11.7359   11.9833    6.0869 C   0  0  0  0  0  0  0  0  0  0  0  0
   11.1470   12.0004    3.7637 O   0  0  0  0  0  0  0  0  0  0  0  0
  1  2  1  0  0  0  0
  1  3  1  0  0  0  0
  1  4  1  0  0  0  0
M  END
>  <CHROM.1>
11.36992044,12.68445399,4.88587710,3.01415761,1.30899173,-2.80424737

>  <Name>
ligand

>  <RI>
0

>  <Rbt.Current_Directory>
/home/itssahil/PROJECTS/Mol_Feturizer/New_Systems/rnas/4FEN

>  <Rbt.Executable>
rbdock ($Id: //depot/dev/client3/rdock/2013.1/src/exe/rbdock.cxx#4 $)

>  <Rbt.Library>
libRbt.so (2013.1, Build901 2013/11/27)

>  <Rbt.Parameter_File>
/export/apps/rDock/src/rDock_2013.1_src/data/scripts/dock_solv.prm

>  <Rbt.Receptor>
prm/blind_docking_80.prm

>  <SCORE>
-5.42722

>  <SCORE.INTER>
-5.42722

>  <SCORE.INTER.CONST>
1

>  <SCORE.INTER.POLAR>
0

>  <SCORE.INTER.ROT>
0

>  <SCORE.INTER.SOLV>
1.65943

>  <SCORE.INTER.VDW>
-7.77129

>  <SCORE.INTER.norm>
-1.35681

>  <SCORE.INTRA>
0

>  <SCORE.INTRA.DIHEDRAL>
0

>  <SCORE.INTRA.DIHEDRAL.0>
0

>  <SCORE.INTRA.POLAR>
0

>  <SCORE.INTRA.POLAR.0>
0

>  <SCORE.INTRA.REPUL>
0

>  <SCORE.INTRA.REPUL.0>
0

>  <SCORE.INTRA.SOLV>
0

>  <SCORE.INTRA.SOLV.lig_0>
0.449748

>  <SCORE.INTRA.VDW>
0

>  <SCORE.INTRA.VDW.0>
0

>  <SCORE.INTRA.norm>
0

>  <SCORE.RESTR>
0

>  <SCORE.RESTR.CAVITY>
0

>  <SCORE.RESTR.norm>
0

>  <SCORE.SYSTEM>
0

>  <SCORE.SYSTEM.CONST>
0

>  <SCORE.SYSTEM.DIHEDRAL>
0

>  <SCORE.SYSTEM.SOLV>
0

>  <SCORE.SYSTEM.norm>
0

>  <SCORE.heavy>
4

>  <SCORE.norm>
-1.35681

>  <RMSD>
26.238

$$$$
ligand
 OpenBabel11021811493D
libRbt.so/2013.1/901 2013/11/27
  4  3  0  0  0  0  0  0  0  0999 V2000
   11.3347   12.7725    4.8591 C   0  0  0  0  0  0  0  0  0  0  0  0
   11.3137   14.0086    5.0499 O   0  0  0  0  0  0  0  0  0  0  0  0
   11.7420   11.9117    6.0476 C   0  0  0  0  0  0  0  0  0  0  0  0
   11.0517   12.1177    3.7617 O   0  0  0  0  0  0  0  0  0  0  0  0
  1  2  1  0  0  0  0
  1  3  1  0  0  0  0
  1  4  1  0  0  0  0
M  END
>  <CHROM.1>
11.35602832,12.71082520,4.91607293,-3.06498474,1.27659001,-2.93112433

>  <Name>
ligand

>  <RI>
0

>  <Rbt.Current_Directory>
/home/itssahil/PROJECTS/Mol_Feturizer/New_Systems/rnas/4FEN

>  <Rbt.Executable>
rbdock ($Id: //depot/dev/client3/rdock/2013.1/src/exe/rbdock.cxx#4 $)

>  <Rbt.Library>
libRbt.so (2013.1, Build901 2013/11/27)

>  <Rbt.Parameter_File>
/export/apps/rDock/src/rDock_2013.1_src/data/scripts/dock_solv.prm

>  <Rbt.Receptor>
prm/blind_docking_40.prm

>  <SCORE>
-5.43278

>  <SCORE.INTER>
-5.43278

>  <SCORE.INTER.CONST>
1

>  <SCORE.INTER.POLAR>
0

>  <SCORE.INTER.ROT>
0

>  <SCORE.INTER.SOLV>
1.64012

>  <SCORE.INTER.VDW>
-7.76856

>  <SCORE.INTER.norm>
-1.3582

>  <SCORE.INTRA>
0

>  <SCORE.INTRA.DIHEDRAL>
0

>  <SCORE.INTRA.DIHEDRAL.0>
0

>  <SCORE.INTRA.POLAR>
0

>  <SCORE.INTRA.POLAR.0>
0

>  <SCORE.INTRA.REPUL>
0

>  <SCORE.INTRA.REPUL.0>
0

>  <SCORE.INTRA.SOLV>
0

>  <SCORE.INTRA.SOLV.lig_0>
0.449748

>  <SCORE.INTRA.VDW>
0

>  <SCORE.INTRA.VDW.0>
0

>  <SCORE.INTRA.norm>
0

>  <SCORE.RESTR>
0

>  <SCORE.RESTR.CAVITY>
0

>  <SCORE.RESTR.norm>
0

>  <SCORE.SYSTEM>
0

>  <SCORE.SYSTEM.CONST>
0

>  <SCORE.SYSTEM.DIHEDRAL>
0

>  <SCORE.SYSTEM.SOLV>
0

>  <SCORE.SYSTEM.norm>
0

>  <SCORE.heavy>
4

>  <SCORE.norm>
-1.3582

>  <RMSD>
26.239

$$$$
ligand
 OpenBabel11021811493D
libRbt.so/2013.1/901 2013/11/27
  4  3  0  0  0  0  0  0  0  0999 V2000
   11.3334   12.7778    4.8632 C   0  0  0  0  0  0  0  0  0  0  0  0
   11.3065   14.0144    5.0502 O   0  0  0  0  0  0  0  0  0  0  0  0
   11.7287   11.9215    6.0589 C   0  0  0  0  0  0  0  0  0  0  0  0
   11.0656   12.1191    3.7642 O   0  0  0  0  0  0  0  0  0  0  0  0
  1  2  1  0  0  0  0
  1  3  1  0  0  0  0
  1  4  1  0  0  0  0
M  END
>  <CHROM.1>
11.35419836,12.71634620,4.92053127,-3.08417792,1.28786444,-2.91553546

>  <Name>
ligand

>  <RI>
0

>  <Rbt.Current_Directory>
/home/itssahil/PROJECTS/Mol_Feturizer/New_Systems/rnas/4FEN

>  <Rbt.Executable>
rbdock ($Id: //depot/dev/client3/rdock/2013.1/src/exe/rbdock.cxx#4 $)

>  <Rbt.Library>
libRbt.so (2013.1, Build901 2013/11/27)

>  <Rbt.Parameter_File>
/export/apps/rDock/src/rDock_2013.1_src/data/scripts/dock_solv.prm

>  <Rbt.Receptor>
prm/blind_docking_60.prm

>  <SCORE>
-5.43106

>  <SCORE.INTER>
-5.43106

>  <SCORE.INTER.CONST>
1

>  <SCORE.INTER.POLAR>
0

>  <SCORE.INTER.ROT>
0

>  <SCORE.INTER.SOLV>
1.64119

>  <SCORE.INTER.VDW>
-7.76777

>  <SCORE.INTER.norm>
-1.35777

>  <SCORE.INTRA>
0

>  <SCORE.INTRA.DIHEDRAL>
0

>  <SCORE.INTRA.DIHEDRAL.0>
0

>  <SCORE.INTRA.POLAR>
0

>  <SCORE.INTRA.POLAR.0>
0

>  <SCORE.INTRA.REPUL>
0

>  <SCORE.INTRA.REPUL.0>
0

>  <SCORE.INTRA.SOLV>
0

>  <SCORE.INTRA.SOLV.lig_0>
0.449748

>  <SCORE.INTRA.VDW>
0

>  <SCORE.INTRA.VDW.0>
0

>  <SCORE.INTRA.norm>
0

>  <SCORE.RESTR>
0

>  <SCORE.RESTR.CAVITY>
0

>  <SCORE.RESTR.norm>
0

>  <SCORE.SYSTEM>
0

>  <SCORE.SYSTEM.CONST>
0

>  <SCORE.SYSTEM.DIHEDRAL>
0

>  <SCORE.SYSTEM.SOLV>
0

>  <SCORE.SYSTEM.norm>
0

>  <SCORE.heavy>
4

>  <SCORE.norm>
-1.35777

>  <RMSD>
26.239

$$$$
ligand
 OpenBabel11021811493D
libRbt.so/2013.1/901 2013/11/27
  4  3  0  0  0  0  0  0  0  0999 V2000
   11.3370   12.7420    4.8310 C   0  0  0  0  0  0  0  0  0  0  0  0
   11.0540   12.1182    3.7843 O   0  0  0  0  0  0  0  0  0  0  0  0
   11.7312   11.8977    6.0357 C   0  0  0  0  0  0  0  0  0  0  0  0
   11.3365   14.0360    5.0277 O   0  0  0  0  0  0  0  0  0  0  0  0
  1  2  1  0  0  0  0
  1  3  1  0  0  0  0
  1  4  1  0  0  0  0
M  END
>  <CHROM.1>
11.36053856,12.70862532,4.90743822,2.37358414,-1.27954072,0.15016674

>  <Name>
ligand

>  <RI>
0

>  <Rbt.Current_Directory>
/home/itssahil/PROJECTS/Mol_Feturizer/New_Systems/rnas/4FEN

>  <Rbt.Executable>
rbdock ($Id: //depot/dev/client3/rdock/2013.1/src/exe/rbdock.cxx#4 $)

>  <Rbt.Library>
libRbt.so (2013.1, Build901 2013/11/27)

>  <Rbt.Parameter_File>
/export/apps/rDock/src/rDock_2013.1_src/data/scripts/dock_solv.prm

>  <Rbt.Receptor>
prm/blind_docking_60.prm

>  <SCORE>
-5.44983

>  <SCORE.INTER>
-5.44983

>  <SCORE.INTER.CONST>
1

>  <SCORE.INTER.POLAR>
0

>  <SCORE.INTER.ROT>
0

>  <SCORE.INTER.SOLV>
1.64911

>  <SCORE.INTER.VDW>
-7.78292

>  <SCORE.INTER.norm>
-1.36246

>  <SCORE.INTRA>
0

>  <SCORE.INTRA.DIHEDRAL>
0

>  <SCORE.INTRA.DIHEDRAL.0>
0

>  <SCORE.INTRA.POLAR>
0

>  <SCORE.INTRA.POLAR.0>
0

>  <SCORE.INTRA.REPUL>
0

>  <SCORE.INTRA.REPUL.0>
0

>  <SCORE.INTRA.SOLV>
0

>  <SCORE.INTRA.SOLV.lig_0>
0.449748

>  <SCORE.INTRA.VDW>
0

>  <SCORE.INTRA.VDW.0>
0

>  <SCORE.INTRA.norm>
0

>  <SCORE.RESTR>
0

>  <SCORE.RESTR.CAVITY>
0

>  <SCORE.RESTR.norm>
0

>  <SCORE.SYSTEM>
0

>  <SCORE.SYSTEM.CONST>
0

>  <SCORE.SYSTEM.DIHEDRAL>
0

>  <SCORE.SYSTEM.SOLV>
0

>  <SCORE.SYSTEM.norm>
0

>  <SCORE.heavy>
4

>  <SCORE.norm>
-1.36246

>  <RMSD>
26.239

$$$$
ligand
 OpenBabel11021811493D
libRbt.so/2013.1/901 2013/11/27
  4  3  0  0  0  0  0  0  0  0999 V2000
   11.3341   12.7776    4.8634 C   0  0  0  0  0  0  0  0  0  0  0  0
   11.3089   14.0132    5.0568 O   0  0  0  0  0  0  0  0  0  0  0  0
   11.7184   11.9139    6.0575 C   0  0  0  0  0  0  0  0  0  0  0  0
   11.0730   12.1254    3.7590 O   0  0  0  0  0  0  0  0  0  0  0  0
  1  2  1  0  0  0  0
  1  3  1  0  0  0  0
  1  4  1  0  0  0  0
M  END
>  <CHROM.1>
11.35439948,12.71576893,4.92059655,-3.08157356,1.29568160,-2.91268450

>  <Name>
ligand

>  <RI>
0

>  <Rbt.Current_Directory>
/home/itssahil/PROJECTS/Mol_Feturizer/New_Systems/rnas/4FEN

>  <Rbt.Executable>
rbdock ($Id: //depot/dev/client3/rdock/2013.1/src/exe/rbdock.cxx#4 $)

>  <Rbt.Library>
libRbt.so (2013.1, Build901 2013/11/27)

>  <Rbt.Parameter_File>
/export/apps/rDock/src/rDock_2013.1_src/data/scripts/dock_solv.prm

>  <Rbt.Receptor>
prm/blind_docking_80.prm

>  <SCORE>
-5.42952

>  <SCORE.INTER>
-5.42952

>  <SCORE.INTER.CONST>
1

>  <SCORE.INTER.POLAR>
0

>  <SCORE.INTER.ROT>
0

>  <SCORE.INTER.SOLV>
1.63837

>  <SCORE.INTER.VDW>
-7.7658

>  <SCORE.INTER.norm>
-1.35738

>  <SCORE.INTRA>
0

>  <SCORE.INTRA.DIHEDRAL>
0

>  <SCORE.INTRA.DIHEDRAL.0>
0

>  <SCORE.INTRA.POLAR>
0

>  <SCORE.INTRA.POLAR.0>
0

>  <SCORE.INTRA.REPUL>
0

>  <SCORE.INTRA.REPUL.0>
0

>  <SCORE.INTRA.SOLV>
0

>  <SCORE.INTRA.SOLV.lig_0>
0.449748

>  <SCORE.INTRA.VDW>
0

>  <SCORE.INTRA.VDW.0>
0

>  <SCORE.INTRA.norm>
0

>  <SCORE.RESTR>
0

>  <SCORE.RESTR.CAVITY>
0

>  <SCORE.RESTR.norm>
0

>  <SCORE.SYSTEM>
0

>  <SCORE.SYSTEM.CONST>
0

>  <SCORE.SYSTEM.DIHEDRAL>
0

>  <SCORE.SYSTEM.SOLV>
0

>  <SCORE.SYSTEM.norm>
0

>  <SCORE.heavy>
4

>  <SCORE.norm>
-1.35738

>  <RMSD>
26.239

$$$$
ligand
 OpenBabel11021811493D
libRbt.so/2013.1/901 2013/11/27
  4  3  0  0  0  0  0  0  0  0999 V2000
   11.3395   12.7402    4.8232 C   0  0  0  0  0  0  0  0  0  0  0  0
   11.0416   12.1276    3.7741 O   0  0  0  0  0  0  0  0  0  0  0  0
   11.7322   11.8824    6.0188 C   0  0  0  0  0  0  0  0  0  0  0  0
   11.3559   14.0327    5.0293 O   0  0  0  0  0  0  0  0  0  0  0  0
  1  2  1  0  0  0  0
  1  3  1  0  0  0  0
  1  4  1  0  0  0  0
M  END
>  <CHROM.1>
11.36321343,12.70600375,4.89917591,2.32948057,-1.27399695,0.11527693

>  <Name>
ligand

>  <RI>
0

>  <Rbt.Current_Directory>
/home/itssahil/PROJECTS/Mol_Feturizer/New_Systems/rnas/4FEN

>  <Rbt.Executable>
rbdock ($Id: //depot/dev/client3/rdock/2013.1/src/exe/rbdock.cxx#4 $)

>  <Rbt.Library>
libRbt.so (2013.1, Build901 2013/11/27)

>  <Rbt.Parameter_File>
/export/apps/rDock/src/rDock_2013.1_src/data/scripts/dock_solv.prm

>  <Rbt.Receptor>
prm/blind_docking_80.prm

>  <SCORE>
-5.45084

>  <SCORE.INTER>
-5.45084

>  <SCORE.INTER.CONST>
1

>  <SCORE.INTER.POLAR>
0

>  <SCORE.INTER.ROT>
0

>  <SCORE.INTER.SOLV>
1.64923

>  <SCORE.INTER.VDW>
-7.78363

>  <SCORE.INTER.norm>
-1.36271

>  <SCORE.INTRA>
0

>  <SCORE.INTRA.DIHEDRAL>
0

>  <SCORE.INTRA.DIHEDRAL.0>
0

>  <SCORE.INTRA.POLAR>
0

>  <SCORE.INTRA.POLAR.0>
0

>  <SCORE.INTRA.REPUL>
0

>  <SCORE.INTRA.REPUL.0>
0

>  <SCORE.INTRA.SOLV>
0

>  <SCORE.INTRA.SOLV.lig_0>
0.449748

>  <SCORE.INTRA.VDW>
0

>  <SCORE.INTRA.VDW.0>
0

>  <SCORE.INTRA.norm>
0

>  <SCORE.RESTR>
0

>  <SCORE.RESTR.CAVITY>
0

>  <SCORE.RESTR.norm>
0

>  <SCORE.SYSTEM>
0

>  <SCORE.SYSTEM.CONST>
0

>  <SCORE.SYSTEM.DIHEDRAL>
0

>  <SCORE.SYSTEM.SOLV>
0

>  <SCORE.SYSTEM.norm>
0

>  <SCORE.heavy>
4

>  <SCORE.norm>
-1.36271

>  <RMSD>
26.239

$$$$
ligand
 OpenBabel11021811493D
libRbt.so/2013.1/901 2013/11/27
  4  3  0  0  0  0  0  0  0  0999 V2000
   11.3570   12.6629    4.8250 C   0  0  0  0  0  0  0  0  0  0  0  0
   11.1586   11.9499    3.8165 O   0  0  0  0  0  0  0  0  0  0  0  0
   11.7586   11.9336    6.1002 C   0  0  0  0  0  0  0  0  0  0  0  0
   11.2616   13.9642    4.9281 O   0  0  0  0  0  0  0  0  0  0  0  0
  1  2  1  0  0  0  0
  1  3  1  0  0  0  0
  1  4  1  0  0  0  0
M  END
>  <CHROM.1>
11.37963083,12.63660317,4.90438669,2.64728176,-1.29945152,0.34258288

>  <Name>
ligand

>  <RI>
0

>  <Rbt.Current_Directory>
/home/itssahil/PROJECTS/Mol_Feturizer/New_Systems/rnas/4FEN

>  <Rbt.Executable>
rbdock ($Id: //depot/dev/client3/rdock/2013.1/src/exe/rbdock.cxx#4 $)

>  <Rbt.Library>
libRbt.so (2013.1, Build901 2013/11/27)

>  <Rbt.Parameter_File>
/export/apps/rDock/src/rDock_2013.1_src/data/scripts/dock_solv.prm

>  <Rbt.Receptor>
prm/blind_docking_80.prm

>  <SCORE>
-5.43563

>  <SCORE.INTER>
-5.43563

>  <SCORE.INTER.CONST>
1

>  <SCORE.INTER.POLAR>
0

>  <SCORE.INTER.ROT>
0

>  <SCORE.INTER.SOLV>
1.65119

>  <SCORE.INTER.VDW>
-7.77415

>  <SCORE.INTER.norm>
-1.35891

>  <SCORE.INTRA>
0

>  <SCORE.INTRA.DIHEDRAL>
0

>  <SCORE.INTRA.DIHEDRAL.0>
0

>  <SCORE.INTRA.POLAR>
0

>  <SCORE.INTRA.POLAR.0>
0

>  <SCORE.INTRA.REPUL>
0

>  <SCORE.INTRA.REPUL.0>
0

>  <SCORE.INTRA.SOLV>
0

>  <SCORE.INTRA.SOLV.lig_0>
0.449748

>  <SCORE.INTRA.VDW>
0

>  <SCORE.INTRA.VDW.0>
0

>  <SCORE.INTRA.norm>
0

>  <SCORE.RESTR>
0

>  <SCORE.RESTR.CAVITY>
0

>  <SCORE.RESTR.norm>
0

>  <SCORE.SYSTEM>
0

>  <SCORE.SYSTEM.CONST>
0

>  <SCORE.SYSTEM.DIHEDRAL>
0

>  <SCORE.SYSTEM.SOLV>
0

>  <SCORE.SYSTEM.norm>
0

>  <SCORE.heavy>
4

>  <SCORE.norm>
-1.35891

>  <RMSD>
26.239

$$$$
ligand
 OpenBabel11021811493D
libRbt.so/2013.1/901 2013/11/27
  4  3  0  0  0  0  0  0  0  0999 V2000
   11.3351   12.7427    4.8310 C   0  0  0  0  0  0  0  0  0  0  0  0
   11.0314   12.1437    3.7756 O   0  0  0  0  0  0  0  0  0  0  0  0
   11.7520   11.8703    6.0076 C   0  0  0  0  0  0  0  0  0  0  0  0
   11.3394   14.0318    5.0578 O   0  0  0  0  0  0  0  0  0  0  0  0
  1  2  1  0  0  0  0
  1  3  1  0  0  0  0
  1  4  1  0  0  0  0
M  END
>  <CHROM.1>
11.36011425,12.70755561,4.90608504,2.36164757,-1.26046290,0.16217101

>  <Name>
ligand

>  <RI>
0

>  <Rbt.Current_Directory>
/home/itssahil/PROJECTS/Mol_Feturizer/New_Systems/rnas/4FEN

>  <Rbt.Executable>
rbdock ($Id: //depot/dev/client3/rdock/2013.1/src/exe/rbdock.cxx#4 $)

>  <Rbt.Library>
libRbt.so (2013.1, Build901 2013/11/27)

>  <Rbt.Parameter_File>
/export/apps/rDock/src/rDock_2013.1_src/data/scripts/dock_solv.prm

>  <Rbt.Receptor>
prm/blind_docking_100.prm

>  <SCORE>
-5.45046

>  <SCORE.INTER>
-5.45046

>  <SCORE.INTER.CONST>
1

>  <SCORE.INTER.POLAR>
0

>  <SCORE.INTER.ROT>
0

>  <SCORE.INTER.SOLV>
1.64068

>  <SCORE.INTER.VDW>
-7.78053

>  <SCORE.INTER.norm>
-1.36261

>  <SCORE.INTRA>
0

>  <SCORE.INTRA.DIHEDRAL>
0

>  <SCORE.INTRA.DIHEDRAL.0>
0

>  <SCORE.INTRA.POLAR>
0

>  <SCORE.INTRA.POLAR.0>
0

>  <SCORE.INTRA.REPUL>
0

>  <SCORE.INTRA.REPUL.0>
0

>  <SCORE.INTRA.SOLV>
0

>  <SCORE.INTRA.SOLV.lig_0>
0.449748

>  <SCORE.INTRA.VDW>
0

>  <SCORE.INTRA.VDW.0>
0

>  <SCORE.INTRA.norm>
0

>  <SCORE.RESTR>
0

>  <SCORE.RESTR.CAVITY>
0

>  <SCORE.RESTR.norm>
0

>  <SCORE.SYSTEM>
0

>  <SCORE.SYSTEM.CONST>
0

>  <SCORE.SYSTEM.DIHEDRAL>
0

>  <SCORE.SYSTEM.SOLV>
0

>  <SCORE.SYSTEM.norm>
0

>  <SCORE.heavy>
4

>  <SCORE.norm>
-1.36261

>  <RMSD>
26.240

$$$$
ligand
 OpenBabel11021811493D
libRbt.so/2013.1/901 2013/11/27
  4  3  0  0  0  0  0  0  0  0999 V2000
   11.3322   12.7448    4.8322 C   0  0  0  0  0  0  0  0  0  0  0  0
   11.0070   12.1447    3.7839 O   0  0  0  0  0  0  0  0  0  0  0  0
   11.7372   11.8723    6.0129 C   0  0  0  0  0  0  0  0  0  0  0  0
   11.3680   14.0352    5.0486 O   0  0  0  0  0  0  0  0  0  0  0  0
  1  2  1  0  0  0  0
  1  3  1  0  0  0  0
  1  4  1  0  0  0  0
M  END
>  <CHROM.1>
11.35688745,12.70970061,4.90742123,2.28386885,-1.25618451,0.08014548

>  <Name>
ligand

>  <RI>
0

>  <Rbt.Current_Directory>
/home/itssahil/PROJECTS/Mol_Feturizer/New_Systems/rnas/4FEN

>  <Rbt.Executable>
rbdock ($Id: //depot/dev/client3/rdock/2013.1/src/exe/rbdock.cxx#4 $)

>  <Rbt.Library>
libRbt.so (2013.1, Build901 2013/11/27)

>  <Rbt.Parameter_File>
/export/apps/rDock/src/rDock_2013.1_src/data/scripts/dock_solv.prm

>  <Rbt.Receptor>
prm/blind_docking_40.prm

>  <SCORE>
-5.45003

>  <SCORE.INTER>
-5.45003

>  <SCORE.INTER.CONST>
1

>  <SCORE.INTER.POLAR>
0

>  <SCORE.INTER.ROT>
0

>  <SCORE.INTER.SOLV>
1.64475

>  <SCORE.INTER.VDW>
-7.7816

>  <SCORE.INTER.norm>
-1.36251

>  <SCORE.INTRA>
0

>  <SCORE.INTRA.DIHEDRAL>
0

>  <SCORE.INTRA.DIHEDRAL.0>
0

>  <SCORE.INTRA.POLAR>
0

>  <SCORE.INTRA.POLAR.0>
0

>  <SCORE.INTRA.REPUL>
0

>  <SCORE.INTRA.REPUL.0>
0

>  <SCORE.INTRA.SOLV>
0

>  <SCORE.INTRA.SOLV.lig_0>
0.449748

>  <SCORE.INTRA.VDW>
0

>  <SCORE.INTRA.VDW.0>
0

>  <SCORE.INTRA.norm>
0

>  <SCORE.RESTR>
0

>  <SCORE.RESTR.CAVITY>
0

>  <SCORE.RESTR.norm>
0

>  <SCORE.SYSTEM>
0

>  <SCORE.SYSTEM.CONST>
0

>  <SCORE.SYSTEM.DIHEDRAL>
0

>  <SCORE.SYSTEM.SOLV>
0

>  <SCORE.SYSTEM.norm>
0

>  <SCORE.heavy>
4

>  <SCORE.norm>
-1.36251

>  <RMSD>
26.242

$$$$
ligand
 OpenBabel11021811493D
libRbt.so/2013.1/901 2013/11/27
  4  3  0  0  0  0  0  0  0  0999 V2000
   11.3458   12.7124    4.8034 C   0  0  0  0  0  0  0  0  0  0  0  0
   11.1778   12.0131    3.7799 O   0  0  0  0  0  0  0  0  0  0  0  0
   11.7147   11.9664    6.0789 C   0  0  0  0  0  0  0  0  0  0  0  0
   11.2431   14.0118    4.9221 O   0  0  0  0  0  0  0  0  0  0  0  0
  1  2  1  0  0  0  0
  1  3  1  0  0  0  0
  1  4  1  0  0  0  0
M  END
>  <CHROM.1>
11.36636739,12.68505680,4.88296774,2.69882021,-1.32393722,0.40647486

>  <Name>
ligand

>  <RI>
0

>  <Rbt.Current_Directory>
/home/itssahil/PROJECTS/Mol_Feturizer/New_Systems/rnas/4FEN

>  <Rbt.Executable>
rbdock ($Id: //depot/dev/client3/rdock/2013.1/src/exe/rbdock.cxx#4 $)

>  <Rbt.Library>
libRbt.so (2013.1, Build901 2013/11/27)

>  <Rbt.Parameter_File>
/export/apps/rDock/src/rDock_2013.1_src/data/scripts/dock_solv.prm

>  <Rbt.Receptor>
prm/blind_docking_40.prm

>  <SCORE>
-5.44505

>  <SCORE.INTER>
-5.44505

>  <SCORE.INTER.CONST>
1

>  <SCORE.INTER.POLAR>
0

>  <SCORE.INTER.ROT>
0

>  <SCORE.INTER.SOLV>
1.65905

>  <SCORE.INTER.VDW>
-7.78305

>  <SCORE.INTER.norm>
-1.36126

>  <SCORE.INTRA>
0

>  <SCORE.INTRA.DIHEDRAL>
0

>  <SCORE.INTRA.DIHEDRAL.0>
0

>  <SCORE.INTRA.POLAR>
0

>  <SCORE.INTRA.POLAR.0>
0

>  <SCORE.INTRA.REPUL>
0

>  <SCORE.INTRA.REPUL.0>
0

>  <SCORE.INTRA.SOLV>
0

>  <SCORE.INTRA.SOLV.lig_0>
0.449748

>  <SCORE.INTRA.VDW>
0

>  <SCORE.INTRA.VDW.0>
0

>  <SCORE.INTRA.norm>
0

>  <SCORE.RESTR>
0

>  <SCORE.RESTR.CAVITY>
0

>  <SCORE.RESTR.norm>
0

>  <SCORE.SYSTEM>
0

>  <SCORE.SYSTEM.CONST>
0

>  <SCORE.SYSTEM.DIHEDRAL>
0

>  <SCORE.SYSTEM.SOLV>
0

>  <SCORE.SYSTEM.norm>
0

>  <SCORE.heavy>
4

>  <SCORE.norm>
-1.36126

>  <RMSD>
26.243

$$$$
ligand
 OpenBabel11021811493D
libRbt.so/2013.1/901 2013/11/27
  4  3  0  0  0  0  0  0  0  0999 V2000
   11.3446   12.7390    4.8271 C   0  0  0  0  0  0  0  0  0  0  0  0
   11.2656   13.9836    4.9247 O   0  0  0  0  0  0  0  0  0  0  0  0
   11.7103   11.9830    6.0975 C   0  0  0  0  0  0  0  0  0  0  0  0
   11.1542   11.9963    3.7663 O   0  0  0  0  0  0  0  0  0  0  0  0
  1  2  1  0  0  0  0
  1  3  1  0  0  0  0
  1  4  1  0  0  0  0
M  END
>  <CHROM.1>
11.36470794,12.68251412,4.88959529,3.01417289,1.32386962,-2.80707308

>  <Name>
ligand

>  <RI>
0

>  <Rbt.Current_Directory>
/home/itssahil/PROJECTS/Mol_Feturizer/New_Systems/rnas/4FEN

>  <Rbt.Executable>
rbdock ($Id: //depot/dev/client3/rdock/2013.1/src/exe/rbdock.cxx#4 $)

>  <Rbt.Library>
libRbt.so (2013.1, Build901 2013/11/27)

>  <Rbt.Parameter_File>
/export/apps/rDock/src/rDock_2013.1_src/data/scripts/dock_solv.prm

>  <Rbt.Receptor>
prm/blind_docking_40.prm

>  <SCORE>
-5.4261

>  <SCORE.INTER>
-5.4261

>  <SCORE.INTER.CONST>
1

>  <SCORE.INTER.POLAR>
0

>  <SCORE.INTER.ROT>
0

>  <SCORE.INTER.SOLV>
1.65612

>  <SCORE.INTER.VDW>
-7.76944

>  <SCORE.INTER.norm>
-1.35652

>  <SCORE.INTRA>
0

>  <SCORE.INTRA.DIHEDRAL>
0

>  <SCORE.INTRA.DIHEDRAL.0>
0

>  <SCORE.INTRA.POLAR>
0

>  <SCORE.INTRA.POLAR.0>
0

>  <SCORE.INTRA.REPUL>
0

>  <SCORE.INTRA.REPUL.0>
0

>  <SCORE.INTRA.SOLV>
0

>  <SCORE.INTRA.SOLV.lig_0>
0.449748

>  <SCORE.INTRA.VDW>
0

>  <SCORE.INTRA.VDW.0>
0

>  <SCORE.INTRA.norm>
0

>  <SCORE.RESTR>
0

>  <SCORE.RESTR.CAVITY>
0

>  <SCORE.RESTR.norm>
0

>  <SCORE.SYSTEM>
0

>  <SCORE.SYSTEM.CONST>
0

>  <SCORE.SYSTEM.DIHEDRAL>
0

>  <SCORE.SYSTEM.SOLV>
0

>  <SCORE.SYSTEM.norm>
0

>  <SCORE.heavy>
4

>  <SCORE.norm>
-1.35652

>  <RMSD>
26.243

$$$$
ligand
 OpenBabel11021811493D
libRbt.so/2013.1/901 2013/11/27
  4  3  0  0  0  0  0  0  0  0999 V2000
   11.3432   12.7248    4.7949 C   0  0  0  0  0  0  0  0  0  0  0  0
   11.1370   12.0441    3.7658 O   0  0  0  0  0  0  0  0  0  0  0  0
   11.7441   11.9544    6.0460 C   0  0  0  0  0  0  0  0  0  0  0  0
   11.2566   14.0229    4.9379 O   0  0  0  0  0  0  0  0  0  0  0  0
  1  2  1  0  0  0  0
  1  3  1  0  0  0  0
  1  4  1  0  0  0  0
M  END
>  <CHROM.1>
11.36592421,12.69595428,4.87336486,2.62078829,-1.29856180,0.34751505

>  <Name>
ligand

>  <RI>
0

>  <Rbt.Current_Directory>
/home/itssahil/PROJECTS/Mol_Feturizer/New_Systems/rnas/4FEN

>  <Rbt.Executable>
rbdock ($Id: //depot/dev/client3/rdock/2013.1/src/exe/rbdock.cxx#4 $)

>  <Rbt.Library>
libRbt.so (2013.1, Build901 2013/11/27)

>  <Rbt.Parameter_File>
/export/apps/rDock/src/rDock_2013.1_src/data/scripts/dock_solv.prm

>  <Rbt.Receptor>
prm/blind_docking_40.prm

>  <SCORE>
-5.45618

>  <SCORE.INTER>
-5.45618

>  <SCORE.INTER.CONST>
1

>  <SCORE.INTER.POLAR>
0

>  <SCORE.INTER.ROT>
0

>  <SCORE.INTER.SOLV>
1.66311

>  <SCORE.INTER.VDW>
-7.79182

>  <SCORE.INTER.norm>
-1.36404

>  <SCORE.INTRA>
0

>  <SCORE.INTRA.DIHEDRAL>
0

>  <SCORE.INTRA.DIHEDRAL.0>
0

>  <SCORE.INTRA.POLAR>
0

>  <SCORE.INTRA.POLAR.0>
0

>  <SCORE.INTRA.REPUL>
0

>  <SCORE.INTRA.REPUL.0>
0

>  <SCORE.INTRA.SOLV>
0

>  <SCORE.INTRA.SOLV.lig_0>
0.449748

>  <SCORE.INTRA.VDW>
0

>  <SCORE.INTRA.VDW.0>
0

>  <SCORE.INTRA.norm>
0

>  <SCORE.RESTR>
0

>  <SCORE.RESTR.CAVITY>
0

>  <SCORE.RESTR.norm>
0

>  <SCORE.SYSTEM>
0

>  <SCORE.SYSTEM.CONST>
0

>  <SCORE.SYSTEM.DIHEDRAL>
0

>  <SCORE.SYSTEM.SOLV>
0

>  <SCORE.SYSTEM.norm>
0

>  <SCORE.heavy>
4

>  <SCORE.norm>
-1.36404

>  <RMSD>
26.243

$$$$
ligand
 OpenBabel11021811493D
libRbt.so/2013.1/901 2013/11/27
  4  3  0  0  0  0  0  0  0  0999 V2000
   11.3261   12.7827    4.8622 C   0  0  0  0  0  0  0  0  0  0  0  0
   11.2949   14.0197    5.0455 O   0  0  0  0  0  0  0  0  0  0  0  0
   11.7139   11.9307    6.0634 C   0  0  0  0  0  0  0  0  0  0  0  0
   11.0687   12.1204    3.7630 O   0  0  0  0  0  0  0  0  0  0  0  0
  1  2  1  0  0  0  0
  1  3  1  0  0  0  0
  1  4  1  0  0  0  0
M  END
>  <CHROM.1>
11.34661906,12.72148195,4.91987414,-3.09907788,1.29505607,-2.90398391

>  <Name>
ligand

>  <RI>
0

>  <Rbt.Current_Directory>
/home/itssahil/PROJECTS/Mol_Feturizer/New_Systems/rnas/4FEN

>  <Rbt.Executable>
rbdock ($Id: //depot/dev/client3/rdock/2013.1/src/exe/rbdock.cxx#4 $)

>  <Rbt.Library>
libRbt.so (2013.1, Build901 2013/11/27)

>  <Rbt.Parameter_File>
/export/apps/rDock/src/rDock_2013.1_src/data/scripts/dock_solv.prm

>  <Rbt.Receptor>
prm/blind_docking_100.prm

>  <SCORE>
-5.42354

>  <SCORE.INTER>
-5.42354

>  <SCORE.INTER.CONST>
1

>  <SCORE.INTER.POLAR>
0

>  <SCORE.INTER.ROT>
0

>  <SCORE.INTER.SOLV>
1.64195

>  <SCORE.INTER.VDW>
-7.76301

>  <SCORE.INTER.norm>
-1.35589

>  <SCORE.INTRA>
0

>  <SCORE.INTRA.DIHEDRAL>
0

>  <SCORE.INTRA.DIHEDRAL.0>
0

>  <SCORE.INTRA.POLAR>
0

>  <SCORE.INTRA.POLAR.0>
0

>  <SCORE.INTRA.REPUL>
0

>  <SCORE.INTRA.REPUL.0>
0

>  <SCORE.INTRA.SOLV>
0

>  <SCORE.INTRA.SOLV.lig_0>
0.449748

>  <SCORE.INTRA.VDW>
0

>  <SCORE.INTRA.VDW.0>
0

>  <SCORE.INTRA.norm>
0

>  <SCORE.RESTR>
0

>  <SCORE.RESTR.CAVITY>
0

>  <SCORE.RESTR.norm>
0

>  <SCORE.SYSTEM>
0

>  <SCORE.SYSTEM.CONST>
0

>  <SCORE.SYSTEM.DIHEDRAL>
0

>  <SCORE.SYSTEM.SOLV>
0

>  <SCORE.SYSTEM.norm>
0

>  <SCORE.heavy>
4

>  <SCORE.norm>
-1.35589

>  <RMSD>
26.244

$$$$
ligand
 OpenBabel11021811493D
libRbt.so/2013.1/901 2013/11/27
  4  3  0  0  0  0  0  0  0  0999 V2000
   11.3187   12.7624    4.8588 C   0  0  0  0  0  0  0  0  0  0  0  0
   11.0418   12.1414    3.8088 O   0  0  0  0  0  0  0  0  0  0  0  0
   11.7167   11.9155    6.0603 C   0  0  0  0  0  0  0  0  0  0  0  0
   11.3090   14.0555    5.0612 O   0  0  0  0  0  0  0  0  0  0  0  0
  1  2  1  0  0  0  0
  1  3  1  0  0  0  0
  1  4  1  0  0  0  0
M  END
>  <CHROM.1>
11.34239460,12.72888629,4.93506514,2.39833761,-1.28010668,0.17832201

>  <Name>
ligand

>  <RI>
0

>  <Rbt.Current_Directory>
/home/itssahil/PROJECTS/Mol_Feturizer/New_Systems/rnas/4FEN

>  <Rbt.Executable>
rbdock ($Id: //depot/dev/client3/rdock/2013.1/src/exe/rbdock.cxx#4 $)

>  <Rbt.Library>
libRbt.so (2013.1, Build901 2013/11/27)

>  <Rbt.Parameter_File>
/export/apps/rDock/src/rDock_2013.1_src/data/scripts/dock_solv.prm

>  <Rbt.Receptor>
prm/blind_docking_100.prm

>  <SCORE>
-5.46399

>  <SCORE.INTER>
-5.46399

>  <SCORE.INTER.CONST>
1

>  <SCORE.INTER.POLAR>
0

>  <SCORE.INTER.ROT>
0

>  <SCORE.INTER.SOLV>
1.64378

>  <SCORE.INTER.VDW>
-7.79059

>  <SCORE.INTER.norm>
-1.366

>  <SCORE.INTRA>
0

>  <SCORE.INTRA.DIHEDRAL>
0

>  <SCORE.INTRA.DIHEDRAL.0>
0

>  <SCORE.INTRA.POLAR>
0

>  <SCORE.INTRA.POLAR.0>
0

>  <SCORE.INTRA.REPUL>
0

>  <SCORE.INTRA.REPUL.0>
0

>  <SCORE.INTRA.SOLV>
0

>  <SCORE.INTRA.SOLV.lig_0>
0.449748

>  <SCORE.INTRA.VDW>
0

>  <SCORE.INTRA.VDW.0>
0

>  <SCORE.INTRA.norm>
0

>  <SCORE.RESTR>
0

>  <SCORE.RESTR.CAVITY>
0

>  <SCORE.RESTR.norm>
0

>  <SCORE.SYSTEM>
0

>  <SCORE.SYSTEM.CONST>
0

>  <SCORE.SYSTEM.DIHEDRAL>
0

>  <SCORE.SYSTEM.SOLV>
0

>  <SCORE.SYSTEM.norm>
0

>  <SCORE.heavy>
4

>  <SCORE.norm>
-1.366

>  <RMSD>
26.244

$$$$
ligand
 OpenBabel11021811493D
libRbt.so/2013.1/901 2013/11/27
  4  3  0  0  0  0  0  0  0  0999 V2000
   11.3434   12.7385    4.8282 C   0  0  0  0  0  0  0  0  0  0  0  0
   11.2791   13.9843    4.9202 O   0  0  0  0  0  0  0  0  0  0  0  0
   11.7113   11.9847    6.0994 C   0  0  0  0  0  0  0  0  0  0  0  0
   11.1359   11.9926    3.7728 O   0  0  0  0  0  0  0  0  0  0  0  0
  1  2  1  0  0  0  0
  1  3  1  0  0  0  0
  1  4  1  0  0  0  0
M  END
>  <CHROM.1>
11.36342452,12.68202008,4.89085689,3.06756632,1.31927171,-2.86386334

>  <Name>
ligand

>  <RI>
0

>  <Rbt.Current_Directory>
/home/itssahil/PROJECTS/Mol_Feturizer/New_Systems/rnas/4FEN

>  <Rbt.Executable>
rbdock ($Id: //depot/dev/client3/rdock/2013.1/src/exe/rbdock.cxx#4 $)

>  <Rbt.Library>
libRbt.so (2013.1, Build901 2013/11/27)

>  <Rbt.Parameter_File>
/export/apps/rDock/src/rDock_2013.1_src/data/scripts/dock_solv.prm

>  <Rbt.Receptor>
prm/blind_docking_60.prm

>  <SCORE>
-5.42887

>  <SCORE.INTER>
-5.42887

>  <SCORE.INTER.CONST>
1

>  <SCORE.INTER.POLAR>
0

>  <SCORE.INTER.ROT>
0

>  <SCORE.INTER.SOLV>
1.65938

>  <SCORE.INTER.VDW>
-7.77237

>  <SCORE.INTER.norm>
-1.35722

>  <SCORE.INTRA>
0

>  <SCORE.INTRA.DIHEDRAL>
0

>  <SCORE.INTRA.DIHEDRAL.0>
0

>  <SCORE.INTRA.POLAR>
0

>  <SCORE.INTRA.POLAR.0>
0

>  <SCORE.INTRA.REPUL>
0

>  <SCORE.INTRA.REPUL.0>
0

>  <SCORE.INTRA.SOLV>
0

>  <SCORE.INTRA.SOLV.lig_0>
0.449748

>  <SCORE.INTRA.VDW>
0

>  <SCORE.INTRA.VDW.0>
0

>  <SCORE.INTRA.norm>
0

>  <SCORE.RESTR>
0

>  <SCORE.RESTR.CAVITY>
0

>  <SCORE.RESTR.norm>
0

>  <SCORE.SYSTEM>
0

>  <SCORE.SYSTEM.CONST>
0

>  <SCORE.SYSTEM.DIHEDRAL>
0

>  <SCORE.SYSTEM.SOLV>
0

>  <SCORE.SYSTEM.norm>
0

>  <SCORE.heavy>
4

>  <SCORE.norm>
-1.35722

>  <RMSD>
26.244

$$$$
ligand
 OpenBabel11021811493D
libRbt.so/2013.1/901 2013/11/27
  4  3  0  0  0  0  0  0  0  0999 V2000
   11.3182   12.7625    4.8586 C   0  0  0  0  0  0  0  0  0  0  0  0
   11.0126   12.1619    3.8047 O   0  0  0  0  0  0  0  0  0  0  0  0
   11.7280   11.8914    6.0388 C   0  0  0  0  0  0  0  0  0  0  0  0
   11.3299   14.0523    5.0813 O   0  0  0  0  0  0  0  0  0  0  0  0
  1  2  1  0  0  0  0
  1  3  1  0  0  0  0
  1  4  1  0  0  0  0
M  END
>  <CHROM.1>
11.34291742,12.72744336,4.93389595,2.34294766,-1.26294721,0.14113872

>  <Name>
ligand

>  <RI>
0

>  <Rbt.Current_Directory>
/home/itssahil/PROJECTS/Mol_Feturizer/New_Systems/rnas/4FEN

>  <Rbt.Executable>
rbdock ($Id: //depot/dev/client3/rdock/2013.1/src/exe/rbdock.cxx#4 $)

>  <Rbt.Library>
libRbt.so (2013.1, Build901 2013/11/27)

>  <Rbt.Parameter_File>
/export/apps/rDock/src/rDock_2013.1_src/data/scripts/dock_solv.prm

>  <Rbt.Receptor>
prm/blind_docking_100.prm

>  <SCORE>
-5.47103

>  <SCORE.INTER>
-5.47103

>  <SCORE.INTER.CONST>
1

>  <SCORE.INTER.POLAR>
0

>  <SCORE.INTER.ROT>
0

>  <SCORE.INTER.SOLV>
1.63924

>  <SCORE.INTER.VDW>
-7.79377

>  <SCORE.INTER.norm>
-1.36776

>  <SCORE.INTRA>
0

>  <SCORE.INTRA.DIHEDRAL>
0

>  <SCORE.INTRA.DIHEDRAL.0>
0

>  <SCORE.INTRA.POLAR>
0

>  <SCORE.INTRA.POLAR.0>
0

>  <SCORE.INTRA.REPUL>
0

>  <SCORE.INTRA.REPUL.0>
0

>  <SCORE.INTRA.SOLV>
0

>  <SCORE.INTRA.SOLV.lig_0>
0.449748

>  <SCORE.INTRA.VDW>
0

>  <SCORE.INTRA.VDW.0>
0

>  <SCORE.INTRA.norm>
0

>  <SCORE.RESTR>
0

>  <SCORE.RESTR.CAVITY>
0

>  <SCORE.RESTR.norm>
0

>  <SCORE.SYSTEM>
0

>  <SCORE.SYSTEM.CONST>
0

>  <SCORE.SYSTEM.DIHEDRAL>
0

>  <SCORE.SYSTEM.SOLV>
0

>  <SCORE.SYSTEM.norm>
0

>  <SCORE.heavy>
4

>  <SCORE.norm>
-1.36776

>  <RMSD>
26.245

$$$$
ligand
 OpenBabel11021811493D
libRbt.so/2013.1/901 2013/11/27
  4  3  0  0  0  0  0  0  0  0999 V2000
   11.3366   12.7330    4.8171 C   0  0  0  0  0  0  0  0  0  0  0  0
   11.0846   12.1187    3.7569 O   0  0  0  0  0  0  0  0  0  0  0  0
   11.7437   11.8809    6.0119 C   0  0  0  0  0  0  0  0  0  0  0  0
   11.2938   14.0229    5.0352 O   0  0  0  0  0  0  0  0  0  0  0  0
  1  2  1  0  0  0  0
  1  3  1  0  0  0  0
  1  4  1  0  0  0  0
M  END
>  <CHROM.1>
11.36037048,12.69911964,4.89315341,2.48826314,-1.28389810,0.27694006

>  <Name>
ligand

>  <RI>
0

>  <Rbt.Current_Directory>
/home/itssahil/PROJECTS/Mol_Feturizer/New_Systems/rnas/4FEN

>  <Rbt.Executable>
rbdock ($Id: //depot/dev/client3/rdock/2013.1/src/exe/rbdock.cxx#4 $)

>  <Rbt.Library>
libRbt.so (2013.1, Build901 2013/11/27)

>  <Rbt.Parameter_File>
/export/apps/rDock/src/rDock_2013.1_src/data/scripts/dock_solv.prm

>  <Rbt.Receptor>
prm/blind_docking_40.prm

>  <SCORE>
-5.46662

>  <SCORE.INTER>
-5.46662

>  <SCORE.INTER.CONST>
1

>  <SCORE.INTER.POLAR>
0

>  <SCORE.INTER.ROT>
0

>  <SCORE.INTER.SOLV>
1.63912

>  <SCORE.INTER.VDW>
-7.79078

>  <SCORE.INTER.norm>
-1.36665

>  <SCORE.INTRA>
0

>  <SCORE.INTRA.DIHEDRAL>
0

>  <SCORE.INTRA.DIHEDRAL.0>
0

>  <SCORE.INTRA.POLAR>
0

>  <SCORE.INTRA.POLAR.0>
0

>  <SCORE.INTRA.REPUL>
0

>  <SCORE.INTRA.REPUL.0>
0

>  <SCORE.INTRA.SOLV>
0

>  <SCORE.INTRA.SOLV.lig_0>
0.449748

>  <SCORE.INTRA.VDW>
0

>  <SCORE.INTRA.VDW.0>
0

>  <SCORE.INTRA.norm>
0

>  <SCORE.RESTR>
0

>  <SCORE.RESTR.CAVITY>
0

>  <SCORE.RESTR.norm>
0

>  <SCORE.SYSTEM>
0

>  <SCORE.SYSTEM.CONST>
0

>  <SCORE.SYSTEM.DIHEDRAL>
0

>  <SCORE.SYSTEM.SOLV>
0

>  <SCORE.SYSTEM.norm>
0

>  <SCORE.heavy>
4

>  <SCORE.norm>
-1.36665

>  <RMSD>
26.245

$$$$
ligand
 OpenBabel11021811493D
libRbt.so/2013.1/901 2013/11/27
  4  3  0  0  0  0  0  0  0  0999 V2000
   11.3288   12.7602    4.8761 C   0  0  0  0  0  0  0  0  0  0  0  0
   11.3281   13.9964    5.0673 O   0  0  0  0  0  0  0  0  0  0  0  0
   11.7452   11.8936    6.0572 C   0  0  0  0  0  0  0  0  0  0  0  0
   11.0177   12.1097    3.7838 O   0  0  0  0  0  0  0  0  0  0  0  0
  1  2  1  0  0  0  0
  1  3  1  0  0  0  0
  1  4  1  0  0  0  0
M  END
>  <CHROM.1>
11.35035403,12.69825220,4.93266251,-3.00892039,1.26183791,-2.98447265

>  <Name>
ligand

>  <RI>
0

>  <Rbt.Current_Directory>
/home/itssahil/PROJECTS/Mol_Feturizer/New_Systems/rnas/4FEN

>  <Rbt.Executable>
rbdock ($Id: //depot/dev/client3/rdock/2013.1/src/exe/rbdock.cxx#4 $)

>  <Rbt.Library>
libRbt.so (2013.1, Build901 2013/11/27)

>  <Rbt.Parameter_File>
/export/apps/rDock/src/rDock_2013.1_src/data/scripts/dock_solv.prm

>  <Rbt.Receptor>
prm/blind_docking_40.prm

>  <SCORE>
-5.43251

>  <SCORE.INTER>
-5.43251

>  <SCORE.INTER.CONST>
1

>  <SCORE.INTER.POLAR>
0

>  <SCORE.INTER.ROT>
0

>  <SCORE.INTER.SOLV>
1.63192

>  <SCORE.INTER.VDW>
-7.76565

>  <SCORE.INTER.norm>
-1.35813

>  <SCORE.INTRA>
0

>  <SCORE.INTRA.DIHEDRAL>
0

>  <SCORE.INTRA.DIHEDRAL.0>
0

>  <SCORE.INTRA.POLAR>
0

>  <SCORE.INTRA.POLAR.0>
0

>  <SCORE.INTRA.REPUL>
0

>  <SCORE.INTRA.REPUL.0>
0

>  <SCORE.INTRA.SOLV>
0

>  <SCORE.INTRA.SOLV.lig_0>
0.449748

>  <SCORE.INTRA.VDW>
0

>  <SCORE.INTRA.VDW.0>
0

>  <SCORE.INTRA.norm>
0

>  <SCORE.RESTR>
0

>  <SCORE.RESTR.CAVITY>
0

>  <SCORE.RESTR.norm>
0

>  <SCORE.SYSTEM>
0

>  <SCORE.SYSTEM.CONST>
0

>  <SCORE.SYSTEM.DIHEDRAL>
0

>  <SCORE.SYSTEM.SOLV>
0

>  <SCORE.SYSTEM.norm>
0

>  <SCORE.heavy>
4

>  <SCORE.norm>
-1.35813

>  <RMSD>
26.245

$$$$
ligand
 OpenBabel11021811493D
libRbt.so/2013.1/901 2013/11/27
  4  3  0  0  0  0  0  0  0  0999 V2000
   11.3392   12.7414    4.8329 C   0  0  0  0  0  0  0  0  0  0  0  0
   11.2586   13.9856    4.9332 O   0  0  0  0  0  0  0  0  0  0  0  0
   11.7167   11.9840    6.0991 C   0  0  0  0  0  0  0  0  0  0  0  0
   11.1415   12.0000    3.7725 O   0  0  0  0  0  0  0  0  0  0  0  0
  1  2  1  0  0  0  0
  1  3  1  0  0  0  0
  1  4  1  0  0  0  0
M  END
>  <CHROM.1>
11.35991808,12.68478574,4.89515659,3.01783709,1.31554638,-2.80901349

>  <Name>
ligand

>  <RI>
0

>  <Rbt.Current_Directory>
/home/itssahil/PROJECTS/Mol_Feturizer/New_Systems/rnas/4FEN

>  <Rbt.Executable>
rbdock ($Id: //depot/dev/client3/rdock/2013.1/src/exe/rbdock.cxx#4 $)

>  <Rbt.Library>
libRbt.so (2013.1, Build901 2013/11/27)

>  <Rbt.Parameter_File>
/export/apps/rDock/src/rDock_2013.1_src/data/scripts/dock_solv.prm

>  <Rbt.Receptor>
prm/blind_docking_40.prm

>  <SCORE>
-5.42961

>  <SCORE.INTER>
-5.42961

>  <SCORE.INTER.CONST>
1

>  <SCORE.INTER.POLAR>
0

>  <SCORE.INTER.ROT>
0

>  <SCORE.INTER.SOLV>
1.65399

>  <SCORE.INTER.VDW>
-7.77107

>  <SCORE.INTER.norm>
-1.3574

>  <SCORE.INTRA>
0

>  <SCORE.INTRA.DIHEDRAL>
0

>  <SCORE.INTRA.DIHEDRAL.0>
0

>  <SCORE.INTRA.POLAR>
0

>  <SCORE.INTRA.POLAR.0>
0

>  <SCORE.INTRA.REPUL>
0

>  <SCORE.INTRA.REPUL.0>
0

>  <SCORE.INTRA.SOLV>
0

>  <SCORE.INTRA.SOLV.lig_0>
0.449748

>  <SCORE.INTRA.VDW>
0

>  <SCORE.INTRA.VDW.0>
0

>  <SCORE.INTRA.norm>
0

>  <SCORE.RESTR>
0

>  <SCORE.RESTR.CAVITY>
0

>  <SCORE.RESTR.norm>
0

>  <SCORE.SYSTEM>
0

>  <SCORE.SYSTEM.CONST>
0

>  <SCORE.SYSTEM.DIHEDRAL>
0

>  <SCORE.SYSTEM.SOLV>
0

>  <SCORE.SYSTEM.norm>
0

>  <SCORE.heavy>
4

>  <SCORE.norm>
-1.3574

>  <RMSD>
26.246

$$$$
ligand
 OpenBabel11021811493D
libRbt.so/2013.1/901 2013/11/27
  4  3  0  0  0  0  0  0  0  0999 V2000
   11.3388   12.7247    4.7977 C   0  0  0  0  0  0  0  0  0  0  0  0
   11.1175   12.0401    3.7745 O   0  0  0  0  0  0  0  0  0  0  0  0
   11.7393   11.9575    6.0509 C   0  0  0  0  0  0  0  0  0  0  0  0
   11.2686   14.0247    4.9331 O   0  0  0  0  0  0  0  0  0  0  0  0
  1  2  1  0  0  0  0
  1  3  1  0  0  0  0
  1  4  1  0  0  0  0
M  END
>  <CHROM.1>
11.36177124,12.69612192,4.87623125,2.57111080,-1.29572967,0.29335909

>  <Name>
ligand

>  <RI>
0

>  <Rbt.Current_Directory>
/home/itssahil/PROJECTS/Mol_Feturizer/New_Systems/rnas/4FEN

>  <Rbt.Executable>
rbdock ($Id: //depot/dev/client3/rdock/2013.1/src/exe/rbdock.cxx#4 $)

>  <Rbt.Library>
libRbt.so (2013.1, Build901 2013/11/27)

>  <Rbt.Parameter_File>
/export/apps/rDock/src/rDock_2013.1_src/data/scripts/dock_solv.prm

>  <Rbt.Receptor>
prm/blind_docking_60.prm

>  <SCORE>
-5.46286

>  <SCORE.INTER>
-5.46286

>  <SCORE.INTER.CONST>
1

>  <SCORE.INTER.POLAR>
0

>  <SCORE.INTER.ROT>
0

>  <SCORE.INTER.SOLV>
1.66578

>  <SCORE.INTER.VDW>
-7.79717

>  <SCORE.INTER.norm>
-1.36571

>  <SCORE.INTRA>
0

>  <SCORE.INTRA.DIHEDRAL>
0

>  <SCORE.INTRA.DIHEDRAL.0>
0

>  <SCORE.INTRA.POLAR>
0

>  <SCORE.INTRA.POLAR.0>
0

>  <SCORE.INTRA.REPUL>
0

>  <SCORE.INTRA.REPUL.0>
0

>  <SCORE.INTRA.SOLV>
0

>  <SCORE.INTRA.SOLV.lig_0>
0.449748

>  <SCORE.INTRA.VDW>
0

>  <SCORE.INTRA.VDW.0>
0

>  <SCORE.INTRA.norm>
0

>  <SCORE.RESTR>
0

>  <SCORE.RESTR.CAVITY>
0

>  <SCORE.RESTR.norm>
0

>  <SCORE.SYSTEM>
0

>  <SCORE.SYSTEM.CONST>
0

>  <SCORE.SYSTEM.DIHEDRAL>
0

>  <SCORE.SYSTEM.SOLV>
0

>  <SCORE.SYSTEM.norm>
0

>  <SCORE.heavy>
4

>  <SCORE.norm>
-1.36571

>  <RMSD>
26.246

$$$$
ligand
 OpenBabel11021811493D
libRbt.so/2013.1/901 2013/11/27
  4  3  0  0  0  0  0  0  0  0999 V2000
   11.3412   12.7422    4.8321 C   0  0  0  0  0  0  0  0  0  0  0  0
   11.3036   13.9842    4.9761 O   0  0  0  0  0  0  0  0  0  0  0  0
   11.7314   11.9306    6.0602 C   0  0  0  0  0  0  0  0  0  0  0  0
   11.0887   12.0440    3.7541 O   0  0  0  0  0  0  0  0  0  0  0  0
  1  2  1  0  0  0  0
  1  3  1  0  0  0  0
  1  4  1  0  0  0  0
M  END
>  <CHROM.1>
11.36193418,12.68290259,4.89172573,-3.11809399,1.29526971,-2.91738796

>  <Name>
ligand

>  <RI>
0

>  <Rbt.Current_Directory>
/home/itssahil/PROJECTS/Mol_Feturizer/New_Systems/rnas/4FEN

>  <Rbt.Executable>
rbdock ($Id: //depot/dev/client3/rdock/2013.1/src/exe/rbdock.cxx#4 $)

>  <Rbt.Library>
libRbt.so (2013.1, Build901 2013/11/27)

>  <Rbt.Parameter_File>
/export/apps/rDock/src/rDock_2013.1_src/data/scripts/dock_solv.prm

>  <Rbt.Receptor>
prm/blind_docking_80.prm

>  <SCORE>
-5.41734

>  <SCORE.INTER>
-5.41734

>  <SCORE.INTER.CONST>
1

>  <SCORE.INTER.POLAR>
0

>  <SCORE.INTER.ROT>
0

>  <SCORE.INTER.SOLV>
1.64789

>  <SCORE.INTER.VDW>
-7.76085

>  <SCORE.INTER.norm>
-1.35433

>  <SCORE.INTRA>
0

>  <SCORE.INTRA.DIHEDRAL>
0

>  <SCORE.INTRA.DIHEDRAL.0>
0

>  <SCORE.INTRA.POLAR>
0

>  <SCORE.INTRA.POLAR.0>
0

>  <SCORE.INTRA.REPUL>
0

>  <SCORE.INTRA.REPUL.0>
0

>  <SCORE.INTRA.SOLV>
0

>  <SCORE.INTRA.SOLV.lig_0>
0.449748

>  <SCORE.INTRA.VDW>
0

>  <SCORE.INTRA.VDW.0>
0

>  <SCORE.INTRA.norm>
0

>  <SCORE.RESTR>
0

>  <SCORE.RESTR.CAVITY>
0

>  <SCORE.RESTR.norm>
0

>  <SCORE.SYSTEM>
0

>  <SCORE.SYSTEM.CONST>
0

>  <SCORE.SYSTEM.DIHEDRAL>
0

>  <SCORE.SYSTEM.SOLV>
0

>  <SCORE.SYSTEM.norm>
0

>  <SCORE.heavy>
4

>  <SCORE.norm>
-1.35433

>  <RMSD>
26.246

$$$$
ligand
 OpenBabel11021811493D
libRbt.so/2013.1/901 2013/11/27
  4  3  0  0  0  0  0  0  0  0999 V2000
   11.3145   12.7620    4.8577 C   0  0  0  0  0  0  0  0  0  0  0  0
   10.9895   12.1257    3.8310 O   0  0  0  0  0  0  0  0  0  0  0  0
   11.7126   11.9312    6.0704 C   0  0  0  0  0  0  0  0  0  0  0  0
   11.3554   14.0592    5.0273 O   0  0  0  0  0  0  0  0  0  0  0  0
  1  2  1  0  0  0  0
  1  3  1  0  0  0  0
  1  4  1  0  0  0  0
M  END
>  <CHROM.1>
11.33889224,12.72954602,4.93424507,2.27050040,-1.25914626,0.03120248

>  <Name>
ligand

>  <RI>
0

>  <Rbt.Current_Directory>
/home/itssahil/PROJECTS/Mol_Feturizer/New_Systems/rnas/4FEN

>  <Rbt.Executable>
rbdock ($Id: //depot/dev/client3/rdock/2013.1/src/exe/rbdock.cxx#4 $)

>  <Rbt.Library>
libRbt.so (2013.1, Build901 2013/11/27)

>  <Rbt.Parameter_File>
/export/apps/rDock/src/rDock_2013.1_src/data/scripts/dock_solv.prm

>  <Rbt.Receptor>
prm/blind_docking_100.prm

>  <SCORE>
-5.46723

>  <SCORE.INTER>
-5.46723

>  <SCORE.INTER.CONST>
1

>  <SCORE.INTER.POLAR>
0

>  <SCORE.INTER.ROT>
0

>  <SCORE.INTER.SOLV>
1.65738

>  <SCORE.INTER.VDW>
-7.79728

>  <SCORE.INTER.norm>
-1.36681

>  <SCORE.INTRA>
0

>  <SCORE.INTRA.DIHEDRAL>
0

>  <SCORE.INTRA.DIHEDRAL.0>
0

>  <SCORE.INTRA.POLAR>
0

>  <SCORE.INTRA.POLAR.0>
0

>  <SCORE.INTRA.REPUL>
0

>  <SCORE.INTRA.REPUL.0>
0

>  <SCORE.INTRA.SOLV>
0

>  <SCORE.INTRA.SOLV.lig_0>
0.449748

>  <SCORE.INTRA.VDW>
0

>  <SCORE.INTRA.VDW.0>
0

>  <SCORE.INTRA.norm>
0

>  <SCORE.RESTR>
0

>  <SCORE.RESTR.CAVITY>
0

>  <SCORE.RESTR.norm>
0

>  <SCORE.SYSTEM>
0

>  <SCORE.SYSTEM.CONST>
0

>  <SCORE.SYSTEM.DIHEDRAL>
0

>  <SCORE.SYSTEM.SOLV>
0

>  <SCORE.SYSTEM.norm>
0

>  <SCORE.heavy>
4

>  <SCORE.norm>
-1.36681

>  <RMSD>
26.247

$$$$
ligand
 OpenBabel11021811493D
libRbt.so/2013.1/901 2013/11/27
  4  3  0  0  0  0  0  0  0  0999 V2000
   11.3141   12.7626    4.8574 C   0  0  0  0  0  0  0  0  0  0  0  0
   10.9415   12.1635    3.8245 O   0  0  0  0  0  0  0  0  0  0  0  0
   11.7476   11.8886    6.0269 C   0  0  0  0  0  0  0  0  0  0  0  0
   11.3785   14.0532    5.0662 O   0  0  0  0  0  0  0  0  0  0  0  0
  1  2  1  0  0  0  0
  1  3  1  0  0  0  0
  1  4  1  0  0  0  0
M  END
>  <CHROM.1>
11.34096406,12.72743861,4.93189102,2.22856910,-1.22077223,0.02339496

>  <Name>
ligand

>  <RI>
0

>  <Rbt.Current_Directory>
/home/itssahil/PROJECTS/Mol_Feturizer/New_Systems/rnas/4FEN

>  <Rbt.Executable>
rbdock ($Id: //depot/dev/client3/rdock/2013.1/src/exe/rbdock.cxx#4 $)

>  <Rbt.Library>
libRbt.so (2013.1, Build901 2013/11/27)

>  <Rbt.Parameter_File>
/export/apps/rDock/src/rDock_2013.1_src/data/scripts/dock_solv.prm

>  <Rbt.Receptor>
prm/blind_docking_60.prm

>  <SCORE>
-5.46978

>  <SCORE.INTER>
-5.46978

>  <SCORE.INTER.CONST>
1

>  <SCORE.INTER.POLAR>
0

>  <SCORE.INTER.ROT>
0

>  <SCORE.INTER.SOLV>
1.64773

>  <SCORE.INTER.VDW>
-7.79576

>  <SCORE.INTER.norm>
-1.36744

>  <SCORE.INTRA>
0

>  <SCORE.INTRA.DIHEDRAL>
0

>  <SCORE.INTRA.DIHEDRAL.0>
0

>  <SCORE.INTRA.POLAR>
0

>  <SCORE.INTRA.POLAR.0>
0

>  <SCORE.INTRA.REPUL>
0

>  <SCORE.INTRA.REPUL.0>
0

>  <SCORE.INTRA.SOLV>
0

>  <SCORE.INTRA.SOLV.lig_0>
0.449748

>  <SCORE.INTRA.VDW>
0

>  <SCORE.INTRA.VDW.0>
0

>  <SCORE.INTRA.norm>
0

>  <SCORE.RESTR>
0

>  <SCORE.RESTR.CAVITY>
0

>  <SCORE.RESTR.norm>
0

>  <SCORE.SYSTEM>
0

>  <SCORE.SYSTEM.CONST>
0

>  <SCORE.SYSTEM.DIHEDRAL>
0

>  <SCORE.SYSTEM.SOLV>
0

>  <SCORE.SYSTEM.norm>
0

>  <SCORE.heavy>
4

>  <SCORE.norm>
-1.36744

>  <RMSD>
26.247

$$$$
ligand
 OpenBabel11021811493D
libRbt.so/2013.1/901 2013/11/27
  4  3  0  0  0  0  0  0  0  0999 V2000
   11.3363   12.7458    4.8341 C   0  0  0  0  0  0  0  0  0  0  0  0
   11.2817   13.9864    4.9850 O   0  0  0  0  0  0  0  0  0  0  0  0
   11.7389   11.9330    6.0575 C   0  0  0  0  0  0  0  0  0  0  0  0
   11.0923   12.0501    3.7526 O   0  0  0  0  0  0  0  0  0  0  0  0
  1  2  1  0  0  0  0
  1  3  1  0  0  0  0
  1  4  1  0  0  0  0
M  END
>  <CHROM.1>
11.35790461,12.68648653,4.89344373,3.11738297,1.29090749,-2.86606674

>  <Name>
ligand

>  <RI>
0

>  <Rbt.Current_Directory>
/home/itssahil/PROJECTS/Mol_Feturizer/New_Systems/rnas/4FEN

>  <Rbt.Executable>
rbdock ($Id: //depot/dev/client3/rdock/2013.1/src/exe/rbdock.cxx#4 $)

>  <Rbt.Library>
libRbt.so (2013.1, Build901 2013/11/27)

>  <Rbt.Parameter_File>
/export/apps/rDock/src/rDock_2013.1_src/data/scripts/dock_solv.prm

>  <Rbt.Receptor>
prm/blind_docking_20.prm

>  <SCORE>
-5.41655

>  <SCORE.INTER>
-5.41655

>  <SCORE.INTER.CONST>
1

>  <SCORE.INTER.POLAR>
0

>  <SCORE.INTER.ROT>
0

>  <SCORE.INTER.SOLV>
1.64406

>  <SCORE.INTER.VDW>
-7.75905

>  <SCORE.INTER.norm>
-1.35414

>  <SCORE.INTRA>
0

>  <SCORE.INTRA.DIHEDRAL>
0

>  <SCORE.INTRA.DIHEDRAL.0>
0

>  <SCORE.INTRA.POLAR>
0

>  <SCORE.INTRA.POLAR.0>
0

>  <SCORE.INTRA.REPUL>
0

>  <SCORE.INTRA.REPUL.0>
0

>  <SCORE.INTRA.SOLV>
0

>  <SCORE.INTRA.SOLV.lig_0>
0.449748

>  <SCORE.INTRA.VDW>
0

>  <SCORE.INTRA.VDW.0>
0

>  <SCORE.INTRA.norm>
0

>  <SCORE.RESTR>
0

>  <SCORE.RESTR.CAVITY>
0

>  <SCORE.RESTR.norm>
0

>  <SCORE.SYSTEM>
0

>  <SCORE.SYSTEM.CONST>
0

>  <SCORE.SYSTEM.DIHEDRAL>
0

>  <SCORE.SYSTEM.SOLV>
0

>  <SCORE.SYSTEM.norm>
0

>  <SCORE.heavy>
4

>  <SCORE.norm>
-1.35414

>  <RMSD>
26.248

$$$$
ligand
 OpenBabel11021811493D
libRbt.so/2013.1/901 2013/11/27
  4  3  0  0  0  0  0  0  0  0999 V2000
   11.3126   12.7638    4.8601 C   0  0  0  0  0  0  0  0  0  0  0  0
   10.9165   12.1786    3.8279 O   0  0  0  0  0  0  0  0  0  0  0  0
   11.7540   11.8741    6.0146 C   0  0  0  0  0  0  0  0  0  0  0  0
   11.3959   14.0516    5.0794 O   0  0  0  0  0  0  0  0  0  0  0  0
  1  2  1  0  0  0  0
  1  3  1  0  0  0  0
  1  4  1  0  0  0  0
M  END
>  <CHROM.1>
11.34022548,12.72765075,4.93378633,2.19388819,-1.20505646,-0.00006267

>  <Name>
ligand

>  <RI>
0

>  <Rbt.Current_Directory>
/home/itssahil/PROJECTS/Mol_Feturizer/New_Systems/rnas/4FEN

>  <Rbt.Executable>
rbdock ($Id: //depot/dev/client3/rdock/2013.1/src/exe/rbdock.cxx#4 $)

>  <Rbt.Library>
libRbt.so (2013.1, Build901 2013/11/27)

>  <Rbt.Parameter_File>
/export/apps/rDock/src/rDock_2013.1_src/data/scripts/dock_solv.prm

>  <Rbt.Receptor>
prm/blind_docking_20.prm

>  <SCORE>
-5.46432

>  <SCORE.INTER>
-5.46432

>  <SCORE.INTER.CONST>
1

>  <SCORE.INTER.POLAR>
0

>  <SCORE.INTER.ROT>
0

>  <SCORE.INTER.SOLV>
1.64478

>  <SCORE.INTER.VDW>
-7.79114

>  <SCORE.INTER.norm>
-1.36608

>  <SCORE.INTRA>
0

>  <SCORE.INTRA.DIHEDRAL>
0

>  <SCORE.INTRA.DIHEDRAL.0>
0

>  <SCORE.INTRA.POLAR>
0

>  <SCORE.INTRA.POLAR.0>
0

>  <SCORE.INTRA.REPUL>
0

>  <SCORE.INTRA.REPUL.0>
0

>  <SCORE.INTRA.SOLV>
0

>  <SCORE.INTRA.SOLV.lig_0>
0.449748

>  <SCORE.INTRA.VDW>
0

>  <SCORE.INTRA.VDW.0>
0

>  <SCORE.INTRA.norm>
0

>  <SCORE.RESTR>
0

>  <SCORE.RESTR.CAVITY>
0

>  <SCORE.RESTR.norm>
0

>  <SCORE.SYSTEM>
0

>  <SCORE.SYSTEM.CONST>
0

>  <SCORE.SYSTEM.DIHEDRAL>
0

>  <SCORE.SYSTEM.SOLV>
0

>  <SCORE.SYSTEM.norm>
0

>  <SCORE.heavy>
4

>  <SCORE.norm>
-1.36608

>  <RMSD>
26.248

$$$$
ligand
 OpenBabel11021811493D
libRbt.so/2013.1/901 2013/11/27
  4  3  0  0  0  0  0  0  0  0999 V2000
   11.3450   12.7005    4.7959 C   0  0  0  0  0  0  0  0  0  0  0  0
   11.1566   12.0097    3.7702 O   0  0  0  0  0  0  0  0  0  0  0  0
   11.7251   11.9427    6.0611 C   0  0  0  0  0  0  0  0  0  0  0  0
   11.2554   13.9999    4.9247 O   0  0  0  0  0  0  0  0  0  0  0  0
  1  2  1  0  0  0  0
  1  3  1  0  0  0  0
  1  4  1  0  0  0  0
M  END
>  <CHROM.1>
11.36644591,12.67245825,4.87505987,2.64527332,-1.31424535,0.36135657

>  <Name>
ligand

>  <RI>
0

>  <Rbt.Current_Directory>
/home/itssahil/PROJECTS/Mol_Feturizer/New_Systems/rnas/4FEN

>  <Rbt.Executable>
rbdock ($Id: //depot/dev/client3/rdock/2013.1/src/exe/rbdock.cxx#4 $)

>  <Rbt.Library>
libRbt.so (2013.1, Build901 2013/11/27)

>  <Rbt.Parameter_File>
/export/apps/rDock/src/rDock_2013.1_src/data/scripts/dock_solv.prm

>  <Rbt.Receptor>
prm/blind_docking_60.prm

>  <SCORE>
-5.45601

>  <SCORE.INTER>
-5.45601

>  <SCORE.INTER.CONST>
1

>  <SCORE.INTER.POLAR>
0

>  <SCORE.INTER.ROT>
0

>  <SCORE.INTER.SOLV>
1.65748

>  <SCORE.INTER.VDW>
-7.78983

>  <SCORE.INTER.norm>
-1.364

>  <SCORE.INTRA>
0

>  <SCORE.INTRA.DIHEDRAL>
0

>  <SCORE.INTRA.DIHEDRAL.0>
0

>  <SCORE.INTRA.POLAR>
0

>  <SCORE.INTRA.POLAR.0>
0

>  <SCORE.INTRA.REPUL>
0

>  <SCORE.INTRA.REPUL.0>
0

>  <SCORE.INTRA.SOLV>
0

>  <SCORE.INTRA.SOLV.lig_0>
0.449748

>  <SCORE.INTRA.VDW>
0

>  <SCORE.INTRA.VDW.0>
0

>  <SCORE.INTRA.norm>
0

>  <SCORE.RESTR>
0

>  <SCORE.RESTR.CAVITY>
0

>  <SCORE.RESTR.norm>
0

>  <SCORE.SYSTEM>
0

>  <SCORE.SYSTEM.CONST>
0

>  <SCORE.SYSTEM.DIHEDRAL>
0

>  <SCORE.SYSTEM.SOLV>
0

>  <SCORE.SYSTEM.norm>
0

>  <SCORE.heavy>
4

>  <SCORE.norm>
-1.364

>  <RMSD>
26.248

$$$$
ligand
 OpenBabel11021811493D
libRbt.so/2013.1/901 2013/11/27
  4  3  0  0  0  0  0  0  0  0999 V2000
   11.3482   12.7012    4.7812 C   0  0  0  0  0  0  0  0  0  0  0  0
   11.1848   12.0390    3.7326 O   0  0  0  0  0  0  0  0  0  0  0  0
   11.7378   11.9132    6.0248 C   0  0  0  0  0  0  0  0  0  0  0  0
   11.2250   13.9933    4.9503 O   0  0  0  0  0  0  0  0  0  0  0  0
  1  2  1  0  0  0  0
  1  3  1  0  0  0  0
  1  4  1  0  0  0  0
M  END
>  <CHROM.1>
11.36975640,12.67120066,4.85956799,2.74702917,-1.31098824,0.49151521

>  <Name>
ligand

>  <RI>
0

>  <Rbt.Current_Directory>
/home/itssahil/PROJECTS/Mol_Feturizer/New_Systems/rnas/4FEN

>  <Rbt.Executable>
rbdock ($Id: //depot/dev/client3/rdock/2013.1/src/exe/rbdock.cxx#4 $)

>  <Rbt.Library>
libRbt.so (2013.1, Build901 2013/11/27)

>  <Rbt.Parameter_File>
/export/apps/rDock/src/rDock_2013.1_src/data/scripts/dock_solv.prm

>  <Rbt.Receptor>
prm/blind_docking_40.prm

>  <SCORE>
-5.45698

>  <SCORE.INTER>
-5.45698

>  <SCORE.INTER.CONST>
1

>  <SCORE.INTER.POLAR>
0

>  <SCORE.INTER.ROT>
0

>  <SCORE.INTER.SOLV>
1.64517

>  <SCORE.INTER.VDW>
-7.78637

>  <SCORE.INTER.norm>
-1.36424

>  <SCORE.INTRA>
0

>  <SCORE.INTRA.DIHEDRAL>
0

>  <SCORE.INTRA.DIHEDRAL.0>
0

>  <SCORE.INTRA.POLAR>
0

>  <SCORE.INTRA.POLAR.0>
0

>  <SCORE.INTRA.REPUL>
0

>  <SCORE.INTRA.REPUL.0>
0

>  <SCORE.INTRA.SOLV>
0

>  <SCORE.INTRA.SOLV.lig_0>
0.449748

>  <SCORE.INTRA.VDW>
0

>  <SCORE.INTRA.VDW.0>
0

>  <SCORE.INTRA.norm>
0

>  <SCORE.RESTR>
0

>  <SCORE.RESTR.CAVITY>
0

>  <SCORE.RESTR.norm>
0

>  <SCORE.SYSTEM>
0

>  <SCORE.SYSTEM.CONST>
0

>  <SCORE.SYSTEM.DIHEDRAL>
0

>  <SCORE.SYSTEM.SOLV>
0

>  <SCORE.SYSTEM.norm>
0

>  <SCORE.heavy>
4

>  <SCORE.norm>
-1.36424

>  <RMSD>
26.249

$$$$
ligand
 OpenBabel11021811493D
libRbt.so/2013.1/901 2013/11/27
  4  3  0  0  0  0  0  0  0  0999 V2000
   11.3462   12.6968    4.7907 C   0  0  0  0  0  0  0  0  0  0  0  0
   11.1475   12.0060    3.7670 O   0  0  0  0  0  0  0  0  0  0  0  0
   11.7250   11.9379    6.0556 C   0  0  0  0  0  0  0  0  0  0  0  0
   11.2684   13.9972    4.9176 O   0  0  0  0  0  0  0  0  0  0  0  0
  1  2  1  0  0  0  0
  1  3  1  0  0  0  0
  1  4  1  0  0  0  0
M  END
>  <CHROM.1>
11.36771916,12.66875496,4.86981170,2.60736449,-1.31318461,0.32296643

>  <Name>
ligand

>  <RI>
0

>  <Rbt.Current_Directory>
/home/itssahil/PROJECTS/Mol_Feturizer/New_Systems/rnas/4FEN

>  <Rbt.Executable>
rbdock ($Id: //depot/dev/client3/rdock/2013.1/src/exe/rbdock.cxx#4 $)

>  <Rbt.Library>
libRbt.so (2013.1, Build901 2013/11/27)

>  <Rbt.Parameter_File>
/export/apps/rDock/src/rDock_2013.1_src/data/scripts/dock_solv.prm

>  <Rbt.Receptor>
prm/blind_docking_40.prm

>  <SCORE>
-5.45756

>  <SCORE.INTER>
-5.45756

>  <SCORE.INTER.CONST>
1

>  <SCORE.INTER.POLAR>
0

>  <SCORE.INTER.ROT>
0

>  <SCORE.INTER.SOLV>
1.66033

>  <SCORE.INTER.VDW>
-7.79182

>  <SCORE.INTER.norm>
-1.36439

>  <SCORE.INTRA>
0

>  <SCORE.INTRA.DIHEDRAL>
0

>  <SCORE.INTRA.DIHEDRAL.0>
0

>  <SCORE.INTRA.POLAR>
0

>  <SCORE.INTRA.POLAR.0>
0

>  <SCORE.INTRA.REPUL>
0

>  <SCORE.INTRA.REPUL.0>
0

>  <SCORE.INTRA.SOLV>
0

>  <SCORE.INTRA.SOLV.lig_0>
0.449748

>  <SCORE.INTRA.VDW>
0

>  <SCORE.INTRA.VDW.0>
0

>  <SCORE.INTRA.norm>
0

>  <SCORE.RESTR>
0

>  <SCORE.RESTR.CAVITY>
0

>  <SCORE.RESTR.norm>
0

>  <SCORE.SYSTEM>
0

>  <SCORE.SYSTEM.CONST>
0

>  <SCORE.SYSTEM.DIHEDRAL>
0

>  <SCORE.SYSTEM.SOLV>
0

>  <SCORE.SYSTEM.norm>
0

>  <SCORE.heavy>
4

>  <SCORE.norm>
-1.36439

>  <RMSD>
26.249

$$$$
ligand
 OpenBabel11021811493D
libRbt.so/2013.1/901 2013/11/27
  4  3  0  0  0  0  0  0  0  0999 V2000
   11.3385   12.7358    4.8278 C   0  0  0  0  0  0  0  0  0  0  0  0
   11.2733   13.9812    4.9251 O   0  0  0  0  0  0  0  0  0  0  0  0
   11.7082   11.9770    6.0955 C   0  0  0  0  0  0  0  0  0  0  0  0
   11.1306   11.9943    3.7694 O   0  0  0  0  0  0  0  0  0  0  0  0
  1  2  1  0  0  0  0
  1  3  1  0  0  0  0
  1  4  1  0  0  0  0
M  END
>  <CHROM.1>
11.35865036,12.67914862,4.89015735,3.06561158,1.31820260,-2.85776310

>  <Name>
ligand

>  <RI>
0

>  <Rbt.Current_Directory>
/home/itssahil/PROJECTS/Mol_Feturizer/New_Systems/rnas/4FEN

>  <Rbt.Executable>
rbdock ($Id: //depot/dev/client3/rdock/2013.1/src/exe/rbdock.cxx#4 $)

>  <Rbt.Library>
libRbt.so (2013.1, Build901 2013/11/27)

>  <Rbt.Parameter_File>
/export/apps/rDock/src/rDock_2013.1_src/data/scripts/dock_solv.prm

>  <Rbt.Receptor>
prm/blind_docking_80.prm

>  <SCORE>
-5.42773

>  <SCORE.INTER>
-5.42773

>  <SCORE.INTER.CONST>
1

>  <SCORE.INTER.POLAR>
0

>  <SCORE.INTER.ROT>
0

>  <SCORE.INTER.SOLV>
1.65526

>  <SCORE.INTER.VDW>
-7.77024

>  <SCORE.INTER.norm>
-1.35693

>  <SCORE.INTRA>
0

>  <SCORE.INTRA.DIHEDRAL>
0

>  <SCORE.INTRA.DIHEDRAL.0>
0

>  <SCORE.INTRA.POLAR>
0

>  <SCORE.INTRA.POLAR.0>
0

>  <SCORE.INTRA.REPUL>
0

>  <SCORE.INTRA.REPUL.0>
0

>  <SCORE.INTRA.SOLV>
0

>  <SCORE.INTRA.SOLV.lig_0>
0.449748

>  <SCORE.INTRA.VDW>
0

>  <SCORE.INTRA.VDW.0>
0

>  <SCORE.INTRA.norm>
0

>  <SCORE.RESTR>
0

>  <SCORE.RESTR.CAVITY>
0

>  <SCORE.RESTR.norm>
0

>  <SCORE.SYSTEM>
0

>  <SCORE.SYSTEM.CONST>
0

>  <SCORE.SYSTEM.DIHEDRAL>
0

>  <SCORE.SYSTEM.SOLV>
0

>  <SCORE.SYSTEM.norm>
0

>  <SCORE.heavy>
4

>  <SCORE.norm>
-1.35693

>  <RMSD>
26.249

$$$$
ligand
 OpenBabel11021811493D
libRbt.so/2013.1/901 2013/11/27
  4  3  0  0  0  0  0  0  0  0999 V2000
   11.3399   12.7364    4.8283 C   0  0  0  0  0  0  0  0  0  0  0  0
   11.2823   13.9754    4.9906 O   0  0  0  0  0  0  0  0  0  0  0  0
   11.7316   11.9122    6.0476 C   0  0  0  0  0  0  0  0  0  0  0  0
   11.1073   12.0510    3.7378 O   0  0  0  0  0  0  0  0  0  0  0  0
  1  2  1  0  0  0  0
  1  3  1  0  0  0  0
  1  4  1  0  0  0  0
M  END
>  <CHROM.1>
11.36098516,12.67656438,4.88727791,3.10297072,1.29990323,-2.84250066

>  <Name>
ligand

>  <RI>
0

>  <Rbt.Current_Directory>
/home/itssahil/PROJECTS/Mol_Feturizer/New_Systems/rnas/4FEN

>  <Rbt.Executable>
rbdock ($Id: //depot/dev/client3/rdock/2013.1/src/exe/rbdock.cxx#4 $)

>  <Rbt.Library>
libRbt.so (2013.1, Build901 2013/11/27)

>  <Rbt.Parameter_File>
/export/apps/rDock/src/rDock_2013.1_src/data/scripts/dock_solv.prm

>  <Rbt.Receptor>
prm/blind_docking_20.prm

>  <SCORE>
-5.41393

>  <SCORE.INTER>
-5.41393

>  <SCORE.INTER.CONST>
1

>  <SCORE.INTER.POLAR>
0

>  <SCORE.INTER.ROT>
0

>  <SCORE.INTER.SOLV>
1.6375

>  <SCORE.INTER.VDW>
-7.75512

>  <SCORE.INTER.norm>
-1.35348

>  <SCORE.INTRA>
0

>  <SCORE.INTRA.DIHEDRAL>
0

>  <SCORE.INTRA.DIHEDRAL.0>
0

>  <SCORE.INTRA.POLAR>
0

>  <SCORE.INTRA.POLAR.0>
0

>  <SCORE.INTRA.REPUL>
0

>  <SCORE.INTRA.REPUL.0>
0

>  <SCORE.INTRA.SOLV>
0

>  <SCORE.INTRA.SOLV.lig_0>
0.449748

>  <SCORE.INTRA.VDW>
0

>  <SCORE.INTRA.VDW.0>
0

>  <SCORE.INTRA.norm>
0

>  <SCORE.RESTR>
0

>  <SCORE.RESTR.CAVITY>
0

>  <SCORE.RESTR.norm>
0

>  <SCORE.SYSTEM>
0

>  <SCORE.SYSTEM.CONST>
0

>  <SCORE.SYSTEM.DIHEDRAL>
0

>  <SCORE.SYSTEM.SOLV>
0

>  <SCORE.SYSTEM.norm>
0

>  <SCORE.heavy>
4

>  <SCORE.norm>
-1.35348

>  <RMSD>
26.250

$$$$
ligand
 OpenBabel11021811493D
libRbt.so/2013.1/901 2013/11/27
  4  3  0  0  0  0  0  0  0  0999 V2000
   11.3398   12.7338    4.8234 C   0  0  0  0  0  0  0  0  0  0  0  0
   11.2576   13.9773    4.9324 O   0  0  0  0  0  0  0  0  0  0  0  0
   11.7111   11.9674    6.0859 C   0  0  0  0  0  0  0  0  0  0  0  0
   11.1486   12.0002    3.7564 O   0  0  0  0  0  0  0  0  0  0  0  0
  1  2  1  0  0  0  0
  1  3  1  0  0  0  0
  1  4  1  0  0  0  0
M  END
>  <CHROM.1>
11.36025345,12.67682013,4.88528660,3.00724476,1.32037863,-2.79134807

>  <Name>
ligand

>  <RI>
0

>  <Rbt.Current_Directory>
/home/itssahil/PROJECTS/Mol_Feturizer/New_Systems/rnas/4FEN

>  <Rbt.Executable>
rbdock ($Id: //depot/dev/client3/rdock/2013.1/src/exe/rbdock.cxx#4 $)

>  <Rbt.Library>
libRbt.so (2013.1, Build901 2013/11/27)

>  <Rbt.Parameter_File>
/export/apps/rDock/src/rDock_2013.1_src/data/scripts/dock_solv.prm

>  <Rbt.Receptor>
prm/blind_docking_60.prm

>  <SCORE>
-5.4238

>  <SCORE.INTER>
-5.4238

>  <SCORE.INTER.CONST>
1

>  <SCORE.INTER.POLAR>
0

>  <SCORE.INTER.ROT>
0

>  <SCORE.INTER.SOLV>
1.65002

>  <SCORE.INTER.VDW>
-7.76588

>  <SCORE.INTER.norm>
-1.35595

>  <SCORE.INTRA>
0

>  <SCORE.INTRA.DIHEDRAL>
0

>  <SCORE.INTRA.DIHEDRAL.0>
0

>  <SCORE.INTRA.POLAR>
0

>  <SCORE.INTRA.POLAR.0>
0

>  <SCORE.INTRA.REPUL>
0

>  <SCORE.INTRA.REPUL.0>
0

>  <SCORE.INTRA.SOLV>
0

>  <SCORE.INTRA.SOLV.lig_0>
0.449748

>  <SCORE.INTRA.VDW>
0

>  <SCORE.INTRA.VDW.0>
0

>  <SCORE.INTRA.norm>
0

>  <SCORE.RESTR>
0

>  <SCORE.RESTR.CAVITY>
0

>  <SCORE.RESTR.norm>
0

>  <SCORE.SYSTEM>
0

>  <SCORE.SYSTEM.CONST>
0

>  <SCORE.SYSTEM.DIHEDRAL>
0

>  <SCORE.SYSTEM.SOLV>
0

>  <SCORE.SYSTEM.norm>
0

>  <SCORE.heavy>
4

>  <SCORE.norm>
-1.35595

>  <RMSD>
26.250

$$$$
ligand
 OpenBabel11021811493D
libRbt.so/2013.1/901 2013/11/27
  4  3  0  0  0  0  0  0  0  0999 V2000
   11.3472   12.7014    4.7803 C   0  0  0  0  0  0  0  0  0  0  0  0
   11.1693   12.0352    3.7367 O   0  0  0  0  0  0  0  0  0  0  0  0
   11.7351   11.9160    6.0261 C   0  0  0  0  0  0  0  0  0  0  0  0
   11.2405   13.9959    4.9427 O   0  0  0  0  0  0  0  0  0  0  0  0
  1  2  1  0  0  0  0
  1  3  1  0  0  0  0
  1  4  1  0  0  0  0
M  END
>  <CHROM.1>
11.36885246,12.67165737,4.85875410,2.69452586,-1.31078055,0.43496631

>  <Name>
ligand

>  <RI>
0

>  <Rbt.Current_Directory>
/home/itssahil/PROJECTS/Mol_Feturizer/New_Systems/rnas/4FEN

>  <Rbt.Executable>
rbdock ($Id: //depot/dev/client3/rdock/2013.1/src/exe/rbdock.cxx#4 $)

>  <Rbt.Library>
libRbt.so (2013.1, Build901 2013/11/27)

>  <Rbt.Parameter_File>
/export/apps/rDock/src/rDock_2013.1_src/data/scripts/dock_solv.prm

>  <Rbt.Receptor>
prm/blind_docking_80.prm

>  <SCORE>
-5.46845

>  <SCORE.INTER>
-5.46845

>  <SCORE.INTER.CONST>
1

>  <SCORE.INTER.POLAR>
0

>  <SCORE.INTER.ROT>
0

>  <SCORE.INTER.SOLV>
1.65003

>  <SCORE.INTER.VDW>
-7.79565

>  <SCORE.INTER.norm>
-1.36711

>  <SCORE.INTRA>
0

>  <SCORE.INTRA.DIHEDRAL>
0

>  <SCORE.INTRA.DIHEDRAL.0>
0

>  <SCORE.INTRA.POLAR>
0

>  <SCORE.INTRA.POLAR.0>
0

>  <SCORE.INTRA.REPUL>
0

>  <SCORE.INTRA.REPUL.0>
0

>  <SCORE.INTRA.SOLV>
0

>  <SCORE.INTRA.SOLV.lig_0>
0.449748

>  <SCORE.INTRA.VDW>
0

>  <SCORE.INTRA.VDW.0>
0

>  <SCORE.INTRA.norm>
0

>  <SCORE.RESTR>
0

>  <SCORE.RESTR.CAVITY>
0

>  <SCORE.RESTR.norm>
0

>  <SCORE.SYSTEM>
0

>  <SCORE.SYSTEM.CONST>
0

>  <SCORE.SYSTEM.DIHEDRAL>
0

>  <SCORE.SYSTEM.SOLV>
0

>  <SCORE.SYSTEM.norm>
0

>  <SCORE.heavy>
4

>  <SCORE.norm>
-1.36711

>  <RMSD>
26.250

$$$$
ligand
 OpenBabel11021811493D
libRbt.so/2013.1/901 2013/11/27
  4  3  0  0  0  0  0  0  0  0999 V2000
   11.3272   12.7587    4.8525 C   0  0  0  0  0  0  0  0  0  0  0  0
   11.3232   13.9938    5.0508 O   0  0  0  0  0  0  0  0  0  0  0  0
   11.7386   11.8861    6.0309 C   0  0  0  0  0  0  0  0  0  0  0  0
   11.0232   12.1139    3.7548 O   0  0  0  0  0  0  0  0  0  0  0  0
  1  2  1  0  0  0  0
  1  3  1  0  0  0  0
  1  4  1  0  0  0  0
M  END
>  <CHROM.1>
11.34848844,12.69646961,4.90883150,-3.01783071,1.26695949,-2.97024028

>  <Name>
ligand

>  <RI>
0

>  <Rbt.Current_Directory>
/home/itssahil/PROJECTS/Mol_Feturizer/New_Systems/rnas/4FEN

>  <Rbt.Executable>
rbdock ($Id: //depot/dev/client3/rdock/2013.1/src/exe/rbdock.cxx#4 $)

>  <Rbt.Library>
libRbt.so (2013.1, Build901 2013/11/27)

>  <Rbt.Parameter_File>
/export/apps/rDock/src/rDock_2013.1_src/data/scripts/dock_solv.prm

>  <Rbt.Receptor>
prm/blind_docking_40.prm

>  <SCORE>
-5.42901

>  <SCORE.INTER>
-5.42901

>  <SCORE.INTER.CONST>
1

>  <SCORE.INTER.POLAR>
0

>  <SCORE.INTER.ROT>
0

>  <SCORE.INTER.SOLV>
1.63165

>  <SCORE.INTER.VDW>
-7.76322

>  <SCORE.INTER.norm>
-1.35725

>  <SCORE.INTRA>
0

>  <SCORE.INTRA.DIHEDRAL>
0

>  <SCORE.INTRA.DIHEDRAL.0>
0

>  <SCORE.INTRA.POLAR>
0

>  <SCORE.INTRA.POLAR.0>
0

>  <SCORE.INTRA.REPUL>
0

>  <SCORE.INTRA.REPUL.0>
0

>  <SCORE.INTRA.SOLV>
0

>  <SCORE.INTRA.SOLV.lig_0>
0.449748

>  <SCORE.INTRA.VDW>
0

>  <SCORE.INTRA.VDW.0>
0

>  <SCORE.INTRA.norm>
0

>  <SCORE.RESTR>
0

>  <SCORE.RESTR.CAVITY>
0

>  <SCORE.RESTR.norm>
0

>  <SCORE.SYSTEM>
0

>  <SCORE.SYSTEM.CONST>
0

>  <SCORE.SYSTEM.DIHEDRAL>
0

>  <SCORE.SYSTEM.SOLV>
0

>  <SCORE.SYSTEM.norm>
0

>  <SCORE.heavy>
4

>  <SCORE.norm>
-1.35725

>  <RMSD>
26.252

$$$$
ligand
 OpenBabel11021811493D
libRbt.so/2013.1/901 2013/11/27
  4  3  0  0  0  0  0  0  0  0999 V2000
   11.3513   12.6390    4.8199 C   0  0  0  0  0  0  0  0  0  0  0  0
   11.1724   11.9368    3.8003 O   0  0  0  0  0  0  0  0  0  0  0  0
   11.7580   11.8994    6.0876 C   0  0  0  0  0  0  0  0  0  0  0  0
   11.2315   13.9369    4.9405 O   0  0  0  0  0  0  0  0  0  0  0  0
  1  2  1  0  0  0  0
  1  3  1  0  0  0  0
  1  4  1  0  0  0  0
M  END
>  <CHROM.1>
11.37391657,12.61208348,4.89909930,2.71942290,-1.29867501,0.42601306

>  <Name>
ligand

>  <RI>
0

>  <Rbt.Current_Directory>
/home/itssahil/PROJECTS/Mol_Feturizer/New_Systems/rnas/4FEN

>  <Rbt.Executable>
rbdock ($Id: //depot/dev/client3/rdock/2013.1/src/exe/rbdock.cxx#4 $)

>  <Rbt.Library>
libRbt.so (2013.1, Build901 2013/11/27)

>  <Rbt.Parameter_File>
/export/apps/rDock/src/rDock_2013.1_src/data/scripts/dock_solv.prm

>  <Rbt.Receptor>
prm/blind_docking_60.prm

>  <SCORE>
-5.42736

>  <SCORE.INTER>
-5.42736

>  <SCORE.INTER.CONST>
1

>  <SCORE.INTER.POLAR>
0

>  <SCORE.INTER.ROT>
0

>  <SCORE.INTER.SOLV>
1.63549

>  <SCORE.INTER.VDW>
-7.7634

>  <SCORE.INTER.norm>
-1.35684

>  <SCORE.INTRA>
0

>  <SCORE.INTRA.DIHEDRAL>
0

>  <SCORE.INTRA.DIHEDRAL.0>
0

>  <SCORE.INTRA.POLAR>
0

>  <SCORE.INTRA.POLAR.0>
0

>  <SCORE.INTRA.REPUL>
0

>  <SCORE.INTRA.REPUL.0>
0

>  <SCORE.INTRA.SOLV>
0

>  <SCORE.INTRA.SOLV.lig_0>
0.449748

>  <SCORE.INTRA.VDW>
0

>  <SCORE.INTRA.VDW.0>
0

>  <SCORE.INTRA.norm>
0

>  <SCORE.RESTR>
0

>  <SCORE.RESTR.CAVITY>
0

>  <SCORE.RESTR.norm>
0

>  <SCORE.SYSTEM>
0

>  <SCORE.SYSTEM.CONST>
0

>  <SCORE.SYSTEM.DIHEDRAL>
0

>  <SCORE.SYSTEM.SOLV>
0

>  <SCORE.SYSTEM.norm>
0

>  <SCORE.heavy>
4

>  <SCORE.norm>
-1.35684

>  <RMSD>
26.252

$$$$
ligand
 OpenBabel11021811493D
libRbt.so/2013.1/901 2013/11/27
  4  3  0  0  0  0  0  0  0  0999 V2000
   11.3088   12.7596    4.8580 C   0  0  0  0  0  0  0  0  0  0  0  0
   11.0406   12.1533    3.7972 O   0  0  0  0  0  0  0  0  0  0  0  0
   11.7620   11.9011    6.0314 C   0  0  0  0  0  0  0  0  0  0  0  0
   11.2484   14.0458    5.0930 O   0  0  0  0  0  0  0  0  0  0  0  0
  1  2  1  0  0  0  0
  1  3  1  0  0  0  0
  1  4  1  0  0  0  0
M  END
>  <CHROM.1>
11.33515961,12.72526559,4.93300049,2.52109127,-1.25394646,0.32030308

>  <Name>
ligand

>  <RI>
0

>  <Rbt.Current_Directory>
/home/itssahil/PROJECTS/Mol_Feturizer/New_Systems/rnas/4FEN

>  <Rbt.Executable>
rbdock ($Id: //depot/dev/client3/rdock/2013.1/src/exe/rbdock.cxx#4 $)

>  <Rbt.Library>
libRbt.so (2013.1, Build901 2013/11/27)

>  <Rbt.Parameter_File>
/export/apps/rDock/src/rDock_2013.1_src/data/scripts/dock_solv.prm

>  <Rbt.Receptor>
prm/blind_docking_40.prm

>  <SCORE>
-5.45141

>  <SCORE.INTER>
-5.45141

>  <SCORE.INTER.CONST>
1

>  <SCORE.INTER.POLAR>
0

>  <SCORE.INTER.ROT>
0

>  <SCORE.INTER.SOLV>
1.62862

>  <SCORE.INTER.VDW>
-7.77715

>  <SCORE.INTER.norm>
-1.36285

>  <SCORE.INTRA>
0

>  <SCORE.INTRA.DIHEDRAL>
0

>  <SCORE.INTRA.DIHEDRAL.0>
0

>  <SCORE.INTRA.POLAR>
0

>  <SCORE.INTRA.POLAR.0>
0

>  <SCORE.INTRA.REPUL>
0

>  <SCORE.INTRA.REPUL.0>
0

>  <SCORE.INTRA.SOLV>
0

>  <SCORE.INTRA.SOLV.lig_0>
0.449748

>  <SCORE.INTRA.VDW>
0

>  <SCORE.INTRA.VDW.0>
0

>  <SCORE.INTRA.norm>
0

>  <SCORE.RESTR>
0

>  <SCORE.RESTR.CAVITY>
0

>  <SCORE.RESTR.norm>
0

>  <SCORE.SYSTEM>
0

>  <SCORE.SYSTEM.CONST>
0

>  <SCORE.SYSTEM.DIHEDRAL>
0

>  <SCORE.SYSTEM.SOLV>
0

>  <SCORE.SYSTEM.norm>
0

>  <SCORE.heavy>
4

>  <SCORE.norm>
-1.36285

>  <RMSD>
26.253

$$$$
ligand
 OpenBabel11021811493D
libRbt.so/2013.1/901 2013/11/27
  4  3  0  0  0  0  0  0  0  0999 V2000
   11.3453   12.7029    4.7762 C   0  0  0  0  0  0  0  0  0  0  0  0
   11.1682   12.0323    3.7353 O   0  0  0  0  0  0  0  0  0  0  0  0
   11.7017   11.9196    6.0328 C   0  0  0  0  0  0  0  0  0  0  0  0
   11.2615   14.0004    4.9277 O   0  0  0  0  0  0  0  0  0  0  0  0
  1  2  1  0  0  0  0
  1  3  1  0  0  0  0
  1  4  1  0  0  0  0
M  END
>  <CHROM.1>
11.36536153,12.67333876,4.85514810,2.64406193,-1.33043458,0.37861787

>  <Name>
ligand

>  <RI>
0

>  <Rbt.Current_Directory>
/home/itssahil/PROJECTS/Mol_Feturizer/New_Systems/rnas/4FEN

>  <Rbt.Executable>
rbdock ($Id: //depot/dev/client3/rdock/2013.1/src/exe/rbdock.cxx#4 $)

>  <Rbt.Library>
libRbt.so (2013.1, Build901 2013/11/27)

>  <Rbt.Parameter_File>
/export/apps/rDock/src/rDock_2013.1_src/data/scripts/dock_solv.prm

>  <Rbt.Receptor>
prm/blind_docking_100.prm

>  <SCORE>
-5.46738

>  <SCORE.INTER>
-5.46738

>  <SCORE.INTER.CONST>
1

>  <SCORE.INTER.POLAR>
0

>  <SCORE.INTER.ROT>
0

>  <SCORE.INTER.SOLV>
1.65472

>  <SCORE.INTER.VDW>
-7.79649

>  <SCORE.INTER.norm>
-1.36684

>  <SCORE.INTRA>
0

>  <SCORE.INTRA.DIHEDRAL>
0

>  <SCORE.INTRA.DIHEDRAL.0>
0

>  <SCORE.INTRA.POLAR>
0

>  <SCORE.INTRA.POLAR.0>
0

>  <SCORE.INTRA.REPUL>
0

>  <SCORE.INTRA.REPUL.0>
0

>  <SCORE.INTRA.SOLV>
0

>  <SCORE.INTRA.SOLV.lig_0>
0.449748

>  <SCORE.INTRA.VDW>
0

>  <SCORE.INTRA.VDW.0>
0

>  <SCORE.INTRA.norm>
0

>  <SCORE.RESTR>
0

>  <SCORE.RESTR.CAVITY>
0

>  <SCORE.RESTR.norm>
0

>  <SCORE.SYSTEM>
0

>  <SCORE.SYSTEM.CONST>
0

>  <SCORE.SYSTEM.DIHEDRAL>
0

>  <SCORE.SYSTEM.SOLV>
0

>  <SCORE.SYSTEM.norm>
0

>  <SCORE.heavy>
4

>  <SCORE.norm>
-1.36684

>  <RMSD>
26.254

$$$$
ligand
 OpenBabel11021811493D
libRbt.so/2013.1/901 2013/11/27
  4  3  0  0  0  0  0  0  0  0999 V2000
   11.3353   12.7166    4.7923 C   0  0  0  0  0  0  0  0  0  0  0  0
   11.1308   12.0389    3.7610 O   0  0  0  0  0  0  0  0  0  0  0  0
   11.7235   11.9417    6.0446 C   0  0  0  0  0  0  0  0  0  0  0  0
   11.2566   14.0151    4.9368 O   0  0  0  0  0  0  0  0  0  0  0  0
  1  2  1  0  0  0  0
  1  3  1  0  0  0  0
  1  4  1  0  0  0  0
M  END
>  <CHROM.1>
11.35741019,12.68750299,4.87086910,2.60442722,-1.30651128,0.33326896

>  <Name>
ligand

>  <RI>
0

>  <Rbt.Current_Directory>
/home/itssahil/PROJECTS/Mol_Feturizer/New_Systems/rnas/4FEN

>  <Rbt.Executable>
rbdock ($Id: //depot/dev/client3/rdock/2013.1/src/exe/rbdock.cxx#4 $)

>  <Rbt.Library>
libRbt.so (2013.1, Build901 2013/11/27)

>  <Rbt.Parameter_File>
/export/apps/rDock/src/rDock_2013.1_src/data/scripts/dock_solv.prm

>  <Rbt.Receptor>
prm/blind_docking_80.prm

>  <SCORE>
-5.45817

>  <SCORE.INTER>
-5.45817

>  <SCORE.INTER.CONST>
1

>  <SCORE.INTER.POLAR>
0

>  <SCORE.INTER.ROT>
0

>  <SCORE.INTER.SOLV>
1.65845

>  <SCORE.INTER.VDW>
-7.79159

>  <SCORE.INTER.norm>
-1.36454

>  <SCORE.INTRA>
0

>  <SCORE.INTRA.DIHEDRAL>
0

>  <SCORE.INTRA.DIHEDRAL.0>
0

>  <SCORE.INTRA.POLAR>
0

>  <SCORE.INTRA.POLAR.0>
0

>  <SCORE.INTRA.REPUL>
0

>  <SCORE.INTRA.REPUL.0>
0

>  <SCORE.INTRA.SOLV>
0

>  <SCORE.INTRA.SOLV.lig_0>
0.449748

>  <SCORE.INTRA.VDW>
0

>  <SCORE.INTRA.VDW.0>
0

>  <SCORE.INTRA.norm>
0

>  <SCORE.RESTR>
0

>  <SCORE.RESTR.CAVITY>
0

>  <SCORE.RESTR.norm>
0

>  <SCORE.SYSTEM>
0

>  <SCORE.SYSTEM.CONST>
0

>  <SCORE.SYSTEM.DIHEDRAL>
0

>  <SCORE.SYSTEM.SOLV>
0

>  <SCORE.SYSTEM.norm>
0

>  <SCORE.heavy>
4

>  <SCORE.norm>
-1.36454

>  <RMSD>
26.254

$$$$
ligand
 OpenBabel11021811493D
libRbt.so/2013.1/901 2013/11/27
  4  3  0  0  0  0  0  0  0  0999 V2000
   11.3314   12.7205    4.7931 C   0  0  0  0  0  0  0  0  0  0  0  0
   11.0861   12.0385    3.7736 O   0  0  0  0  0  0  0  0  0  0  0  0
   11.7510   11.9495    6.0376 C   0  0  0  0  0  0  0  0  0  0  0  0
   11.2720   14.0208    4.9310 O   0  0  0  0  0  0  0  0  0  0  0  0
  1  2  1  0  0  0  0
  1  3  1  0  0  0  0
  1  4  1  0  0  0  0
M  END
>  <CHROM.1>
11.35567375,12.69173607,4.87113010,2.53063453,-1.27895502,0.25552544

>  <Name>
ligand

>  <RI>
0

>  <Rbt.Current_Directory>
/home/itssahil/PROJECTS/Mol_Feturizer/New_Systems/rnas/4FEN

>  <Rbt.Executable>
rbdock ($Id: //depot/dev/client3/rdock/2013.1/src/exe/rbdock.cxx#4 $)

>  <Rbt.Library>
libRbt.so (2013.1, Build901 2013/11/27)

>  <Rbt.Parameter_File>
/export/apps/rDock/src/rDock_2013.1_src/data/scripts/dock_solv.prm

>  <Rbt.Receptor>
prm/blind_docking_80.prm

>  <SCORE>
-5.46023

>  <SCORE.INTER>
-5.46023

>  <SCORE.INTER.CONST>
1

>  <SCORE.INTER.POLAR>
0

>  <SCORE.INTER.ROT>
0

>  <SCORE.INTER.SOLV>
1.6665

>  <SCORE.INTER.VDW>
-7.79565

>  <SCORE.INTER.norm>
-1.36506

>  <SCORE.INTRA>
0

>  <SCORE.INTRA.DIHEDRAL>
0

>  <SCORE.INTRA.DIHEDRAL.0>
0

>  <SCORE.INTRA.POLAR>
0

>  <SCORE.INTRA.POLAR.0>
0

>  <SCORE.INTRA.REPUL>
0

>  <SCORE.INTRA.REPUL.0>
0

>  <SCORE.INTRA.SOLV>
0

>  <SCORE.INTRA.SOLV.lig_0>
0.449748

>  <SCORE.INTRA.VDW>
0

>  <SCORE.INTRA.VDW.0>
0

>  <SCORE.INTRA.norm>
0

>  <SCORE.RESTR>
0

>  <SCORE.RESTR.CAVITY>
0

>  <SCORE.RESTR.norm>
0

>  <SCORE.SYSTEM>
0

>  <SCORE.SYSTEM.CONST>
0

>  <SCORE.SYSTEM.DIHEDRAL>
0

>  <SCORE.SYSTEM.SOLV>
0

>  <SCORE.SYSTEM.norm>
0

>  <SCORE.heavy>
4

>  <SCORE.norm>
-1.36506

>  <RMSD>
26.254

$$$$
ligand
 OpenBabel11021811493D
libRbt.so/2013.1/901 2013/11/27
  4  3  0  0  0  0  0  0  0  0999 V2000
   11.3199   12.7635    4.8590 C   0  0  0  0  0  0  0  0  0  0  0  0
   11.2862   14.0006    5.0412 O   0  0  0  0  0  0  0  0  0  0  0  0
   11.7327   11.9149    6.0544 C   0  0  0  0  0  0  0  0  0  0  0  0
   11.0462   12.0983    3.7654 O   0  0  0  0  0  0  0  0  0  0  0  0
  1  2  1  0  0  0  0
  1  3  1  0  0  0  0
  1  4  1  0  0  0  0
M  END
>  <CHROM.1>
11.34173014,12.70239437,4.91638330,-3.10018615,1.27685633,-2.90432613

>  <Name>
ligand

>  <RI>
0

>  <Rbt.Current_Directory>
/home/itssahil/PROJECTS/Mol_Feturizer/New_Systems/rnas/4FEN

>  <Rbt.Executable>
rbdock ($Id: //depot/dev/client3/rdock/2013.1/src/exe/rbdock.cxx#4 $)

>  <Rbt.Library>
libRbt.so (2013.1, Build901 2013/11/27)

>  <Rbt.Parameter_File>
/export/apps/rDock/src/rDock_2013.1_src/data/scripts/dock_solv.prm

>  <Rbt.Receptor>
prm/blind_docking_100.prm

>  <SCORE>
-5.43357

>  <SCORE.INTER>
-5.43357

>  <SCORE.INTER.CONST>
1

>  <SCORE.INTER.POLAR>
0

>  <SCORE.INTER.ROT>
0

>  <SCORE.INTER.SOLV>
1.63373

>  <SCORE.INTER.VDW>
-7.76696

>  <SCORE.INTER.norm>
-1.35839

>  <SCORE.INTRA>
0

>  <SCORE.INTRA.DIHEDRAL>
0

>  <SCORE.INTRA.DIHEDRAL.0>
0

>  <SCORE.INTRA.POLAR>
0

>  <SCORE.INTRA.POLAR.0>
0

>  <SCORE.INTRA.REPUL>
0

>  <SCORE.INTRA.REPUL.0>
0

>  <SCORE.INTRA.SOLV>
0

>  <SCORE.INTRA.SOLV.lig_0>
0.449748

>  <SCORE.INTRA.VDW>
0

>  <SCORE.INTRA.VDW.0>
0

>  <SCORE.INTRA.norm>
0

>  <SCORE.RESTR>
0

>  <SCORE.RESTR.CAVITY>
0

>  <SCORE.RESTR.norm>
0

>  <SCORE.SYSTEM>
0

>  <SCORE.SYSTEM.CONST>
0

>  <SCORE.SYSTEM.DIHEDRAL>
0

>  <SCORE.SYSTEM.SOLV>
0

>  <SCORE.SYSTEM.norm>
0

>  <SCORE.heavy>
4

>  <SCORE.norm>
-1.35839

>  <RMSD>
26.255

$$$$
ligand
 OpenBabel11021811493D
libRbt.so/2013.1/901 2013/11/27
  4  3  0  0  0  0  0  0  0  0999 V2000
   11.3212   12.7322    4.8133 C   0  0  0  0  0  0  0  0  0  0  0  0
   11.0761   12.0418    3.7993 O   0  0  0  0  0  0  0  0  0  0  0  0
   11.7674   11.9736    6.0561 C   0  0  0  0  0  0  0  0  0  0  0  0
   11.2415   14.0319    4.9466 O   0  0  0  0  0  0  0  0  0  0  0  0
  1  2  1  0  0  0  0
  1  3  1  0  0  0  0
  1  4  1  0  0  0  0
M  END
>  <CHROM.1>
11.34678255,12.70413625,4.89110986,2.57516941,-1.26367950,0.29393634

>  <Name>
ligand

>  <RI>
0

>  <Rbt.Current_Directory>
/home/itssahil/PROJECTS/Mol_Feturizer/New_Systems/rnas/4FEN

>  <Rbt.Executable>
rbdock ($Id: //depot/dev/client3/rdock/2013.1/src/exe/rbdock.cxx#4 $)

>  <Rbt.Library>
libRbt.so (2013.1, Build901 2013/11/27)

>  <Rbt.Parameter_File>
/export/apps/rDock/src/rDock_2013.1_src/data/scripts/dock_solv.prm

>  <Rbt.Receptor>
prm/blind_docking_100.prm

>  <SCORE>
-5.44742

>  <SCORE.INTER>
-5.44742

>  <SCORE.INTER.CONST>
1

>  <SCORE.INTER.POLAR>
0

>  <SCORE.INTER.ROT>
0

>  <SCORE.INTER.SOLV>
1.6632

>  <SCORE.INTER.VDW>
-7.78601

>  <SCORE.INTER.norm>
-1.36186

>  <SCORE.INTRA>
0

>  <SCORE.INTRA.DIHEDRAL>
0

>  <SCORE.INTRA.DIHEDRAL.0>
0

>  <SCORE.INTRA.POLAR>
0

>  <SCORE.INTRA.POLAR.0>
0

>  <SCORE.INTRA.REPUL>
0

>  <SCORE.INTRA.REPUL.0>
0

>  <SCORE.INTRA.SOLV>
0

>  <SCORE.INTRA.SOLV.lig_0>
0.449748

>  <SCORE.INTRA.VDW>
0

>  <SCORE.INTRA.VDW.0>
0

>  <SCORE.INTRA.norm>
0

>  <SCORE.RESTR>
0

>  <SCORE.RESTR.CAVITY>
0

>  <SCORE.RESTR.norm>
0

>  <SCORE.SYSTEM>
0

>  <SCORE.SYSTEM.CONST>
0

>  <SCORE.SYSTEM.DIHEDRAL>
0

>  <SCORE.SYSTEM.SOLV>
0

>  <SCORE.SYSTEM.norm>
0

>  <SCORE.heavy>
4

>  <SCORE.norm>
-1.36186

>  <RMSD>
26.255

$$$$
ligand
 OpenBabel11021811493D
libRbt.so/2013.1/901 2013/11/27
  4  3  0  0  0  0  0  0  0  0999 V2000
   11.3191   12.7638    4.8603 C   0  0  0  0  0  0  0  0  0  0  0  0
   11.3071   14.0003    5.0496 O   0  0  0  0  0  0  0  0  0  0  0  0
   11.7432   11.9028    6.0428 C   0  0  0  0  0  0  0  0  0  0  0  0
   11.0141   12.1088    3.7689 O   0  0  0  0  0  0  0  0  0  0  0  0
  1  2  1  0  0  0  0
  1  3  1  0  0  0  0
  1  4  1  0  0  0  0
M  END
>  <CHROM.1>
11.34116882,12.70213165,4.91696598,-3.03857240,1.26040475,-2.95775585

>  <Name>
ligand

>  <RI>
0

>  <Rbt.Current_Directory>
/home/itssahil/PROJECTS/Mol_Feturizer/New_Systems/rnas/4FEN

>  <Rbt.Executable>
rbdock ($Id: //depot/dev/client3/rdock/2013.1/src/exe/rbdock.cxx#4 $)

>  <Rbt.Library>
libRbt.so (2013.1, Build901 2013/11/27)

>  <Rbt.Parameter_File>
/export/apps/rDock/src/rDock_2013.1_src/data/scripts/dock_solv.prm

>  <Rbt.Receptor>
prm/blind_docking_20.prm

>  <SCORE>
-5.46118

>  <SCORE.INTER>
-5.46118

>  <SCORE.INTER.CONST>
1

>  <SCORE.INTER.POLAR>
0

>  <SCORE.INTER.ROT>
0

>  <SCORE.INTER.SOLV>
1.63394

>  <SCORE.INTER.VDW>
-7.78544

>  <SCORE.INTER.norm>
-1.3653

>  <SCORE.INTRA>
0

>  <SCORE.INTRA.DIHEDRAL>
0

>  <SCORE.INTRA.DIHEDRAL.0>
0

>  <SCORE.INTRA.POLAR>
0

>  <SCORE.INTRA.POLAR.0>
0

>  <SCORE.INTRA.REPUL>
0

>  <SCORE.INTRA.REPUL.0>
0

>  <SCORE.INTRA.SOLV>
0

>  <SCORE.INTRA.SOLV.lig_0>
0.449748

>  <SCORE.INTRA.VDW>
0

>  <SCORE.INTRA.VDW.0>
0

>  <SCORE.INTRA.norm>
0

>  <SCORE.RESTR>
0

>  <SCORE.RESTR.CAVITY>
0

>  <SCORE.RESTR.norm>
0

>  <SCORE.SYSTEM>
0

>  <SCORE.SYSTEM.CONST>
0

>  <SCORE.SYSTEM.DIHEDRAL>
0

>  <SCORE.SYSTEM.SOLV>
0

>  <SCORE.SYSTEM.norm>
0

>  <SCORE.heavy>
4

>  <SCORE.norm>
-1.3653

>  <RMSD>
26.255

$$$$
ligand
 OpenBabel11021811493D
libRbt.so/2013.1/901 2013/11/27
  4  3  0  0  0  0  0  0  0  0999 V2000
   11.3294   12.7485    4.8177 C   0  0  0  0  0  0  0  0  0  0  0  0
   11.2469   13.9907    4.9399 O   0  0  0  0  0  0  0  0  0  0  0  0
   11.7351   11.9719    6.0634 C   0  0  0  0  0  0  0  0  0  0  0  0
   11.1127   12.0238    3.7495 O   0  0  0  0  0  0  0  0  0  0  0  0
  1  2  1  0  0  0  0
  1  3  1  0  0  0  0
  1  4  1  0  0  0  0
M  END
>  <CHROM.1>
11.35162109,12.69099561,4.87856301,3.03081567,1.29525844,-2.80520678

>  <Name>
ligand

>  <RI>
0

>  <Rbt.Current_Directory>
/home/itssahil/PROJECTS/Mol_Feturizer/New_Systems/rnas/4FEN

>  <Rbt.Executable>
rbdock ($Id: //depot/dev/client3/rdock/2013.1/src/exe/rbdock.cxx#4 $)

>  <Rbt.Library>
libRbt.so (2013.1, Build901 2013/11/27)

>  <Rbt.Parameter_File>
/export/apps/rDock/src/rDock_2013.1_src/data/scripts/dock_solv.prm

>  <Rbt.Receptor>
prm/blind_docking_60.prm

>  <SCORE>
-5.42044

>  <SCORE.INTER>
-5.42044

>  <SCORE.INTER.CONST>
1

>  <SCORE.INTER.POLAR>
0

>  <SCORE.INTER.ROT>
0

>  <SCORE.INTER.SOLV>
1.65312

>  <SCORE.INTER.VDW>
-7.76467

>  <SCORE.INTER.norm>
-1.35511

>  <SCORE.INTRA>
0

>  <SCORE.INTRA.DIHEDRAL>
0

>  <SCORE.INTRA.DIHEDRAL.0>
0

>  <SCORE.INTRA.POLAR>
0

>  <SCORE.INTRA.POLAR.0>
0

>  <SCORE.INTRA.REPUL>
0

>  <SCORE.INTRA.REPUL.0>
0

>  <SCORE.INTRA.SOLV>
0

>  <SCORE.INTRA.SOLV.lig_0>
0.449748

>  <SCORE.INTRA.VDW>
0

>  <SCORE.INTRA.VDW.0>
0

>  <SCORE.INTRA.norm>
0

>  <SCORE.RESTR>
0

>  <SCORE.RESTR.CAVITY>
0

>  <SCORE.RESTR.norm>
0

>  <SCORE.SYSTEM>
0

>  <SCORE.SYSTEM.CONST>
0

>  <SCORE.SYSTEM.DIHEDRAL>
0

>  <SCORE.SYSTEM.SOLV>
0

>  <SCORE.SYSTEM.norm>
0

>  <SCORE.heavy>
4

>  <SCORE.norm>
-1.35511

>  <RMSD>
26.255

$$$$
ligand
 OpenBabel11021811493D
libRbt.so/2013.1/901 2013/11/27
  4  3  0  0  0  0  0  0  0  0999 V2000
   11.3342   12.7126    4.7933 C   0  0  0  0  0  0  0  0  0  0  0  0
   11.1055   12.0308    3.7698 O   0  0  0  0  0  0  0  0  0  0  0  0
   11.7375   11.9416    6.0432 C   0  0  0  0  0  0  0  0  0  0  0  0
   11.2696   14.0126    4.9313 O   0  0  0  0  0  0  0  0  0  0  0  0
  1  2  1  0  0  0  0
  1  3  1  0  0  0  0
  1  4  1  0  0  0  0
M  END
>  <CHROM.1>
11.35740370,12.68378778,4.87160992,2.55263617,-1.29239160,0.27740412

>  <Name>
ligand

>  <RI>
0

>  <Rbt.Current_Directory>
/home/itssahil/PROJECTS/Mol_Feturizer/New_Systems/rnas/4FEN

>  <Rbt.Executable>
rbdock ($Id: //depot/dev/client3/rdock/2013.1/src/exe/rbdock.cxx#4 $)

>  <Rbt.Library>
libRbt.so (2013.1, Build901 2013/11/27)

>  <Rbt.Parameter_File>
/export/apps/rDock/src/rDock_2013.1_src/data/scripts/dock_solv.prm

>  <Rbt.Receptor>
prm/blind_docking_80.prm

>  <SCORE>
-5.46333

>  <SCORE.INTER>
-5.46333

>  <SCORE.INTER.CONST>
1

>  <SCORE.INTER.POLAR>
0

>  <SCORE.INTER.ROT>
0

>  <SCORE.INTER.SOLV>
1.66234

>  <SCORE.INTER.VDW>
-7.79634

>  <SCORE.INTER.norm>
-1.36583

>  <SCORE.INTRA>
0

>  <SCORE.INTRA.DIHEDRAL>
0

>  <SCORE.INTRA.DIHEDRAL.0>
0

>  <SCORE.INTRA.POLAR>
0

>  <SCORE.INTRA.POLAR.0>
0

>  <SCORE.INTRA.REPUL>
0

>  <SCORE.INTRA.REPUL.0>
0

>  <SCORE.INTRA.SOLV>
0

>  <SCORE.INTRA.SOLV.lig_0>
0.449748

>  <SCORE.INTRA.VDW>
0

>  <SCORE.INTRA.VDW.0>
0

>  <SCORE.INTRA.norm>
0

>  <SCORE.RESTR>
0

>  <SCORE.RESTR.CAVITY>
0

>  <SCORE.RESTR.norm>
0

>  <SCORE.SYSTEM>
0

>  <SCORE.SYSTEM.CONST>
0

>  <SCORE.SYSTEM.DIHEDRAL>
0

>  <SCORE.SYSTEM.SOLV>
0

>  <SCORE.SYSTEM.norm>
0

>  <SCORE.heavy>
4

>  <SCORE.norm>
-1.36583

>  <RMSD>
26.255

$$$$
ligand
 OpenBabel11021811493D
libRbt.so/2013.1/901 2013/11/27
  4  3  0  0  0  0  0  0  0  0999 V2000
   11.3191   12.7628    4.8595 C   0  0  0  0  0  0  0  0  0  0  0  0
   11.3051   13.9957    5.0706 O   0  0  0  0  0  0  0  0  0  0  0  0
   11.7548   11.8824    6.0233 C   0  0  0  0  0  0  0  0  0  0  0  0
   11.0074   12.1261    3.7591 O   0  0  0  0  0  0  0  0  0  0  0  0
  1  2  1  0  0  0  0
  1  3  1  0  0  0  0
  1  4  1  0  0  0  0
M  END
>  <CHROM.1>
11.34177788,12.70016348,4.91486140,-3.04265154,1.25221500,-2.93629731

>  <Name>
ligand

>  <RI>
0

>  <Rbt.Current_Directory>
/home/itssahil/PROJECTS/Mol_Feturizer/New_Systems/rnas/4FEN

>  <Rbt.Executable>
rbdock ($Id: //depot/dev/client3/rdock/2013.1/src/exe/rbdock.cxx#4 $)

>  <Rbt.Library>
libRbt.so (2013.1, Build901 2013/11/27)

>  <Rbt.Parameter_File>
/export/apps/rDock/src/rDock_2013.1_src/data/scripts/dock_solv.prm

>  <Rbt.Receptor>
prm/blind_docking_20.prm

>  <SCORE>
-5.45812

>  <SCORE.INTER>
-5.45812

>  <SCORE.INTER.CONST>
1

>  <SCORE.INTER.POLAR>
0

>  <SCORE.INTER.ROT>
0

>  <SCORE.INTER.SOLV>
1.62674

>  <SCORE.INTER.VDW>
-7.78099

>  <SCORE.INTER.norm>
-1.36453

>  <SCORE.INTRA>
0

>  <SCORE.INTRA.DIHEDRAL>
0

>  <SCORE.INTRA.DIHEDRAL.0>
0

>  <SCORE.INTRA.POLAR>
0

>  <SCORE.INTRA.POLAR.0>
0

>  <SCORE.INTRA.REPUL>
0

>  <SCORE.INTRA.REPUL.0>
0

>  <SCORE.INTRA.SOLV>
0

>  <SCORE.INTRA.SOLV.lig_0>
0.449748

>  <SCORE.INTRA.VDW>
0

>  <SCORE.INTRA.VDW.0>
0

>  <SCORE.INTRA.norm>
0

>  <SCORE.RESTR>
0

>  <SCORE.RESTR.CAVITY>
0

>  <SCORE.RESTR.norm>
0

>  <SCORE.SYSTEM>
0

>  <SCORE.SYSTEM.CONST>
0

>  <SCORE.SYSTEM.DIHEDRAL>
0

>  <SCORE.SYSTEM.SOLV>
0

>  <SCORE.SYSTEM.norm>
0

>  <SCORE.heavy>
4

>  <SCORE.norm>
-1.36453

>  <RMSD>
26.256

$$$$
ligand
 OpenBabel11021811493D
libRbt.so/2013.1/901 2013/11/27
  4  3  0  0  0  0  0  0  0  0999 V2000
   11.3187   12.7632    4.8583 C   0  0  0  0  0  0  0  0  0  0  0  0
   11.2760   13.9962    5.0650 O   0  0  0  0  0  0  0  0  0  0  0  0
   11.7380   11.8942    6.0367 C   0  0  0  0  0  0  0  0  0  0  0  0
   11.0497   12.1179    3.7518 O   0  0  0  0  0  0  0  0  0  0  0  0
  1  2  1  0  0  0  0
  1  3  1  0  0  0  0
  1  4  1  0  0  0  0
M  END
>  <CHROM.1>
11.34100082,12.70117354,4.91453809,-3.12441158,1.27486043,-2.86132063

>  <Name>
ligand

>  <RI>
0

>  <Rbt.Current_Directory>
/home/itssahil/PROJECTS/Mol_Feturizer/New_Systems/rnas/4FEN

>  <Rbt.Executable>
rbdock ($Id: //depot/dev/client3/rdock/2013.1/src/exe/rbdock.cxx#4 $)

>  <Rbt.Library>
libRbt.so (2013.1, Build901 2013/11/27)

>  <Rbt.Parameter_File>
/export/apps/rDock/src/rDock_2013.1_src/data/scripts/dock_solv.prm

>  <Rbt.Receptor>
prm/blind_docking_20.prm

>  <SCORE>
-5.45577

>  <SCORE.INTER>
-5.45577

>  <SCORE.INTER.CONST>
1

>  <SCORE.INTER.POLAR>
0

>  <SCORE.INTER.ROT>
0

>  <SCORE.INTER.SOLV>
1.62385

>  <SCORE.INTER.VDW>
-7.77846

>  <SCORE.INTER.norm>
-1.36394

>  <SCORE.INTRA>
0

>  <SCORE.INTRA.DIHEDRAL>
0

>  <SCORE.INTRA.DIHEDRAL.0>
0

>  <SCORE.INTRA.POLAR>
0

>  <SCORE.INTRA.POLAR.0>
0

>  <SCORE.INTRA.REPUL>
0

>  <SCORE.INTRA.REPUL.0>
0

>  <SCORE.INTRA.SOLV>
0

>  <SCORE.INTRA.SOLV.lig_0>
0.449748

>  <SCORE.INTRA.VDW>
0

>  <SCORE.INTRA.VDW.0>
0

>  <SCORE.INTRA.norm>
0

>  <SCORE.RESTR>
0

>  <SCORE.RESTR.CAVITY>
0

>  <SCORE.RESTR.norm>
0

>  <SCORE.SYSTEM>
0

>  <SCORE.SYSTEM.CONST>
0

>  <SCORE.SYSTEM.DIHEDRAL>
0

>  <SCORE.SYSTEM.SOLV>
0

>  <SCORE.SYSTEM.norm>
0

>  <SCORE.heavy>
4

>  <SCORE.norm>
-1.36394

>  <RMSD>
26.257

$$$$
ligand
 OpenBabel11021811493D
libRbt.so/2013.1/901 2013/11/27
  4  3  0  0  0  0  0  0  0  0999 V2000
   11.3184   12.7638    4.8598 C   0  0  0  0  0  0  0  0  0  0  0  0
   11.3037   13.9981    5.0621 O   0  0  0  0  0  0  0  0  0  0  0  0
   11.7176   11.8896    6.0412 C   0  0  0  0  0  0  0  0  0  0  0  0
   11.0349   12.1208    3.7555 O   0  0  0  0  0  0  0  0  0  0  0  0
  1  2  1  0  0  0  0
  1  3  1  0  0  0  0
  1  4  1  0  0  0  0
M  END
>  <CHROM.1>
11.33922817,12.70141404,4.91621098,-3.04818640,1.28045426,-2.93782886

>  <Name>
ligand

>  <RI>
0

>  <Rbt.Current_Directory>
/home/itssahil/PROJECTS/Mol_Feturizer/New_Systems/rnas/4FEN

>  <Rbt.Executable>
rbdock ($Id: //depot/dev/client3/rdock/2013.1/src/exe/rbdock.cxx#4 $)

>  <Rbt.Library>
libRbt.so (2013.1, Build901 2013/11/27)

>  <Rbt.Parameter_File>
/export/apps/rDock/src/rDock_2013.1_src/data/scripts/dock_solv.prm

>  <Rbt.Receptor>
prm/blind_docking_80.prm

>  <SCORE>
-5.45967

>  <SCORE.INTER>
-5.45967

>  <SCORE.INTER.CONST>
1

>  <SCORE.INTER.POLAR>
0

>  <SCORE.INTER.ROT>
0

>  <SCORE.INTER.SOLV>
1.62622

>  <SCORE.INTER.VDW>
-7.78185

>  <SCORE.INTER.norm>
-1.36492

>  <SCORE.INTRA>
0

>  <SCORE.INTRA.DIHEDRAL>
0

>  <SCORE.INTRA.DIHEDRAL.0>
0

>  <SCORE.INTRA.POLAR>
0

>  <SCORE.INTRA.POLAR.0>
0

>  <SCORE.INTRA.REPUL>
0

>  <SCORE.INTRA.REPUL.0>
0

>  <SCORE.INTRA.SOLV>
0

>  <SCORE.INTRA.SOLV.lig_0>
0.449748

>  <SCORE.INTRA.VDW>
0

>  <SCORE.INTRA.VDW.0>
0

>  <SCORE.INTRA.norm>
0

>  <SCORE.RESTR>
0

>  <SCORE.RESTR.CAVITY>
0

>  <SCORE.RESTR.norm>
0

>  <SCORE.SYSTEM>
0

>  <SCORE.SYSTEM.CONST>
0

>  <SCORE.SYSTEM.DIHEDRAL>
0

>  <SCORE.SYSTEM.SOLV>
0

>  <SCORE.SYSTEM.norm>
0

>  <SCORE.heavy>
4

>  <SCORE.norm>
-1.36492

>  <RMSD>
26.258

$$$$
ligand
 OpenBabel11021811493D
libRbt.so/2013.1/901 2013/11/27
  4  3  0  0  0  0  0  0  0  0999 V2000
   11.3292   12.7387    4.8114 C   0  0  0  0  0  0  0  0  0  0  0  0
   11.2658   13.9824    4.9296 O   0  0  0  0  0  0  0  0  0  0  0  0
   11.7498   11.9621    6.0521 C   0  0  0  0  0  0  0  0  0  0  0  0
   11.0808   12.0124    3.7512 O   0  0  0  0  0  0  0  0  0  0  0  0
  1  2  1  0  0  0  0
  1  3  1  0  0  0  0
  1  4  1  0  0  0  0
M  END
>  <CHROM.1>
11.35182129,12.68117241,4.87204933,3.09871092,1.27966304,-2.87486934

>  <Name>
ligand

>  <RI>
0

>  <Rbt.Current_Directory>
/home/itssahil/PROJECTS/Mol_Feturizer/New_Systems/rnas/4FEN

>  <Rbt.Executable>
rbdock ($Id: //depot/dev/client3/rdock/2013.1/src/exe/rbdock.cxx#4 $)

>  <Rbt.Library>
libRbt.so (2013.1, Build901 2013/11/27)

>  <Rbt.Parameter_File>
/export/apps/rDock/src/rDock_2013.1_src/data/scripts/dock_solv.prm

>  <Rbt.Receptor>
prm/blind_docking_100.prm

>  <SCORE>
-5.41498

>  <SCORE.INTER>
-5.41498

>  <SCORE.INTER.CONST>
1

>  <SCORE.INTER.POLAR>
0

>  <SCORE.INTER.ROT>
0

>  <SCORE.INTER.SOLV>
1.65647

>  <SCORE.INTER.VDW>
-7.76215

>  <SCORE.INTER.norm>
-1.35375

>  <SCORE.INTRA>
0

>  <SCORE.INTRA.DIHEDRAL>
0

>  <SCORE.INTRA.DIHEDRAL.0>
0

>  <SCORE.INTRA.POLAR>
0

>  <SCORE.INTRA.POLAR.0>
0

>  <SCORE.INTRA.REPUL>
0

>  <SCORE.INTRA.REPUL.0>
0

>  <SCORE.INTRA.SOLV>
0

>  <SCORE.INTRA.SOLV.lig_0>
0.449748

>  <SCORE.INTRA.VDW>
0

>  <SCORE.INTRA.VDW.0>
0

>  <SCORE.INTRA.norm>
0

>  <SCORE.RESTR>
0

>  <SCORE.RESTR.CAVITY>
0

>  <SCORE.RESTR.norm>
0

>  <SCORE.SYSTEM>
0

>  <SCORE.SYSTEM.CONST>
0

>  <SCORE.SYSTEM.DIHEDRAL>
0

>  <SCORE.SYSTEM.SOLV>
0

>  <SCORE.SYSTEM.norm>
0

>  <SCORE.heavy>
4

>  <SCORE.norm>
-1.35375

>  <RMSD>
26.259

$$$$
ligand
 OpenBabel11021811493D
libRbt.so/2013.1/901 2013/11/27
  4  3  0  0  0  0  0  0  0  0999 V2000
   11.3305   12.7135    4.7926 C   0  0  0  0  0  0  0  0  0  0  0  0
   11.0946   12.0287    3.7727 O   0  0  0  0  0  0  0  0  0  0  0  0
   11.7182   11.9445    6.0487 C   0  0  0  0  0  0  0  0  0  0  0  0
   11.2852   14.0152    4.9221 O   0  0  0  0  0  0  0  0  0  0  0  0
  1  2  1  0  0  0  0
  1  3  1  0  0  0  0
  1  4  1  0  0  0  0
M  END
>  <CHROM.1>
11.35305475,12.68485855,4.87116353,2.50146352,-1.29916238,0.22178639

>  <Name>
ligand

>  <RI>
0

>  <Rbt.Current_Directory>
/home/itssahil/PROJECTS/Mol_Feturizer/New_Systems/rnas/4FEN

>  <Rbt.Executable>
rbdock ($Id: //depot/dev/client3/rdock/2013.1/src/exe/rbdock.cxx#4 $)

>  <Rbt.Library>
libRbt.so (2013.1, Build901 2013/11/27)

>  <Rbt.Parameter_File>
/export/apps/rDock/src/rDock_2013.1_src/data/scripts/dock_solv.prm

>  <Rbt.Receptor>
prm/blind_docking_40.prm

>  <SCORE>
-5.46245

>  <SCORE.INTER>
-5.46245

>  <SCORE.INTER.CONST>
1

>  <SCORE.INTER.POLAR>
0

>  <SCORE.INTER.ROT>
0

>  <SCORE.INTER.SOLV>
1.66532

>  <SCORE.INTER.VDW>
-7.79674

>  <SCORE.INTER.norm>
-1.36561

>  <SCORE.INTRA>
0

>  <SCORE.INTRA.DIHEDRAL>
0

>  <SCORE.INTRA.DIHEDRAL.0>
0

>  <SCORE.INTRA.POLAR>
0

>  <SCORE.INTRA.POLAR.0>
0

>  <SCORE.INTRA.REPUL>
0

>  <SCORE.INTRA.REPUL.0>
0

>  <SCORE.INTRA.SOLV>
0

>  <SCORE.INTRA.SOLV.lig_0>
0.449748

>  <SCORE.INTRA.VDW>
0

>  <SCORE.INTRA.VDW.0>
0

>  <SCORE.INTRA.norm>
0

>  <SCORE.RESTR>
0

>  <SCORE.RESTR.CAVITY>
0

>  <SCORE.RESTR.norm>
0

>  <SCORE.SYSTEM>
0

>  <SCORE.SYSTEM.CONST>
0

>  <SCORE.SYSTEM.DIHEDRAL>
0

>  <SCORE.SYSTEM.SOLV>
0

>  <SCORE.SYSTEM.norm>
0

>  <SCORE.heavy>
4

>  <SCORE.norm>
-1.36561

>  <RMSD>
26.259

$$$$
ligand
 OpenBabel11021811493D
libRbt.so/2013.1/901 2013/11/27
  4  3  0  0  0  0  0  0  0  0999 V2000
   11.3257   12.7527    4.8192 C   0  0  0  0  0  0  0  0  0  0  0  0
   11.2943   13.9994    4.9171 O   0  0  0  0  0  0  0  0  0  0  0  0
   11.7135   11.9853    6.0762 C   0  0  0  0  0  0  0  0  0  0  0  0
   11.0684   12.0163    3.7681 O   0  0  0  0  0  0  0  0  0  0  0  0
  1  2  1  0  0  0  0
  1  3  1  0  0  0  0
  1  4  1  0  0  0  0
M  END
>  <CHROM.1>
11.34621758,12.69557795,4.88101321,-3.09959793,1.29509947,-2.97227358

>  <Name>
ligand

>  <RI>
0

>  <Rbt.Current_Directory>
/home/itssahil/PROJECTS/Mol_Feturizer/New_Systems/rnas/4FEN

>  <Rbt.Executable>
rbdock ($Id: //depot/dev/client3/rdock/2013.1/src/exe/rbdock.cxx#4 $)

>  <Rbt.Library>
libRbt.so (2013.1, Build901 2013/11/27)

>  <Rbt.Parameter_File>
/export/apps/rDock/src/rDock_2013.1_src/data/scripts/dock_solv.prm

>  <Rbt.Receptor>
prm/blind_docking_40.prm

>  <SCORE>
-5.41887

>  <SCORE.INTER>
-5.41887

>  <SCORE.INTER.CONST>
1

>  <SCORE.INTER.POLAR>
0

>  <SCORE.INTER.ROT>
0

>  <SCORE.INTER.SOLV>
1.66578

>  <SCORE.INTER.VDW>
-7.76784

>  <SCORE.INTER.norm>
-1.35472

>  <SCORE.INTRA>
0

>  <SCORE.INTRA.DIHEDRAL>
0

>  <SCORE.INTRA.DIHEDRAL.0>
0

>  <SCORE.INTRA.POLAR>
0

>  <SCORE.INTRA.POLAR.0>
0

>  <SCORE.INTRA.REPUL>
0

>  <SCORE.INTRA.REPUL.0>
0

>  <SCORE.INTRA.SOLV>
0

>  <SCORE.INTRA.SOLV.lig_0>
0.449748

>  <SCORE.INTRA.VDW>
0

>  <SCORE.INTRA.VDW.0>
0

>  <SCORE.INTRA.norm>
0

>  <SCORE.RESTR>
0

>  <SCORE.RESTR.CAVITY>
0

>  <SCORE.RESTR.norm>
0

>  <SCORE.SYSTEM>
0

>  <SCORE.SYSTEM.CONST>
0

>  <SCORE.SYSTEM.DIHEDRAL>
0

>  <SCORE.SYSTEM.SOLV>
0

>  <SCORE.SYSTEM.norm>
0

>  <SCORE.heavy>
4

>  <SCORE.norm>
-1.35472

>  <RMSD>
26.259

$$$$
ligand
 OpenBabel11021811493D
libRbt.so/2013.1/901 2013/11/27
  4  3  0  0  0  0  0  0  0  0999 V2000
   11.3289   12.7072    4.7950 C   0  0  0  0  0  0  0  0  0  0  0  0
   11.1064   12.0294    3.7674 O   0  0  0  0  0  0  0  0  0  0  0  0
   11.7584   11.9342    6.0349 C   0  0  0  0  0  0  0  0  0  0  0  0
   11.2380   14.0043    4.9449 O   0  0  0  0  0  0  0  0  0  0  0  0
  1  2  1  0  0  0  0
  1  3  1  0  0  0  0
  1  4  1  0  0  0  0
M  END
>  <CHROM.1>
11.35333424,12.67817516,4.87288460,2.61563764,-1.27833684,0.34652899

>  <Name>
ligand

>  <RI>
0

>  <Rbt.Current_Directory>
/home/itssahil/PROJECTS/Mol_Feturizer/New_Systems/rnas/4FEN

>  <Rbt.Executable>
rbdock ($Id: //depot/dev/client3/rdock/2013.1/src/exe/rbdock.cxx#4 $)

>  <Rbt.Library>
libRbt.so (2013.1, Build901 2013/11/27)

>  <Rbt.Parameter_File>
/export/apps/rDock/src/rDock_2013.1_src/data/scripts/dock_solv.prm

>  <Rbt.Receptor>
prm/blind_docking_20.prm

>  <SCORE>
-5.45241

>  <SCORE.INTER>
-5.45241

>  <SCORE.INTER.CONST>
1

>  <SCORE.INTER.POLAR>
0

>  <SCORE.INTER.ROT>
0

>  <SCORE.INTER.SOLV>
1.65423

>  <SCORE.INTER.VDW>
-7.78635

>  <SCORE.INTER.norm>
-1.3631

>  <SCORE.INTRA>
0

>  <SCORE.INTRA.DIHEDRAL>
0

>  <SCORE.INTRA.DIHEDRAL.0>
0

>  <SCORE.INTRA.POLAR>
0

>  <SCORE.INTRA.POLAR.0>
0

>  <SCORE.INTRA.REPUL>
0

>  <SCORE.INTRA.REPUL.0>
0

>  <SCORE.INTRA.SOLV>
0

>  <SCORE.INTRA.SOLV.lig_0>
0.449748

>  <SCORE.INTRA.VDW>
0

>  <SCORE.INTRA.VDW.0>
0

>  <SCORE.INTRA.norm>
0

>  <SCORE.RESTR>
0

>  <SCORE.RESTR.CAVITY>
0

>  <SCORE.RESTR.norm>
0

>  <SCORE.SYSTEM>
0

>  <SCORE.SYSTEM.CONST>
0

>  <SCORE.SYSTEM.DIHEDRAL>
0

>  <SCORE.SYSTEM.SOLV>
0

>  <SCORE.SYSTEM.norm>
0

>  <SCORE.heavy>
4

>  <SCORE.norm>
-1.3631

>  <RMSD>
26.260

$$$$
ligand
 OpenBabel11021811493D
libRbt.so/2013.1/901 2013/11/27
  4  3  0  0  0  0  0  0  0  0999 V2000
   11.3360   12.7101    4.7725 C   0  0  0  0  0  0  0  0  0  0  0  0
   11.1669   12.0319    3.7351 O   0  0  0  0  0  0  0  0  0  0  0  0
   11.7162   11.9392    6.0297 C   0  0  0  0  0  0  0  0  0  0  0  0
   11.2260   14.0060    4.9196 O   0  0  0  0  0  0  0  0  0  0  0  0
  1  2  1  0  0  0  0
  1  3  1  0  0  0  0
  1  4  1  0  0  0  0
M  END
>  <CHROM.1>
11.35718567,12.68117509,4.85134214,2.71285247,-1.31661701,0.44152986

>  <Name>
ligand

>  <RI>
0

>  <Rbt.Current_Directory>
/home/itssahil/PROJECTS/Mol_Feturizer/New_Systems/rnas/4FEN

>  <Rbt.Executable>
rbdock ($Id: //depot/dev/client3/rdock/2013.1/src/exe/rbdock.cxx#4 $)

>  <Rbt.Library>
libRbt.so (2013.1, Build901 2013/11/27)

>  <Rbt.Parameter_File>
/export/apps/rDock/src/rDock_2013.1_src/data/scripts/dock_solv.prm

>  <Rbt.Receptor>
prm/blind_docking_20.prm

>  <SCORE>
-5.45208

>  <SCORE.INTER>
-5.45208

>  <SCORE.INTER.CONST>
1

>  <SCORE.INTER.POLAR>
0

>  <SCORE.INTER.ROT>
0

>  <SCORE.INTER.SOLV>
1.65605

>  <SCORE.INTER.VDW>
-7.78674

>  <SCORE.INTER.norm>
-1.36302

>  <SCORE.INTRA>
0

>  <SCORE.INTRA.DIHEDRAL>
0

>  <SCORE.INTRA.DIHEDRAL.0>
0

>  <SCORE.INTRA.POLAR>
0

>  <SCORE.INTRA.POLAR.0>
0

>  <SCORE.INTRA.REPUL>
0

>  <SCORE.INTRA.REPUL.0>
0

>  <SCORE.INTRA.SOLV>
0

>  <SCORE.INTRA.SOLV.lig_0>
0.449748

>  <SCORE.INTRA.VDW>
0

>  <SCORE.INTRA.VDW.0>
0

>  <SCORE.INTRA.norm>
0

>  <SCORE.RESTR>
0

>  <SCORE.RESTR.CAVITY>
0

>  <SCORE.RESTR.norm>
0

>  <SCORE.SYSTEM>
0

>  <SCORE.SYSTEM.CONST>
0

>  <SCORE.SYSTEM.DIHEDRAL>
0

>  <SCORE.SYSTEM.SOLV>
0

>  <SCORE.SYSTEM.norm>
0

>  <SCORE.heavy>
4

>  <SCORE.norm>
-1.36302

>  <RMSD>
26.260

$$$$
ligand
 OpenBabel11021811493D
libRbt.so/2013.1/901 2013/11/27
  4  3  0  0  0  0  0  0  0  0999 V2000
   11.3372   12.7052    4.7831 C   0  0  0  0  0  0  0  0  0  0  0  0
   11.1787   12.0382    3.7368 O   0  0  0  0  0  0  0  0  0  0  0  0
   11.6877   11.9190    6.0395 C   0  0  0  0  0  0  0  0  0  0  0  0
   11.2384   14.0008    4.9402 O   0  0  0  0  0  0  0  0  0  0  0  0
  1  2  1  0  0  0  0
  1  3  1  0  0  0  0
  1  4  1  0  0  0  0
M  END
>  <CHROM.1>
11.35672253,12.67535816,4.86207409,2.70310419,-1.33657610,0.44116403

>  <Name>
ligand

>  <RI>
0

>  <Rbt.Current_Directory>
/home/itssahil/PROJECTS/Mol_Feturizer/New_Systems/rnas/4FEN

>  <Rbt.Executable>
rbdock ($Id: //depot/dev/client3/rdock/2013.1/src/exe/rbdock.cxx#4 $)

>  <Rbt.Library>
libRbt.so (2013.1, Build901 2013/11/27)

>  <Rbt.Parameter_File>
/export/apps/rDock/src/rDock_2013.1_src/data/scripts/dock_solv.prm

>  <Rbt.Receptor>
prm/blind_docking_20.prm

>  <SCORE>
-5.45591

>  <SCORE.INTER>
-5.45591

>  <SCORE.INTER.CONST>
1

>  <SCORE.INTER.POLAR>
0

>  <SCORE.INTER.ROT>
0

>  <SCORE.INTER.SOLV>
1.64637

>  <SCORE.INTER.VDW>
-7.78606

>  <SCORE.INTER.norm>
-1.36398

>  <SCORE.INTRA>
0

>  <SCORE.INTRA.DIHEDRAL>
0

>  <SCORE.INTRA.DIHEDRAL.0>
0

>  <SCORE.INTRA.POLAR>
0

>  <SCORE.INTRA.POLAR.0>
0

>  <SCORE.INTRA.REPUL>
0

>  <SCORE.INTRA.REPUL.0>
0

>  <SCORE.INTRA.SOLV>
0

>  <SCORE.INTRA.SOLV.lig_0>
0.449748

>  <SCORE.INTRA.VDW>
0

>  <SCORE.INTRA.VDW.0>
0

>  <SCORE.INTRA.norm>
0

>  <SCORE.RESTR>
0

>  <SCORE.RESTR.CAVITY>
0

>  <SCORE.RESTR.norm>
0

>  <SCORE.SYSTEM>
0

>  <SCORE.SYSTEM.CONST>
0

>  <SCORE.SYSTEM.DIHEDRAL>
0

>  <SCORE.SYSTEM.SOLV>
0

>  <SCORE.SYSTEM.norm>
0

>  <SCORE.heavy>
4

>  <SCORE.norm>
-1.36398

>  <RMSD>
26.260

$$$$
ligand
 OpenBabel11021811493D
libRbt.so/2013.1/901 2013/11/27
  4  3  0  0  0  0  0  0  0  0999 V2000
   11.3316   12.7071    4.7828 C   0  0  0  0  0  0  0  0  0  0  0  0
   11.0938   12.0306    3.7579 O   0  0  0  0  0  0  0  0  0  0  0  0
   11.7281   11.9283    6.0301 C   0  0  0  0  0  0  0  0  0  0  0  0
   11.2817   14.0074    4.9244 O   0  0  0  0  0  0  0  0  0  0  0  0
  1  2  1  0  0  0  0
  1  3  1  0  0  0  0
  1  4  1  0  0  0  0
M  END
>  <CHROM.1>
11.35460912,12.67783408,4.86104612,2.51202746,-1.29382410,0.24103739

>  <Name>
ligand

>  <RI>
0

>  <Rbt.Current_Directory>
/home/itssahil/PROJECTS/Mol_Feturizer/New_Systems/rnas/4FEN

>  <Rbt.Executable>
rbdock ($Id: //depot/dev/client3/rdock/2013.1/src/exe/rbdock.cxx#4 $)

>  <Rbt.Library>
libRbt.so (2013.1, Build901 2013/11/27)

>  <Rbt.Parameter_File>
/export/apps/rDock/src/rDock_2013.1_src/data/scripts/dock_solv.prm

>  <Rbt.Receptor>
prm/blind_docking_20.prm

>  <SCORE>
-5.45931

>  <SCORE.INTER>
-5.45931

>  <SCORE.INTER.CONST>
1

>  <SCORE.INTER.POLAR>
0

>  <SCORE.INTER.ROT>
0

>  <SCORE.INTER.SOLV>
1.66291

>  <SCORE.INTER.VDW>
-7.79384

>  <SCORE.INTER.norm>
-1.36483

>  <SCORE.INTRA>
0

>  <SCORE.INTRA.DIHEDRAL>
0

>  <SCORE.INTRA.DIHEDRAL.0>
0

>  <SCORE.INTRA.POLAR>
0

>  <SCORE.INTRA.POLAR.0>
0

>  <SCORE.INTRA.REPUL>
0

>  <SCORE.INTRA.REPUL.0>
0

>  <SCORE.INTRA.SOLV>
0

>  <SCORE.INTRA.SOLV.lig_0>
0.449748

>  <SCORE.INTRA.VDW>
0

>  <SCORE.INTRA.VDW.0>
0

>  <SCORE.INTRA.norm>
0

>  <SCORE.RESTR>
0

>  <SCORE.RESTR.CAVITY>
0

>  <SCORE.RESTR.norm>
0

>  <SCORE.SYSTEM>
0

>  <SCORE.SYSTEM.CONST>
0

>  <SCORE.SYSTEM.DIHEDRAL>
0

>  <SCORE.SYSTEM.SOLV>
0

>  <SCORE.SYSTEM.norm>
0

>  <SCORE.heavy>
4

>  <SCORE.norm>
-1.36483

>  <RMSD>
26.261

$$$$
ligand
 OpenBabel11021811493D
libRbt.so/2013.1/901 2013/11/27
  4  3  0  0  0  0  0  0  0  0999 V2000
   11.3353   12.7076    4.7647 C   0  0  0  0  0  0  0  0  0  0  0  0
   11.1502   12.0239    3.7337 O   0  0  0  0  0  0  0  0  0  0  0  0
   11.7309   11.9431    6.0210 C   0  0  0  0  0  0  0  0  0  0  0  0
   11.2304   14.0047    4.9058 O   0  0  0  0  0  0  0  0  0  0  0  0
  1  2  1  0  0  0  0
  1  3  1  0  0  0  0
  1  4  1  0  0  0  0
M  END
>  <CHROM.1>
11.35743922,12.67913585,4.84343820,2.68192808,-1.30507922,0.40585234

>  <Name>
ligand

>  <RI>
0

>  <Rbt.Current_Directory>
/home/itssahil/PROJECTS/Mol_Feturizer/New_Systems/rnas/4FEN

>  <Rbt.Executable>
rbdock ($Id: //depot/dev/client3/rdock/2013.1/src/exe/rbdock.cxx#4 $)

>  <Rbt.Library>
libRbt.so (2013.1, Build901 2013/11/27)

>  <Rbt.Parameter_File>
/export/apps/rDock/src/rDock_2013.1_src/data/scripts/dock_solv.prm

>  <Rbt.Receptor>
prm/blind_docking_100.prm

>  <SCORE>
-5.45031

>  <SCORE.INTER>
-5.45031

>  <SCORE.INTER.CONST>
1

>  <SCORE.INTER.POLAR>
0

>  <SCORE.INTER.ROT>
0

>  <SCORE.INTER.SOLV>
1.66246

>  <SCORE.INTER.VDW>
-7.78769

>  <SCORE.INTER.norm>
-1.36258

>  <SCORE.INTRA>
0

>  <SCORE.INTRA.DIHEDRAL>
0

>  <SCORE.INTRA.DIHEDRAL.0>
0

>  <SCORE.INTRA.POLAR>
0

>  <SCORE.INTRA.POLAR.0>
0

>  <SCORE.INTRA.REPUL>
0

>  <SCORE.INTRA.REPUL.0>
0

>  <SCORE.INTRA.SOLV>
0

>  <SCORE.INTRA.SOLV.lig_0>
0.449748

>  <SCORE.INTRA.VDW>
0

>  <SCORE.INTRA.VDW.0>
0

>  <SCORE.INTRA.norm>
0

>  <SCORE.RESTR>
0

>  <SCORE.RESTR.CAVITY>
0

>  <SCORE.RESTR.norm>
0

>  <SCORE.SYSTEM>
0

>  <SCORE.SYSTEM.CONST>
0

>  <SCORE.SYSTEM.DIHEDRAL>
0

>  <SCORE.SYSTEM.SOLV>
0

>  <SCORE.SYSTEM.norm>
0

>  <SCORE.heavy>
4

>  <SCORE.norm>
-1.36258

>  <RMSD>
26.262

$$$$
ligand
 OpenBabel11021811493D
libRbt.so/2013.1/901 2013/11/27
  4  3  0  0  0  0  0  0  0  0999 V2000
   11.3210   12.7326    4.8340 C   0  0  0  0  0  0  0  0  0  0  0  0
   11.2064   13.9729    4.9487 O   0  0  0  0  0  0  0  0  0  0  0  0
   11.7280   11.9722    6.0892 C   0  0  0  0  0  0  0  0  0  0  0  0
   11.1372   11.9977    3.7666 O   0  0  0  0  0  0  0  0  0  0  0  0
  1  2  1  0  0  0  0
  1  3  1  0  0  0  0
  1  4  1  0  0  0  0
M  END
>  <CHROM.1>
11.34377396,12.67592234,4.89545620,2.92715272,1.29908063,-2.71036901

>  <Name>
ligand

>  <RI>
0

>  <Rbt.Current_Directory>
/home/itssahil/PROJECTS/Mol_Feturizer/New_Systems/rnas/4FEN

>  <Rbt.Executable>
rbdock ($Id: //depot/dev/client3/rdock/2013.1/src/exe/rbdock.cxx#4 $)

>  <Rbt.Library>
libRbt.so (2013.1, Build901 2013/11/27)

>  <Rbt.Parameter_File>
/export/apps/rDock/src/rDock_2013.1_src/data/scripts/dock_solv.prm

>  <Rbt.Receptor>
prm/blind_docking_40.prm

>  <SCORE>
-5.40919

>  <SCORE.INTER>
-5.40919

>  <SCORE.INTER.CONST>
1

>  <SCORE.INTER.POLAR>
0

>  <SCORE.INTER.ROT>
0

>  <SCORE.INTER.SOLV>
1.63766

>  <SCORE.INTER.VDW>
-7.75202

>  <SCORE.INTER.norm>
-1.3523

>  <SCORE.INTRA>
0

>  <SCORE.INTRA.DIHEDRAL>
0

>  <SCORE.INTRA.DIHEDRAL.0>
0

>  <SCORE.INTRA.POLAR>
0

>  <SCORE.INTRA.POLAR.0>
0

>  <SCORE.INTRA.REPUL>
0

>  <SCORE.INTRA.REPUL.0>
0

>  <SCORE.INTRA.SOLV>
0

>  <SCORE.INTRA.SOLV.lig_0>
0.449748

>  <SCORE.INTRA.VDW>
0

>  <SCORE.INTRA.VDW.0>
0

>  <SCORE.INTRA.norm>
0

>  <SCORE.RESTR>
0

>  <SCORE.RESTR.CAVITY>
0

>  <SCORE.RESTR.norm>
0

>  <SCORE.SYSTEM>
0

>  <SCORE.SYSTEM.CONST>
0

>  <SCORE.SYSTEM.DIHEDRAL>
0

>  <SCORE.SYSTEM.SOLV>
0

>  <SCORE.SYSTEM.norm>
0

>  <SCORE.heavy>
4

>  <SCORE.norm>
-1.3523

>  <RMSD>
26.263

$$$$
ligand
 OpenBabel11021811493D
libRbt.so/2013.1/901 2013/11/27
  4  3  0  0  0  0  0  0  0  0999 V2000
   11.3337   12.6928    4.7853 C   0  0  0  0  0  0  0  0  0  0  0  0
   11.1643   12.0318    3.7369 O   0  0  0  0  0  0  0  0  0  0  0  0
   11.7580   11.9070    6.0190 C   0  0  0  0  0  0  0  0  0  0  0  0
   11.1908   13.9818    4.9617 O   0  0  0  0  0  0  0  0  0  0  0  0
  1  2  1  0  0  0  0
  1  3  1  0  0  0  0
  1  4  1  0  0  0  0
M  END
>  <CHROM.1>
11.35710066,12.66289176,4.86315759,2.77383598,-1.28773704,0.52126466

>  <Name>
ligand

>  <RI>
0

>  <Rbt.Current_Directory>
/home/itssahil/PROJECTS/Mol_Feturizer/New_Systems/rnas/4FEN

>  <Rbt.Executable>
rbdock ($Id: //depot/dev/client3/rdock/2013.1/src/exe/rbdock.cxx#4 $)

>  <Rbt.Library>
libRbt.so (2013.1, Build901 2013/11/27)

>  <Rbt.Parameter_File>
/export/apps/rDock/src/rDock_2013.1_src/data/scripts/dock_solv.prm

>  <Rbt.Receptor>
prm/blind_docking_60.prm

>  <SCORE>
-5.44611

>  <SCORE.INTER>
-5.44611

>  <SCORE.INTER.CONST>
1

>  <SCORE.INTER.POLAR>
0

>  <SCORE.INTER.ROT>
0

>  <SCORE.INTER.SOLV>
1.63599

>  <SCORE.INTER.VDW>
-7.77607

>  <SCORE.INTER.norm>
-1.36153

>  <SCORE.INTRA>
0

>  <SCORE.INTRA.DIHEDRAL>
0

>  <SCORE.INTRA.DIHEDRAL.0>
0

>  <SCORE.INTRA.POLAR>
0

>  <SCORE.INTRA.POLAR.0>
0

>  <SCORE.INTRA.REPUL>
0

>  <SCORE.INTRA.REPUL.0>
0

>  <SCORE.INTRA.SOLV>
0

>  <SCORE.INTRA.SOLV.lig_0>
0.449748

>  <SCORE.INTRA.VDW>
0

>  <SCORE.INTRA.VDW.0>
0

>  <SCORE.INTRA.norm>
0

>  <SCORE.RESTR>
0

>  <SCORE.RESTR.CAVITY>
0

>  <SCORE.RESTR.norm>
0

>  <SCORE.SYSTEM>
0

>  <SCORE.SYSTEM.CONST>
0

>  <SCORE.SYSTEM.DIHEDRAL>
0

>  <SCORE.SYSTEM.SOLV>
0

>  <SCORE.SYSTEM.norm>
0

>  <SCORE.heavy>
4

>  <SCORE.norm>
-1.36153

>  <RMSD>
26.263

$$$$
ligand
 OpenBabel11021811493D
libRbt.so/2013.1/901 2013/11/27
  4  3  0  0  0  0  0  0  0  0999 V2000
   11.3228   12.7137    4.7935 C   0  0  0  0  0  0  0  0  0  0  0  0
   11.0819   12.0319    3.7728 O   0  0  0  0  0  0  0  0  0  0  0  0
   11.7178   11.9410    6.0450 C   0  0  0  0  0  0  0  0  0  0  0  0
   11.2772   14.0149    4.9274 O   0  0  0  0  0  0  0  0  0  0  0  0
  1  2  1  0  0  0  0
  1  3  1  0  0  0  0
  1  4  1  0  0  0  0
M  END
>  <CHROM.1>
11.34574172,12.68480176,4.87186341,2.49976633,-1.29369854,0.22331199

>  <Name>
ligand

>  <RI>
0

>  <Rbt.Current_Directory>
/home/itssahil/PROJECTS/Mol_Feturizer/New_Systems/rnas/4FEN

>  <Rbt.Executable>
rbdock ($Id: //depot/dev/client3/rdock/2013.1/src/exe/rbdock.cxx#4 $)

>  <Rbt.Library>
libRbt.so (2013.1, Build901 2013/11/27)

>  <Rbt.Parameter_File>
/export/apps/rDock/src/rDock_2013.1_src/data/scripts/dock_solv.prm

>  <Rbt.Receptor>
prm/blind_docking_80.prm

>  <SCORE>
-5.46063

>  <SCORE.INTER>
-5.46063

>  <SCORE.INTER.CONST>
1

>  <SCORE.INTER.POLAR>
0

>  <SCORE.INTER.ROT>
0

>  <SCORE.INTER.SOLV>
1.66239

>  <SCORE.INTER.VDW>
-7.79455

>  <SCORE.INTER.norm>
-1.36516

>  <SCORE.INTRA>
0

>  <SCORE.INTRA.DIHEDRAL>
0

>  <SCORE.INTRA.DIHEDRAL.0>
0

>  <SCORE.INTRA.POLAR>
0

>  <SCORE.INTRA.POLAR.0>
0

>  <SCORE.INTRA.REPUL>
0

>  <SCORE.INTRA.REPUL.0>
0

>  <SCORE.INTRA.SOLV>
0

>  <SCORE.INTRA.SOLV.lig_0>
0.449748

>  <SCORE.INTRA.VDW>
0

>  <SCORE.INTRA.VDW.0>
0

>  <SCORE.INTRA.norm>
0

>  <SCORE.RESTR>
0

>  <SCORE.RESTR.CAVITY>
0

>  <SCORE.RESTR.norm>
0

>  <SCORE.SYSTEM>
0

>  <SCORE.SYSTEM.CONST>
0

>  <SCORE.SYSTEM.DIHEDRAL>
0

>  <SCORE.SYSTEM.SOLV>
0

>  <SCORE.SYSTEM.norm>
0

>  <SCORE.heavy>
4

>  <SCORE.norm>
-1.36516

>  <RMSD>
26.265

$$$$
ligand
 OpenBabel11021811493D
libRbt.so/2013.1/901 2013/11/27
  4  3  0  0  0  0  0  0  0  0999 V2000
   11.3199   12.7149    4.7992 C   0  0  0  0  0  0  0  0  0  0  0  0
   11.0731   12.0285    3.7829 O   0  0  0  0  0  0  0  0  0  0  0  0
   11.7215   11.9477    6.0520 C   0  0  0  0  0  0  0  0  0  0  0  0
   11.2755   14.0167    4.9274 O   0  0  0  0  0  0  0  0  0  0  0  0
  1  2  1  0  0  0  0
  1  3  1  0  0  0  0
  1  4  1  0  0  0  0
M  END
>  <CHROM.1>
11.34325896,12.68631466,4.87754296,2.49404690,-1.28842520,0.21323645

>  <Name>
ligand

>  <RI>
0

>  <Rbt.Current_Directory>
/home/itssahil/PROJECTS/Mol_Feturizer/New_Systems/rnas/4FEN

>  <Rbt.Executable>
rbdock ($Id: //depot/dev/client3/rdock/2013.1/src/exe/rbdock.cxx#4 $)

>  <Rbt.Library>
libRbt.so (2013.1, Build901 2013/11/27)

>  <Rbt.Parameter_File>
/export/apps/rDock/src/rDock_2013.1_src/data/scripts/dock_solv.prm

>  <Rbt.Receptor>
prm/blind_docking_100.prm

>  <SCORE>
-5.46068

>  <SCORE.INTER>
-5.46068

>  <SCORE.INTER.CONST>
1

>  <SCORE.INTER.POLAR>
0

>  <SCORE.INTER.ROT>
0

>  <SCORE.INTER.SOLV>
1.66298

>  <SCORE.INTER.VDW>
-7.79478

>  <SCORE.INTER.norm>
-1.36517

>  <SCORE.INTRA>
0

>  <SCORE.INTRA.DIHEDRAL>
0

>  <SCORE.INTRA.DIHEDRAL.0>
0

>  <SCORE.INTRA.POLAR>
0

>  <SCORE.INTRA.POLAR.0>
0

>  <SCORE.INTRA.REPUL>
0

>  <SCORE.INTRA.REPUL.0>
0

>  <SCORE.INTRA.SOLV>
0

>  <SCORE.INTRA.SOLV.lig_0>
0.449748

>  <SCORE.INTRA.VDW>
0

>  <SCORE.INTRA.VDW.0>
0

>  <SCORE.INTRA.norm>
0

>  <SCORE.RESTR>
0

>  <SCORE.RESTR.CAVITY>
0

>  <SCORE.RESTR.norm>
0

>  <SCORE.SYSTEM>
0

>  <SCORE.SYSTEM.CONST>
0

>  <SCORE.SYSTEM.DIHEDRAL>
0

>  <SCORE.SYSTEM.SOLV>
0

>  <SCORE.SYSTEM.norm>
0

>  <SCORE.heavy>
4

>  <SCORE.norm>
-1.36517

>  <RMSD>
26.266

$$$$
ligand
 OpenBabel11021811493D
libRbt.so/2013.1/901 2013/11/27
  4  3  0  0  0  0  0  0  0  0999 V2000
   11.3321   12.6937    4.7762 C   0  0  0  0  0  0  0  0  0  0  0  0
   11.1535   12.0262    3.7335 O   0  0  0  0  0  0  0  0  0  0  0  0
   11.6793   11.9057    6.0324 C   0  0  0  0  0  0  0  0  0  0  0  0
   11.2569   13.9914    4.9297 O   0  0  0  0  0  0  0  0  0  0  0  0
  1  2  1  0  0  0  0
  1  3  1  0  0  0  0
  1  4  1  0  0  0  0
M  END
>  <CHROM.1>
11.35172485,12.66383930,4.85510491,2.62099073,-1.33574956,0.35798513

>  <Name>
ligand

>  <RI>
0

>  <Rbt.Current_Directory>
/home/itssahil/PROJECTS/Mol_Feturizer/New_Systems/rnas/4FEN

>  <Rbt.Executable>
rbdock ($Id: //depot/dev/client3/rdock/2013.1/src/exe/rbdock.cxx#4 $)

>  <Rbt.Library>
libRbt.so (2013.1, Build901 2013/11/27)

>  <Rbt.Parameter_File>
/export/apps/rDock/src/rDock_2013.1_src/data/scripts/dock_solv.prm

>  <Rbt.Receptor>
prm/blind_docking_100.prm

>  <SCORE>
-5.46036

>  <SCORE.INTER>
-5.46036

>  <SCORE.INTER.CONST>
1

>  <SCORE.INTER.POLAR>
0

>  <SCORE.INTER.ROT>
0

>  <SCORE.INTER.SOLV>
1.64859

>  <SCORE.INTER.VDW>
-7.78977

>  <SCORE.INTER.norm>
-1.36509

>  <SCORE.INTRA>
0

>  <SCORE.INTRA.DIHEDRAL>
0

>  <SCORE.INTRA.DIHEDRAL.0>
0

>  <SCORE.INTRA.POLAR>
0

>  <SCORE.INTRA.POLAR.0>
0

>  <SCORE.INTRA.REPUL>
0

>  <SCORE.INTRA.REPUL.0>
0

>  <SCORE.INTRA.SOLV>
0

>  <SCORE.INTRA.SOLV.lig_0>
0.449748

>  <SCORE.INTRA.VDW>
0

>  <SCORE.INTRA.VDW.0>
0

>  <SCORE.INTRA.norm>
0

>  <SCORE.RESTR>
0

>  <SCORE.RESTR.CAVITY>
0

>  <SCORE.RESTR.norm>
0

>  <SCORE.SYSTEM>
0

>  <SCORE.SYSTEM.CONST>
0

>  <SCORE.SYSTEM.DIHEDRAL>
0

>  <SCORE.SYSTEM.SOLV>
0

>  <SCORE.SYSTEM.norm>
0

>  <SCORE.heavy>
4

>  <SCORE.norm>
-1.36509

>  <RMSD>
26.269

$$$$
ligand
 OpenBabel11021811493D
libRbt.so/2013.1/901 2013/11/27
  4  3  0  0  0  0  0  0  0  0999 V2000
   11.3197   12.7114    4.7956 C   0  0  0  0  0  0  0  0  0  0  0  0
   11.0766   12.0270    3.7771 O   0  0  0  0  0  0  0  0  0  0  0  0
   11.7007   11.9411    6.0529 C   0  0  0  0  0  0  0  0  0  0  0  0
   11.2871   14.0137    4.9227 O   0  0  0  0  0  0  0  0  0  0  0  0
  1  2  1  0  0  0  0
  1  3  1  0  0  0  0
  1  4  1  0  0  0  0
M  END
>  <CHROM.1>
11.34200625,12.68267741,4.87419274,2.46566218,-1.30055452,0.18538664

>  <Name>
ligand

>  <RI>
0

>  <Rbt.Current_Directory>
/home/itssahil/PROJECTS/Mol_Feturizer/New_Systems/rnas/4FEN

>  <Rbt.Executable>
rbdock ($Id: //depot/dev/client3/rdock/2013.1/src/exe/rbdock.cxx#4 $)

>  <Rbt.Library>
libRbt.so (2013.1, Build901 2013/11/27)

>  <Rbt.Parameter_File>
/export/apps/rDock/src/rDock_2013.1_src/data/scripts/dock_solv.prm

>  <Rbt.Receptor>
prm/blind_docking_100.prm

>  <SCORE>
-5.45682

>  <SCORE.INTER>
-5.45682

>  <SCORE.INTER.CONST>
1

>  <SCORE.INTER.POLAR>
0

>  <SCORE.INTER.ROT>
0

>  <SCORE.INTER.SOLV>
1.66249

>  <SCORE.INTER.VDW>
-7.79204

>  <SCORE.INTER.norm>
-1.36421

>  <SCORE.INTRA>
0

>  <SCORE.INTRA.DIHEDRAL>
0

>  <SCORE.INTRA.DIHEDRAL.0>
0

>  <SCORE.INTRA.POLAR>
0

>  <SCORE.INTRA.POLAR.0>
0

>  <SCORE.INTRA.REPUL>
0

>  <SCORE.INTRA.REPUL.0>
0

>  <SCORE.INTRA.SOLV>
0

>  <SCORE.INTRA.SOLV.lig_0>
0.449748

>  <SCORE.INTRA.VDW>
0

>  <SCORE.INTRA.VDW.0>
0

>  <SCORE.INTRA.norm>
0

>  <SCORE.RESTR>
0

>  <SCORE.RESTR.CAVITY>
0

>  <SCORE.RESTR.norm>
0

>  <SCORE.SYSTEM>
0

>  <SCORE.SYSTEM.CONST>
0

>  <SCORE.SYSTEM.DIHEDRAL>
0

>  <SCORE.SYSTEM.SOLV>
0

>  <SCORE.SYSTEM.norm>
0

>  <SCORE.heavy>
4

>  <SCORE.norm>
-1.36421

>  <RMSD>
26.269

$$$$
ligand
 OpenBabel11021811493D
libRbt.so/2013.1/901 2013/11/27
  4  3  0  0  0  0  0  0  0  0999 V2000
   11.3237   12.7018    4.7853 C   0  0  0  0  0  0  0  0  0  0  0  0
   11.0764   12.0233    3.7640 O   0  0  0  0  0  0  0  0  0  0  0  0
   11.7162   11.9246    6.0349 C   0  0  0  0  0  0  0  0  0  0  0  0
   11.2869   14.0031    4.9214 O   0  0  0  0  0  0  0  0  0  0  0  0
  1  2  1  0  0  0  0
  1  3  1  0  0  0  0
  1  4  1  0  0  0  0
M  END
>  <CHROM.1>
11.34665913,12.67267028,4.86361677,2.47494347,-1.29314219,0.20100761

>  <Name>
ligand

>  <RI>
0

>  <Rbt.Current_Directory>
/home/itssahil/PROJECTS/Mol_Feturizer/New_Systems/rnas/4FEN

>  <Rbt.Executable>
rbdock ($Id: //depot/dev/client3/rdock/2013.1/src/exe/rbdock.cxx#4 $)

>  <Rbt.Library>
libRbt.so (2013.1, Build901 2013/11/27)

>  <Rbt.Parameter_File>
/export/apps/rDock/src/rDock_2013.1_src/data/scripts/dock_solv.prm

>  <Rbt.Receptor>
prm/blind_docking_40.prm

>  <SCORE>
-5.45584

>  <SCORE.INTER>
-5.45584

>  <SCORE.INTER.CONST>
1

>  <SCORE.INTER.POLAR>
0

>  <SCORE.INTER.ROT>
0

>  <SCORE.INTER.SOLV>
1.66158

>  <SCORE.INTER.VDW>
-7.79109

>  <SCORE.INTER.norm>
-1.36396

>  <SCORE.INTRA>
0

>  <SCORE.INTRA.DIHEDRAL>
0

>  <SCORE.INTRA.DIHEDRAL.0>
0

>  <SCORE.INTRA.POLAR>
0

>  <SCORE.INTRA.POLAR.0>
0

>  <SCORE.INTRA.REPUL>
0

>  <SCORE.INTRA.REPUL.0>
0

>  <SCORE.INTRA.SOLV>
0

>  <SCORE.INTRA.SOLV.lig_0>
0.449748

>  <SCORE.INTRA.VDW>
0

>  <SCORE.INTRA.VDW.0>
0

>  <SCORE.INTRA.norm>
0

>  <SCORE.RESTR>
0

>  <SCORE.RESTR.CAVITY>
0

>  <SCORE.RESTR.norm>
0

>  <SCORE.SYSTEM>
0

>  <SCORE.SYSTEM.CONST>
0

>  <SCORE.SYSTEM.DIHEDRAL>
0

>  <SCORE.SYSTEM.SOLV>
0

>  <SCORE.SYSTEM.norm>
0

>  <SCORE.heavy>
4

>  <SCORE.norm>
-1.36396

>  <RMSD>
26.270

$$$$
ligand
 OpenBabel11021811493D
libRbt.so/2013.1/901 2013/11/27
  4  3  0  0  0  0  0  0  0  0999 V2000
   11.3238   12.7224    4.8016 C   0  0  0  0  0  0  0  0  0  0  0  0
   11.2379   13.9634    4.9331 O   0  0  0  0  0  0  0  0  0  0  0  0
   11.7211   11.9366    6.0442 C   0  0  0  0  0  0  0  0  0  0  0  0
   11.1169   12.0059    3.7259 O   0  0  0  0  0  0  0  0  0  0  0  0
  1  2  1  0  0  0  0
  1  3  1  0  0  0  0
  1  4  1  0  0  0  0
M  END
>  <CHROM.1>
11.34565193,12.66446370,4.86217316,3.01418934,1.30204781,-2.78117126

>  <Name>
ligand

>  <RI>
0

>  <Rbt.Current_Directory>
/home/itssahil/PROJECTS/Mol_Feturizer/New_Systems/rnas/4FEN

>  <Rbt.Executable>
rbdock ($Id: //depot/dev/client3/rdock/2013.1/src/exe/rbdock.cxx#4 $)

>  <Rbt.Library>
libRbt.so (2013.1, Build901 2013/11/27)

>  <Rbt.Parameter_File>
/export/apps/rDock/src/rDock_2013.1_src/data/scripts/dock_solv.prm

>  <Rbt.Receptor>
prm/blind_docking_20.prm

>  <SCORE>
-5.42888

>  <SCORE.INTER>
-5.42888

>  <SCORE.INTER.CONST>
1

>  <SCORE.INTER.POLAR>
0

>  <SCORE.INTER.ROT>
0

>  <SCORE.INTER.SOLV>
1.6419

>  <SCORE.INTER.VDW>
-7.76656

>  <SCORE.INTER.norm>
-1.35722

>  <SCORE.INTRA>
0

>  <SCORE.INTRA.DIHEDRAL>
0

>  <SCORE.INTRA.DIHEDRAL.0>
0

>  <SCORE.INTRA.POLAR>
0

>  <SCORE.INTRA.POLAR.0>
0

>  <SCORE.INTRA.REPUL>
0

>  <SCORE.INTRA.REPUL.0>
0

>  <SCORE.INTRA.SOLV>
0

>  <SCORE.INTRA.SOLV.lig_0>
0.449748

>  <SCORE.INTRA.VDW>
0

>  <SCORE.INTRA.VDW.0>
0

>  <SCORE.INTRA.norm>
0

>  <SCORE.RESTR>
0

>  <SCORE.RESTR.CAVITY>
0

>  <SCORE.RESTR.norm>
0

>  <SCORE.SYSTEM>
0

>  <SCORE.SYSTEM.CONST>
0

>  <SCORE.SYSTEM.DIHEDRAL>
0

>  <SCORE.SYSTEM.SOLV>
0

>  <SCORE.SYSTEM.norm>
0

>  <SCORE.heavy>
4

>  <SCORE.norm>
-1.35722

>  <RMSD>
26.272

$$$$
ligand
 OpenBabel11021811493D
libRbt.so/2013.1/901 2013/11/27
  4  3  0  0  0  0  0  0  0  0999 V2000
   11.3941   11.9610    4.9936 C   0  0  0  0  0  0  0  0  0  0  0  0
   11.6913   10.9542    5.6739 O   0  0  0  0  0  0  0  0  0  0  0  0
   11.1696   13.2554    5.7641 C   0  0  0  0  0  0  0  0  0  0  0  0
   11.2478   12.0469    3.6958 O   0  0  0  0  0  0  0  0  0  0  0  0
  1  2  1  0  0  0  0
  1  3  1  0  0  0  0
  1  4  1  0  0  0  0
M  END
>  <CHROM.1>
11.37782650,12.04108373,5.02245688,-1.24373255,-1.32577301,1.17301281

>  <Name>
ligand

>  <RI>
0

>  <Rbt.Current_Directory>
/home/itssahil/PROJECTS/Mol_Feturizer/New_Systems/rnas/4FEN

>  <Rbt.Executable>
rbdock ($Id: //depot/dev/client3/rdock/2013.1/src/exe/rbdock.cxx#4 $)

>  <Rbt.Library>
libRbt.so (2013.1, Build901 2013/11/27)

>  <Rbt.Parameter_File>
/export/apps/rDock/src/rDock_2013.1_src/data/scripts/dock_solv.prm

>  <Rbt.Receptor>
prm/blind_docking_40.prm

>  <SCORE>
-5.54172

>  <SCORE.INTER>
-5.54172

>  <SCORE.INTER.CONST>
1

>  <SCORE.INTER.POLAR>
0

>  <SCORE.INTER.ROT>
0

>  <SCORE.INTER.SOLV>
1.7708

>  <SCORE.INTER.VDW>
-7.88475

>  <SCORE.INTER.norm>
-1.38543

>  <SCORE.INTRA>
0

>  <SCORE.INTRA.DIHEDRAL>
0

>  <SCORE.INTRA.DIHEDRAL.0>
0

>  <SCORE.INTRA.POLAR>
0

>  <SCORE.INTRA.POLAR.0>
0

>  <SCORE.INTRA.REPUL>
0

>  <SCORE.INTRA.REPUL.0>
0

>  <SCORE.INTRA.SOLV>
0

>  <SCORE.INTRA.SOLV.lig_0>
0.449748

>  <SCORE.INTRA.VDW>
0

>  <SCORE.INTRA.VDW.0>
0

>  <SCORE.INTRA.norm>
0

>  <SCORE.RESTR>
0

>  <SCORE.RESTR.CAVITY>
0

>  <SCORE.RESTR.norm>
0

>  <SCORE.SYSTEM>
0

>  <SCORE.SYSTEM.CONST>
0

>  <SCORE.SYSTEM.DIHEDRAL>
0

>  <SCORE.SYSTEM.SOLV>
0

>  <SCORE.SYSTEM.norm>
0

>  <SCORE.heavy>
4

>  <SCORE.norm>
-1.38543

>  <RMSD>
26.400

$$$$
ligand
 OpenBabel11021811493D
libRbt.so/2013.1/901 2013/11/27
  4  3  0  0  0  0  0  0  0  0999 V2000
   11.3783   11.9604    4.9905 C   0  0  0  0  0  0  0  0  0  0  0  0
   11.6777   10.9398    5.6489 O   0  0  0  0  0  0  0  0  0  0  0  0
   11.2103   13.2505    5.7822 C   0  0  0  0  0  0  0  0  0  0  0  0
   11.1872   12.0642    3.6998 O   0  0  0  0  0  0  0  0  0  0  0  0
  1  2  1  0  0  0  0
  1  3  1  0  0  0  0
  1  4  1  0  0  0  0
M  END
>  <CHROM.1>
11.36485593,12.04048417,5.02077401,-1.41881081,-1.32850178,1.01403417

>  <Name>
ligand

>  <RI>
0

>  <Rbt.Current_Directory>
/home/itssahil/PROJECTS/Mol_Feturizer/New_Systems/rnas/4FEN

>  <Rbt.Executable>
rbdock ($Id: //depot/dev/client3/rdock/2013.1/src/exe/rbdock.cxx#4 $)

>  <Rbt.Library>
libRbt.so (2013.1, Build901 2013/11/27)

>  <Rbt.Parameter_File>
/export/apps/rDock/src/rDock_2013.1_src/data/scripts/dock_solv.prm

>  <Rbt.Receptor>
prm/blind_docking_80.prm

>  <SCORE>
-5.56429

>  <SCORE.INTER>
-5.56429

>  <SCORE.INTER.CONST>
1

>  <SCORE.INTER.POLAR>
0

>  <SCORE.INTER.ROT>
0

>  <SCORE.INTER.SOLV>
1.76983

>  <SCORE.INTER.VDW>
-7.89947

>  <SCORE.INTER.norm>
-1.39107

>  <SCORE.INTRA>
0

>  <SCORE.INTRA.DIHEDRAL>
0

>  <SCORE.INTRA.DIHEDRAL.0>
0

>  <SCORE.INTRA.POLAR>
0

>  <SCORE.INTRA.POLAR.0>
0

>  <SCORE.INTRA.REPUL>
0

>  <SCORE.INTRA.REPUL.0>
0

>  <SCORE.INTRA.SOLV>
0

>  <SCORE.INTRA.SOLV.lig_0>
0.449748

>  <SCORE.INTRA.VDW>
0

>  <SCORE.INTRA.VDW.0>
0

>  <SCORE.INTRA.norm>
0

>  <SCORE.RESTR>
0

>  <SCORE.RESTR.CAVITY>
0

>  <SCORE.RESTR.norm>
0

>  <SCORE.SYSTEM>
0

>  <SCORE.SYSTEM.CONST>
0

>  <SCORE.SYSTEM.DIHEDRAL>
0

>  <SCORE.SYSTEM.SOLV>
0

>  <SCORE.SYSTEM.norm>
0

>  <SCORE.heavy>
4

>  <SCORE.norm>
-1.39107

>  <RMSD>
26.412

$$$$
ligand
 OpenBabel11021811493D
libRbt.so/2013.1/901 2013/11/27
  4  3  0  0  0  0  0  0  0  0999 V2000
   11.3553   12.0106    4.9462 C   0  0  0  0  0  0  0  0  0  0  0  0
   11.1833   12.1419    3.7142 O   0  0  0  0  0  0  0  0  0  0  0  0
   11.2040   13.2707    5.7881 C   0  0  0  0  0  0  0  0  0  0  0  0
   11.6526   10.9230    5.6110 O   0  0  0  0  0  0  0  0  0  0  0  0
  1  2  1  0  0  0  0
  1  3  1  0  0  0  0
  1  4  1  0  0  0  0
M  END
>  <CHROM.1>
11.35074581,12.07231890,5.00685154,0.79111819,1.34216432,-2.10688029

>  <Name>
ligand

>  <RI>
0

>  <Rbt.Current_Directory>
/home/itssahil/PROJECTS/Mol_Feturizer/New_Systems/rnas/4FEN

>  <Rbt.Executable>
rbdock ($Id: //depot/dev/client3/rdock/2013.1/src/exe/rbdock.cxx#4 $)

>  <Rbt.Library>
libRbt.so (2013.1, Build901 2013/11/27)

>  <Rbt.Parameter_File>
/export/apps/rDock/src/rDock_2013.1_src/data/scripts/dock_solv.prm

>  <Rbt.Receptor>
prm/blind_docking_80.prm

>  <SCORE>
-5.5862

>  <SCORE.INTER>
-5.5862

>  <SCORE.INTER.CONST>
1

>  <SCORE.INTER.POLAR>
0

>  <SCORE.INTER.ROT>
0

>  <SCORE.INTER.SOLV>
1.77864

>  <SCORE.INTER.VDW>
-7.91701

>  <SCORE.INTER.norm>
-1.39655

>  <SCORE.INTRA>
0

>  <SCORE.INTRA.DIHEDRAL>
0

>  <SCORE.INTRA.DIHEDRAL.0>
0

>  <SCORE.INTRA.POLAR>
0

>  <SCORE.INTRA.POLAR.0>
0

>  <SCORE.INTRA.REPUL>
0

>  <SCORE.INTRA.REPUL.0>
0

>  <SCORE.INTRA.SOLV>
0

>  <SCORE.INTRA.SOLV.lig_0>
0.449748

>  <SCORE.INTRA.VDW>
0

>  <SCORE.INTRA.VDW.0>
0

>  <SCORE.INTRA.norm>
0

>  <SCORE.RESTR>
0

>  <SCORE.RESTR.CAVITY>
0

>  <SCORE.RESTR.norm>
0

>  <SCORE.SYSTEM>
0

>  <SCORE.SYSTEM.CONST>
0

>  <SCORE.SYSTEM.DIHEDRAL>
0

>  <SCORE.SYSTEM.SOLV>
0

>  <SCORE.SYSTEM.norm>
0

>  <SCORE.heavy>
4

>  <SCORE.norm>
-1.39655

>  <RMSD>
26.421

$$$$
ligand
 OpenBabel11021811493D
libRbt.so/2013.1/901 2013/11/27
  4  3  0  0  0  0  0  0  0  0999 V2000
   11.3712   11.8806    5.0347 C   0  0  0  0  0  0  0  0  0  0  0  0
   11.6045   10.8802    5.7485 O   0  0  0  0  0  0  0  0  0  0  0  0
   11.2024   13.2069    5.7639 C   0  0  0  0  0  0  0  0  0  0  0  0
   11.2504   11.9358    3.7326 O   0  0  0  0  0  0  0  0  0  0  0  0
  1  2  1  0  0  0  0
  1  3  1  0  0  0  0
  1  4  1  0  0  0  0
M  END
>  <CHROM.1>
11.35869808,11.96216401,5.06097580,-1.27274427,-1.38013233,1.11569572

>  <Name>
ligand

>  <RI>
0

>  <Rbt.Current_Directory>
/home/itssahil/PROJECTS/Mol_Feturizer/New_Systems/rnas/4FEN

>  <Rbt.Executable>
rbdock ($Id: //depot/dev/client3/rdock/2013.1/src/exe/rbdock.cxx#4 $)

>  <Rbt.Library>
libRbt.so (2013.1, Build901 2013/11/27)

>  <Rbt.Parameter_File>
/export/apps/rDock/src/rDock_2013.1_src/data/scripts/dock_solv.prm

>  <Rbt.Receptor>
prm/blind_docking_60.prm

>  <SCORE>
-5.55381

>  <SCORE.INTER>
-5.55381

>  <SCORE.INTER.CONST>
1

>  <SCORE.INTER.POLAR>
0

>  <SCORE.INTER.ROT>
0

>  <SCORE.INTER.SOLV>
1.77074

>  <SCORE.INTER.VDW>
-7.89278

>  <SCORE.INTER.norm>
-1.38845

>  <SCORE.INTRA>
0

>  <SCORE.INTRA.DIHEDRAL>
0

>  <SCORE.INTRA.DIHEDRAL.0>
0

>  <SCORE.INTRA.POLAR>
0

>  <SCORE.INTRA.POLAR.0>
0

>  <SCORE.INTRA.REPUL>
0

>  <SCORE.INTRA.REPUL.0>
0

>  <SCORE.INTRA.SOLV>
0

>  <SCORE.INTRA.SOLV.lig_0>
0.449748

>  <SCORE.INTRA.VDW>
0

>  <SCORE.INTRA.VDW.0>
0

>  <SCORE.INTRA.norm>
0

>  <SCORE.RESTR>
0

>  <SCORE.RESTR.CAVITY>
0

>  <SCORE.RESTR.norm>
0

>  <SCORE.SYSTEM>
0

>  <SCORE.SYSTEM.CONST>
0

>  <SCORE.SYSTEM.DIHEDRAL>
0

>  <SCORE.SYSTEM.SOLV>
0

>  <SCORE.SYSTEM.norm>
0

>  <SCORE.heavy>
4

>  <SCORE.norm>
-1.38845

>  <RMSD>
26.431

$$$$
ligand
 OpenBabel11021811493D
libRbt.so/2013.1/901 2013/11/27
  4  3  0  0  0  0  0  0  0  0999 V2000
   11.3617   11.8877    5.0245 C   0  0  0  0  0  0  0  0  0  0  0  0
   11.2116   11.9203    3.7831 O   0  0  0  0  0  0  0  0  0  0  0  0
   11.1986   13.2111    5.7603 C   0  0  0  0  0  0  0  0  0  0  0  0
   11.6449   10.8564    5.7791 O   0  0  0  0  0  0  0  0  0  0  0  0
  1  2  1  0  0  0  0
  1  3  1  0  0  0  0
  1  4  1  0  0  0  0
M  END
>  <CHROM.1>
11.35623947,11.95406943,5.07995828,0.72696254,1.35261723,-2.12425952

>  <Name>
ligand

>  <RI>
0

>  <Rbt.Current_Directory>
/home/itssahil/PROJECTS/Mol_Feturizer/New_Systems/rnas/4FEN

>  <Rbt.Executable>
rbdock ($Id: //depot/dev/client3/rdock/2013.1/src/exe/rbdock.cxx#4 $)

>  <Rbt.Library>
libRbt.so (2013.1, Build901 2013/11/27)

>  <Rbt.Parameter_File>
/export/apps/rDock/src/rDock_2013.1_src/data/scripts/dock_solv.prm

>  <Rbt.Receptor>
prm/blind_docking_40.prm

>  <SCORE>
-5.60133

>  <SCORE.INTER>
-5.60133

>  <SCORE.INTER.CONST>
1

>  <SCORE.INTER.POLAR>
0

>  <SCORE.INTER.ROT>
0

>  <SCORE.INTER.SOLV>
1.76739

>  <SCORE.INTER.VDW>
-7.92335

>  <SCORE.INTER.norm>
-1.40033

>  <SCORE.INTRA>
0

>  <SCORE.INTRA.DIHEDRAL>
0

>  <SCORE.INTRA.DIHEDRAL.0>
0

>  <SCORE.INTRA.POLAR>
0

>  <SCORE.INTRA.POLAR.0>
0

>  <SCORE.INTRA.REPUL>
0

>  <SCORE.INTRA.REPUL.0>
0

>  <SCORE.INTRA.SOLV>
0

>  <SCORE.INTRA.SOLV.lig_0>
0.449748

>  <SCORE.INTRA.VDW>
0

>  <SCORE.INTRA.VDW.0>
0

>  <SCORE.INTRA.norm>
0

>  <SCORE.RESTR>
0

>  <SCORE.RESTR.CAVITY>
0

>  <SCORE.RESTR.norm>
0

>  <SCORE.SYSTEM>
0

>  <SCORE.SYSTEM.CONST>
0

>  <SCORE.SYSTEM.DIHEDRAL>
0

>  <SCORE.SYSTEM.SOLV>
0

>  <SCORE.SYSTEM.norm>
0

>  <SCORE.heavy>
4

>  <SCORE.norm>
-1.40033

>  <RMSD>
26.432

$$$$
ligand
 OpenBabel11021811493D
libRbt.so/2013.1/901 2013/11/27
  4  3  0  0  0  0  0  0  0  0999 V2000
   11.3553   11.9182    5.0014 C   0  0  0  0  0  0  0  0  0  0  0  0
   11.2055   11.9844    3.7612 O   0  0  0  0  0  0  0  0  0  0  0  0
   11.2051   13.2236    5.7713 C   0  0  0  0  0  0  0  0  0  0  0  0
   11.6284   10.8650    5.7289 O   0  0  0  0  0  0  0  0  0  0  0  0
  1  2  1  0  0  0  0
  1  3  1  0  0  0  0
  1  4  1  0  0  0  0
M  END
>  <CHROM.1>
11.35046455,11.98316468,5.05850980,0.75164545,1.36088887,-2.12244542

>  <Name>
ligand

>  <RI>
0

>  <Rbt.Current_Directory>
/home/itssahil/PROJECTS/Mol_Feturizer/New_Systems/rnas/4FEN

>  <Rbt.Executable>
rbdock ($Id: //depot/dev/client3/rdock/2013.1/src/exe/rbdock.cxx#4 $)

>  <Rbt.Library>
libRbt.so (2013.1, Build901 2013/11/27)

>  <Rbt.Parameter_File>
/export/apps/rDock/src/rDock_2013.1_src/data/scripts/dock_solv.prm

>  <Rbt.Receptor>
prm/blind_docking_20.prm

>  <SCORE>
-5.59952

>  <SCORE.INTER>
-5.59952

>  <SCORE.INTER.CONST>
1

>  <SCORE.INTER.POLAR>
0

>  <SCORE.INTER.ROT>
0

>  <SCORE.INTER.SOLV>
1.76863

>  <SCORE.INTER.VDW>
-7.92256

>  <SCORE.INTER.norm>
-1.39988

>  <SCORE.INTRA>
0

>  <SCORE.INTRA.DIHEDRAL>
0

>  <SCORE.INTRA.DIHEDRAL.0>
0

>  <SCORE.INTRA.POLAR>
0

>  <SCORE.INTRA.POLAR.0>
0

>  <SCORE.INTRA.REPUL>
0

>  <SCORE.INTRA.REPUL.0>
0

>  <SCORE.INTRA.SOLV>
0

>  <SCORE.INTRA.SOLV.lig_0>
0.449748

>  <SCORE.INTRA.VDW>
0

>  <SCORE.INTRA.VDW.0>
0

>  <SCORE.INTRA.norm>
0

>  <SCORE.RESTR>
0

>  <SCORE.RESTR.CAVITY>
0

>  <SCORE.RESTR.norm>
0

>  <SCORE.SYSTEM>
0

>  <SCORE.SYSTEM.CONST>
0

>  <SCORE.SYSTEM.DIHEDRAL>
0

>  <SCORE.SYSTEM.SOLV>
0

>  <SCORE.SYSTEM.norm>
0

>  <SCORE.heavy>
4

>  <SCORE.norm>
-1.39988

>  <RMSD>
26.434

$$$$
ligand
 OpenBabel11021811493D
libRbt.so/2013.1/901 2013/11/27
  4  3  0  0  0  0  0  0  0  0999 V2000
   11.3743   11.8575    5.0433 C   0  0  0  0  0  0  0  0  0  0  0  0
   11.5770   10.8665    5.7792 O   0  0  0  0  0  0  0  0  0  0  0  0
   11.1739   13.1929    5.7475 C   0  0  0  0  0  0  0  0  0  0  0  0
   11.3095   11.8959    3.7366 O   0  0  0  0  0  0  0  0  0  0  0  0
  1  2  1  0  0  0  0
  1  3  1  0  0  0  0
  1  4  1  0  0  0  0
M  END
>  <CHROM.1>
11.36064069,11.93940657,5.06792327,-1.05013194,-1.39444173,1.32181695

>  <Name>
ligand

>  <RI>
0

>  <Rbt.Current_Directory>
/home/itssahil/PROJECTS/Mol_Feturizer/New_Systems/rnas/4FEN

>  <Rbt.Executable>
rbdock ($Id: //depot/dev/client3/rdock/2013.1/src/exe/rbdock.cxx#4 $)

>  <Rbt.Library>
libRbt.so (2013.1, Build901 2013/11/27)

>  <Rbt.Parameter_File>
/export/apps/rDock/src/rDock_2013.1_src/data/scripts/dock_solv.prm

>  <Rbt.Receptor>
prm/blind_docking_80.prm

>  <SCORE>
-5.53048

>  <SCORE.INTER>
-5.53048

>  <SCORE.INTER.CONST>
1

>  <SCORE.INTER.POLAR>
0

>  <SCORE.INTER.ROT>
0

>  <SCORE.INTER.SOLV>
1.77119

>  <SCORE.INTER.VDW>
-7.87738

>  <SCORE.INTER.norm>
-1.38262

>  <SCORE.INTRA>
0

>  <SCORE.INTRA.DIHEDRAL>
0

>  <SCORE.INTRA.DIHEDRAL.0>
0

>  <SCORE.INTRA.POLAR>
0

>  <SCORE.INTRA.POLAR.0>
0

>  <SCORE.INTRA.REPUL>
0

>  <SCORE.INTRA.REPUL.0>
0

>  <SCORE.INTRA.SOLV>
0

>  <SCORE.INTRA.SOLV.lig_0>
0.449748

>  <SCORE.INTRA.VDW>
0

>  <SCORE.INTRA.VDW.0>
0

>  <SCORE.INTRA.norm>
0

>  <SCORE.RESTR>
0

>  <SCORE.RESTR.CAVITY>
0

>  <SCORE.RESTR.norm>
0

>  <SCORE.SYSTEM>
0

>  <SCORE.SYSTEM.CONST>
0

>  <SCORE.SYSTEM.DIHEDRAL>
0

>  <SCORE.SYSTEM.SOLV>
0

>  <SCORE.SYSTEM.norm>
0

>  <SCORE.heavy>
4

>  <SCORE.norm>
-1.38262

>  <RMSD>
26.434

$$$$
ligand
 OpenBabel11021811493D
libRbt.so/2013.1/901 2013/11/27
  4  3  0  0  0  0  0  0  0  0999 V2000
   11.3673   11.8847    5.0310 C   0  0  0  0  0  0  0  0  0  0  0  0
   11.5941   10.8818    5.7434 O   0  0  0  0  0  0  0  0  0  0  0  0
   11.1934   13.2088    5.7632 C   0  0  0  0  0  0  0  0  0  0  0  0
   11.2572   11.9444    3.7281 O   0  0  0  0  0  0  0  0  0  0  0  0
  1  2  1  0  0  0  0
  1  3  1  0  0  0  0
  1  4  1  0  0  0  0
M  END
>  <CHROM.1>
11.35464333,11.96624985,5.05745105,-1.23463807,-1.38417348,1.15648586

>  <Name>
ligand

>  <RI>
0

>  <Rbt.Current_Directory>
/home/itssahil/PROJECTS/Mol_Feturizer/New_Systems/rnas/4FEN

>  <Rbt.Executable>
rbdock ($Id: //depot/dev/client3/rdock/2013.1/src/exe/rbdock.cxx#4 $)

>  <Rbt.Library>
libRbt.so (2013.1, Build901 2013/11/27)

>  <Rbt.Parameter_File>
/export/apps/rDock/src/rDock_2013.1_src/data/scripts/dock_solv.prm

>  <Rbt.Receptor>
prm/blind_docking_20.prm

>  <SCORE>
-5.55056

>  <SCORE.INTER>
-5.55056

>  <SCORE.INTER.CONST>
1

>  <SCORE.INTER.POLAR>
0

>  <SCORE.INTER.ROT>
0

>  <SCORE.INTER.SOLV>
1.77095

>  <SCORE.INTER.VDW>
-7.89069

>  <SCORE.INTER.norm>
-1.38764

>  <SCORE.INTRA>
0

>  <SCORE.INTRA.DIHEDRAL>
0

>  <SCORE.INTRA.DIHEDRAL.0>
0

>  <SCORE.INTRA.POLAR>
0

>  <SCORE.INTRA.POLAR.0>
0

>  <SCORE.INTRA.REPUL>
0

>  <SCORE.INTRA.REPUL.0>
0

>  <SCORE.INTRA.SOLV>
0

>  <SCORE.INTRA.SOLV.lig_0>
0.449748

>  <SCORE.INTRA.VDW>
0

>  <SCORE.INTRA.VDW.0>
0

>  <SCORE.INTRA.norm>
0

>  <SCORE.RESTR>
0

>  <SCORE.RESTR.CAVITY>
0

>  <SCORE.RESTR.norm>
0

>  <SCORE.SYSTEM>
0

>  <SCORE.SYSTEM.CONST>
0

>  <SCORE.SYSTEM.DIHEDRAL>
0

>  <SCORE.SYSTEM.SOLV>
0

>  <SCORE.SYSTEM.norm>
0

>  <SCORE.heavy>
4

>  <SCORE.norm>
-1.38764

>  <RMSD>
26.435

$$$$
ligand
 OpenBabel11021811493D
libRbt.so/2013.1/901 2013/11/27
  4  3  0  0  0  0  0  0  0  0999 V2000
   11.3711   11.8654    5.0407 C   0  0  0  0  0  0  0  0  0  0  0  0
   11.5980   10.8738    5.7687 O   0  0  0  0  0  0  0  0  0  0  0  0
   11.1917   13.1998    5.7524 C   0  0  0  0  0  0  0  0  0  0  0  0
   11.2651   11.9052    3.7367 O   0  0  0  0  0  0  0  0  0  0  0  0
  1  2  1  0  0  0  0
  1  3  1  0  0  0  0
  1  4  1  0  0  0  0
M  END
>  <CHROM.1>
11.35818688,11.94725167,5.06580182,-1.21380129,-1.38320431,1.16196412

>  <Name>
ligand

>  <RI>
0

>  <Rbt.Current_Directory>
/home/itssahil/PROJECTS/Mol_Feturizer/New_Systems/rnas/4FEN

>  <Rbt.Executable>
rbdock ($Id: //depot/dev/client3/rdock/2013.1/src/exe/rbdock.cxx#4 $)

>  <Rbt.Library>
libRbt.so (2013.1, Build901 2013/11/27)

>  <Rbt.Parameter_File>
/export/apps/rDock/src/rDock_2013.1_src/data/scripts/dock_solv.prm

>  <Rbt.Receptor>
prm/blind_docking_40.prm

>  <SCORE>
-5.55035

>  <SCORE.INTER>
-5.55035

>  <SCORE.INTER.CONST>
1

>  <SCORE.INTER.POLAR>
0

>  <SCORE.INTER.ROT>
0

>  <SCORE.INTER.SOLV>
1.77084

>  <SCORE.INTER.VDW>
-7.89051

>  <SCORE.INTER.norm>
-1.38759

>  <SCORE.INTRA>
0

>  <SCORE.INTRA.DIHEDRAL>
0

>  <SCORE.INTRA.DIHEDRAL.0>
0

>  <SCORE.INTRA.POLAR>
0

>  <SCORE.INTRA.POLAR.0>
0

>  <SCORE.INTRA.REPUL>
0

>  <SCORE.INTRA.REPUL.0>
0

>  <SCORE.INTRA.SOLV>
0

>  <SCORE.INTRA.SOLV.lig_0>
0.449748

>  <SCORE.INTRA.VDW>
0

>  <SCORE.INTRA.VDW.0>
0

>  <SCORE.INTRA.norm>
0

>  <SCORE.RESTR>
0

>  <SCORE.RESTR.CAVITY>
0

>  <SCORE.RESTR.norm>
0

>  <SCORE.SYSTEM>
0

>  <SCORE.SYSTEM.CONST>
0

>  <SCORE.SYSTEM.DIHEDRAL>
0

>  <SCORE.SYSTEM.SOLV>
0

>  <SCORE.SYSTEM.norm>
0

>  <SCORE.heavy>
4

>  <SCORE.norm>
-1.38759

>  <RMSD>
26.435

$$$$
ligand
 OpenBabel11021811493D
libRbt.so/2013.1/901 2013/11/27
  4  3  0  0  0  0  0  0  0  0999 V2000
   11.3693   11.8712    5.0395 C   0  0  0  0  0  0  0  0  0  0  0  0
   11.6029   10.8750    5.7590 O   0  0  0  0  0  0  0  0  0  0  0  0
   11.1963   13.2010    5.7613 C   0  0  0  0  0  0  0  0  0  0  0  0
   11.2513   11.9194    3.7368 O   0  0  0  0  0  0  0  0  0  0  0  0
  1  2  1  0  0  0  0
  1  3  1  0  0  0  0
  1  4  1  0  0  0  0
M  END
>  <CHROM.1>
11.35657628,11.95292249,5.06527581,-1.25775002,-1.37936708,1.12520815

>  <Name>
ligand

>  <RI>
0

>  <Rbt.Current_Directory>
/home/itssahil/PROJECTS/Mol_Feturizer/New_Systems/rnas/4FEN

>  <Rbt.Executable>
rbdock ($Id: //depot/dev/client3/rdock/2013.1/src/exe/rbdock.cxx#4 $)

>  <Rbt.Library>
libRbt.so (2013.1, Build901 2013/11/27)

>  <Rbt.Parameter_File>
/export/apps/rDock/src/rDock_2013.1_src/data/scripts/dock_solv.prm

>  <Rbt.Receptor>
prm/blind_docking_40.prm

>  <SCORE>
-5.55293

>  <SCORE.INTER>
-5.55293

>  <SCORE.INTER.CONST>
1

>  <SCORE.INTER.POLAR>
0

>  <SCORE.INTER.ROT>
0

>  <SCORE.INTER.SOLV>
1.76996

>  <SCORE.INTER.VDW>
-7.89194

>  <SCORE.INTER.norm>
-1.38823

>  <SCORE.INTRA>
0

>  <SCORE.INTRA.DIHEDRAL>
0

>  <SCORE.INTRA.DIHEDRAL.0>
0

>  <SCORE.INTRA.POLAR>
0

>  <SCORE.INTRA.POLAR.0>
0

>  <SCORE.INTRA.REPUL>
0

>  <SCORE.INTRA.REPUL.0>
0

>  <SCORE.INTRA.SOLV>
0

>  <SCORE.INTRA.SOLV.lig_0>
0.449748

>  <SCORE.INTRA.VDW>
0

>  <SCORE.INTRA.VDW.0>
0

>  <SCORE.INTRA.norm>
0

>  <SCORE.RESTR>
0

>  <SCORE.RESTR.CAVITY>
0

>  <SCORE.RESTR.norm>
0

>  <SCORE.SYSTEM>
0

>  <SCORE.SYSTEM.CONST>
0

>  <SCORE.SYSTEM.DIHEDRAL>
0

>  <SCORE.SYSTEM.SOLV>
0

>  <SCORE.SYSTEM.norm>
0

>  <SCORE.heavy>
4

>  <SCORE.norm>
-1.38823

>  <RMSD>
26.435

$$$$
ligand
 OpenBabel11021811493D
libRbt.so/2013.1/901 2013/11/27
  4  3  0  0  0  0  0  0  0  0999 V2000
   11.3628   11.9291    4.9943 C   0  0  0  0  0  0  0  0  0  0  0  0
   11.6042   10.9021    5.6665 O   0  0  0  0  0  0  0  0  0  0  0  0
   11.1861   13.2235    5.7770 C   0  0  0  0  0  0  0  0  0  0  0  0
   11.2394   12.0363    3.6957 O   0  0  0  0  0  0  0  0  0  0  0  0
  1  2  1  0  0  0  0
  1  3  1  0  0  0  0
  1  4  1  0  0  0  0
M  END
>  <CHROM.1>
11.34975483,12.00944349,5.02385970,-1.26509051,-1.37314920,1.16384476

>  <Name>
ligand

>  <RI>
0

>  <Rbt.Current_Directory>
/home/itssahil/PROJECTS/Mol_Feturizer/New_Systems/rnas/4FEN

>  <Rbt.Executable>
rbdock ($Id: //depot/dev/client3/rdock/2013.1/src/exe/rbdock.cxx#4 $)

>  <Rbt.Library>
libRbt.so (2013.1, Build901 2013/11/27)

>  <Rbt.Parameter_File>
/export/apps/rDock/src/rDock_2013.1_src/data/scripts/dock_solv.prm

>  <Rbt.Receptor>
prm/blind_docking_60.prm

>  <SCORE>
-5.5583

>  <SCORE.INTER>
-5.5583

>  <SCORE.INTER.CONST>
1

>  <SCORE.INTER.POLAR>
0

>  <SCORE.INTER.ROT>
0

>  <SCORE.INTER.SOLV>
1.76917

>  <SCORE.INTER.VDW>
-7.89526

>  <SCORE.INTER.norm>
-1.38958

>  <SCORE.INTRA>
0

>  <SCORE.INTRA.DIHEDRAL>
0

>  <SCORE.INTRA.DIHEDRAL.0>
0

>  <SCORE.INTRA.POLAR>
0

>  <SCORE.INTRA.POLAR.0>
0

>  <SCORE.INTRA.REPUL>
0

>  <SCORE.INTRA.REPUL.0>
0

>  <SCORE.INTRA.SOLV>
0

>  <SCORE.INTRA.SOLV.lig_0>
0.449748

>  <SCORE.INTRA.VDW>
0

>  <SCORE.INTRA.VDW.0>
0

>  <SCORE.INTRA.norm>
0

>  <SCORE.RESTR>
0

>  <SCORE.RESTR.CAVITY>
0

>  <SCORE.RESTR.norm>
0

>  <SCORE.SYSTEM>
0

>  <SCORE.SYSTEM.CONST>
0

>  <SCORE.SYSTEM.DIHEDRAL>
0

>  <SCORE.SYSTEM.SOLV>
0

>  <SCORE.SYSTEM.norm>
0

>  <SCORE.heavy>
4

>  <SCORE.norm>
-1.38958

>  <RMSD>
26.435

$$$$
ligand
 OpenBabel11021811493D
libRbt.so/2013.1/901 2013/11/27
  4  3  0  0  0  0  0  0  0  0999 V2000
   11.3563   11.8969    5.0178 C   0  0  0  0  0  0  0  0  0  0  0  0
   11.2274   11.9460    3.7745 O   0  0  0  0  0  0  0  0  0  0  0  0
   11.2070   13.2152    5.7656 C   0  0  0  0  0  0  0  0  0  0  0  0
   11.6068   10.8520    5.7653 O   0  0  0  0  0  0  0  0  0  0  0  0
  1  2  1  0  0  0  0
  1  3  1  0  0  0  0
  1  4  1  0  0  0  0
M  END
>  <CHROM.1>
11.35123640,11.96272332,5.07386046,0.70747405,1.37788676,-2.09410623

>  <Name>
ligand

>  <RI>
0

>  <Rbt.Current_Directory>
/home/itssahil/PROJECTS/Mol_Feturizer/New_Systems/rnas/4FEN

>  <Rbt.Executable>
rbdock ($Id: //depot/dev/client3/rdock/2013.1/src/exe/rbdock.cxx#4 $)

>  <Rbt.Library>
libRbt.so (2013.1, Build901 2013/11/27)

>  <Rbt.Parameter_File>
/export/apps/rDock/src/rDock_2013.1_src/data/scripts/dock_solv.prm

>  <Rbt.Receptor>
prm/blind_docking_100.prm

>  <SCORE>
-5.60815

>  <SCORE.INTER>
-5.60815

>  <SCORE.INTER.CONST>
1

>  <SCORE.INTER.POLAR>
0

>  <SCORE.INTER.ROT>
0

>  <SCORE.INTER.SOLV>
1.77085

>  <SCORE.INTER.VDW>
-7.92905

>  <SCORE.INTER.norm>
-1.40204

>  <SCORE.INTRA>
0

>  <SCORE.INTRA.DIHEDRAL>
0

>  <SCORE.INTRA.DIHEDRAL.0>
0

>  <SCORE.INTRA.POLAR>
0

>  <SCORE.INTRA.POLAR.0>
0

>  <SCORE.INTRA.REPUL>
0

>  <SCORE.INTRA.REPUL.0>
0

>  <SCORE.INTRA.SOLV>
0

>  <SCORE.INTRA.SOLV.lig_0>
0.449748

>  <SCORE.INTRA.VDW>
0

>  <SCORE.INTRA.VDW.0>
0

>  <SCORE.INTRA.norm>
0

>  <SCORE.RESTR>
0

>  <SCORE.RESTR.CAVITY>
0

>  <SCORE.RESTR.norm>
0

>  <SCORE.SYSTEM>
0

>  <SCORE.SYSTEM.CONST>
0

>  <SCORE.SYSTEM.DIHEDRAL>
0

>  <SCORE.SYSTEM.SOLV>
0

>  <SCORE.SYSTEM.norm>
0

>  <SCORE.heavy>
4

>  <SCORE.norm>
-1.40204

>  <RMSD>
26.436

$$$$
ligand
 OpenBabel11021811493D
libRbt.so/2013.1/901 2013/11/27
  4  3  0  0  0  0  0  0  0  0999 V2000
   11.3670   11.8758    5.0309 C   0  0  0  0  0  0  0  0  0  0  0  0
   11.5870   10.8777    5.7521 O   0  0  0  0  0  0  0  0  0  0  0  0
   11.1848   13.2045    5.7526 C   0  0  0  0  0  0  0  0  0  0  0  0
   11.2704   11.9269    3.7266 O   0  0  0  0  0  0  0  0  0  0  0  0
  1  2  1  0  0  0  0
  1  3  1  0  0  0  0
  1  4  1  0  0  0  0
M  END
>  <CHROM.1>
11.35404478,11.95747348,5.05665353,-1.18129089,-1.38755333,1.20239284

>  <Name>
ligand

>  <RI>
0

>  <Rbt.Current_Directory>
/home/itssahil/PROJECTS/Mol_Feturizer/New_Systems/rnas/4FEN

>  <Rbt.Executable>
rbdock ($Id: //depot/dev/client3/rdock/2013.1/src/exe/rbdock.cxx#4 $)

>  <Rbt.Library>
libRbt.so (2013.1, Build901 2013/11/27)

>  <Rbt.Parameter_File>
/export/apps/rDock/src/rDock_2013.1_src/data/scripts/dock_solv.prm

>  <Rbt.Receptor>
prm/blind_docking_40.prm

>  <SCORE>
-5.54675

>  <SCORE.INTER>
-5.54675

>  <SCORE.INTER.CONST>
1

>  <SCORE.INTER.POLAR>
0

>  <SCORE.INTER.ROT>
0

>  <SCORE.INTER.SOLV>
1.77176

>  <SCORE.INTER.VDW>
-7.88842

>  <SCORE.INTER.norm>
-1.38669

>  <SCORE.INTRA>
0

>  <SCORE.INTRA.DIHEDRAL>
0

>  <SCORE.INTRA.DIHEDRAL.0>
0

>  <SCORE.INTRA.POLAR>
0

>  <SCORE.INTRA.POLAR.0>
0

>  <SCORE.INTRA.REPUL>
0

>  <SCORE.INTRA.REPUL.0>
0

>  <SCORE.INTRA.SOLV>
0

>  <SCORE.INTRA.SOLV.lig_0>
0.449748

>  <SCORE.INTRA.VDW>
0

>  <SCORE.INTRA.VDW.0>
0

>  <SCORE.INTRA.norm>
0

>  <SCORE.RESTR>
0

>  <SCORE.RESTR.CAVITY>
0

>  <SCORE.RESTR.norm>
0

>  <SCORE.SYSTEM>
0

>  <SCORE.SYSTEM.CONST>
0

>  <SCORE.SYSTEM.DIHEDRAL>
0

>  <SCORE.SYSTEM.SOLV>
0

>  <SCORE.SYSTEM.norm>
0

>  <SCORE.heavy>
4

>  <SCORE.norm>
-1.38669

>  <RMSD>
26.438

$$$$
ligand
 OpenBabel11021811493D
libRbt.so/2013.1/901 2013/11/27
  4  3  0  0  0  0  0  0  0  0999 V2000
   11.3676   11.8754    5.0262 C   0  0  0  0  0  0  0  0  0  0  0  0
   11.5846   10.8724    5.7415 O   0  0  0  0  0  0  0  0  0  0  0  0
   11.1946   13.2012    5.7554 C   0  0  0  0  0  0  0  0  0  0  0  0
   11.2672   11.9339    3.7225 O   0  0  0  0  0  0  0  0  0  0  0  0
  1  2  1  0  0  0  0
  1  3  1  0  0  0  0
  1  4  1  0  0  0  0
M  END
>  <CHROM.1>
11.35515804,11.95703977,5.05243067,-1.20814653,-1.39129186,1.18123384

>  <Name>
ligand

>  <RI>
0

>  <Rbt.Current_Directory>
/home/itssahil/PROJECTS/Mol_Feturizer/New_Systems/rnas/4FEN

>  <Rbt.Executable>
rbdock ($Id: //depot/dev/client3/rdock/2013.1/src/exe/rbdock.cxx#4 $)

>  <Rbt.Library>
libRbt.so (2013.1, Build901 2013/11/27)

>  <Rbt.Parameter_File>
/export/apps/rDock/src/rDock_2013.1_src/data/scripts/dock_solv.prm

>  <Rbt.Receptor>
prm/blind_docking_40.prm

>  <SCORE>
-5.54977

>  <SCORE.INTER>
-5.54977

>  <SCORE.INTER.CONST>
1

>  <SCORE.INTER.POLAR>
0

>  <SCORE.INTER.ROT>
0

>  <SCORE.INTER.SOLV>
1.7722

>  <SCORE.INTER.VDW>
-7.89058

>  <SCORE.INTER.norm>
-1.38744

>  <SCORE.INTRA>
0

>  <SCORE.INTRA.DIHEDRAL>
0

>  <SCORE.INTRA.DIHEDRAL.0>
0

>  <SCORE.INTRA.POLAR>
0

>  <SCORE.INTRA.POLAR.0>
0

>  <SCORE.INTRA.REPUL>
0

>  <SCORE.INTRA.REPUL.0>
0

>  <SCORE.INTRA.SOLV>
0

>  <SCORE.INTRA.SOLV.lig_0>
0.449748

>  <SCORE.INTRA.VDW>
0

>  <SCORE.INTRA.VDW.0>
0

>  <SCORE.INTRA.norm>
0

>  <SCORE.RESTR>
0

>  <SCORE.RESTR.CAVITY>
0

>  <SCORE.RESTR.norm>
0

>  <SCORE.SYSTEM>
0

>  <SCORE.SYSTEM.CONST>
0

>  <SCORE.SYSTEM.DIHEDRAL>
0

>  <SCORE.SYSTEM.SOLV>
0

>  <SCORE.SYSTEM.norm>
0

>  <SCORE.heavy>
4

>  <SCORE.norm>
-1.38744

>  <RMSD>
26.438

$$$$
ligand
 OpenBabel11021811493D
libRbt.so/2013.1/901 2013/11/27
  4  3  0  0  0  0  0  0  0  0999 V2000
   11.3661   11.8784    5.0285 C   0  0  0  0  0  0  0  0  0  0  0  0
   11.5710   10.8733    5.7444 O   0  0  0  0  0  0  0  0  0  0  0  0
   11.1851   13.2028    5.7582 C   0  0  0  0  0  0  0  0  0  0  0  0
   11.2845   11.9400    3.7236 O   0  0  0  0  0  0  0  0  0  0  0  0
  1  2  1  0  0  0  0
  1  3  1  0  0  0  0
  1  4  1  0  0  0  0
M  END
>  <CHROM.1>
11.35342429,11.95996204,5.05471747,-1.13494495,-1.39792584,1.25560929

>  <Name>
ligand

>  <RI>
0

>  <Rbt.Current_Directory>
/home/itssahil/PROJECTS/Mol_Feturizer/New_Systems/rnas/4FEN

>  <Rbt.Executable>
rbdock ($Id: //depot/dev/client3/rdock/2013.1/src/exe/rbdock.cxx#4 $)

>  <Rbt.Library>
libRbt.so (2013.1, Build901 2013/11/27)

>  <Rbt.Parameter_File>
/export/apps/rDock/src/rDock_2013.1_src/data/scripts/dock_solv.prm

>  <Rbt.Receptor>
prm/blind_docking_60.prm

>  <SCORE>
-5.5408

>  <SCORE.INTER>
-5.5408

>  <SCORE.INTER.CONST>
1

>  <SCORE.INTER.POLAR>
0

>  <SCORE.INTER.ROT>
0

>  <SCORE.INTER.SOLV>
1.77263

>  <SCORE.INTER.VDW>
-7.88474

>  <SCORE.INTER.norm>
-1.3852

>  <SCORE.INTRA>
0

>  <SCORE.INTRA.DIHEDRAL>
0

>  <SCORE.INTRA.DIHEDRAL.0>
0

>  <SCORE.INTRA.POLAR>
0

>  <SCORE.INTRA.POLAR.0>
0

>  <SCORE.INTRA.REPUL>
0

>  <SCORE.INTRA.REPUL.0>
0

>  <SCORE.INTRA.SOLV>
0

>  <SCORE.INTRA.SOLV.lig_0>
0.449748

>  <SCORE.INTRA.VDW>
0

>  <SCORE.INTRA.VDW.0>
0

>  <SCORE.INTRA.norm>
0

>  <SCORE.RESTR>
0

>  <SCORE.RESTR.CAVITY>
0

>  <SCORE.RESTR.norm>
0

>  <SCORE.SYSTEM>
0

>  <SCORE.SYSTEM.CONST>
0

>  <SCORE.SYSTEM.DIHEDRAL>
0

>  <SCORE.SYSTEM.SOLV>
0

>  <SCORE.SYSTEM.norm>
0

>  <SCORE.heavy>
4

>  <SCORE.norm>
-1.3852

>  <RMSD>
26.438

$$$$
ligand
 OpenBabel11021811493D
libRbt.so/2013.1/901 2013/11/27
  4  3  0  0  0  0  0  0  0  0999 V2000
   11.3652   11.8757    5.0343 C   0  0  0  0  0  0  0  0  0  0  0  0
   11.5788   10.8731    5.7512 O   0  0  0  0  0  0  0  0  0  0  0  0
   11.1969   13.2033    5.7613 C   0  0  0  0  0  0  0  0  0  0  0  0
   11.2648   11.9323    3.7305 O   0  0  0  0  0  0  0  0  0  0  0  0
  1  2  1  0  0  0  0
  1  3  1  0  0  0  0
  1  4  1  0  0  0  0
M  END
>  <CHROM.1>
11.35300368,11.95737662,5.06034996,-1.21667782,-1.39442791,1.17114648

>  <Name>
ligand

>  <RI>
0

>  <Rbt.Current_Directory>
/home/itssahil/PROJECTS/Mol_Feturizer/New_Systems/rnas/4FEN

>  <Rbt.Executable>
rbdock ($Id: //depot/dev/client3/rdock/2013.1/src/exe/rbdock.cxx#4 $)

>  <Rbt.Library>
libRbt.so (2013.1, Build901 2013/11/27)

>  <Rbt.Parameter_File>
/export/apps/rDock/src/rDock_2013.1_src/data/scripts/dock_solv.prm

>  <Rbt.Receptor>
prm/blind_docking_80.prm

>  <SCORE>
-5.55056

>  <SCORE.INTER>
-5.55056

>  <SCORE.INTER.CONST>
1

>  <SCORE.INTER.POLAR>
0

>  <SCORE.INTER.ROT>
0

>  <SCORE.INTER.SOLV>
1.77212

>  <SCORE.INTER.VDW>
-7.89108

>  <SCORE.INTER.norm>
-1.38764

>  <SCORE.INTRA>
0

>  <SCORE.INTRA.DIHEDRAL>
0

>  <SCORE.INTRA.DIHEDRAL.0>
0

>  <SCORE.INTRA.POLAR>
0

>  <SCORE.INTRA.POLAR.0>
0

>  <SCORE.INTRA.REPUL>
0

>  <SCORE.INTRA.REPUL.0>
0

>  <SCORE.INTRA.SOLV>
0

>  <SCORE.INTRA.SOLV.lig_0>
0.449748

>  <SCORE.INTRA.VDW>
0

>  <SCORE.INTRA.VDW.0>
0

>  <SCORE.INTRA.norm>
0

>  <SCORE.RESTR>
0

>  <SCORE.RESTR.CAVITY>
0

>  <SCORE.RESTR.norm>
0

>  <SCORE.SYSTEM>
0

>  <SCORE.SYSTEM.CONST>
0

>  <SCORE.SYSTEM.DIHEDRAL>
0

>  <SCORE.SYSTEM.SOLV>
0

>  <SCORE.SYSTEM.norm>
0

>  <SCORE.heavy>
4

>  <SCORE.norm>
-1.38764

>  <RMSD>
26.438

$$$$
ligand
 OpenBabel11021811493D
libRbt.so/2013.1/901 2013/11/27
  4  3  0  0  0  0  0  0  0  0999 V2000
   11.3525   11.9358    5.0037 C   0  0  0  0  0  0  0  0  0  0  0  0
   11.5907   10.9125    5.6825 O   0  0  0  0  0  0  0  0  0  0  0  0
   11.2004   13.2394    5.7763 C   0  0  0  0  0  0  0  0  0  0  0  0
   11.2138   12.0324    3.7057 O   0  0  0  0  0  0  0  0  0  0  0  0
  1  2  1  0  0  0  0
  1  3  1  0  0  0  0
  1  4  1  0  0  0  0
M  END
>  <CHROM.1>
11.34073267,12.01664521,5.03265144,-1.34948999,-1.37787314,1.07172158

>  <Name>
ligand

>  <RI>
0

>  <Rbt.Current_Directory>
/home/itssahil/PROJECTS/Mol_Feturizer/New_Systems/rnas/4FEN

>  <Rbt.Executable>
rbdock ($Id: //depot/dev/client3/rdock/2013.1/src/exe/rbdock.cxx#4 $)

>  <Rbt.Library>
libRbt.so (2013.1, Build901 2013/11/27)

>  <Rbt.Parameter_File>
/export/apps/rDock/src/rDock_2013.1_src/data/scripts/dock_solv.prm

>  <Rbt.Receptor>
prm/blind_docking_100.prm

>  <SCORE>
-5.56925

>  <SCORE.INTER>
-5.56925

>  <SCORE.INTER.CONST>
1

>  <SCORE.INTER.POLAR>
0

>  <SCORE.INTER.ROT>
0

>  <SCORE.INTER.SOLV>
1.76985

>  <SCORE.INTER.VDW>
-7.90278

>  <SCORE.INTER.norm>
-1.39231

>  <SCORE.INTRA>
0

>  <SCORE.INTRA.DIHEDRAL>
0

>  <SCORE.INTRA.DIHEDRAL.0>
0

>  <SCORE.INTRA.POLAR>
0

>  <SCORE.INTRA.POLAR.0>
0

>  <SCORE.INTRA.REPUL>
0

>  <SCORE.INTRA.REPUL.0>
0

>  <SCORE.INTRA.SOLV>
0

>  <SCORE.INTRA.SOLV.lig_0>
0.449748

>  <SCORE.INTRA.VDW>
0

>  <SCORE.INTRA.VDW.0>
0

>  <SCORE.INTRA.norm>
0

>  <SCORE.RESTR>
0

>  <SCORE.RESTR.CAVITY>
0

>  <SCORE.RESTR.norm>
0

>  <SCORE.SYSTEM>
0

>  <SCORE.SYSTEM.CONST>
0

>  <SCORE.SYSTEM.DIHEDRAL>
0

>  <SCORE.SYSTEM.SOLV>
0

>  <SCORE.SYSTEM.norm>
0

>  <SCORE.heavy>
4

>  <SCORE.norm>
-1.39231

>  <RMSD>
26.439

$$$$
ligand
 OpenBabel11021811493D
libRbt.so/2013.1/901 2013/11/27
  4  3  0  0  0  0  0  0  0  0999 V2000
   11.3632   11.8814    5.0313 C   0  0  0  0  0  0  0  0  0  0  0  0
   11.5946   10.8783    5.7419 O   0  0  0  0  0  0  0  0  0  0  0  0
   11.2015   13.2066    5.7643 C   0  0  0  0  0  0  0  0  0  0  0  0
   11.2391   11.9405    3.7296 O   0  0  0  0  0  0  0  0  0  0  0  0
  1  2  1  0  0  0  0
  1  3  1  0  0  0  0
  1  4  1  0  0  0  0
M  END
>  <CHROM.1>
11.35110348,11.96303806,5.05777041,-1.29483071,-1.38233947,1.09659380

>  <Name>
ligand

>  <RI>
0

>  <Rbt.Current_Directory>
/home/itssahil/PROJECTS/Mol_Feturizer/New_Systems/rnas/4FEN

>  <Rbt.Executable>
rbdock ($Id: //depot/dev/client3/rdock/2013.1/src/exe/rbdock.cxx#4 $)

>  <Rbt.Library>
libRbt.so (2013.1, Build901 2013/11/27)

>  <Rbt.Parameter_File>
/export/apps/rDock/src/rDock_2013.1_src/data/scripts/dock_solv.prm

>  <Rbt.Receptor>
prm/blind_docking_60.prm

>  <SCORE>
-5.55437

>  <SCORE.INTER>
-5.55437

>  <SCORE.INTER.CONST>
1

>  <SCORE.INTER.POLAR>
0

>  <SCORE.INTER.ROT>
0

>  <SCORE.INTER.SOLV>
1.7704

>  <SCORE.INTER.VDW>
-7.89305

>  <SCORE.INTER.norm>
-1.38859

>  <SCORE.INTRA>
0

>  <SCORE.INTRA.DIHEDRAL>
0

>  <SCORE.INTRA.DIHEDRAL.0>
0

>  <SCORE.INTRA.POLAR>
0

>  <SCORE.INTRA.POLAR.0>
0

>  <SCORE.INTRA.REPUL>
0

>  <SCORE.INTRA.REPUL.0>
0

>  <SCORE.INTRA.SOLV>
0

>  <SCORE.INTRA.SOLV.lig_0>
0.449748

>  <SCORE.INTRA.VDW>
0

>  <SCORE.INTRA.VDW.0>
0

>  <SCORE.INTRA.norm>
0

>  <SCORE.RESTR>
0

>  <SCORE.RESTR.CAVITY>
0

>  <SCORE.RESTR.norm>
0

>  <SCORE.SYSTEM>
0

>  <SCORE.SYSTEM.CONST>
0

>  <SCORE.SYSTEM.DIHEDRAL>
0

>  <SCORE.SYSTEM.SOLV>
0

>  <SCORE.SYSTEM.norm>
0

>  <SCORE.heavy>
4

>  <SCORE.norm>
-1.38859

>  <RMSD>
26.439

$$$$
ligand
 OpenBabel11021811493D
libRbt.so/2013.1/901 2013/11/27
  4  3  0  0  0  0  0  0  0  0999 V2000
   11.3649   11.8700    5.0098 C   0  0  0  0  0  0  0  0  0  0  0  0
   11.2696   11.9093    3.7632 O   0  0  0  0  0  0  0  0  0  0  0  0
   11.1823   13.1918    5.7439 C   0  0  0  0  0  0  0  0  0  0  0  0
   11.6050   10.8328    5.7713 O   0  0  0  0  0  0  0  0  0  0  0  0
  1  2  1  0  0  0  0
  1  3  1  0  0  0  0
  1  4  1  0  0  0  0
M  END
>  <CHROM.1>
11.35764986,11.93615766,5.06529975,0.55546190,1.38101263,-1.95183507

>  <Name>
ligand

>  <RI>
0

>  <Rbt.Current_Directory>
/home/itssahil/PROJECTS/Mol_Feturizer/New_Systems/rnas/4FEN

>  <Rbt.Executable>
rbdock ($Id: //depot/dev/client3/rdock/2013.1/src/exe/rbdock.cxx#4 $)

>  <Rbt.Library>
libRbt.so (2013.1, Build901 2013/11/27)

>  <Rbt.Parameter_File>
/export/apps/rDock/src/rDock_2013.1_src/data/scripts/dock_solv.prm

>  <Rbt.Receptor>
prm/blind_docking_60.prm

>  <SCORE>
-5.60763

>  <SCORE.INTER>
-5.60763

>  <SCORE.INTER.CONST>
1

>  <SCORE.INTER.POLAR>
0

>  <SCORE.INTER.ROT>
0

>  <SCORE.INTER.SOLV>
1.7704

>  <SCORE.INTER.VDW>
-7.92855

>  <SCORE.INTER.norm>
-1.40191

>  <SCORE.INTRA>
0

>  <SCORE.INTRA.DIHEDRAL>
0

>  <SCORE.INTRA.DIHEDRAL.0>
0

>  <SCORE.INTRA.POLAR>
0

>  <SCORE.INTRA.POLAR.0>
0

>  <SCORE.INTRA.REPUL>
0

>  <SCORE.INTRA.REPUL.0>
0

>  <SCORE.INTRA.SOLV>
0

>  <SCORE.INTRA.SOLV.lig_0>
0.449748

>  <SCORE.INTRA.VDW>
0

>  <SCORE.INTRA.VDW.0>
0

>  <SCORE.INTRA.norm>
0

>  <SCORE.RESTR>
0

>  <SCORE.RESTR.CAVITY>
0

>  <SCORE.RESTR.norm>
0

>  <SCORE.SYSTEM>
0

>  <SCORE.SYSTEM.CONST>
0

>  <SCORE.SYSTEM.DIHEDRAL>
0

>  <SCORE.SYSTEM.SOLV>
0

>  <SCORE.SYSTEM.norm>
0

>  <SCORE.heavy>
4

>  <SCORE.norm>
-1.40191

>  <RMSD>
26.439

$$$$
ligand
 OpenBabel11021811493D
libRbt.so/2013.1/901 2013/11/27
  4  3  0  0  0  0  0  0  0  0999 V2000
   11.3636   11.8832    5.0247 C   0  0  0  0  0  0  0  0  0  0  0  0
   11.5624   10.8745    5.7371 O   0  0  0  0  0  0  0  0  0  0  0  0
   11.1992   13.2076    5.7586 C   0  0  0  0  0  0  0  0  0  0  0  0
   11.2759   11.9489    3.7204 O   0  0  0  0  0  0  0  0  0  0  0  0
  1  2  1  0  0  0  0
  1  3  1  0  0  0  0
  1  4  1  0  0  0  0
M  END
>  <CHROM.1>
11.35183533,11.96489168,5.05118001,-1.18315937,-1.40534369,1.21052110

>  <Name>
ligand

>  <RI>
0

>  <Rbt.Current_Directory>
/home/itssahil/PROJECTS/Mol_Feturizer/New_Systems/rnas/4FEN

>  <Rbt.Executable>
rbdock ($Id: //depot/dev/client3/rdock/2013.1/src/exe/rbdock.cxx#4 $)

>  <Rbt.Library>
libRbt.so (2013.1, Build901 2013/11/27)

>  <Rbt.Parameter_File>
/export/apps/rDock/src/rDock_2013.1_src/data/scripts/dock_solv.prm

>  <Rbt.Receptor>
prm/blind_docking_80.prm

>  <SCORE>
-5.54542

>  <SCORE.INTER>
-5.54542

>  <SCORE.INTER.CONST>
1

>  <SCORE.INTER.POLAR>
0

>  <SCORE.INTER.ROT>
0

>  <SCORE.INTER.SOLV>
1.77422

>  <SCORE.INTER.VDW>
-7.88835

>  <SCORE.INTER.norm>
-1.38635

>  <SCORE.INTRA>
0

>  <SCORE.INTRA.DIHEDRAL>
0

>  <SCORE.INTRA.DIHEDRAL.0>
0

>  <SCORE.INTRA.POLAR>
0

>  <SCORE.INTRA.POLAR.0>
0

>  <SCORE.INTRA.REPUL>
0

>  <SCORE.INTRA.REPUL.0>
0

>  <SCORE.INTRA.SOLV>
0

>  <SCORE.INTRA.SOLV.lig_0>
0.449748

>  <SCORE.INTRA.VDW>
0

>  <SCORE.INTRA.VDW.0>
0

>  <SCORE.INTRA.norm>
0

>  <SCORE.RESTR>
0

>  <SCORE.RESTR.CAVITY>
0

>  <SCORE.RESTR.norm>
0

>  <SCORE.SYSTEM>
0

>  <SCORE.SYSTEM.CONST>
0

>  <SCORE.SYSTEM.DIHEDRAL>
0

>  <SCORE.SYSTEM.SOLV>
0

>  <SCORE.SYSTEM.norm>
0

>  <SCORE.heavy>
4

>  <SCORE.norm>
-1.38635

>  <RMSD>
26.439

$$$$
ligand
 OpenBabel11021811493D
libRbt.so/2013.1/901 2013/11/27
  4  3  0  0  0  0  0  0  0  0999 V2000
   11.3593   11.9010    5.0181 C   0  0  0  0  0  0  0  0  0  0  0  0
   11.5931   10.8890    5.7152 O   0  0  0  0  0  0  0  0  0  0  0  0
   11.1995   13.2167    5.7683 C   0  0  0  0  0  0  0  0  0  0  0  0
   11.2312   11.9765    3.7176 O   0  0  0  0  0  0  0  0  0  0  0  0
  1  2  1  0  0  0  0
  1  3  1  0  0  0  0
  1  4  1  0  0  0  0
M  END
>  <CHROM.1>
11.34725516,11.98223704,5.04561024,-1.30853883,-1.38067112,1.09580427

>  <Name>
ligand

>  <RI>
0

>  <Rbt.Current_Directory>
/home/itssahil/PROJECTS/Mol_Feturizer/New_Systems/rnas/4FEN

>  <Rbt.Executable>
rbdock ($Id: //depot/dev/client3/rdock/2013.1/src/exe/rbdock.cxx#4 $)

>  <Rbt.Library>
libRbt.so (2013.1, Build901 2013/11/27)

>  <Rbt.Parameter_File>
/export/apps/rDock/src/rDock_2013.1_src/data/scripts/dock_solv.prm

>  <Rbt.Receptor>
prm/blind_docking_20.prm

>  <SCORE>
-5.55153

>  <SCORE.INTER>
-5.55153

>  <SCORE.INTER.CONST>
1

>  <SCORE.INTER.POLAR>
0

>  <SCORE.INTER.ROT>
0

>  <SCORE.INTER.SOLV>
1.77009

>  <SCORE.INTER.VDW>
-7.89105

>  <SCORE.INTER.norm>
-1.38788

>  <SCORE.INTRA>
0

>  <SCORE.INTRA.DIHEDRAL>
0

>  <SCORE.INTRA.DIHEDRAL.0>
0

>  <SCORE.INTRA.POLAR>
0

>  <SCORE.INTRA.POLAR.0>
0

>  <SCORE.INTRA.REPUL>
0

>  <SCORE.INTRA.REPUL.0>
0

>  <SCORE.INTRA.SOLV>
0

>  <SCORE.INTRA.SOLV.lig_0>
0.449748

>  <SCORE.INTRA.VDW>
0

>  <SCORE.INTRA.VDW.0>
0

>  <SCORE.INTRA.norm>
0

>  <SCORE.RESTR>
0

>  <SCORE.RESTR.CAVITY>
0

>  <SCORE.RESTR.norm>
0

>  <SCORE.SYSTEM>
0

>  <SCORE.SYSTEM.CONST>
0

>  <SCORE.SYSTEM.DIHEDRAL>
0

>  <SCORE.SYSTEM.SOLV>
0

>  <SCORE.SYSTEM.norm>
0

>  <SCORE.heavy>
4

>  <SCORE.norm>
-1.38788

>  <RMSD>
26.440

$$$$
ligand
 OpenBabel11021811493D
libRbt.so/2013.1/901 2013/11/27
  4  3  0  0  0  0  0  0  0  0999 V2000
   11.3638   11.8755    5.0342 C   0  0  0  0  0  0  0  0  0  0  0  0
   11.5845   10.8769    5.7546 O   0  0  0  0  0  0  0  0  0  0  0  0
   11.1913   13.2053    5.7563 C   0  0  0  0  0  0  0  0  0  0  0  0
   11.2591   11.9262    3.7305 O   0  0  0  0  0  0  0  0  0  0  0  0
  1  2  1  0  0  0  0
  1  3  1  0  0  0  0
  1  4  1  0  0  0  0
M  END
>  <CHROM.1>
11.35131985,11.95725355,5.06000158,-1.22189100,-1.38870206,1.16190505

>  <Name>
ligand

>  <RI>
0

>  <Rbt.Current_Directory>
/home/itssahil/PROJECTS/Mol_Feturizer/New_Systems/rnas/4FEN

>  <Rbt.Executable>
rbdock ($Id: //depot/dev/client3/rdock/2013.1/src/exe/rbdock.cxx#4 $)

>  <Rbt.Library>
libRbt.so (2013.1, Build901 2013/11/27)

>  <Rbt.Parameter_File>
/export/apps/rDock/src/rDock_2013.1_src/data/scripts/dock_solv.prm

>  <Rbt.Receptor>
prm/blind_docking_20.prm

>  <SCORE>
-5.55031

>  <SCORE.INTER>
-5.55031

>  <SCORE.INTER.CONST>
1

>  <SCORE.INTER.POLAR>
0

>  <SCORE.INTER.ROT>
0

>  <SCORE.INTER.SOLV>
1.77166

>  <SCORE.INTER.VDW>
-7.89076

>  <SCORE.INTER.norm>
-1.38758

>  <SCORE.INTRA>
0

>  <SCORE.INTRA.DIHEDRAL>
0

>  <SCORE.INTRA.DIHEDRAL.0>
0

>  <SCORE.INTRA.POLAR>
0

>  <SCORE.INTRA.POLAR.0>
0

>  <SCORE.INTRA.REPUL>
0

>  <SCORE.INTRA.REPUL.0>
0

>  <SCORE.INTRA.SOLV>
0

>  <SCORE.INTRA.SOLV.lig_0>
0.449748

>  <SCORE.INTRA.VDW>
0

>  <SCORE.INTRA.VDW.0>
0

>  <SCORE.INTRA.norm>
0

>  <SCORE.RESTR>
0

>  <SCORE.RESTR.CAVITY>
0

>  <SCORE.RESTR.norm>
0

>  <SCORE.SYSTEM>
0

>  <SCORE.SYSTEM.CONST>
0

>  <SCORE.SYSTEM.DIHEDRAL>
0

>  <SCORE.SYSTEM.SOLV>
0

>  <SCORE.SYSTEM.norm>
0

>  <SCORE.heavy>
4

>  <SCORE.norm>
-1.38758

>  <RMSD>
26.440

$$$$
ligand
 OpenBabel11021811493D
libRbt.so/2013.1/901 2013/11/27
  4  3  0  0  0  0  0  0  0  0999 V2000
   11.3651   11.8758    5.0263 C   0  0  0  0  0  0  0  0  0  0  0  0
   11.5714   10.8688    5.7392 O   0  0  0  0  0  0  0  0  0  0  0  0
   11.1953   13.1999    5.7593 C   0  0  0  0  0  0  0  0  0  0  0  0
   11.2736   11.9396    3.7221 O   0  0  0  0  0  0  0  0  0  0  0  0
  1  2  1  0  0  0  0
  1  3  1  0  0  0  0
  1  4  1  0  0  0  0
M  END
>  <CHROM.1>
11.35297913,11.95736554,5.05271879,-1.18599389,-1.39928572,1.20673163

>  <Name>
ligand

>  <RI>
0

>  <Rbt.Current_Directory>
/home/itssahil/PROJECTS/Mol_Feturizer/New_Systems/rnas/4FEN

>  <Rbt.Executable>
rbdock ($Id: //depot/dev/client3/rdock/2013.1/src/exe/rbdock.cxx#4 $)

>  <Rbt.Library>
libRbt.so (2013.1, Build901 2013/11/27)

>  <Rbt.Parameter_File>
/export/apps/rDock/src/rDock_2013.1_src/data/scripts/dock_solv.prm

>  <Rbt.Receptor>
prm/blind_docking_40.prm

>  <SCORE>
-5.54737

>  <SCORE.INTER>
-5.54737

>  <SCORE.INTER.CONST>
1

>  <SCORE.INTER.POLAR>
0

>  <SCORE.INTER.ROT>
0

>  <SCORE.INTER.SOLV>
1.77269

>  <SCORE.INTER.VDW>
-7.88914

>  <SCORE.INTER.norm>
-1.38684

>  <SCORE.INTRA>
0

>  <SCORE.INTRA.DIHEDRAL>
0

>  <SCORE.INTRA.DIHEDRAL.0>
0

>  <SCORE.INTRA.POLAR>
0

>  <SCORE.INTRA.POLAR.0>
0

>  <SCORE.INTRA.REPUL>
0

>  <SCORE.INTRA.REPUL.0>
0

>  <SCORE.INTRA.SOLV>
0

>  <SCORE.INTRA.SOLV.lig_0>
0.449748

>  <SCORE.INTRA.VDW>
0

>  <SCORE.INTRA.VDW.0>
0

>  <SCORE.INTRA.norm>
0

>  <SCORE.RESTR>
0

>  <SCORE.RESTR.CAVITY>
0

>  <SCORE.RESTR.norm>
0

>  <SCORE.SYSTEM>
0

>  <SCORE.SYSTEM.CONST>
0

>  <SCORE.SYSTEM.DIHEDRAL>
0

>  <SCORE.SYSTEM.SOLV>
0

>  <SCORE.SYSTEM.norm>
0

>  <SCORE.heavy>
4

>  <SCORE.norm>
-1.38684

>  <RMSD>
26.440

$$$$
ligand
 OpenBabel11021811493D
libRbt.so/2013.1/901 2013/11/27
  4  3  0  0  0  0  0  0  0  0999 V2000
   11.3652   11.8722    5.0330 C   0  0  0  0  0  0  0  0  0  0  0  0
   11.5676   10.8688    5.7520 O   0  0  0  0  0  0  0  0  0  0  0  0
   11.1900   13.1998    5.7585 C   0  0  0  0  0  0  0  0  0  0  0  0
   11.2817   11.9297    3.7280 O   0  0  0  0  0  0  0  0  0  0  0  0
  1  2  1  0  0  0  0
  1  3  1  0  0  0  0
  1  4  1  0  0  0  0
M  END
>  <CHROM.1>
11.35281215,11.95392426,5.05895824,-1.15072137,-1.40078720,1.23665513

>  <Name>
ligand

>  <RI>
0

>  <Rbt.Current_Directory>
/home/itssahil/PROJECTS/Mol_Feturizer/New_Systems/rnas/4FEN

>  <Rbt.Executable>
rbdock ($Id: //depot/dev/client3/rdock/2013.1/src/exe/rbdock.cxx#4 $)

>  <Rbt.Library>
libRbt.so (2013.1, Build901 2013/11/27)

>  <Rbt.Parameter_File>
/export/apps/rDock/src/rDock_2013.1_src/data/scripts/dock_solv.prm

>  <Rbt.Receptor>
prm/blind_docking_60.prm

>  <SCORE>
-5.54376

>  <SCORE.INTER>
-5.54376

>  <SCORE.INTER.CONST>
1

>  <SCORE.INTER.POLAR>
0

>  <SCORE.INTER.ROT>
0

>  <SCORE.INTER.SOLV>
1.77272

>  <SCORE.INTER.VDW>
-7.88675

>  <SCORE.INTER.norm>
-1.38594

>  <SCORE.INTRA>
0

>  <SCORE.INTRA.DIHEDRAL>
0

>  <SCORE.INTRA.DIHEDRAL.0>
0

>  <SCORE.INTRA.POLAR>
0

>  <SCORE.INTRA.POLAR.0>
0

>  <SCORE.INTRA.REPUL>
0

>  <SCORE.INTRA.REPUL.0>
0

>  <SCORE.INTRA.SOLV>
0

>  <SCORE.INTRA.SOLV.lig_0>
0.449748

>  <SCORE.INTRA.VDW>
0

>  <SCORE.INTRA.VDW.0>
0

>  <SCORE.INTRA.norm>
0

>  <SCORE.RESTR>
0

>  <SCORE.RESTR.CAVITY>
0

>  <SCORE.RESTR.norm>
0

>  <SCORE.SYSTEM>
0

>  <SCORE.SYSTEM.CONST>
0

>  <SCORE.SYSTEM.DIHEDRAL>
0

>  <SCORE.SYSTEM.SOLV>
0

>  <SCORE.SYSTEM.norm>
0

>  <SCORE.heavy>
4

>  <SCORE.norm>
-1.38594

>  <RMSD>
26.440

$$$$
ligand
 OpenBabel11021811493D
libRbt.so/2013.1/901 2013/11/27
  4  3  0  0  0  0  0  0  0  0999 V2000
   11.3632   11.8741    5.0318 C   0  0  0  0  0  0  0  0  0  0  0  0
   11.5887   10.8737    5.7482 O   0  0  0  0  0  0  0  0  0  0  0  0
   11.1966   13.2023    5.7582 C   0  0  0  0  0  0  0  0  0  0  0  0
   11.2490   11.9279    3.7290 O   0  0  0  0  0  0  0  0  0  0  0  0
  1  2  1  0  0  0  0
  1  3  1  0  0  0  0
  1  4  1  0  0  0  0
M  END
>  <CHROM.1>
11.35095844,11.95580317,5.05785429,-1.25924660,-1.38612339,1.12751476

>  <Name>
ligand

>  <RI>
0

>  <Rbt.Current_Directory>
/home/itssahil/PROJECTS/Mol_Feturizer/New_Systems/rnas/4FEN

>  <Rbt.Executable>
rbdock ($Id: //depot/dev/client3/rdock/2013.1/src/exe/rbdock.cxx#4 $)

>  <Rbt.Library>
libRbt.so (2013.1, Build901 2013/11/27)

>  <Rbt.Parameter_File>
/export/apps/rDock/src/rDock_2013.1_src/data/scripts/dock_solv.prm

>  <Rbt.Receptor>
prm/blind_docking_100.prm

>  <SCORE>
-5.55308

>  <SCORE.INTER>
-5.55308

>  <SCORE.INTER.CONST>
1

>  <SCORE.INTER.POLAR>
0

>  <SCORE.INTER.ROT>
0

>  <SCORE.INTER.SOLV>
1.77103

>  <SCORE.INTER.VDW>
-7.8924

>  <SCORE.INTER.norm>
-1.38827

>  <SCORE.INTRA>
0

>  <SCORE.INTRA.DIHEDRAL>
0

>  <SCORE.INTRA.DIHEDRAL.0>
0

>  <SCORE.INTRA.POLAR>
0

>  <SCORE.INTRA.POLAR.0>
0

>  <SCORE.INTRA.REPUL>
0

>  <SCORE.INTRA.REPUL.0>
0

>  <SCORE.INTRA.SOLV>
0

>  <SCORE.INTRA.SOLV.lig_0>
0.449748

>  <SCORE.INTRA.VDW>
0

>  <SCORE.INTRA.VDW.0>
0

>  <SCORE.INTRA.norm>
0

>  <SCORE.RESTR>
0

>  <SCORE.RESTR.CAVITY>
0

>  <SCORE.RESTR.norm>
0

>  <SCORE.SYSTEM>
0

>  <SCORE.SYSTEM.CONST>
0

>  <SCORE.SYSTEM.DIHEDRAL>
0

>  <SCORE.SYSTEM.SOLV>
0

>  <SCORE.SYSTEM.norm>
0

>  <SCORE.heavy>
4

>  <SCORE.norm>
-1.38827

>  <RMSD>
26.441

$$$$
ligand
 OpenBabel11021811493D
libRbt.so/2013.1/901 2013/11/27
  4  3  0  0  0  0  0  0  0  0999 V2000
   11.3526   11.9285    4.9982 C   0  0  0  0  0  0  0  0  0  0  0  0
   11.5795   10.9008    5.6743 O   0  0  0  0  0  0  0  0  0  0  0  0
   11.2092   13.2307    5.7747 C   0  0  0  0  0  0  0  0  0  0  0  0
   11.2195   12.0307    3.7001 O   0  0  0  0  0  0  0  0  0  0  0  0
  1  2  1  0  0  0  0
  1  3  1  0  0  0  0
  1  4  1  0  0  0  0
M  END
>  <CHROM.1>
11.34151992,12.00930432,5.02738473,-1.35514827,-1.38727193,1.06956147

>  <Name>
ligand

>  <RI>
0

>  <Rbt.Current_Directory>
/home/itssahil/PROJECTS/Mol_Feturizer/New_Systems/rnas/4FEN

>  <Rbt.Executable>
rbdock ($Id: //depot/dev/client3/rdock/2013.1/src/exe/rbdock.cxx#4 $)

>  <Rbt.Library>
libRbt.so (2013.1, Build901 2013/11/27)

>  <Rbt.Parameter_File>
/export/apps/rDock/src/rDock_2013.1_src/data/scripts/dock_solv.prm

>  <Rbt.Receptor>
prm/blind_docking_20.prm

>  <SCORE>
-5.5728

>  <SCORE.INTER>
-5.5728

>  <SCORE.INTER.CONST>
1

>  <SCORE.INTER.POLAR>
0

>  <SCORE.INTER.ROT>
0

>  <SCORE.INTER.SOLV>
1.77104

>  <SCORE.INTER.VDW>
-7.90555

>  <SCORE.INTER.norm>
-1.3932

>  <SCORE.INTRA>
0

>  <SCORE.INTRA.DIHEDRAL>
0

>  <SCORE.INTRA.DIHEDRAL.0>
0

>  <SCORE.INTRA.POLAR>
0

>  <SCORE.INTRA.POLAR.0>
0

>  <SCORE.INTRA.REPUL>
0

>  <SCORE.INTRA.REPUL.0>
0

>  <SCORE.INTRA.SOLV>
0

>  <SCORE.INTRA.SOLV.lig_0>
0.449748

>  <SCORE.INTRA.VDW>
0

>  <SCORE.INTRA.VDW.0>
0

>  <SCORE.INTRA.norm>
0

>  <SCORE.RESTR>
0

>  <SCORE.RESTR.CAVITY>
0

>  <SCORE.RESTR.norm>
0

>  <SCORE.SYSTEM>
0

>  <SCORE.SYSTEM.CONST>
0

>  <SCORE.SYSTEM.DIHEDRAL>
0

>  <SCORE.SYSTEM.SOLV>
0

>  <SCORE.SYSTEM.norm>
0

>  <SCORE.heavy>
4

>  <SCORE.norm>
-1.3932

>  <RMSD>
26.441

$$$$
ligand
 OpenBabel11021811493D
libRbt.so/2013.1/901 2013/11/27
  4  3  0  0  0  0  0  0  0  0999 V2000
   11.3632   11.8755    5.0057 C   0  0  0  0  0  0  0  0  0  0  0  0
   11.2723   11.9182    3.7589 O   0  0  0  0  0  0  0  0  0  0  0  0
   11.1777   13.1952    5.7429 C   0  0  0  0  0  0  0  0  0  0  0  0
   11.6008   10.8362    5.7651 O   0  0  0  0  0  0  0  0  0  0  0  0
  1  2  1  0  0  0  0
  1  3  1  0  0  0  0
  1  4  1  0  0  0  0
M  END
>  <CHROM.1>
11.35571071,11.94146427,5.06133442,0.53727836,1.38206596,-1.93117863

>  <Name>
ligand

>  <RI>
0

>  <Rbt.Current_Directory>
/home/itssahil/PROJECTS/Mol_Feturizer/New_Systems/rnas/4FEN

>  <Rbt.Executable>
rbdock ($Id: //depot/dev/client3/rdock/2013.1/src/exe/rbdock.cxx#4 $)

>  <Rbt.Library>
libRbt.so (2013.1, Build901 2013/11/27)

>  <Rbt.Parameter_File>
/export/apps/rDock/src/rDock_2013.1_src/data/scripts/dock_solv.prm

>  <Rbt.Receptor>
prm/blind_docking_40.prm

>  <SCORE>
-5.60564

>  <SCORE.INTER>
-5.60564

>  <SCORE.INTER.CONST>
1

>  <SCORE.INTER.POLAR>
0

>  <SCORE.INTER.ROT>
0

>  <SCORE.INTER.SOLV>
1.77089

>  <SCORE.INTER.VDW>
-7.92739

>  <SCORE.INTER.norm>
-1.40141

>  <SCORE.INTRA>
0

>  <SCORE.INTRA.DIHEDRAL>
0

>  <SCORE.INTRA.DIHEDRAL.0>
0

>  <SCORE.INTRA.POLAR>
0

>  <SCORE.INTRA.POLAR.0>
0

>  <SCORE.INTRA.REPUL>
0

>  <SCORE.INTRA.REPUL.0>
0

>  <SCORE.INTRA.SOLV>
0

>  <SCORE.INTRA.SOLV.lig_0>
0.449748

>  <SCORE.INTRA.VDW>
0

>  <SCORE.INTRA.VDW.0>
0

>  <SCORE.INTRA.norm>
0

>  <SCORE.RESTR>
0

>  <SCORE.RESTR.CAVITY>
0

>  <SCORE.RESTR.norm>
0

>  <SCORE.SYSTEM>
0

>  <SCORE.SYSTEM.CONST>
0

>  <SCORE.SYSTEM.DIHEDRAL>
0

>  <SCORE.SYSTEM.SOLV>
0

>  <SCORE.SYSTEM.norm>
0

>  <SCORE.heavy>
4

>  <SCORE.norm>
-1.40141

>  <RMSD>
26.441

$$$$
ligand
 OpenBabel11021811493D
libRbt.so/2013.1/901 2013/11/27
  4  3  0  0  0  0  0  0  0  0999 V2000
   11.3463   11.9400    5.0096 C   0  0  0  0  0  0  0  0  0  0  0  0
   11.5647   10.9132    5.6899 O   0  0  0  0  0  0  0  0  0  0  0  0
   11.2051   13.2452    5.7817 C   0  0  0  0  0  0  0  0  0  0  0  0
   11.2205   12.0391    3.7106 O   0  0  0  0  0  0  0  0  0  0  0  0
  1  2  1  0  0  0  0
  1  3  1  0  0  0  0
  1  4  1  0  0  0  0
M  END
>  <CHROM.1>
11.33540647,12.02093216,5.03852965,-1.34218066,-1.39399261,1.07943285

>  <Name>
ligand

>  <RI>
0

>  <Rbt.Current_Directory>
/home/itssahil/PROJECTS/Mol_Feturizer/New_Systems/rnas/4FEN

>  <Rbt.Executable>
rbdock ($Id: //depot/dev/client3/rdock/2013.1/src/exe/rbdock.cxx#4 $)

>  <Rbt.Library>
libRbt.so (2013.1, Build901 2013/11/27)

>  <Rbt.Parameter_File>
/export/apps/rDock/src/rDock_2013.1_src/data/scripts/dock_solv.prm

>  <Rbt.Receptor>
prm/blind_docking_60.prm

>  <SCORE>
-5.56774

>  <SCORE.INTER>
-5.56774

>  <SCORE.INTER.CONST>
1

>  <SCORE.INTER.POLAR>
0

>  <SCORE.INTER.ROT>
0

>  <SCORE.INTER.SOLV>
1.77172

>  <SCORE.INTER.VDW>
-7.9024

>  <SCORE.INTER.norm>
-1.39193

>  <SCORE.INTRA>
0

>  <SCORE.INTRA.DIHEDRAL>
0

>  <SCORE.INTRA.DIHEDRAL.0>
0

>  <SCORE.INTRA.POLAR>
0

>  <SCORE.INTRA.POLAR.0>
0

>  <SCORE.INTRA.REPUL>
0

>  <SCORE.INTRA.REPUL.0>
0

>  <SCORE.INTRA.SOLV>
0

>  <SCORE.INTRA.SOLV.lig_0>
0.449748

>  <SCORE.INTRA.VDW>
0

>  <SCORE.INTRA.VDW.0>
0

>  <SCORE.INTRA.norm>
0

>  <SCORE.RESTR>
0

>  <SCORE.RESTR.CAVITY>
0

>  <SCORE.RESTR.norm>
0

>  <SCORE.SYSTEM>
0

>  <SCORE.SYSTEM.CONST>
0

>  <SCORE.SYSTEM.DIHEDRAL>
0

>  <SCORE.SYSTEM.SOLV>
0

>  <SCORE.SYSTEM.norm>
0

>  <SCORE.heavy>
4

>  <SCORE.norm>
-1.39193

>  <RMSD>
26.441

$$$$
ligand
 OpenBabel11021811493D
libRbt.so/2013.1/901 2013/11/27
  4  3  0  0  0  0  0  0  0  0999 V2000
   11.3667   11.8602    5.0316 C   0  0  0  0  0  0  0  0  0  0  0  0
   11.5563   10.8551    5.7518 O   0  0  0  0  0  0  0  0  0  0  0  0
   11.1827   13.1867    5.7568 C   0  0  0  0  0  0  0  0  0  0  0  0
   11.3036   11.9202    3.7256 O   0  0  0  0  0  0  0  0  0  0  0  0
  1  2  1  0  0  0  0
  1  3  1  0  0  0  0
  1  4  1  0  0  0  0
M  END
>  <CHROM.1>
11.35413435,11.94186396,5.05756163,-1.06423237,-1.40695040,1.32380137

>  <Name>
ligand

>  <RI>
0

>  <Rbt.Current_Directory>
/home/itssahil/PROJECTS/Mol_Feturizer/New_Systems/rnas/4FEN

>  <Rbt.Executable>
rbdock ($Id: //depot/dev/client3/rdock/2013.1/src/exe/rbdock.cxx#4 $)

>  <Rbt.Library>
libRbt.so (2013.1, Build901 2013/11/27)

>  <Rbt.Parameter_File>
/export/apps/rDock/src/rDock_2013.1_src/data/scripts/dock_solv.prm

>  <Rbt.Receptor>
prm/blind_docking_60.prm

>  <SCORE>
-5.5321

>  <SCORE.INTER>
-5.5321

>  <SCORE.INTER.CONST>
1

>  <SCORE.INTER.POLAR>
0

>  <SCORE.INTER.ROT>
0

>  <SCORE.INTER.SOLV>
1.77219

>  <SCORE.INTER.VDW>
-7.8788

>  <SCORE.INTER.norm>
-1.38303

>  <SCORE.INTRA>
0

>  <SCORE.INTRA.DIHEDRAL>
0

>  <SCORE.INTRA.DIHEDRAL.0>
0

>  <SCORE.INTRA.POLAR>
0

>  <SCORE.INTRA.POLAR.0>
0

>  <SCORE.INTRA.REPUL>
0

>  <SCORE.INTRA.REPUL.0>
0

>  <SCORE.INTRA.SOLV>
0

>  <SCORE.INTRA.SOLV.lig_0>
0.449748

>  <SCORE.INTRA.VDW>
0

>  <SCORE.INTRA.VDW.0>
0

>  <SCORE.INTRA.norm>
0

>  <SCORE.RESTR>
0

>  <SCORE.RESTR.CAVITY>
0

>  <SCORE.RESTR.norm>
0

>  <SCORE.SYSTEM>
0

>  <SCORE.SYSTEM.CONST>
0

>  <SCORE.SYSTEM.DIHEDRAL>
0

>  <SCORE.SYSTEM.SOLV>
0

>  <SCORE.SYSTEM.norm>
0

>  <SCORE.heavy>
4

>  <SCORE.norm>
-1.38303

>  <RMSD>
26.442

$$$$
ligand
 OpenBabel11021811493D
libRbt.so/2013.1/901 2013/11/27
  4  3  0  0  0  0  0  0  0  0999 V2000
   11.3713   11.8488    5.0340 C   0  0  0  0  0  0  0  0  0  0  0  0
   11.5739   10.8488    5.7576 O   0  0  0  0  0  0  0  0  0  0  0  0
   11.1791   13.1769    5.7543 C   0  0  0  0  0  0  0  0  0  0  0  0
   11.3004   11.9024    3.7281 O   0  0  0  0  0  0  0  0  0  0  0  0
  1  2  1  0  0  0  0
  1  3  1  0  0  0  0
  1  4  1  0  0  0  0
M  END
>  <CHROM.1>
11.35806168,11.93054098,5.05959376,-1.08203579,-1.39670855,1.30180350

>  <Name>
ligand

>  <RI>
0

>  <Rbt.Current_Directory>
/home/itssahil/PROJECTS/Mol_Feturizer/New_Systems/rnas/4FEN

>  <Rbt.Executable>
rbdock ($Id: //depot/dev/client3/rdock/2013.1/src/exe/rbdock.cxx#4 $)

>  <Rbt.Library>
libRbt.so (2013.1, Build901 2013/11/27)

>  <Rbt.Parameter_File>
/export/apps/rDock/src/rDock_2013.1_src/data/scripts/dock_solv.prm

>  <Rbt.Receptor>
prm/blind_docking_80.prm

>  <SCORE>
-5.53575

>  <SCORE.INTER>
-5.53575

>  <SCORE.INTER.CONST>
1

>  <SCORE.INTER.POLAR>
0

>  <SCORE.INTER.ROT>
0

>  <SCORE.INTER.SOLV>
1.76974

>  <SCORE.INTER.VDW>
-7.88041

>  <SCORE.INTER.norm>
-1.38394

>  <SCORE.INTRA>
0

>  <SCORE.INTRA.DIHEDRAL>
0

>  <SCORE.INTRA.DIHEDRAL.0>
0

>  <SCORE.INTRA.POLAR>
0

>  <SCORE.INTRA.POLAR.0>
0

>  <SCORE.INTRA.REPUL>
0

>  <SCORE.INTRA.REPUL.0>
0

>  <SCORE.INTRA.SOLV>
0

>  <SCORE.INTRA.SOLV.lig_0>
0.449748

>  <SCORE.INTRA.VDW>
0

>  <SCORE.INTRA.VDW.0>
0

>  <SCORE.INTRA.norm>
0

>  <SCORE.RESTR>
0

>  <SCORE.RESTR.CAVITY>
0

>  <SCORE.RESTR.norm>
0

>  <SCORE.SYSTEM>
0

>  <SCORE.SYSTEM.CONST>
0

>  <SCORE.SYSTEM.DIHEDRAL>
0

>  <SCORE.SYSTEM.SOLV>
0

>  <SCORE.SYSTEM.norm>
0

>  <SCORE.heavy>
4

>  <SCORE.norm>
-1.38394

>  <RMSD>
26.442

$$$$
ligand
 OpenBabel11021811493D
libRbt.so/2013.1/901 2013/11/27
  4  3  0  0  0  0  0  0  0  0999 V2000
   11.3637   11.8608    5.0369 C   0  0  0  0  0  0  0  0  0  0  0  0
   11.5775   10.8622    5.7592 O   0  0  0  0  0  0  0  0  0  0  0  0
   11.1916   13.1917    5.7570 C   0  0  0  0  0  0  0  0  0  0  0  0
   11.2658   11.9108    3.7326 O   0  0  0  0  0  0  0  0  0  0  0  0
  1  2  1  0  0  0  0
  1  3  1  0  0  0  0
  1  4  1  0  0  0  0
M  END
>  <CHROM.1>
11.35128299,11.94264472,5.06255677,-1.20213460,-1.39358938,1.18054376

>  <Name>
ligand

>  <RI>
0

>  <Rbt.Current_Directory>
/home/itssahil/PROJECTS/Mol_Feturizer/New_Systems/rnas/4FEN

>  <Rbt.Executable>
rbdock ($Id: //depot/dev/client3/rdock/2013.1/src/exe/rbdock.cxx#4 $)

>  <Rbt.Library>
libRbt.so (2013.1, Build901 2013/11/27)

>  <Rbt.Parameter_File>
/export/apps/rDock/src/rDock_2013.1_src/data/scripts/dock_solv.prm

>  <Rbt.Receptor>
prm/blind_docking_100.prm

>  <SCORE>
-5.54965

>  <SCORE.INTER>
-5.54965

>  <SCORE.INTER.CONST>
1

>  <SCORE.INTER.POLAR>
0

>  <SCORE.INTER.ROT>
0

>  <SCORE.INTER.SOLV>
1.7708

>  <SCORE.INTER.VDW>
-7.89003

>  <SCORE.INTER.norm>
-1.38741

>  <SCORE.INTRA>
0

>  <SCORE.INTRA.DIHEDRAL>
0

>  <SCORE.INTRA.DIHEDRAL.0>
0

>  <SCORE.INTRA.POLAR>
0

>  <SCORE.INTRA.POLAR.0>
0

>  <SCORE.INTRA.REPUL>
0

>  <SCORE.INTRA.REPUL.0>
0

>  <SCORE.INTRA.SOLV>
0

>  <SCORE.INTRA.SOLV.lig_0>
0.449748

>  <SCORE.INTRA.VDW>
0

>  <SCORE.INTRA.VDW.0>
0

>  <SCORE.INTRA.norm>
0

>  <SCORE.RESTR>
0

>  <SCORE.RESTR.CAVITY>
0

>  <SCORE.RESTR.norm>
0

>  <SCORE.SYSTEM>
0

>  <SCORE.SYSTEM.CONST>
0

>  <SCORE.SYSTEM.DIHEDRAL>
0

>  <SCORE.SYSTEM.SOLV>
0

>  <SCORE.SYSTEM.norm>
0

>  <SCORE.heavy>
4

>  <SCORE.norm>
-1.38741

>  <RMSD>
26.443

$$$$
ligand
 OpenBabel11021811493D
libRbt.so/2013.1/901 2013/11/27
  4  3  0  0  0  0  0  0  0  0999 V2000
   11.3611   11.8650    5.0134 C   0  0  0  0  0  0  0  0  0  0  0  0
   11.2614   11.9043    3.7671 O   0  0  0  0  0  0  0  0  0  0  0  0
   11.1839   13.1874    5.7478 C   0  0  0  0  0  0  0  0  0  0  0  0
   11.6018   10.8275    5.7742 O   0  0  0  0  0  0  0  0  0  0  0  0
  1  2  1  0  0  0  0
  1  3  1  0  0  0  0
  1  4  1  0  0  0  0
M  END
>  <CHROM.1>
11.35420439,11.93122958,5.06885390,0.57713673,1.38154007,-1.97334165

>  <Name>
ligand

>  <RI>
0

>  <Rbt.Current_Directory>
/home/itssahil/PROJECTS/Mol_Feturizer/New_Systems/rnas/4FEN

>  <Rbt.Executable>
rbdock ($Id: //depot/dev/client3/rdock/2013.1/src/exe/rbdock.cxx#4 $)

>  <Rbt.Library>
libRbt.so (2013.1, Build901 2013/11/27)

>  <Rbt.Parameter_File>
/export/apps/rDock/src/rDock_2013.1_src/data/scripts/dock_solv.prm

>  <Rbt.Receptor>
prm/blind_docking_60.prm

>  <SCORE>
-5.6087

>  <SCORE.INTER>
-5.6087

>  <SCORE.INTER.CONST>
1

>  <SCORE.INTER.POLAR>
0

>  <SCORE.INTER.ROT>
0

>  <SCORE.INTER.SOLV>
1.7694

>  <SCORE.INTER.VDW>
-7.92893

>  <SCORE.INTER.norm>
-1.40218

>  <SCORE.INTRA>
0

>  <SCORE.INTRA.DIHEDRAL>
0

>  <SCORE.INTRA.DIHEDRAL.0>
0

>  <SCORE.INTRA.POLAR>
0

>  <SCORE.INTRA.POLAR.0>
0

>  <SCORE.INTRA.REPUL>
0

>  <SCORE.INTRA.REPUL.0>
0

>  <SCORE.INTRA.SOLV>
0

>  <SCORE.INTRA.SOLV.lig_0>
0.449748

>  <SCORE.INTRA.VDW>
0

>  <SCORE.INTRA.VDW.0>
0

>  <SCORE.INTRA.norm>
0

>  <SCORE.RESTR>
0

>  <SCORE.RESTR.CAVITY>
0

>  <SCORE.RESTR.norm>
0

>  <SCORE.SYSTEM>
0

>  <SCORE.SYSTEM.CONST>
0

>  <SCORE.SYSTEM.DIHEDRAL>
0

>  <SCORE.SYSTEM.SOLV>
0

>  <SCORE.SYSTEM.norm>
0

>  <SCORE.heavy>
4

>  <SCORE.norm>
-1.40218

>  <RMSD>
26.443

$$$$
ligand
 OpenBabel11021811493D
libRbt.so/2013.1/901 2013/11/27
  4  3  0  0  0  0  0  0  0  0999 V2000
   11.3601   11.8699    5.0136 C   0  0  0  0  0  0  0  0  0  0  0  0
   11.2734   11.9099    3.7664 O   0  0  0  0  0  0  0  0  0  0  0  0
   11.1746   13.1917    5.7471 C   0  0  0  0  0  0  0  0  0  0  0  0
   11.5934   10.8320    5.7762 O   0  0  0  0  0  0  0  0  0  0  0  0
  1  2  1  0  0  0  0
  1  3  1  0  0  0  0
  1  4  1  0  0  0  0
M  END
>  <CHROM.1>
11.35259853,11.93608055,5.06903294,0.52434737,1.38487073,-1.92081323

>  <Name>
ligand

>  <RI>
0

>  <Rbt.Current_Directory>
/home/itssahil/PROJECTS/Mol_Feturizer/New_Systems/rnas/4FEN

>  <Rbt.Executable>
rbdock ($Id: //depot/dev/client3/rdock/2013.1/src/exe/rbdock.cxx#4 $)

>  <Rbt.Library>
libRbt.so (2013.1, Build901 2013/11/27)

>  <Rbt.Parameter_File>
/export/apps/rDock/src/rDock_2013.1_src/data/scripts/dock_solv.prm

>  <Rbt.Receptor>
prm/blind_docking_80.prm

>  <SCORE>
-5.6044

>  <SCORE.INTER>
-5.6044

>  <SCORE.INTER.CONST>
1

>  <SCORE.INTER.POLAR>
0

>  <SCORE.INTER.ROT>
0

>  <SCORE.INTER.SOLV>
1.76994

>  <SCORE.INTER.VDW>
-7.92625

>  <SCORE.INTER.norm>
-1.4011

>  <SCORE.INTRA>
0

>  <SCORE.INTRA.DIHEDRAL>
0

>  <SCORE.INTRA.DIHEDRAL.0>
0

>  <SCORE.INTRA.POLAR>
0

>  <SCORE.INTRA.POLAR.0>
0

>  <SCORE.INTRA.REPUL>
0

>  <SCORE.INTRA.REPUL.0>
0

>  <SCORE.INTRA.SOLV>
0

>  <SCORE.INTRA.SOLV.lig_0>
0.449748

>  <SCORE.INTRA.VDW>
0

>  <SCORE.INTRA.VDW.0>
0

>  <SCORE.INTRA.norm>
0

>  <SCORE.RESTR>
0

>  <SCORE.RESTR.CAVITY>
0

>  <SCORE.RESTR.norm>
0

>  <SCORE.SYSTEM>
0

>  <SCORE.SYSTEM.CONST>
0

>  <SCORE.SYSTEM.DIHEDRAL>
0

>  <SCORE.SYSTEM.SOLV>
0

>  <SCORE.SYSTEM.norm>
0

>  <SCORE.heavy>
4

>  <SCORE.norm>
-1.4011

>  <RMSD>
26.443

$$$$
ligand
 OpenBabel11021811493D
libRbt.so/2013.1/901 2013/11/27
  4  3  0  0  0  0  0  0  0  0999 V2000
   11.3393   11.9908    4.9619 C   0  0  0  0  0  0  0  0  0  0  0  0
   11.6093   10.9436    5.5904 O   0  0  0  0  0  0  0  0  0  0  0  0
   11.2145   13.2631    5.7896 C   0  0  0  0  0  0  0  0  0  0  0  0
   11.1467   12.1362    3.6754 O   0  0  0  0  0  0  0  0  0  0  0  0
  1  2  1  0  0  0  0
  1  3  1  0  0  0  0
  1  4  1  0  0  0  0
M  END
>  <CHROM.1>
11.32847056,12.07041837,4.99436275,-1.50944474,-1.35206514,0.95345362

>  <Name>
ligand

>  <RI>
0

>  <Rbt.Current_Directory>
/home/itssahil/PROJECTS/Mol_Feturizer/New_Systems/rnas/4FEN

>  <Rbt.Executable>
rbdock ($Id: //depot/dev/client3/rdock/2013.1/src/exe/rbdock.cxx#4 $)

>  <Rbt.Library>
libRbt.so (2013.1, Build901 2013/11/27)

>  <Rbt.Parameter_File>
/export/apps/rDock/src/rDock_2013.1_src/data/scripts/dock_solv.prm

>  <Rbt.Receptor>
prm/blind_docking_60.prm

>  <SCORE>
-5.56269

>  <SCORE.INTER>
-5.56269

>  <SCORE.INTER.CONST>
1

>  <SCORE.INTER.POLAR>
0

>  <SCORE.INTER.ROT>
0

>  <SCORE.INTER.SOLV>
1.77696

>  <SCORE.INTER.VDW>
-7.90078

>  <SCORE.INTER.norm>
-1.39067

>  <SCORE.INTRA>
0

>  <SCORE.INTRA.DIHEDRAL>
0

>  <SCORE.INTRA.DIHEDRAL.0>
0

>  <SCORE.INTRA.POLAR>
0

>  <SCORE.INTRA.POLAR.0>
0

>  <SCORE.INTRA.REPUL>
0

>  <SCORE.INTRA.REPUL.0>
0

>  <SCORE.INTRA.SOLV>
0

>  <SCORE.INTRA.SOLV.lig_0>
0.449748

>  <SCORE.INTRA.VDW>
0

>  <SCORE.INTRA.VDW.0>
0

>  <SCORE.INTRA.norm>
0

>  <SCORE.RESTR>
0

>  <SCORE.RESTR.CAVITY>
0

>  <SCORE.RESTR.norm>
0

>  <SCORE.SYSTEM>
0

>  <SCORE.SYSTEM.CONST>
0

>  <SCORE.SYSTEM.DIHEDRAL>
0

>  <SCORE.SYSTEM.SOLV>
0

>  <SCORE.SYSTEM.norm>
0

>  <SCORE.heavy>
4

>  <SCORE.norm>
-1.39067

>  <RMSD>
26.444

$$$$
ligand
 OpenBabel11021811493D
libRbt.so/2013.1/901 2013/11/27
  4  3  0  0  0  0  0  0  0  0999 V2000
   11.3582   11.8756    5.0085 C   0  0  0  0  0  0  0  0  0  0  0  0
   11.2499   11.9212    3.7631 O   0  0  0  0  0  0  0  0  0  0  0  0
   11.1887   13.1946    5.7507 C   0  0  0  0  0  0  0  0  0  0  0  0
   11.6022   10.8338    5.7624 O   0  0  0  0  0  0  0  0  0  0  0  0
  1  2  1  0  0  0  0
  1  3  1  0  0  0  0
  1  4  1  0  0  0  0
M  END
>  <CHROM.1>
11.35181739,11.94150447,5.06430965,0.61521211,1.38041631,-2.00577378

>  <Name>
ligand

>  <RI>
0

>  <Rbt.Current_Directory>
/home/itssahil/PROJECTS/Mol_Feturizer/New_Systems/rnas/4FEN

>  <Rbt.Executable>
rbdock ($Id: //depot/dev/client3/rdock/2013.1/src/exe/rbdock.cxx#4 $)

>  <Rbt.Library>
libRbt.so (2013.1, Build901 2013/11/27)

>  <Rbt.Parameter_File>
/export/apps/rDock/src/rDock_2013.1_src/data/scripts/dock_solv.prm

>  <Rbt.Receptor>
prm/blind_docking_80.prm

>  <SCORE>
-5.60994

>  <SCORE.INTER>
-5.60994

>  <SCORE.INTER.CONST>
1

>  <SCORE.INTER.POLAR>
0

>  <SCORE.INTER.ROT>
0

>  <SCORE.INTER.SOLV>
1.77027

>  <SCORE.INTER.VDW>
-7.93005

>  <SCORE.INTER.norm>
-1.40248

>  <SCORE.INTRA>
0

>  <SCORE.INTRA.DIHEDRAL>
0

>  <SCORE.INTRA.DIHEDRAL.0>
0

>  <SCORE.INTRA.POLAR>
0

>  <SCORE.INTRA.POLAR.0>
0

>  <SCORE.INTRA.REPUL>
0

>  <SCORE.INTRA.REPUL.0>
0

>  <SCORE.INTRA.SOLV>
0

>  <SCORE.INTRA.SOLV.lig_0>
0.449748

>  <SCORE.INTRA.VDW>
0

>  <SCORE.INTRA.VDW.0>
0

>  <SCORE.INTRA.norm>
0

>  <SCORE.RESTR>
0

>  <SCORE.RESTR.CAVITY>
0

>  <SCORE.RESTR.norm>
0

>  <SCORE.SYSTEM>
0

>  <SCORE.SYSTEM.CONST>
0

>  <SCORE.SYSTEM.DIHEDRAL>
0

>  <SCORE.SYSTEM.SOLV>
0

>  <SCORE.SYSTEM.norm>
0

>  <SCORE.heavy>
4

>  <SCORE.norm>
-1.40248

>  <RMSD>
26.444

$$$$
ligand
 OpenBabel11021811493D
libRbt.so/2013.1/901 2013/11/27
  4  3  0  0  0  0  0  0  0  0999 V2000
   11.3622   11.8672    5.0057 C   0  0  0  0  0  0  0  0  0  0  0  0
   11.2767   11.9086    3.7584 O   0  0  0  0  0  0  0  0  0  0  0  0
   11.1762   13.1883    5.7404 C   0  0  0  0  0  0  0  0  0  0  0  0
   11.5945   10.8285    5.7674 O   0  0  0  0  0  0  0  0  0  0  0  0
  1  2  1  0  0  0  0
  1  3  1  0  0  0  0
  1  4  1  0  0  0  0
M  END
>  <CHROM.1>
11.35461129,11.93333172,5.06118580,0.51974414,1.38544132,-1.91523511

>  <Name>
ligand

>  <RI>
0

>  <Rbt.Current_Directory>
/home/itssahil/PROJECTS/Mol_Feturizer/New_Systems/rnas/4FEN

>  <Rbt.Executable>
rbdock ($Id: //depot/dev/client3/rdock/2013.1/src/exe/rbdock.cxx#4 $)

>  <Rbt.Library>
libRbt.so (2013.1, Build901 2013/11/27)

>  <Rbt.Parameter_File>
/export/apps/rDock/src/rDock_2013.1_src/data/scripts/dock_solv.prm

>  <Rbt.Receptor>
prm/blind_docking_80.prm

>  <SCORE>
-5.60521

>  <SCORE.INTER>
-5.60521

>  <SCORE.INTER.CONST>
1

>  <SCORE.INTER.POLAR>
0

>  <SCORE.INTER.ROT>
0

>  <SCORE.INTER.SOLV>
1.77054

>  <SCORE.INTER.VDW>
-7.92699

>  <SCORE.INTER.norm>
-1.4013

>  <SCORE.INTRA>
0

>  <SCORE.INTRA.DIHEDRAL>
0

>  <SCORE.INTRA.DIHEDRAL.0>
0

>  <SCORE.INTRA.POLAR>
0

>  <SCORE.INTRA.POLAR.0>
0

>  <SCORE.INTRA.REPUL>
0

>  <SCORE.INTRA.REPUL.0>
0

>  <SCORE.INTRA.SOLV>
0

>  <SCORE.INTRA.SOLV.lig_0>
0.449748

>  <SCORE.INTRA.VDW>
0

>  <SCORE.INTRA.VDW.0>
0

>  <SCORE.INTRA.norm>
0

>  <SCORE.RESTR>
0

>  <SCORE.RESTR.CAVITY>
0

>  <SCORE.RESTR.norm>
0

>  <SCORE.SYSTEM>
0

>  <SCORE.SYSTEM.CONST>
0

>  <SCORE.SYSTEM.DIHEDRAL>
0

>  <SCORE.SYSTEM.SOLV>
0

>  <SCORE.SYSTEM.norm>
0

>  <SCORE.heavy>
4

>  <SCORE.norm>
-1.4013

>  <RMSD>
26.444

$$$$
ligand
 OpenBabel11021811493D
libRbt.so/2013.1/901 2013/11/27
  4  3  0  0  0  0  0  0  0  0999 V2000
   11.3448   11.9359    5.0088 C   0  0  0  0  0  0  0  0  0  0  0  0
   11.5828   10.9132    5.6886 O   0  0  0  0  0  0  0  0  0  0  0  0
   11.1967   13.2409    5.7797 C   0  0  0  0  0  0  0  0  0  0  0  0
   11.2035   12.0307    3.7110 O   0  0  0  0  0  0  0  0  0  0  0  0
  1  2  1  0  0  0  0
  1  3  1  0  0  0  0
  1  4  1  0  0  0  0
M  END
>  <CHROM.1>
11.33330819,12.01674080,5.03763516,-1.36384751,-1.37836218,1.05606347

>  <Name>
ligand

>  <RI>
0

>  <Rbt.Current_Directory>
/home/itssahil/PROJECTS/Mol_Feturizer/New_Systems/rnas/4FEN

>  <Rbt.Executable>
rbdock ($Id: //depot/dev/client3/rdock/2013.1/src/exe/rbdock.cxx#4 $)

>  <Rbt.Library>
libRbt.so (2013.1, Build901 2013/11/27)

>  <Rbt.Parameter_File>
/export/apps/rDock/src/rDock_2013.1_src/data/scripts/dock_solv.prm

>  <Rbt.Receptor>
prm/blind_docking_80.prm

>  <SCORE>
-5.56883

>  <SCORE.INTER>
-5.56883

>  <SCORE.INTER.CONST>
1

>  <SCORE.INTER.POLAR>
0

>  <SCORE.INTER.ROT>
0

>  <SCORE.INTER.SOLV>
1.7686

>  <SCORE.INTER.VDW>
-7.90209

>  <SCORE.INTER.norm>
-1.39221

>  <SCORE.INTRA>
0

>  <SCORE.INTRA.DIHEDRAL>
0

>  <SCORE.INTRA.DIHEDRAL.0>
0

>  <SCORE.INTRA.POLAR>
0

>  <SCORE.INTRA.POLAR.0>
0

>  <SCORE.INTRA.REPUL>
0

>  <SCORE.INTRA.REPUL.0>
0

>  <SCORE.INTRA.SOLV>
0

>  <SCORE.INTRA.SOLV.lig_0>
0.449748

>  <SCORE.INTRA.VDW>
0

>  <SCORE.INTRA.VDW.0>
0

>  <SCORE.INTRA.norm>
0

>  <SCORE.RESTR>
0

>  <SCORE.RESTR.CAVITY>
0

>  <SCORE.RESTR.norm>
0

>  <SCORE.SYSTEM>
0

>  <SCORE.SYSTEM.CONST>
0

>  <SCORE.SYSTEM.DIHEDRAL>
0

>  <SCORE.SYSTEM.SOLV>
0

>  <SCORE.SYSTEM.norm>
0

>  <SCORE.heavy>
4

>  <SCORE.norm>
-1.39221

>  <RMSD>
26.444

$$$$
ligand
 OpenBabel11021811493D
libRbt.so/2013.1/901 2013/11/27
  4  3  0  0  0  0  0  0  0  0999 V2000
   11.3506   11.9254    4.9939 C   0  0  0  0  0  0  0  0  0  0  0  0
   11.5688   10.8957    5.6698 O   0  0  0  0  0  0  0  0  0  0  0  0
   11.2068   13.2269    5.7716 C   0  0  0  0  0  0  0  0  0  0  0  0
   11.2269   12.0303    3.6951 O   0  0  0  0  0  0  0  0  0  0  0  0
  1  2  1  0  0  0  0
  1  3  1  0  0  0  0
  1  4  1  0  0  0  0
M  END
>  <CHROM.1>
11.33960669,12.00620342,5.02315183,-1.33092158,-1.39394052,1.09507452

>  <Name>
ligand

>  <RI>
0

>  <Rbt.Current_Directory>
/home/itssahil/PROJECTS/Mol_Feturizer/New_Systems/rnas/4FEN

>  <Rbt.Executable>
rbdock ($Id: //depot/dev/client3/rdock/2013.1/src/exe/rbdock.cxx#4 $)

>  <Rbt.Library>
libRbt.so (2013.1, Build901 2013/11/27)

>  <Rbt.Parameter_File>
/export/apps/rDock/src/rDock_2013.1_src/data/scripts/dock_solv.prm

>  <Rbt.Receptor>
prm/blind_docking_40.prm

>  <SCORE>
-5.57167

>  <SCORE.INTER>
-5.57167

>  <SCORE.INTER.CONST>
1

>  <SCORE.INTER.POLAR>
0

>  <SCORE.INTER.ROT>
0

>  <SCORE.INTER.SOLV>
1.77187

>  <SCORE.INTER.VDW>
-7.90507

>  <SCORE.INTER.norm>
-1.39292

>  <SCORE.INTRA>
0

>  <SCORE.INTRA.DIHEDRAL>
0

>  <SCORE.INTRA.DIHEDRAL.0>
0

>  <SCORE.INTRA.POLAR>
0

>  <SCORE.INTRA.POLAR.0>
0

>  <SCORE.INTRA.REPUL>
0

>  <SCORE.INTRA.REPUL.0>
0

>  <SCORE.INTRA.SOLV>
0

>  <SCORE.INTRA.SOLV.lig_0>
0.449748

>  <SCORE.INTRA.VDW>
0

>  <SCORE.INTRA.VDW.0>
0

>  <SCORE.INTRA.norm>
0

>  <SCORE.RESTR>
0

>  <SCORE.RESTR.CAVITY>
0

>  <SCORE.RESTR.norm>
0

>  <SCORE.SYSTEM>
0

>  <SCORE.SYSTEM.CONST>
0

>  <SCORE.SYSTEM.DIHEDRAL>
0

>  <SCORE.SYSTEM.SOLV>
0

>  <SCORE.SYSTEM.norm>
0

>  <SCORE.heavy>
4

>  <SCORE.norm>
-1.39292

>  <RMSD>
26.445

$$$$
ligand
 OpenBabel11021811493D
libRbt.so/2013.1/901 2013/11/27
  4  3  0  0  0  0  0  0  0  0999 V2000
   11.3519   11.9042    4.9894 C   0  0  0  0  0  0  0  0  0  0  0  0
   11.2536   11.9771    3.7445 O   0  0  0  0  0  0  0  0  0  0  0  0
   11.1944   13.2096    5.7578 C   0  0  0  0  0  0  0  0  0  0  0  0
   11.5763   10.8438    5.7232 O   0  0  0  0  0  0  0  0  0  0  0  0
  1  2  1  0  0  0  0
  1  3  1  0  0  0  0
  1  4  1  0  0  0  0
M  END
>  <CHROM.1>
11.34595840,11.96902952,5.04657755,0.60823825,1.39567947,-1.97806819

>  <Name>
ligand

>  <RI>
0

>  <Rbt.Current_Directory>
/home/itssahil/PROJECTS/Mol_Feturizer/New_Systems/rnas/4FEN

>  <Rbt.Executable>
rbdock ($Id: //depot/dev/client3/rdock/2013.1/src/exe/rbdock.cxx#4 $)

>  <Rbt.Library>
libRbt.so (2013.1, Build901 2013/11/27)

>  <Rbt.Parameter_File>
/export/apps/rDock/src/rDock_2013.1_src/data/scripts/dock_solv.prm

>  <Rbt.Receptor>
prm/blind_docking_80.prm

>  <SCORE>
-5.60484

>  <SCORE.INTER>
-5.60484

>  <SCORE.INTER.CONST>
1

>  <SCORE.INTER.POLAR>
0

>  <SCORE.INTER.ROT>
0

>  <SCORE.INTER.SOLV>
1.77306

>  <SCORE.INTER.VDW>
-7.92758

>  <SCORE.INTER.norm>
-1.40121

>  <SCORE.INTRA>
0

>  <SCORE.INTRA.DIHEDRAL>
0

>  <SCORE.INTRA.DIHEDRAL.0>
0

>  <SCORE.INTRA.POLAR>
0

>  <SCORE.INTRA.POLAR.0>
0

>  <SCORE.INTRA.REPUL>
0

>  <SCORE.INTRA.REPUL.0>
0

>  <SCORE.INTRA.SOLV>
0

>  <SCORE.INTRA.SOLV.lig_0>
0.449748

>  <SCORE.INTRA.VDW>
0

>  <SCORE.INTRA.VDW.0>
0

>  <SCORE.INTRA.norm>
0

>  <SCORE.RESTR>
0

>  <SCORE.RESTR.CAVITY>
0

>  <SCORE.RESTR.norm>
0

>  <SCORE.SYSTEM>
0

>  <SCORE.SYSTEM.CONST>
0

>  <SCORE.SYSTEM.DIHEDRAL>
0

>  <SCORE.SYSTEM.SOLV>
0

>  <SCORE.SYSTEM.norm>
0

>  <SCORE.heavy>
4

>  <SCORE.norm>
-1.40121

>  <RMSD>
26.445

$$$$
ligand
 OpenBabel11021811493D
libRbt.so/2013.1/901 2013/11/27
  4  3  0  0  0  0  0  0  0  0999 V2000
   11.3626   11.8584    5.0320 C   0  0  0  0  0  0  0  0  0  0  0  0
   11.5492   10.8583    5.7597 O   0  0  0  0  0  0  0  0  0  0  0  0
   11.1796   13.1904    5.7473 C   0  0  0  0  0  0  0  0  0  0  0  0
   11.3016   11.9091    3.7255 O   0  0  0  0  0  0  0  0  0  0  0  0
  1  2  1  0  0  0  0
  1  3  1  0  0  0  0
  1  4  1  0  0  0  0
M  END
>  <CHROM.1>
11.35004326,11.94030791,5.05729345,-1.05737064,-1.40897069,1.32337568

>  <Name>
ligand

>  <RI>
0

>  <Rbt.Current_Directory>
/home/itssahil/PROJECTS/Mol_Feturizer/New_Systems/rnas/4FEN

>  <Rbt.Executable>
rbdock ($Id: //depot/dev/client3/rdock/2013.1/src/exe/rbdock.cxx#4 $)

>  <Rbt.Library>
libRbt.so (2013.1, Build901 2013/11/27)

>  <Rbt.Parameter_File>
/export/apps/rDock/src/rDock_2013.1_src/data/scripts/dock_solv.prm

>  <Rbt.Receptor>
prm/blind_docking_20.prm

>  <SCORE>
-5.53118

>  <SCORE.INTER>
-5.53118

>  <SCORE.INTER.CONST>
1

>  <SCORE.INTER.POLAR>
0

>  <SCORE.INTER.ROT>
0

>  <SCORE.INTER.SOLV>
1.77298

>  <SCORE.INTER.VDW>
-7.87845

>  <SCORE.INTER.norm>
-1.3828

>  <SCORE.INTRA>
0

>  <SCORE.INTRA.DIHEDRAL>
0

>  <SCORE.INTRA.DIHEDRAL.0>
0

>  <SCORE.INTRA.POLAR>
0

>  <SCORE.INTRA.POLAR.0>
0

>  <SCORE.INTRA.REPUL>
0

>  <SCORE.INTRA.REPUL.0>
0

>  <SCORE.INTRA.SOLV>
0

>  <SCORE.INTRA.SOLV.lig_0>
0.449748

>  <SCORE.INTRA.VDW>
0

>  <SCORE.INTRA.VDW.0>
0

>  <SCORE.INTRA.norm>
0

>  <SCORE.RESTR>
0

>  <SCORE.RESTR.CAVITY>
0

>  <SCORE.RESTR.norm>
0

>  <SCORE.SYSTEM>
0

>  <SCORE.SYSTEM.CONST>
0

>  <SCORE.SYSTEM.DIHEDRAL>
0

>  <SCORE.SYSTEM.SOLV>
0

>  <SCORE.SYSTEM.norm>
0

>  <SCORE.heavy>
4

>  <SCORE.norm>
-1.3828

>  <RMSD>
26.446

$$$$
ligand
 OpenBabel11021811493D
libRbt.so/2013.1/901 2013/11/27
  4  3  0  0  0  0  0  0  0  0999 V2000
   11.3597   11.8667    5.0321 C   0  0  0  0  0  0  0  0  0  0  0  0
   11.5582   10.8646    5.7539 O   0  0  0  0  0  0  0  0  0  0  0  0
   11.1855   13.1963    5.7542 C   0  0  0  0  0  0  0  0  0  0  0  0
   11.2796   11.9214    3.7268 O   0  0  0  0  0  0  0  0  0  0  0  0
  1  2  1  0  0  0  0
  1  3  1  0  0  0  0
  1  4  1  0  0  0  0
M  END
>  <CHROM.1>
11.34741155,11.94853515,5.05782904,-1.14041903,-1.40361349,1.24456459

>  <Name>
ligand

>  <RI>
0

>  <Rbt.Current_Directory>
/home/itssahil/PROJECTS/Mol_Feturizer/New_Systems/rnas/4FEN

>  <Rbt.Executable>
rbdock ($Id: //depot/dev/client3/rdock/2013.1/src/exe/rbdock.cxx#4 $)

>  <Rbt.Library>
libRbt.so (2013.1, Build901 2013/11/27)

>  <Rbt.Parameter_File>
/export/apps/rDock/src/rDock_2013.1_src/data/scripts/dock_solv.prm

>  <Rbt.Receptor>
prm/blind_docking_20.prm

>  <SCORE>
-5.54228

>  <SCORE.INTER>
-5.54228

>  <SCORE.INTER.CONST>
1

>  <SCORE.INTER.POLAR>
0

>  <SCORE.INTER.ROT>
0

>  <SCORE.INTER.SOLV>
1.77253

>  <SCORE.INTER.VDW>
-7.8857

>  <SCORE.INTER.norm>
-1.38557

>  <SCORE.INTRA>
0

>  <SCORE.INTRA.DIHEDRAL>
0

>  <SCORE.INTRA.DIHEDRAL.0>
0

>  <SCORE.INTRA.POLAR>
0

>  <SCORE.INTRA.POLAR.0>
0

>  <SCORE.INTRA.REPUL>
0

>  <SCORE.INTRA.REPUL.0>
0

>  <SCORE.INTRA.SOLV>
0

>  <SCORE.INTRA.SOLV.lig_0>
0.449748

>  <SCORE.INTRA.VDW>
0

>  <SCORE.INTRA.VDW.0>
0

>  <SCORE.INTRA.norm>
0

>  <SCORE.RESTR>
0

>  <SCORE.RESTR.CAVITY>
0

>  <SCORE.RESTR.norm>
0

>  <SCORE.SYSTEM>
0

>  <SCORE.SYSTEM.CONST>
0

>  <SCORE.SYSTEM.DIHEDRAL>
0

>  <SCORE.SYSTEM.SOLV>
0

>  <SCORE.SYSTEM.norm>
0

>  <SCORE.heavy>
4

>  <SCORE.norm>
-1.38557

>  <RMSD>
26.446

$$$$
ligand
 OpenBabel11021811493D
libRbt.so/2013.1/901 2013/11/27
  4  3  0  0  0  0  0  0  0  0999 V2000
   11.3623   11.8683    4.9962 C   0  0  0  0  0  0  0  0  0  0  0  0
   11.2777   11.9170    3.7492 O   0  0  0  0  0  0  0  0  0  0  0  0
   11.1730   13.1845    5.7387 C   0  0  0  0  0  0  0  0  0  0  0  0
   11.5959   10.8254    5.7519 O   0  0  0  0  0  0  0  0  0  0  0  0
  1  2  1  0  0  0  0
  1  3  1  0  0  0  0
  1  4  1  0  0  0  0
M  END
>  <CHROM.1>
11.35449580,11.93401257,5.05213459,0.51163865,1.38387003,-1.90121971

>  <Name>
ligand

>  <RI>
0

>  <Rbt.Current_Directory>
/home/itssahil/PROJECTS/Mol_Feturizer/New_Systems/rnas/4FEN

>  <Rbt.Executable>
rbdock ($Id: //depot/dev/client3/rdock/2013.1/src/exe/rbdock.cxx#4 $)

>  <Rbt.Library>
libRbt.so (2013.1, Build901 2013/11/27)

>  <Rbt.Parameter_File>
/export/apps/rDock/src/rDock_2013.1_src/data/scripts/dock_solv.prm

>  <Rbt.Receptor>
prm/blind_docking_40.prm

>  <SCORE>
-5.60253

>  <SCORE.INTER>
-5.60253

>  <SCORE.INTER.CONST>
1

>  <SCORE.INTER.POLAR>
0

>  <SCORE.INTER.ROT>
0

>  <SCORE.INTER.SOLV>
1.77024

>  <SCORE.INTER.VDW>
-7.9251

>  <SCORE.INTER.norm>
-1.40063

>  <SCORE.INTRA>
0

>  <SCORE.INTRA.DIHEDRAL>
0

>  <SCORE.INTRA.DIHEDRAL.0>
0

>  <SCORE.INTRA.POLAR>
0

>  <SCORE.INTRA.POLAR.0>
0

>  <SCORE.INTRA.REPUL>
0

>  <SCORE.INTRA.REPUL.0>
0

>  <SCORE.INTRA.SOLV>
0

>  <SCORE.INTRA.SOLV.lig_0>
0.449748

>  <SCORE.INTRA.VDW>
0

>  <SCORE.INTRA.VDW.0>
0

>  <SCORE.INTRA.norm>
0

>  <SCORE.RESTR>
0

>  <SCORE.RESTR.CAVITY>
0

>  <SCORE.RESTR.norm>
0

>  <SCORE.SYSTEM>
0

>  <SCORE.SYSTEM.CONST>
0

>  <SCORE.SYSTEM.DIHEDRAL>
0

>  <SCORE.SYSTEM.SOLV>
0

>  <SCORE.SYSTEM.norm>
0

>  <SCORE.heavy>
4

>  <SCORE.norm>
-1.40063

>  <RMSD>
26.446

$$$$
ligand
 OpenBabel11021811493D
libRbt.so/2013.1/901 2013/11/27
  4  3  0  0  0  0  0  0  0  0999 V2000
   11.3469   11.9305    5.0015 C   0  0  0  0  0  0  0  0  0  0  0  0
   11.5770   10.9045    5.6791 O   0  0  0  0  0  0  0  0  0  0  0  0
   11.1980   13.2332    5.7763 C   0  0  0  0  0  0  0  0  0  0  0  0
   11.2145   12.0306    3.7032 O   0  0  0  0  0  0  0  0  0  0  0  0
  1  2  1  0  0  0  0
  1  3  1  0  0  0  0
  1  4  1  0  0  0  0
M  END
>  <CHROM.1>
11.33547603,12.01134631,5.03057398,-1.34156763,-1.38440568,1.08166715

>  <Name>
ligand

>  <RI>
0

>  <Rbt.Current_Directory>
/home/itssahil/PROJECTS/Mol_Feturizer/New_Systems/rnas/4FEN

>  <Rbt.Executable>
rbdock ($Id: //depot/dev/client3/rdock/2013.1/src/exe/rbdock.cxx#4 $)

>  <Rbt.Library>
libRbt.so (2013.1, Build901 2013/11/27)

>  <Rbt.Parameter_File>
/export/apps/rDock/src/rDock_2013.1_src/data/scripts/dock_solv.prm

>  <Rbt.Receptor>
prm/blind_docking_40.prm

>  <SCORE>
-5.57085

>  <SCORE.INTER>
-5.57085

>  <SCORE.INTER.CONST>
1

>  <SCORE.INTER.POLAR>
0

>  <SCORE.INTER.ROT>
0

>  <SCORE.INTER.SOLV>
1.76967

>  <SCORE.INTER.VDW>
-7.90379

>  <SCORE.INTER.norm>
-1.39271

>  <SCORE.INTRA>
0

>  <SCORE.INTRA.DIHEDRAL>
0

>  <SCORE.INTRA.DIHEDRAL.0>
0

>  <SCORE.INTRA.POLAR>
0

>  <SCORE.INTRA.POLAR.0>
0

>  <SCORE.INTRA.REPUL>
0

>  <SCORE.INTRA.REPUL.0>
0

>  <SCORE.INTRA.SOLV>
0

>  <SCORE.INTRA.SOLV.lig_0>
0.449748

>  <SCORE.INTRA.VDW>
0

>  <SCORE.INTRA.VDW.0>
0

>  <SCORE.INTRA.norm>
0

>  <SCORE.RESTR>
0

>  <SCORE.RESTR.CAVITY>
0

>  <SCORE.RESTR.norm>
0

>  <SCORE.SYSTEM>
0

>  <SCORE.SYSTEM.CONST>
0

>  <SCORE.SYSTEM.DIHEDRAL>
0

>  <SCORE.SYSTEM.SOLV>
0

>  <SCORE.SYSTEM.norm>
0

>  <SCORE.heavy>
4

>  <SCORE.norm>
-1.39271

>  <RMSD>
26.446

$$$$
ligand
 OpenBabel11021811493D
libRbt.so/2013.1/901 2013/11/27
  4  3  0  0  0  0  0  0  0  0999 V2000
   11.3332   11.9911    4.9747 C   0  0  0  0  0  0  0  0  0  0  0  0
   11.6031   10.9480    5.6102 O   0  0  0  0  0  0  0  0  0  0  0  0
   11.2164   13.2702    5.7930 C   0  0  0  0  0  0  0  0  0  0  0  0
   11.1346   12.1269    3.6881 O   0  0  0  0  0  0  0  0  0  0  0  0
  1  2  1  0  0  0  0
  1  3  1  0  0  0  0
  1  4  1  0  0  0  0
M  END
>  <CHROM.1>
11.32279366,12.07093503,5.00664673,-1.53627145,-1.35156346,0.91938260

>  <Name>
ligand

>  <RI>
0

>  <Rbt.Current_Directory>
/home/itssahil/PROJECTS/Mol_Feturizer/New_Systems/rnas/4FEN

>  <Rbt.Executable>
rbdock ($Id: //depot/dev/client3/rdock/2013.1/src/exe/rbdock.cxx#4 $)

>  <Rbt.Library>
libRbt.so (2013.1, Build901 2013/11/27)

>  <Rbt.Parameter_File>
/export/apps/rDock/src/rDock_2013.1_src/data/scripts/dock_solv.prm

>  <Rbt.Receptor>
prm/blind_docking_40.prm

>  <SCORE>
-5.56521

>  <SCORE.INTER>
-5.56521

>  <SCORE.INTER.CONST>
1

>  <SCORE.INTER.POLAR>
0

>  <SCORE.INTER.ROT>
0

>  <SCORE.INTER.SOLV>
1.77664

>  <SCORE.INTER.VDW>
-7.90235

>  <SCORE.INTER.norm>
-1.3913

>  <SCORE.INTRA>
0

>  <SCORE.INTRA.DIHEDRAL>
0

>  <SCORE.INTRA.DIHEDRAL.0>
0

>  <SCORE.INTRA.POLAR>
0

>  <SCORE.INTRA.POLAR.0>
0

>  <SCORE.INTRA.REPUL>
0

>  <SCORE.INTRA.REPUL.0>
0

>  <SCORE.INTRA.SOLV>
0

>  <SCORE.INTRA.SOLV.lig_0>
0.449748

>  <SCORE.INTRA.VDW>
0

>  <SCORE.INTRA.VDW.0>
0

>  <SCORE.INTRA.norm>
0

>  <SCORE.RESTR>
0

>  <SCORE.RESTR.CAVITY>
0

>  <SCORE.RESTR.norm>
0

>  <SCORE.SYSTEM>
0

>  <SCORE.SYSTEM.CONST>
0

>  <SCORE.SYSTEM.DIHEDRAL>
0

>  <SCORE.SYSTEM.SOLV>
0

>  <SCORE.SYSTEM.norm>
0

>  <SCORE.heavy>
4

>  <SCORE.norm>
-1.3913

>  <RMSD>
26.446

$$$$
ligand
 OpenBabel11021811493D
libRbt.so/2013.1/901 2013/11/27
  4  3  0  0  0  0  0  0  0  0999 V2000
   11.3529   11.8776    5.0122 C   0  0  0  0  0  0  0  0  0  0  0  0
   11.2369   11.9195    3.7674 O   0  0  0  0  0  0  0  0  0  0  0  0
   11.1910   13.1993    5.7514 C   0  0  0  0  0  0  0  0  0  0  0  0
   11.5993   10.8376    5.7679 O   0  0  0  0  0  0  0  0  0  0  0  0
  1  2  1  0  0  0  0
  1  3  1  0  0  0  0
  1  4  1  0  0  0  0
M  END
>  <CHROM.1>
11.34701759,11.94369476,5.06790375,0.64991632,1.37971259,-2.04298149

>  <Name>
ligand

>  <RI>
0

>  <Rbt.Current_Directory>
/home/itssahil/PROJECTS/Mol_Feturizer/New_Systems/rnas/4FEN

>  <Rbt.Executable>
rbdock ($Id: //depot/dev/client3/rdock/2013.1/src/exe/rbdock.cxx#4 $)

>  <Rbt.Library>
libRbt.so (2013.1, Build901 2013/11/27)

>  <Rbt.Parameter_File>
/export/apps/rDock/src/rDock_2013.1_src/data/scripts/dock_solv.prm

>  <Rbt.Receptor>
prm/blind_docking_60.prm

>  <SCORE>
-5.61004

>  <SCORE.INTER>
-5.61004

>  <SCORE.INTER.CONST>
1

>  <SCORE.INTER.POLAR>
0

>  <SCORE.INTER.ROT>
0

>  <SCORE.INTER.SOLV>
1.77027

>  <SCORE.INTER.VDW>
-7.93012

>  <SCORE.INTER.norm>
-1.40251

>  <SCORE.INTRA>
0

>  <SCORE.INTRA.DIHEDRAL>
0

>  <SCORE.INTRA.DIHEDRAL.0>
0

>  <SCORE.INTRA.POLAR>
0

>  <SCORE.INTRA.POLAR.0>
0

>  <SCORE.INTRA.REPUL>
0

>  <SCORE.INTRA.REPUL.0>
0

>  <SCORE.INTRA.SOLV>
0

>  <SCORE.INTRA.SOLV.lig_0>
0.449748

>  <SCORE.INTRA.VDW>
0

>  <SCORE.INTRA.VDW.0>
0

>  <SCORE.INTRA.norm>
0

>  <SCORE.RESTR>
0

>  <SCORE.RESTR.CAVITY>
0

>  <SCORE.RESTR.norm>
0

>  <SCORE.SYSTEM>
0

>  <SCORE.SYSTEM.CONST>
0

>  <SCORE.SYSTEM.DIHEDRAL>
0

>  <SCORE.SYSTEM.SOLV>
0

>  <SCORE.SYSTEM.norm>
0

>  <SCORE.heavy>
4

>  <SCORE.norm>
-1.40251

>  <RMSD>
26.446

$$$$
ligand
 OpenBabel11021811493D
libRbt.so/2013.1/901 2013/11/27
  4  3  0  0  0  0  0  0  0  0999 V2000
   11.3610   11.8631    5.0028 C   0  0  0  0  0  0  0  0  0  0  0  0
   11.2780   11.9076    3.7555 O   0  0  0  0  0  0  0  0  0  0  0  0
   11.1786   13.1831    5.7402 C   0  0  0  0  0  0  0  0  0  0  0  0
   11.5880   10.8217    5.7625 O   0  0  0  0  0  0  0  0  0  0  0  0
  1  2  1  0  0  0  0
  1  3  1  0  0  0  0
  1  4  1  0  0  0  0
M  END
>  <CHROM.1>
11.35359077,11.92910530,5.05842858,0.51689402,1.38957829,-1.91011992

>  <Name>
ligand

>  <RI>
0

>  <Rbt.Current_Directory>
/home/itssahil/PROJECTS/Mol_Feturizer/New_Systems/rnas/4FEN

>  <Rbt.Executable>
rbdock ($Id: //depot/dev/client3/rdock/2013.1/src/exe/rbdock.cxx#4 $)

>  <Rbt.Library>
libRbt.so (2013.1, Build901 2013/11/27)

>  <Rbt.Parameter_File>
/export/apps/rDock/src/rDock_2013.1_src/data/scripts/dock_solv.prm

>  <Rbt.Receptor>
prm/blind_docking_100.prm

>  <SCORE>
-5.60504

>  <SCORE.INTER>
-5.60504

>  <SCORE.INTER.CONST>
1

>  <SCORE.INTER.POLAR>
0

>  <SCORE.INTER.ROT>
0

>  <SCORE.INTER.SOLV>
1.77069

>  <SCORE.INTER.VDW>
-7.92693

>  <SCORE.INTER.norm>
-1.40126

>  <SCORE.INTRA>
0

>  <SCORE.INTRA.DIHEDRAL>
0

>  <SCORE.INTRA.DIHEDRAL.0>
0

>  <SCORE.INTRA.POLAR>
0

>  <SCORE.INTRA.POLAR.0>
0

>  <SCORE.INTRA.REPUL>
0

>  <SCORE.INTRA.REPUL.0>
0

>  <SCORE.INTRA.SOLV>
0

>  <SCORE.INTRA.SOLV.lig_0>
0.449748

>  <SCORE.INTRA.VDW>
0

>  <SCORE.INTRA.VDW.0>
0

>  <SCORE.INTRA.norm>
0

>  <SCORE.RESTR>
0

>  <SCORE.RESTR.CAVITY>
0

>  <SCORE.RESTR.norm>
0

>  <SCORE.SYSTEM>
0

>  <SCORE.SYSTEM.CONST>
0

>  <SCORE.SYSTEM.DIHEDRAL>
0

>  <SCORE.SYSTEM.SOLV>
0

>  <SCORE.SYSTEM.norm>
0

>  <SCORE.heavy>
4

>  <SCORE.norm>
-1.40126

>  <RMSD>
26.447

$$$$
ligand
 OpenBabel11021811493D
libRbt.so/2013.1/901 2013/11/27
  4  3  0  0  0  0  0  0  0  0999 V2000
   11.3506   11.8856    5.0083 C   0  0  0  0  0  0  0  0  0  0  0  0
   11.2481   11.9388    3.7627 O   0  0  0  0  0  0  0  0  0  0  0  0
   11.1928   13.2027    5.7565 C   0  0  0  0  0  0  0  0  0  0  0  0
   11.5794   10.8374    5.7579 O   0  0  0  0  0  0  0  0  0  0  0  0
  1  2  1  0  0  0  0
  1  3  1  0  0  0  0
  1  4  1  0  0  0  0
M  END
>  <CHROM.1>
11.34465615,11.95134429,5.06441591,0.62011467,1.39256636,-2.00550965

>  <Name>
ligand

>  <RI>
0

>  <Rbt.Current_Directory>
/home/itssahil/PROJECTS/Mol_Feturizer/New_Systems/rnas/4FEN

>  <Rbt.Executable>
rbdock ($Id: //depot/dev/client3/rdock/2013.1/src/exe/rbdock.cxx#4 $)

>  <Rbt.Library>
libRbt.so (2013.1, Build901 2013/11/27)

>  <Rbt.Parameter_File>
/export/apps/rDock/src/rDock_2013.1_src/data/scripts/dock_solv.prm

>  <Rbt.Receptor>
prm/blind_docking_20.prm

>  <SCORE>
-5.60899

>  <SCORE.INTER>
-5.60899

>  <SCORE.INTER.CONST>
1

>  <SCORE.INTER.POLAR>
0

>  <SCORE.INTER.ROT>
0

>  <SCORE.INTER.SOLV>
1.77203

>  <SCORE.INTER.VDW>
-7.93

>  <SCORE.INTER.norm>
-1.40225

>  <SCORE.INTRA>
0

>  <SCORE.INTRA.DIHEDRAL>
0

>  <SCORE.INTRA.DIHEDRAL.0>
0

>  <SCORE.INTRA.POLAR>
0

>  <SCORE.INTRA.POLAR.0>
0

>  <SCORE.INTRA.REPUL>
0

>  <SCORE.INTRA.REPUL.0>
0

>  <SCORE.INTRA.SOLV>
0

>  <SCORE.INTRA.SOLV.lig_0>
0.449748

>  <SCORE.INTRA.VDW>
0

>  <SCORE.INTRA.VDW.0>
0

>  <SCORE.INTRA.norm>
0

>  <SCORE.RESTR>
0

>  <SCORE.RESTR.CAVITY>
0

>  <SCORE.RESTR.norm>
0

>  <SCORE.SYSTEM>
0

>  <SCORE.SYSTEM.CONST>
0

>  <SCORE.SYSTEM.DIHEDRAL>
0

>  <SCORE.SYSTEM.SOLV>
0

>  <SCORE.SYSTEM.norm>
0

>  <SCORE.heavy>
4

>  <SCORE.norm>
-1.40225

>  <RMSD>
26.447

$$$$
ligand
 OpenBabel11021811493D
libRbt.so/2013.1/901 2013/11/27
  4  3  0  0  0  0  0  0  0  0999 V2000
   11.3568   11.8729    5.0039 C   0  0  0  0  0  0  0  0  0  0  0  0
   11.2635   11.9191    3.7573 O   0  0  0  0  0  0  0  0  0  0  0  0
   11.1810   13.1920    5.7445 C   0  0  0  0  0  0  0  0  0  0  0  0
   11.5898   10.8305    5.7603 O   0  0  0  0  0  0  0  0  0  0  0  0
  1  2  1  0  0  0  0
  1  3  1  0  0  0  0
  1  4  1  0  0  0  0
M  END
>  <CHROM.1>
11.34986741,11.93886423,5.05965226,0.56028707,1.38695425,-1.95147033

>  <Name>
ligand

>  <RI>
0

>  <Rbt.Current_Directory>
/home/itssahil/PROJECTS/Mol_Feturizer/New_Systems/rnas/4FEN

>  <Rbt.Executable>
rbdock ($Id: //depot/dev/client3/rdock/2013.1/src/exe/rbdock.cxx#4 $)

>  <Rbt.Library>
libRbt.so (2013.1, Build901 2013/11/27)

>  <Rbt.Parameter_File>
/export/apps/rDock/src/rDock_2013.1_src/data/scripts/dock_solv.prm

>  <Rbt.Receptor>
prm/blind_docking_20.prm

>  <SCORE>
-5.60783

>  <SCORE.INTER>
-5.60783

>  <SCORE.INTER.CONST>
1

>  <SCORE.INTER.POLAR>
0

>  <SCORE.INTER.ROT>
0

>  <SCORE.INTER.SOLV>
1.77096

>  <SCORE.INTER.VDW>
-7.92887

>  <SCORE.INTER.norm>
-1.40196

>  <SCORE.INTRA>
0

>  <SCORE.INTRA.DIHEDRAL>
0

>  <SCORE.INTRA.DIHEDRAL.0>
0

>  <SCORE.INTRA.POLAR>
0

>  <SCORE.INTRA.POLAR.0>
0

>  <SCORE.INTRA.REPUL>
0

>  <SCORE.INTRA.REPUL.0>
0

>  <SCORE.INTRA.SOLV>
0

>  <SCORE.INTRA.SOLV.lig_0>
0.449748

>  <SCORE.INTRA.VDW>
0

>  <SCORE.INTRA.VDW.0>
0

>  <SCORE.INTRA.norm>
0

>  <SCORE.RESTR>
0

>  <SCORE.RESTR.CAVITY>
0

>  <SCORE.RESTR.norm>
0

>  <SCORE.SYSTEM>
0

>  <SCORE.SYSTEM.CONST>
0

>  <SCORE.SYSTEM.DIHEDRAL>
0

>  <SCORE.SYSTEM.SOLV>
0

>  <SCORE.SYSTEM.norm>
0

>  <SCORE.heavy>
4

>  <SCORE.norm>
-1.40196

>  <RMSD>
26.447

$$$$
ligand
 OpenBabel11021811493D
libRbt.so/2013.1/901 2013/11/27
  4  3  0  0  0  0  0  0  0  0999 V2000
   11.3604   11.8641    5.0079 C   0  0  0  0  0  0  0  0  0  0  0  0
   11.2904   11.9000    3.7595 O   0  0  0  0  0  0  0  0  0  0  0  0
   11.1599   13.1874    5.7347 C   0  0  0  0  0  0  0  0  0  0  0  0
   11.5872   10.8294    5.7768 O   0  0  0  0  0  0  0  0  0  0  0  0
  1  2  1  0  0  0  0
  1  3  1  0  0  0  0
  1  4  1  0  0  0  0
M  END
>  <CHROM.1>
11.35181943,11.93038137,5.06302103,0.44798667,1.38548401,-1.84883944

>  <Name>
ligand

>  <RI>
0

>  <Rbt.Current_Directory>
/home/itssahil/PROJECTS/Mol_Feturizer/New_Systems/rnas/4FEN

>  <Rbt.Executable>
rbdock ($Id: //depot/dev/client3/rdock/2013.1/src/exe/rbdock.cxx#4 $)

>  <Rbt.Library>
libRbt.so (2013.1, Build901 2013/11/27)

>  <Rbt.Parameter_File>
/export/apps/rDock/src/rDock_2013.1_src/data/scripts/dock_solv.prm

>  <Rbt.Receptor>
prm/blind_docking_40.prm

>  <SCORE>
-5.59754

>  <SCORE.INTER>
-5.59754

>  <SCORE.INTER.CONST>
1

>  <SCORE.INTER.POLAR>
0

>  <SCORE.INTER.ROT>
0

>  <SCORE.INTER.SOLV>
1.76971

>  <SCORE.INTER.VDW>
-7.9216

>  <SCORE.INTER.norm>
-1.39939

>  <SCORE.INTRA>
0

>  <SCORE.INTRA.DIHEDRAL>
0

>  <SCORE.INTRA.DIHEDRAL.0>
0

>  <SCORE.INTRA.POLAR>
0

>  <SCORE.INTRA.POLAR.0>
0

>  <SCORE.INTRA.REPUL>
0

>  <SCORE.INTRA.REPUL.0>
0

>  <SCORE.INTRA.SOLV>
0

>  <SCORE.INTRA.SOLV.lig_0>
0.449748

>  <SCORE.INTRA.VDW>
0

>  <SCORE.INTRA.VDW.0>
0

>  <SCORE.INTRA.norm>
0

>  <SCORE.RESTR>
0

>  <SCORE.RESTR.CAVITY>
0

>  <SCORE.RESTR.norm>
0

>  <SCORE.SYSTEM>
0

>  <SCORE.SYSTEM.CONST>
0

>  <SCORE.SYSTEM.DIHEDRAL>
0

>  <SCORE.SYSTEM.SOLV>
0

>  <SCORE.SYSTEM.norm>
0

>  <SCORE.heavy>
4

>  <SCORE.norm>
-1.39939

>  <RMSD>
26.447

$$$$
ligand
 OpenBabel11021811493D
libRbt.so/2013.1/901 2013/11/27
  4  3  0  0  0  0  0  0  0  0999 V2000
   11.3488   11.9291    4.9942 C   0  0  0  0  0  0  0  0  0  0  0  0
   11.5598   10.8976    5.6696 O   0  0  0  0  0  0  0  0  0  0  0  0
   11.1813   13.2260    5.7749 C   0  0  0  0  0  0  0  0  0  0  0  0
   11.2506   12.0395    3.6937 O   0  0  0  0  0  0  0  0  0  0  0  0
  1  2  1  0  0  0  0
  1  3  1  0  0  0  0
  1  4  1  0  0  0  0
M  END
>  <CHROM.1>
11.33674221,12.00971168,5.02359989,-1.21115624,-1.39636790,1.21773663

>  <Name>
ligand

>  <RI>
0

>  <Rbt.Current_Directory>
/home/itssahil/PROJECTS/Mol_Feturizer/New_Systems/rnas/4FEN

>  <Rbt.Executable>
rbdock ($Id: //depot/dev/client3/rdock/2013.1/src/exe/rbdock.cxx#4 $)

>  <Rbt.Library>
libRbt.so (2013.1, Build901 2013/11/27)

>  <Rbt.Parameter_File>
/export/apps/rDock/src/rDock_2013.1_src/data/scripts/dock_solv.prm

>  <Rbt.Receptor>
prm/blind_docking_80.prm

>  <SCORE>
-5.55695

>  <SCORE.INTER>
-5.55695

>  <SCORE.INTER.CONST>
1

>  <SCORE.INTER.POLAR>
0

>  <SCORE.INTER.ROT>
0

>  <SCORE.INTER.SOLV>
1.77173

>  <SCORE.INTER.VDW>
-7.89521

>  <SCORE.INTER.norm>
-1.38924

>  <SCORE.INTRA>
0

>  <SCORE.INTRA.DIHEDRAL>
0

>  <SCORE.INTRA.DIHEDRAL.0>
0

>  <SCORE.INTRA.POLAR>
0

>  <SCORE.INTRA.POLAR.0>
0

>  <SCORE.INTRA.REPUL>
0

>  <SCORE.INTRA.REPUL.0>
0

>  <SCORE.INTRA.SOLV>
0

>  <SCORE.INTRA.SOLV.lig_0>
0.449748

>  <SCORE.INTRA.VDW>
0

>  <SCORE.INTRA.VDW.0>
0

>  <SCORE.INTRA.norm>
0

>  <SCORE.RESTR>
0

>  <SCORE.RESTR.CAVITY>
0

>  <SCORE.RESTR.norm>
0

>  <SCORE.SYSTEM>
0

>  <SCORE.SYSTEM.CONST>
0

>  <SCORE.SYSTEM.DIHEDRAL>
0

>  <SCORE.SYSTEM.SOLV>
0

>  <SCORE.SYSTEM.norm>
0

>  <SCORE.heavy>
4

>  <SCORE.norm>
-1.38924

>  <RMSD>
26.447

$$$$
ligand
 OpenBabel11021811493D
libRbt.so/2013.1/901 2013/11/27
  4  3  0  0  0  0  0  0  0  0999 V2000
   11.3607   11.8604    5.0049 C   0  0  0  0  0  0  0  0  0  0  0  0
   11.2715   11.8978    3.7577 O   0  0  0  0  0  0  0  0  0  0  0  0
   11.1736   13.1831    5.7362 C   0  0  0  0  0  0  0  0  0  0  0  0
   11.5979   10.8244    5.7689 O   0  0  0  0  0  0  0  0  0  0  0  0
  1  2  1  0  0  0  0
  1  3  1  0  0  0  0
  1  4  1  0  0  0  0
M  END
>  <CHROM.1>
11.35315495,11.92659450,5.06020096,0.52969293,1.38204623,-1.92793156

>  <Name>
ligand

>  <RI>
0

>  <Rbt.Current_Directory>
/home/itssahil/PROJECTS/Mol_Feturizer/New_Systems/rnas/4FEN

>  <Rbt.Executable>
rbdock ($Id: //depot/dev/client3/rdock/2013.1/src/exe/rbdock.cxx#4 $)

>  <Rbt.Library>
libRbt.so (2013.1, Build901 2013/11/27)

>  <Rbt.Parameter_File>
/export/apps/rDock/src/rDock_2013.1_src/data/scripts/dock_solv.prm

>  <Rbt.Receptor>
prm/blind_docking_20.prm

>  <SCORE>
-5.60586

>  <SCORE.INTER>
-5.60586

>  <SCORE.INTER.CONST>
1

>  <SCORE.INTER.POLAR>
0

>  <SCORE.INTER.ROT>
0

>  <SCORE.INTER.SOLV>
1.76939

>  <SCORE.INTER.VDW>
-7.92704

>  <SCORE.INTER.norm>
-1.40147

>  <SCORE.INTRA>
0

>  <SCORE.INTRA.DIHEDRAL>
0

>  <SCORE.INTRA.DIHEDRAL.0>
0

>  <SCORE.INTRA.POLAR>
0

>  <SCORE.INTRA.POLAR.0>
0

>  <SCORE.INTRA.REPUL>
0

>  <SCORE.INTRA.REPUL.0>
0

>  <SCORE.INTRA.SOLV>
0

>  <SCORE.INTRA.SOLV.lig_0>
0.449748

>  <SCORE.INTRA.VDW>
0

>  <SCORE.INTRA.VDW.0>
0

>  <SCORE.INTRA.norm>
0

>  <SCORE.RESTR>
0

>  <SCORE.RESTR.CAVITY>
0

>  <SCORE.RESTR.norm>
0

>  <SCORE.SYSTEM>
0

>  <SCORE.SYSTEM.CONST>
0

>  <SCORE.SYSTEM.DIHEDRAL>
0

>  <SCORE.SYSTEM.SOLV>
0

>  <SCORE.SYSTEM.norm>
0

>  <SCORE.heavy>
4

>  <SCORE.norm>
-1.40147

>  <RMSD>
26.448

$$$$
ligand
 OpenBabel11021811493D
libRbt.so/2013.1/901 2013/11/27
  4  3  0  0  0  0  0  0  0  0999 V2000
   11.3445   11.9276    5.0014 C   0  0  0  0  0  0  0  0  0  0  0  0
   11.5828   10.9027    5.6778 O   0  0  0  0  0  0  0  0  0  0  0  0
   11.2047   13.2315    5.7758 C   0  0  0  0  0  0  0  0  0  0  0  0
   11.1967   12.0256    3.7045 O   0  0  0  0  0  0  0  0  0  0  0  0
  1  2  1  0  0  0  0
  1  3  1  0  0  0  0
  1  4  1  0  0  0  0
M  END
>  <CHROM.1>
11.33343549,12.00841015,5.03045648,-1.39613886,-1.37847332,1.02646497

>  <Name>
ligand

>  <RI>
0

>  <Rbt.Current_Directory>
/home/itssahil/PROJECTS/Mol_Feturizer/New_Systems/rnas/4FEN

>  <Rbt.Executable>
rbdock ($Id: //depot/dev/client3/rdock/2013.1/src/exe/rbdock.cxx#4 $)

>  <Rbt.Library>
libRbt.so (2013.1, Build901 2013/11/27)

>  <Rbt.Parameter_File>
/export/apps/rDock/src/rDock_2013.1_src/data/scripts/dock_solv.prm

>  <Rbt.Receptor>
prm/blind_docking_40.prm

>  <SCORE>
-5.57233

>  <SCORE.INTER>
-5.57233

>  <SCORE.INTER.CONST>
1

>  <SCORE.INTER.POLAR>
0

>  <SCORE.INTER.ROT>
0

>  <SCORE.INTER.SOLV>
1.76916

>  <SCORE.INTER.VDW>
-7.90461

>  <SCORE.INTER.norm>
-1.39308

>  <SCORE.INTRA>
0

>  <SCORE.INTRA.DIHEDRAL>
0

>  <SCORE.INTRA.DIHEDRAL.0>
0

>  <SCORE.INTRA.POLAR>
0

>  <SCORE.INTRA.POLAR.0>
0

>  <SCORE.INTRA.REPUL>
0

>  <SCORE.INTRA.REPUL.0>
0

>  <SCORE.INTRA.SOLV>
0

>  <SCORE.INTRA.SOLV.lig_0>
0.449748

>  <SCORE.INTRA.VDW>
0

>  <SCORE.INTRA.VDW.0>
0

>  <SCORE.INTRA.norm>
0

>  <SCORE.RESTR>
0

>  <SCORE.RESTR.CAVITY>
0

>  <SCORE.RESTR.norm>
0

>  <SCORE.SYSTEM>
0

>  <SCORE.SYSTEM.CONST>
0

>  <SCORE.SYSTEM.DIHEDRAL>
0

>  <SCORE.SYSTEM.SOLV>
0

>  <SCORE.SYSTEM.norm>
0

>  <SCORE.heavy>
4

>  <SCORE.norm>
-1.39308

>  <RMSD>
26.448

$$$$
ligand
 OpenBabel11021811493D
libRbt.so/2013.1/901 2013/11/27
  4  3  0  0  0  0  0  0  0  0999 V2000
   11.3663   11.8530    5.0223 C   0  0  0  0  0  0  0  0  0  0  0  0
   11.5741   10.8509    5.7416 O   0  0  0  0  0  0  0  0  0  0  0  0
   11.1722   13.1778    5.7480 C   0  0  0  0  0  0  0  0  0  0  0  0
   11.2914   11.9111    3.7168 O   0  0  0  0  0  0  0  0  0  0  0  0
  1  2  1  0  0  0  0
  1  3  1  0  0  0  0
  1  4  1  0  0  0  0
M  END
>  <CHROM.1>
11.35290047,11.93452368,5.04824660,-1.09357350,-1.39295550,1.29405748

>  <Name>
ligand

>  <RI>
0

>  <Rbt.Current_Directory>
/home/itssahil/PROJECTS/Mol_Feturizer/New_Systems/rnas/4FEN

>  <Rbt.Executable>
rbdock ($Id: //depot/dev/client3/rdock/2013.1/src/exe/rbdock.cxx#4 $)

>  <Rbt.Library>
libRbt.so (2013.1, Build901 2013/11/27)

>  <Rbt.Parameter_File>
/export/apps/rDock/src/rDock_2013.1_src/data/scripts/dock_solv.prm

>  <Rbt.Receptor>
prm/blind_docking_40.prm

>  <SCORE>
-5.53567

>  <SCORE.INTER>
-5.53567

>  <SCORE.INTER.CONST>
1

>  <SCORE.INTER.POLAR>
0

>  <SCORE.INTER.ROT>
0

>  <SCORE.INTER.SOLV>
1.76945

>  <SCORE.INTER.VDW>
-7.88026

>  <SCORE.INTER.norm>
-1.38392

>  <SCORE.INTRA>
0

>  <SCORE.INTRA.DIHEDRAL>
0

>  <SCORE.INTRA.DIHEDRAL.0>
0

>  <SCORE.INTRA.POLAR>
0

>  <SCORE.INTRA.POLAR.0>
0

>  <SCORE.INTRA.REPUL>
0

>  <SCORE.INTRA.REPUL.0>
0

>  <SCORE.INTRA.SOLV>
0

>  <SCORE.INTRA.SOLV.lig_0>
0.449748

>  <SCORE.INTRA.VDW>
0

>  <SCORE.INTRA.VDW.0>
0

>  <SCORE.INTRA.norm>
0

>  <SCORE.RESTR>
0

>  <SCORE.RESTR.CAVITY>
0

>  <SCORE.RESTR.norm>
0

>  <SCORE.SYSTEM>
0

>  <SCORE.SYSTEM.CONST>
0

>  <SCORE.SYSTEM.DIHEDRAL>
0

>  <SCORE.SYSTEM.SOLV>
0

>  <SCORE.SYSTEM.norm>
0

>  <SCORE.heavy>
4

>  <SCORE.norm>
-1.38392

>  <RMSD>
26.448

$$$$
ligand
 OpenBabel11021811493D
libRbt.so/2013.1/901 2013/11/27
  4  3  0  0  0  0  0  0  0  0999 V2000
   11.3552   11.8687    5.0109 C   0  0  0  0  0  0  0  0  0  0  0  0
   11.2747   11.9160    3.7635 O   0  0  0  0  0  0  0  0  0  0  0  0
   11.1851   13.1894    5.7500 C   0  0  0  0  0  0  0  0  0  0  0  0
   11.5702   10.8239    5.7694 O   0  0  0  0  0  0  0  0  0  0  0  0
  1  2  1  0  0  0  0
  1  3  1  0  0  0  0
  1  4  1  0  0  0  0
M  END
>  <CHROM.1>
11.34831954,11.93471446,5.06660461,0.52749632,1.39980443,-1.91899897

>  <Name>
ligand

>  <RI>
0

>  <Rbt.Current_Directory>
/home/itssahil/PROJECTS/Mol_Feturizer/New_Systems/rnas/4FEN

>  <Rbt.Executable>
rbdock ($Id: //depot/dev/client3/rdock/2013.1/src/exe/rbdock.cxx#4 $)

>  <Rbt.Library>
libRbt.so (2013.1, Build901 2013/11/27)

>  <Rbt.Parameter_File>
/export/apps/rDock/src/rDock_2013.1_src/data/scripts/dock_solv.prm

>  <Rbt.Receptor>
prm/blind_docking_60.prm

>  <SCORE>
-5.60481

>  <SCORE.INTER>
-5.60481

>  <SCORE.INTER.CONST>
1

>  <SCORE.INTER.POLAR>
0

>  <SCORE.INTER.ROT>
0

>  <SCORE.INTER.SOLV>
1.77193

>  <SCORE.INTER.VDW>
-7.92718

>  <SCORE.INTER.norm>
-1.4012

>  <SCORE.INTRA>
0

>  <SCORE.INTRA.DIHEDRAL>
0

>  <SCORE.INTRA.DIHEDRAL.0>
0

>  <SCORE.INTRA.POLAR>
0

>  <SCORE.INTRA.POLAR.0>
0

>  <SCORE.INTRA.REPUL>
0

>  <SCORE.INTRA.REPUL.0>
0

>  <SCORE.INTRA.SOLV>
0

>  <SCORE.INTRA.SOLV.lig_0>
0.449748

>  <SCORE.INTRA.VDW>
0

>  <SCORE.INTRA.VDW.0>
0

>  <SCORE.INTRA.norm>
0

>  <SCORE.RESTR>
0

>  <SCORE.RESTR.CAVITY>
0

>  <SCORE.RESTR.norm>
0

>  <SCORE.SYSTEM>
0

>  <SCORE.SYSTEM.CONST>
0

>  <SCORE.SYSTEM.DIHEDRAL>
0

>  <SCORE.SYSTEM.SOLV>
0

>  <SCORE.SYSTEM.norm>
0

>  <SCORE.heavy>
4

>  <SCORE.norm>
-1.4012

>  <RMSD>
26.448

$$$$
ligand
 OpenBabel11021811493D
libRbt.so/2013.1/901 2013/11/27
  4  3  0  0  0  0  0  0  0  0999 V2000
   11.3625   11.8587    4.9996 C   0  0  0  0  0  0  0  0  0  0  0  0
   11.2994   11.8997    3.7510 O   0  0  0  0  0  0  0  0  0  0  0  0
   11.1580   13.1790    5.7307 C   0  0  0  0  0  0  0  0  0  0  0  0
   11.5849   10.8209    5.7655 O   0  0  0  0  0  0  0  0  0  0  0  0
  1  2  1  0  0  0  0
  1  3  1  0  0  0  0
  1  4  1  0  0  0  0
M  END
>  <CHROM.1>
11.35361050,11.92477860,5.05497911,0.41878624,1.38698426,-1.81603028

>  <Name>
ligand

>  <RI>
0

>  <Rbt.Current_Directory>
/home/itssahil/PROJECTS/Mol_Feturizer/New_Systems/rnas/4FEN

>  <Rbt.Executable>
rbdock ($Id: //depot/dev/client3/rdock/2013.1/src/exe/rbdock.cxx#4 $)

>  <Rbt.Library>
libRbt.so (2013.1, Build901 2013/11/27)

>  <Rbt.Parameter_File>
/export/apps/rDock/src/rDock_2013.1_src/data/scripts/dock_solv.prm

>  <Rbt.Receptor>
prm/blind_docking_100.prm

>  <SCORE>
-5.5933

>  <SCORE.INTER>
-5.5933

>  <SCORE.INTER.CONST>
1

>  <SCORE.INTER.POLAR>
0

>  <SCORE.INTER.ROT>
0

>  <SCORE.INTER.SOLV>
1.76958

>  <SCORE.INTER.VDW>
-7.91873

>  <SCORE.INTER.norm>
-1.39832

>  <SCORE.INTRA>
0

>  <SCORE.INTRA.DIHEDRAL>
0

>  <SCORE.INTRA.DIHEDRAL.0>
0

>  <SCORE.INTRA.POLAR>
0

>  <SCORE.INTRA.POLAR.0>
0

>  <SCORE.INTRA.REPUL>
0

>  <SCORE.INTRA.REPUL.0>
0

>  <SCORE.INTRA.SOLV>
0

>  <SCORE.INTRA.SOLV.lig_0>
0.449748

>  <SCORE.INTRA.VDW>
0

>  <SCORE.INTRA.VDW.0>
0

>  <SCORE.INTRA.norm>
0

>  <SCORE.RESTR>
0

>  <SCORE.RESTR.CAVITY>
0

>  <SCORE.RESTR.norm>
0

>  <SCORE.SYSTEM>
0

>  <SCORE.SYSTEM.CONST>
0

>  <SCORE.SYSTEM.DIHEDRAL>
0

>  <SCORE.SYSTEM.SOLV>
0

>  <SCORE.SYSTEM.norm>
0

>  <SCORE.heavy>
4

>  <SCORE.norm>
-1.39832

>  <RMSD>
26.449

$$$$
ligand
 OpenBabel11021811493D
libRbt.so/2013.1/901 2013/11/27
  4  3  0  0  0  0  0  0  0  0999 V2000
   11.3569   11.8755    5.0191 C   0  0  0  0  0  0  0  0  0  0  0  0
   11.5668   10.8671    5.7289 O   0  0  0  0  0  0  0  0  0  0  0  0
   11.1879   13.1976    5.7558 C   0  0  0  0  0  0  0  0  0  0  0  0
   11.2608   11.9423    3.7154 O   0  0  0  0  0  0  0  0  0  0  0  0
  1  2  1  0  0  0  0
  1  3  1  0  0  0  0
  1  4  1  0  0  0  0
M  END
>  <CHROM.1>
11.34470744,11.95700126,5.04575416,-1.20194941,-1.39686379,1.19340195

>  <Name>
ligand

>  <RI>
0

>  <Rbt.Current_Directory>
/home/itssahil/PROJECTS/Mol_Feturizer/New_Systems/rnas/4FEN

>  <Rbt.Executable>
rbdock ($Id: //depot/dev/client3/rdock/2013.1/src/exe/rbdock.cxx#4 $)

>  <Rbt.Library>
libRbt.so (2013.1, Build901 2013/11/27)

>  <Rbt.Parameter_File>
/export/apps/rDock/src/rDock_2013.1_src/data/scripts/dock_solv.prm

>  <Rbt.Receptor>
prm/blind_docking_20.prm

>  <SCORE>
-5.5476

>  <SCORE.INTER>
-5.5476

>  <SCORE.INTER.CONST>
1

>  <SCORE.INTER.POLAR>
0

>  <SCORE.INTER.ROT>
0

>  <SCORE.INTER.SOLV>
1.77163

>  <SCORE.INTER.VDW>
-7.88894

>  <SCORE.INTER.norm>
-1.3869

>  <SCORE.INTRA>
0

>  <SCORE.INTRA.DIHEDRAL>
0

>  <SCORE.INTRA.DIHEDRAL.0>
0

>  <SCORE.INTRA.POLAR>
0

>  <SCORE.INTRA.POLAR.0>
0

>  <SCORE.INTRA.REPUL>
0

>  <SCORE.INTRA.REPUL.0>
0

>  <SCORE.INTRA.SOLV>
0

>  <SCORE.INTRA.SOLV.lig_0>
0.449748

>  <SCORE.INTRA.VDW>
0

>  <SCORE.INTRA.VDW.0>
0

>  <SCORE.INTRA.norm>
0

>  <SCORE.RESTR>
0

>  <SCORE.RESTR.CAVITY>
0

>  <SCORE.RESTR.norm>
0

>  <SCORE.SYSTEM>
0

>  <SCORE.SYSTEM.CONST>
0

>  <SCORE.SYSTEM.DIHEDRAL>
0

>  <SCORE.SYSTEM.SOLV>
0

>  <SCORE.SYSTEM.norm>
0

>  <SCORE.heavy>
4

>  <SCORE.norm>
-1.3869

>  <RMSD>
26.449

$$$$
ligand
 OpenBabel11021811493D
libRbt.so/2013.1/901 2013/11/27
  4  3  0  0  0  0  0  0  0  0999 V2000
   11.3506   11.8807    5.0074 C   0  0  0  0  0  0  0  0  0  0  0  0
   11.2341   11.9277    3.7629 O   0  0  0  0  0  0  0  0  0  0  0  0
   11.1914   13.1998    5.7517 C   0  0  0  0  0  0  0  0  0  0  0  0
   11.5955   10.8374    5.7590 O   0  0  0  0  0  0  0  0  0  0  0  0
  1  2  1  0  0  0  0
  1  3  1  0  0  0  0
  1  4  1  0  0  0  0
M  END
>  <CHROM.1>
11.34484639,11.94662979,5.06336595,0.65635012,1.38111212,-2.04543547

>  <Name>
ligand

>  <RI>
0

>  <Rbt.Current_Directory>
/home/itssahil/PROJECTS/Mol_Feturizer/New_Systems/rnas/4FEN

>  <Rbt.Executable>
rbdock ($Id: //depot/dev/client3/rdock/2013.1/src/exe/rbdock.cxx#4 $)

>  <Rbt.Library>
libRbt.so (2013.1, Build901 2013/11/27)

>  <Rbt.Parameter_File>
/export/apps/rDock/src/rDock_2013.1_src/data/scripts/dock_solv.prm

>  <Rbt.Receptor>
prm/blind_docking_20.prm

>  <SCORE>
-5.61009

>  <SCORE.INTER>
-5.61009

>  <SCORE.INTER.CONST>
1

>  <SCORE.INTER.POLAR>
0

>  <SCORE.INTER.ROT>
0

>  <SCORE.INTER.SOLV>
1.77056

>  <SCORE.INTER.VDW>
-7.93025

>  <SCORE.INTER.norm>
-1.40252

>  <SCORE.INTRA>
0

>  <SCORE.INTRA.DIHEDRAL>
0

>  <SCORE.INTRA.DIHEDRAL.0>
0

>  <SCORE.INTRA.POLAR>
0

>  <SCORE.INTRA.POLAR.0>
0

>  <SCORE.INTRA.REPUL>
0

>  <SCORE.INTRA.REPUL.0>
0

>  <SCORE.INTRA.SOLV>
0

>  <SCORE.INTRA.SOLV.lig_0>
0.449748

>  <SCORE.INTRA.VDW>
0

>  <SCORE.INTRA.VDW.0>
0

>  <SCORE.INTRA.norm>
0

>  <SCORE.RESTR>
0

>  <SCORE.RESTR.CAVITY>
0

>  <SCORE.RESTR.norm>
0

>  <SCORE.SYSTEM>
0

>  <SCORE.SYSTEM.CONST>
0

>  <SCORE.SYSTEM.DIHEDRAL>
0

>  <SCORE.SYSTEM.SOLV>
0

>  <SCORE.SYSTEM.norm>
0

>  <SCORE.heavy>
4

>  <SCORE.norm>
-1.40252

>  <RMSD>
26.449

$$$$
ligand
 OpenBabel11021811493D
libRbt.so/2013.1/901 2013/11/27
  4  3  0  0  0  0  0  0  0  0999 V2000
   11.3497   11.9206    4.9907 C   0  0  0  0  0  0  0  0  0  0  0  0
   11.5853   10.8921    5.6626 O   0  0  0  0  0  0  0  0  0  0  0  0
   11.1836   13.2164    5.7736 C   0  0  0  0  0  0  0  0  0  0  0  0
   11.2244   12.0286    3.6923 O   0  0  0  0  0  0  0  0  0  0  0  0
  1  2  1  0  0  0  0
  1  3  1  0  0  0  0
  1  4  1  0  0  0  0
M  END
>  <CHROM.1>
11.33731116,12.00111811,5.02029623,-1.28938924,-1.37869580,1.13989428

>  <Name>
ligand

>  <RI>
0

>  <Rbt.Current_Directory>
/home/itssahil/PROJECTS/Mol_Feturizer/New_Systems/rnas/4FEN

>  <Rbt.Executable>
rbdock ($Id: //depot/dev/client3/rdock/2013.1/src/exe/rbdock.cxx#4 $)

>  <Rbt.Library>
libRbt.so (2013.1, Build901 2013/11/27)

>  <Rbt.Parameter_File>
/export/apps/rDock/src/rDock_2013.1_src/data/scripts/dock_solv.prm

>  <Rbt.Receptor>
prm/blind_docking_20.prm

>  <SCORE>
-5.56475

>  <SCORE.INTER>
-5.56475

>  <SCORE.INTER.CONST>
1

>  <SCORE.INTER.POLAR>
0

>  <SCORE.INTER.ROT>
0

>  <SCORE.INTER.SOLV>
1.76788

>  <SCORE.INTER.VDW>
-7.89913

>  <SCORE.INTER.norm>
-1.39119

>  <SCORE.INTRA>
0

>  <SCORE.INTRA.DIHEDRAL>
0

>  <SCORE.INTRA.DIHEDRAL.0>
0

>  <SCORE.INTRA.POLAR>
0

>  <SCORE.INTRA.POLAR.0>
0

>  <SCORE.INTRA.REPUL>
0

>  <SCORE.INTRA.REPUL.0>
0

>  <SCORE.INTRA.SOLV>
0

>  <SCORE.INTRA.SOLV.lig_0>
0.449748

>  <SCORE.INTRA.VDW>
0

>  <SCORE.INTRA.VDW.0>
0

>  <SCORE.INTRA.norm>
0

>  <SCORE.RESTR>
0

>  <SCORE.RESTR.CAVITY>
0

>  <SCORE.RESTR.norm>
0

>  <SCORE.SYSTEM>
0

>  <SCORE.SYSTEM.CONST>
0

>  <SCORE.SYSTEM.DIHEDRAL>
0

>  <SCORE.SYSTEM.SOLV>
0

>  <SCORE.SYSTEM.norm>
0

>  <SCORE.heavy>
4

>  <SCORE.norm>
-1.39119

>  <RMSD>
26.449

$$$$
ligand
 OpenBabel11021811493D
libRbt.so/2013.1/901 2013/11/27
  4  3  0  0  0  0  0  0  0  0999 V2000
   11.3443   11.9315    4.9966 C   0  0  0  0  0  0  0  0  0  0  0  0
   11.5517   10.8987    5.6711 O   0  0  0  0  0  0  0  0  0  0  0  0
   11.1963   13.2307    5.7774 C   0  0  0  0  0  0  0  0  0  0  0  0
   11.2351   12.0414    3.6969 O   0  0  0  0  0  0  0  0  0  0  0  0
  1  2  1  0  0  0  0
  1  3  1  0  0  0  0
  1  4  1  0  0  0  0
M  END
>  <CHROM.1>
11.33323622,12.01223458,5.02599924,-1.28247473,-1.40165214,1.14639292

>  <Name>
ligand

>  <RI>
0

>  <Rbt.Current_Directory>
/home/itssahil/PROJECTS/Mol_Feturizer/New_Systems/rnas/4FEN

>  <Rbt.Executable>
rbdock ($Id: //depot/dev/client3/rdock/2013.1/src/exe/rbdock.cxx#4 $)

>  <Rbt.Library>
libRbt.so (2013.1, Build901 2013/11/27)

>  <Rbt.Parameter_File>
/export/apps/rDock/src/rDock_2013.1_src/data/scripts/dock_solv.prm

>  <Rbt.Receptor>
prm/blind_docking_40.prm

>  <SCORE>
-5.5654

>  <SCORE.INTER>
-5.5654

>  <SCORE.INTER.CONST>
1

>  <SCORE.INTER.POLAR>
0

>  <SCORE.INTER.ROT>
0

>  <SCORE.INTER.SOLV>
1.77215

>  <SCORE.INTER.VDW>
-7.90099

>  <SCORE.INTER.norm>
-1.39135

>  <SCORE.INTRA>
0

>  <SCORE.INTRA.DIHEDRAL>
0

>  <SCORE.INTRA.DIHEDRAL.0>
0

>  <SCORE.INTRA.POLAR>
0

>  <SCORE.INTRA.POLAR.0>
0

>  <SCORE.INTRA.REPUL>
0

>  <SCORE.INTRA.REPUL.0>
0

>  <SCORE.INTRA.SOLV>
0

>  <SCORE.INTRA.SOLV.lig_0>
0.449748

>  <SCORE.INTRA.VDW>
0

>  <SCORE.INTRA.VDW.0>
0

>  <SCORE.INTRA.norm>
0

>  <SCORE.RESTR>
0

>  <SCORE.RESTR.CAVITY>
0

>  <SCORE.RESTR.norm>
0

>  <SCORE.SYSTEM>
0

>  <SCORE.SYSTEM.CONST>
0

>  <SCORE.SYSTEM.DIHEDRAL>
0

>  <SCORE.SYSTEM.SOLV>
0

>  <SCORE.SYSTEM.norm>
0

>  <SCORE.heavy>
4

>  <SCORE.norm>
-1.39135

>  <RMSD>
26.449

$$$$
ligand
 OpenBabel11021811493D
libRbt.so/2013.1/901 2013/11/27
  4  3  0  0  0  0  0  0  0  0999 V2000
   11.3340   11.9869    4.9632 C   0  0  0  0  0  0  0  0  0  0  0  0
   11.5927   10.9407    5.5982 O   0  0  0  0  0  0  0  0  0  0  0  0
   11.2038   13.2622    5.7854 C   0  0  0  0  0  0  0  0  0  0  0  0
   11.1574   12.1289    3.6741 O   0  0  0  0  0  0  0  0  0  0  0  0
  1  2  1  0  0  0  0
  1  3  1  0  0  0  0
  1  4  1  0  0  0  0
M  END
>  <CHROM.1>
11.32308738,12.06658957,4.99530099,-1.47203160,-1.36173657,0.98688866

>  <Name>
ligand

>  <RI>
0

>  <Rbt.Current_Directory>
/home/itssahil/PROJECTS/Mol_Feturizer/New_Systems/rnas/4FEN

>  <Rbt.Executable>
rbdock ($Id: //depot/dev/client3/rdock/2013.1/src/exe/rbdock.cxx#4 $)

>  <Rbt.Library>
libRbt.so (2013.1, Build901 2013/11/27)

>  <Rbt.Parameter_File>
/export/apps/rDock/src/rDock_2013.1_src/data/scripts/dock_solv.prm

>  <Rbt.Receptor>
prm/blind_docking_40.prm

>  <SCORE>
-5.56796

>  <SCORE.INTER>
-5.56796

>  <SCORE.INTER.CONST>
1

>  <SCORE.INTER.POLAR>
0

>  <SCORE.INTER.ROT>
0

>  <SCORE.INTER.SOLV>
1.77663

>  <SCORE.INTER.VDW>
-7.90418

>  <SCORE.INTER.norm>
-1.39199

>  <SCORE.INTRA>
0

>  <SCORE.INTRA.DIHEDRAL>
0

>  <SCORE.INTRA.DIHEDRAL.0>
0

>  <SCORE.INTRA.POLAR>
0

>  <SCORE.INTRA.POLAR.0>
0

>  <SCORE.INTRA.REPUL>
0

>  <SCORE.INTRA.REPUL.0>
0

>  <SCORE.INTRA.SOLV>
0

>  <SCORE.INTRA.SOLV.lig_0>
0.449748

>  <SCORE.INTRA.VDW>
0

>  <SCORE.INTRA.VDW.0>
0

>  <SCORE.INTRA.norm>
0

>  <SCORE.RESTR>
0

>  <SCORE.RESTR.CAVITY>
0

>  <SCORE.RESTR.norm>
0

>  <SCORE.SYSTEM>
0

>  <SCORE.SYSTEM.CONST>
0

>  <SCORE.SYSTEM.DIHEDRAL>
0

>  <SCORE.SYSTEM.SOLV>
0

>  <SCORE.SYSTEM.norm>
0

>  <SCORE.heavy>
4

>  <SCORE.norm>
-1.39199

>  <RMSD>
26.449

$$$$
ligand
 OpenBabel11021811493D
libRbt.so/2013.1/901 2013/11/27
  4  3  0  0  0  0  0  0  0  0999 V2000
   11.3639   11.8502    5.0273 C   0  0  0  0  0  0  0  0  0  0  0  0
   11.5657   10.8467    5.7464 O   0  0  0  0  0  0  0  0  0  0  0  0
   11.1810   13.1765    5.7532 C   0  0  0  0  0  0  0  0  0  0  0  0
   11.2870   11.9087    3.7220 O   0  0  0  0  0  0  0  0  0  0  0  0
  1  2  1  0  0  0  0
  1  3  1  0  0  0  0
  1  4  1  0  0  0  0
M  END
>  <CHROM.1>
11.35115847,11.93184386,5.05327814,-1.11621533,-1.39950848,1.27163242

>  <Name>
ligand

>  <RI>
0

>  <Rbt.Current_Directory>
/home/itssahil/PROJECTS/Mol_Feturizer/New_Systems/rnas/4FEN

>  <Rbt.Executable>
rbdock ($Id: //depot/dev/client3/rdock/2013.1/src/exe/rbdock.cxx#4 $)

>  <Rbt.Library>
libRbt.so (2013.1, Build901 2013/11/27)

>  <Rbt.Parameter_File>
/export/apps/rDock/src/rDock_2013.1_src/data/scripts/dock_solv.prm

>  <Rbt.Receptor>
prm/blind_docking_60.prm

>  <SCORE>
-5.53951

>  <SCORE.INTER>
-5.53951

>  <SCORE.INTER.CONST>
1

>  <SCORE.INTER.POLAR>
0

>  <SCORE.INTER.ROT>
0

>  <SCORE.INTER.SOLV>
1.76998

>  <SCORE.INTER.VDW>
-7.883

>  <SCORE.INTER.norm>
-1.38488

>  <SCORE.INTRA>
0

>  <SCORE.INTRA.DIHEDRAL>
0

>  <SCORE.INTRA.DIHEDRAL.0>
0

>  <SCORE.INTRA.POLAR>
0

>  <SCORE.INTRA.POLAR.0>
0

>  <SCORE.INTRA.REPUL>
0

>  <SCORE.INTRA.REPUL.0>
0

>  <SCORE.INTRA.SOLV>
0

>  <SCORE.INTRA.SOLV.lig_0>
0.449748

>  <SCORE.INTRA.VDW>
0

>  <SCORE.INTRA.VDW.0>
0

>  <SCORE.INTRA.norm>
0

>  <SCORE.RESTR>
0

>  <SCORE.RESTR.CAVITY>
0

>  <SCORE.RESTR.norm>
0

>  <SCORE.SYSTEM>
0

>  <SCORE.SYSTEM.CONST>
0

>  <SCORE.SYSTEM.DIHEDRAL>
0

>  <SCORE.SYSTEM.SOLV>
0

>  <SCORE.SYSTEM.norm>
0

>  <SCORE.heavy>
4

>  <SCORE.norm>
-1.38488

>  <RMSD>
26.449

$$$$
ligand
 OpenBabel11021811493D
libRbt.so/2013.1/901 2013/11/27
  4  3  0  0  0  0  0  0  0  0999 V2000
   11.3542   11.8678    5.0138 C   0  0  0  0  0  0  0  0  0  0  0  0
   11.2482   11.9070    3.7680 O   0  0  0  0  0  0  0  0  0  0  0  0
   11.1773   13.1896    5.7493 C   0  0  0  0  0  0  0  0  0  0  0  0
   11.6013   10.8308    5.7732 O   0  0  0  0  0  0  0  0  0  0  0  0
  1  2  1  0  0  0  0
  1  3  1  0  0  0  0
  1  4  1  0  0  0  0
M  END
>  <CHROM.1>
11.34738844,11.93397101,5.06926771,0.59582147,1.37724791,-1.99151087

>  <Name>
ligand

>  <RI>
0

>  <Rbt.Current_Directory>
/home/itssahil/PROJECTS/Mol_Feturizer/New_Systems/rnas/4FEN

>  <Rbt.Executable>
rbdock ($Id: //depot/dev/client3/rdock/2013.1/src/exe/rbdock.cxx#4 $)

>  <Rbt.Library>
libRbt.so (2013.1, Build901 2013/11/27)

>  <Rbt.Parameter_File>
/export/apps/rDock/src/rDock_2013.1_src/data/scripts/dock_solv.prm

>  <Rbt.Receptor>
prm/blind_docking_60.prm

>  <SCORE>
-5.60716

>  <SCORE.INTER>
-5.60716

>  <SCORE.INTER.CONST>
1

>  <SCORE.INTER.POLAR>
0

>  <SCORE.INTER.ROT>
0

>  <SCORE.INTER.SOLV>
1.76822

>  <SCORE.INTER.VDW>
-7.92751

>  <SCORE.INTER.norm>
-1.40179

>  <SCORE.INTRA>
0

>  <SCORE.INTRA.DIHEDRAL>
0

>  <SCORE.INTRA.DIHEDRAL.0>
0

>  <SCORE.INTRA.POLAR>
0

>  <SCORE.INTRA.POLAR.0>
0

>  <SCORE.INTRA.REPUL>
0

>  <SCORE.INTRA.REPUL.0>
0

>  <SCORE.INTRA.SOLV>
0

>  <SCORE.INTRA.SOLV.lig_0>
0.449748

>  <SCORE.INTRA.VDW>
0

>  <SCORE.INTRA.VDW.0>
0

>  <SCORE.INTRA.norm>
0

>  <SCORE.RESTR>
0

>  <SCORE.RESTR.CAVITY>
0

>  <SCORE.RESTR.norm>
0

>  <SCORE.SYSTEM>
0

>  <SCORE.SYSTEM.CONST>
0

>  <SCORE.SYSTEM.DIHEDRAL>
0

>  <SCORE.SYSTEM.SOLV>
0

>  <SCORE.SYSTEM.norm>
0

>  <SCORE.heavy>
4

>  <SCORE.norm>
-1.40179

>  <RMSD>
26.449

$$$$
ligand
 OpenBabel11021811493D
libRbt.so/2013.1/901 2013/11/27
  4  3  0  0  0  0  0  0  0  0999 V2000
   11.3623   11.8565    4.9981 C   0  0  0  0  0  0  0  0  0  0  0  0
   11.3071   11.9041    3.7493 O   0  0  0  0  0  0  0  0  0  0  0  0
   11.1653   13.1751    5.7343 C   0  0  0  0  0  0  0  0  0  0  0  0
   11.5709   10.8130    5.7602 O   0  0  0  0  0  0  0  0  0  0  0  0
  1  2  1  0  0  0  0
  1  3  1  0  0  0  0
  1  4  1  0  0  0  0
M  END
>  <CHROM.1>
11.35370886,11.92241338,5.05367393,0.39782221,1.39706483,-1.79053514

>  <Name>
ligand

>  <RI>
0

>  <Rbt.Current_Directory>
/home/itssahil/PROJECTS/Mol_Feturizer/New_Systems/rnas/4FEN

>  <Rbt.Executable>
rbdock ($Id: //depot/dev/client3/rdock/2013.1/src/exe/rbdock.cxx#4 $)

>  <Rbt.Library>
libRbt.so (2013.1, Build901 2013/11/27)

>  <Rbt.Parameter_File>
/export/apps/rDock/src/rDock_2013.1_src/data/scripts/dock_solv.prm

>  <Rbt.Receptor>
prm/blind_docking_100.prm

>  <SCORE>
-5.58985

>  <SCORE.INTER>
-5.58985

>  <SCORE.INTER.CONST>
1

>  <SCORE.INTER.POLAR>
0

>  <SCORE.INTER.ROT>
0

>  <SCORE.INTER.SOLV>
1.77087

>  <SCORE.INTER.VDW>
-7.91686

>  <SCORE.INTER.norm>
-1.39746

>  <SCORE.INTRA>
0

>  <SCORE.INTRA.DIHEDRAL>
0

>  <SCORE.INTRA.DIHEDRAL.0>
0

>  <SCORE.INTRA.POLAR>
0

>  <SCORE.INTRA.POLAR.0>
0

>  <SCORE.INTRA.REPUL>
0

>  <SCORE.INTRA.REPUL.0>
0

>  <SCORE.INTRA.SOLV>
0

>  <SCORE.INTRA.SOLV.lig_0>
0.449748

>  <SCORE.INTRA.VDW>
0

>  <SCORE.INTRA.VDW.0>
0

>  <SCORE.INTRA.norm>
0

>  <SCORE.RESTR>
0

>  <SCORE.RESTR.CAVITY>
0

>  <SCORE.RESTR.norm>
0

>  <SCORE.SYSTEM>
0

>  <SCORE.SYSTEM.CONST>
0

>  <SCORE.SYSTEM.DIHEDRAL>
0

>  <SCORE.SYSTEM.SOLV>
0

>  <SCORE.SYSTEM.norm>
0

>  <SCORE.heavy>
4

>  <SCORE.norm>
-1.39746

>  <RMSD>
26.450

$$$$
ligand
 OpenBabel11021811493D
libRbt.so/2013.1/901 2013/11/27
  4  3  0  0  0  0  0  0  0  0999 V2000
   11.3495   11.8850    5.0010 C   0  0  0  0  0  0  0  0  0  0  0  0
   11.2560   11.9399    3.7548 O   0  0  0  0  0  0  0  0  0  0  0  0
   11.1856   13.2009    5.7499 C   0  0  0  0  0  0  0  0  0  0  0  0
   11.5736   10.8358    5.7507 O   0  0  0  0  0  0  0  0  0  0  0  0
  1  2  1  0  0  0  0
  1  3  1  0  0  0  0
  1  4  1  0  0  0  0
M  END
>  <CHROM.1>
11.34312877,11.95065436,5.05716706,0.58139579,1.39493493,-1.96594104

>  <Name>
ligand

>  <RI>
0

>  <Rbt.Current_Directory>
/home/itssahil/PROJECTS/Mol_Feturizer/New_Systems/rnas/4FEN

>  <Rbt.Executable>
rbdock ($Id: //depot/dev/client3/rdock/2013.1/src/exe/rbdock.cxx#4 $)

>  <Rbt.Library>
libRbt.so (2013.1, Build901 2013/11/27)

>  <Rbt.Parameter_File>
/export/apps/rDock/src/rDock_2013.1_src/data/scripts/dock_solv.prm

>  <Rbt.Receptor>
prm/blind_docking_100.prm

>  <SCORE>
-5.60742

>  <SCORE.INTER>
-5.60742

>  <SCORE.INTER.CONST>
1

>  <SCORE.INTER.POLAR>
0

>  <SCORE.INTER.ROT>
0

>  <SCORE.INTER.SOLV>
1.77253

>  <SCORE.INTER.VDW>
-7.92912

>  <SCORE.INTER.norm>
-1.40185

>  <SCORE.INTRA>
0

>  <SCORE.INTRA.DIHEDRAL>
0

>  <SCORE.INTRA.DIHEDRAL.0>
0

>  <SCORE.INTRA.POLAR>
0

>  <SCORE.INTRA.POLAR.0>
0

>  <SCORE.INTRA.REPUL>
0

>  <SCORE.INTRA.REPUL.0>
0

>  <SCORE.INTRA.SOLV>
0

>  <SCORE.INTRA.SOLV.lig_0>
0.449748

>  <SCORE.INTRA.VDW>
0

>  <SCORE.INTRA.VDW.0>
0

>  <SCORE.INTRA.norm>
0

>  <SCORE.RESTR>
0

>  <SCORE.RESTR.CAVITY>
0

>  <SCORE.RESTR.norm>
0

>  <SCORE.SYSTEM>
0

>  <SCORE.SYSTEM.CONST>
0

>  <SCORE.SYSTEM.DIHEDRAL>
0

>  <SCORE.SYSTEM.SOLV>
0

>  <SCORE.SYSTEM.norm>
0

>  <SCORE.heavy>
4

>  <SCORE.norm>
-1.40185

>  <RMSD>
26.450

$$$$
ligand
 OpenBabel11021811493D
libRbt.so/2013.1/901 2013/11/27
  4  3  0  0  0  0  0  0  0  0999 V2000
   11.3594   11.8645    5.0002 C   0  0  0  0  0  0  0  0  0  0  0  0
   11.2817   11.9022    3.7523 O   0  0  0  0  0  0  0  0  0  0  0  0
   11.1564   13.1853    5.7306 C   0  0  0  0  0  0  0  0  0  0  0  0
   11.5964   10.8296    5.7658 O   0  0  0  0  0  0  0  0  0  0  0  0
  1  2  1  0  0  0  0
  1  3  1  0  0  0  0
  1  4  1  0  0  0  0
M  END
>  <CHROM.1>
11.35088065,11.93061538,5.05548768,0.47093396,1.37864745,-1.86955566

>  <Name>
ligand

>  <RI>
0

>  <Rbt.Current_Directory>
/home/itssahil/PROJECTS/Mol_Feturizer/New_Systems/rnas/4FEN

>  <Rbt.Executable>
rbdock ($Id: //depot/dev/client3/rdock/2013.1/src/exe/rbdock.cxx#4 $)

>  <Rbt.Library>
libRbt.so (2013.1, Build901 2013/11/27)

>  <Rbt.Parameter_File>
/export/apps/rDock/src/rDock_2013.1_src/data/scripts/dock_solv.prm

>  <Rbt.Receptor>
prm/blind_docking_20.prm

>  <SCORE>
-5.59902

>  <SCORE.INTER>
-5.59902

>  <SCORE.INTER.CONST>
1

>  <SCORE.INTER.POLAR>
0

>  <SCORE.INTER.ROT>
0

>  <SCORE.INTER.SOLV>
1.76877

>  <SCORE.INTER.VDW>
-7.92227

>  <SCORE.INTER.norm>
-1.39976

>  <SCORE.INTRA>
0

>  <SCORE.INTRA.DIHEDRAL>
0

>  <SCORE.INTRA.DIHEDRAL.0>
0

>  <SCORE.INTRA.POLAR>
0

>  <SCORE.INTRA.POLAR.0>
0

>  <SCORE.INTRA.REPUL>
0

>  <SCORE.INTRA.REPUL.0>
0

>  <SCORE.INTRA.SOLV>
0

>  <SCORE.INTRA.SOLV.lig_0>
0.449748

>  <SCORE.INTRA.VDW>
0

>  <SCORE.INTRA.VDW.0>
0

>  <SCORE.INTRA.norm>
0

>  <SCORE.RESTR>
0

>  <SCORE.RESTR.CAVITY>
0

>  <SCORE.RESTR.norm>
0

>  <SCORE.SYSTEM>
0

>  <SCORE.SYSTEM.CONST>
0

>  <SCORE.SYSTEM.DIHEDRAL>
0

>  <SCORE.SYSTEM.SOLV>
0

>  <SCORE.SYSTEM.norm>
0

>  <SCORE.heavy>
4

>  <SCORE.norm>
-1.39976

>  <RMSD>
26.450

$$$$
ligand
 OpenBabel11021811493D
libRbt.so/2013.1/901 2013/11/27
  4  3  0  0  0  0  0  0  0  0999 V2000
   11.3437   11.9293    4.9923 C   0  0  0  0  0  0  0  0  0  0  0  0
   11.5635   10.8976    5.6647 O   0  0  0  0  0  0  0  0  0  0  0  0
   11.2045   13.2289    5.7741 C   0  0  0  0  0  0  0  0  0  0  0  0
   11.2148   12.0378    3.6943 O   0  0  0  0  0  0  0  0  0  0  0  0
  1  2  1  0  0  0  0
  1  3  1  0  0  0  0
  1  4  1  0  0  0  0
M  END
>  <CHROM.1>
11.33286573,12.01007328,5.02184740,-1.35418454,-1.39302628,1.07482416

>  <Name>
ligand

>  <RI>
0

>  <Rbt.Current_Directory>
/home/itssahil/PROJECTS/Mol_Feturizer/New_Systems/rnas/4FEN

>  <Rbt.Executable>
rbdock ($Id: //depot/dev/client3/rdock/2013.1/src/exe/rbdock.cxx#4 $)

>  <Rbt.Library>
libRbt.so (2013.1, Build901 2013/11/27)

>  <Rbt.Parameter_File>
/export/apps/rDock/src/rDock_2013.1_src/data/scripts/dock_solv.prm

>  <Rbt.Receptor>
prm/blind_docking_60.prm

>  <SCORE>
-5.57154

>  <SCORE.INTER>
-5.57154

>  <SCORE.INTER.CONST>
1

>  <SCORE.INTER.POLAR>
0

>  <SCORE.INTER.ROT>
0

>  <SCORE.INTER.SOLV>
1.77074

>  <SCORE.INTER.VDW>
-7.90461

>  <SCORE.INTER.norm>
-1.39289

>  <SCORE.INTRA>
0

>  <SCORE.INTRA.DIHEDRAL>
0

>  <SCORE.INTRA.DIHEDRAL.0>
0

>  <SCORE.INTRA.POLAR>
0

>  <SCORE.INTRA.POLAR.0>
0

>  <SCORE.INTRA.REPUL>
0

>  <SCORE.INTRA.REPUL.0>
0

>  <SCORE.INTRA.SOLV>
0

>  <SCORE.INTRA.SOLV.lig_0>
0.449748

>  <SCORE.INTRA.VDW>
0

>  <SCORE.INTRA.VDW.0>
0

>  <SCORE.INTRA.norm>
0

>  <SCORE.RESTR>
0

>  <SCORE.RESTR.CAVITY>
0

>  <SCORE.RESTR.norm>
0

>  <SCORE.SYSTEM>
0

>  <SCORE.SYSTEM.CONST>
0

>  <SCORE.SYSTEM.DIHEDRAL>
0

>  <SCORE.SYSTEM.SOLV>
0

>  <SCORE.SYSTEM.norm>
0

>  <SCORE.heavy>
4

>  <SCORE.norm>
-1.39289

>  <RMSD>
26.450

$$$$
ligand
 OpenBabel11021811493D
libRbt.so/2013.1/901 2013/11/27
  4  3  0  0  0  0  0  0  0  0999 V2000
   11.3485   11.9232    4.9874 C   0  0  0  0  0  0  0  0  0  0  0  0
   11.5551   10.8898    5.6613 O   0  0  0  0  0  0  0  0  0  0  0  0
   11.1828   13.2190    5.7703 C   0  0  0  0  0  0  0  0  0  0  0  0
   11.2535   12.0363    3.6869 O   0  0  0  0  0  0  0  0  0  0  0  0
  1  2  1  0  0  0  0
  1  3  1  0  0  0  0
  1  4  1  0  0  0  0
M  END
>  <CHROM.1>
11.33657966,12.00374250,5.01695708,-1.20451098,-1.39975521,1.22619408

>  <Name>
ligand

>  <RI>
0

>  <Rbt.Current_Directory>
/home/itssahil/PROJECTS/Mol_Feturizer/New_Systems/rnas/4FEN

>  <Rbt.Executable>
rbdock ($Id: //depot/dev/client3/rdock/2013.1/src/exe/rbdock.cxx#4 $)

>  <Rbt.Library>
libRbt.so (2013.1, Build901 2013/11/27)

>  <Rbt.Parameter_File>
/export/apps/rDock/src/rDock_2013.1_src/data/scripts/dock_solv.prm

>  <Rbt.Receptor>
prm/blind_docking_60.prm

>  <SCORE>
-5.55615

>  <SCORE.INTER>
-5.55615

>  <SCORE.INTER.CONST>
1

>  <SCORE.INTER.POLAR>
0

>  <SCORE.INTER.ROT>
0

>  <SCORE.INTER.SOLV>
1.77213

>  <SCORE.INTER.VDW>
-7.89481

>  <SCORE.INTER.norm>
-1.38904

>  <SCORE.INTRA>
0

>  <SCORE.INTRA.DIHEDRAL>
0

>  <SCORE.INTRA.DIHEDRAL.0>
0

>  <SCORE.INTRA.POLAR>
0

>  <SCORE.INTRA.POLAR.0>
0

>  <SCORE.INTRA.REPUL>
0

>  <SCORE.INTRA.REPUL.0>
0

>  <SCORE.INTRA.SOLV>
0

>  <SCORE.INTRA.SOLV.lig_0>
0.449748

>  <SCORE.INTRA.VDW>
0

>  <SCORE.INTRA.VDW.0>
0

>  <SCORE.INTRA.norm>
0

>  <SCORE.RESTR>
0

>  <SCORE.RESTR.CAVITY>
0

>  <SCORE.RESTR.norm>
0

>  <SCORE.SYSTEM>
0

>  <SCORE.SYSTEM.CONST>
0

>  <SCORE.SYSTEM.DIHEDRAL>
0

>  <SCORE.SYSTEM.SOLV>
0

>  <SCORE.SYSTEM.norm>
0

>  <SCORE.heavy>
4

>  <SCORE.norm>
-1.38904

>  <RMSD>
26.450

$$$$
ligand
 OpenBabel11021811493D
libRbt.so/2013.1/901 2013/11/27
  4  3  0  0  0  0  0  0  0  0999 V2000
   11.3415   11.9326    5.0069 C   0  0  0  0  0  0  0  0  0  0  0  0
   11.5717   10.9062    5.6836 O   0  0  0  0  0  0  0  0  0  0  0  0
   11.1817   13.2329    5.7835 C   0  0  0  0  0  0  0  0  0  0  0  0
   11.2170   12.0351    3.7079 O   0  0  0  0  0  0  0  0  0  0  0  0
  1  2  1  0  0  0  0
  1  3  1  0  0  0  0
  1  4  1  0  0  0  0
M  END
>  <CHROM.1>
11.32947463,12.01332821,5.03603609,-1.29955872,-1.38336424,1.12517023

>  <Name>
ligand

>  <RI>
0

>  <Rbt.Current_Directory>
/home/itssahil/PROJECTS/Mol_Feturizer/New_Systems/rnas/4FEN

>  <Rbt.Executable>
rbdock ($Id: //depot/dev/client3/rdock/2013.1/src/exe/rbdock.cxx#4 $)

>  <Rbt.Library>
libRbt.so (2013.1, Build901 2013/11/27)

>  <Rbt.Parameter_File>
/export/apps/rDock/src/rDock_2013.1_src/data/scripts/dock_solv.prm

>  <Rbt.Receptor>
prm/blind_docking_80.prm

>  <SCORE>
-5.56525

>  <SCORE.INTER>
-5.56525

>  <SCORE.INTER.CONST>
1

>  <SCORE.INTER.POLAR>
0

>  <SCORE.INTER.ROT>
0

>  <SCORE.INTER.SOLV>
1.76788

>  <SCORE.INTER.VDW>
-7.89946

>  <SCORE.INTER.norm>
-1.39131

>  <SCORE.INTRA>
0

>  <SCORE.INTRA.DIHEDRAL>
0

>  <SCORE.INTRA.DIHEDRAL.0>
0

>  <SCORE.INTRA.POLAR>
0

>  <SCORE.INTRA.POLAR.0>
0

>  <SCORE.INTRA.REPUL>
0

>  <SCORE.INTRA.REPUL.0>
0

>  <SCORE.INTRA.SOLV>
0

>  <SCORE.INTRA.SOLV.lig_0>
0.449748

>  <SCORE.INTRA.VDW>
0

>  <SCORE.INTRA.VDW.0>
0

>  <SCORE.INTRA.norm>
0

>  <SCORE.RESTR>
0

>  <SCORE.RESTR.CAVITY>
0

>  <SCORE.RESTR.norm>
0

>  <SCORE.SYSTEM>
0

>  <SCORE.SYSTEM.CONST>
0

>  <SCORE.SYSTEM.DIHEDRAL>
0

>  <SCORE.SYSTEM.SOLV>
0

>  <SCORE.SYSTEM.norm>
0

>  <SCORE.heavy>
4

>  <SCORE.norm>
-1.39131

>  <RMSD>
26.450

$$$$
ligand
 OpenBabel11021811493D
libRbt.so/2013.1/901 2013/11/27
  4  3  0  0  0  0  0  0  0  0999 V2000
   11.3545   11.8676    5.0067 C   0  0  0  0  0  0  0  0  0  0  0  0
   11.2552   11.9137    3.7606 O   0  0  0  0  0  0  0  0  0  0  0  0
   11.1828   13.1869    5.7479 C   0  0  0  0  0  0  0  0  0  0  0  0
   11.5906   10.8252    5.7622 O   0  0  0  0  0  0  0  0  0  0  0  0
  1  2  1  0  0  0  0
  1  3  1  0  0  0  0
  1  4  1  0  0  0  0
M  END
>  <CHROM.1>
11.34782895,11.93357396,5.06248504,0.58530334,1.38555817,-1.97619706

>  <Name>
ligand

>  <RI>
0

>  <Rbt.Current_Directory>
/home/itssahil/PROJECTS/Mol_Feturizer/New_Systems/rnas/4FEN

>  <Rbt.Executable>
rbdock ($Id: //depot/dev/client3/rdock/2013.1/src/exe/rbdock.cxx#4 $)

>  <Rbt.Library>
libRbt.so (2013.1, Build901 2013/11/27)

>  <Rbt.Parameter_File>
/export/apps/rDock/src/rDock_2013.1_src/data/scripts/dock_solv.prm

>  <Rbt.Receptor>
prm/blind_docking_80.prm

>  <SCORE>
-5.60861

>  <SCORE.INTER>
-5.60861

>  <SCORE.INTER.CONST>
1

>  <SCORE.INTER.POLAR>
0

>  <SCORE.INTER.ROT>
0

>  <SCORE.INTER.SOLV>
1.76978

>  <SCORE.INTER.VDW>
-7.929

>  <SCORE.INTER.norm>
-1.40215

>  <SCORE.INTRA>
0

>  <SCORE.INTRA.DIHEDRAL>
0

>  <SCORE.INTRA.DIHEDRAL.0>
0

>  <SCORE.INTRA.POLAR>
0

>  <SCORE.INTRA.POLAR.0>
0

>  <SCORE.INTRA.REPUL>
0

>  <SCORE.INTRA.REPUL.0>
0

>  <SCORE.INTRA.SOLV>
0

>  <SCORE.INTRA.SOLV.lig_0>
0.449748

>  <SCORE.INTRA.VDW>
0

>  <SCORE.INTRA.VDW.0>
0

>  <SCORE.INTRA.norm>
0

>  <SCORE.RESTR>
0

>  <SCORE.RESTR.CAVITY>
0

>  <SCORE.RESTR.norm>
0

>  <SCORE.SYSTEM>
0

>  <SCORE.SYSTEM.CONST>
0

>  <SCORE.SYSTEM.DIHEDRAL>
0

>  <SCORE.SYSTEM.SOLV>
0

>  <SCORE.SYSTEM.norm>
0

>  <SCORE.heavy>
4

>  <SCORE.norm>
-1.40215

>  <RMSD>
26.450

$$$$
ligand
 OpenBabel11021811493D
libRbt.so/2013.1/901 2013/11/27
  4  3  0  0  0  0  0  0  0  0999 V2000
   11.3604   11.8561    5.0024 C   0  0  0  0  0  0  0  0  0  0  0  0
   11.3011   11.9002    3.7537 O   0  0  0  0  0  0  0  0  0  0  0  0
   11.1637   13.1763    5.7357 C   0  0  0  0  0  0  0  0  0  0  0  0
   11.5732   10.8150    5.7667 O   0  0  0  0  0  0  0  0  0  0  0  0
  1  2  1  0  0  0  0
  1  3  1  0  0  0  0
  1  4  1  0  0  0  0
M  END
>  <CHROM.1>
11.35192814,11.92207570,5.05788835,0.41371540,1.39473468,-1.80891531

>  <Name>
ligand

>  <RI>
0

>  <Rbt.Current_Directory>
/home/itssahil/PROJECTS/Mol_Feturizer/New_Systems/rnas/4FEN

>  <Rbt.Executable>
rbdock ($Id: //depot/dev/client3/rdock/2013.1/src/exe/rbdock.cxx#4 $)

>  <Rbt.Library>
libRbt.so (2013.1, Build901 2013/11/27)

>  <Rbt.Parameter_File>
/export/apps/rDock/src/rDock_2013.1_src/data/scripts/dock_solv.prm

>  <Rbt.Receptor>
prm/blind_docking_20.prm

>  <SCORE>
-5.59297

>  <SCORE.INTER>
-5.59297

>  <SCORE.INTER.CONST>
1

>  <SCORE.INTER.POLAR>
0

>  <SCORE.INTER.ROT>
0

>  <SCORE.INTER.SOLV>
1.77017

>  <SCORE.INTER.VDW>
-7.9187

>  <SCORE.INTER.norm>
-1.39824

>  <SCORE.INTRA>
0

>  <SCORE.INTRA.DIHEDRAL>
0

>  <SCORE.INTRA.DIHEDRAL.0>
0

>  <SCORE.INTRA.POLAR>
0

>  <SCORE.INTRA.POLAR.0>
0

>  <SCORE.INTRA.REPUL>
0

>  <SCORE.INTRA.REPUL.0>
0

>  <SCORE.INTRA.SOLV>
0

>  <SCORE.INTRA.SOLV.lig_0>
0.449748

>  <SCORE.INTRA.VDW>
0

>  <SCORE.INTRA.VDW.0>
0

>  <SCORE.INTRA.norm>
0

>  <SCORE.RESTR>
0

>  <SCORE.RESTR.CAVITY>
0

>  <SCORE.RESTR.norm>
0

>  <SCORE.SYSTEM>
0

>  <SCORE.SYSTEM.CONST>
0

>  <SCORE.SYSTEM.DIHEDRAL>
0

>  <SCORE.SYSTEM.SOLV>
0

>  <SCORE.SYSTEM.norm>
0

>  <SCORE.heavy>
4

>  <SCORE.norm>
-1.39824

>  <RMSD>
26.451

$$$$
ligand
 OpenBabel11021811493D
libRbt.so/2013.1/901 2013/11/27
  4  3  0  0  0  0  0  0  0  0999 V2000
   11.3475   11.8783    5.0127 C   0  0  0  0  0  0  0  0  0  0  0  0
   11.2372   11.9293    3.7677 O   0  0  0  0  0  0  0  0  0  0  0  0
   11.1923   13.1962    5.7598 C   0  0  0  0  0  0  0  0  0  0  0  0
   11.5828   10.8315    5.7625 O   0  0  0  0  0  0  0  0  0  0  0  0
  1  2  1  0  0  0  0
  1  3  1  0  0  0  0
  1  4  1  0  0  0  0
M  END
>  <CHROM.1>
11.34187205,11.94404568,5.06874058,0.64747392,1.38835221,-2.03394796

>  <Name>
ligand

>  <RI>
0

>  <Rbt.Current_Directory>
/home/itssahil/PROJECTS/Mol_Feturizer/New_Systems/rnas/4FEN

>  <Rbt.Executable>
rbdock ($Id: //depot/dev/client3/rdock/2013.1/src/exe/rbdock.cxx#4 $)

>  <Rbt.Library>
libRbt.so (2013.1, Build901 2013/11/27)

>  <Rbt.Parameter_File>
/export/apps/rDock/src/rDock_2013.1_src/data/scripts/dock_solv.prm

>  <Rbt.Receptor>
prm/blind_docking_20.prm

>  <SCORE>
-5.60871

>  <SCORE.INTER>
-5.60871

>  <SCORE.INTER.CONST>
1

>  <SCORE.INTER.POLAR>
0

>  <SCORE.INTER.ROT>
0

>  <SCORE.INTER.SOLV>
1.77024

>  <SCORE.INTER.VDW>
-7.92922

>  <SCORE.INTER.norm>
-1.40218

>  <SCORE.INTRA>
0

>  <SCORE.INTRA.DIHEDRAL>
0

>  <SCORE.INTRA.DIHEDRAL.0>
0

>  <SCORE.INTRA.POLAR>
0

>  <SCORE.INTRA.POLAR.0>
0

>  <SCORE.INTRA.REPUL>
0

>  <SCORE.INTRA.REPUL.0>
0

>  <SCORE.INTRA.SOLV>
0

>  <SCORE.INTRA.SOLV.lig_0>
0.449748

>  <SCORE.INTRA.VDW>
0

>  <SCORE.INTRA.VDW.0>
0

>  <SCORE.INTRA.norm>
0

>  <SCORE.RESTR>
0

>  <SCORE.RESTR.CAVITY>
0

>  <SCORE.RESTR.norm>
0

>  <SCORE.SYSTEM>
0

>  <SCORE.SYSTEM.CONST>
0

>  <SCORE.SYSTEM.DIHEDRAL>
0

>  <SCORE.SYSTEM.SOLV>
0

>  <SCORE.SYSTEM.norm>
0

>  <SCORE.heavy>
4

>  <SCORE.norm>
-1.40218

>  <RMSD>
26.451

$$$$
ligand
 OpenBabel11021811493D
libRbt.so/2013.1/901 2013/11/27
  4  3  0  0  0  0  0  0  0  0999 V2000
   11.3408   11.9303    5.0005 C   0  0  0  0  0  0  0  0  0  0  0  0
   11.5714   10.9025    5.6752 O   0  0  0  0  0  0  0  0  0  0  0  0
   11.1974   13.2317    5.7784 C   0  0  0  0  0  0  0  0  0  0  0  0
   11.2038   12.0332    3.7028 O   0  0  0  0  0  0  0  0  0  0  0  0
  1  2  1  0  0  0  0
  1  3  1  0  0  0  0
  1  4  1  0  0  0  0
M  END
>  <CHROM.1>
11.32967401,12.01104857,5.02975492,-1.36422201,-1.38439750,1.06139542

>  <Name>
ligand

>  <RI>
0

>  <Rbt.Current_Directory>
/home/itssahil/PROJECTS/Mol_Feturizer/New_Systems/rnas/4FEN

>  <Rbt.Executable>
rbdock ($Id: //depot/dev/client3/rdock/2013.1/src/exe/rbdock.cxx#4 $)

>  <Rbt.Library>
libRbt.so (2013.1, Build901 2013/11/27)

>  <Rbt.Parameter_File>
/export/apps/rDock/src/rDock_2013.1_src/data/scripts/dock_solv.prm

>  <Rbt.Receptor>
prm/blind_docking_60.prm

>  <SCORE>
-5.57088

>  <SCORE.INTER>
-5.57088

>  <SCORE.INTER.CONST>
1

>  <SCORE.INTER.POLAR>
0

>  <SCORE.INTER.ROT>
0

>  <SCORE.INTER.SOLV>
1.76874

>  <SCORE.INTER.VDW>
-7.9035

>  <SCORE.INTER.norm>
-1.39272

>  <SCORE.INTRA>
0

>  <SCORE.INTRA.DIHEDRAL>
0

>  <SCORE.INTRA.DIHEDRAL.0>
0

>  <SCORE.INTRA.POLAR>
0

>  <SCORE.INTRA.POLAR.0>
0

>  <SCORE.INTRA.REPUL>
0

>  <SCORE.INTRA.REPUL.0>
0

>  <SCORE.INTRA.SOLV>
0

>  <SCORE.INTRA.SOLV.lig_0>
0.449748

>  <SCORE.INTRA.VDW>
0

>  <SCORE.INTRA.VDW.0>
0

>  <SCORE.INTRA.norm>
0

>  <SCORE.RESTR>
0

>  <SCORE.RESTR.CAVITY>
0

>  <SCORE.RESTR.norm>
0

>  <SCORE.SYSTEM>
0

>  <SCORE.SYSTEM.CONST>
0

>  <SCORE.SYSTEM.DIHEDRAL>
0

>  <SCORE.SYSTEM.SOLV>
0

>  <SCORE.SYSTEM.norm>
0

>  <SCORE.heavy>
4

>  <SCORE.norm>
-1.39272

>  <RMSD>
26.451

$$$$
ligand
 OpenBabel11021811493D
libRbt.so/2013.1/901 2013/11/27
  4  3  0  0  0  0  0  0  0  0999 V2000
   11.3511   11.8987    4.9700 C   0  0  0  0  0  0  0  0  0  0  0  0
   11.2523   11.8792    3.7232 O   0  0  0  0  0  0  0  0  0  0  0  0
   11.1525   13.2504    5.6430 C   0  0  0  0  0  0  0  0  0  0  0  0
   11.6070   10.9010    5.7777 O   0  0  0  0  0  0  0  0  0  0  0  0
  1  2  1  0  0  0  0
  1  3  1  0  0  0  0
  1  4  1  0  0  0  0
M  END
>  <CHROM.1>
11.34311180,11.96721981,5.02239093,0.54150671,1.36760164,-1.98426394

>  <Name>
ligand

>  <RI>
0

>  <Rbt.Current_Directory>
/home/itssahil/PROJECTS/Mol_Feturizer/New_Systems/rnas/4FEN

>  <Rbt.Executable>
rbdock ($Id: //depot/dev/client3/rdock/2013.1/src/exe/rbdock.cxx#4 $)

>  <Rbt.Library>
libRbt.so (2013.1, Build901 2013/11/27)

>  <Rbt.Parameter_File>
/export/apps/rDock/src/rDock_2013.1_src/data/scripts/dock_solv.prm

>  <Rbt.Receptor>
prm/blind_docking_80.prm

>  <SCORE>
-5.5887

>  <SCORE.INTER>
-5.5887

>  <SCORE.INTER.CONST>
1

>  <SCORE.INTER.POLAR>
0

>  <SCORE.INTER.ROT>
0

>  <SCORE.INTER.SOLV>
1.77823

>  <SCORE.INTER.VDW>
-7.91854

>  <SCORE.INTER.norm>
-1.39717

>  <SCORE.INTRA>
0

>  <SCORE.INTRA.DIHEDRAL>
0

>  <SCORE.INTRA.DIHEDRAL.0>
0

>  <SCORE.INTRA.POLAR>
0

>  <SCORE.INTRA.POLAR.0>
0

>  <SCORE.INTRA.REPUL>
0

>  <SCORE.INTRA.REPUL.0>
0

>  <SCORE.INTRA.SOLV>
0

>  <SCORE.INTRA.SOLV.lig_0>
0.449748

>  <SCORE.INTRA.VDW>
0

>  <SCORE.INTRA.VDW.0>
0

>  <SCORE.INTRA.norm>
0

>  <SCORE.RESTR>
0

>  <SCORE.RESTR.CAVITY>
0

>  <SCORE.RESTR.norm>
0

>  <SCORE.SYSTEM>
0

>  <SCORE.SYSTEM.CONST>
0

>  <SCORE.SYSTEM.DIHEDRAL>
0

>  <SCORE.SYSTEM.SOLV>
0

>  <SCORE.SYSTEM.norm>
0

>  <SCORE.heavy>
4

>  <SCORE.norm>
-1.39717

>  <RMSD>
26.451

$$$$
ligand
 OpenBabel11021811493D
libRbt.so/2013.1/901 2013/11/27
  4  3  0  0  0  0  0  0  0  0999 V2000
   11.3460   11.8868    5.0023 C   0  0  0  0  0  0  0  0  0  0  0  0
   11.2328   11.9479    3.7581 O   0  0  0  0  0  0  0  0  0  0  0  0
   11.1963   13.1994    5.7602 C   0  0  0  0  0  0  0  0  0  0  0  0
   11.5800   10.8336    5.7434 O   0  0  0  0  0  0  0  0  0  0  0  0
  1  2  1  0  0  0  0
  1  3  1  0  0  0  0
  1  4  1  0  0  0  0
M  END
>  <CHROM.1>
11.34060816,11.95218973,5.05894932,0.66646235,1.38985490,-2.04482508

>  <Name>
ligand

>  <RI>
0

>  <Rbt.Current_Directory>
/home/itssahil/PROJECTS/Mol_Feturizer/New_Systems/rnas/4FEN

>  <Rbt.Executable>
rbdock ($Id: //depot/dev/client3/rdock/2013.1/src/exe/rbdock.cxx#4 $)

>  <Rbt.Library>
libRbt.so (2013.1, Build901 2013/11/27)

>  <Rbt.Parameter_File>
/export/apps/rDock/src/rDock_2013.1_src/data/scripts/dock_solv.prm

>  <Rbt.Receptor>
prm/blind_docking_80.prm

>  <SCORE>
-5.60951

>  <SCORE.INTER>
-5.60951

>  <SCORE.INTER.CONST>
1

>  <SCORE.INTER.POLAR>
0

>  <SCORE.INTER.ROT>
0

>  <SCORE.INTER.SOLV>
1.77082

>  <SCORE.INTER.VDW>
-7.92995

>  <SCORE.INTER.norm>
-1.40238

>  <SCORE.INTRA>
0

>  <SCORE.INTRA.DIHEDRAL>
0

>  <SCORE.INTRA.DIHEDRAL.0>
0

>  <SCORE.INTRA.POLAR>
0

>  <SCORE.INTRA.POLAR.0>
0

>  <SCORE.INTRA.REPUL>
0

>  <SCORE.INTRA.REPUL.0>
0

>  <SCORE.INTRA.SOLV>
0

>  <SCORE.INTRA.SOLV.lig_0>
0.449748

>  <SCORE.INTRA.VDW>
0

>  <SCORE.INTRA.VDW.0>
0

>  <SCORE.INTRA.norm>
0

>  <SCORE.RESTR>
0

>  <SCORE.RESTR.CAVITY>
0

>  <SCORE.RESTR.norm>
0

>  <SCORE.SYSTEM>
0

>  <SCORE.SYSTEM.CONST>
0

>  <SCORE.SYSTEM.DIHEDRAL>
0

>  <SCORE.SYSTEM.SOLV>
0

>  <SCORE.SYSTEM.norm>
0

>  <SCORE.heavy>
4

>  <SCORE.norm>
-1.40238

>  <RMSD>
26.452

$$$$
ligand
 OpenBabel11021811493D
libRbt.so/2013.1/901 2013/11/27
  4  3  0  0  0  0  0  0  0  0999 V2000
   11.3309   11.9860    4.9674 C   0  0  0  0  0  0  0  0  0  0  0  0
   11.5956   10.9401    5.6004 O   0  0  0  0  0  0  0  0  0  0  0  0
   11.1992   13.2600    5.7914 C   0  0  0  0  0  0  0  0  0  0  0  0
   11.1490   12.1287    3.6791 O   0  0  0  0  0  0  0  0  0  0  0  0
  1  2  1  0  0  0  0
  1  3  1  0  0  0  0
  1  4  1  0  0  0  0
M  END
>  <CHROM.1>
11.31978824,12.06566993,4.99965048,-1.47755430,-1.35680680,0.98250674

>  <Name>
ligand

>  <RI>
0

>  <Rbt.Current_Directory>
/home/itssahil/PROJECTS/Mol_Feturizer/New_Systems/rnas/4FEN

>  <Rbt.Executable>
rbdock ($Id: //depot/dev/client3/rdock/2013.1/src/exe/rbdock.cxx#4 $)

>  <Rbt.Library>
libRbt.so (2013.1, Build901 2013/11/27)

>  <Rbt.Parameter_File>
/export/apps/rDock/src/rDock_2013.1_src/data/scripts/dock_solv.prm

>  <Rbt.Receptor>
prm/blind_docking_80.prm

>  <SCORE>
-5.56626

>  <SCORE.INTER>
-5.56626

>  <SCORE.INTER.CONST>
1

>  <SCORE.INTER.POLAR>
0

>  <SCORE.INTER.ROT>
0

>  <SCORE.INTER.SOLV>
1.77516

>  <SCORE.INTER.VDW>
-7.90256

>  <SCORE.INTER.norm>
-1.39157

>  <SCORE.INTRA>
0

>  <SCORE.INTRA.DIHEDRAL>
0

>  <SCORE.INTRA.DIHEDRAL.0>
0

>  <SCORE.INTRA.POLAR>
0

>  <SCORE.INTRA.POLAR.0>
0

>  <SCORE.INTRA.REPUL>
0

>  <SCORE.INTRA.REPUL.0>
0

>  <SCORE.INTRA.SOLV>
0

>  <SCORE.INTRA.SOLV.lig_0>
0.449748

>  <SCORE.INTRA.VDW>
0

>  <SCORE.INTRA.VDW.0>
0

>  <SCORE.INTRA.norm>
0

>  <SCORE.RESTR>
0

>  <SCORE.RESTR.CAVITY>
0

>  <SCORE.RESTR.norm>
0

>  <SCORE.SYSTEM>
0

>  <SCORE.SYSTEM.CONST>
0

>  <SCORE.SYSTEM.DIHEDRAL>
0

>  <SCORE.SYSTEM.SOLV>
0

>  <SCORE.SYSTEM.norm>
0

>  <SCORE.heavy>
4

>  <SCORE.norm>
-1.39157

>  <RMSD>
26.452

$$$$
ligand
 OpenBabel11021811493D
libRbt.so/2013.1/901 2013/11/27
  4  3  0  0  0  0  0  0  0  0999 V2000
   11.3382   11.9338    5.0010 C   0  0  0  0  0  0  0  0  0  0  0  0
   11.5731   10.9064    5.6748 O   0  0  0  0  0  0  0  0  0  0  0  0
   11.2093   13.2372    5.7781 C   0  0  0  0  0  0  0  0  0  0  0  0
   11.1857   12.0349    3.7049 O   0  0  0  0  0  0  0  0  0  0  0  0
  1  2  1  0  0  0  0
  1  3  1  0  0  0  0
  1  4  1  0  0  0  0
M  END
>  <CHROM.1>
11.32770976,12.01468009,5.03025678,-1.43103350,-1.38135101,0.99388002

>  <Name>
ligand

>  <RI>
0

>  <Rbt.Current_Directory>
/home/itssahil/PROJECTS/Mol_Feturizer/New_Systems/rnas/4FEN

>  <Rbt.Executable>
rbdock ($Id: //depot/dev/client3/rdock/2013.1/src/exe/rbdock.cxx#4 $)

>  <Rbt.Library>
libRbt.so (2013.1, Build901 2013/11/27)

>  <Rbt.Parameter_File>
/export/apps/rDock/src/rDock_2013.1_src/data/scripts/dock_solv.prm

>  <Rbt.Receptor>
prm/blind_docking_80.prm

>  <SCORE>
-5.57066

>  <SCORE.INTER>
-5.57066

>  <SCORE.INTER.CONST>
1

>  <SCORE.INTER.POLAR>
0

>  <SCORE.INTER.ROT>
0

>  <SCORE.INTER.SOLV>
1.77002

>  <SCORE.INTER.VDW>
-7.90378

>  <SCORE.INTER.norm>
-1.39266

>  <SCORE.INTRA>
0

>  <SCORE.INTRA.DIHEDRAL>
0

>  <SCORE.INTRA.DIHEDRAL.0>
0

>  <SCORE.INTRA.POLAR>
0

>  <SCORE.INTRA.POLAR.0>
0

>  <SCORE.INTRA.REPUL>
0

>  <SCORE.INTRA.REPUL.0>
0

>  <SCORE.INTRA.SOLV>
0

>  <SCORE.INTRA.SOLV.lig_0>
0.449748

>  <SCORE.INTRA.VDW>
0

>  <SCORE.INTRA.VDW.0>
0

>  <SCORE.INTRA.norm>
0

>  <SCORE.RESTR>
0

>  <SCORE.RESTR.CAVITY>
0

>  <SCORE.RESTR.norm>
0

>  <SCORE.SYSTEM>
0

>  <SCORE.SYSTEM.CONST>
0

>  <SCORE.SYSTEM.DIHEDRAL>
0

>  <SCORE.SYSTEM.SOLV>
0

>  <SCORE.SYSTEM.norm>
0

>  <SCORE.heavy>
4

>  <SCORE.norm>
-1.39266

>  <RMSD>
26.452

$$$$
ligand
 OpenBabel11021811493D
libRbt.so/2013.1/901 2013/11/27
  4  3  0  0  0  0  0  0  0  0999 V2000
   11.3395   11.9260    5.0014 C   0  0  0  0  0  0  0  0  0  0  0  0
   11.5677   10.8995    5.6789 O   0  0  0  0  0  0  0  0  0  0  0  0
   11.2108   13.2317    5.7746 C   0  0  0  0  0  0  0  0  0  0  0  0
   11.1938   12.0243    3.7043 O   0  0  0  0  0  0  0  0  0  0  0  0
  1  2  1  0  0  0  0
  1  3  1  0  0  0  0
  1  4  1  0  0  0  0
M  END
>  <CHROM.1>
11.32906346,12.00698227,5.03039116,-1.41728745,-1.38672138,1.00489518

>  <Name>
ligand

>  <RI>
0

>  <Rbt.Current_Directory>
/home/itssahil/PROJECTS/Mol_Feturizer/New_Systems/rnas/4FEN

>  <Rbt.Executable>
rbdock ($Id: //depot/dev/client3/rdock/2013.1/src/exe/rbdock.cxx#4 $)

>  <Rbt.Library>
libRbt.so (2013.1, Build901 2013/11/27)

>  <Rbt.Parameter_File>
/export/apps/rDock/src/rDock_2013.1_src/data/scripts/dock_solv.prm

>  <Rbt.Receptor>
prm/blind_docking_100.prm

>  <SCORE>
-5.57376

>  <SCORE.INTER>
-5.57376

>  <SCORE.INTER.CONST>
1

>  <SCORE.INTER.POLAR>
0

>  <SCORE.INTER.ROT>
0

>  <SCORE.INTER.SOLV>
1.77034

>  <SCORE.INTER.VDW>
-7.90595

>  <SCORE.INTER.norm>
-1.39344

>  <SCORE.INTRA>
0

>  <SCORE.INTRA.DIHEDRAL>
0

>  <SCORE.INTRA.DIHEDRAL.0>
0

>  <SCORE.INTRA.POLAR>
0

>  <SCORE.INTRA.POLAR.0>
0

>  <SCORE.INTRA.REPUL>
0

>  <SCORE.INTRA.REPUL.0>
0

>  <SCORE.INTRA.SOLV>
0

>  <SCORE.INTRA.SOLV.lig_0>
0.449748

>  <SCORE.INTRA.VDW>
0

>  <SCORE.INTRA.VDW.0>
0

>  <SCORE.INTRA.norm>
0

>  <SCORE.RESTR>
0

>  <SCORE.RESTR.CAVITY>
0

>  <SCORE.RESTR.norm>
0

>  <SCORE.SYSTEM>
0

>  <SCORE.SYSTEM.CONST>
0

>  <SCORE.SYSTEM.DIHEDRAL>
0

>  <SCORE.SYSTEM.SOLV>
0

>  <SCORE.SYSTEM.norm>
0

>  <SCORE.heavy>
4

>  <SCORE.norm>
-1.39344

>  <RMSD>
26.453

$$$$
ligand
 OpenBabel11021811493D
libRbt.so/2013.1/901 2013/11/27
  4  3  0  0  0  0  0  0  0  0999 V2000
   11.3535   11.8619    5.0055 C   0  0  0  0  0  0  0  0  0  0  0  0
   11.2711   11.9078    3.7582 O   0  0  0  0  0  0  0  0  0  0  0  0
   11.1798   13.1826    5.7437 C   0  0  0  0  0  0  0  0  0  0  0  0
   11.5732   10.8185    5.7646 O   0  0  0  0  0  0  0  0  0  0  0  0
  1  2  1  0  0  0  0
  1  3  1  0  0  0  0
  1  4  1  0  0  0  0
M  END
>  <CHROM.1>
11.34650570,11.92790074,5.06116018,0.52826140,1.39604185,-1.92063462

>  <Name>
ligand

>  <RI>
0

>  <Rbt.Current_Directory>
/home/itssahil/PROJECTS/Mol_Feturizer/New_Systems/rnas/4FEN

>  <Rbt.Executable>
rbdock ($Id: //depot/dev/client3/rdock/2013.1/src/exe/rbdock.cxx#4 $)

>  <Rbt.Library>
libRbt.so (2013.1, Build901 2013/11/27)

>  <Rbt.Parameter_File>
/export/apps/rDock/src/rDock_2013.1_src/data/scripts/dock_solv.prm

>  <Rbt.Receptor>
prm/blind_docking_100.prm

>  <SCORE>
-5.60543

>  <SCORE.INTER>
-5.60543

>  <SCORE.INTER.CONST>
1

>  <SCORE.INTER.POLAR>
0

>  <SCORE.INTER.ROT>
0

>  <SCORE.INTER.SOLV>
1.7708

>  <SCORE.INTER.VDW>
-7.92722

>  <SCORE.INTER.norm>
-1.40136

>  <SCORE.INTRA>
0

>  <SCORE.INTRA.DIHEDRAL>
0

>  <SCORE.INTRA.DIHEDRAL.0>
0

>  <SCORE.INTRA.POLAR>
0

>  <SCORE.INTRA.POLAR.0>
0

>  <SCORE.INTRA.REPUL>
0

>  <SCORE.INTRA.REPUL.0>
0

>  <SCORE.INTRA.SOLV>
0

>  <SCORE.INTRA.SOLV.lig_0>
0.449748

>  <SCORE.INTRA.VDW>
0

>  <SCORE.INTRA.VDW.0>
0

>  <SCORE.INTRA.norm>
0

>  <SCORE.RESTR>
0

>  <SCORE.RESTR.CAVITY>
0

>  <SCORE.RESTR.norm>
0

>  <SCORE.SYSTEM>
0

>  <SCORE.SYSTEM.CONST>
0

>  <SCORE.SYSTEM.DIHEDRAL>
0

>  <SCORE.SYSTEM.SOLV>
0

>  <SCORE.SYSTEM.norm>
0

>  <SCORE.heavy>
4

>  <SCORE.norm>
-1.40136

>  <RMSD>
26.453

$$$$
ligand
 OpenBabel11021811493D
libRbt.so/2013.1/901 2013/11/27
  4  3  0  0  0  0  0  0  0  0999 V2000
   11.3560   11.8591    5.0025 C   0  0  0  0  0  0  0  0  0  0  0  0
   11.3005   11.9032    3.7537 O   0  0  0  0  0  0  0  0  0  0  0  0
   11.1715   13.1816    5.7347 C   0  0  0  0  0  0  0  0  0  0  0  0
   11.5556   10.8161    5.7678 O   0  0  0  0  0  0  0  0  0  0  0  0
  1  2  1  0  0  0  0
  1  3  1  0  0  0  0
  1  4  1  0  0  0  0
M  END
>  <CHROM.1>
11.34807093,11.92517435,5.05793582,0.41353868,1.40574991,-1.80919468

>  <Name>
ligand

>  <RI>
0

>  <Rbt.Current_Directory>
/home/itssahil/PROJECTS/Mol_Feturizer/New_Systems/rnas/4FEN

>  <Rbt.Executable>
rbdock ($Id: //depot/dev/client3/rdock/2013.1/src/exe/rbdock.cxx#4 $)

>  <Rbt.Library>
libRbt.so (2013.1, Build901 2013/11/27)

>  <Rbt.Parameter_File>
/export/apps/rDock/src/rDock_2013.1_src/data/scripts/dock_solv.prm

>  <Rbt.Receptor>
prm/blind_docking_40.prm

>  <SCORE>
-5.59326

>  <SCORE.INTER>
-5.59326

>  <SCORE.INTER.CONST>
1

>  <SCORE.INTER.POLAR>
0

>  <SCORE.INTER.ROT>
0

>  <SCORE.INTER.SOLV>
1.77252

>  <SCORE.INTER.VDW>
-7.91968

>  <SCORE.INTER.norm>
-1.39832

>  <SCORE.INTRA>
0

>  <SCORE.INTRA.DIHEDRAL>
0

>  <SCORE.INTRA.DIHEDRAL.0>
0

>  <SCORE.INTRA.POLAR>
0

>  <SCORE.INTRA.POLAR.0>
0

>  <SCORE.INTRA.REPUL>
0

>  <SCORE.INTRA.REPUL.0>
0

>  <SCORE.INTRA.SOLV>
0

>  <SCORE.INTRA.SOLV.lig_0>
0.449748

>  <SCORE.INTRA.VDW>
0

>  <SCORE.INTRA.VDW.0>
0

>  <SCORE.INTRA.norm>
0

>  <SCORE.RESTR>
0

>  <SCORE.RESTR.CAVITY>
0

>  <SCORE.RESTR.norm>
0

>  <SCORE.SYSTEM>
0

>  <SCORE.SYSTEM.CONST>
0

>  <SCORE.SYSTEM.DIHEDRAL>
0

>  <SCORE.SYSTEM.SOLV>
0

>  <SCORE.SYSTEM.norm>
0

>  <SCORE.heavy>
4

>  <SCORE.norm>
-1.39832

>  <RMSD>
26.453

$$$$
ligand
 OpenBabel11021811493D
libRbt.so/2013.1/901 2013/11/27
  4  3  0  0  0  0  0  0  0  0999 V2000
   11.3533   11.8653    5.0038 C   0  0  0  0  0  0  0  0  0  0  0  0
   11.2814   11.9073    3.7557 O   0  0  0  0  0  0  0  0  0  0  0  0
   11.1697   13.1877    5.7366 C   0  0  0  0  0  0  0  0  0  0  0  0
   11.5694   10.8248    5.7679 O   0  0  0  0  0  0  0  0  0  0  0  0
  1  2  1  0  0  0  0
  1  3  1  0  0  0  0
  1  4  1  0  0  0  0
M  END
>  <CHROM.1>
11.34562495,11.93147051,5.05923674,0.47707345,1.39614548,-1.87319661

>  <Name>
ligand

>  <RI>
0

>  <Rbt.Current_Directory>
/home/itssahil/PROJECTS/Mol_Feturizer/New_Systems/rnas/4FEN

>  <Rbt.Executable>
rbdock ($Id: //depot/dev/client3/rdock/2013.1/src/exe/rbdock.cxx#4 $)

>  <Rbt.Library>
libRbt.so (2013.1, Build901 2013/11/27)

>  <Rbt.Parameter_File>
/export/apps/rDock/src/rDock_2013.1_src/data/scripts/dock_solv.prm

>  <Rbt.Receptor>
prm/blind_docking_40.prm

>  <SCORE>
-5.6011

>  <SCORE.INTER>
-5.6011

>  <SCORE.INTER.CONST>
1

>  <SCORE.INTER.POLAR>
0

>  <SCORE.INTER.ROT>
0

>  <SCORE.INTER.SOLV>
1.7714

>  <SCORE.INTER.VDW>
-7.92453

>  <SCORE.INTER.norm>
-1.40028

>  <SCORE.INTRA>
0

>  <SCORE.INTRA.DIHEDRAL>
0

>  <SCORE.INTRA.DIHEDRAL.0>
0

>  <SCORE.INTRA.POLAR>
0

>  <SCORE.INTRA.POLAR.0>
0

>  <SCORE.INTRA.REPUL>
0

>  <SCORE.INTRA.REPUL.0>
0

>  <SCORE.INTRA.SOLV>
0

>  <SCORE.INTRA.SOLV.lig_0>
0.449748

>  <SCORE.INTRA.VDW>
0

>  <SCORE.INTRA.VDW.0>
0

>  <SCORE.INTRA.norm>
0

>  <SCORE.RESTR>
0

>  <SCORE.RESTR.CAVITY>
0

>  <SCORE.RESTR.norm>
0

>  <SCORE.SYSTEM>
0

>  <SCORE.SYSTEM.CONST>
0

>  <SCORE.SYSTEM.DIHEDRAL>
0

>  <SCORE.SYSTEM.SOLV>
0

>  <SCORE.SYSTEM.norm>
0

>  <SCORE.heavy>
4

>  <SCORE.norm>
-1.40028

>  <RMSD>
26.453

$$$$
ligand
 OpenBabel11021811493D
libRbt.so/2013.1/901 2013/11/27
  4  3  0  0  0  0  0  0  0  0999 V2000
   11.3308   11.9507    4.9783 C   0  0  0  0  0  0  0  0  0  0  0  0
   11.1992   12.0483    3.7382 O   0  0  0  0  0  0  0  0  0  0  0  0
   11.1938   13.2406    5.7764 C   0  0  0  0  0  0  0  0  0  0  0  0
   11.5747   10.8761    5.6847 O   0  0  0  0  0  0  0  0  0  0  0  0
  1  2  1  0  0  0  0
  1  3  1  0  0  0  0
  1  4  1  0  0  0  0
M  END
>  <CHROM.1>
11.32635763,12.01439353,5.03688781,0.74040368,1.38350837,-2.08823939

>  <Name>
ligand

>  <RI>
0

>  <Rbt.Current_Directory>
/home/itssahil/PROJECTS/Mol_Feturizer/New_Systems/rnas/4FEN

>  <Rbt.Executable>
rbdock ($Id: //depot/dev/client3/rdock/2013.1/src/exe/rbdock.cxx#4 $)

>  <Rbt.Library>
libRbt.so (2013.1, Build901 2013/11/27)

>  <Rbt.Parameter_File>
/export/apps/rDock/src/rDock_2013.1_src/data/scripts/dock_solv.prm

>  <Rbt.Receptor>
prm/blind_docking_40.prm

>  <SCORE>
-5.61676

>  <SCORE.INTER>
-5.61676

>  <SCORE.INTER.CONST>
1

>  <SCORE.INTER.POLAR>
0

>  <SCORE.INTER.ROT>
0

>  <SCORE.INTER.SOLV>
1.77185

>  <SCORE.INTER.VDW>
-7.93513

>  <SCORE.INTER.norm>
-1.40419

>  <SCORE.INTRA>
0

>  <SCORE.INTRA.DIHEDRAL>
0

>  <SCORE.INTRA.DIHEDRAL.0>
0

>  <SCORE.INTRA.POLAR>
0

>  <SCORE.INTRA.POLAR.0>
0

>  <SCORE.INTRA.REPUL>
0

>  <SCORE.INTRA.REPUL.0>
0

>  <SCORE.INTRA.SOLV>
0

>  <SCORE.INTRA.SOLV.lig_0>
0.449748

>  <SCORE.INTRA.VDW>
0

>  <SCORE.INTRA.VDW.0>
0

>  <SCORE.INTRA.norm>
0

>  <SCORE.RESTR>
0

>  <SCORE.RESTR.CAVITY>
0

>  <SCORE.RESTR.norm>
0

>  <SCORE.SYSTEM>
0

>  <SCORE.SYSTEM.CONST>
0

>  <SCORE.SYSTEM.DIHEDRAL>
0

>  <SCORE.SYSTEM.SOLV>
0

>  <SCORE.SYSTEM.norm>
0

>  <SCORE.heavy>
4

>  <SCORE.norm>
-1.40419

>  <RMSD>
26.453

$$$$
ligand
 OpenBabel11021811493D
libRbt.so/2013.1/901 2013/11/27
  4  3  0  0  0  0  0  0  0  0999 V2000
   11.3604   11.8697    4.9699 C   0  0  0  0  0  0  0  0  0  0  0  0
   11.2899   11.8512    3.7211 O   0  0  0  0  0  0  0  0  0  0  0  0
   11.1392   13.2194    5.6397 C   0  0  0  0  0  0  0  0  0  0  0  0
   11.6034   10.8724    5.7820 O   0  0  0  0  0  0  0  0  0  0  0  0
  1  2  1  0  0  0  0
  1  3  1  0  0  0  0
  1  4  1  0  0  0  0
M  END
>  <CHROM.1>
11.35080371,11.93812669,5.02210363,0.42634259,1.37036837,-1.87022868

>  <Name>
ligand

>  <RI>
0

>  <Rbt.Current_Directory>
/home/itssahil/PROJECTS/Mol_Feturizer/New_Systems/rnas/4FEN

>  <Rbt.Executable>
rbdock ($Id: //depot/dev/client3/rdock/2013.1/src/exe/rbdock.cxx#4 $)

>  <Rbt.Library>
libRbt.so (2013.1, Build901 2013/11/27)

>  <Rbt.Parameter_File>
/export/apps/rDock/src/rDock_2013.1_src/data/scripts/dock_solv.prm

>  <Rbt.Receptor>
prm/blind_docking_60.prm

>  <SCORE>
-5.58512

>  <SCORE.INTER>
-5.58512

>  <SCORE.INTER.CONST>
1

>  <SCORE.INTER.POLAR>
0

>  <SCORE.INTER.ROT>
0

>  <SCORE.INTER.SOLV>
1.77435

>  <SCORE.INTER.VDW>
-7.91487

>  <SCORE.INTER.norm>
-1.39628

>  <SCORE.INTRA>
0

>  <SCORE.INTRA.DIHEDRAL>
0

>  <SCORE.INTRA.DIHEDRAL.0>
0

>  <SCORE.INTRA.POLAR>
0

>  <SCORE.INTRA.POLAR.0>
0

>  <SCORE.INTRA.REPUL>
0

>  <SCORE.INTRA.REPUL.0>
0

>  <SCORE.INTRA.SOLV>
0

>  <SCORE.INTRA.SOLV.lig_0>
0.449748

>  <SCORE.INTRA.VDW>
0

>  <SCORE.INTRA.VDW.0>
0

>  <SCORE.INTRA.norm>
0

>  <SCORE.RESTR>
0

>  <SCORE.RESTR.CAVITY>
0

>  <SCORE.RESTR.norm>
0

>  <SCORE.SYSTEM>
0

>  <SCORE.SYSTEM.CONST>
0

>  <SCORE.SYSTEM.DIHEDRAL>
0

>  <SCORE.SYSTEM.SOLV>
0

>  <SCORE.SYSTEM.norm>
0

>  <SCORE.heavy>
4

>  <SCORE.norm>
-1.39628

>  <RMSD>
26.453

$$$$
ligand
 OpenBabel11021811493D
libRbt.so/2013.1/901 2013/11/27
  4  3  0  0  0  0  0  0  0  0999 V2000
   11.3439   11.8878    5.0019 C   0  0  0  0  0  0  0  0  0  0  0  0
   11.2320   11.9468    3.7574 O   0  0  0  0  0  0  0  0  0  0  0  0
   11.1932   13.2015    5.7574 C   0  0  0  0  0  0  0  0  0  0  0  0
   11.5776   10.8358    5.7449 O   0  0  0  0  0  0  0  0  0  0  0  0
  1  2  1  0  0  0  0
  1  3  1  0  0  0  0
  1  4  1  0  0  0  0
M  END
>  <CHROM.1>
11.33852480,11.95322641,5.05835449,0.66092380,1.39003049,-2.04101907

>  <Name>
ligand

>  <RI>
0

>  <Rbt.Current_Directory>
/home/itssahil/PROJECTS/Mol_Feturizer/New_Systems/rnas/4FEN

>  <Rbt.Executable>
rbdock ($Id: //depot/dev/client3/rdock/2013.1/src/exe/rbdock.cxx#4 $)

>  <Rbt.Library>
libRbt.so (2013.1, Build901 2013/11/27)

>  <Rbt.Parameter_File>
/export/apps/rDock/src/rDock_2013.1_src/data/scripts/dock_solv.prm

>  <Rbt.Receptor>
prm/blind_docking_20.prm

>  <SCORE>
-5.60904

>  <SCORE.INTER>
-5.60904

>  <SCORE.INTER.CONST>
1

>  <SCORE.INTER.POLAR>
0

>  <SCORE.INTER.ROT>
0

>  <SCORE.INTER.SOLV>
1.77104

>  <SCORE.INTER.VDW>
-7.92971

>  <SCORE.INTER.norm>
-1.40226

>  <SCORE.INTRA>
0

>  <SCORE.INTRA.DIHEDRAL>
0

>  <SCORE.INTRA.DIHEDRAL.0>
0

>  <SCORE.INTRA.POLAR>
0

>  <SCORE.INTRA.POLAR.0>
0

>  <SCORE.INTRA.REPUL>
0

>  <SCORE.INTRA.REPUL.0>
0

>  <SCORE.INTRA.SOLV>
0

>  <SCORE.INTRA.SOLV.lig_0>
0.449748

>  <SCORE.INTRA.VDW>
0

>  <SCORE.INTRA.VDW.0>
0

>  <SCORE.INTRA.norm>
0

>  <SCORE.RESTR>
0

>  <SCORE.RESTR.CAVITY>
0

>  <SCORE.RESTR.norm>
0

>  <SCORE.SYSTEM>
0

>  <SCORE.SYSTEM.CONST>
0

>  <SCORE.SYSTEM.DIHEDRAL>
0

>  <SCORE.SYSTEM.SOLV>
0

>  <SCORE.SYSTEM.norm>
0

>  <SCORE.heavy>
4

>  <SCORE.norm>
-1.40226

>  <RMSD>
26.454

$$$$
ligand
 OpenBabel11021811493D
libRbt.so/2013.1/901 2013/11/27
  4  3  0  0  0  0  0  0  0  0999 V2000
   11.3434   11.9234    4.9916 C   0  0  0  0  0  0  0  0  0  0  0  0
   11.5664   10.8950    5.6681 O   0  0  0  0  0  0  0  0  0  0  0  0
   11.1831   13.2228    5.7695 C   0  0  0  0  0  0  0  0  0  0  0  0
   11.2270   12.0283    3.6921 O   0  0  0  0  0  0  0  0  0  0  0  0
  1  2  1  0  0  0  0
  1  3  1  0  0  0  0
  1  4  1  0  0  0  0
M  END
>  <CHROM.1>
11.33146250,12.00402707,5.02088547,-1.27715246,-1.38872428,1.14885696

>  <Name>
ligand

>  <RI>
0

>  <Rbt.Current_Directory>
/home/itssahil/PROJECTS/Mol_Feturizer/New_Systems/rnas/4FEN

>  <Rbt.Executable>
rbdock ($Id: //depot/dev/client3/rdock/2013.1/src/exe/rbdock.cxx#4 $)

>  <Rbt.Library>
libRbt.so (2013.1, Build901 2013/11/27)

>  <Rbt.Parameter_File>
/export/apps/rDock/src/rDock_2013.1_src/data/scripts/dock_solv.prm

>  <Rbt.Receptor>
prm/blind_docking_20.prm

>  <SCORE>
-5.56602

>  <SCORE.INTER>
-5.56602

>  <SCORE.INTER.CONST>
1

>  <SCORE.INTER.POLAR>
0

>  <SCORE.INTER.ROT>
0

>  <SCORE.INTER.SOLV>
1.76962

>  <SCORE.INTER.VDW>
-7.90056

>  <SCORE.INTER.norm>
-1.39151

>  <SCORE.INTRA>
0

>  <SCORE.INTRA.DIHEDRAL>
0

>  <SCORE.INTRA.DIHEDRAL.0>
0

>  <SCORE.INTRA.POLAR>
0

>  <SCORE.INTRA.POLAR.0>
0

>  <SCORE.INTRA.REPUL>
0

>  <SCORE.INTRA.REPUL.0>
0

>  <SCORE.INTRA.SOLV>
0

>  <SCORE.INTRA.SOLV.lig_0>
0.449748

>  <SCORE.INTRA.VDW>
0

>  <SCORE.INTRA.VDW.0>
0

>  <SCORE.INTRA.norm>
0

>  <SCORE.RESTR>
0

>  <SCORE.RESTR.CAVITY>
0

>  <SCORE.RESTR.norm>
0

>  <SCORE.SYSTEM>
0

>  <SCORE.SYSTEM.CONST>
0

>  <SCORE.SYSTEM.DIHEDRAL>
0

>  <SCORE.SYSTEM.SOLV>
0

>  <SCORE.SYSTEM.norm>
0

>  <SCORE.heavy>
4

>  <SCORE.norm>
-1.39151

>  <RMSD>
26.454

$$$$
ligand
 OpenBabel11021811493D
libRbt.so/2013.1/901 2013/11/27
  4  3  0  0  0  0  0  0  0  0999 V2000
   11.3308   11.9478    4.9676 C   0  0  0  0  0  0  0  0  0  0  0  0
   11.2020   12.0560    3.7281 O   0  0  0  0  0  0  0  0  0  0  0  0
   11.2089   13.2334    5.7749 C   0  0  0  0  0  0  0  0  0  0  0  0
   11.5606   10.8651    5.6664 O   0  0  0  0  0  0  0  0  0  0  0  0
  1  2  1  0  0  0  0
  1  3  1  0  0  0  0
  1  4  1  0  0  0  0
M  END
>  <CHROM.1>
11.32712685,12.01111299,5.02666254,0.76938775,1.39480024,-2.10944857

>  <Name>
ligand

>  <RI>
0

>  <Rbt.Current_Directory>
/home/itssahil/PROJECTS/Mol_Feturizer/New_Systems/rnas/4FEN

>  <Rbt.Executable>
rbdock ($Id: //depot/dev/client3/rdock/2013.1/src/exe/rbdock.cxx#4 $)

>  <Rbt.Library>
libRbt.so (2013.1, Build901 2013/11/27)

>  <Rbt.Parameter_File>
/export/apps/rDock/src/rDock_2013.1_src/data/scripts/dock_solv.prm

>  <Rbt.Receptor>
prm/blind_docking_100.prm

>  <SCORE>
-5.62023

>  <SCORE.INTER>
-5.62023

>  <SCORE.INTER.CONST>
1

>  <SCORE.INTER.POLAR>
0

>  <SCORE.INTER.ROT>
0

>  <SCORE.INTER.SOLV>
1.77387

>  <SCORE.INTER.VDW>
-7.93811

>  <SCORE.INTER.norm>
-1.40506

>  <SCORE.INTRA>
0

>  <SCORE.INTRA.DIHEDRAL>
0

>  <SCORE.INTRA.DIHEDRAL.0>
0

>  <SCORE.INTRA.POLAR>
0

>  <SCORE.INTRA.POLAR.0>
0

>  <SCORE.INTRA.REPUL>
0

>  <SCORE.INTRA.REPUL.0>
0

>  <SCORE.INTRA.SOLV>
0

>  <SCORE.INTRA.SOLV.lig_0>
0.449748

>  <SCORE.INTRA.VDW>
0

>  <SCORE.INTRA.VDW.0>
0

>  <SCORE.INTRA.norm>
0

>  <SCORE.RESTR>
0

>  <SCORE.RESTR.CAVITY>
0

>  <SCORE.RESTR.norm>
0

>  <SCORE.SYSTEM>
0

>  <SCORE.SYSTEM.CONST>
0

>  <SCORE.SYSTEM.DIHEDRAL>
0

>  <SCORE.SYSTEM.SOLV>
0

>  <SCORE.SYSTEM.norm>
0

>  <SCORE.heavy>
4

>  <SCORE.norm>
-1.40506

>  <RMSD>
26.455

$$$$
ligand
 OpenBabel11021811493D
libRbt.so/2013.1/901 2013/11/27
  4  3  0  0  0  0  0  0  0  0999 V2000
   11.3402   11.9268    4.9906 C   0  0  0  0  0  0  0  0  0  0  0  0
   11.5573   10.8943    5.6625 O   0  0  0  0  0  0  0  0  0  0  0  0
   11.1970   13.2253    5.7735 C   0  0  0  0  0  0  0  0  0  0  0  0
   11.2173   12.0370    3.6921 O   0  0  0  0  0  0  0  0  0  0  0  0
  1  2  1  0  0  0  0
  1  3  1  0  0  0  0
  1  4  1  0  0  0  0
M  END
>  <CHROM.1>
11.32925725,12.00750613,5.02013419,-1.33023607,-1.39485917,1.09978008

>  <Name>
ligand

>  <RI>
0

>  <Rbt.Current_Directory>
/home/itssahil/PROJECTS/Mol_Feturizer/New_Systems/rnas/4FEN

>  <Rbt.Executable>
rbdock ($Id: //depot/dev/client3/rdock/2013.1/src/exe/rbdock.cxx#4 $)

>  <Rbt.Library>
libRbt.so (2013.1, Build901 2013/11/27)

>  <Rbt.Parameter_File>
/export/apps/rDock/src/rDock_2013.1_src/data/scripts/dock_solv.prm

>  <Rbt.Receptor>
prm/blind_docking_40.prm

>  <SCORE>
-5.56965

>  <SCORE.INTER>
-5.56965

>  <SCORE.INTER.CONST>
1

>  <SCORE.INTER.POLAR>
0

>  <SCORE.INTER.ROT>
0

>  <SCORE.INTER.SOLV>
1.7703

>  <SCORE.INTER.VDW>
-7.9032

>  <SCORE.INTER.norm>
-1.39241

>  <SCORE.INTRA>
0

>  <SCORE.INTRA.DIHEDRAL>
0

>  <SCORE.INTRA.DIHEDRAL.0>
0

>  <SCORE.INTRA.POLAR>
0

>  <SCORE.INTRA.POLAR.0>
0

>  <SCORE.INTRA.REPUL>
0

>  <SCORE.INTRA.REPUL.0>
0

>  <SCORE.INTRA.SOLV>
0

>  <SCORE.INTRA.SOLV.lig_0>
0.449748

>  <SCORE.INTRA.VDW>
0

>  <SCORE.INTRA.VDW.0>
0

>  <SCORE.INTRA.norm>
0

>  <SCORE.RESTR>
0

>  <SCORE.RESTR.CAVITY>
0

>  <SCORE.RESTR.norm>
0

>  <SCORE.SYSTEM>
0

>  <SCORE.SYSTEM.CONST>
0

>  <SCORE.SYSTEM.DIHEDRAL>
0

>  <SCORE.SYSTEM.SOLV>
0

>  <SCORE.SYSTEM.norm>
0

>  <SCORE.heavy>
4

>  <SCORE.norm>
-1.39241

>  <RMSD>
26.455

$$$$
ligand
 OpenBabel11021811493D
libRbt.so/2013.1/901 2013/11/27
  4  3  0  0  0  0  0  0  0  0999 V2000
   11.3518   11.8652    5.0032 C   0  0  0  0  0  0  0  0  0  0  0  0
   11.2775   11.9050    3.7551 O   0  0  0  0  0  0  0  0  0  0  0  0
   11.1651   13.1882    5.7342 C   0  0  0  0  0  0  0  0  0  0  0  0
   11.5730   10.8266    5.7685 O   0  0  0  0  0  0  0  0  0  0  0  0
  1  2  1  0  0  0  0
  1  3  1  0  0  0  0
  1  4  1  0  0  0  0
M  END
>  <CHROM.1>
11.34405221,11.93142867,5.05850303,0.48116349,1.39231720,-1.87881880

>  <Name>
ligand

>  <RI>
0

>  <Rbt.Current_Directory>
/home/itssahil/PROJECTS/Mol_Feturizer/New_Systems/rnas/4FEN

>  <Rbt.Executable>
rbdock ($Id: //depot/dev/client3/rdock/2013.1/src/exe/rbdock.cxx#4 $)

>  <Rbt.Library>
libRbt.so (2013.1, Build901 2013/11/27)

>  <Rbt.Parameter_File>
/export/apps/rDock/src/rDock_2013.1_src/data/scripts/dock_solv.prm

>  <Rbt.Receptor>
prm/blind_docking_80.prm

>  <SCORE>
-5.60128

>  <SCORE.INTER>
-5.60128

>  <SCORE.INTER.CONST>
1

>  <SCORE.INTER.POLAR>
0

>  <SCORE.INTER.ROT>
0

>  <SCORE.INTER.SOLV>
1.77071

>  <SCORE.INTER.VDW>
-7.92442

>  <SCORE.INTER.norm>
-1.40032

>  <SCORE.INTRA>
0

>  <SCORE.INTRA.DIHEDRAL>
0

>  <SCORE.INTRA.DIHEDRAL.0>
0

>  <SCORE.INTRA.POLAR>
0

>  <SCORE.INTRA.POLAR.0>
0

>  <SCORE.INTRA.REPUL>
0

>  <SCORE.INTRA.REPUL.0>
0

>  <SCORE.INTRA.SOLV>
0

>  <SCORE.INTRA.SOLV.lig_0>
0.449748

>  <SCORE.INTRA.VDW>
0

>  <SCORE.INTRA.VDW.0>
0

>  <SCORE.INTRA.norm>
0

>  <SCORE.RESTR>
0

>  <SCORE.RESTR.CAVITY>
0

>  <SCORE.RESTR.norm>
0

>  <SCORE.SYSTEM>
0

>  <SCORE.SYSTEM.CONST>
0

>  <SCORE.SYSTEM.DIHEDRAL>
0

>  <SCORE.SYSTEM.SOLV>
0

>  <SCORE.SYSTEM.norm>
0

>  <SCORE.heavy>
4

>  <SCORE.norm>
-1.40032

>  <RMSD>
26.455

$$$$
ligand
 OpenBabel11021811493D
libRbt.so/2013.1/901 2013/11/27
  4  3  0  0  0  0  0  0  0  0999 V2000
   11.3236   11.9941    4.9571 C   0  0  0  0  0  0  0  0  0  0  0  0
   11.5662   10.9310    5.5702 O   0  0  0  0  0  0  0  0  0  0  0  0
   11.2427   13.2585    5.8021 C   0  0  0  0  0  0  0  0  0  0  0  0
   11.1269   12.1620    3.6741 O   0  0  0  0  0  0  0  0  0  0  0  0
  1  2  1  0  0  0  0
  1  3  1  0  0  0  0
  1  4  1  0  0  0  0
M  END
>  <CHROM.1>
11.31544921,12.07349642,4.99073950,-1.62501996,-1.37141216,0.85342088

>  <Name>
ligand

>  <RI>
0

>  <Rbt.Current_Directory>
/home/itssahil/PROJECTS/Mol_Feturizer/New_Systems/rnas/4FEN

>  <Rbt.Executable>
rbdock ($Id: //depot/dev/client3/rdock/2013.1/src/exe/rbdock.cxx#4 $)

>  <Rbt.Library>
libRbt.so (2013.1, Build901 2013/11/27)

>  <Rbt.Parameter_File>
/export/apps/rDock/src/rDock_2013.1_src/data/scripts/dock_solv.prm

>  <Rbt.Receptor>
prm/blind_docking_100.prm

>  <SCORE>
-5.53409

>  <SCORE.INTER>
-5.53409

>  <SCORE.INTER.CONST>
1

>  <SCORE.INTER.POLAR>
0

>  <SCORE.INTER.ROT>
0

>  <SCORE.INTER.SOLV>
1.77743

>  <SCORE.INTER.VDW>
-7.88187

>  <SCORE.INTER.norm>
-1.38352

>  <SCORE.INTRA>
0

>  <SCORE.INTRA.DIHEDRAL>
0

>  <SCORE.INTRA.DIHEDRAL.0>
0

>  <SCORE.INTRA.POLAR>
0

>  <SCORE.INTRA.POLAR.0>
0

>  <SCORE.INTRA.REPUL>
0

>  <SCORE.INTRA.REPUL.0>
0

>  <SCORE.INTRA.SOLV>
0

>  <SCORE.INTRA.SOLV.lig_0>
0.449748

>  <SCORE.INTRA.VDW>
0

>  <SCORE.INTRA.VDW.0>
0

>  <SCORE.INTRA.norm>
0

>  <SCORE.RESTR>
0

>  <SCORE.RESTR.CAVITY>
0

>  <SCORE.RESTR.norm>
0

>  <SCORE.SYSTEM>
0

>  <SCORE.SYSTEM.CONST>
0

>  <SCORE.SYSTEM.DIHEDRAL>
0

>  <SCORE.SYSTEM.SOLV>
0

>  <SCORE.SYSTEM.norm>
0

>  <SCORE.heavy>
4

>  <SCORE.norm>
-1.38352

>  <RMSD>
26.456

$$$$
ligand
 OpenBabel11021811493D
libRbt.so/2013.1/901 2013/11/27
  4  3  0  0  0  0  0  0  0  0999 V2000
   11.3338   11.9201    4.9859 C   0  0  0  0  0  0  0  0  0  0  0  0
   11.2234   12.0062    3.7429 O   0  0  0  0  0  0  0  0  0  0  0  0
   11.2044   13.2205    5.7680 C   0  0  0  0  0  0  0  0  0  0  0  0
   11.5497   10.8495    5.7074 O   0  0  0  0  0  0  0  0  0  0  0  0
  1  2  1  0  0  0  0
  1  3  1  0  0  0  0
  1  4  1  0  0  0  0
M  END
>  <CHROM.1>
11.32943024,11.98445648,5.04372803,0.70390664,1.40481445,-2.06300273

>  <Name>
ligand

>  <RI>
0

>  <Rbt.Current_Directory>
/home/itssahil/PROJECTS/Mol_Feturizer/New_Systems/rnas/4FEN

>  <Rbt.Executable>
rbdock ($Id: //depot/dev/client3/rdock/2013.1/src/exe/rbdock.cxx#4 $)

>  <Rbt.Library>
libRbt.so (2013.1, Build901 2013/11/27)

>  <Rbt.Parameter_File>
/export/apps/rDock/src/rDock_2013.1_src/data/scripts/dock_solv.prm

>  <Rbt.Receptor>
prm/blind_docking_100.prm

>  <SCORE>
-5.60291

>  <SCORE.INTER>
-5.60291

>  <SCORE.INTER.CONST>
1

>  <SCORE.INTER.POLAR>
0

>  <SCORE.INTER.ROT>
0

>  <SCORE.INTER.SOLV>
1.77277

>  <SCORE.INTER.VDW>
-7.92619

>  <SCORE.INTER.norm>
-1.40073

>  <SCORE.INTRA>
0

>  <SCORE.INTRA.DIHEDRAL>
0

>  <SCORE.INTRA.DIHEDRAL.0>
0

>  <SCORE.INTRA.POLAR>
0

>  <SCORE.INTRA.POLAR.0>
0

>  <SCORE.INTRA.REPUL>
0

>  <SCORE.INTRA.REPUL.0>
0

>  <SCORE.INTRA.SOLV>
0

>  <SCORE.INTRA.SOLV.lig_0>
0.449748

>  <SCORE.INTRA.VDW>
0

>  <SCORE.INTRA.VDW.0>
0

>  <SCORE.INTRA.norm>
0

>  <SCORE.RESTR>
0

>  <SCORE.RESTR.CAVITY>
0

>  <SCORE.RESTR.norm>
0

>  <SCORE.SYSTEM>
0

>  <SCORE.SYSTEM.CONST>
0

>  <SCORE.SYSTEM.DIHEDRAL>
0

>  <SCORE.SYSTEM.SOLV>
0

>  <SCORE.SYSTEM.norm>
0

>  <SCORE.heavy>
4

>  <SCORE.norm>
-1.40073

>  <RMSD>
26.456

$$$$
ligand
 OpenBabel11021811493D
libRbt.so/2013.1/901 2013/11/27
  4  3  0  0  0  0  0  0  0  0999 V2000
   11.3392   11.9258    4.9993 C   0  0  0  0  0  0  0  0  0  0  0  0
   11.5611   10.8960    5.6738 O   0  0  0  0  0  0  0  0  0  0  0  0
   11.1736   13.2229    5.7800 C   0  0  0  0  0  0  0  0  0  0  0  0
   11.2282   12.0341    3.6996 O   0  0  0  0  0  0  0  0  0  0  0  0
  1  2  1  0  0  0  0
  1  3  1  0  0  0  0
  1  4  1  0  0  0  0
M  END
>  <CHROM.1>
11.32705478,12.00638442,5.02867710,-1.25238002,-1.38889758,1.17596054

>  <Name>
ligand

>  <RI>
0

>  <Rbt.Current_Directory>
/home/itssahil/PROJECTS/Mol_Feturizer/New_Systems/rnas/4FEN

>  <Rbt.Executable>
rbdock ($Id: //depot/dev/client3/rdock/2013.1/src/exe/rbdock.cxx#4 $)

>  <Rbt.Library>
libRbt.so (2013.1, Build901 2013/11/27)

>  <Rbt.Parameter_File>
/export/apps/rDock/src/rDock_2013.1_src/data/scripts/dock_solv.prm

>  <Rbt.Receptor>
prm/blind_docking_20.prm

>  <SCORE>
-5.56263

>  <SCORE.INTER>
-5.56263

>  <SCORE.INTER.CONST>
1

>  <SCORE.INTER.POLAR>
0

>  <SCORE.INTER.ROT>
0

>  <SCORE.INTER.SOLV>
1.76805

>  <SCORE.INTER.VDW>
-7.89777

>  <SCORE.INTER.norm>
-1.39066

>  <SCORE.INTRA>
0

>  <SCORE.INTRA.DIHEDRAL>
0

>  <SCORE.INTRA.DIHEDRAL.0>
0

>  <SCORE.INTRA.POLAR>
0

>  <SCORE.INTRA.POLAR.0>
0

>  <SCORE.INTRA.REPUL>
0

>  <SCORE.INTRA.REPUL.0>
0

>  <SCORE.INTRA.SOLV>
0

>  <SCORE.INTRA.SOLV.lig_0>
0.449748

>  <SCORE.INTRA.VDW>
0

>  <SCORE.INTRA.VDW.0>
0

>  <SCORE.INTRA.norm>
0

>  <SCORE.RESTR>
0

>  <SCORE.RESTR.CAVITY>
0

>  <SCORE.RESTR.norm>
0

>  <SCORE.SYSTEM>
0

>  <SCORE.SYSTEM.CONST>
0

>  <SCORE.SYSTEM.DIHEDRAL>
0

>  <SCORE.SYSTEM.SOLV>
0

>  <SCORE.SYSTEM.norm>
0

>  <SCORE.heavy>
4

>  <SCORE.norm>
-1.39066

>  <RMSD>
26.456

$$$$
ligand
 OpenBabel11021811493D
libRbt.so/2013.1/901 2013/11/27
  4  3  0  0  0  0  0  0  0  0999 V2000
   11.3410   11.9240    4.9869 C   0  0  0  0  0  0  0  0  0  0  0  0
   11.5379   10.8911    5.6643 O   0  0  0  0  0  0  0  0  0  0  0  0
   11.1834   13.2234    5.7654 C   0  0  0  0  0  0  0  0  0  0  0  0
   11.2501   12.0339    3.6858 O   0  0  0  0  0  0  0  0  0  0  0  0
  1  2  1  0  0  0  0
  1  3  1  0  0  0  0
  1  4  1  0  0  0  0
M  END
>  <CHROM.1>
11.32959385,12.00476491,5.01611364,-1.20608377,-1.40787390,1.22163484

>  <Name>
ligand

>  <RI>
0

>  <Rbt.Current_Directory>
/home/itssahil/PROJECTS/Mol_Feturizer/New_Systems/rnas/4FEN

>  <Rbt.Executable>
rbdock ($Id: //depot/dev/client3/rdock/2013.1/src/exe/rbdock.cxx#4 $)

>  <Rbt.Library>
libRbt.so (2013.1, Build901 2013/11/27)

>  <Rbt.Parameter_File>
/export/apps/rDock/src/rDock_2013.1_src/data/scripts/dock_solv.prm

>  <Rbt.Receptor>
prm/blind_docking_20.prm

>  <SCORE>
-5.55713

>  <SCORE.INTER>
-5.55713

>  <SCORE.INTER.CONST>
1

>  <SCORE.INTER.POLAR>
0

>  <SCORE.INTER.ROT>
0

>  <SCORE.INTER.SOLV>
1.77321

>  <SCORE.INTER.VDW>
-7.89582

>  <SCORE.INTER.norm>
-1.38928

>  <SCORE.INTRA>
0

>  <SCORE.INTRA.DIHEDRAL>
0

>  <SCORE.INTRA.DIHEDRAL.0>
0

>  <SCORE.INTRA.POLAR>
0

>  <SCORE.INTRA.POLAR.0>
0

>  <SCORE.INTRA.REPUL>
0

>  <SCORE.INTRA.REPUL.0>
0

>  <SCORE.INTRA.SOLV>
0

>  <SCORE.INTRA.SOLV.lig_0>
0.449748

>  <SCORE.INTRA.VDW>
0

>  <SCORE.INTRA.VDW.0>
0

>  <SCORE.INTRA.norm>
0

>  <SCORE.RESTR>
0

>  <SCORE.RESTR.CAVITY>
0

>  <SCORE.RESTR.norm>
0

>  <SCORE.SYSTEM>
0

>  <SCORE.SYSTEM.CONST>
0

>  <SCORE.SYSTEM.DIHEDRAL>
0

>  <SCORE.SYSTEM.SOLV>
0

>  <SCORE.SYSTEM.norm>
0

>  <SCORE.heavy>
4

>  <SCORE.norm>
-1.38928

>  <RMSD>
26.456

$$$$
ligand
 OpenBabel11021811493D
libRbt.so/2013.1/901 2013/11/27
  4  3  0  0  0  0  0  0  0  0999 V2000
   11.3334   11.9102    4.9984 C   0  0  0  0  0  0  0  0  0  0  0  0
   11.1962   11.9813    3.7571 O   0  0  0  0  0  0  0  0  0  0  0  0
   11.2062   13.2178    5.7688 C   0  0  0  0  0  0  0  0  0  0  0  0
   11.5759   10.8501    5.7269 O   0  0  0  0  0  0  0  0  0  0  0  0
  1  2  1  0  0  0  0
  1  3  1  0  0  0  0
  1  4  1  0  0  0  0
M  END
>  <CHROM.1>
11.32956306,11.97516194,5.05562673,0.77541542,1.38493566,-2.14443823

>  <Name>
ligand

>  <RI>
0

>  <Rbt.Current_Directory>
/home/itssahil/PROJECTS/Mol_Feturizer/New_Systems/rnas/4FEN

>  <Rbt.Executable>
rbdock ($Id: //depot/dev/client3/rdock/2013.1/src/exe/rbdock.cxx#4 $)

>  <Rbt.Library>
libRbt.so (2013.1, Build901 2013/11/27)

>  <Rbt.Parameter_File>
/export/apps/rDock/src/rDock_2013.1_src/data/scripts/dock_solv.prm

>  <Rbt.Receptor>
prm/blind_docking_40.prm

>  <SCORE>
-5.60373

>  <SCORE.INTER>
-5.60373

>  <SCORE.INTER.CONST>
1

>  <SCORE.INTER.POLAR>
0

>  <SCORE.INTER.ROT>
0

>  <SCORE.INTER.SOLV>
1.76994

>  <SCORE.INTER.VDW>
-7.9258

>  <SCORE.INTER.norm>
-1.40093

>  <SCORE.INTRA>
0

>  <SCORE.INTRA.DIHEDRAL>
0

>  <SCORE.INTRA.DIHEDRAL.0>
0

>  <SCORE.INTRA.POLAR>
0

>  <SCORE.INTRA.POLAR.0>
0

>  <SCORE.INTRA.REPUL>
0

>  <SCORE.INTRA.REPUL.0>
0

>  <SCORE.INTRA.SOLV>
0

>  <SCORE.INTRA.SOLV.lig_0>
0.449748

>  <SCORE.INTRA.VDW>
0

>  <SCORE.INTRA.VDW.0>
0

>  <SCORE.INTRA.norm>
0

>  <SCORE.RESTR>
0

>  <SCORE.RESTR.CAVITY>
0

>  <SCORE.RESTR.norm>
0

>  <SCORE.SYSTEM>
0

>  <SCORE.SYSTEM.CONST>
0

>  <SCORE.SYSTEM.DIHEDRAL>
0

>  <SCORE.SYSTEM.SOLV>
0

>  <SCORE.SYSTEM.norm>
0

>  <SCORE.heavy>
4

>  <SCORE.norm>
-1.40093

>  <RMSD>
26.456

$$$$
ligand
 OpenBabel11021811493D
libRbt.so/2013.1/901 2013/11/27
  4  3  0  0  0  0  0  0  0  0999 V2000
   11.3456   11.8872    5.0143 C   0  0  0  0  0  0  0  0  0  0  0  0
   11.5794   10.8778    5.7152 O   0  0  0  0  0  0  0  0  0  0  0  0
   11.1961   13.2074    5.7587 C   0  0  0  0  0  0  0  0  0  0  0  0
   11.2098   11.9566    3.7143 O   0  0  0  0  0  0  0  0  0  0  0  0
  1  2  1  0  0  0  0
  1  3  1  0  0  0  0
  1  4  1  0  0  0  0
M  END
>  <CHROM.1>
11.33410965,11.96865909,5.04151033,-1.34824654,-1.38154608,1.05164036

>  <Name>
ligand

>  <RI>
0

>  <Rbt.Current_Directory>
/home/itssahil/PROJECTS/Mol_Feturizer/New_Systems/rnas/4FEN

>  <Rbt.Executable>
rbdock ($Id: //depot/dev/client3/rdock/2013.1/src/exe/rbdock.cxx#4 $)

>  <Rbt.Library>
libRbt.so (2013.1, Build901 2013/11/27)

>  <Rbt.Parameter_File>
/export/apps/rDock/src/rDock_2013.1_src/data/scripts/dock_solv.prm

>  <Rbt.Receptor>
prm/blind_docking_40.prm

>  <SCORE>
-5.54926

>  <SCORE.INTER>
-5.54926

>  <SCORE.INTER.CONST>
1

>  <SCORE.INTER.POLAR>
0

>  <SCORE.INTER.ROT>
0

>  <SCORE.INTER.SOLV>
1.76937

>  <SCORE.INTER.VDW>
-7.88929

>  <SCORE.INTER.norm>
-1.38731

>  <SCORE.INTRA>
0

>  <SCORE.INTRA.DIHEDRAL>
0

>  <SCORE.INTRA.DIHEDRAL.0>
0

>  <SCORE.INTRA.POLAR>
0

>  <SCORE.INTRA.POLAR.0>
0

>  <SCORE.INTRA.REPUL>
0

>  <SCORE.INTRA.REPUL.0>
0

>  <SCORE.INTRA.SOLV>
0

>  <SCORE.INTRA.SOLV.lig_0>
0.449748

>  <SCORE.INTRA.VDW>
0

>  <SCORE.INTRA.VDW.0>
0

>  <SCORE.INTRA.norm>
0

>  <SCORE.RESTR>
0

>  <SCORE.RESTR.CAVITY>
0

>  <SCORE.RESTR.norm>
0

>  <SCORE.SYSTEM>
0

>  <SCORE.SYSTEM.CONST>
0

>  <SCORE.SYSTEM.DIHEDRAL>
0

>  <SCORE.SYSTEM.SOLV>
0

>  <SCORE.SYSTEM.norm>
0

>  <SCORE.heavy>
4

>  <SCORE.norm>
-1.38731

>  <RMSD>
26.456

$$$$
ligand
 OpenBabel11021811493D
libRbt.so/2013.1/901 2013/11/27
  4  3  0  0  0  0  0  0  0  0999 V2000
   11.3408   11.9242    4.9909 C   0  0  0  0  0  0  0  0  0  0  0  0
   11.5605   10.8942    5.6659 O   0  0  0  0  0  0  0  0  0  0  0  0
   11.1802   13.2223    5.7710 C   0  0  0  0  0  0  0  0  0  0  0  0
   11.2283   12.0319    3.6913 O   0  0  0  0  0  0  0  0  0  0  0  0
  1  2  1  0  0  0  0
  1  3  1  0  0  0  0
  1  4  1  0  0  0  0
M  END
>  <CHROM.1>
11.32896210,12.00480849,5.02028033,-1.26612151,-1.39112477,1.16172578

>  <Name>
ligand

>  <RI>
0

>  <Rbt.Current_Directory>
/home/itssahil/PROJECTS/Mol_Feturizer/New_Systems/rnas/4FEN

>  <Rbt.Executable>
rbdock ($Id: //depot/dev/client3/rdock/2013.1/src/exe/rbdock.cxx#4 $)

>  <Rbt.Library>
libRbt.so (2013.1, Build901 2013/11/27)

>  <Rbt.Parameter_File>
/export/apps/rDock/src/rDock_2013.1_src/data/scripts/dock_solv.prm

>  <Rbt.Receptor>
prm/blind_docking_80.prm

>  <SCORE>
-5.56438

>  <SCORE.INTER>
-5.56438

>  <SCORE.INTER.CONST>
1

>  <SCORE.INTER.POLAR>
0

>  <SCORE.INTER.ROT>
0

>  <SCORE.INTER.SOLV>
1.76953

>  <SCORE.INTER.VDW>
-7.89943

>  <SCORE.INTER.norm>
-1.3911

>  <SCORE.INTRA>
0

>  <SCORE.INTRA.DIHEDRAL>
0

>  <SCORE.INTRA.DIHEDRAL.0>
0

>  <SCORE.INTRA.POLAR>
0

>  <SCORE.INTRA.POLAR.0>
0

>  <SCORE.INTRA.REPUL>
0

>  <SCORE.INTRA.REPUL.0>
0

>  <SCORE.INTRA.SOLV>
0

>  <SCORE.INTRA.SOLV.lig_0>
0.449748

>  <SCORE.INTRA.VDW>
0

>  <SCORE.INTRA.VDW.0>
0

>  <SCORE.INTRA.norm>
0

>  <SCORE.RESTR>
0

>  <SCORE.RESTR.CAVITY>
0

>  <SCORE.RESTR.norm>
0

>  <SCORE.SYSTEM>
0

>  <SCORE.SYSTEM.CONST>
0

>  <SCORE.SYSTEM.DIHEDRAL>
0

>  <SCORE.SYSTEM.SOLV>
0

>  <SCORE.SYSTEM.norm>
0

>  <SCORE.heavy>
4

>  <SCORE.norm>
-1.3911

>  <RMSD>
26.456

$$$$
ligand
 OpenBabel11021811493D
libRbt.so/2013.1/901 2013/11/27
  4  3  0  0  0  0  0  0  0  0999 V2000
   11.3477   11.8653    5.0062 C   0  0  0  0  0  0  0  0  0  0  0  0
   11.2496   11.9084    3.7599 O   0  0  0  0  0  0  0  0  0  0  0  0
   11.1815   13.1874    5.7436 C   0  0  0  0  0  0  0  0  0  0  0  0
   11.5783   10.8239    5.7648 O   0  0  0  0  0  0  0  0  0  0  0  0
  1  2  1  0  0  0  0
  1  3  1  0  0  0  0
  1  4  1  0  0  0  0
M  END
>  <CHROM.1>
11.34130324,11.93142789,5.06180856,0.59131539,1.39016009,-1.98488997

>  <Name>
ligand

>  <RI>
0

>  <Rbt.Current_Directory>
/home/itssahil/PROJECTS/Mol_Feturizer/New_Systems/rnas/4FEN

>  <Rbt.Executable>
rbdock ($Id: //depot/dev/client3/rdock/2013.1/src/exe/rbdock.cxx#4 $)

>  <Rbt.Library>
libRbt.so (2013.1, Build901 2013/11/27)

>  <Rbt.Parameter_File>
/export/apps/rDock/src/rDock_2013.1_src/data/scripts/dock_solv.prm

>  <Rbt.Receptor>
prm/blind_docking_100.prm

>  <SCORE>
-5.60822

>  <SCORE.INTER>
-5.60822

>  <SCORE.INTER.CONST>
1

>  <SCORE.INTER.POLAR>
0

>  <SCORE.INTER.ROT>
0

>  <SCORE.INTER.SOLV>
1.77018

>  <SCORE.INTER.VDW>
-7.92887

>  <SCORE.INTER.norm>
-1.40205

>  <SCORE.INTRA>
0

>  <SCORE.INTRA.DIHEDRAL>
0

>  <SCORE.INTRA.DIHEDRAL.0>
0

>  <SCORE.INTRA.POLAR>
0

>  <SCORE.INTRA.POLAR.0>
0

>  <SCORE.INTRA.REPUL>
0

>  <SCORE.INTRA.REPUL.0>
0

>  <SCORE.INTRA.SOLV>
0

>  <SCORE.INTRA.SOLV.lig_0>
0.449748

>  <SCORE.INTRA.VDW>
0

>  <SCORE.INTRA.VDW.0>
0

>  <SCORE.INTRA.norm>
0

>  <SCORE.RESTR>
0

>  <SCORE.RESTR.CAVITY>
0

>  <SCORE.RESTR.norm>
0

>  <SCORE.SYSTEM>
0

>  <SCORE.SYSTEM.CONST>
0

>  <SCORE.SYSTEM.DIHEDRAL>
0

>  <SCORE.SYSTEM.SOLV>
0

>  <SCORE.SYSTEM.norm>
0

>  <SCORE.heavy>
4

>  <SCORE.norm>
-1.40205

>  <RMSD>
26.457

$$$$
ligand
 OpenBabel11021811493D
libRbt.so/2013.1/901 2013/11/27
  4  3  0  0  0  0  0  0  0  0999 V2000
   11.3292   11.9450    4.9722 C   0  0  0  0  0  0  0  0  0  0  0  0
   11.1841   12.0383    3.7333 O   0  0  0  0  0  0  0  0  0  0  0  0
   11.1802   13.2341    5.7694 C   0  0  0  0  0  0  0  0  0  0  0  0
   11.5965   10.8756    5.6780 O   0  0  0  0  0  0  0  0  0  0  0  0
  1  2  1  0  0  0  0
  1  3  1  0  0  0  0
  1  4  1  0  0  0  0
M  END
>  <CHROM.1>
11.32436803,12.00871797,5.03074982,0.74449170,1.36530886,-2.09400196

>  <Name>
ligand

>  <RI>
0

>  <Rbt.Current_Directory>
/home/itssahil/PROJECTS/Mol_Feturizer/New_Systems/rnas/4FEN

>  <Rbt.Executable>
rbdock ($Id: //depot/dev/client3/rdock/2013.1/src/exe/rbdock.cxx#4 $)

>  <Rbt.Library>
libRbt.so (2013.1, Build901 2013/11/27)

>  <Rbt.Parameter_File>
/export/apps/rDock/src/rDock_2013.1_src/data/scripts/dock_solv.prm

>  <Rbt.Receptor>
prm/blind_docking_20.prm

>  <SCORE>
-5.6121

>  <SCORE.INTER>
-5.6121

>  <SCORE.INTER.CONST>
1

>  <SCORE.INTER.POLAR>
0

>  <SCORE.INTER.ROT>
0

>  <SCORE.INTER.SOLV>
1.76938

>  <SCORE.INTER.VDW>
-7.9312

>  <SCORE.INTER.norm>
-1.40303

>  <SCORE.INTRA>
0

>  <SCORE.INTRA.DIHEDRAL>
0

>  <SCORE.INTRA.DIHEDRAL.0>
0

>  <SCORE.INTRA.POLAR>
0

>  <SCORE.INTRA.POLAR.0>
0

>  <SCORE.INTRA.REPUL>
0

>  <SCORE.INTRA.REPUL.0>
0

>  <SCORE.INTRA.SOLV>
0

>  <SCORE.INTRA.SOLV.lig_0>
0.449748

>  <SCORE.INTRA.VDW>
0

>  <SCORE.INTRA.VDW.0>
0

>  <SCORE.INTRA.norm>
0

>  <SCORE.RESTR>
0

>  <SCORE.RESTR.CAVITY>
0

>  <SCORE.RESTR.norm>
0

>  <SCORE.SYSTEM>
0

>  <SCORE.SYSTEM.CONST>
0

>  <SCORE.SYSTEM.DIHEDRAL>
0

>  <SCORE.SYSTEM.SOLV>
0

>  <SCORE.SYSTEM.norm>
0

>  <SCORE.heavy>
4

>  <SCORE.norm>
-1.40303

>  <RMSD>
26.457

$$$$
ligand
 OpenBabel11021811493D
libRbt.so/2013.1/901 2013/11/27
  4  3  0  0  0  0  0  0  0  0999 V2000
   11.3408   11.9205    4.9869 C   0  0  0  0  0  0  0  0  0  0  0  0
   11.5396   10.8864    5.6620 O   0  0  0  0  0  0  0  0  0  0  0  0
   11.1844   13.2184    5.7683 C   0  0  0  0  0  0  0  0  0  0  0  0
   11.2472   12.0329    3.6862 O   0  0  0  0  0  0  0  0  0  0  0  0
  1  2  1  0  0  0  0
  1  3  1  0  0  0  0
  1  4  1  0  0  0  0
M  END
>  <CHROM.1>
11.32948495,12.00122837,5.01632094,-1.21734981,-1.40678603,1.21244932

>  <Name>
ligand

>  <RI>
0

>  <Rbt.Current_Directory>
/home/itssahil/PROJECTS/Mol_Feturizer/New_Systems/rnas/4FEN

>  <Rbt.Executable>
rbdock ($Id: //depot/dev/client3/rdock/2013.1/src/exe/rbdock.cxx#4 $)

>  <Rbt.Library>
libRbt.so (2013.1, Build901 2013/11/27)

>  <Rbt.Parameter_File>
/export/apps/rDock/src/rDock_2013.1_src/data/scripts/dock_solv.prm

>  <Rbt.Receptor>
prm/blind_docking_60.prm

>  <SCORE>
-5.55908

>  <SCORE.INTER>
-5.55908

>  <SCORE.INTER.CONST>
1

>  <SCORE.INTER.POLAR>
0

>  <SCORE.INTER.ROT>
0

>  <SCORE.INTER.SOLV>
1.77229

>  <SCORE.INTER.VDW>
-7.89681

>  <SCORE.INTER.norm>
-1.38977

>  <SCORE.INTRA>
0

>  <SCORE.INTRA.DIHEDRAL>
0

>  <SCORE.INTRA.DIHEDRAL.0>
0

>  <SCORE.INTRA.POLAR>
0

>  <SCORE.INTRA.POLAR.0>
0

>  <SCORE.INTRA.REPUL>
0

>  <SCORE.INTRA.REPUL.0>
0

>  <SCORE.INTRA.SOLV>
0

>  <SCORE.INTRA.SOLV.lig_0>
0.449748

>  <SCORE.INTRA.VDW>
0

>  <SCORE.INTRA.VDW.0>
0

>  <SCORE.INTRA.norm>
0

>  <SCORE.RESTR>
0

>  <SCORE.RESTR.CAVITY>
0

>  <SCORE.RESTR.norm>
0

>  <SCORE.SYSTEM>
0

>  <SCORE.SYSTEM.CONST>
0

>  <SCORE.SYSTEM.DIHEDRAL>
0

>  <SCORE.SYSTEM.SOLV>
0

>  <SCORE.SYSTEM.norm>
0

>  <SCORE.heavy>
4

>  <SCORE.norm>
-1.38977

>  <RMSD>
26.457

$$$$
ligand
 OpenBabel11021811493D
libRbt.so/2013.1/901 2013/11/27
  4  3  0  0  0  0  0  0  0  0999 V2000
   11.3276   11.9472    4.9714 C   0  0  0  0  0  0  0  0  0  0  0  0
   11.1966   12.0444    3.7312 O   0  0  0  0  0  0  0  0  0  0  0  0
   11.1912   13.2375    5.7689 C   0  0  0  0  0  0  0  0  0  0  0  0
   11.5704   10.8727    5.6782 O   0  0  0  0  0  0  0  0  0  0  0  0
  1  2  1  0  0  0  0
  1  3  1  0  0  0  0
  1  4  1  0  0  0  0
M  END
>  <CHROM.1>
11.32315686,12.01090989,5.02992372,0.74010771,1.38438268,-2.08831480

>  <Name>
ligand

>  <RI>
0

>  <Rbt.Current_Directory>
/home/itssahil/PROJECTS/Mol_Feturizer/New_Systems/rnas/4FEN

>  <Rbt.Executable>
rbdock ($Id: //depot/dev/client3/rdock/2013.1/src/exe/rbdock.cxx#4 $)

>  <Rbt.Library>
libRbt.so (2013.1, Build901 2013/11/27)

>  <Rbt.Parameter_File>
/export/apps/rDock/src/rDock_2013.1_src/data/scripts/dock_solv.prm

>  <Rbt.Receptor>
prm/blind_docking_100.prm

>  <SCORE>
-5.61835

>  <SCORE.INTER>
-5.61835

>  <SCORE.INTER.CONST>
1

>  <SCORE.INTER.POLAR>
0

>  <SCORE.INTER.ROT>
0

>  <SCORE.INTER.SOLV>
1.77234

>  <SCORE.INTER.VDW>
-7.93635

>  <SCORE.INTER.norm>
-1.40459

>  <SCORE.INTRA>
0

>  <SCORE.INTRA.DIHEDRAL>
0

>  <SCORE.INTRA.DIHEDRAL.0>
0

>  <SCORE.INTRA.POLAR>
0

>  <SCORE.INTRA.POLAR.0>
0

>  <SCORE.INTRA.REPUL>
0

>  <SCORE.INTRA.REPUL.0>
0

>  <SCORE.INTRA.SOLV>
0

>  <SCORE.INTRA.SOLV.lig_0>
0.449748

>  <SCORE.INTRA.VDW>
0

>  <SCORE.INTRA.VDW.0>
0

>  <SCORE.INTRA.norm>
0

>  <SCORE.RESTR>
0

>  <SCORE.RESTR.CAVITY>
0

>  <SCORE.RESTR.norm>
0

>  <SCORE.SYSTEM>
0

>  <SCORE.SYSTEM.CONST>
0

>  <SCORE.SYSTEM.DIHEDRAL>
0

>  <SCORE.SYSTEM.SOLV>
0

>  <SCORE.SYSTEM.norm>
0

>  <SCORE.heavy>
4

>  <SCORE.norm>
-1.40459

>  <RMSD>
26.458

$$$$
ligand
 OpenBabel11021811493D
libRbt.so/2013.1/901 2013/11/27
  4  3  0  0  0  0  0  0  0  0999 V2000
   11.3536   11.8775    4.9626 C   0  0  0  0  0  0  0  0  0  0  0  0
   11.2684   11.8632    3.7147 O   0  0  0  0  0  0  0  0  0  0  0  0
   11.1368   13.2243    5.6397 C   0  0  0  0  0  0  0  0  0  0  0  0
   11.6088   10.8780    5.7683 O   0  0  0  0  0  0  0  0  0  0  0  0
  1  2  1  0  0  0  0
  1  3  1  0  0  0  0
  1  4  1  0  0  0  0
M  END
>  <CHROM.1>
11.34446903,11.94572907,5.01519628,0.47744359,1.36412576,-1.91678420

>  <Name>
ligand

>  <RI>
0

>  <Rbt.Current_Directory>
/home/itssahil/PROJECTS/Mol_Feturizer/New_Systems/rnas/4FEN

>  <Rbt.Executable>
rbdock ($Id: //depot/dev/client3/rdock/2013.1/src/exe/rbdock.cxx#4 $)

>  <Rbt.Library>
libRbt.so (2013.1, Build901 2013/11/27)

>  <Rbt.Parameter_File>
/export/apps/rDock/src/rDock_2013.1_src/data/scripts/dock_solv.prm

>  <Rbt.Receptor>
prm/blind_docking_100.prm

>  <SCORE>
-5.5862

>  <SCORE.INTER>
-5.5862

>  <SCORE.INTER.CONST>
1

>  <SCORE.INTER.POLAR>
0

>  <SCORE.INTER.ROT>
0

>  <SCORE.INTER.SOLV>
1.7738

>  <SCORE.INTER.VDW>
-7.9154

>  <SCORE.INTER.norm>
-1.39655

>  <SCORE.INTRA>
0

>  <SCORE.INTRA.DIHEDRAL>
0

>  <SCORE.INTRA.DIHEDRAL.0>
0

>  <SCORE.INTRA.POLAR>
0

>  <SCORE.INTRA.POLAR.0>
0

>  <SCORE.INTRA.REPUL>
0

>  <SCORE.INTRA.REPUL.0>
0

>  <SCORE.INTRA.SOLV>
0

>  <SCORE.INTRA.SOLV.lig_0>
0.449748

>  <SCORE.INTRA.VDW>
0

>  <SCORE.INTRA.VDW.0>
0

>  <SCORE.INTRA.norm>
0

>  <SCORE.RESTR>
0

>  <SCORE.RESTR.CAVITY>
0

>  <SCORE.RESTR.norm>
0

>  <SCORE.SYSTEM>
0

>  <SCORE.SYSTEM.CONST>
0

>  <SCORE.SYSTEM.DIHEDRAL>
0

>  <SCORE.SYSTEM.SOLV>
0

>  <SCORE.SYSTEM.norm>
0

>  <SCORE.heavy>
4

>  <SCORE.norm>
-1.39655

>  <RMSD>
26.458

$$$$
ligand
 OpenBabel11021811493D
libRbt.so/2013.1/901 2013/11/27
  4  3  0  0  0  0  0  0  0  0999 V2000
   11.3461   11.8760    4.9940 C   0  0  0  0  0  0  0  0  0  0  0  0
   11.2803   11.9374    3.7464 O   0  0  0  0  0  0  0  0  0  0  0  0
   11.1848   13.1909    5.7452 C   0  0  0  0  0  0  0  0  0  0  0  0
   11.5389   10.8205    5.7437 O   0  0  0  0  0  0  0  0  0  0  0  0
  1  2  1  0  0  0  0
  1  3  1  0  0  0  0
  1  4  1  0  0  0  0
M  END
>  <CHROM.1>
11.33946489,11.94144534,5.05034988,0.48759823,1.41574640,-1.86905586

>  <Name>
ligand

>  <RI>
0

>  <Rbt.Current_Directory>
/home/itssahil/PROJECTS/Mol_Feturizer/New_Systems/rnas/4FEN

>  <Rbt.Executable>
rbdock ($Id: //depot/dev/client3/rdock/2013.1/src/exe/rbdock.cxx#4 $)

>  <Rbt.Library>
libRbt.so (2013.1, Build901 2013/11/27)

>  <Rbt.Parameter_File>
/export/apps/rDock/src/rDock_2013.1_src/data/scripts/dock_solv.prm

>  <Rbt.Receptor>
prm/blind_docking_20.prm

>  <SCORE>
-5.59736

>  <SCORE.INTER>
-5.59736

>  <SCORE.INTER.CONST>
1

>  <SCORE.INTER.POLAR>
0

>  <SCORE.INTER.ROT>
0

>  <SCORE.INTER.SOLV>
1.7747

>  <SCORE.INTER.VDW>
-7.92314

>  <SCORE.INTER.norm>
-1.39934

>  <SCORE.INTRA>
0

>  <SCORE.INTRA.DIHEDRAL>
0

>  <SCORE.INTRA.DIHEDRAL.0>
0

>  <SCORE.INTRA.POLAR>
0

>  <SCORE.INTRA.POLAR.0>
0

>  <SCORE.INTRA.REPUL>
0

>  <SCORE.INTRA.REPUL.0>
0

>  <SCORE.INTRA.SOLV>
0

>  <SCORE.INTRA.SOLV.lig_0>
0.449748

>  <SCORE.INTRA.VDW>
0

>  <SCORE.INTRA.VDW.0>
0

>  <SCORE.INTRA.norm>
0

>  <SCORE.RESTR>
0

>  <SCORE.RESTR.CAVITY>
0

>  <SCORE.RESTR.norm>
0

>  <SCORE.SYSTEM>
0

>  <SCORE.SYSTEM.CONST>
0

>  <SCORE.SYSTEM.DIHEDRAL>
0

>  <SCORE.SYSTEM.SOLV>
0

>  <SCORE.SYSTEM.norm>
0

>  <SCORE.heavy>
4

>  <SCORE.norm>
-1.39934

>  <RMSD>
26.458

$$$$
ligand
 OpenBabel11021811493D
libRbt.so/2013.1/901 2013/11/27
  4  3  0  0  0  0  0  0  0  0999 V2000
   11.3294   11.9794    4.9536 C   0  0  0  0  0  0  0  0  0  0  0  0
   11.5888   10.9305    5.5839 O   0  0  0  0  0  0  0  0  0  0  0  0
   11.1953   13.2504    5.7819 C   0  0  0  0  0  0  0  0  0  0  0  0
   11.1550   12.1275    3.6648 O   0  0  0  0  0  0  0  0  0  0  0  0
  1  2  1  0  0  0  0
  1  3  1  0  0  0  0
  1  4  1  0  0  0  0
M  END
>  <CHROM.1>
11.31829457,12.05894181,4.98606390,-1.45956449,-1.36129679,1.00406878

>  <Name>
ligand

>  <RI>
0

>  <Rbt.Current_Directory>
/home/itssahil/PROJECTS/Mol_Feturizer/New_Systems/rnas/4FEN

>  <Rbt.Executable>
rbdock ($Id: //depot/dev/client3/rdock/2013.1/src/exe/rbdock.cxx#4 $)

>  <Rbt.Library>
libRbt.so (2013.1, Build901 2013/11/27)

>  <Rbt.Parameter_File>
/export/apps/rDock/src/rDock_2013.1_src/data/scripts/dock_solv.prm

>  <Rbt.Receptor>
prm/blind_docking_20.prm

>  <SCORE>
-5.56432

>  <SCORE.INTER>
-5.56432

>  <SCORE.INTER.CONST>
1

>  <SCORE.INTER.POLAR>
0

>  <SCORE.INTER.ROT>
0

>  <SCORE.INTER.SOLV>
1.77508

>  <SCORE.INTER.VDW>
-7.90124

>  <SCORE.INTER.norm>
-1.39108

>  <SCORE.INTRA>
0

>  <SCORE.INTRA.DIHEDRAL>
0

>  <SCORE.INTRA.DIHEDRAL.0>
0

>  <SCORE.INTRA.POLAR>
0

>  <SCORE.INTRA.POLAR.0>
0

>  <SCORE.INTRA.REPUL>
0

>  <SCORE.INTRA.REPUL.0>
0

>  <SCORE.INTRA.SOLV>
0

>  <SCORE.INTRA.SOLV.lig_0>
0.449748

>  <SCORE.INTRA.VDW>
0

>  <SCORE.INTRA.VDW.0>
0

>  <SCORE.INTRA.norm>
0

>  <SCORE.RESTR>
0

>  <SCORE.RESTR.CAVITY>
0

>  <SCORE.RESTR.norm>
0

>  <SCORE.SYSTEM>
0

>  <SCORE.SYSTEM.CONST>
0

>  <SCORE.SYSTEM.DIHEDRAL>
0

>  <SCORE.SYSTEM.SOLV>
0

>  <SCORE.SYSTEM.norm>
0

>  <SCORE.heavy>
4

>  <SCORE.norm>
-1.39108

>  <RMSD>
26.458

$$$$
ligand
 OpenBabel11021811493D
libRbt.so/2013.1/901 2013/11/27
  4  3  0  0  0  0  0  0  0  0999 V2000
   11.3316   11.9391    4.9672 C   0  0  0  0  0  0  0  0  0  0  0  0
   11.2078   12.0433    3.7269 O   0  0  0  0  0  0  0  0  0  0  0  0
   11.1879   13.2243    5.7715 C   0  0  0  0  0  0  0  0  0  0  0  0
   11.5725   10.8609    5.6692 O   0  0  0  0  0  0  0  0  0  0  0  0
  1  2  1  0  0  0  0
  1  3  1  0  0  0  0
  1  4  1  0  0  0  0
M  END
>  <CHROM.1>
11.32674866,12.00242934,5.02611614,0.70669106,1.38538625,-2.04958296

>  <Name>
ligand

>  <RI>
0

>  <Rbt.Current_Directory>
/home/itssahil/PROJECTS/Mol_Feturizer/New_Systems/rnas/4FEN

>  <Rbt.Executable>
rbdock ($Id: //depot/dev/client3/rdock/2013.1/src/exe/rbdock.cxx#4 $)

>  <Rbt.Library>
libRbt.so (2013.1, Build901 2013/11/27)

>  <Rbt.Parameter_File>
/export/apps/rDock/src/rDock_2013.1_src/data/scripts/dock_solv.prm

>  <Rbt.Receptor>
prm/blind_docking_60.prm

>  <SCORE>
-5.6178

>  <SCORE.INTER>
-5.6178

>  <SCORE.INTER.CONST>
1

>  <SCORE.INTER.POLAR>
0

>  <SCORE.INTER.ROT>
0

>  <SCORE.INTER.SOLV>
1.77117

>  <SCORE.INTER.VDW>
-7.93559

>  <SCORE.INTER.norm>
-1.40445

>  <SCORE.INTRA>
0

>  <SCORE.INTRA.DIHEDRAL>
0

>  <SCORE.INTRA.DIHEDRAL.0>
0

>  <SCORE.INTRA.POLAR>
0

>  <SCORE.INTRA.POLAR.0>
0

>  <SCORE.INTRA.REPUL>
0

>  <SCORE.INTRA.REPUL.0>
0

>  <SCORE.INTRA.SOLV>
0

>  <SCORE.INTRA.SOLV.lig_0>
0.449748

>  <SCORE.INTRA.VDW>
0

>  <SCORE.INTRA.VDW.0>
0

>  <SCORE.INTRA.norm>
0

>  <SCORE.RESTR>
0

>  <SCORE.RESTR.CAVITY>
0

>  <SCORE.RESTR.norm>
0

>  <SCORE.SYSTEM>
0

>  <SCORE.SYSTEM.CONST>
0

>  <SCORE.SYSTEM.DIHEDRAL>
0

>  <SCORE.SYSTEM.SOLV>
0

>  <SCORE.SYSTEM.norm>
0

>  <SCORE.heavy>
4

>  <SCORE.norm>
-1.40445

>  <RMSD>
26.458

$$$$
ligand
 OpenBabel11021811493D
libRbt.so/2013.1/901 2013/11/27
  4  3  0  0  0  0  0  0  0  0999 V2000
   11.3557   11.8624    4.9868 C   0  0  0  0  0  0  0  0  0  0  0  0
   11.3114   11.9065    3.7375 O   0  0  0  0  0  0  0  0  0  0  0  0
   11.1375   13.1803    5.7182 C   0  0  0  0  0  0  0  0  0  0  0  0
   11.5688   10.8229    5.7532 O   0  0  0  0  0  0  0  0  0  0  0  0
  1  2  1  0  0  0  0
  1  3  1  0  0  0  0
  1  4  1  0  0  0  0
M  END
>  <CHROM.1>
11.34588750,11.92826680,5.04217634,0.33558306,1.38794909,-1.73157370

>  <Name>
ligand

>  <RI>
0

>  <Rbt.Current_Directory>
/home/itssahil/PROJECTS/Mol_Feturizer/New_Systems/rnas/4FEN

>  <Rbt.Executable>
rbdock ($Id: //depot/dev/client3/rdock/2013.1/src/exe/rbdock.cxx#4 $)

>  <Rbt.Library>
libRbt.so (2013.1, Build901 2013/11/27)

>  <Rbt.Parameter_File>
/export/apps/rDock/src/rDock_2013.1_src/data/scripts/dock_solv.prm

>  <Rbt.Receptor>
prm/blind_docking_60.prm

>  <SCORE>
-5.57873

>  <SCORE.INTER>
-5.57873

>  <SCORE.INTER.CONST>
1

>  <SCORE.INTER.POLAR>
0

>  <SCORE.INTER.ROT>
0

>  <SCORE.INTER.SOLV>
1.76969

>  <SCORE.INTER.VDW>
-7.90905

>  <SCORE.INTER.norm>
-1.39468

>  <SCORE.INTRA>
0

>  <SCORE.INTRA.DIHEDRAL>
0

>  <SCORE.INTRA.DIHEDRAL.0>
0

>  <SCORE.INTRA.POLAR>
0

>  <SCORE.INTRA.POLAR.0>
0

>  <SCORE.INTRA.REPUL>
0

>  <SCORE.INTRA.REPUL.0>
0

>  <SCORE.INTRA.SOLV>
0

>  <SCORE.INTRA.SOLV.lig_0>
0.449748

>  <SCORE.INTRA.VDW>
0

>  <SCORE.INTRA.VDW.0>
0

>  <SCORE.INTRA.norm>
0

>  <SCORE.RESTR>
0

>  <SCORE.RESTR.CAVITY>
0

>  <SCORE.RESTR.norm>
0

>  <SCORE.SYSTEM>
0

>  <SCORE.SYSTEM.CONST>
0

>  <SCORE.SYSTEM.DIHEDRAL>
0

>  <SCORE.SYSTEM.SOLV>
0

>  <SCORE.SYSTEM.norm>
0

>  <SCORE.heavy>
4

>  <SCORE.norm>
-1.39468

>  <RMSD>
26.458

$$$$
ligand
 OpenBabel11021811493D
libRbt.so/2013.1/901 2013/11/27
  4  3  0  0  0  0  0  0  0  0999 V2000
   11.3373   11.9201    4.9933 C   0  0  0  0  0  0  0  0  0  0  0  0
   11.5549   10.8901    5.6688 O   0  0  0  0  0  0  0  0  0  0  0  0
   11.1941   13.2214    5.7714 C   0  0  0  0  0  0  0  0  0  0  0  0
   11.2138   12.0255    3.6945 O   0  0  0  0  0  0  0  0  0  0  0  0
  1  2  1  0  0  0  0
  1  3  1  0  0  0  0
  1  4  1  0  0  0  0
M  END
>  <CHROM.1>
11.32634303,12.00089551,5.02252322,-1.33187206,-1.39442949,1.09448285

>  <Name>
ligand

>  <RI>
0

>  <Rbt.Current_Directory>
/home/itssahil/PROJECTS/Mol_Feturizer/New_Systems/rnas/4FEN

>  <Rbt.Executable>
rbdock ($Id: //depot/dev/client3/rdock/2013.1/src/exe/rbdock.cxx#4 $)

>  <Rbt.Library>
libRbt.so (2013.1, Build901 2013/11/27)

>  <Rbt.Parameter_File>
/export/apps/rDock/src/rDock_2013.1_src/data/scripts/dock_solv.prm

>  <Rbt.Receptor>
prm/blind_docking_100.prm

>  <SCORE>
-5.57095

>  <SCORE.INTER>
-5.57095

>  <SCORE.INTER.CONST>
1

>  <SCORE.INTER.POLAR>
0

>  <SCORE.INTER.ROT>
0

>  <SCORE.INTER.SOLV>
1.76942

>  <SCORE.INTER.VDW>
-7.90377

>  <SCORE.INTER.norm>
-1.39274

>  <SCORE.INTRA>
0

>  <SCORE.INTRA.DIHEDRAL>
0

>  <SCORE.INTRA.DIHEDRAL.0>
0

>  <SCORE.INTRA.POLAR>
0

>  <SCORE.INTRA.POLAR.0>
0

>  <SCORE.INTRA.REPUL>
0

>  <SCORE.INTRA.REPUL.0>
0

>  <SCORE.INTRA.SOLV>
0

>  <SCORE.INTRA.SOLV.lig_0>
0.449748

>  <SCORE.INTRA.VDW>
0

>  <SCORE.INTRA.VDW.0>
0

>  <SCORE.INTRA.norm>
0

>  <SCORE.RESTR>
0

>  <SCORE.RESTR.CAVITY>
0

>  <SCORE.RESTR.norm>
0

>  <SCORE.SYSTEM>
0

>  <SCORE.SYSTEM.CONST>
0

>  <SCORE.SYSTEM.DIHEDRAL>
0

>  <SCORE.SYSTEM.SOLV>
0

>  <SCORE.SYSTEM.norm>
0

>  <SCORE.heavy>
4

>  <SCORE.norm>
-1.39274

>  <RMSD>
26.459

$$$$
ligand
 OpenBabel11021811493D
libRbt.so/2013.1/901 2013/11/27
  4  3  0  0  0  0  0  0  0  0999 V2000
   11.3278   11.9836    4.9547 C   0  0  0  0  0  0  0  0  0  0  0  0
   11.5893   10.9380    5.5894 O   0  0  0  0  0  0  0  0  0  0  0  0
   11.1736   13.2546    5.7795 C   0  0  0  0  0  0  0  0  0  0  0  0
   11.1663   12.1283    3.6639 O   0  0  0  0  0  0  0  0  0  0  0  0
  1  2  1  0  0  0  0
  1  3  1  0  0  0  0
  1  4  1  0  0  0  0
M  END
>  <CHROM.1>
11.31562467,12.06311373,4.98694232,-1.39327461,-1.35942889,1.06736160

>  <Name>
ligand

>  <RI>
0

>  <Rbt.Current_Directory>
/home/itssahil/PROJECTS/Mol_Feturizer/New_Systems/rnas/4FEN

>  <Rbt.Executable>
rbdock ($Id: //depot/dev/client3/rdock/2013.1/src/exe/rbdock.cxx#4 $)

>  <Rbt.Library>
libRbt.so (2013.1, Build901 2013/11/27)

>  <Rbt.Parameter_File>
/export/apps/rDock/src/rDock_2013.1_src/data/scripts/dock_solv.prm

>  <Rbt.Receptor>
prm/blind_docking_20.prm

>  <SCORE>
-5.55859

>  <SCORE.INTER>
-5.55859

>  <SCORE.INTER.CONST>
1

>  <SCORE.INTER.POLAR>
0

>  <SCORE.INTER.ROT>
0

>  <SCORE.INTER.SOLV>
1.77484

>  <SCORE.INTER.VDW>
-7.89734

>  <SCORE.INTER.norm>
-1.38965

>  <SCORE.INTRA>
0

>  <SCORE.INTRA.DIHEDRAL>
0

>  <SCORE.INTRA.DIHEDRAL.0>
0

>  <SCORE.INTRA.POLAR>
0

>  <SCORE.INTRA.POLAR.0>
0

>  <SCORE.INTRA.REPUL>
0

>  <SCORE.INTRA.REPUL.0>
0

>  <SCORE.INTRA.SOLV>
0

>  <SCORE.INTRA.SOLV.lig_0>
0.449748

>  <SCORE.INTRA.VDW>
0

>  <SCORE.INTRA.VDW.0>
0

>  <SCORE.INTRA.norm>
0

>  <SCORE.RESTR>
0

>  <SCORE.RESTR.CAVITY>
0

>  <SCORE.RESTR.norm>
0

>  <SCORE.SYSTEM>
0

>  <SCORE.SYSTEM.CONST>
0

>  <SCORE.SYSTEM.DIHEDRAL>
0

>  <SCORE.SYSTEM.SOLV>
0

>  <SCORE.SYSTEM.norm>
0

>  <SCORE.heavy>
4

>  <SCORE.norm>
-1.38965

>  <RMSD>
26.459

$$$$
ligand
 OpenBabel11021811493D
libRbt.so/2013.1/901 2013/11/27
  4  3  0  0  0  0  0  0  0  0999 V2000
   11.3260   11.9437    4.9715 C   0  0  0  0  0  0  0  0  0  0  0  0
   11.1862   12.0379    3.7320 O   0  0  0  0  0  0  0  0  0  0  0  0
   11.1917   13.2353    5.7672 C   0  0  0  0  0  0  0  0  0  0  0  0
   11.5766   10.8713    5.6789 O   0  0  0  0  0  0  0  0  0  0  0  0
  1  2  1  0  0  0  0
  1  3  1  0  0  0  0
  1  4  1  0  0  0  0
M  END
>  <CHROM.1>
11.32183866,12.00750038,5.02993057,0.76480496,1.37856588,-2.11470222

>  <Name>
ligand

>  <RI>
0

>  <Rbt.Current_Directory>
/home/itssahil/PROJECTS/Mol_Feturizer/New_Systems/rnas/4FEN

>  <Rbt.Executable>
rbdock ($Id: //depot/dev/client3/rdock/2013.1/src/exe/rbdock.cxx#4 $)

>  <Rbt.Library>
libRbt.so (2013.1, Build901 2013/11/27)

>  <Rbt.Parameter_File>
/export/apps/rDock/src/rDock_2013.1_src/data/scripts/dock_solv.prm

>  <Rbt.Receptor>
prm/blind_docking_100.prm

>  <SCORE>
-5.61824

>  <SCORE.INTER>
-5.61824

>  <SCORE.INTER.CONST>
1

>  <SCORE.INTER.POLAR>
0

>  <SCORE.INTER.ROT>
0

>  <SCORE.INTER.SOLV>
1.77163

>  <SCORE.INTER.VDW>
-7.93604

>  <SCORE.INTER.norm>
-1.40456

>  <SCORE.INTRA>
0

>  <SCORE.INTRA.DIHEDRAL>
0

>  <SCORE.INTRA.DIHEDRAL.0>
0

>  <SCORE.INTRA.POLAR>
0

>  <SCORE.INTRA.POLAR.0>
0

>  <SCORE.INTRA.REPUL>
0

>  <SCORE.INTRA.REPUL.0>
0

>  <SCORE.INTRA.SOLV>
0

>  <SCORE.INTRA.SOLV.lig_0>
0.449748

>  <SCORE.INTRA.VDW>
0

>  <SCORE.INTRA.VDW.0>
0

>  <SCORE.INTRA.norm>
0

>  <SCORE.RESTR>
0

>  <SCORE.RESTR.CAVITY>
0

>  <SCORE.RESTR.norm>
0

>  <SCORE.SYSTEM>
0

>  <SCORE.SYSTEM.CONST>
0

>  <SCORE.SYSTEM.DIHEDRAL>
0

>  <SCORE.SYSTEM.SOLV>
0

>  <SCORE.SYSTEM.norm>
0

>  <SCORE.heavy>
4

>  <SCORE.norm>
-1.40456

>  <RMSD>
26.460

$$$$
ligand
 OpenBabel11021811493D
libRbt.so/2013.1/901 2013/11/27
  4  3  0  0  0  0  0  0  0  0999 V2000
   11.3504   11.8733    5.0022 C   0  0  0  0  0  0  0  0  0  0  0  0
   11.5264   10.8511    5.7015 O   0  0  0  0  0  0  0  0  0  0  0  0
   11.1724   13.1851    5.7550 C   0  0  0  0  0  0  0  0  0  0  0  0
   11.2970   11.9624    3.6974 O   0  0  0  0  0  0  0  0  0  0  0  0
  1  2  1  0  0  0  0
  1  3  1  0  0  0  0
  1  4  1  0  0  0  0
M  END
>  <CHROM.1>
11.33831290,11.95448431,5.02979230,-1.03323479,-1.41672653,1.37630138

>  <Name>
ligand

>  <RI>
0

>  <Rbt.Current_Directory>
/home/itssahil/PROJECTS/Mol_Feturizer/New_Systems/rnas/4FEN

>  <Rbt.Executable>
rbdock ($Id: //depot/dev/client3/rdock/2013.1/src/exe/rbdock.cxx#4 $)

>  <Rbt.Library>
libRbt.so (2013.1, Build901 2013/11/27)

>  <Rbt.Parameter_File>
/export/apps/rDock/src/rDock_2013.1_src/data/scripts/dock_solv.prm

>  <Rbt.Receptor>
prm/blind_docking_100.prm

>  <SCORE>
-5.518

>  <SCORE.INTER>
-5.518

>  <SCORE.INTER.CONST>
1

>  <SCORE.INTER.POLAR>
0

>  <SCORE.INTER.ROT>
0

>  <SCORE.INTER.SOLV>
1.77236

>  <SCORE.INTER.VDW>
-7.86946

>  <SCORE.INTER.norm>
-1.3795

>  <SCORE.INTRA>
0

>  <SCORE.INTRA.DIHEDRAL>
0

>  <SCORE.INTRA.DIHEDRAL.0>
0

>  <SCORE.INTRA.POLAR>
0

>  <SCORE.INTRA.POLAR.0>
0

>  <SCORE.INTRA.REPUL>
0

>  <SCORE.INTRA.REPUL.0>
0

>  <SCORE.INTRA.SOLV>
0

>  <SCORE.INTRA.SOLV.lig_0>
0.449748

>  <SCORE.INTRA.VDW>
0

>  <SCORE.INTRA.VDW.0>
0

>  <SCORE.INTRA.norm>
0

>  <SCORE.RESTR>
0

>  <SCORE.RESTR.CAVITY>
0

>  <SCORE.RESTR.norm>
0

>  <SCORE.SYSTEM>
0

>  <SCORE.SYSTEM.CONST>
0

>  <SCORE.SYSTEM.DIHEDRAL>
0

>  <SCORE.SYSTEM.SOLV>
0

>  <SCORE.SYSTEM.norm>
0

>  <SCORE.heavy>
4

>  <SCORE.norm>
-1.3795

>  <RMSD>
26.460

$$$$
ligand
 OpenBabel11021811493D
libRbt.so/2013.1/901 2013/11/27
  4  3  0  0  0  0  0  0  0  0999 V2000
   11.3216   11.9619    4.9620 C   0  0  0  0  0  0  0  0  0  0  0  0
   11.1922   12.0804    3.7235 O   0  0  0  0  0  0  0  0  0  0  0  0
   11.2108   13.2425    5.7789 C   0  0  0  0  0  0  0  0  0  0  0  0
   11.5436   10.8723    5.6524 O   0  0  0  0  0  0  0  0  0  0  0  0
  1  2  1  0  0  0  0
  1  3  1  0  0  0  0
  1  4  1  0  0  0  0
M  END
>  <CHROM.1>
11.31846952,12.02483736,5.02151235,0.79936307,1.40093888,-2.13157352

>  <Name>
ligand

>  <RI>
0

>  <Rbt.Current_Directory>
/home/itssahil/PROJECTS/Mol_Feturizer/New_Systems/rnas/4FEN

>  <Rbt.Executable>
rbdock ($Id: //depot/dev/client3/rdock/2013.1/src/exe/rbdock.cxx#4 $)

>  <Rbt.Library>
libRbt.so (2013.1, Build901 2013/11/27)

>  <Rbt.Parameter_File>
/export/apps/rDock/src/rDock_2013.1_src/data/scripts/dock_solv.prm

>  <Rbt.Receptor>
prm/blind_docking_100.prm

>  <SCORE>
-5.58796

>  <SCORE.INTER>
-5.58796

>  <SCORE.INTER.CONST>
1

>  <SCORE.INTER.POLAR>
0

>  <SCORE.INTER.ROT>
0

>  <SCORE.INTER.SOLV>
1.77605

>  <SCORE.INTER.VDW>
-7.91732

>  <SCORE.INTER.norm>
-1.39699

>  <SCORE.INTRA>
0

>  <SCORE.INTRA.DIHEDRAL>
0

>  <SCORE.INTRA.DIHEDRAL.0>
0

>  <SCORE.INTRA.POLAR>
0

>  <SCORE.INTRA.POLAR.0>
0

>  <SCORE.INTRA.REPUL>
0

>  <SCORE.INTRA.REPUL.0>
0

>  <SCORE.INTRA.SOLV>
0

>  <SCORE.INTRA.SOLV.lig_0>
0.449748

>  <SCORE.INTRA.VDW>
0

>  <SCORE.INTRA.VDW.0>
0

>  <SCORE.INTRA.norm>
0

>  <SCORE.RESTR>
0

>  <SCORE.RESTR.CAVITY>
0

>  <SCORE.RESTR.norm>
0

>  <SCORE.SYSTEM>
0

>  <SCORE.SYSTEM.CONST>
0

>  <SCORE.SYSTEM.DIHEDRAL>
0

>  <SCORE.SYSTEM.SOLV>
0

>  <SCORE.SYSTEM.norm>
0

>  <SCORE.heavy>
4

>  <SCORE.norm>
-1.39699

>  <RMSD>
26.460

$$$$
ligand
 OpenBabel11021811493D
libRbt.so/2013.1/901 2013/11/27
  4  3  0  0  0  0  0  0  0  0999 V2000
   11.3368   11.9211    4.9907 C   0  0  0  0  0  0  0  0  0  0  0  0
   11.5472   10.8888    5.6652 O   0  0  0  0  0  0  0  0  0  0  0  0
   11.1761   13.2184    5.7721 C   0  0  0  0  0  0  0  0  0  0  0  0
   11.2343   12.0318    3.6905 O   0  0  0  0  0  0  0  0  0  0  0  0
  1  2  1  0  0  0  0
  1  3  1  0  0  0  0
  1  4  1  0  0  0  0
M  END
>  <CHROM.1>
11.32509580,12.00171099,5.02013730,-1.23700318,-1.39790595,1.19236169

>  <Name>
ligand

>  <RI>
0

>  <Rbt.Current_Directory>
/home/itssahil/PROJECTS/Mol_Feturizer/New_Systems/rnas/4FEN

>  <Rbt.Executable>
rbdock ($Id: //depot/dev/client3/rdock/2013.1/src/exe/rbdock.cxx#4 $)

>  <Rbt.Library>
libRbt.so (2013.1, Build901 2013/11/27)

>  <Rbt.Parameter_File>
/export/apps/rDock/src/rDock_2013.1_src/data/scripts/dock_solv.prm

>  <Rbt.Receptor>
prm/blind_docking_40.prm

>  <SCORE>
-5.56161

>  <SCORE.INTER>
-5.56161

>  <SCORE.INTER.CONST>
1

>  <SCORE.INTER.POLAR>
0

>  <SCORE.INTER.ROT>
0

>  <SCORE.INTER.SOLV>
1.76968

>  <SCORE.INTER.VDW>
-7.89764

>  <SCORE.INTER.norm>
-1.3904

>  <SCORE.INTRA>
0

>  <SCORE.INTRA.DIHEDRAL>
0

>  <SCORE.INTRA.DIHEDRAL.0>
0

>  <SCORE.INTRA.POLAR>
0

>  <SCORE.INTRA.POLAR.0>
0

>  <SCORE.INTRA.REPUL>
0

>  <SCORE.INTRA.REPUL.0>
0

>  <SCORE.INTRA.SOLV>
0

>  <SCORE.INTRA.SOLV.lig_0>
0.449748

>  <SCORE.INTRA.VDW>
0

>  <SCORE.INTRA.VDW.0>
0

>  <SCORE.INTRA.norm>
0

>  <SCORE.RESTR>
0

>  <SCORE.RESTR.CAVITY>
0

>  <SCORE.RESTR.norm>
0

>  <SCORE.SYSTEM>
0

>  <SCORE.SYSTEM.CONST>
0

>  <SCORE.SYSTEM.DIHEDRAL>
0

>  <SCORE.SYSTEM.SOLV>
0

>  <SCORE.SYSTEM.norm>
0

>  <SCORE.heavy>
4

>  <SCORE.norm>
-1.3904

>  <RMSD>
26.461

$$$$
ligand
 OpenBabel11021811493D
libRbt.so/2013.1/901 2013/11/27
  4  3  0  0  0  0  0  0  0  0999 V2000
   11.3352   11.9241    4.9890 C   0  0  0  0  0  0  0  0  0  0  0  0
   11.5236   10.8886    5.6651 O   0  0  0  0  0  0  0  0  0  0  0  0
   11.1742   13.2216    5.7699 C   0  0  0  0  0  0  0  0  0  0  0  0
   11.2561   12.0380    3.6875 O   0  0  0  0  0  0  0  0  0  0  0  0
  1  2  1  0  0  0  0
  1  3  1  0  0  0  0
  1  4  1  0  0  0  0
M  END
>  <CHROM.1>
11.32381167,12.00474737,5.01837175,-1.15931331,-1.41312801,1.27074663

>  <Name>
ligand

>  <RI>
0

>  <Rbt.Current_Directory>
/home/itssahil/PROJECTS/Mol_Feturizer/New_Systems/rnas/4FEN

>  <Rbt.Executable>
rbdock ($Id: //depot/dev/client3/rdock/2013.1/src/exe/rbdock.cxx#4 $)

>  <Rbt.Library>
libRbt.so (2013.1, Build901 2013/11/27)

>  <Rbt.Parameter_File>
/export/apps/rDock/src/rDock_2013.1_src/data/scripts/dock_solv.prm

>  <Rbt.Receptor>
prm/blind_docking_80.prm

>  <SCORE>
-5.54934

>  <SCORE.INTER>
-5.54934

>  <SCORE.INTER.CONST>
1

>  <SCORE.INTER.POLAR>
0

>  <SCORE.INTER.ROT>
0

>  <SCORE.INTER.SOLV>
1.77302

>  <SCORE.INTER.VDW>
-7.89057

>  <SCORE.INTER.norm>
-1.38734

>  <SCORE.INTRA>
0

>  <SCORE.INTRA.DIHEDRAL>
0

>  <SCORE.INTRA.DIHEDRAL.0>
0

>  <SCORE.INTRA.POLAR>
0

>  <SCORE.INTRA.POLAR.0>
0

>  <SCORE.INTRA.REPUL>
0

>  <SCORE.INTRA.REPUL.0>
0

>  <SCORE.INTRA.SOLV>
0

>  <SCORE.INTRA.SOLV.lig_0>
0.449748

>  <SCORE.INTRA.VDW>
0

>  <SCORE.INTRA.VDW.0>
0

>  <SCORE.INTRA.norm>
0

>  <SCORE.RESTR>
0

>  <SCORE.RESTR.CAVITY>
0

>  <SCORE.RESTR.norm>
0

>  <SCORE.SYSTEM>
0

>  <SCORE.SYSTEM.CONST>
0

>  <SCORE.SYSTEM.DIHEDRAL>
0

>  <SCORE.SYSTEM.SOLV>
0

>  <SCORE.SYSTEM.norm>
0

>  <SCORE.heavy>
4

>  <SCORE.norm>
-1.38734

>  <RMSD>
26.461

$$$$
ligand
 OpenBabel11021811493D
libRbt.so/2013.1/901 2013/11/27
  4  3  0  0  0  0  0  0  0  0999 V2000
   11.3307   11.9391    4.9562 C   0  0  0  0  0  0  0  0  0  0  0  0
   11.2117   12.0369    3.7149 O   0  0  0  0  0  0  0  0  0  0  0  0
   11.1740   13.2268    5.7541 C   0  0  0  0  0  0  0  0  0  0  0  0
   11.5762   10.8658    5.6640 O   0  0  0  0  0  0  0  0  0  0  0  0
  1  2  1  0  0  0  0
  1  3  1  0  0  0  0
  1  4  1  0  0  0  0
M  END
>  <CHROM.1>
11.32507027,12.00267362,5.01480597,0.66791311,1.38089585,-2.01594448

>  <Name>
ligand

>  <RI>
0

>  <Rbt.Current_Directory>
/home/itssahil/PROJECTS/Mol_Feturizer/New_Systems/rnas/4FEN

>  <Rbt.Executable>
rbdock ($Id: //depot/dev/client3/rdock/2013.1/src/exe/rbdock.cxx#4 $)

>  <Rbt.Library>
libRbt.so (2013.1, Build901 2013/11/27)

>  <Rbt.Parameter_File>
/export/apps/rDock/src/rDock_2013.1_src/data/scripts/dock_solv.prm

>  <Rbt.Receptor>
prm/blind_docking_40.prm

>  <SCORE>
-5.61498

>  <SCORE.INTER>
-5.61498

>  <SCORE.INTER.CONST>
1

>  <SCORE.INTER.POLAR>
0

>  <SCORE.INTER.ROT>
0

>  <SCORE.INTER.SOLV>
1.7722

>  <SCORE.INTER.VDW>
-7.93405

>  <SCORE.INTER.norm>
-1.40374

>  <SCORE.INTRA>
0

>  <SCORE.INTRA.DIHEDRAL>
0

>  <SCORE.INTRA.DIHEDRAL.0>
0

>  <SCORE.INTRA.POLAR>
0

>  <SCORE.INTRA.POLAR.0>
0

>  <SCORE.INTRA.REPUL>
0

>  <SCORE.INTRA.REPUL.0>
0

>  <SCORE.INTRA.SOLV>
0

>  <SCORE.INTRA.SOLV.lig_0>
0.449748

>  <SCORE.INTRA.VDW>
0

>  <SCORE.INTRA.VDW.0>
0

>  <SCORE.INTRA.norm>
0

>  <SCORE.RESTR>
0

>  <SCORE.RESTR.CAVITY>
0

>  <SCORE.RESTR.norm>
0

>  <SCORE.SYSTEM>
0

>  <SCORE.SYSTEM.CONST>
0

>  <SCORE.SYSTEM.DIHEDRAL>
0

>  <SCORE.SYSTEM.SOLV>
0

>  <SCORE.SYSTEM.norm>
0

>  <SCORE.heavy>
4

>  <SCORE.norm>
-1.40374

>  <RMSD>
26.462

$$$$
ligand
 OpenBabel11021811493D
libRbt.so/2013.1/901 2013/11/27
  4  3  0  0  0  0  0  0  0  0999 V2000
   11.3330   11.9301    4.9887 C   0  0  0  0  0  0  0  0  0  0  0  0
   11.5393   10.8949    5.6599 O   0  0  0  0  0  0  0  0  0  0  0  0
   11.1637   13.2233    5.7752 C   0  0  0  0  0  0  0  0  0  0  0  0
   11.2411   12.0471    3.6883 O   0  0  0  0  0  0  0  0  0  0  0  0
  1  2  1  0  0  0  0
  1  3  1  0  0  0  0
  1  4  1  0  0  0  0
M  END
>  <CHROM.1>
11.32088900,12.01058167,5.01845673,-1.18824384,-1.39930744,1.24533532

>  <Name>
ligand

>  <RI>
0

>  <Rbt.Current_Directory>
/home/itssahil/PROJECTS/Mol_Feturizer/New_Systems/rnas/4FEN

>  <Rbt.Executable>
rbdock ($Id: //depot/dev/client3/rdock/2013.1/src/exe/rbdock.cxx#4 $)

>  <Rbt.Library>
libRbt.so (2013.1, Build901 2013/11/27)

>  <Rbt.Parameter_File>
/export/apps/rDock/src/rDock_2013.1_src/data/scripts/dock_solv.prm

>  <Rbt.Receptor>
prm/blind_docking_80.prm

>  <SCORE>
-5.55123

>  <SCORE.INTER>
-5.55123

>  <SCORE.INTER.CONST>
1

>  <SCORE.INTER.POLAR>
0

>  <SCORE.INTER.ROT>
0

>  <SCORE.INTER.SOLV>
1.77021

>  <SCORE.INTER.VDW>
-7.89089

>  <SCORE.INTER.norm>
-1.38781

>  <SCORE.INTRA>
0

>  <SCORE.INTRA.DIHEDRAL>
0

>  <SCORE.INTRA.DIHEDRAL.0>
0

>  <SCORE.INTRA.POLAR>
0

>  <SCORE.INTRA.POLAR.0>
0

>  <SCORE.INTRA.REPUL>
0

>  <SCORE.INTRA.REPUL.0>
0

>  <SCORE.INTRA.SOLV>
0

>  <SCORE.INTRA.SOLV.lig_0>
0.449748

>  <SCORE.INTRA.VDW>
0

>  <SCORE.INTRA.VDW.0>
0

>  <SCORE.INTRA.norm>
0

>  <SCORE.RESTR>
0

>  <SCORE.RESTR.CAVITY>
0

>  <SCORE.RESTR.norm>
0

>  <SCORE.SYSTEM>
0

>  <SCORE.SYSTEM.CONST>
0

>  <SCORE.SYSTEM.DIHEDRAL>
0

>  <SCORE.SYSTEM.SOLV>
0

>  <SCORE.SYSTEM.norm>
0

>  <SCORE.heavy>
4

>  <SCORE.norm>
-1.38781

>  <RMSD>
26.462

$$$$
ligand
 OpenBabel11021811493D
libRbt.so/2013.1/901 2013/11/27
  4  3  0  0  0  0  0  0  0  0999 V2000
   11.3313   11.9261    4.9994 C   0  0  0  0  0  0  0  0  0  0  0  0
   11.5412   10.8924    5.6717 O   0  0  0  0  0  0  0  0  0  0  0  0
   11.1657   13.2209    5.7839 C   0  0  0  0  0  0  0  0  0  0  0  0
   11.2328   12.0403    3.6992 O   0  0  0  0  0  0  0  0  0  0  0  0
  1  2  1  0  0  0  0
  1  3  1  0  0  0  0
  1  4  1  0  0  0  0
M  END
>  <CHROM.1>
11.31929340,12.00665429,5.02900767,-1.21566870,-1.39744103,1.21617112

>  <Name>
ligand

>  <RI>
0

>  <Rbt.Current_Directory>
/home/itssahil/PROJECTS/Mol_Feturizer/New_Systems/rnas/4FEN

>  <Rbt.Executable>
rbdock ($Id: //depot/dev/client3/rdock/2013.1/src/exe/rbdock.cxx#4 $)

>  <Rbt.Library>
libRbt.so (2013.1, Build901 2013/11/27)

>  <Rbt.Parameter_File>
/export/apps/rDock/src/rDock_2013.1_src/data/scripts/dock_solv.prm

>  <Rbt.Receptor>
prm/blind_docking_60.prm

>  <SCORE>
-5.55656

>  <SCORE.INTER>
-5.55656

>  <SCORE.INTER.CONST>
1

>  <SCORE.INTER.POLAR>
0

>  <SCORE.INTER.ROT>
0

>  <SCORE.INTER.SOLV>
1.76799

>  <SCORE.INTER.VDW>
-7.89371

>  <SCORE.INTER.norm>
-1.38914

>  <SCORE.INTRA>
0

>  <SCORE.INTRA.DIHEDRAL>
0

>  <SCORE.INTRA.DIHEDRAL.0>
0

>  <SCORE.INTRA.POLAR>
0

>  <SCORE.INTRA.POLAR.0>
0

>  <SCORE.INTRA.REPUL>
0

>  <SCORE.INTRA.REPUL.0>
0

>  <SCORE.INTRA.SOLV>
0

>  <SCORE.INTRA.SOLV.lig_0>
0.449748

>  <SCORE.INTRA.VDW>
0

>  <SCORE.INTRA.VDW.0>
0

>  <SCORE.INTRA.norm>
0

>  <SCORE.RESTR>
0

>  <SCORE.RESTR.CAVITY>
0

>  <SCORE.RESTR.norm>
0

>  <SCORE.SYSTEM>
0

>  <SCORE.SYSTEM.CONST>
0

>  <SCORE.SYSTEM.DIHEDRAL>
0

>  <SCORE.SYSTEM.SOLV>
0

>  <SCORE.SYSTEM.norm>
0

>  <SCORE.heavy>
4

>  <SCORE.norm>
-1.38914

>  <RMSD>
26.463

$$$$
ligand
 OpenBabel11021811493D
libRbt.so/2013.1/901 2013/11/27
  4  3  0  0  0  0  0  0  0  0999 V2000
   11.3234   11.9439    4.9690 C   0  0  0  0  0  0  0  0  0  0  0  0
   11.2014   12.0435    3.7281 O   0  0  0  0  0  0  0  0  0  0  0  0
   11.1913   13.2342    5.7672 C   0  0  0  0  0  0  0  0  0  0  0  0
   11.5535   10.8667    5.6762 O   0  0  0  0  0  0  0  0  0  0  0  0
  1  2  1  0  0  0  0
  1  3  1  0  0  0  0
  1  4  1  0  0  0  0
M  END
>  <CHROM.1>
11.31907643,12.00754182,5.02762949,0.72824035,1.39410126,-2.07545463

>  <Name>
ligand

>  <RI>
0

>  <Rbt.Current_Directory>
/home/itssahil/PROJECTS/Mol_Feturizer/New_Systems/rnas/4FEN

>  <Rbt.Executable>
rbdock ($Id: //depot/dev/client3/rdock/2013.1/src/exe/rbdock.cxx#4 $)

>  <Rbt.Library>
libRbt.so (2013.1, Build901 2013/11/27)

>  <Rbt.Parameter_File>
/export/apps/rDock/src/rDock_2013.1_src/data/scripts/dock_solv.prm

>  <Rbt.Receptor>
prm/blind_docking_80.prm

>  <SCORE>
-5.61945

>  <SCORE.INTER>
-5.61945

>  <SCORE.INTER.CONST>
1

>  <SCORE.INTER.POLAR>
0

>  <SCORE.INTER.ROT>
0

>  <SCORE.INTER.SOLV>
1.77317

>  <SCORE.INTER.VDW>
-7.93735

>  <SCORE.INTER.norm>
-1.40486

>  <SCORE.INTRA>
0

>  <SCORE.INTRA.DIHEDRAL>
0

>  <SCORE.INTRA.DIHEDRAL.0>
0

>  <SCORE.INTRA.POLAR>
0

>  <SCORE.INTRA.POLAR.0>
0

>  <SCORE.INTRA.REPUL>
0

>  <SCORE.INTRA.REPUL.0>
0

>  <SCORE.INTRA.SOLV>
0

>  <SCORE.INTRA.SOLV.lig_0>
0.449748

>  <SCORE.INTRA.VDW>
0

>  <SCORE.INTRA.VDW.0>
0

>  <SCORE.INTRA.norm>
0

>  <SCORE.RESTR>
0

>  <SCORE.RESTR.CAVITY>
0

>  <SCORE.RESTR.norm>
0

>  <SCORE.SYSTEM>
0

>  <SCORE.SYSTEM.CONST>
0

>  <SCORE.SYSTEM.DIHEDRAL>
0

>  <SCORE.SYSTEM.SOLV>
0

>  <SCORE.SYSTEM.norm>
0

>  <SCORE.heavy>
4

>  <SCORE.norm>
-1.40486

>  <RMSD>
26.463

$$$$
ligand
 OpenBabel11021811493D
libRbt.so/2013.1/901 2013/11/27
  4  3  0  0  0  0  0  0  0  0999 V2000
   11.3295   11.9380    4.9544 C   0  0  0  0  0  0  0  0  0  0  0  0
   11.2306   12.0448    3.7120 O   0  0  0  0  0  0  0  0  0  0  0  0
   11.1799   13.2233    5.7575 C   0  0  0  0  0  0  0  0  0  0  0  0
   11.5485   10.8572    5.6593 O   0  0  0  0  0  0  0  0  0  0  0  0
  1  2  1  0  0  0  0
  1  3  1  0  0  0  0
  1  4  1  0  0  0  0
M  END
>  <CHROM.1>
11.32397881,12.00135002,5.01324604,0.62544672,1.40053199,-1.96828838

>  <Name>
ligand

>  <RI>
0

>  <Rbt.Current_Directory>
/home/itssahil/PROJECTS/Mol_Feturizer/New_Systems/rnas/4FEN

>  <Rbt.Executable>
rbdock ($Id: //depot/dev/client3/rdock/2013.1/src/exe/rbdock.cxx#4 $)

>  <Rbt.Library>
libRbt.so (2013.1, Build901 2013/11/27)

>  <Rbt.Parameter_File>
/export/apps/rDock/src/rDock_2013.1_src/data/scripts/dock_solv.prm

>  <Rbt.Receptor>
prm/blind_docking_100.prm

>  <SCORE>
-5.61329

>  <SCORE.INTER>
-5.61329

>  <SCORE.INTER.CONST>
1

>  <SCORE.INTER.POLAR>
0

>  <SCORE.INTER.ROT>
0

>  <SCORE.INTER.SOLV>
1.77512

>  <SCORE.INTER.VDW>
-7.9339

>  <SCORE.INTER.norm>
-1.40332

>  <SCORE.INTRA>
0

>  <SCORE.INTRA.DIHEDRAL>
0

>  <SCORE.INTRA.DIHEDRAL.0>
0

>  <SCORE.INTRA.POLAR>
0

>  <SCORE.INTRA.POLAR.0>
0

>  <SCORE.INTRA.REPUL>
0

>  <SCORE.INTRA.REPUL.0>
0

>  <SCORE.INTRA.SOLV>
0

>  <SCORE.INTRA.SOLV.lig_0>
0.449748

>  <SCORE.INTRA.VDW>
0

>  <SCORE.INTRA.VDW.0>
0

>  <SCORE.INTRA.norm>
0

>  <SCORE.RESTR>
0

>  <SCORE.RESTR.CAVITY>
0

>  <SCORE.RESTR.norm>
0

>  <SCORE.SYSTEM>
0

>  <SCORE.SYSTEM.CONST>
0

>  <SCORE.SYSTEM.DIHEDRAL>
0

>  <SCORE.SYSTEM.SOLV>
0

>  <SCORE.SYSTEM.norm>
0

>  <SCORE.heavy>
4

>  <SCORE.norm>
-1.40332

>  <RMSD>
26.464

$$$$
ligand
 OpenBabel11021811493D
libRbt.so/2013.1/901 2013/11/27
  4  3  0  0  0  0  0  0  0  0999 V2000
   11.3263   11.9433    4.9599 C   0  0  0  0  0  0  0  0  0  0  0  0
   11.2123   12.0413    3.7181 O   0  0  0  0  0  0  0  0  0  0  0  0
   11.1721   13.2319    5.7569 C   0  0  0  0  0  0  0  0  0  0  0  0
   11.5648   10.8692    5.6689 O   0  0  0  0  0  0  0  0  0  0  0  0
  1  2  1  0  0  0  0
  1  3  1  0  0  0  0
  1  4  1  0  0  0  0
M  END
>  <CHROM.1>
11.32078055,12.00694105,5.01845802,0.65984452,1.38621521,-2.00825266

>  <Name>
ligand

>  <RI>
0

>  <Rbt.Current_Directory>
/home/itssahil/PROJECTS/Mol_Feturizer/New_Systems/rnas/4FEN

>  <Rbt.Executable>
rbdock ($Id: //depot/dev/client3/rdock/2013.1/src/exe/rbdock.cxx#4 $)

>  <Rbt.Library>
libRbt.so (2013.1, Build901 2013/11/27)

>  <Rbt.Parameter_File>
/export/apps/rDock/src/rDock_2013.1_src/data/scripts/dock_solv.prm

>  <Rbt.Receptor>
prm/blind_docking_80.prm

>  <SCORE>
-5.61464

>  <SCORE.INTER>
-5.61464

>  <SCORE.INTER.CONST>
1

>  <SCORE.INTER.POLAR>
0

>  <SCORE.INTER.ROT>
0

>  <SCORE.INTER.SOLV>
1.77294

>  <SCORE.INTER.VDW>
-7.93408

>  <SCORE.INTER.norm>
-1.40366

>  <SCORE.INTRA>
0

>  <SCORE.INTRA.DIHEDRAL>
0

>  <SCORE.INTRA.DIHEDRAL.0>
0

>  <SCORE.INTRA.POLAR>
0

>  <SCORE.INTRA.POLAR.0>
0

>  <SCORE.INTRA.REPUL>
0

>  <SCORE.INTRA.REPUL.0>
0

>  <SCORE.INTRA.SOLV>
0

>  <SCORE.INTRA.SOLV.lig_0>
0.449748

>  <SCORE.INTRA.VDW>
0

>  <SCORE.INTRA.VDW.0>
0

>  <SCORE.INTRA.norm>
0

>  <SCORE.RESTR>
0

>  <SCORE.RESTR.CAVITY>
0

>  <SCORE.RESTR.norm>
0

>  <SCORE.SYSTEM>
0

>  <SCORE.SYSTEM.CONST>
0

>  <SCORE.SYSTEM.DIHEDRAL>
0

>  <SCORE.SYSTEM.SOLV>
0

>  <SCORE.SYSTEM.norm>
0

>  <SCORE.heavy>
4

>  <SCORE.norm>
-1.40366

>  <RMSD>
26.464

$$$$
ligand
 OpenBabel11021811493D
libRbt.so/2013.1/901 2013/11/27
  4  3  0  0  0  0  0  0  0  0999 V2000
   11.3228   11.9414    4.9667 C   0  0  0  0  0  0  0  0  0  0  0  0
   11.2027   12.0439    3.7259 O   0  0  0  0  0  0  0  0  0  0  0  0
   11.1851   13.2291    5.7681 C   0  0  0  0  0  0  0  0  0  0  0  0
   11.5553   10.8631    5.6714 O   0  0  0  0  0  0  0  0  0  0  0  0
  1  2  1  0  0  0  0
  1  3  1  0  0  0  0
  1  4  1  0  0  0  0
M  END
>  <CHROM.1>
11.31816862,12.00485287,5.02550043,0.71061075,1.39201063,-2.05541553

>  <Name>
ligand

>  <RI>
0

>  <Rbt.Current_Directory>
/home/itssahil/PROJECTS/Mol_Feturizer/New_Systems/rnas/4FEN

>  <Rbt.Executable>
rbdock ($Id: //depot/dev/client3/rdock/2013.1/src/exe/rbdock.cxx#4 $)

>  <Rbt.Library>
libRbt.so (2013.1, Build901 2013/11/27)

>  <Rbt.Parameter_File>
/export/apps/rDock/src/rDock_2013.1_src/data/scripts/dock_solv.prm

>  <Rbt.Receptor>
prm/blind_docking_20.prm

>  <SCORE>
-5.61783

>  <SCORE.INTER>
-5.61783

>  <SCORE.INTER.CONST>
1

>  <SCORE.INTER.POLAR>
0

>  <SCORE.INTER.ROT>
0

>  <SCORE.INTER.SOLV>
1.77215

>  <SCORE.INTER.VDW>
-7.93594

>  <SCORE.INTER.norm>
-1.40446

>  <SCORE.INTRA>
0

>  <SCORE.INTRA.DIHEDRAL>
0

>  <SCORE.INTRA.DIHEDRAL.0>
0

>  <SCORE.INTRA.POLAR>
0

>  <SCORE.INTRA.POLAR.0>
0

>  <SCORE.INTRA.REPUL>
0

>  <SCORE.INTRA.REPUL.0>
0

>  <SCORE.INTRA.SOLV>
0

>  <SCORE.INTRA.SOLV.lig_0>
0.449748

>  <SCORE.INTRA.VDW>
0

>  <SCORE.INTRA.VDW.0>
0

>  <SCORE.INTRA.norm>
0

>  <SCORE.RESTR>
0

>  <SCORE.RESTR.CAVITY>
0

>  <SCORE.RESTR.norm>
0

>  <SCORE.SYSTEM>
0

>  <SCORE.SYSTEM.CONST>
0

>  <SCORE.SYSTEM.DIHEDRAL>
0

>  <SCORE.SYSTEM.SOLV>
0

>  <SCORE.SYSTEM.norm>
0

>  <SCORE.heavy>
4

>  <SCORE.norm>
-1.40446

>  <RMSD>
26.465

$$$$
ligand
 OpenBabel11021811493D
libRbt.so/2013.1/901 2013/11/27
  4  3  0  0  0  0  0  0  0  0999 V2000
   11.3237   11.9402    4.9545 C   0  0  0  0  0  0  0  0  0  0  0  0
   11.2236   12.0424    3.7118 O   0  0  0  0  0  0  0  0  0  0  0  0
   11.1718   13.2279    5.7533 C   0  0  0  0  0  0  0  0  0  0  0  0
   11.5458   10.8623    5.6630 O   0  0  0  0  0  0  0  0  0  0  0  0
  1  2  1  0  0  0  0
  1  3  1  0  0  0  0
  1  4  1  0  0  0  0
M  END
>  <CHROM.1>
11.31808528,12.00370269,5.01314930,0.62469005,1.39805152,-1.97101469

>  <Name>
ligand

>  <RI>
0

>  <Rbt.Current_Directory>
/home/itssahil/PROJECTS/Mol_Feturizer/New_Systems/rnas/4FEN

>  <Rbt.Executable>
rbdock ($Id: //depot/dev/client3/rdock/2013.1/src/exe/rbdock.cxx#4 $)

>  <Rbt.Library>
libRbt.so (2013.1, Build901 2013/11/27)

>  <Rbt.Parameter_File>
/export/apps/rDock/src/rDock_2013.1_src/data/scripts/dock_solv.prm

>  <Rbt.Receptor>
prm/blind_docking_60.prm

>  <SCORE>
-5.61306

>  <SCORE.INTER>
-5.61306

>  <SCORE.INTER.CONST>
1

>  <SCORE.INTER.POLAR>
0

>  <SCORE.INTER.ROT>
0

>  <SCORE.INTER.SOLV>
1.77478

>  <SCORE.INTER.VDW>
-7.93364

>  <SCORE.INTER.norm>
-1.40327

>  <SCORE.INTRA>
0

>  <SCORE.INTRA.DIHEDRAL>
0

>  <SCORE.INTRA.DIHEDRAL.0>
0

>  <SCORE.INTRA.POLAR>
0

>  <SCORE.INTRA.POLAR.0>
0

>  <SCORE.INTRA.REPUL>
0

>  <SCORE.INTRA.REPUL.0>
0

>  <SCORE.INTRA.SOLV>
0

>  <SCORE.INTRA.SOLV.lig_0>
0.449748

>  <SCORE.INTRA.VDW>
0

>  <SCORE.INTRA.VDW.0>
0

>  <SCORE.INTRA.norm>
0

>  <SCORE.RESTR>
0

>  <SCORE.RESTR.CAVITY>
0

>  <SCORE.RESTR.norm>
0

>  <SCORE.SYSTEM>
0

>  <SCORE.SYSTEM.CONST>
0

>  <SCORE.SYSTEM.DIHEDRAL>
0

>  <SCORE.SYSTEM.SOLV>
0

>  <SCORE.SYSTEM.norm>
0

>  <SCORE.heavy>
4

>  <SCORE.norm>
-1.40327

>  <RMSD>
26.468

$$$$
ligand
 OpenBabel11021811493D
libRbt.so/2013.1/901 2013/11/27
  4  3  0  0  0  0  0  0  0  0999 V2000
   11.3334   11.9140    4.9830 C   0  0  0  0  0  0  0  0  0  0  0  0
   11.5278   10.8770    5.6551 O   0  0  0  0  0  0  0  0  0  0  0  0
   11.1667   13.2078    5.7690 C   0  0  0  0  0  0  0  0  0  0  0  0
   11.2520   12.0323    3.6820 O   0  0  0  0  0  0  0  0  0  0  0  0
  1  2  1  0  0  0  0
  1  3  1  0  0  0  0
  1  4  1  0  0  0  0
M  END
>  <CHROM.1>
11.32156898,11.99448521,5.01274391,-1.15719047,-1.40791070,1.27651896

>  <Name>
ligand

>  <RI>
0

>  <Rbt.Current_Directory>
/home/itssahil/PROJECTS/Mol_Feturizer/New_Systems/rnas/4FEN

>  <Rbt.Executable>
rbdock ($Id: //depot/dev/client3/rdock/2013.1/src/exe/rbdock.cxx#4 $)

>  <Rbt.Library>
libRbt.so (2013.1, Build901 2013/11/27)

>  <Rbt.Parameter_File>
/export/apps/rDock/src/rDock_2013.1_src/data/scripts/dock_solv.prm

>  <Rbt.Receptor>
prm/blind_docking_60.prm

>  <SCORE>
-5.54955

>  <SCORE.INTER>
-5.54955

>  <SCORE.INTER.CONST>
1

>  <SCORE.INTER.POLAR>
0

>  <SCORE.INTER.ROT>
0

>  <SCORE.INTER.SOLV>
1.77039

>  <SCORE.INTER.VDW>
-7.88983

>  <SCORE.INTER.norm>
-1.38739

>  <SCORE.INTRA>
0

>  <SCORE.INTRA.DIHEDRAL>
0

>  <SCORE.INTRA.DIHEDRAL.0>
0

>  <SCORE.INTRA.POLAR>
0

>  <SCORE.INTRA.POLAR.0>
0

>  <SCORE.INTRA.REPUL>
0

>  <SCORE.INTRA.REPUL.0>
0

>  <SCORE.INTRA.SOLV>
0

>  <SCORE.INTRA.SOLV.lig_0>
0.449748

>  <SCORE.INTRA.VDW>
0

>  <SCORE.INTRA.VDW.0>
0

>  <SCORE.INTRA.norm>
0

>  <SCORE.RESTR>
0

>  <SCORE.RESTR.CAVITY>
0

>  <SCORE.RESTR.norm>
0

>  <SCORE.SYSTEM>
0

>  <SCORE.SYSTEM.CONST>
0

>  <SCORE.SYSTEM.DIHEDRAL>
0

>  <SCORE.SYSTEM.SOLV>
0

>  <SCORE.SYSTEM.norm>
0

>  <SCORE.heavy>
4

>  <SCORE.norm>
-1.38739

>  <RMSD>
26.468

$$$$
ligand
 OpenBabel11021811493D
libRbt.so/2013.1/901 2013/11/27
  4  3  0  0  0  0  0  0  0  0999 V2000
   11.2992   11.9978    4.9629 C   0  0  0  0  0  0  0  0  0  0  0  0
   11.1295   12.1261    3.7302 O   0  0  0  0  0  0  0  0  0  0  0  0
   11.2117   13.2713    5.7936 C   0  0  0  0  0  0  0  0  0  0  0  0
   11.5460   10.9032    5.6366 O   0  0  0  0  0  0  0  0  0  0  0  0
  1  2  1  0  0  0  0
  1  3  1  0  0  0  0
  1  4  1  0  0  0  0
M  END
>  <CHROM.1>
11.29781314,12.06022414,5.02294353,0.93707215,1.37988529,-2.25874860

>  <Name>
ligand

>  <RI>
0

>  <Rbt.Current_Directory>
/home/itssahil/PROJECTS/Mol_Feturizer/New_Systems/rnas/4FEN

>  <Rbt.Executable>
rbdock ($Id: //depot/dev/client3/rdock/2013.1/src/exe/rbdock.cxx#4 $)

>  <Rbt.Library>
libRbt.so (2013.1, Build901 2013/11/27)

>  <Rbt.Parameter_File>
/export/apps/rDock/src/rDock_2013.1_src/data/scripts/dock_solv.prm

>  <Rbt.Receptor>
prm/blind_docking_100.prm

>  <SCORE>
-5.58718

>  <SCORE.INTER>
-5.58718

>  <SCORE.INTER.CONST>
1

>  <SCORE.INTER.POLAR>
0

>  <SCORE.INTER.ROT>
0

>  <SCORE.INTER.SOLV>
1.77875

>  <SCORE.INTER.VDW>
-7.91771

>  <SCORE.INTER.norm>
-1.3968

>  <SCORE.INTRA>
0

>  <SCORE.INTRA.DIHEDRAL>
0

>  <SCORE.INTRA.DIHEDRAL.0>
0

>  <SCORE.INTRA.POLAR>
0

>  <SCORE.INTRA.POLAR.0>
0

>  <SCORE.INTRA.REPUL>
0

>  <SCORE.INTRA.REPUL.0>
0

>  <SCORE.INTRA.SOLV>
0

>  <SCORE.INTRA.SOLV.lig_0>
0.449748

>  <SCORE.INTRA.VDW>
0

>  <SCORE.INTRA.VDW.0>
0

>  <SCORE.INTRA.norm>
0

>  <SCORE.RESTR>
0

>  <SCORE.RESTR.CAVITY>
0

>  <SCORE.RESTR.norm>
0

>  <SCORE.SYSTEM>
0

>  <SCORE.SYSTEM.CONST>
0

>  <SCORE.SYSTEM.DIHEDRAL>
0

>  <SCORE.SYSTEM.SOLV>
0

>  <SCORE.SYSTEM.norm>
0

>  <SCORE.heavy>
4

>  <SCORE.norm>
-1.3968

>  <RMSD>
26.469

$$$$
ligand
 OpenBabel11021811493D
libRbt.so/2013.1/901 2013/11/27
  4  3  0  0  0  0  0  0  0  0999 V2000
   11.3128   11.9459    4.9781 C   0  0  0  0  0  0  0  0  0  0  0  0
   11.1651   12.0427    3.7397 O   0  0  0  0  0  0  0  0  0  0  0  0
   11.2005   13.2385    5.7755 C   0  0  0  0  0  0  0  0  0  0  0  0
   11.5551   10.8700    5.6830 O   0  0  0  0  0  0  0  0  0  0  0  0
  1  2  1  0  0  0  0
  1  3  1  0  0  0  0
  1  4  1  0  0  0  0
M  END
>  <CHROM.1>
11.30983799,12.00972699,5.03660641,0.83401113,1.38504944,-2.18204109

>  <Name>
ligand

>  <RI>
0

>  <Rbt.Current_Directory>
/home/itssahil/PROJECTS/Mol_Feturizer/New_Systems/rnas/4FEN

>  <Rbt.Executable>
rbdock ($Id: //depot/dev/client3/rdock/2013.1/src/exe/rbdock.cxx#4 $)

>  <Rbt.Library>
libRbt.so (2013.1, Build901 2013/11/27)

>  <Rbt.Parameter_File>
/export/apps/rDock/src/rDock_2013.1_src/data/scripts/dock_solv.prm

>  <Rbt.Receptor>
prm/blind_docking_20.prm

>  <SCORE>
-5.58693

>  <SCORE.INTER>
-5.58693

>  <SCORE.INTER.CONST>
1

>  <SCORE.INTER.POLAR>
0

>  <SCORE.INTER.ROT>
0

>  <SCORE.INTER.SOLV>
1.77256

>  <SCORE.INTER.VDW>
-7.91548

>  <SCORE.INTER.norm>
-1.39673

>  <SCORE.INTRA>
0

>  <SCORE.INTRA.DIHEDRAL>
0

>  <SCORE.INTRA.DIHEDRAL.0>
0

>  <SCORE.INTRA.POLAR>
0

>  <SCORE.INTRA.POLAR.0>
0

>  <SCORE.INTRA.REPUL>
0

>  <SCORE.INTRA.REPUL.0>
0

>  <SCORE.INTRA.SOLV>
0

>  <SCORE.INTRA.SOLV.lig_0>
0.449748

>  <SCORE.INTRA.VDW>
0

>  <SCORE.INTRA.VDW.0>
0

>  <SCORE.INTRA.norm>
0

>  <SCORE.RESTR>
0

>  <SCORE.RESTR.CAVITY>
0

>  <SCORE.RESTR.norm>
0

>  <SCORE.SYSTEM>
0

>  <SCORE.SYSTEM.CONST>
0

>  <SCORE.SYSTEM.DIHEDRAL>
0

>  <SCORE.SYSTEM.SOLV>
0

>  <SCORE.SYSTEM.norm>
0

>  <SCORE.heavy>
4

>  <SCORE.norm>
-1.39673

>  <RMSD>
26.469

$$$$
ligand
 OpenBabel11021811493D
libRbt.so/2013.1/901 2013/11/27
  4  3  0  0  0  0  0  0  0  0999 V2000
   11.3041   12.0107    4.9458 C   0  0  0  0  0  0  0  0  0  0  0  0
   11.5266   10.9469    5.5650 O   0  0  0  0  0  0  0  0  0  0  0  0
   11.2454   13.2812    5.7836 C   0  0  0  0  0  0  0  0  0  0  0  0
   11.1116   12.1751    3.6616 O   0  0  0  0  0  0  0  0  0  0  0  0
  1  2  1  0  0  0  0
  1  3  1  0  0  0  0
  1  4  1  0  0  0  0
M  END
>  <CHROM.1>
11.29729378,12.09049952,4.97893839,-1.68652104,-1.38541766,0.78744536

>  <Name>
ligand

>  <RI>
0

>  <Rbt.Current_Directory>
/home/itssahil/PROJECTS/Mol_Feturizer/New_Systems/rnas/4FEN

>  <Rbt.Executable>
rbdock ($Id: //depot/dev/client3/rdock/2013.1/src/exe/rbdock.cxx#4 $)

>  <Rbt.Library>
libRbt.so (2013.1, Build901 2013/11/27)

>  <Rbt.Parameter_File>
/export/apps/rDock/src/rDock_2013.1_src/data/scripts/dock_solv.prm

>  <Rbt.Receptor>
prm/blind_docking_40.prm

>  <SCORE>
-5.52429

>  <SCORE.INTER>
-5.52429

>  <SCORE.INTER.CONST>
1

>  <SCORE.INTER.POLAR>
0

>  <SCORE.INTER.ROT>
0

>  <SCORE.INTER.SOLV>
1.78363

>  <SCORE.INTER.VDW>
-7.8774

>  <SCORE.INTER.norm>
-1.38107

>  <SCORE.INTRA>
0

>  <SCORE.INTRA.DIHEDRAL>
0

>  <SCORE.INTRA.DIHEDRAL.0>
0

>  <SCORE.INTRA.POLAR>
0

>  <SCORE.INTRA.POLAR.0>
0

>  <SCORE.INTRA.REPUL>
0

>  <SCORE.INTRA.REPUL.0>
0

>  <SCORE.INTRA.SOLV>
0

>  <SCORE.INTRA.SOLV.lig_0>
0.449748

>  <SCORE.INTRA.VDW>
0

>  <SCORE.INTRA.VDW.0>
0

>  <SCORE.INTRA.norm>
0

>  <SCORE.RESTR>
0

>  <SCORE.RESTR.CAVITY>
0

>  <SCORE.RESTR.norm>
0

>  <SCORE.SYSTEM>
0

>  <SCORE.SYSTEM.CONST>
0

>  <SCORE.SYSTEM.DIHEDRAL>
0

>  <SCORE.SYSTEM.SOLV>
0

>  <SCORE.SYSTEM.norm>
0

>  <SCORE.heavy>
4

>  <SCORE.norm>
-1.38107

>  <RMSD>
26.470

$$$$
ligand
 OpenBabel11021811493D
libRbt.so/2013.1/901 2013/11/27
  4  3  0  0  0  0  0  0  0  0999 V2000
   11.3274   11.9187    4.9931 C   0  0  0  0  0  0  0  0  0  0  0  0
   11.5216   10.8814    5.6648 O   0  0  0  0  0  0  0  0  0  0  0  0
   11.1570   13.2116    5.7797 C   0  0  0  0  0  0  0  0  0  0  0  0
   11.2490   12.0380    3.6920 O   0  0  0  0  0  0  0  0  0  0  0  0
  1  2  1  0  0  0  0
  1  3  1  0  0  0  0
  1  4  1  0  0  0  0
M  END
>  <CHROM.1>
11.31535699,11.99915487,5.02286025,-1.14070387,-1.40725438,1.29362155

>  <Name>
ligand

>  <RI>
0

>  <Rbt.Current_Directory>
/home/itssahil/PROJECTS/Mol_Feturizer/New_Systems/rnas/4FEN

>  <Rbt.Executable>
rbdock ($Id: //depot/dev/client3/rdock/2013.1/src/exe/rbdock.cxx#4 $)

>  <Rbt.Library>
libRbt.so (2013.1, Build901 2013/11/27)

>  <Rbt.Parameter_File>
/export/apps/rDock/src/rDock_2013.1_src/data/scripts/dock_solv.prm

>  <Rbt.Receptor>
prm/blind_docking_60.prm

>  <SCORE>
-5.54639

>  <SCORE.INTER>
-5.54639

>  <SCORE.INTER.CONST>
1

>  <SCORE.INTER.POLAR>
0

>  <SCORE.INTER.ROT>
0

>  <SCORE.INTER.SOLV>
1.76887

>  <SCORE.INTER.VDW>
-7.88722

>  <SCORE.INTER.norm>
-1.3866

>  <SCORE.INTRA>
0

>  <SCORE.INTRA.DIHEDRAL>
0

>  <SCORE.INTRA.DIHEDRAL.0>
0

>  <SCORE.INTRA.POLAR>
0

>  <SCORE.INTRA.POLAR.0>
0

>  <SCORE.INTRA.REPUL>
0

>  <SCORE.INTRA.REPUL.0>
0

>  <SCORE.INTRA.SOLV>
0

>  <SCORE.INTRA.SOLV.lig_0>
0.449748

>  <SCORE.INTRA.VDW>
0

>  <SCORE.INTRA.VDW.0>
0

>  <SCORE.INTRA.norm>
0

>  <SCORE.RESTR>
0

>  <SCORE.RESTR.CAVITY>
0

>  <SCORE.RESTR.norm>
0

>  <SCORE.SYSTEM>
0

>  <SCORE.SYSTEM.CONST>
0

>  <SCORE.SYSTEM.DIHEDRAL>
0

>  <SCORE.SYSTEM.SOLV>
0

>  <SCORE.SYSTEM.norm>
0

>  <SCORE.heavy>
4

>  <SCORE.norm>
-1.3866

>  <RMSD>
26.470

$$$$
ligand
 OpenBabel11021811493D
libRbt.so/2013.1/901 2013/11/27
  4  3  0  0  0  0  0  0  0  0999 V2000
   11.3262   11.9189    4.9922 C   0  0  0  0  0  0  0  0  0  0  0  0
   11.5253   10.8815    5.6622 O   0  0  0  0  0  0  0  0  0  0  0  0
   11.1513   13.2100    5.7809 C   0  0  0  0  0  0  0  0  0  0  0  0
   11.2460   12.0397    3.6914 O   0  0  0  0  0  0  0  0  0  0  0  0
  1  2  1  0  0  0  0
  1  3  1  0  0  0  0
  1  4  1  0  0  0  0
M  END
>  <CHROM.1>
11.31386083,11.99928005,5.02209808,-1.13958445,-1.40307191,1.29616338

>  <Name>
ligand

>  <RI>
0

>  <Rbt.Current_Directory>
/home/itssahil/PROJECTS/Mol_Feturizer/New_Systems/rnas/4FEN

>  <Rbt.Executable>
rbdock ($Id: //depot/dev/client3/rdock/2013.1/src/exe/rbdock.cxx#4 $)

>  <Rbt.Library>
libRbt.so (2013.1, Build901 2013/11/27)

>  <Rbt.Parameter_File>
/export/apps/rDock/src/rDock_2013.1_src/data/scripts/dock_solv.prm

>  <Rbt.Receptor>
prm/blind_docking_20.prm

>  <SCORE>
-5.54537

>  <SCORE.INTER>
-5.54537

>  <SCORE.INTER.CONST>
1

>  <SCORE.INTER.POLAR>
0

>  <SCORE.INTER.ROT>
0

>  <SCORE.INTER.SOLV>
1.76772

>  <SCORE.INTER.VDW>
-7.88615

>  <SCORE.INTER.norm>
-1.38634

>  <SCORE.INTRA>
0

>  <SCORE.INTRA.DIHEDRAL>
0

>  <SCORE.INTRA.DIHEDRAL.0>
0

>  <SCORE.INTRA.POLAR>
0

>  <SCORE.INTRA.POLAR.0>
0

>  <SCORE.INTRA.REPUL>
0

>  <SCORE.INTRA.REPUL.0>
0

>  <SCORE.INTRA.SOLV>
0

>  <SCORE.INTRA.SOLV.lig_0>
0.449748

>  <SCORE.INTRA.VDW>
0

>  <SCORE.INTRA.VDW.0>
0

>  <SCORE.INTRA.norm>
0

>  <SCORE.RESTR>
0

>  <SCORE.RESTR.CAVITY>
0

>  <SCORE.RESTR.norm>
0

>  <SCORE.SYSTEM>
0

>  <SCORE.SYSTEM.CONST>
0

>  <SCORE.SYSTEM.DIHEDRAL>
0

>  <SCORE.SYSTEM.SOLV>
0

>  <SCORE.SYSTEM.norm>
0

>  <SCORE.heavy>
4

>  <SCORE.norm>
-1.38634

>  <RMSD>
26.472

$$$$
ligand
 OpenBabel11021811493D
libRbt.so/2013.1/901 2013/11/27
  4  3  0  0  0  0  0  0  0  0999 V2000
   11.3174   11.9301    4.9668 C   0  0  0  0  0  0  0  0  0  0  0  0
   11.1792   12.0320    3.7278 O   0  0  0  0  0  0  0  0  0  0  0  0
   11.2033   13.2201    5.7683 C   0  0  0  0  0  0  0  0  0  0  0  0
   11.5511   10.8508    5.6695 O   0  0  0  0  0  0  0  0  0  0  0  0
  1  2  1  0  0  0  0
  1  3  1  0  0  0  0
  1  4  1  0  0  0  0
M  END
>  <CHROM.1>
11.31423633,11.99371346,5.02555829,0.81007873,1.39183237,-2.15475751

>  <Name>
ligand

>  <RI>
0

>  <Rbt.Current_Directory>
/home/itssahil/PROJECTS/Mol_Feturizer/New_Systems/rnas/4FEN

>  <Rbt.Executable>
rbdock ($Id: //depot/dev/client3/rdock/2013.1/src/exe/rbdock.cxx#4 $)

>  <Rbt.Library>
libRbt.so (2013.1, Build901 2013/11/27)

>  <Rbt.Parameter_File>
/export/apps/rDock/src/rDock_2013.1_src/data/scripts/dock_solv.prm

>  <Rbt.Receptor>
prm/blind_docking_60.prm

>  <SCORE>
-5.61998

>  <SCORE.INTER>
-5.61998

>  <SCORE.INTER.CONST>
1

>  <SCORE.INTER.POLAR>
0

>  <SCORE.INTER.ROT>
0

>  <SCORE.INTER.SOLV>
1.77219

>  <SCORE.INTER.VDW>
-7.93738

>  <SCORE.INTER.norm>
-1.405

>  <SCORE.INTRA>
0

>  <SCORE.INTRA.DIHEDRAL>
0

>  <SCORE.INTRA.DIHEDRAL.0>
0

>  <SCORE.INTRA.POLAR>
0

>  <SCORE.INTRA.POLAR.0>
0

>  <SCORE.INTRA.REPUL>
0

>  <SCORE.INTRA.REPUL.0>
0

>  <SCORE.INTRA.SOLV>
0

>  <SCORE.INTRA.SOLV.lig_0>
0.449748

>  <SCORE.INTRA.VDW>
0

>  <SCORE.INTRA.VDW.0>
0

>  <SCORE.INTRA.norm>
0

>  <SCORE.RESTR>
0

>  <SCORE.RESTR.CAVITY>
0

>  <SCORE.RESTR.norm>
0

>  <SCORE.SYSTEM>
0

>  <SCORE.SYSTEM.CONST>
0

>  <SCORE.SYSTEM.DIHEDRAL>
0

>  <SCORE.SYSTEM.SOLV>
0

>  <SCORE.SYSTEM.norm>
0

>  <SCORE.heavy>
4

>  <SCORE.norm>
-1.405

>  <RMSD>
26.472

$$$$
ligand
 OpenBabel11021811493D
libRbt.so/2013.1/901 2013/11/27
  4  3  0  0  0  0  0  0  0  0999 V2000
   11.3189   11.9318    4.9572 C   0  0  0  0  0  0  0  0  0  0  0  0
   11.2035   12.0356    3.7159 O   0  0  0  0  0  0  0  0  0  0  0  0
   11.1828   13.2195    5.7589 C   0  0  0  0  0  0  0  0  0  0  0  0
   11.5451   10.8522    5.6619 O   0  0  0  0  0  0  0  0  0  0  0  0
  1  2  1  0  0  0  0
  1  3  1  0  0  0  0
  1  4  1  0  0  0  0
M  END
>  <CHROM.1>
11.31426430,11.99527324,5.01594996,0.70195254,1.39675614,-2.04621081

>  <Name>
ligand

>  <RI>
0

>  <Rbt.Current_Directory>
/home/itssahil/PROJECTS/Mol_Feturizer/New_Systems/rnas/4FEN

>  <Rbt.Executable>
rbdock ($Id: //depot/dev/client3/rdock/2013.1/src/exe/rbdock.cxx#4 $)

>  <Rbt.Library>
libRbt.so (2013.1, Build901 2013/11/27)

>  <Rbt.Parameter_File>
/export/apps/rDock/src/rDock_2013.1_src/data/scripts/dock_solv.prm

>  <Rbt.Receptor>
prm/blind_docking_20.prm

>  <SCORE>
-5.61799

>  <SCORE.INTER>
-5.61799

>  <SCORE.INTER.CONST>
1

>  <SCORE.INTER.POLAR>
0

>  <SCORE.INTER.ROT>
0

>  <SCORE.INTER.SOLV>
1.77229

>  <SCORE.INTER.VDW>
-7.93609

>  <SCORE.INTER.norm>
-1.4045

>  <SCORE.INTRA>
0

>  <SCORE.INTRA.DIHEDRAL>
0

>  <SCORE.INTRA.DIHEDRAL.0>
0

>  <SCORE.INTRA.POLAR>
0

>  <SCORE.INTRA.POLAR.0>
0

>  <SCORE.INTRA.REPUL>
0

>  <SCORE.INTRA.REPUL.0>
0

>  <SCORE.INTRA.SOLV>
0

>  <SCORE.INTRA.SOLV.lig_0>
0.449748

>  <SCORE.INTRA.VDW>
0

>  <SCORE.INTRA.VDW.0>
0

>  <SCORE.INTRA.norm>
0

>  <SCORE.RESTR>
0

>  <SCORE.RESTR.CAVITY>
0

>  <SCORE.RESTR.norm>
0

>  <SCORE.SYSTEM>
0

>  <SCORE.SYSTEM.CONST>
0

>  <SCORE.SYSTEM.DIHEDRAL>
0

>  <SCORE.SYSTEM.SOLV>
0

>  <SCORE.SYSTEM.norm>
0

>  <SCORE.heavy>
4

>  <SCORE.norm>
-1.4045

>  <RMSD>
26.474

$$$$
ligand
 OpenBabel11021811493D
libRbt.so/2013.1/901 2013/11/27
  4  3  0  0  0  0  0  0  0  0999 V2000
   11.3201   11.9269    4.9528 C   0  0  0  0  0  0  0  0  0  0  0  0
   11.2056   12.0322    3.7117 O   0  0  0  0  0  0  0  0  0  0  0  0
   11.1841   13.2137    5.7561 C   0  0  0  0  0  0  0  0  0  0  0  0
   11.5453   10.8464    5.6564 O   0  0  0  0  0  0  0  0  0  0  0  0
  1  2  1  0  0  0  0
  1  3  1  0  0  0  0
  1  4  1  0  0  0  0
M  END
>  <CHROM.1>
11.31545308,11.99030060,5.01170051,0.69971133,1.39749519,-2.04280212

>  <Name>
ligand

>  <RI>
0

>  <Rbt.Current_Directory>
/home/itssahil/PROJECTS/Mol_Feturizer/New_Systems/rnas/4FEN

>  <Rbt.Executable>
rbdock ($Id: //depot/dev/client3/rdock/2013.1/src/exe/rbdock.cxx#4 $)

>  <Rbt.Library>
libRbt.so (2013.1, Build901 2013/11/27)

>  <Rbt.Parameter_File>
/export/apps/rDock/src/rDock_2013.1_src/data/scripts/dock_solv.prm

>  <Rbt.Receptor>
prm/blind_docking_100.prm

>  <SCORE>
-5.61754

>  <SCORE.INTER>
-5.61754

>  <SCORE.INTER.CONST>
1

>  <SCORE.INTER.POLAR>
0

>  <SCORE.INTER.ROT>
0

>  <SCORE.INTER.SOLV>
1.77216

>  <SCORE.INTER.VDW>
-7.93575

>  <SCORE.INTER.norm>
-1.40439

>  <SCORE.INTRA>
0

>  <SCORE.INTRA.DIHEDRAL>
0

>  <SCORE.INTRA.DIHEDRAL.0>
0

>  <SCORE.INTRA.POLAR>
0

>  <SCORE.INTRA.POLAR.0>
0

>  <SCORE.INTRA.REPUL>
0

>  <SCORE.INTRA.REPUL.0>
0

>  <SCORE.INTRA.SOLV>
0

>  <SCORE.INTRA.SOLV.lig_0>
0.449748

>  <SCORE.INTRA.VDW>
0

>  <SCORE.INTRA.VDW.0>
0

>  <SCORE.INTRA.norm>
0

>  <SCORE.RESTR>
0

>  <SCORE.RESTR.CAVITY>
0

>  <SCORE.RESTR.norm>
0

>  <SCORE.SYSTEM>
0

>  <SCORE.SYSTEM.CONST>
0

>  <SCORE.SYSTEM.DIHEDRAL>
0

>  <SCORE.SYSTEM.SOLV>
0

>  <SCORE.SYSTEM.norm>
0

>  <SCORE.heavy>
4

>  <SCORE.norm>
-1.40439

>  <RMSD>
26.475

$$$$
ligand
 OpenBabel11021811493D
libRbt.so/2013.1/901 2013/11/27
  4  3  0  0  0  0  0  0  0  0999 V2000
   11.3183   11.9322    4.9548 C   0  0  0  0  0  0  0  0  0  0  0  0
   11.2088   12.0347    3.7129 O   0  0  0  0  0  0  0  0  0  0  0  0
   11.1731   13.2199    5.7548 C   0  0  0  0  0  0  0  0  0  0  0  0
   11.5451   10.8541    5.6614 O   0  0  0  0  0  0  0  0  0  0  0  0
  1  2  1  0  0  0  0
  1  3  1  0  0  0  0
  1  4  1  0  0  0  0
M  END
>  <CHROM.1>
11.31311801,11.99572281,5.01346501,0.66579898,1.39553108,-2.01136101

>  <Name>
ligand

>  <RI>
0

>  <Rbt.Current_Directory>
/home/itssahil/PROJECTS/Mol_Feturizer/New_Systems/rnas/4FEN

>  <Rbt.Executable>
rbdock ($Id: //depot/dev/client3/rdock/2013.1/src/exe/rbdock.cxx#4 $)

>  <Rbt.Library>
libRbt.so (2013.1, Build901 2013/11/27)

>  <Rbt.Parameter_File>
/export/apps/rDock/src/rDock_2013.1_src/data/scripts/dock_solv.prm

>  <Rbt.Receptor>
prm/blind_docking_80.prm

>  <SCORE>
-5.6154

>  <SCORE.INTER>
-5.6154

>  <SCORE.INTER.CONST>
1

>  <SCORE.INTER.POLAR>
0

>  <SCORE.INTER.ROT>
0

>  <SCORE.INTER.SOLV>
1.77241

>  <SCORE.INTER.VDW>
-7.9344

>  <SCORE.INTER.norm>
-1.40385

>  <SCORE.INTRA>
0

>  <SCORE.INTRA.DIHEDRAL>
0

>  <SCORE.INTRA.DIHEDRAL.0>
0

>  <SCORE.INTRA.POLAR>
0

>  <SCORE.INTRA.POLAR.0>
0

>  <SCORE.INTRA.REPUL>
0

>  <SCORE.INTRA.REPUL.0>
0

>  <SCORE.INTRA.SOLV>
0

>  <SCORE.INTRA.SOLV.lig_0>
0.449748

>  <SCORE.INTRA.VDW>
0

>  <SCORE.INTRA.VDW.0>
0

>  <SCORE.INTRA.norm>
0

>  <SCORE.RESTR>
0

>  <SCORE.RESTR.CAVITY>
0

>  <SCORE.RESTR.norm>
0

>  <SCORE.SYSTEM>
0

>  <SCORE.SYSTEM.CONST>
0

>  <SCORE.SYSTEM.DIHEDRAL>
0

>  <SCORE.SYSTEM.SOLV>
0

>  <SCORE.SYSTEM.norm>
0

>  <SCORE.heavy>
4

>  <SCORE.norm>
-1.40385

>  <RMSD>
26.475

$$$$
ligand
 OpenBabel11021811493D
libRbt.so/2013.1/901 2013/11/27
  4  3  0  0  0  0  0  0  0  0999 V2000
   11.3031   11.9897    4.9369 C   0  0  0  0  0  0  0  0  0  0  0  0
   11.1849   12.1355    3.7002 O   0  0  0  0  0  0  0  0  0  0  0  0
   11.1849   13.2519    5.7809 C   0  0  0  0  0  0  0  0  0  0  0  0
   11.5187   10.8850    5.6050 O   0  0  0  0  0  0  0  0  0  0  0  0
  1  2  1  0  0  0  0
  1  3  1  0  0  0  0
  1  4  1  0  0  0  0
M  END
>  <CHROM.1>
11.29937246,12.05125191,4.99775148,0.75277684,1.40563676,-2.06350262

>  <Name>
ligand

>  <RI>
0

>  <Rbt.Current_Directory>
/home/itssahil/PROJECTS/Mol_Feturizer/New_Systems/rnas/4FEN

>  <Rbt.Executable>
rbdock ($Id: //depot/dev/client3/rdock/2013.1/src/exe/rbdock.cxx#4 $)

>  <Rbt.Library>
libRbt.so (2013.1, Build901 2013/11/27)

>  <Rbt.Parameter_File>
/export/apps/rDock/src/rDock_2013.1_src/data/scripts/dock_solv.prm

>  <Rbt.Receptor>
prm/blind_docking_40.prm

>  <SCORE>
-5.59116

>  <SCORE.INTER>
-5.59116

>  <SCORE.INTER.CONST>
1

>  <SCORE.INTER.POLAR>
0

>  <SCORE.INTER.ROT>
0

>  <SCORE.INTER.SOLV>
1.77835

>  <SCORE.INTER.VDW>
-7.92023

>  <SCORE.INTER.norm>
-1.39779

>  <SCORE.INTRA>
0

>  <SCORE.INTRA.DIHEDRAL>
0

>  <SCORE.INTRA.DIHEDRAL.0>
0

>  <SCORE.INTRA.POLAR>
0

>  <SCORE.INTRA.POLAR.0>
0

>  <SCORE.INTRA.REPUL>
0

>  <SCORE.INTRA.REPUL.0>
0

>  <SCORE.INTRA.SOLV>
0

>  <SCORE.INTRA.SOLV.lig_0>
0.449748

>  <SCORE.INTRA.VDW>
0

>  <SCORE.INTRA.VDW.0>
0

>  <SCORE.INTRA.norm>
0

>  <SCORE.RESTR>
0

>  <SCORE.RESTR.CAVITY>
0

>  <SCORE.RESTR.norm>
0

>  <SCORE.SYSTEM>
0

>  <SCORE.SYSTEM.CONST>
0

>  <SCORE.SYSTEM.DIHEDRAL>
0

>  <SCORE.SYSTEM.SOLV>
0

>  <SCORE.SYSTEM.norm>
0

>  <SCORE.heavy>
4

>  <SCORE.norm>
-1.39779

>  <RMSD>
26.476

$$$$
ligand
 OpenBabel11021811493D
libRbt.so/2013.1/901 2013/11/27
  4  3  0  0  0  0  0  0  0  0999 V2000
   11.2835   12.1193    4.8508 C   0  0  0  0  0  0  0  0  0  0  0  0
   11.1071   12.3746    3.6390 O   0  0  0  0  0  0  0  0  0  0  0  0
   11.1932   13.2985    5.8103 C   0  0  0  0  0  0  0  0  0  0  0  0
   11.5396   10.9618    5.4055 O   0  0  0  0  0  0  0  0  0  0  0  0
  1  2  1  0  0  0  0
  1  3  1  0  0  0  0
  1  4  1  0  0  0  0
M  END
>  <CHROM.1>
11.28209690,12.17507919,4.91706411,0.93889617,1.37258856,-2.15597114

>  <Name>
ligand

>  <RI>
0

>  <Rbt.Current_Directory>
/home/itssahil/PROJECTS/Mol_Feturizer/New_Systems/rnas/4FEN

>  <Rbt.Executable>
rbdock ($Id: //depot/dev/client3/rdock/2013.1/src/exe/rbdock.cxx#4 $)

>  <Rbt.Library>
libRbt.so (2013.1, Build901 2013/11/27)

>  <Rbt.Parameter_File>
/export/apps/rDock/src/rDock_2013.1_src/data/scripts/dock_solv.prm

>  <Rbt.Receptor>
prm/blind_docking_20.prm

>  <SCORE>
-5.56819

>  <SCORE.INTER>
-5.56819

>  <SCORE.INTER.CONST>
1

>  <SCORE.INTER.POLAR>
0

>  <SCORE.INTER.ROT>
0

>  <SCORE.INTER.SOLV>
1.79934

>  <SCORE.INTER.VDW>
-7.91191

>  <SCORE.INTER.norm>
-1.39205

>  <SCORE.INTRA>
0

>  <SCORE.INTRA.DIHEDRAL>
0

>  <SCORE.INTRA.DIHEDRAL.0>
0

>  <SCORE.INTRA.POLAR>
0

>  <SCORE.INTRA.POLAR.0>
0

>  <SCORE.INTRA.REPUL>
0

>  <SCORE.INTRA.REPUL.0>
0

>  <SCORE.INTRA.SOLV>
0

>  <SCORE.INTRA.SOLV.lig_0>
0.449748

>  <SCORE.INTRA.VDW>
0

>  <SCORE.INTRA.VDW.0>
0

>  <SCORE.INTRA.norm>
0

>  <SCORE.RESTR>
0

>  <SCORE.RESTR.CAVITY>
0

>  <SCORE.RESTR.norm>
0

>  <SCORE.SYSTEM>
0

>  <SCORE.SYSTEM.CONST>
0

>  <SCORE.SYSTEM.DIHEDRAL>
0

>  <SCORE.SYSTEM.SOLV>
0

>  <SCORE.SYSTEM.norm>
0

>  <SCORE.heavy>
4

>  <SCORE.norm>
-1.39205

>  <RMSD>
26.477

$$$$
ligand
 OpenBabel11021811493D
libRbt.so/2013.1/901 2013/11/27
  4  3  0  0  0  0  0  0  0  0999 V2000
   11.3493   11.8188    4.9924 C   0  0  0  0  0  0  0  0  0  0  0  0
   11.2878   11.8244    3.7431 O   0  0  0  0  0  0  0  0  0  0  0  0
   11.0719   13.1444    5.6890 C   0  0  0  0  0  0  0  0  0  0  0  0
   11.6250   10.8144    5.7851 O   0  0  0  0  0  0  0  0  0  0  0  0
  1  2  1  0  0  0  0
  1  3  1  0  0  0  0
  1  4  1  0  0  0  0
M  END
>  <CHROM.1>
11.33671356,11.88567603,5.04606069,0.35052967,1.33489402,-1.77490077

>  <Name>
ligand

>  <RI>
0

>  <Rbt.Current_Directory>
/home/itssahil/PROJECTS/Mol_Feturizer/New_Systems/rnas/4FEN

>  <Rbt.Executable>
rbdock ($Id: //depot/dev/client3/rdock/2013.1/src/exe/rbdock.cxx#4 $)

>  <Rbt.Library>
libRbt.so (2013.1, Build901 2013/11/27)

>  <Rbt.Parameter_File>
/export/apps/rDock/src/rDock_2013.1_src/data/scripts/dock_solv.prm

>  <Rbt.Receptor>
prm/blind_docking_100.prm

>  <SCORE>
-5.56607

>  <SCORE.INTER>
-5.56607

>  <SCORE.INTER.CONST>
1

>  <SCORE.INTER.POLAR>
0

>  <SCORE.INTER.ROT>
0

>  <SCORE.INTER.SOLV>
1.75237

>  <SCORE.INTER.VDW>
-7.89483

>  <SCORE.INTER.norm>
-1.39152

>  <SCORE.INTRA>
0

>  <SCORE.INTRA.DIHEDRAL>
0

>  <SCORE.INTRA.DIHEDRAL.0>
0

>  <SCORE.INTRA.POLAR>
0

>  <SCORE.INTRA.POLAR.0>
0

>  <SCORE.INTRA.REPUL>
0

>  <SCORE.INTRA.REPUL.0>
0

>  <SCORE.INTRA.SOLV>
0

>  <SCORE.INTRA.SOLV.lig_0>
0.449748

>  <SCORE.INTRA.VDW>
0

>  <SCORE.INTRA.VDW.0>
0

>  <SCORE.INTRA.norm>
0

>  <SCORE.RESTR>
0

>  <SCORE.RESTR.CAVITY>
0

>  <SCORE.RESTR.norm>
0

>  <SCORE.SYSTEM>
0

>  <SCORE.SYSTEM.CONST>
0

>  <SCORE.SYSTEM.DIHEDRAL>
0

>  <SCORE.SYSTEM.SOLV>
0

>  <SCORE.SYSTEM.norm>
0

>  <SCORE.heavy>
4

>  <SCORE.norm>
-1.39152

>  <RMSD>
26.478

$$$$
ligand
 OpenBabel11021811493D
libRbt.so/2013.1/901 2013/11/27
  4  3  0  0  0  0  0  0  0  0999 V2000
   11.3137   11.9425    4.9571 C   0  0  0  0  0  0  0  0  0  0  0  0
   11.2239   12.0414    3.7133 O   0  0  0  0  0  0  0  0  0  0  0  0
   11.1456   13.2308    5.7517 C   0  0  0  0  0  0  0  0  0  0  0  0
   11.5369   10.8677    5.6699 O   0  0  0  0  0  0  0  0  0  0  0  0
  1  2  1  0  0  0  0
  1  3  1  0  0  0  0
  1  4  1  0  0  0  0
M  END
>  <CHROM.1>
11.30705103,12.00609525,5.01551763,0.56195115,1.39480508,-1.91134496

>  <Name>
ligand

>  <RI>
0

>  <Rbt.Current_Directory>
/home/itssahil/PROJECTS/Mol_Feturizer/New_Systems/rnas/4FEN

>  <Rbt.Executable>
rbdock ($Id: //depot/dev/client3/rdock/2013.1/src/exe/rbdock.cxx#4 $)

>  <Rbt.Library>
libRbt.so (2013.1, Build901 2013/11/27)

>  <Rbt.Parameter_File>
/export/apps/rDock/src/rDock_2013.1_src/data/scripts/dock_solv.prm

>  <Rbt.Receptor>
prm/blind_docking_40.prm

>  <SCORE>
-5.60266

>  <SCORE.INTER>
-5.60266

>  <SCORE.INTER.CONST>
1

>  <SCORE.INTER.POLAR>
0

>  <SCORE.INTER.ROT>
0

>  <SCORE.INTER.SOLV>
1.77305

>  <SCORE.INTER.VDW>
-7.92612

>  <SCORE.INTER.norm>
-1.40066

>  <SCORE.INTRA>
0

>  <SCORE.INTRA.DIHEDRAL>
0

>  <SCORE.INTRA.DIHEDRAL.0>
0

>  <SCORE.INTRA.POLAR>
0

>  <SCORE.INTRA.POLAR.0>
0

>  <SCORE.INTRA.REPUL>
0

>  <SCORE.INTRA.REPUL.0>
0

>  <SCORE.INTRA.SOLV>
0

>  <SCORE.INTRA.SOLV.lig_0>
0.449748

>  <SCORE.INTRA.VDW>
0

>  <SCORE.INTRA.VDW.0>
0

>  <SCORE.INTRA.norm>
0

>  <SCORE.RESTR>
0

>  <SCORE.RESTR.CAVITY>
0

>  <SCORE.RESTR.norm>
0

>  <SCORE.SYSTEM>
0

>  <SCORE.SYSTEM.CONST>
0

>  <SCORE.SYSTEM.DIHEDRAL>
0

>  <SCORE.SYSTEM.SOLV>
0

>  <SCORE.SYSTEM.norm>
0

>  <SCORE.heavy>
4

>  <SCORE.norm>
-1.40066

>  <RMSD>
26.478

$$$$
ligand
 OpenBabel11021811493D
libRbt.so/2013.1/901 2013/11/27
  4  3  0  0  0  0  0  0  0  0999 V2000
   11.3150   11.9347    4.9481 C   0  0  0  0  0  0  0  0  0  0  0  0
   11.2314   12.0384    3.7043 O   0  0  0  0  0  0  0  0  0  0  0  0
   11.1573   13.2223    5.7460 C   0  0  0  0  0  0  0  0  0  0  0  0
   11.5240   10.8554    5.6584 O   0  0  0  0  0  0  0  0  0  0  0  0
  1  2  1  0  0  0  0
  1  3  1  0  0  0  0
  1  4  1  0  0  0  0
M  END
>  <CHROM.1>
11.30885292,11.99818224,5.00670107,0.56006018,1.40607766,-1.90636145

>  <Name>
ligand

>  <RI>
0

>  <Rbt.Current_Directory>
/home/itssahil/PROJECTS/Mol_Feturizer/New_Systems/rnas/4FEN

>  <Rbt.Executable>
rbdock ($Id: //depot/dev/client3/rdock/2013.1/src/exe/rbdock.cxx#4 $)

>  <Rbt.Library>
libRbt.so (2013.1, Build901 2013/11/27)

>  <Rbt.Parameter_File>
/export/apps/rDock/src/rDock_2013.1_src/data/scripts/dock_solv.prm

>  <Rbt.Receptor>
prm/blind_docking_80.prm

>  <SCORE>
-5.60511

>  <SCORE.INTER>
-5.60511

>  <SCORE.INTER.CONST>
1

>  <SCORE.INTER.POLAR>
0

>  <SCORE.INTER.ROT>
0

>  <SCORE.INTER.SOLV>
1.77496

>  <SCORE.INTER.VDW>
-7.92839

>  <SCORE.INTER.norm>
-1.40128

>  <SCORE.INTRA>
0

>  <SCORE.INTRA.DIHEDRAL>
0

>  <SCORE.INTRA.DIHEDRAL.0>
0

>  <SCORE.INTRA.POLAR>
0

>  <SCORE.INTRA.POLAR.0>
0

>  <SCORE.INTRA.REPUL>
0

>  <SCORE.INTRA.REPUL.0>
0

>  <SCORE.INTRA.SOLV>
0

>  <SCORE.INTRA.SOLV.lig_0>
0.449748

>  <SCORE.INTRA.VDW>
0

>  <SCORE.INTRA.VDW.0>
0

>  <SCORE.INTRA.norm>
0

>  <SCORE.RESTR>
0

>  <SCORE.RESTR.CAVITY>
0

>  <SCORE.RESTR.norm>
0

>  <SCORE.SYSTEM>
0

>  <SCORE.SYSTEM.CONST>
0

>  <SCORE.SYSTEM.DIHEDRAL>
0

>  <SCORE.SYSTEM.SOLV>
0

>  <SCORE.SYSTEM.norm>
0

>  <SCORE.heavy>
4

>  <SCORE.norm>
-1.40128

>  <RMSD>
26.480

$$$$
ligand
 OpenBabel11021811493D
libRbt.so/2013.1/901 2013/11/27
  4  3  0  0  0  0  0  0  0  0999 V2000
   11.3507   11.8123    4.9764 C   0  0  0  0  0  0  0  0  0  0  0  0
   11.2771   11.8291    3.7278 O   0  0  0  0  0  0  0  0  0  0  0  0
   11.0936   13.1347    5.6867 C   0  0  0  0  0  0  0  0  0  0  0  0
   11.6242   10.7986    5.7580 O   0  0  0  0  0  0  0  0  0  0  0  0
  1  2  1  0  0  0  0
  1  3  1  0  0  0  0
  1  4  1  0  0  0  0
M  END
>  <CHROM.1>
11.33938881,11.87889189,5.03073575,0.40203727,1.34247099,-1.81666344

>  <Name>
ligand

>  <RI>
0

>  <Rbt.Current_Directory>
/home/itssahil/PROJECTS/Mol_Feturizer/New_Systems/rnas/4FEN

>  <Rbt.Executable>
rbdock ($Id: //depot/dev/client3/rdock/2013.1/src/exe/rbdock.cxx#4 $)

>  <Rbt.Library>
libRbt.so (2013.1, Build901 2013/11/27)

>  <Rbt.Parameter_File>
/export/apps/rDock/src/rDock_2013.1_src/data/scripts/dock_solv.prm

>  <Rbt.Receptor>
prm/blind_docking_60.prm

>  <SCORE>
-5.58488

>  <SCORE.INTER>
-5.58488

>  <SCORE.INTER.CONST>
1

>  <SCORE.INTER.POLAR>
0

>  <SCORE.INTER.ROT>
0

>  <SCORE.INTER.SOLV>
1.75467

>  <SCORE.INTER.VDW>
-7.90814

>  <SCORE.INTER.norm>
-1.39622

>  <SCORE.INTRA>
0

>  <SCORE.INTRA.DIHEDRAL>
0

>  <SCORE.INTRA.DIHEDRAL.0>
0

>  <SCORE.INTRA.POLAR>
0

>  <SCORE.INTRA.POLAR.0>
0

>  <SCORE.INTRA.REPUL>
0

>  <SCORE.INTRA.REPUL.0>
0

>  <SCORE.INTRA.SOLV>
0

>  <SCORE.INTRA.SOLV.lig_0>
0.449748

>  <SCORE.INTRA.VDW>
0

>  <SCORE.INTRA.VDW.0>
0

>  <SCORE.INTRA.norm>
0

>  <SCORE.RESTR>
0

>  <SCORE.RESTR.CAVITY>
0

>  <SCORE.RESTR.norm>
0

>  <SCORE.SYSTEM>
0

>  <SCORE.SYSTEM.CONST>
0

>  <SCORE.SYSTEM.DIHEDRAL>
0

>  <SCORE.SYSTEM.SOLV>
0

>  <SCORE.SYSTEM.norm>
0

>  <SCORE.heavy>
4

>  <SCORE.norm>
-1.39622

>  <RMSD>
26.481

$$$$
ligand
 OpenBabel11021811493D
libRbt.so/2013.1/901 2013/11/27
  4  3  0  0  0  0  0  0  0  0999 V2000
   11.3420   11.8374    5.0096 C   0  0  0  0  0  0  0  0  0  0  0  0
   11.5743   10.8780    5.7779 O   0  0  0  0  0  0  0  0  0  0  0  0
   11.0281   13.1728    5.6711 C   0  0  0  0  0  0  0  0  0  0  0  0
   11.3317   11.8425    3.7007 O   0  0  0  0  0  0  0  0  0  0  0  0
  1  2  1  0  0  0  0
  1  3  1  0  0  0  0
  1  4  1  0  0  0  0
M  END
>  <CHROM.1>
11.32225112,11.91887544,5.03155955,-0.79925550,-1.33728339,1.54390011

>  <Name>
ligand

>  <RI>
0

>  <Rbt.Current_Directory>
/home/itssahil/PROJECTS/Mol_Feturizer/New_Systems/rnas/4FEN

>  <Rbt.Executable>
rbdock ($Id: //depot/dev/client3/rdock/2013.1/src/exe/rbdock.cxx#4 $)

>  <Rbt.Library>
libRbt.so (2013.1, Build901 2013/11/27)

>  <Rbt.Parameter_File>
/export/apps/rDock/src/rDock_2013.1_src/data/scripts/dock_solv.prm

>  <Rbt.Receptor>
prm/blind_docking_80.prm

>  <SCORE>
-5.50746

>  <SCORE.INTER>
-5.50746

>  <SCORE.INTER.CONST>
1

>  <SCORE.INTER.POLAR>
0

>  <SCORE.INTER.ROT>
0

>  <SCORE.INTER.SOLV>
1.75774

>  <SCORE.INTER.VDW>
-7.85755

>  <SCORE.INTER.norm>
-1.37686

>  <SCORE.INTRA>
0

>  <SCORE.INTRA.DIHEDRAL>
0

>  <SCORE.INTRA.DIHEDRAL.0>
0

>  <SCORE.INTRA.POLAR>
0

>  <SCORE.INTRA.POLAR.0>
0

>  <SCORE.INTRA.REPUL>
0

>  <SCORE.INTRA.REPUL.0>
0

>  <SCORE.INTRA.SOLV>
0

>  <SCORE.INTRA.SOLV.lig_0>
0.449748

>  <SCORE.INTRA.VDW>
0

>  <SCORE.INTRA.VDW.0>
0

>  <SCORE.INTRA.norm>
0

>  <SCORE.RESTR>
0

>  <SCORE.RESTR.CAVITY>
0

>  <SCORE.RESTR.norm>
0

>  <SCORE.SYSTEM>
0

>  <SCORE.SYSTEM.CONST>
0

>  <SCORE.SYSTEM.DIHEDRAL>
0

>  <SCORE.SYSTEM.SOLV>
0

>  <SCORE.SYSTEM.norm>
0

>  <SCORE.heavy>
4

>  <SCORE.norm>
-1.37686

>  <RMSD>
26.484

$$$$
ligand
 OpenBabel11021811493D
libRbt.so/2013.1/901 2013/11/27
  4  3  0  0  0  0  0  0  0  0999 V2000
   11.3239   11.8502    4.9693 C   0  0  0  0  0  0  0  0  0  0  0  0
   11.2622   11.8581    3.7199 O   0  0  0  0  0  0  0  0  0  0  0  0
   11.0356   13.1719    5.6689 C   0  0  0  0  0  0  0  0  0  0  0  0
   11.6080   10.8463    5.7596 O   0  0  0  0  0  0  0  0  0  0  0  0
  1  2  1  0  0  0  0
  1  3  1  0  0  0  0
  1  4  1  0  0  0  0
M  END
>  <CHROM.1>
11.31076140,11.91685312,5.02302239,0.34400724,1.32676496,-1.76628629

>  <Name>
ligand

>  <RI>
0

>  <Rbt.Current_Directory>
/home/itssahil/PROJECTS/Mol_Feturizer/New_Systems/rnas/4FEN

>  <Rbt.Executable>
rbdock ($Id: //depot/dev/client3/rdock/2013.1/src/exe/rbdock.cxx#4 $)

>  <Rbt.Library>
libRbt.so (2013.1, Build901 2013/11/27)

>  <Rbt.Parameter_File>
/export/apps/rDock/src/rDock_2013.1_src/data/scripts/dock_solv.prm

>  <Rbt.Receptor>
prm/blind_docking_20.prm

>  <SCORE>
-5.60509

>  <SCORE.INTER>
-5.60509

>  <SCORE.INTER.CONST>
1

>  <SCORE.INTER.POLAR>
0

>  <SCORE.INTER.ROT>
0

>  <SCORE.INTER.SOLV>
1.75576

>  <SCORE.INTER.VDW>
-7.92198

>  <SCORE.INTER.norm>
-1.40127

>  <SCORE.INTRA>
0

>  <SCORE.INTRA.DIHEDRAL>
0

>  <SCORE.INTRA.DIHEDRAL.0>
0

>  <SCORE.INTRA.POLAR>
0

>  <SCORE.INTRA.POLAR.0>
0

>  <SCORE.INTRA.REPUL>
0

>  <SCORE.INTRA.REPUL.0>
0

>  <SCORE.INTRA.SOLV>
0

>  <SCORE.INTRA.SOLV.lig_0>
0.449748

>  <SCORE.INTRA.VDW>
0

>  <SCORE.INTRA.VDW.0>
0

>  <SCORE.INTRA.norm>
0

>  <SCORE.RESTR>
0

>  <SCORE.RESTR.CAVITY>
0

>  <SCORE.RESTR.norm>
0

>  <SCORE.SYSTEM>
0

>  <SCORE.SYSTEM.CONST>
0

>  <SCORE.SYSTEM.DIHEDRAL>
0

>  <SCORE.SYSTEM.SOLV>
0

>  <SCORE.SYSTEM.norm>
0

>  <SCORE.heavy>
4

>  <SCORE.norm>
-1.40127

>  <RMSD>
26.498

$$$$
ligand
 OpenBabel11021811493D
libRbt.so/2013.1/901 2013/11/27
  4  3  0  0  0  0  0  0  0  0999 V2000
   11.3201   11.8686    4.9722 C   0  0  0  0  0  0  0  0  0  0  0  0
   11.2721   11.8869    3.7224 O   0  0  0  0  0  0  0  0  0  0  0  0
   11.0074   13.1803    5.6801 C   0  0  0  0  0  0  0  0  0  0  0  0
   11.6083   10.8613    5.7568 O   0  0  0  0  0  0  0  0  0  0  0  0
  1  2  1  0  0  0  0
  1  3  1  0  0  0  0
  1  4  1  0  0  0  0
M  END
>  <CHROM.1>
11.30559453,11.93461222,5.02639134,0.29143697,1.31610509,-1.70648632

>  <Name>
ligand

>  <RI>
0

>  <Rbt.Current_Directory>
/home/itssahil/PROJECTS/Mol_Feturizer/New_Systems/rnas/4FEN

>  <Rbt.Executable>
rbdock ($Id: //depot/dev/client3/rdock/2013.1/src/exe/rbdock.cxx#4 $)

>  <Rbt.Library>
libRbt.so (2013.1, Build901 2013/11/27)

>  <Rbt.Parameter_File>
/export/apps/rDock/src/rDock_2013.1_src/data/scripts/dock_solv.prm

>  <Rbt.Receptor>
prm/blind_docking_80.prm

>  <SCORE>
-5.58889

>  <SCORE.INTER>
-5.58889

>  <SCORE.INTER.CONST>
1

>  <SCORE.INTER.POLAR>
0

>  <SCORE.INTER.ROT>
0

>  <SCORE.INTER.SOLV>
1.75395

>  <SCORE.INTER.VDW>
-7.91058

>  <SCORE.INTER.norm>
-1.39722

>  <SCORE.INTRA>
0

>  <SCORE.INTRA.DIHEDRAL>
0

>  <SCORE.INTRA.DIHEDRAL.0>
0

>  <SCORE.INTRA.POLAR>
0

>  <SCORE.INTRA.POLAR.0>
0

>  <SCORE.INTRA.REPUL>
0

>  <SCORE.INTRA.REPUL.0>
0

>  <SCORE.INTRA.SOLV>
0

>  <SCORE.INTRA.SOLV.lig_0>
0.449748

>  <SCORE.INTRA.VDW>
0

>  <SCORE.INTRA.VDW.0>
0

>  <SCORE.INTRA.norm>
0

>  <SCORE.RESTR>
0

>  <SCORE.RESTR.CAVITY>
0

>  <SCORE.RESTR.norm>
0

>  <SCORE.SYSTEM>
0

>  <SCORE.SYSTEM.CONST>
0

>  <SCORE.SYSTEM.DIHEDRAL>
0

>  <SCORE.SYSTEM.SOLV>
0

>  <SCORE.SYSTEM.norm>
0

>  <SCORE.heavy>
4

>  <SCORE.norm>
-1.39722

>  <RMSD>
26.498

$$$$
