@<TRIPOS>MOLECULE
4FEN_rdock.pdb
 1423 1590 0 0 0
SMALL
GASTEIGER

@<TRIPOS>ATOM
      1  C5'        3.9960    4.1620   21.8370 C.3    15  G15         0.2141
      2  O5'        3.2780    4.2780   20.6050 O.3    15  G15        -0.2176
      3  C4'        4.0430    2.7370   22.3330 C.3    15  G15         0.1802
      4  O4'        2.6860    2.2580   22.5350 O.3    15  G15        -0.3306
      5  C3'        4.6830    1.7400   21.3780 C.3    15  G15         0.1861
      6  O3'        6.0830    1.6530   21.6200 O.3    15  G15        -0.3112
      7  C2'        3.9810    0.4380   21.7430 C.3    15  G15         0.2309
      8  O2'        4.5370   -0.1880   22.8820 O.3    15  G15        -0.2156
      9  C1'        2.5680    0.9320   22.0510 C.3    15  G15         0.2408
     10  N1         0.0200   -1.8550   18.6570 N.ar   15  G15        -0.1709
     11  C2         0.8180   -2.2640   19.6960 C.ar   15  G15         0.2606
     12  N2         0.9510   -3.5900   19.8530 N.pl3  15  G15        -0.0859
     13  N3         1.4400   -1.4370   20.5200 N.ar   15  G15        -0.1918
     14  C4         1.1970   -0.1450   20.2150 C.ar   15  G15         0.1723
     15  C5         0.4180    0.3690   19.2000 C.ar   15  G15         0.1748
     16  C6        -0.2460   -0.5300   18.3250 C.ar   15  G15         0.3023
     17  O6        -0.9830   -0.2700   17.3670 O.2    15  G15        -0.2633
     18  N7         0.4260    1.7560   19.2260 N.ar   15  G15        -0.2173
     19  C8         1.1940    2.0560   20.2390 C.ar   15  G15         0.1817
     20  N9         1.6920    0.9490   20.8840 N.ar   15  G15        -0.2693
     21  P          7.0900    1.4200   20.3890 P.3    16  G16         0.2141
     22  C5'        6.9300   -1.1720   20.7680 C.3    16  G16         0.1812
     23  O5'        6.7590   -0.0580   19.8980 O.3    16  G16        -0.3114
     24  C4'        6.6110   -2.4550   20.0410 C.3    16  G16         0.1773
     25  O4'        5.1700   -2.6180   19.9660 O.3    16  G16        -0.3307
     26  C3'        7.0720   -2.5130   18.5940 C.3    16  G16         0.1860
     27  O3'        8.4260   -2.9420   18.5170 O.3    16  G16        -0.3112
     28  C2'        6.1250   -3.5490   18.0020 C.3    16  G16         0.2309
     29  O2'        6.5130   -4.8770   18.2900 O.3    16  G16        -0.2156
     30  C1'        4.8210   -3.2170   18.7290 C.3    16  G16         0.2408
     31  N1         1.2600   -2.6970   15.1480 N.ar   16  G16        -0.1709
     32  C2         1.8720   -3.8360   15.6080 C.ar   16  G16         0.2606
     33  N2         1.4820   -4.9870   15.0410 N.pl3  16  G16        -0.0859
     34  N3         2.7960   -3.8470   16.5550 N.ar   16  G16        -0.1918
     35  C4         3.0660   -2.6060   17.0110 C.ar   16  G16         0.1723
     36  C5         2.5140   -1.4050   16.6170 C.ar   16  G16         0.1748
     37  C6         1.5220   -1.4080   15.6020 C.ar   16  G16         0.3023
     38  O6         0.9110   -0.4480   15.1170 O.2    16  G16        -0.2633
     39  N7         3.0640   -0.3510   17.3340 N.ar   16  G16        -0.2173
     40  C8         3.9240   -0.9190   18.1350 C.ar   16  G16         0.1817
     41  N9         3.9750   -2.2850   17.9910 N.ar   16  G16        -0.2693
     42  OP1        8.4800    1.4380   20.9130 O.3    16  G16        -0.4373
     43  OP2        6.7000    2.3640   19.3100 O.co2  16  G16        -0.5172
     44  P          9.3080   -2.5680   17.2260 P.3    17  A17         0.2141
     45  C5'        8.5980   -4.8700   16.1860 C.3    17  A17         0.1812
     46  O5'        8.6760   -3.4530   16.0630 O.3    17  A17        -0.3114
     47  C4'        7.8340   -5.4550   15.0220 C.3    17  A17         0.1773
     48  O4'        6.4190   -5.1670   15.1760 O.3    17  A17        -0.3307
     49  C3'        8.1840   -4.8730   13.6640 C.3    17  A17         0.1860
     50  O3'        9.3260   -5.5210   13.1230 O.3    17  A17        -0.3112
     51  C2'        6.9300   -5.1790   12.8560 C.3    17  A17         0.2309
     52  O2'        6.8880   -6.5090   12.3800 O.3    17  A17        -0.2156
     53  C1'        5.8350   -4.9560   13.9010 C.3    17  A17         0.2408
     54  N1         2.3920   -1.8080   11.7370 N.ar   17  A17        -0.2040
     55  C2         2.6760   -3.1010   11.5410 C.ar   17  A17         0.2016
     56  N3         3.5870   -3.8650   12.1400 N.ar   17  A17        -0.2048
     57  C4         4.2720   -3.1560   13.0550 C.ar   17  A17         0.1692
     58  C5         4.0960   -1.8200   13.3690 C.ar   17  A17         0.1518
     59  C6         3.0990   -1.1240   12.6640 C.ar   17  A17         0.1919
     60  N6         2.8160    0.1650   12.8610 N.pl3  17  A17        -0.1054
     61  N7         4.9820   -1.4300   14.3630 N.ar   17  A17        -0.2193
     62  C8         5.6630   -2.5190   14.6230 C.ar   17  A17         0.1816
     63  N9         5.2860   -3.6020   13.8670 N.ar   17  A17        -0.2693
     64  OP1       10.6990   -3.0290   17.4610 O.3    17  A17        -0.4373
     65  OP2        9.0510   -1.1390   16.9110 O.co2  17  A17        -0.5172
     66  P         10.1150   -4.8440   11.9000 P.3    18  C18         0.2141
     67  C5'        8.9120   -3.8790    9.7810 C.3    18  C18         0.1812
     68  O5'        9.0960   -4.9620   10.6830 O.3    18  C18        -0.3114
     69  C4'        7.7420   -4.1530    8.8690 C.3    18  C18         0.1773
     70  O4'        6.5050   -4.0290    9.6260 O.3    18  C18        -0.3307
     71  C3'        7.6030   -3.1730    7.7150 C.3    18  C18         0.1860
     72  O3'        8.3330   -3.6300    6.5850 O.3    18  C18        -0.3112
     73  C2'        6.1020   -3.1810    7.4630 C.3    18  C18         0.2309
     74  O2'        5.6720   -4.3000    6.7140 O.3    18  C18        -0.2156
     75  C1'        5.5680   -3.2580    8.8920 C.3    18  C18         0.2420
     76  N1         5.4620   -1.9370    9.5300 N.ar   18  C18        -0.2535
     77  C2         4.4460   -1.0700    9.1190 C.ar   18  C18         0.3532
     78  O2         3.6590   -1.4440    8.2370 O.2    18  C18        -0.2443
     79  N3         4.3480    0.1520    9.6920 N.ar   18  C18        -0.1739
     80  C4         5.2140    0.5160   10.6400 C.ar   18  C18         0.1759
     81  N4         5.0820    1.7310   11.1760 N.pl3  18  C18        -0.1070
     82  C5         6.2560   -0.3510   11.0820 C.ar   18  C18         0.0566
     83  C6         6.3420   -1.5560   10.5060 C.ar   18  C18         0.0850
     84  OP1       11.3110   -5.6700   11.5920 O.2    18  C18        -0.5172
     85  OP2       10.2800   -3.4030   12.2180 O.co2  18  C18        -0.4373
     86  P          9.1080   -2.5690    5.6630 P.3    19  A19         0.2141
     87  C5'        7.0160   -2.4750    4.0840 C.3    19  A19         0.1812
     88  O5'        7.9350   -1.7860    4.9250 O.3    19  A19        -0.3114
     89  C4'        5.9920   -1.5120    3.5390 C.3    19  A19         0.1773
     90  O4'        5.1030   -1.1030    4.6110 O.3    19  A19        -0.3307
     91  C3'        6.5570   -0.2040    3.0120 C.3    19  A19         0.1860
     92  O3'        6.9870   -0.3480    1.6660 O.3    19  A19        -0.3112
     93  C2'        5.3510    0.7170    3.1110 C.3    19  A19         0.2309
     94  O2'        4.4350    0.5120    2.0540 O.3    19  A19        -0.2156
     95  C1'        4.7350    0.2550    4.4310 C.3    19  A19         0.2408
     96  N1         4.0850    4.4800    7.2770 N.ar   19  A19        -0.2040
     97  C2         3.4870    4.0450    6.1610 C.ar   19  A19         0.2016
     98  N3         3.7150    2.9370    5.4610 N.ar   19  A19        -0.2048
     99  C4         4.7020    2.2170    6.0220 C.ar   19  A19         0.1692
    100  C5         5.4150    2.5350    7.1640 C.ar   19  A19         0.1518
    101  C6         5.0710    3.7320    7.8170 C.ar   19  A19         0.1919
    102  N6         5.6600    4.1610    8.9340 N.pl3  19  A19        -0.1054
    103  N7         6.3620    1.5580    7.4380 N.ar   19  A19        -0.2193
    104  C8         6.1970    0.6820    6.4770 C.ar   19  A19         0.1816
    105  N9         5.2020    1.0120    5.5910 N.ar   19  A19        -0.2693
    106  OP1        9.8850   -3.3120    4.6390 O.2    19  A19        -0.5172
    107  OP2        9.8010   -1.6160    6.5640 O.co2  19  A19        -0.4373
    108  P          8.2120    0.5400    1.1270 P.3    20  U20         0.2141
    109  C5'        6.4940    2.2190    0.0760 C.3    20  U20         0.1812
    110  O5'        7.5840    1.9940    0.9630 O.3    20  U20        -0.3114
    111  C4'        5.9550    3.6160    0.2560 C.3    20  U20         0.1773
    112  O4'        5.3370    3.7330    1.5640 O.3    20  U20        -0.3307
    113  C3'        6.9940    4.7240    0.2620 C.3    20  U20         0.1860
    114  O3'        7.3530    5.0880   -1.0640 O.3    20  U20        -0.3112
    115  C2'        6.2350    5.8460    0.9570 C.3    20  U20         0.2309
    116  O2'        5.3260    6.5020    0.0980 O.3    20  U20        -0.2156
    117  C1'        5.4650    5.0680    2.0260 C.3    20  U20         0.2420
    118  N1         6.1520    5.0500    3.3240 N.ar   20  U20        -0.2534
    119  C2         5.9450    6.1250    4.1610 C.ar   20  U20         0.3546
    120  O2         5.2370    7.0690    3.8560 O.2    20  U20        -0.2443
    121  N3         6.5990    6.0570    5.3660 N.ar   20  U20        -0.1530
    122  C4         7.4260    5.0470    5.8060 C.ar   20  U20         0.2846
    123  O4         7.9310    5.1270    6.9270 O.2    20  U20        -0.2650
    124  C5         7.5990    3.9700    4.8780 C.ar   20  U20         0.0814
    125  C6         6.9690    4.0070    3.6970 C.ar   20  U20         0.0870
    126  OP1        8.5940    0.0390   -0.2160 O.2    20  U20        -0.5172
    127  OP2        9.2270    0.5920    2.2090 O.co2  20  U20        -0.4373
    128  P          8.8460    5.5990   -1.3730 P.3    21  A21         0.2141
    129  C5'        8.2610    8.1160   -0.9410 C.3    21  A21         0.1812
    130  O5'        8.9740    6.9520   -0.5450 O.3    21  A21        -0.3114
    131  C4'        8.4900    9.2300    0.0500 C.3    21  A21         0.1773
    132  O4'        7.9440    8.8600    1.3380 O.3    21  A21        -0.3307
    133  C3'        9.9350    9.5420    0.3960 C.3    21  A21         0.1860
    134  O3'       10.5400   10.3260   -0.6300 O.3    21  A21        -0.3112
    135  C2'        9.7740   10.3360    1.6920 C.3    21  A21         0.2309
    136  O2'        9.4900   11.7010    1.4710 O.3    21  A21        -0.2156
    137  C1'        8.5560    9.6600    2.3330 C.3    21  A21         0.2408
    138  N1         9.0790    9.4030    7.4300 N.ar   21  A21        -0.2040
    139  C2         8.6320   10.3700    6.6170 C.ar   21  A21         0.2016
    140  N3         8.5090   10.3650    5.2940 N.ar   21  A21        -0.2048
    141  C4         8.9010    9.1820    4.7860 C.ar   21  A21         0.1692
    142  C5         9.3740    8.0920    5.4920 C.ar   21  A21         0.1518
    143  C6         9.4710    8.2300    6.8850 C.ar   21  A21         0.1919
    144  N6         9.9340    7.2750    7.6930 N.pl3  21  A21        -0.1054
    145  N7         9.6700    7.0420    4.6330 N.ar   21  A21        -0.2193
    146  C8         9.3820    7.5160    3.4450 C.ar   21  A21         0.1816
    147  N9         8.9240    8.8100    3.4630 N.ar   21  A21        -0.2693
    148  OP1        8.9280    5.9140   -2.8200 O.2    21  A21        -0.5172
    149  OP2        9.7920    4.6220   -0.7810 O.co2  21  A21        -0.4373
    150  P         11.8030    9.7470   -1.4440 P.3    22  U22         0.2141
    151  C5'       14.1350    8.9830   -0.4780 C.3    22  U22         0.1812
    152  O5'       12.9980    9.8410   -0.3920 O.3    22  U22        -0.3114
    153  C4'       14.7060    8.7440    0.9030 C.3    22  U22         0.1773
    154  O4'       15.1200   10.0260    1.4620 O.3    22  U22        -0.3307
    155  C3'       13.7100    8.1650    1.9030 C.3    22  U22         0.1860
    156  O3'       14.3660    7.4070    2.9140 O.3    22  U22        -0.3112
    157  C2'       13.1350    9.4180    2.5430 C.3    22  U22         0.2309
    158  O2'       12.5900    9.1870    3.8260 O.3    22  U22        -0.2156
    159  C1'       14.3830   10.2940    2.6400 C.3    22  U22         0.2420
    160  N1        14.0550   11.7250    2.6670 N.ar   22  U22        -0.2534
    161  C2        14.3800   12.4460    3.8020 C.ar   22  U22         0.3546
    162  O2        14.9610   11.9570    4.7570 O.2    22  U22        -0.2443
    163  N3        13.9990   13.7650    3.7750 N.ar   22  U22        -0.1530
    164  C4        13.3480   14.4200    2.7460 C.ar   22  U22         0.2846
    165  O4        13.0070   15.5900    2.8940 O.2    22  U22        -0.2650
    166  C5        13.0720   13.6110    1.6030 C.ar   22  U22         0.0814
    167  C6        13.4260   12.3240    1.6020 C.ar   22  U22         0.0870
    168  OP1       12.0870   10.6880   -2.5540 O.2    22  U22        -0.5172
    169  OP2       11.5570    8.3130   -1.7460 O.co2  22  U22        -0.4373
    170  P         14.8110    5.8890    2.6320 P.3    23  A23         0.2141
    171  C5'       17.2350    6.7690    3.0790 C.3    23  A23         0.1812
    172  O5'       16.3500    6.0170    2.2550 O.3    23  A23        -0.3114
    173  C4'       18.4640    7.1590    2.3010 C.3    23  A23         0.1773
    174  O4'       18.0610    7.7450    1.0400 O.3    23  A23        -0.3307
    175  C3'       19.3160    8.2400    2.9440 C.3    23  A23         0.1860
    176  O3'       20.2120    7.6630    3.8860 O.3    23  A23        -0.3112
    177  C2'       20.0760    8.8050    1.7480 C.3    23  A23         0.2309
    178  O2'       21.2150    8.0300    1.4310 O.3    23  A23        -0.2156
    179  C1'       19.0390    8.6810    0.6270 C.3    23  A23         0.2408
    180  N1        17.1820   13.2370    2.2200 N.ar   23  A23        -0.2040
    181  C2        17.7910   12.2450    2.8770 C.ar   23  A23         0.2016
    182  N3        18.2480   11.0830    2.4170 N.ar   23  A23        -0.2048
    183  C4        18.0270   10.9770    1.0950 C.ar   23  A23         0.1692
    184  C5        17.4100   11.9120    0.2830 C.ar   23  A23         0.1518
    185  C6        16.9690   13.0980    0.8940 C.ar   23  A23         0.1919
    186  N6        16.3550   14.0880    0.2380 N.pl3  23  A23        -0.1054
    187  N7        17.3510   11.4620   -1.0280 N.ar   23  A23        -0.2193
    188  C8        17.9260   10.2860   -0.9830 C.ar   23  A23         0.1816
    189  N9        18.3610    9.9270    0.2680 N.ar   23  A23        -0.2693
    190  OP1       14.0920    5.3720    1.4390 O.2    23  A23        -0.5172
    191  OP2       14.7120    5.1610    3.9210 O.co2  23  A23        -0.4373
    192  P         19.9600    7.8730    5.4610 P.3    24  U24         0.2141
    193  C5'       19.8440   10.5030    5.5660 C.3    24  U24         0.1812
    194  O5'       20.5850    9.3050    5.7830 O.3    24  U24        -0.3114
    195  C4'       19.6340   11.2370    6.8720 C.3    24  U24         0.1773
    196  O4'       18.7320   10.4710    7.7070 O.3    24  U24        -0.3307
    197  C3'       20.8550   11.4220    7.7600 C.3    24  U24         0.1860
    198  O3'       21.6020   12.5680    7.3610 O.3    24  U24        -0.3112
    199  C2'       20.2190   11.6710    9.1270 C.3    24  U24         0.2309
    200  O2'       19.8160   13.0170    9.2920 O.3    24  U24        -0.2156
    201  C1'       18.9680   10.7920    9.0640 C.3    24  U24         0.2420
    202  N1        19.0410    9.5420    9.8360 N.ar   24  U24        -0.2534
    203  C2        19.1590    9.6430   11.2110 C.ar   24  U24         0.3546
    204  O2        19.2670   10.7130   11.7890 O.2    24  U24        -0.2443
    205  N3        19.1490    8.4470   11.8840 N.ar   24  U24        -0.1530
    206  C4        19.0450    7.1860   11.3350 C.ar   24  U24         0.2846
    207  O4        18.9380    6.2110   12.0820 O.2    24  U24        -0.2650
    208  C5        18.9660    7.1610    9.9050 C.ar   24  U24         0.0814
    209  C6        18.9670    8.3110    9.2210 C.ar   24  U24         0.0870
    210  OP1       20.7690    6.8600    6.1860 O.3    24  U24        -0.4373
    211  OP2       18.4960    7.9390    5.6910 O.co2  24  U24        -0.5172
    212  P         23.0550   12.3880    6.6960 P.3    25  A25         0.2141
    213  C5'       22.9280   13.0380    4.1690 C.3    25  A25         0.1812
    214  O5'       22.7390   12.0610    5.1770 O.3    25  A25        -0.3114
    215  C4'       22.5860   12.4470    2.8320 C.3    25  A25         0.1773
    216  O4'       21.1620   12.5800    2.5900 O.3    25  A25        -0.3307
    217  C3'       23.2090   13.1310    1.6360 C.3    25  A25         0.1860
    218  O3'       24.5530   12.7120    1.4710 O.3    25  A25        -0.3112
    219  C2'       22.2990   12.6470    0.5190 C.3    25  A25         0.2309
    220  O2'       22.5420   11.3010    0.1690 O.3    25  A25        -0.2156
    221  C1'       20.9360   12.7650    1.2010 C.3    25  A25         0.2408
    222  N1        18.8450   15.9510   -2.2190 N.ar   25  A25        -0.2040
    223  C2        19.3280   14.7070   -2.3190 C.ar   25  A25         0.2016
    224  N3        19.8530   13.9300   -1.3770 N.ar   25  A25        -0.2048
    225  C4        19.8580   14.5630   -0.1920 C.ar   25  A25         0.1692
    226  C5        19.3950   15.8380    0.0720 C.ar   25  A25         0.1518
    227  C6        18.8670   16.5590   -1.0130 C.ar   25  A25         0.1919
    228  N6        18.3920   17.8030   -0.9160 N.pl3  25  A25        -0.1054
    229  N7        19.5630   16.1540    1.4140 N.ar   25  A25        -0.2193
    230  C8        20.1180   15.0790    1.9220 C.ar   25  A25         0.1816
    231  N9        20.3300   14.0800    1.0040 N.ar   25  A25        -0.2693
    232  OP1       23.7040   11.1980    7.2940 O.3    25  A25        -0.4373
    233  OP2       23.7410   13.7000    6.7560 O.co2  25  A25        -0.5172
    234  P         25.7120   13.8170    1.3730 P.3    26  C26         0.2141
    235  C5'       25.1280   14.1660   -1.1620 C.3    26  C26         0.1812
    236  O5'       25.2640   14.7200    0.1420 O.3    26  C26        -0.3114
    237  C4'       24.5140   15.1830   -2.0920 C.3    26  C26         0.1773
    238  O4'       23.1420   15.4470   -1.6810 O.3    26  C26        -0.3307
    239  C3'       25.1590   16.5550   -2.0480 C.3    26  C26         0.1860
    240  O3'       26.3380   16.5990   -2.8390 O.3    26  C26        -0.3112
    241  C2'       24.0430   17.4270   -2.6010 C.3    26  C26         0.2309
    242  O2'       23.8850   17.2870   -3.9990 O.3    26  C26        -0.2156
    243  C1'       22.8350   16.8190   -1.8880 C.3    26  C26         0.2420
    244  N1        22.5770   17.4480   -0.5800 N.ar   26  C26        -0.2535
    245  C2        21.9400   18.6950   -0.5520 C.ar   26  C26         0.3532
    246  O2        21.6130   19.2230   -1.6230 O.2    26  C26        -0.2443
    247  N3        21.7040   19.2920    0.6380 N.ar   26  C26        -0.1739
    248  C4        22.0820   18.6950    1.7710 C.ar   26  C26         0.1759
    249  N4        21.8410   19.3280    2.9230 N.pl3  26  C26        -0.1070
    250  C5        22.7280   17.4230    1.7730 C.ar   26  C26         0.0566
    251  C6        22.9520   16.8400    0.5860 C.ar   26  C26         0.0850
    252  OP1       26.9790   13.1270    1.0230 O.2    26  C26        -0.5172
    253  OP2       25.6410   14.6510    2.5990 O.co2  26  C26        -0.4373
    254  P         27.5470   17.5500   -2.3890 P.3    27  G27         0.2141
    255  C5'       26.6650   19.3620   -4.0480 C.3    27  G27         0.1812
    256  O5'       27.0050   19.0060   -2.7120 O.3    27  G27        -0.3114
    257  C4'       26.3010   20.8190   -4.1190 C.3    27  G27         0.1773
    258  O4'       25.0210   21.0290   -3.4710 O.3    27  G27        -0.3307
    259  C3'       27.2250   21.7450   -3.3550 C.3    27  G27         0.1860
    260  O3'       28.4130   22.0060   -4.0900 O.3    27  G27        -0.3112
    261  C2'       26.3450   22.9730   -3.1910 C.3    27  G27         0.2309
    262  O2'       26.2350   23.7270   -4.3800 O.3    27  G27        -0.2156
    263  C1'       24.9960   22.3210   -2.8850 C.3    27  G27         0.2408
    264  N1        23.5410   24.6570    1.3670 N.ar   27  G27        -0.1709
    265  C2        23.6640   25.1570    0.0920 C.ar   27  G27         0.2606
    266  N2        23.3560   26.4510   -0.0740 N.pl3  27  G27        -0.0859
    267  N3        24.0600   24.4390   -0.9440 N.ar   27  G27        -0.1918
    268  C4        24.3300   23.1620   -0.6020 C.ar   27  G27         0.1723
    269  C5        24.2410   22.5650    0.6370 C.ar   27  G27         0.1748
    270  C6        23.8130   23.3450    1.7420 C.ar   27  G27         0.3023
    271  O6        23.6690   22.9990    2.9160 O.2    27  G27        -0.2633
    272  N7        24.6090   21.2280    0.5670 N.ar   27  G27        -0.2173
    273  C8        24.9080   21.0400   -0.6910 C.ar   27  G27         0.1817
    274  N9        24.7570   22.1740   -1.4540 N.ar   27  G27        -0.2693
    275  OP1       28.6930   17.2670   -3.2890 O.2    27  G27        -0.5172
    276  OP2       27.7220   17.4460   -0.9180 O.co2  27  G27        -0.4373
    277  P         29.6850   22.6120   -3.3320 P.3    28  C28         0.2141
    278  C5'       29.6200   24.5380   -1.5610 C.3    28  C28         0.1812
    279  O5'       29.0880   23.9490   -2.7260 O.3    28  C28        -0.3114
    280  C4'       28.9400   25.8540   -1.3320 C.3    28  C28         0.1773
    281  O4'       27.5350   25.6190   -1.0350 O.3    28  C28        -0.3307
    282  C3'       29.4440   26.6590   -0.1530 C.3    28  C28         0.1860
    283  O3'       30.5870   27.4090   -0.5350 O.3    28  C28        -0.3112
    284  C2'       28.2370   27.5390    0.1240 C.3    28  C28         0.2309
    285  O2'       28.0820   28.5460   -0.8550 O.3    28  C28        -0.2156
    286  C1'       27.1100   26.5160   -0.0230 C.3    28  C28         0.2420
    287  N1        26.8900   25.7500    1.2140 N.ar   28  C28        -0.2535
    288  C2        26.2910   26.3990    2.2930 C.ar   28  C28         0.3532
    289  O2        25.9430   27.5810    2.1520 O.2    28  C28        -0.2443
    290  N3        26.1070   25.7270    3.4540 N.ar   28  C28        -0.1739
    291  C4        26.4960   24.4540    3.5550 C.ar   28  C28         0.1759
    292  N4        26.3110   23.8330    4.7250 N.pl3  28  C28        -0.1070
    293  C5        27.0950   23.7600    2.4620 C.ar   28  C28         0.0566
    294  C6        27.2690   24.4400    1.3200 C.ar   28  C28         0.0850
    295  OP1       30.7020   22.9610   -4.3570 O.2    28  C28        -0.5172
    296  OP2       30.0460   21.6910   -2.2230 O.co2  28  C28        -0.4373
    297  P         31.6710   27.8150    0.5720 P.3    29  G29         0.2141
    298  C5'       30.6480   30.2250    0.6310 C.3    29  G29         0.1812
    299  O5'       30.9970   29.0400    1.3260 O.3    29  G29        -0.3114
    300  C4'       29.9240   31.1540    1.5620 C.3    29  G29         0.1773
    301  O4'       28.6840   30.5220    1.9820 O.3    29  G29        -0.3307
    302  C3'       30.6550   31.4080    2.8690 C.3    29  G29         0.1860
    303  O3'       31.6170   32.4400    2.7030 O.3    29  G29        -0.3112
    304  C2'       29.5060   31.8240    3.7730 C.3    29  G29         0.2309
    305  O2'       29.0590   33.1350    3.4980 O.3    29  G29        -0.2156
    306  C1'       28.4360   30.8180    3.3480 C.3    29  G29         0.2408
    307  N1        27.4140   28.5840    7.7790 N.ar   29  G29        -0.1709
    308  C2        27.2350   29.8910    7.3940 C.ar   29  G29         0.2606
    309  N2        26.7140   30.7160    8.3160 N.pl3  29  G29        -0.0859
    310  N3        27.5450   30.3570    6.1980 N.ar   29  G29        -0.1918
    311  C4        28.0700   29.4010    5.4050 C.ar   29  G29         0.1723
    312  C5        28.3010   28.0730    5.6930 C.ar   29  G29         0.1748
    313  C6        27.9500   27.5810    6.9770 C.ar   29  G29         0.3023
    314  O6        28.0620   26.4320    7.4220 O.2    29  G29        -0.2633
    315  N7        28.8700   27.4250    4.6040 N.ar   29  G29        -0.2173
    316  C8        28.9630   28.3520    3.6890 C.ar   29  G29         0.1817
    317  N9        28.4920   29.5730    4.1090 N.ar   29  G29        -0.2693
    318  OP1       32.8950   28.2820   -0.1280 O.2    29  G29        -0.5172
    319  OP2       31.7680   26.7050    1.5520 O.co2  29  G29        -0.4373
    320  P         33.1040   32.2520    3.2850 P.3    30  U30         0.2141
    321  C5'       32.7060   33.9590    5.2230 C.3    30  U30         0.1812
    322  O5'       32.9580   32.6210    4.8230 O.3    30  U30        -0.3114
    323  C4'       32.3280   33.9940    6.6760 C.3    30  U30         0.1773
    324  O4'       31.0670   33.2920    6.8580 O.3    30  U30        -0.3307
    325  C3'       33.2560   33.2410    7.6100 C.3    30  U30         0.1860
    326  O3'       34.4540   33.9570    7.8860 O.3    30  U30        -0.3112
    327  C2'       32.3570   33.0840    8.8220 C.3    30  U30         0.2309
    328  O2'       32.1690   34.2990    9.5260 O.3    30  U30        -0.2156
    329  C1'       31.0570   32.6670    8.1350 C.3    30  U30         0.2420
    330  N1        31.0150   31.2100    7.9530 N.ar   30  U30        -0.2534
    331  C2        30.6240   30.4630    9.0440 C.ar   30  U30         0.3546
    332  O2        30.2880   30.9710   10.1010 O.2    30  U30        -0.2443
    333  N3        30.6440   29.1050    8.8570 N.ar   30  U30        -0.1530
    334  C4        31.0140   28.4310    7.7130 C.ar   30  U30         0.2846
    335  O4        31.0460   27.1970    7.7210 O.2    30  U30        -0.2650
    336  C5        31.3850   29.2750    6.6160 C.ar   30  U30         0.0814
    337  C6        31.3680   30.6040    6.7690 C.ar   30  U30         0.0870
    338  OP1       33.9660   33.2730    2.6310 O.2    30  U30        -0.5172
    339  OP2       33.4970   30.8230    3.2360 O.co2  30  U30        -0.4373
    340  P         35.8150   33.1480    8.1490 P.3    31  G31         0.2141
    341  C5'       35.5510   33.6070   10.7160 C.3    31  G31         0.1812
    342  O5'       35.6970   32.6660    9.6620 O.3    31  G31        -0.3114
    343  C4'       34.9440   32.9390   11.9210 C.3    31  G31         0.1773
    344  O4'       33.6870   32.3060   11.5420 O.3    31  G31        -0.3307
    345  C3'       35.7370   31.7840   12.5120 C.3    31  G31         0.1860
    346  O3'       36.8000   32.2410   13.3380 O.3    31  G31        -0.3112
    347  C2'       34.6540   31.0890   13.3170 C.3    31  G31         0.2309
    348  O2'       34.3090   31.8110   14.4820 O.3    31  G31        -0.2156
    349  C1'       33.5000   31.1270   12.3150 C.3    31  G31         0.2408
    350  N1        33.0290   26.1080   12.1040 N.ar   31  G31        -0.1709
    351  C2        32.8170   26.9670   13.1510 C.ar   31  G31         0.2606
    352  N2        32.4630   26.4040   14.3150 N.pl3  31  G31        -0.0859
    353  N3        32.9450   28.2800   13.0650 N.ar   31  G31        -0.1918
    354  C4        33.3130   28.6700   11.8280 C.ar   31  G31         0.1723
    355  C5        33.5470   27.8960   10.7130 C.ar   31  G31         0.1748
    356  C6        33.4060   26.4870   10.8210 C.ar   31  G31         0.3023
    357  O6        33.5780   25.6230    9.9520 O.2    31  G31        -0.2633
    358  N7        33.9160   28.6870    9.6330 N.ar   31  G31        -0.2173
    359  C8        33.9030   29.9060   10.1060 C.ar   31  G31         0.1817
    360  N9        33.5600   29.9610   11.4370 N.ar   31  G31        -0.2693
    361  OP1       36.9540   34.0980    8.0470 O.3    31  G31        -0.4373
    362  OP2       35.7960   31.9320    7.2980 O.co2  31  G31        -0.5172
    363  P         38.1060   31.3270   13.5320 P.3    32  G32         0.2141
    364  C5'       37.0150   30.2270   15.6530 C.3    32  G32         0.1812
    365  O5'       37.5840   30.0710   14.3600 O.3    32  G32        -0.3114
    366  C4'       36.6170   28.8820   16.2030 C.3    32  G32         0.1773
    367  O4'       35.5610   28.3180   15.3780 O.3    32  G32        -0.3307
    368  C3'       37.7000   27.8230   16.1460 C.3    32  G32         0.1860
    369  O3'       38.5990   27.9850   17.2310 O.3    32  G32        -0.3112
    370  C2'       36.8700   26.5530   16.2400 C.3    32  G32         0.2309
    371  O2'       36.3420   26.3370   17.5350 O.3    32  G32        -0.2156
    372  C1'       35.7270   26.9070   15.2920 C.3    32  G32         0.2408
    373  N1        36.1960   23.1850   11.8760 N.ar   32  G32        -0.1709
    374  C2        35.8890   23.1050   13.2110 C.ar   32  G32         0.2606
    375  N2        35.6820   21.8720   13.7030 N.pl3  32  G32        -0.0859
    376  N3        35.7950   24.1560   14.0090 N.ar   32  G32        -0.1918
    377  C4        36.0480   25.3090   13.3550 C.ar   32  G32         0.1723
    378  C5        36.3700   25.4950   12.0290 C.ar   32  G32         0.1748
    379  C6        36.4570   24.3620   11.1830 C.ar   32  G32         0.3023
    380  O6        36.7210   24.3210    9.9740 O.2    32  G32        -0.2633
    381  N7        36.5580   26.8420   11.7500 N.ar   32  G32        -0.2173
    382  C8        36.3480   27.4400   12.8910 C.ar   32  G32         0.1817
    383  N9        36.0300   26.5690   13.9050 N.ar   32  G32        -0.2693
    384  OP1       39.0610   32.1000   14.3730 O.3    32  G32        -0.4373
    385  OP2       38.5420   30.8140   12.2100 O.co2  32  G32        -0.5172
    386  P         40.1070   27.4630   17.0950 P.3    33  A33         0.2141
    387  C5'       39.3940   25.3360   18.4300 C.3    33  A33         0.1812
    388  O5'       39.9720   25.8870   17.2550 O.3    33  A33        -0.3114
    389  C4'       39.3060   23.8400   18.3110 C.3    33  A33         0.1773
    390  O4'       38.3950   23.4910   17.2390 O.3    33  A33        -0.3307
    391  C3'       40.5830   23.1380   17.8890 C.3    33  A33         0.1860
    392  O3'       41.4930   23.0120   18.9770 O.3    33  A33        -0.3112
    393  C2'       40.0370   21.7910   17.4460 C.3    33  A33         0.2309
    394  O2'       39.6890   20.9720   18.5460 O.3    33  A33        -0.2156
    395  C1'       38.7620   22.2230   16.7160 C.3    33  A33         0.2408
    396  N1        39.3720   19.6600   12.3240 N.ar   33  A33        -0.2040
    397  C2        39.2490   19.2610   13.5950 C.ar   33  A33         0.2016
    398  N3        39.1010   19.9900   14.6940 N.ar   33  A33        -0.2048
    399  C4        39.0900   21.2990   14.3960 C.ar   33  A33         0.1692
    400  C5        39.2130   21.8660   13.1420 C.ar   33  A33         0.1518
    401  C6        39.3540   20.9820   12.0560 C.ar   33  A33         0.1919
    402  N6        39.4630   21.3730   10.7840 N.pl3  33  A33        -0.1054
    403  N7        39.1700   23.2510   13.2240 N.ar   33  A33        -0.2193
    404  C8        39.0180   23.4860   14.5060 C.ar   33  A33         0.1816
    405  N9        38.9510   22.3480   15.2720 N.ar   33  A33        -0.2693
    406  OP1       40.8530   27.9900   18.2690 O.3    33  A33        -0.4373
    407  OP2       40.6100   27.7300   15.7280 O.co2  33  A33        -0.5172
    408  P         43.0730   23.0840   18.7010 P.3    34  U34         0.2141
    409  C5'       43.0040   20.4630   18.5200 C.3    34  U34         0.1812
    410  O5'       43.4070   21.7120   17.9630 O.3    34  U34        -0.3114
    411  C4'       43.1860   19.3630   17.5040 C.3    34  U34         0.1773
    412  O4'       42.4010   19.6710   16.3200 O.3    34  U34        -0.3307
    413  C3'       44.6230   19.1620   17.0310 C.3    34  U34         0.1860
    414  O3'       44.9250   17.7830   16.9580 O.3    34  U34        -0.3112
    415  C2'       44.6340   19.7680   15.6350 C.3    34  U34         0.2309
    416  O2'       45.5360   19.1470   14.7450 O.3    34  U34        -0.2156
    417  C1'       43.2060   19.5120   15.1710 C.3    34  U34         0.2420
    418  N1        42.8360   20.5310   14.1830 N.ar   34  U34        -0.2534
    419  C2        42.6990   20.1370   12.8650 C.ar   34  U34         0.3546
    420  O2        42.7960   18.9770   12.5010 O.2    34  U34        -0.2443
    421  N3        42.4450   21.1590   11.9850 N.ar   34  U34        -0.1530
    422  C4        42.3100   22.4990   12.2850 C.ar   34  U34         0.2846
    423  O4        42.1630   23.3070   11.3710 O.2    34  U34        -0.2650
    424  C5        42.4260   22.8160   13.6730 C.ar   34  U34         0.0814
    425  C6        42.6740   21.8440   14.5530 C.ar   34  U34         0.0870
    426  OP1       43.7500   23.0910   20.0250 O.3    34  U34        -0.4373
    427  OP2       43.3300   24.1870   17.7400 O.co2  34  U34        -0.5172
    428  P         46.0260   17.1640   17.9380 P.3    35  A35         0.2141
    429  C5'       44.5480   15.0140   18.0840 C.3    35  A35         0.1812
    430  O5'       45.8020   15.6030   17.7790 O.3    35  A35        -0.3114
    431  C4'       44.6300   13.5330   17.8720 C.3    35  A35         0.1773
    432  O4'       44.5440   13.2650   16.4480 O.3    35  A35        -0.3307
    433  C3'       45.9440   12.9320   18.3480 C.3    35  A35         0.1860
    434  O3'       45.7240   11.6530   18.9170 O.3    35  A35        -0.3112
    435  C2'       46.7920   12.8700   17.0800 C.3    35  A35         0.2309
    436  O2'       47.7170   11.8010   17.0900 O.3    35  A35        -0.2156
    437  C1'       45.7370   12.6620   15.9930 C.3    35  A35         0.2408
    438  N1        48.0000   12.1380   11.3860 N.ar   35  A35        -0.2040
    439  C2        47.8140   11.2760   12.3930 C.ar   35  A35         0.2016
    440  N3        47.2120   11.4670   13.5670 N.ar   35  A35        -0.2048
    441  C4        46.7540   12.7260   13.6640 C.ar   35  A35         0.1692
    442  C5        46.8630   13.7230   12.7100 C.ar   35  A35         0.1518
    443  C6        47.5270   13.3960   11.5160 C.ar   35  A35         0.1919
    444  N6        47.7160   14.2590   10.5160 N.pl3  35  A35        -0.1054
    445  N7        46.2690   14.8950   13.1540 N.ar   35  A35        -0.2193
    446  C8        45.8280   14.5910   14.3490 C.ar   35  A35         0.1816
    447  N9        46.0900   13.2970   14.7240 N.ar   35  A35        -0.2693
    448  OP1       45.6690   17.5610   19.3260 O.3    35  A35        -0.4373
    449  OP2       47.3700   17.4870   17.4060 O.co2  35  A35        -0.5172
    450  P         45.6460   11.4970   20.5150 P.3    36  U36         0.2141
    451  C5'       43.1220   11.8530   21.1680 C.3    36  U36         0.1812
    452  O5'       44.4140   12.4130   20.9490 O.3    36  U36        -0.3114
    453  C4'       42.3850   12.6330   22.2350 C.3    36  U36         0.1773
    454  O4'       43.1890   12.6560   23.4480 O.3    36  U36        -0.3307
    455  C3'       42.0950   14.0960   21.9080 C.3    36  U36         0.1860
    456  O3'       40.8880   14.4930   22.5530 O.3    36  U36        -0.3112
    457  C2'       43.2600   14.8090   22.5830 C.3    36  U36         0.2309
    458  O2'       42.9830   16.1620   22.8860 O.3    36  U36        -0.2156
    459  C1'       43.3690   13.9960   23.8670 C.3    36  U36         0.2420
    460  N1        44.6610   14.0980   24.5580 N.ar   36  U36        -0.2534
    461  C2        44.6680   14.6390   25.8300 C.ar   36  U36         0.3546
    462  O2        43.6580   15.0470   26.3810 O.2    36  U36        -0.2443
    463  N3        45.8990   14.6850   26.4340 N.ar   36  U36        -0.1530
    464  C4        47.1020   14.2600   25.9040 C.ar   36  U36         0.2846
    465  O4        48.1230   14.3250   26.5900 O.2    36  U36        -0.2650
    466  C5        47.0130   13.7260   24.5780 C.ar   36  U36         0.0814
    467  C6        45.8270   13.6640   23.9670 C.ar   36  U36         0.0870
    468  OP1       46.8680   12.0900   21.1050 O.3    36  U36        -0.4373
    469  OP2       45.3070   10.0790   20.8020 O.co2  36  U36        -0.5172
    470  P         39.4790   14.3000   21.8120 P.3    37  G37         0.2141
    471  C5'       39.4300   16.7940   20.9610 C.3    37  G37         0.1812
    472  O5'       39.4820   15.4050   20.6660 O.3    37  G37        -0.3114
    473  C4'       39.3360   17.5790   19.6730 C.3    37  G37         0.1773
    474  O4'       40.5890   17.4370   18.9420 O.3    37  G37        -0.3307
    475  C3'       38.2690   17.0820   18.7070 C.3    37  G37         0.1860
    476  O3'       37.0180   17.6990   18.9910 O.3    37  G37        -0.3112
    477  C2'       38.8360   17.5180   17.3610 C.3    37  G37         0.2309
    478  O2'       38.6480   18.8980   17.1160 O.3    37  G37        -0.2156
    479  C1'       40.3230   17.2300   17.5610 C.3    37  G37         0.2408
    480  N1        42.2100   14.1260   13.9910 N.ar   37  G37        -0.1709
    481  C2        41.9630   15.4750   13.9260 C.ar   37  G37         0.2606
    482  N2        42.2730   16.0750   12.7670 N.pl3  37  G37        -0.0859
    483  N3        41.4530   16.1850   14.9240 N.ar   37  G37        -0.1918
    484  C4        41.2190   15.4230   16.0160 C.ar   37  G37         0.1723
    485  C5        41.4330   14.0710   16.1820 C.ar   37  G37         0.1748
    486  C6        41.9690   13.3220   15.1000 C.ar   37  G37         0.3023
    487  O6        42.2220   12.1110   15.0510 O.2    37  G37        -0.2633
    488  N7        41.0630   13.6670   17.4590 N.ar   37  G37        -0.2173
    489  C8        40.6380   14.7580   18.0340 C.ar   37  G37         0.1817
    490  N9        40.7080   15.8630   17.2180 N.ar   37  G37        -0.2693
    491  OP1       38.4130   14.6220   22.7960 O.3    37  G37        -0.4373
    492  OP2       39.4740   12.9860   21.1290 O.co2  37  G37        -0.5172
    493  P         35.6510   16.9120   18.6800 P.3    38  G38         0.2141
    494  C5'       35.3350   18.0940   16.3530 C.3    38  G38         0.1812
    495  O5'       35.5670   16.9000   17.0890 O.3    38  G38        -0.3114
    496  C4'       35.5360   17.8270   14.8840 C.3    38  G38         0.1773
    497  O4'       36.9210   17.4390   14.6790 O.3    38  G38        -0.3307
    498  C3'       34.7360   16.6540   14.3330 C.3    38  G38         0.1860
    499  O3'       33.4250   17.0620   13.9530 O.3    38  G38        -0.3112
    500  C2'       35.5750   16.2330   13.1330 C.3    38  G38         0.2309
    501  O2'       35.3390   17.0030   11.9700 O.3    38  G38        -0.2156
    502  C1'       36.9950   16.4530   13.6630 C.3    38  G38         0.2408
    503  N1        39.7070   12.2980   12.6910 N.ar   38  G38        -0.1709
    504  C2        39.5510   13.4340   11.9360 C.ar   38  G38         0.2606
    505  N2        40.1490   13.4360   10.7330 N.pl3  38  G38        -0.0859
    506  N3        38.8630   14.4900   12.3280 N.ar   38  G38        -0.1918
    507  C4        38.3450   14.3260   13.5650 C.ar   38  G38         0.1723
    508  C5        38.4570   13.2430   14.4090 C.ar   38  G38         0.1748
    509  C6        39.1760   12.1030   13.9620 C.ar   38  G38         0.3023
    510  O6        39.3490   11.0230   14.5430 O.2    38  G38        -0.2633
    511  N7        37.7910   13.4780   15.6040 N.ar   38  G38        -0.2173
    512  C8        37.2720   14.6670   15.4560 C.ar   38  G38         0.1817
    513  N9        37.5330   15.2180   14.2230 N.ar   38  G38        -0.2693
    514  OP1       34.5360   17.7270   19.2170 O.3    38  G38        -0.4373
    515  OP2       35.8030   15.5020   19.1200 O.co2  38  G38        -0.5172
    516  P         32.1610   16.1350   14.3170 P.3    39  C39         0.2141
    517  C5'       30.5720   18.0640   15.0980 C.3    39  C39         0.1812
    518  O5'       31.3930   16.9570   15.4400 O.3    39  C39        -0.3114
    519  C4'       30.9330   19.2540   15.9480 C.3    39  C39         0.1773
    520  O4'       32.2540   19.7300   15.5760 O.3    39  C39        -0.3307
    521  C3'       30.0120   20.4520   15.7830 C.3    39  C39         0.1860
    522  O3'       28.9210   20.3440   16.6910 O.3    39  C39        -0.3112
    523  C2'       30.9320   21.6130   16.1360 C.3    39  C39         0.2309
    524  O2'       31.0900   21.7820   17.5300 O.3    39  C39        -0.2156
    525  C1'       32.2520   21.1470   15.5200 C.3    39  C39         0.2420
    526  N1        32.4420   21.5550   14.1160 N.ar   39  C39        -0.2535
    527  C2        32.5660   22.9140   13.8270 C.ar   39  C39         0.3532
    528  O2        32.4940   23.7280   14.7520 O.2    39  C39        -0.2443
    529  N3        32.7640   23.3050   12.5480 N.ar   39  C39        -0.1739
    530  C4        32.8350   22.3950   11.5750 C.ar   39  C39         0.1759
    531  N4        33.0350   22.8280   10.3270 N.pl3  39  C39        -0.1070
    532  C5        32.7030   21.0000   11.8390 C.ar   39  C39         0.0566
    533  C6        32.5090   20.6280   13.1130 C.ar   39  C39         0.0850
    534  OP1       32.6610   14.8890   14.9470 O.3    39  C39        -0.4373
    535  OP2       31.2940   16.0560   13.1120 O.co2  39  C39        -0.5172
    536  P         27.5330   21.0810   16.3640 P.3    40  A40         0.2141
    537  C5'       28.0530   23.2760   17.7120 C.3    40  A40         0.1812
    538  O5'       27.8870   22.6320   16.4530 O.3    40  A40        -0.3114
    539  C4'       28.0800   24.7730   17.5280 C.3    40  A40         0.1773
    540  O4'       29.2930   25.1530   16.8220 O.3    40  A40        -0.3307
    541  C3'       26.9700   25.3380   16.6590 C.3    40  A40         0.1860
    542  O3'       25.7690   25.5110   17.3990 O.3    40  A40        -0.3112
    543  C2'       27.5750   26.6630   16.2240 C.3    40  A40         0.2309
    544  O2'       27.5800   27.6210   17.2640 O.3    40  A40        -0.2156
    545  C1'       29.0100   26.2270   15.9360 C.3    40  A40         0.2408
    546  N1        29.9830   27.5700   11.0810 N.ar   40  A40        -0.2040
    547  C2        29.8010   28.2890   12.1980 C.ar   40  A40         0.2016
    548  N3        29.5310   27.8710   13.4320 N.ar   40  A40        -0.2048
    549  C4        29.4410   26.5310   13.4680 C.ar   40  A40         0.1692
    550  C5        29.5960   25.6570   12.4070 C.ar   40  A40         0.1518
    551  C6        29.8920   26.2240   11.1530 C.ar   40  A40         0.1919
    552  N6        30.0970   25.5080   10.0410 N.pl3  40  A40        -0.1054
    553  N7        29.4220   24.3450   12.8250 N.ar   40  A40        -0.2193
    554  C8        29.1830   24.4530   14.1100 C.ar   40  A40         0.1816
    555  N9        29.1940   25.7480   14.5670 N.ar   40  A40        -0.2693
    556  OP1       26.5730   20.7450   17.4480 O.3    40  A40        -0.4373
    557  OP2       27.1750   20.7990   14.9540 O.co2  40  A40        -0.5172
    558  P         24.3580   25.3840   16.6500 P.3    41  C41         0.2141
    559  C5'       24.1500   27.9840   16.4290 C.3    41  C41         0.1812
    560  O5'       24.2600   26.7190   15.7890 O.3    41  C41        -0.3114
    561  C4'       24.3410   29.0940   15.4250 C.3    41  C41         0.1773
    562  O4'       25.6790   29.0190   14.8520 O.3    41  C41        -0.3307
    563  C3'       23.4630   29.0400   14.1890 C.3    41  C41         0.1860
    564  O3'       22.1260   29.4490   14.4370 O.3    41  C41        -0.3112
    565  C2'       24.2180   29.9890   13.2740 C.3    41  C41         0.2309
    566  O2'       24.1150   31.3440   13.6690 O.3    41  C41        -0.2156
    567  C1'       25.6450   29.4980   13.5120 C.3    41  C41         0.2420
    568  N1        25.9720   28.3920   12.6000 N.ar   41  C41        -0.2535
    569  C2        26.3720   28.7080   11.3050 C.ar   41  C41         0.3532
    570  O2        26.4580   29.8990   10.9890 O.2    41  C41        -0.2443
    571  N3        26.6520   27.7150   10.4310 N.ar   41  C41        -0.1739
    572  C4        26.5440   26.4410   10.8160 C.ar   41  C41         0.1759
    573  N4        26.8190   25.4920    9.9160 N.pl3  41  C41        -0.1070
    574  C5        26.1460   26.0860   12.1400 C.ar   41  C41         0.0566
    575  C6        25.8750   27.0850   12.9930 C.ar   41  C41         0.0850
    576  OP1       23.2870   25.4040   17.6850 O.3    41  C41        -0.4373
    577  OP2       24.4340   24.2490   15.6940 O.co2  41  C41        -0.5172
    578  P         20.9280   28.7420   13.6350 P.3    42  G42         0.2141
    579  C5'       20.8540   30.6730   11.8720 C.3    42  G42         0.1812
    580  O5'       21.0850   29.2930   12.1490 O.3    42  G42        -0.3114
    581  C4'       21.3030   31.0210   10.4730 C.3    42  G42         0.1773
    582  O4'       22.7110   30.7030   10.2980 O.3    42  G42        -0.3307
    583  C3'       20.6550   30.2600    9.3320 C.3    42  G42         0.1860
    584  O3'       19.3440   30.7310    9.0490 O.3    42  G42        -0.3112
    585  C2'       21.6200   30.5900    8.2070 C.3    42  G42         0.2309
    586  O2'       21.4890   31.9240    7.7630 O.3    42  G42        -0.2156
    587  C1'       22.9570   30.4190    8.9290 C.3    42  G42         0.2408
    588  N1        24.9720   27.0520    5.7720 N.ar   42  G42        -0.1709
    589  C2        24.6860   28.3810    5.5810 C.ar   42  G42         0.2606
    590  N2        24.9550   28.8850    4.3690 N.pl3  42  G42        -0.0859
    591  N3        24.1710   29.1630    6.5110 N.ar   42  G42        -0.1918
    592  C4        23.9620   28.5030    7.6670 C.ar   42  G42         0.1723
    593  C5        24.2080   27.1830    7.9660 C.ar   42  G42         0.1748
    594  C6        24.7630   26.3490    6.9570 C.ar   42  G42         0.3023
    595  O6        25.0570   25.1510    7.0200 O.2    42  G42        -0.2633
    596  N7        23.8470   26.9000    9.2780 N.ar   42  G42        -0.2173
    597  C8        23.3930   28.0370    9.7380 C.ar   42  G42         0.1817
    598  N9        23.4250   29.0440    8.8030 N.ar   42  G42        -0.2693
    599  OP1       19.6500   29.2540   14.1960 O.3    42  G42        -0.4373
    600  OP2       21.1980   27.2820   13.6330 O.co2  42  G42        -0.5172
    601  P         18.3480   29.8220    8.1720 P.3    43  C43         0.2141
    602  C5'       18.9760   31.2760    6.0840 C.3    43  C43         0.1812
    603  O5'       18.8910   29.9890    6.6850 O.3    43  C43        -0.3114
    604  C4'       19.5220   31.1620    4.6830 C.3    43  C43         0.1773
    605  O4'       20.8860   30.6660    4.7270 O.3    43  C43        -0.3307
    606  C3'       18.8220   30.1610    3.7850 C.3    43  C43         0.1860
    607  O3'       17.6140   30.7060    3.2690 O.3    43  C43        -0.3112
    608  C2'       19.8770   29.9470    2.7090 C.3    43  C43         0.2309
    609  O2'       19.9680   31.0230    1.7990 O.3    43  C43        -0.2156
    610  C1'       21.1460   29.8920    3.5620 C.3    43  C43         0.2420
    611  N1        21.4760   28.5180    3.9730 N.ar   43  C43        -0.2535
    612  C2        22.1280   27.6900    3.0570 C.ar   43  C43         0.3532
    613  O2        22.4000   28.1390    1.9380 O.2    43  C43        -0.2443
    614  N3        22.4410   26.4220    3.4140 N.ar   43  C43        -0.1739
    615  C4        22.1180   25.9740    4.6300 C.ar   43  C43         0.1759
    616  N4        22.4420   24.7150    4.9370 N.pl3  43  C43        -0.1070
    617  C5        21.4500   26.7980    5.5840 C.ar   43  C43         0.0566
    618  C6        21.1520   28.0520    5.2160 C.ar   43  C43         0.0850
    619  OP1       16.9990   30.4420    8.2600 O.2    43  C43        -0.5172
    620  OP2       18.5330   28.4070    8.5810 O.co2  43  C43        -0.4373
    621  P         16.4060   29.7240    2.8740 P.3    44  G44         0.2141
    622  C5'       16.9100   28.0320    0.9570 C.3    44  G44         0.1812
    623  O5'       16.7080   29.3730    1.3550 O.3    44  G44        -0.3114
    624  C4'       17.7580   27.9840   -0.2840 C.3    44  G44         0.1773
    625  O4'       19.1580   27.9670    0.1080 O.3    44  G44        -0.3307
    626  C3'       17.5340   26.7280   -1.1100 C.3    44  G44         0.1860
    627  O3'       16.6240   26.9900   -2.1670 O.3    44  G44        -0.3112
    628  C2'       18.9290   26.3910   -1.6140 C.3    44  G44         0.2309
    629  O2'       19.2940   27.1060   -2.7760 O.3    44  G44        -0.2156
    630  C1'       19.7800   26.8150   -0.4200 C.3    44  G44         0.2408
    631  N1        20.9480   22.0160    0.6830 N.ar   44  G44        -0.1709
    632  C2        21.0430   22.6890   -0.5100 C.ar   44  G44         0.2606
    633  N2        21.5100   21.9900   -1.5510 N.pl3  44  G44        -0.0859
    634  N3        20.7040   23.9560   -0.6710 N.ar   44  G44        -0.1918
    635  C4        20.2510   24.5050    0.4740 C.ar   44  G44         0.1723
    636  C5        20.1160   23.9230    1.7160 C.ar   44  G44         0.1748
    637  C6        20.4890   22.5620    1.8770 C.ar   44  G44         0.3023
    638  O6        20.4510   21.8660    2.8980 O.2    44  G44        -0.2633
    639  N7        19.6080   24.8340    2.6340 N.ar   44  G44        -0.2173
    640  C8        19.4480   25.9310    1.9440 C.ar   44  G44         0.1817
    641  N9        19.8210   25.7980    0.6270 N.ar   44  G44        -0.2693
    642  OP1       15.1350   30.4910    2.9250 O.2    44  G44        -0.5172
    643  OP2       16.5420   28.4780    3.6710 O.co2  44  G44        -0.4373
    644  P         15.3340   26.0550   -2.3390 P.3    45  A45         0.2141
    645  C5'       16.7880   24.1440   -3.3970 C.3    45  A45         0.1812
    646  O5'       15.9380   24.5840   -2.3460 O.3    45  A45        -0.3114
    647  C4'       17.1750   22.7060   -3.1690 C.3    45  A45         0.1773
    648  O4'       18.0810   22.6350   -2.0360 O.3    45  A45        -0.3307
    649  C3'       16.0330   21.7840   -2.7780 C.3    45  A45         0.1860
    650  O3'       15.3420   21.3380   -3.9410 O.3    45  A45        -0.3112
    651  C2'       16.7800   20.6530   -2.0820 C.3    45  A45         0.2309
    652  O2'       17.4220   19.7870   -2.9980 O.3    45  A45        -0.2156
    653  C1'       17.8500   21.4350   -1.3170 C.3    45  A45         0.2408
    654  N1        17.9470   19.9820    3.6170 N.ar   45  A45        -0.2040
    655  C2        18.3250   19.3660    2.4910 C.ar   45  A45         0.2016
    656  N3        18.2490   19.7900    1.2300 N.ar   45  A45        -0.2048
    657  C4        17.7010   21.0170    1.1760 C.ar   45  A45         0.1692
    658  C5        17.2560   21.7740    2.2450 C.ar   45  A45         0.1518
    659  C6        17.3990   21.2140    3.5270 C.ar   45  A45         0.1919
    660  N6        17.0280   21.8310    4.6520 N.pl3  45  A45        -0.1054
    661  N7        16.7490   22.9890    1.8060 N.ar   45  A45        -0.2193
    662  C8        16.9040   22.9450    0.5060 C.ar   45  A45         0.1816
    663  N9        17.4890   21.7870    0.0570 N.ar   45  A45        -0.2693
    664  OP1       14.7300   26.3340   -3.6670 O.2    45  A45        -0.5172
    665  OP2       14.5120   26.1880   -1.1130 O.co2  45  A45        -0.4373
    666  P         13.7410   21.1710   -3.9090 P.3    46  G46         0.2141
    667  C5'       14.0330   18.6090   -4.3450 C.3    46  G46         0.1812
    668  O5'       13.5330   19.6460   -3.5090 O.3    46  G46        -0.3114
    669  C4'       14.4060   17.4060   -3.5190 C.3    46  G46         0.1773
    670  O4'       15.3120   17.8040   -2.4560 O.3    46  G46        -0.3307
    671  C3'       13.2520   16.7380   -2.7930 C.3    46  G46         0.1860
    672  O3'       12.5970   15.8360   -3.6790 O.3    46  G46        -0.3112
    673  C2'       13.9740   16.0070   -1.6650 C.3    46  G46         0.2309
    674  O2'       14.5840   14.8060   -2.0910 O.3    46  G46        -0.2156
    675  C1'       15.0710   17.0120   -1.3070 C.3    46  G46         0.2408
    676  N1        15.5300   17.8810    3.6720 N.ar   46  G46        -0.1709
    677  C2        15.9690   16.8130    2.9300 C.ar   46  G46         0.2606
    678  N2        16.6300   15.8590    3.6010 N.pl3  46  G46        -0.0859
    679  N3        15.7740   16.6890    1.6280 N.ar   46  G46        -0.1918
    680  C4        15.0860   17.7320    1.1190 C.ar   46  G46         0.1723
    681  C5        14.5980   18.8430    1.7720 C.ar   46  G46         0.1748
    682  C6        14.8240   18.9700    3.1690 C.ar   46  G46         0.3023
    683  O6        14.4850   19.8900    3.9260 O.2    46  G46        -0.2633
    684  N7        13.9400   19.6860    0.8870 N.ar   46  G46        -0.2173
    685  C8        14.0450   19.0880   -0.2680 C.ar   46  G46         0.1817
    686  N9        14.7400   17.9040   -0.2010 N.ar   46  G46        -0.2693
    687  OP1       13.2350   21.3460   -5.2960 O.2    46  G46        -0.5172
    688  OP2       13.1890   22.0120   -2.8180 O.co2  46  G46        -0.4373
    689  P         11.0210   15.9990   -3.9650 P.3    47  U47         0.2141
    690  C5'       10.4860   13.8420   -2.5730 C.3    47  U47         0.1812
    691  O5'       10.3360   15.2500   -2.7390 O.3    47  U47        -0.3114
    692  C4'        9.5990   13.3490   -1.4560 C.3    47  U47         0.1773
    693  O4'       10.1020   13.8510   -0.1860 O.3    47  U47        -0.3307
    694  C3'        8.1400   13.7870   -1.5340 C.3    47  U47         0.1860
    695  O3'        7.3180   12.7510   -1.0080 O.3    47  U47        -0.3112
    696  C2'        8.1120   14.9940   -0.6020 C.3    47  U47         0.2309
    697  O2'        6.8310   15.2720   -0.0690 O.3    47  U47        -0.2156
    698  C1'        9.0670   14.5300    0.4950 C.3    47  U47         0.2420
    699  N1         9.6650   15.6230    1.2750 N.ar   47  U47        -0.2534
    700  C2         9.6010   15.5420    2.6550 C.ar   47  U47         0.3546
    701  O2         9.1030   14.5980    3.2400 O.2    47  U47        -0.2443
    702  N3        10.1510   16.6070    3.3240 N.ar   47  U47        -0.1530
    703  C4        10.7560   17.7140    2.7660 C.ar   47  U47         0.2846
    704  O4        11.1970   18.5990    3.5020 O.2    47  U47        -0.2650
    705  C5        10.7980   17.7130    1.3360 C.ar   47  U47         0.0814
    706  C6        10.2630   16.6930    0.6560 C.ar   47  U47         0.0870
    707  OP1       10.7250   15.2260   -5.1980 O.2    47  U47        -0.5172
    708  OP2       10.6570   17.4350   -3.8960 O.co2  47  U47        -0.4373
    709  P          6.4800   11.8050   -2.0030 P.3    48  U48         0.2141
    710  C5'        4.4370   13.4180   -1.7390 C.3    48  U48         0.1812
    711  O5'        5.3630   12.7700   -2.5990 O.3    48  U48        -0.3114
    712  C4'        3.7220   14.5180   -2.4780 C.3    48  U48         0.1773
    713  O4'        2.8540   13.9310   -3.4850 O.3    48  U48        -0.3307
    714  C3'        2.8360   15.3900   -1.5940 C.3    48  U48         0.1860
    715  O3'        3.0090   16.7630   -1.9200 O.3    48  U48        -0.3112
    716  C2'        1.4240   14.9080   -1.9210 C.3    48  U48         0.2309
    717  O2'        0.4520   15.9220   -1.7860 O.3    48  U48        -0.2156
    718  C1'        1.5700   14.5040   -3.3860 C.3    48  U48         0.2420
    719  N1         0.5830   13.5020   -3.8130 N.ar   48  U48        -0.2534
    720  C2        -0.3400   13.8780   -4.7680 C.ar   48  U48         0.3546
    721  O2        -0.3530   14.9870   -5.2750 O.2    48  U48        -0.2443
    722  N3        -1.2470   12.9050   -5.1110 N.ar   48  U48        -0.1530
    723  C4        -1.3160   11.6230   -4.6110 C.ar   48  U48         0.2846
    724  O4        -2.1930   10.8620   -5.0210 O.2    48  U48        -0.2650
    725  C5        -0.3190   11.3080   -3.6350 C.ar   48  U48         0.0814
    726  C6         0.5740   12.2360   -3.2790 C.ar   48  U48         0.0870
    727  OP1        5.8090   10.7930   -1.1480 O.3    48  U48        -0.4373
    728  OP2        7.3450   11.3650   -3.1200 O.co2  48  U48        -0.5172
    729  P          4.2320   17.5860   -1.2770 P.3    49  U49         0.2141
    730  C5'        3.1780   17.6180    1.1280 C.3    49  U49         0.1812
    731  O5'        4.2110   17.1710    0.2590 O.3    49  U49        -0.3114
    732  C4'        3.6000   17.4340    2.5640 C.3    49  U49         0.1773
    733  O4'        3.5400   16.0260    2.9140 O.3    49  U49        -0.3307
    734  C3'        5.0240   17.8900    2.8840 C.3    49  U49         0.1860
    735  O3'        5.0170   18.6320    4.0960 O.3    49  U49        -0.3112
    736  C2'        5.7840   16.5760    3.0630 C.3    49  U49         0.2309
    737  O2'        6.8740   16.6850    3.9600 O.3    49  U49        -0.2156
    738  C1'        4.6940   15.6870    3.6500 C.3    49  U49         0.2420
    739  N1         4.9190   14.2420    3.5120 N.ar   49  U49        -0.2534
    740  C2         4.6270   13.4490    4.6040 C.ar   49  U49         0.3546
    741  O2         4.2280   13.9020    5.6610 O.2    49  U49        -0.2443
    742  N3         4.8190   12.1050    4.4120 N.ar   49  U49        -0.1530
    743  C4         5.2660   11.4860    3.2650 C.ar   49  U49         0.2846
    744  O4         5.3220   10.2550    3.2260 O.2    49  U49        -0.2650
    745  C5         5.5680   12.3770    2.1850 C.ar   49  U49         0.0814
    746  C6         5.3890   13.6930    2.3420 C.ar   49  U49         0.0870
    747  OP1        3.8920   19.0270   -1.3810 O.3    49  U49        -0.4373
    748  OP2        5.4990   17.0870   -1.8690 O.co2  49  U49        -0.5172
    749  P          6.0270   19.8650    4.2800 P.3    50  C50         0.2141
    750  C5'        4.7330   20.9470    6.2850 C.3    50  C50         0.1812
    751  O5'        5.8770   20.2420    5.8180 O.3    50  C50        -0.3114
    752  C4'        4.5050   20.6540    7.7460 C.3    50  C50         0.1773
    753  O4'        3.9830   19.3060    7.8870 O.3    50  C50        -0.3307
    754  C3'        5.7570   20.6460    8.6070 C.3    50  C50         0.1860
    755  O3'        6.1050   21.9640    9.0100 O.3    50  C50        -0.3112
    756  C2'        5.3120   19.7980    9.7900 C.3    50  C50         0.2309
    757  O2'        4.5130   20.5150   10.7080 O.3    50  C50        -0.2156
    758  C1'        4.4720   18.7300    9.0870 C.3    50  C50         0.2420
    759  N1         5.2500   17.5310    8.7420 N.ar   50  C50        -0.2535
    760  C2         5.7130   16.7170    9.7770 C.ar   50  C50         0.3532
    761  O2         5.4570   17.0350   10.9480 O.2    50  C50        -0.2443
    762  N3         6.4260   15.6070    9.4780 N.ar   50  C50        -0.1739
    763  C4         6.6790   15.3010    8.2040 C.ar   50  C50         0.1759
    764  N4         7.3840   14.1930    7.9560 N.pl3  50  C50        -0.1070
    765  C5         6.2210   16.1150    7.1280 C.ar   50  C50         0.0566
    766  C6         5.5180   17.2130    7.4400 C.ar   50  C50         0.0850
    767  OP1        5.5190   20.9990    3.4690 O.2    50  C50        -0.5172
    768  OP2        7.4070   19.3640    4.0590 O.co2  50  C50        -0.4373
    769  P          7.6430   22.4270    8.9640 P.3    51  U51         0.2141
    770  C5'        8.1290   21.3560   11.3100 C.3    51  U51         0.1812
    771  O5'        8.3860   21.3800    9.9080 O.3    51  U51        -0.3114
    772  C4'        8.6770   20.0890   11.9270 C.3    51  U51         0.1773
    773  O4'        8.0880   18.9300   11.2810 O.3    51  U51        -0.3307
    774  C3'       10.1720   19.8560   11.7770 C.3    51  U51         0.1860
    775  O3'       10.8990   20.5810   12.7610 O.3    51  U51        -0.3112
    776  C2'       10.2650   18.3580   12.0270 C.3    51  U51         0.2309
    777  O2'       10.1670   18.0390   13.4010 O.3    51  U51        -0.2156
    778  C1'        9.0190   17.8580   11.2940 C.3    51  U51         0.2420
    779  N1         9.2880   17.4510    9.9070 N.ar   51  U51        -0.2534
    780  C2         9.9370   16.2460    9.7130 C.ar   51  U51         0.3546
    781  O2        10.3130   15.5460   10.6350 O.2    51  U51        -0.2443
    782  N3        10.1330   15.8960    8.4000 N.ar   51  U51        -0.1530
    783  C4         9.7630   16.6170    7.2840 C.ar   51  U51         0.2846
    784  O4         9.9740   16.1490    6.1630 O.2    51  U51        -0.2650
    785  C5         9.1150   17.8630    7.5670 C.ar   51  U51         0.0814
    786  C6         8.9030   18.2270    8.8380 C.ar   51  U51         0.0870
    787  OP1        7.7330   23.7720    9.5880 O.3    51  U51        -0.4373
    788  OP2        8.1330   22.2280    7.5750 O.co2  51  U51        -0.5172
    789  P         12.4190   21.0170   12.4680 P.3    52  A52         0.2141
    790  C5'       13.3520   18.8280   13.5800 C.3    52  A52         0.1812
    791  O5'       13.2130   19.6380   12.4180 O.3    52  A52        -0.3114
    792  C4'       13.9770   17.5010   13.2190 C.3    52  A52         0.1773
    793  O4'       13.1150   16.8100   12.2780 O.3    52  A52        -0.3307
    794  C3'       15.3220   17.5800   12.5140 C.3    52  A52         0.1860
    795  O3'       16.3660   17.6370   13.4760 O.3    52  A52        -0.3112
    796  C2'       15.3640   16.2580   11.7570 C.3    52  A52         0.2309
    797  O2'       15.7300   15.1740   12.5880 O.3    52  A52        -0.2156
    798  C1'       13.9020   16.1070   11.3350 C.3    52  A52         0.2408
    799  N1        14.0180   15.2290    6.2690 N.ar   52  A52        -0.2040
    800  C2        14.4520   14.5140    7.3160 C.ar   52  A52         0.2016
    801  N3        14.4090   14.8080    8.6140 N.ar   52  A52        -0.2048
    802  C4        13.8350   16.0080    8.8070 C.ar   52  A52         0.1692
    803  C5        13.3480   16.8610    7.8340 C.ar   52  A52         0.1518
    804  C6        13.4490   16.4320    6.5000 C.ar   52  A52         0.1919
    805  N6        13.0120   17.1430    5.4590 N.pl3  52  A52        -0.1054
    806  N7        12.8340   18.0160    8.4060 N.ar   52  A52        -0.2193
    807  C8        13.0130   17.8360    9.6910 C.ar   52  A52         0.1816
    808  N9        13.6010   16.6370   10.0060 N.ar   52  A52        -0.2693
    809  OP1       12.9140   21.7990   13.6310 O.3    52  A52        -0.4373
    810  OP2       12.4740   21.6090   11.1090 O.co2  52  A52        -0.5172
    811  P         17.5620   18.6930   13.2950 P.3    53  C53         0.2141
    812  C5'       19.1880   16.9100   12.2690 C.3    53  C53         0.1812
    813  O5'       18.4250   18.0980   12.0970 O.3    53  C53        -0.3114
    814  C4'       19.5560   16.3240   10.9270 C.3    53  C53         0.1773
    815  O4'       18.3430   15.9850   10.2010 O.3    53  C53        -0.3307
    816  C3'       20.2930   17.2530    9.9750 C.3    53  C53         0.1860
    817  O3'       21.6910   17.2690   10.2490 O.3    53  C53        -0.3112
    818  C2'       20.0210   16.5830    8.6350 C.3    53  C53         0.2309
    819  O2'       20.8430   15.4510    8.4170 O.3    53  C53        -0.2156
    820  C1'       18.5640   16.1450    8.8090 C.3    53  C53         0.2420
    821  N1        17.6070   17.1370    8.2890 N.ar   53  C53        -0.2535
    822  C2        17.1960   17.0360    6.9570 C.ar   53  C53         0.3532
    823  O2        17.6310   16.1040    6.2690 O.2    53  C53        -0.2443
    824  N3        16.3400   17.9560    6.4540 N.ar   53  C53        -0.1739
    825  C4        15.8970   18.9470    7.2300 C.ar   53  C53         0.1759
    826  N4        15.0700   19.8440    6.6850 N.pl3  53  C53        -0.1070
    827  C5        16.2850   19.0650    8.5960 C.ar   53  C53         0.0566
    828  C6        17.1340   18.1460    9.0820 C.ar   53  C53         0.0850
    829  OP1       18.3790   18.6520   14.5350 O.3    53  C53        -0.4373
    830  OP2       16.9810   19.9800   12.8410 O.co2  53  C53        -0.5172
    831  P         22.3800   18.6010   10.8340 P.3    54  C54         0.2141
    832  C5'       23.5340   17.3690   12.8410 C.3    54  C54         0.1812
    833  O5'       22.5450   18.2870   12.3850 O.3    54  C54        -0.3114
    834  C4'       22.9430   16.4390   13.8690 C.3    54  C54         0.1773
    835  O4'       21.9480   15.5930   13.2300 O.3    54  C54        -0.3307
    836  C3'       23.9150   15.4530   14.4930 C.3    54  C54         0.1860
    837  O3'       24.6180   16.0520   15.5740 O.3    54  C54        -0.3112
    838  C2'       22.9720   14.3580   14.9710 C.3    54  C54         0.2309
    839  O2'       22.2860   14.6890   16.1610 O.3    54  C54        -0.2156
    840  C1'       21.9860   14.2960   13.8050 C.3    54  C54         0.2420
    841  N1        22.4140   13.3370   12.7750 N.ar   54  C54        -0.2535
    842  C2        22.3430   11.9780   13.0720 C.ar   54  C54         0.3532
    843  O2        21.9110   11.6340   14.1790 O.2    54  C54        -0.2443
    844  N3        22.7450   11.0740   12.1500 N.ar   54  C54        -0.1739
    845  C4        23.2000   11.4870   10.9670 C.ar   54  C54         0.1759
    846  N4        23.5850   10.5570   10.0890 N.pl3  54  C54        -0.1070
    847  C5        23.2800   12.8720   10.6310 C.ar   54  C54         0.0566
    848  C6        22.8780   13.7550   11.5580 C.ar   54  C54         0.0850
    849  OP1       21.4240   19.7310   10.6930 O.3    54  C54        -0.4373
    850  OP2       23.7320   18.7060   10.2300 O.co2  54  C54        -0.5172
    851  P         26.0520   15.4690   16.0110 P.3    55  G55         0.2141
    852  C5'       25.1920   14.1330   18.1030 C.3    55  G55         0.1812
    853  O5'       25.7080   14.1140   16.7730 O.3    55  G55        -0.3114
    854  C4'       25.0890   12.7270   18.6510 C.3    55  G55         0.1773
    855  O4'       24.2000   11.9420   17.8130 O.3    55  G55        -0.3307
    856  C3'       26.3770   11.9200   18.6750 C.3    55  G55         0.1860
    857  O3'       27.1230   12.2030   19.8480 O.3    55  G55        -0.3112
    858  C2'       25.8460   10.4950   18.7090 C.3    55  G55         0.2309
    859  O2'       25.3780   10.1090   19.9860 O.3    55  G55        -0.2156
    860  C1'       24.6640   10.6030   17.7500 C.3    55  G55         0.2408
    861  N1        25.3200    6.9840   14.2620 N.ar   55  G55        -0.1709
    862  C2        25.0460    6.8590   15.6000 C.ar   55  G55         0.2606
    863  N2        24.9020    5.6050   16.0610 N.pl3  55  G55        -0.0859
    864  N3        24.9210    7.8870   16.4250 N.ar   55  G55        -0.1918
    865  C4        25.1030    9.0660   15.7920 C.ar   55  G55         0.1723
    866  C5        25.3920    9.2970   14.4640 C.ar   55  G55         0.1748
    867  C6        25.5050    8.1880   13.5890 C.ar   55  G55         0.3023
    868  O6        25.7220    8.1850   12.3730 O.2    55  G55        -0.2633
    869  N7        25.5170   10.6580   14.2160 N.ar   55  G55        -0.2173
    870  C8        25.2890   11.2190   15.3720 C.ar   55  G55         0.1817
    871  N9        25.0140   10.3120   16.3660 N.ar   55  G55        -0.2693
    872  OP1       26.6360   16.4240   16.9910 O.3    55  G55        -0.4373
    873  OP2       26.8030   15.1340   14.7770 O.co2  55  G55        -0.5172
    874  P         28.7190   12.2930   19.7640 P.3    56  G56         0.2141
    875  C5'       29.1690   10.0220   20.9890 C.3    56  G56         0.1812
    876  O5'       29.1970   10.7750   19.7830 O.3    56  G56        -0.3114
    877  C4'       29.1880    8.5440   20.6860 C.3    56  G56         0.1773
    878  O4'       28.0890    8.2090   19.7920 O.3    56  G56        -0.3307
    879  C3'       30.4070    8.0190   19.9470 C.3    56  G56         0.1860
    880  O3'       31.5090    7.8190   20.8220 O.3    56  G56        -0.3112
    881  C2'       29.8620    6.7020   19.4230 C.3    56  G56         0.2309
    882  O2'       29.6940    5.7530   20.4590 O.3    56  G56        -0.2156
    883  C1'       28.4910    7.1560   18.9250 C.3    56  G56         0.2408
    884  N1        28.6380    5.9830   13.9930 N.ar   56  G56        -0.1709
    885  C2        28.5340    5.1570   15.0820 C.ar   56  G56         0.2606
    886  N2        28.4860    3.8430   14.8240 N.pl3  56  G56        -0.0859
    887  N3        28.4880    5.5880   16.3320 N.ar   56  G56        -0.1918
    888  C4        28.5640    6.9340   16.4080 C.ar   56  G56         0.1723
    889  C5        28.6740    7.8480   15.3840 C.ar   56  G56         0.1748
    890  C6        28.7180    7.3720   14.0460 C.ar   56  G56         0.3023
    891  O6        28.8170    8.0230   12.9980 O.2    56  G56        -0.2633
    892  N7        28.7310    9.1440   15.8830 N.ar   56  G56        -0.2173
    893  C8        28.6560    8.9950   17.1790 C.ar   56  G56         0.1817
    894  N9        28.5610    7.6780   17.5640 N.ar   56  G56        -0.2693
    895  OP1       29.2040   12.9600   21.0010 O.3    56  G56        -0.4373
    896  OP2       29.0760   12.8550   18.4410 O.co2  56  G56        -0.5172
    897  P         32.9950    7.7260   20.2200 P.3    57  G57         0.2141
    898  C5'       32.9730    5.1030   20.2450 C.3    57  G57         0.1812
    899  O5'       33.0320    6.3100   19.4950 O.3    57  G57        -0.3114
    900  C4'       32.8950    3.9200   19.3110 C.3    57  G57         0.1773
    901  O4'       31.7550    4.0800   18.4230 O.3    57  G57        -0.3307
    902  C3'       34.0640    3.7600   18.3550 C.3    57  G57         0.1860
    903  O3'       35.1560    3.1200   19.0010 O.3    57  G57        -0.3112
    904  C2'       33.4430    2.8750   17.2850 C.3    57  G57         0.2309
    905  O2'       33.3010    1.5310   17.7100 O.3    57  G57        -0.2156
    906  C1'       32.0610    3.5150   17.1560 C.3    57  G57         0.2408
    907  N1        32.0340    4.6520   12.2120 N.ar   57  G57        -0.1709
    908  C2        32.1360    3.4280   12.8220 C.ar   57  G57         0.2606
    909  N2        32.2540    2.3670   12.0100 N.pl3  57  G57        -0.0859
    910  N3        32.1300    3.2560   14.1330 N.ar   57  G57        -0.1918
    911  C4        32.0330    4.4270   14.7960 C.ar   57  G57         0.1723
    912  C5        31.9380    5.7020   14.2830 C.ar   57  G57         0.1748
    913  C6        31.9230    5.8710   12.8740 C.ar   57  G57         0.3023
    914  O6        31.8220    6.9190   12.2250 O.2    57  G57        -0.2633
    915  N7        31.8660    6.6410   15.3040 N.ar   57  G57        -0.2173
    916  C8        31.9110    5.9300   16.3980 C.ar   57  G57         0.1817
    917  N9        32.0070    4.5820   16.1620 N.ar   57  G57        -0.2693
    918  OP1       33.9600    7.7040   21.3510 O.3    57  G57        -0.4373
    919  OP2       33.1360    8.7600   19.1580 O.co2  57  G57        -0.5172
    920  P         36.6530    3.5770   18.6680 P.3    58  C58         0.2141
    921  C5'       36.9760    1.7960   16.7780 C.3    58  C58         0.1812
    922  O5'       36.8550    3.1650   17.1440 O.3    58  C58        -0.3114
    923  C4'       36.8970    1.6470   15.2800 C.3    58  C58         0.1773
    924  O4'       35.6170    2.1560   14.8080 O.3    58  C58        -0.3307
    925  C3'       37.8980    2.4540   14.4700 C.3    58  C58         0.1860
    926  O3'       39.1850    1.8490   14.4360 O.3    58  C58        -0.3112
    927  C2'       37.2280    2.4290   13.1080 C.3    58  C58         0.2309
    928  O2'       37.2980    1.1630   12.4800 O.3    58  C58        -0.2156
    929  C1'       35.7850    2.7160   13.5130 C.3    58  C58         0.2420
    930  N1        35.5370    4.1630   13.5820 N.ar   58  C58        -0.2535
    931  C2        35.2910    4.8350   12.3920 C.ar   58  C58         0.3532
    932  O2        35.2930    4.1840   11.3370 O.2    58  C58        -0.2443
    933  N3        35.0640    6.1680   12.4130 N.ar   58  C58        -0.1739
    934  C4        35.0810    6.8270   13.5740 C.ar   58  C58         0.1759
    935  N4        34.8490    8.1440   13.5480 N.pl3  58  C58        -0.1070
    936  C5        35.3330    6.1640   14.8130 C.ar   58  C58         0.0566
    937  C6        35.5520    4.8410   14.7700 C.ar   58  C58         0.0850
    938  OP1       37.5720    2.7540   19.4990 O.3    58  C58        -0.4373
    939  OP2       36.7210    5.0540   18.7420 O.co2  58  C58        -0.5172
    940  P         40.4930    2.7710   14.2770 P.3    59  A59         0.2141
    941  C5'       40.6440    2.2550   11.7050 C.3    59  A59         0.1812
    942  O5'       40.4850    3.2100   12.7460 O.3    59  A59        -0.3114
    943  C4'       40.2620    2.8690   10.3800 C.3    59  A59         0.1773
    944  O4'       38.9580    3.4870   10.5210 O.3    59  A59        -0.3307
    945  C3'       41.1640    3.9920    9.8880 C.3    59  A59         0.1860
    946  O3'       42.2390    3.4510    9.1340 O.3    59  A59        -0.3112
    947  C2'       40.2270    4.7890    8.9880 C.3    59  A59         0.2309
    948  O2'       40.0950    4.2520    7.6860 O.3    59  A59        -0.2156
    949  C1'       38.9030    4.6670    9.7410 C.3    59  A59         0.2408
    950  N1        37.6630    9.6280    9.9500 N.ar   59  A59        -0.2040
    951  C2        37.9000    8.7970    8.9290 C.ar   59  A59         0.2016
    952  N3        38.2410    7.5120    8.9520 N.ar   59  A59        -0.2048
    953  C4        38.3400    7.0710   10.2170 C.ar   59  A59         0.1692
    954  C5        38.1350    7.8020   11.3700 C.ar   59  A59         0.1518
    955  C6        37.7690    9.1530   11.2100 C.ar   59  A59         0.1919
    956  N6        37.5140    9.9840   12.2240 N.pl3  59  A59        -0.1054
    957  N7        38.3370    7.0110   12.4940 N.ar   59  A59        -0.2193
    958  C8        38.6420    5.8360   12.0000 C.ar   59  A59         0.1816
    959  N9        38.6490    5.7980   10.6290 N.ar   59  A59        -0.2693
    960  OP1       41.6740    1.9020   14.5170 O.2    59  A59        -0.5172
    961  OP2       40.3080    3.9940   15.0910 O.co2  59  A59        -0.4373
    962  P         43.6600    4.1990    9.1120 P.3    60  C60         0.2141
    963  C5'       42.9920    5.7350    7.0900 C.3    60  C60         0.1812
    964  O5'       43.3550    5.6170    8.4580 O.3    60  C60        -0.3114
    965  C4'       42.6390    7.1680    6.7800 C.3    60  C60         0.1773
    966  O4'       41.4110    7.5180    7.4790 O.3    60  C60        -0.3307
    967  C3'       43.6350    8.2040    7.2740 C.3    60  C60         0.1860
    968  O3'       44.7150    8.3510    6.3650 O.3    60  C60        -0.3112
    969  C2'       42.7640    9.4490    7.3320 C.3    60  C60         0.2309
    970  O2'       42.4750    9.9750    6.0520 O.3    60  C60        -0.2156
    971  C1'       41.4860    8.8640    7.9280 C.3    60  C60         0.2420
    972  N1        41.4630    8.8730    9.4000 N.ar   60  C60        -0.2535
    973  C2        41.0590   10.0390   10.0530 C.ar   60  C60         0.3532
    974  O2        40.8060   11.0480    9.3740 O.2    60  C60        -0.2443
    975  N3        40.9640   10.0460   11.4000 N.ar   60  C60        -0.1739
    976  C4        41.2720    8.9510   12.0960 C.ar   60  C60         0.1759
    977  N4        41.1280    8.9940   13.4230 N.pl3  60  C60        -0.1070
    978  C5        41.7300    7.7600   11.4610 C.ar   60  C60         0.0566
    979  C6        41.8090    7.7640   10.1220 C.ar   60  C60         0.0850
    980  OP1       44.5410    3.4320    8.1940 O.2    60  C60        -0.5172
    981  OP2       44.0940    4.4560   10.5050 O.co2  60  C60        -0.4373
    982  P         46.1520    8.8220    6.9080 P.3    61  C61         0.2141
    983  C5'       45.6450   11.1830    5.8850 C.3    61  C61         0.1812
    984  O5'       46.0240   10.4060    7.0150 O.3    61  C61        -0.3114
    985  C4'       45.2150   12.5600    6.3220 C.3    61  C61         0.1773
    986  O4'       44.0620   12.4400    7.1950 O.3    61  C61        -0.3307
    987  C3'       46.2310   13.3310    7.1490 C.3    61  C61         0.1860
    988  O3'       47.1090   14.0380    6.2830 O.3    61  C61        -0.3112
    989  C2'       45.3380   14.3080    7.9030 C.3    61  C61         0.2309
    990  O2'       44.9450   15.3910    7.0830 O.3    61  C61        -0.2156
    991  C1'       44.1210   13.4330    8.2020 C.3    61  C61         0.2420
    992  N1        44.1590   12.7580    9.5080 N.ar   61  C61        -0.2535
    993  C2        43.6740   13.4340   10.6250 C.ar   61  C61         0.3532
    994  O2        43.3140   14.6110   10.4980 O.2    61  C61        -0.2443
    995  N3        43.6200   12.7930   11.8150 N.ar   61  C61        -0.1739
    996  C4        44.0540   11.5350   11.9150 C.ar   61  C61         0.1759
    997  N4        43.9480   10.9300   13.0990 N.pl3  61  C61        -0.1070
    998  C5        44.6050   10.8390   10.8020 C.ar   61  C61         0.0566
    999  C6        44.6360   11.4810    9.6270 C.ar   61  C61         0.0850
   1000  OP1       47.1460    8.4980    5.8550 O.2    61  C61        -0.5172
   1001  OP2       46.3410    8.2920    8.2810 O.co2  61  C61        -0.4373
   1002  P         48.6800   13.7130    6.2980 P.3    62  G62         0.2141
   1003  C5'       50.6220   14.9590    7.5460 C.3    62  G62         0.1812
   1004  O5'       49.2420   14.6220    7.4760 O.3    62  G62        -0.3114
   1005  C4'       50.9490   15.5010    8.9130 C.3    62  G62         0.1773
   1006  O4'       50.7050   14.4630    9.9020 O.3    62  G62        -0.3307
   1007  C3'       52.3950   15.9330    9.1190 C.3    62  G62         0.1860
   1008  O3'       52.4190   16.9830   10.0780 O.3    62  G62        -0.3112
   1009  C2'       53.0250   14.6750    9.7020 C.3    62  G62         0.2309
   1010  O2'       54.1910   14.9380   10.4570 O.3    62  G62        -0.2156
   1011  C1'       51.8980   14.1990   10.6140 C.3    62  G62         0.2408
   1012  N1        50.6970   10.7240   14.0870 N.ar   62  G62        -0.1709
   1013  C2        50.5340   12.0860   14.1170 C.ar   62  G62         0.2606
   1014  N2        49.9620   12.5910   15.2180 N.pl3  62  G62        -0.0859
   1015  N3        50.9030   12.8940   13.1410 N.ar   62  G62        -0.1918
   1016  C4        51.4560   12.2210   12.1100 C.ar   62  G62         0.1723
   1017  C5        51.6660   10.8670   11.9780 C.ar   62  G62         0.1748
   1018  C6        51.2650   10.0080   13.0370 C.ar   62  G62         0.3023
   1019  O6        51.3610    8.7760   13.1120 O.2    62  G62        -0.2633
   1020  N7        52.2670   10.5780   10.7600 N.ar   62  G62        -0.2173
   1021  C8        52.4030   11.7420   10.1840 C.ar   62  G62         0.1817
   1022  N9        51.9250   12.7790   10.9480 N.ar   62  G62        -0.2693
   1023  OP1       49.2450   14.2020    5.0150 O.2    62  G62        -0.5172
   1024  OP2       48.8580   12.2930    6.6820 O.co2  62  G62        -0.4373
   1025  P         53.2700   18.3120    9.7870 P.3    63  U63         0.2141
   1026  C5'       51.1310   19.7620    9.3090 C.3    63  U63         0.1812
   1027  O5'       52.2670   19.5000   10.1290 O.3    63  U63        -0.3114
   1028  C4'       50.0800   20.4980   10.1030 C.3    63  U63         0.1773
   1029  O4'       49.2750   19.5280   10.8320 O.3    63  U63        -0.3307
   1030  C3'       50.6350   21.4530   11.1560 C.3    63  U63         0.1860
   1031  O3'       49.7810   22.5800   11.3050 O.3    63  U63        -0.3112
   1032  C2'       50.5940   20.6070   12.4210 C.3    63  U63         0.2309
   1033  O2'       50.5330   21.3830   13.6010 O.3    63  U63        -0.2156
   1034  C1'       49.2910   19.8440   12.2080 C.3    63  U63         0.2420
   1035  N1        49.1990   18.5930   12.9730 N.ar   63  U63        -0.2534
   1036  C2        48.5470   18.6330   14.1900 C.ar   63  U63         0.3546
   1037  O2        48.0490   19.6510   14.6380 O.2    63  U63        -0.2443
   1038  N3        48.4970   17.4360   14.8620 N.ar   63  U63        -0.1530
   1039  C4        49.0190   16.2290   14.4440 C.ar   63  U63         0.2846
   1040  O4        48.9030   15.2370   15.1630 O.2    63  U63        -0.2650
   1041  C5        49.6740   16.2710   13.1710 C.ar   63  U63         0.0814
   1042  C6        49.7410   17.4230   12.4970 C.ar   63  U63         0.0870
   1043  OP1       53.5610   18.3530    8.3300 O.2    63  U63        -0.5172
   1044  OP2       54.3880   18.3590   10.7640 O.co2  63  U63        -0.4373
   1045  P         50.2210   24.0010   10.7020 P.3    64  A64         0.2141
   1046  C5'       48.0870   24.1100    9.1900 C.3    64  A64         0.1812
   1047  O5'       49.5050   24.0470    9.2820 O.3    64  A64        -0.3114
   1048  C4'       47.6260   23.5880    7.8520 C.3    64  A64         0.1773
   1049  O4'       47.9150   22.1680    7.7650 O.3    64  A64        -0.3307
   1050  C3'       46.1320   23.7550    7.6020 C.3    64  A64         0.1860
   1051  O3'       45.9320   24.8750    6.7450 O.3    64  A64        -0.3112
   1052  C2'       45.7280   22.4500    6.9170 C.3    64  A64         0.2309
   1053  O2'       45.8830   22.5050    5.5120 O.3    64  A64        -0.2156
   1054  C1'       46.7260   21.4530    7.5040 C.3    64  A64         0.2408
   1055  N1        46.7970   17.0390   10.1150 N.ar   64  A64        -0.2040
   1056  C2        47.1950   17.3650    8.8780 C.ar   64  A64         0.2016
   1057  N3        47.1160   18.5350    8.2500 N.ar   64  A64        -0.2048
   1058  C4        46.5440   19.4610    9.0380 C.ar   64  A64         0.1692
   1059  C5        46.0760   19.2780   10.3270 C.ar   64  A64         0.1518
   1060  C6        46.2230   17.9910   10.8820 C.ar   64  A64         0.1919
   1061  N6        45.8340   17.6640   12.1160 N.pl3  64  A64        -0.1054
   1062  N7        45.5400   20.4570   10.8250 N.ar   64  A64        -0.2193
   1063  C8        45.7040   21.3160    9.8470 C.ar   64  A64         0.1816
   1064  N9        46.3240   20.7850    8.7430 N.ar   64  A64        -0.2693
   1065  OP1       51.6880   23.9590   10.4730 O.2    64  A64        -0.5172
   1066  OP2       49.6400   25.0650   11.5580 O.co2  64  A64        -0.4373
   1067  P         44.6100   25.7720    6.8930 P.3    65  A65         0.2141
   1068  C5'       43.5010   24.6400    4.8050 C.3    65  A65         0.1812
   1069  O5'       43.4770   24.8890    6.2080 O.3    65  A65        -0.3114
   1070  C4'       42.5150   23.5550    4.4510 C.3    65  A65         0.1773
   1071  O4'       42.8500   22.3410    5.1880 O.3    65  A65        -0.3307
   1072  C3'       41.0530   23.8490    4.7920 C.3    65  A65         0.1860
   1073  O3'       40.2370   23.1360    3.8680 O.3    65  A65        -0.3112
   1074  C2'       40.9220   23.1790    6.1530 C.3    65  A65         0.2309
   1075  O2'       39.5920   22.8780    6.5200 O.3    65  A65        -0.2156
   1076  C1'       41.7020   21.8990    5.8820 C.3    65  A65         0.2408
   1077  N1        43.2050   17.3080    7.5910 N.ar   65  A65        -0.2040
   1078  C2        42.9770   17.7860    6.3600 C.ar   65  A65         0.2016
   1079  N3        42.6160   19.0110    5.9860 N.ar   65  A65        -0.2048
   1080  C4        42.4940   19.8170    7.0550 C.ar   65  A65         0.1692
   1081  C5        42.7030   19.4770    8.3790 C.ar   65  A65         0.1518
   1082  C6        43.0660   18.1430    8.6450 C.ar   65  A65         0.1919
   1083  N6        43.2670   17.6550    9.8720 N.pl3  65  A65        -0.1054
   1084  N7        42.4870   20.5720    9.2040 N.ar   65  A65        -0.2193
   1085  C8        42.1450   21.5300    8.3760 C.ar   65  A65         0.1816
   1086  N9        42.1080   21.1350    7.0620 N.ar   65  A65        -0.2693
   1087  OP1       44.7970   27.0010    6.0750 O.2    65  A65        -0.5172
   1088  OP2       44.2750   25.8950    8.3330 O.co2  65  A65        -0.4373
   1089  P         38.9690   23.8440    3.1820 P.3    66  A66         0.2141
   1090  C5'       37.5630   21.8850    4.2250 C.3    66  A66         0.1812
   1091  O5'       37.9130   22.6560    3.0770 O.3    66  A66        -0.3114
   1092  C4'       37.8560   20.4260    3.9780 C.3    66  A66         0.1773
   1093  O4'       39.1810   20.0920    4.4800 O.3    66  A66        -0.3307
   1094  C3'       36.9800   19.4390    4.7240 C.3    66  A66         0.1860
   1095  O3'       35.6810   19.3030    4.1680 O.3    66  A66        -0.3112
   1096  C2'       37.8100   18.1760    4.5950 C.3    66  A66         0.2309
   1097  O2'       37.7740   17.6380    3.2890 O.3    66  A66        -0.2156
   1098  C1'       39.1930   18.7370    4.9220 C.3    66  A66         0.2408
   1099  N1        39.9950   15.7170    8.9600 N.ar   66  A66        -0.2040
   1100  C2        39.9760   15.4850    7.6440 C.ar   66  A66         0.2016
   1101  N3        39.7930   16.3390    6.6420 N.ar   66  A66        -0.2048
   1102  C4        39.6130   17.5850    7.1090 C.ar   66  A66         0.1692
   1103  C5        39.6130   17.9850    8.4310 C.ar   66  A66         0.1518
   1104  C6        39.8140   16.9810    9.3980 C.ar   66  A66         0.1919
   1105  N6        39.8320   17.2060   10.7120 N.pl3  66  A66        -0.1054
   1106  N7        39.4060   19.3540    8.5290 N.ar   66  A66        -0.2193
   1107  C8        39.2780   19.7430    7.2810 C.ar   66  A66         0.1816
   1108  N9        39.3690   18.7180    6.3730 N.ar   66  A66        -0.2693
   1109  OP1       39.3680   24.2190    1.7920 O.2    66  A66        -0.5172
   1110  OP2       38.4110   24.8800    4.0860 O.co2  66  A66        -0.4373
   1111  P         34.4110   19.3210    5.1480 P.3    67  U67         0.2141
   1112  C5'       34.1150   16.8960    6.1290 C.3    67  U67         0.1812
   1113  O5'       34.7390   18.1720    6.2050 O.3    67  U67        -0.3114
   1114  C4'       35.0200   15.9050    5.4350 C.3    67  U67         0.1773
   1115  O4'       36.2740   15.7690    6.1590 O.3    67  U67        -0.3307
   1116  C3'       34.4570   14.4980    5.3800 C.3    67  U67         0.1860
   1117  O3'       33.6010   14.3690    4.2520 O.3    67  U67        -0.3112
   1118  C2'       35.7190   13.6560    5.2580 C.3    67  U67         0.2309
   1119  O2'       36.2420   13.6480    3.9430 O.3    67  U67        -0.2156
   1120  C1'       36.6680   14.4060    6.1950 C.3    67  U67         0.2420
   1121  N1        36.6200   13.9530    7.5950 N.ar   67  U67        -0.2534
   1122  C2        37.0520   12.6680    7.8810 C.ar   67  U67         0.3546
   1123  O2        37.4600   11.8990    7.0280 O.2    67  U67        -0.2443
   1124  N3        36.9880   12.3180    9.2070 N.ar   67  U67        -0.1530
   1125  C4        36.5440   13.1020   10.2540 C.ar   67  U67         0.2846
   1126  O4        36.5330   12.6390   11.3980 O.2    67  U67        -0.2650
   1127  C5        36.1130   14.4140    9.8770 C.ar   67  U67         0.0814
   1128  C6        36.1640   14.7850    8.5940 C.ar   67  U67         0.0870
   1129  OP1       33.2100   18.9660    4.3560 O.2    67  U67        -0.5172
   1130  OP2       34.4490   20.6030    5.8970 O.co2  67  U67        -0.4373
   1131  P         32.2750   13.4740    4.3610 P.3    68  G68         0.2141
   1132  C5'       33.3700   11.4910    3.0460 C.3    68  G68         0.1812
   1133  O5'       32.8140   11.9810    4.2600 O.3    68  G68        -0.3114
   1134  C4'       33.9780   10.1300    3.2680 C.3    68  G68         0.1773
   1135  O4'       35.0020   10.2320    4.2920 O.3    68  G68        -0.3307
   1136  C3'       33.0150    9.0740    3.7900 C.3    68  G68         0.1860
   1137  O3'       32.3630    8.4390    2.6940 O.3    68  G68        -0.3112
   1138  C2'       33.9650    8.1050    4.4770 C.3    68  G68         0.2309
   1139  O2'       34.6130    7.2600    3.5480 O.3    68  G68        -0.2156
   1140  C1'       34.9800    9.0660    5.0980 C.3    68  G68         0.2408
   1141  N1        34.8210    7.5490    9.9190 N.ar   68  G68        -0.1709
   1142  C2        35.1890    6.8550    8.7950 C.ar   68  G68         0.2606
   1143  N2        35.5670    5.5850    8.9780 N.pl3  68  G68        -0.0859
   1144  N3        35.1850    7.3680    7.5770 N.ar   68  G68        -0.1918
   1145  C4        34.7600    8.6500    7.5720 C.ar   68  G68         0.1723
   1146  C5        34.3630    9.4300    8.6350 C.ar   68  G68         0.1748
   1147  C6        34.3870    8.8710    9.9390 C.ar   68  G68         0.3023
   1148  O6        34.0850    9.4020   11.0120 O.2    68  G68        -0.2633
   1149  N7        33.9860   10.6950    8.2050 N.ar   68  G68        -0.2173
   1150  C8        34.1670   10.6620    6.9110 C.ar   68  G68         0.1817
   1151  N9        34.6440    9.4520    6.4650 N.ar   68  G68        -0.2693
   1152  OP1       31.4380   13.7570    3.1680 O.2    68  G68        -0.5172
   1153  OP2       31.6970   13.6500    5.7180 O.co2  68  G68        -0.4373
   1154  P         30.8970    7.8030    2.8810 P.3    69  U69         0.2141
   1155  C5'       31.9140    5.4220    3.3280 C.3    69  U69         0.1812
   1156  O5'       31.1160    6.5080    3.7790 O.3    69  U69        -0.3114
   1157  C4'       32.1690    4.4700    4.4700 C.3    69  U69         0.1773
   1158  O4'       32.9690    5.1500    5.4750 O.3    69  U69        -0.3307
   1159  C3'       30.9330    4.0230    5.2340 C.3    69  U69         0.1860
   1160  O3'       30.3190    2.9230    4.5760 O.3    69  U69        -0.3112
   1161  C2'       31.5340    3.6270    6.5770 C.3    69  U69         0.2309
   1162  O2'       32.2030    2.3800    6.5440 O.3    69  U69        -0.2156
   1163  C1'       32.5600    4.7410    6.7690 C.3    69  U69         0.2420
   1164  N1        32.0370    5.9140    7.4840 N.ar   69  U69        -0.2534
   1165  C2        32.0070    5.8480    8.8560 C.ar   69  U69         0.3546
   1166  O2        32.3260    4.8450    9.4650 O.2    69  U69        -0.2443
   1167  N3        31.5800    6.9910    9.4850 N.ar   69  U69        -0.1530
   1168  C4        31.1660    8.1640    8.8850 C.ar   69  U69         0.2846
   1169  O4        30.8850    9.1390    9.5880 O.2    69  U69        -0.2650
   1170  C5        31.1860    8.1400    7.4530 C.ar   69  U69         0.0814
   1171  C6        31.6130    7.0430    6.8170 C.ar   69  U69         0.0870
   1172  OP1       30.4260    7.3850    1.5340 O.2    69  U69        -0.5172
   1173  OP2       30.0810    8.7400    3.6850 O.co2  69  U69        -0.4373
   1174  P         28.7280    2.7390    4.6500 P.3    70  C70         0.2141
   1175  C5'       29.0260    0.7210    6.2980 C.3    70  C70         0.1812
   1176  O5'       28.4910    2.0160    6.0480 O.3    70  C70        -0.3114
   1177  C4'       29.0550    0.4460    7.7840 C.3    70  C70         0.1773
   1178  O4'       29.8460    1.4640    8.4490 O.3    70  C70        -0.3307
   1179  C3'       27.7170    0.5010    8.5060 C.3    70  C70         0.1860
   1180  O3'       27.0370   -0.7410    8.3740 O.3    70  C70        -0.3112
   1181  C2'       28.1570    0.7250    9.9470 C.3    70  C70         0.2309
   1182  O2'       28.6350   -0.4610   10.5510 O.3    70  C70        -0.2156
   1183  C1'       29.3320    1.6840    9.7520 C.3    70  C70         0.2420
   1184  N1        28.9870    3.1090    9.8820 N.ar   70  C70        -0.2535
   1185  C2        28.9120    3.6600   11.1630 C.ar   70  C70         0.3532
   1186  O2        29.0480    2.9140   12.1430 O.2    70  C70        -0.2443
   1187  N3        28.6880    4.9860   11.3030 N.ar   70  C70        -0.1739
   1188  C4        28.5230    5.7510   10.2210 C.ar   70  C70         0.1759
   1189  N4        28.3460    7.0610   10.4090 N.pl3  70  C70        -0.1070
   1190  C5        28.5410    5.2070    8.9020 C.ar   70  C70         0.0566
   1191  C6        28.7730    3.8910    8.7800 C.ar   70  C70         0.0850
   1192  OP1       28.3510    1.8130    3.5530 O.2    70  C70        -0.5172
   1193  OP2       28.0890    4.0780    4.7310 O.co2  70  C70        -0.4373
   1194  P         25.4590   -0.7630    8.0680 P.3    71  C71         0.2141
   1195  C5'       24.7840   -1.5890   10.4600 C.3    71  C71         0.1812
   1196  O5'       24.7740   -0.5480    9.4890 O.3    71  C71        -0.3114
   1197  C4'       24.5830   -1.0180   11.8400 C.3    71  C71         0.1773
   1198  O4'       25.6140   -0.0320   12.1190 O.3    71  C71        -0.3307
   1199  C3'       23.2980   -0.2390   12.0660 C.3    71  C71         0.1860
   1200  O3'       22.2070   -1.1180   12.2970 O.3    71  C71        -0.3112
   1201  C2'       23.6550    0.5400   13.3220 C.3    71  C71         0.2309
   1202  O2'       23.6470   -0.2840   14.4730 O.3    71  C71        -0.2156
   1203  C1'       25.0930    0.9520   13.0030 C.3    71  C71         0.2420
   1204  N1        25.1680    2.2640   12.3440 N.ar   71  C71        -0.2535
   1205  C2        25.1770    3.4070   13.1390 C.ar   71  C71         0.3532
   1206  O2        25.1160    3.2780   14.3700 O.2    71  C71        -0.2443
   1207  N3        25.2460    4.6220   12.5530 N.ar   71  C71        -0.1739
   1208  C4        25.2980    4.7190   11.2230 C.ar   71  C71         0.1759
   1209  N4        25.3540    5.9430   10.6890 N.pl3  71  C71        -0.1070
   1210  C5        25.2890    3.5660   10.3830 C.ar   71  C71         0.0566
   1211  C6        25.2230    2.3690   10.9820 C.ar   71  C71         0.0850
   1212  OP1       25.1340   -2.1390    7.6050 O.3    71  C71        -0.4373
   1213  OP2       25.1150    0.3980    7.2130 O.co2  71  C71        -0.5172
   1214  P         20.7090   -0.6260   11.9860 P.3    72  G72         0.2141
   1215  C5'       20.2380    0.4400   14.3300 C.3    72  G72         0.1812
   1216  O5'       20.4980    0.6260   12.9450 O.3    72  G72        -0.3114
   1217  C4'       20.1140    1.7750   15.0180 C.3    72  G72         0.1773
   1218  O4'       21.3320    2.5330   14.8040 O.3    72  G72        -0.3307
   1219  C3'       19.0450    2.7130   14.4850 C.3    72  G72         0.1860
   1220  O3'       17.7570    2.3760   14.9910 O.3    72  G72        -0.3112
   1221  C2'       19.5200    4.0430   15.0570 C.3    72  G72         0.2309
   1222  O2'       19.1880    4.1870   16.4240 O.3    72  G72        -0.2156
   1223  C1'       21.0380    3.9160   14.8920 C.3    72  G72         0.2408
   1224  N1        22.3590    8.3460   12.8760 N.ar   72  G72        -0.1709
   1225  C2        22.0870    8.0190   14.1810 C.ar   72  G72         0.2606
   1226  N2        22.1300    9.0240   15.0670 N.pl3  72  G72        -0.0859
   1227  N3        21.7950    6.8000   14.5890 N.ar   72  G72        -0.1918
   1228  C4        21.8060    5.9110   13.5750 C.ar   72  G72         0.1723
   1229  C5        22.0770    6.1250   12.2420 C.ar   72  G72         0.1748
   1230  C6        22.3710    7.4490   11.8110 C.ar   72  G72         0.3023
   1231  O6        22.6040    7.8590   10.6660 O.2    72  G72        -0.2633
   1232  N7        21.9910    4.9370   11.5250 N.ar   72  G72        -0.2173
   1233  C8        21.6550    4.0460   12.4210 C.ar   72  G72         0.1817
   1234  N9        21.4990    4.5810   13.6780 N.ar   72  G72        -0.2693
   1235  OP1       19.7920   -1.7020   12.4240 O.3    72  G72        -0.4373
   1236  OP2       20.6500   -0.1350   10.5870 O.co2  72  G72        -0.5172
   1237  P         16.6320    1.7970   13.9960 P.3    73  A73         0.2141
   1238  C5'       15.1980    3.0850   15.7830 C.3    73  A73         0.1812
   1239  O5'       15.2760    2.4600   14.5100 O.3    73  A73        -0.3114
   1240  C4'       15.5010    4.5730   15.6910 C.3    73  A73         0.1773
   1241  O4'       16.2800    4.9700   14.5320 O.3    73  A73        -0.3307
   1242  C3'       14.3450    5.5450   15.5850 C.3    73  A73         0.1860
   1243  O3'       13.5860    5.5670   16.7850 O.3    73  A73        -0.3112
   1244  C2'       15.1120    6.8470   15.3910 C.3    73  A73         0.2309
   1245  O2'       15.7020    7.2790   16.6000 O.3    73  A73        -0.2156
   1246  C1'       16.2280    6.3940   14.4420 C.3    73  A73         0.2408
   1247  N1        15.9160   10.3350   11.1490 N.ar   73  A73        -0.2040
   1248  C2        16.1130   10.2810   12.4700 C.ar   73  A73         0.2016
   1249  N3        16.1680    9.2180   13.2730 N.ar   73  A73        -0.2048
   1250  C4        15.9850    8.0830   12.5740 C.ar   73  A73         0.1692
   1251  C5        15.7640    7.9790   11.2130 C.ar   73  A73         0.1518
   1252  C6        15.7360    9.1780   10.4750 C.ar   73  A73         0.1919
   1253  N6        15.5450    9.2310    9.1540 N.pl3  73  A73        -0.1054
   1254  N7        15.6120    6.6500   10.8420 N.ar   73  A73        -0.2193
   1255  C8        15.7520    5.9900   11.9660 C.ar   73  A73         0.1816
   1256  N9        15.9920    6.7920   13.0530 N.ar   73  A73        -0.2693
   1257  OP1       16.5690    0.3250   14.1670 O.3    73  A73        -0.4373
   1258  OP2       16.8590    2.3670   12.6460 O.co2  73  A73        -0.5172
   1259  P         12.0230    5.9400   16.7340 P.3    74  C74         0.2141
   1260  C5'       12.5530    8.4450   17.3160 C.3    74  C74         0.1812
   1261  O5'       12.0070    7.4980   16.4050 O.3    74  C74        -0.3114
   1262  C4'       12.5610    9.8190   16.6940 C.3    74  C74         0.1773
   1263  O4'       13.4680    9.8280   15.5590 O.3    74  C74        -0.3307
   1264  C3'       11.2390   10.2760   16.0990 C.3    74  C74         0.1860
   1265  O3'       10.4030   10.8310   17.1040 O.3    74  C74        -0.3112
   1266  C2'       11.6990   11.3450   15.1200 C.3    74  C74         0.2309
   1267  O2'       12.0370   12.5520   15.7750 O.3    74  C74        -0.2156
   1268  C1'       12.9650   10.6990   14.5570 C.3    74  C74         0.2420
   1269  N1        12.7410    9.9150   13.3310 N.ar   74  C74        -0.2535
   1270  C2        12.7130   10.5820   12.1030 C.ar   74  C74         0.3532
   1271  O2        12.8090   11.8180   12.0920 O.2    74  C74        -0.2443
   1272  N3        12.5780    9.8650   10.9630 N.ar   74  C74        -0.1739
   1273  C4        12.4610    8.5370   11.0220 C.ar   74  C74         0.1759
   1274  N4        12.3710    7.8650    9.8710 N.pl3  74  C74        -0.1070
   1275  C5        12.4440    7.8360   12.2620 C.ar   74  C74         0.0566
   1276  C6        12.5850    8.5580   13.3820 C.ar   74  C74         0.0850
   1277  OP1       11.4900    5.7400   18.1060 O.3    74  C74        -0.4373
   1278  OP2       11.3970    5.2310   15.5930 O.co2  74  C74        -0.5172
   1279  P          8.8080   10.6940   16.9740 P.3    75  U75         0.2141
   1280  C5'        8.5810   13.0010   15.7480 C.3    75  U75         0.1812
   1281  O5'        8.4400   11.5880   15.7090 O.3    75  U75        -0.3114
   1282  C4'        8.2510   13.5900   14.3990 C.3    75  U75         0.1773
   1283  O4'        9.2880   13.2190   13.4500 O.3    75  U75        -0.3307
   1284  C3'        6.9770   13.0750   13.7510 C.3    75  U75         0.1860
   1285  O3'        5.8340   13.7610   14.2460 O.3    75  U75        -0.3112
   1286  C2'        7.2360   13.4040   12.2890 C.3    75  U75         0.2309
   1287  O2'        7.0800   14.7800   12.0110 O.3    75  U75        -0.2156
   1288  C1'        8.7110   13.0190   12.1680 C.3    75  U75         0.2420
   1289  N1         8.8930   11.6110   11.7910 N.ar   75  U75        -0.2534
   1290  C2         8.9090   11.3130   10.4450 C.ar   75  U75         0.3546
   1291  O2         8.7850   12.1640    9.5810 O.2    75  U75        -0.2443
   1292  N3         9.0740    9.9830   10.1470 N.ar   75  U75        -0.1530
   1293  C4         9.2190    8.9440   11.0400 C.ar   75  U75         0.2846
   1294  O4         9.3640    7.7980   10.6130 O.2    75  U75        -0.2650
   1295  C5         9.1930    9.3320   12.4180 C.ar   75  U75         0.0814
   1296  C6         9.0360   10.6230   12.7380 C.ar   75  U75         0.0870
   1297  OP1        8.2080   11.3130   18.1860 O.3    75  U75        -0.4373
   1298  OP2        8.4900    9.2860   16.6360 O.co2  75  U75        -0.5172
   1299  P          4.4020   13.0290   14.2390 P.3    76  A76         0.2141
   1300  C5'        3.7270   14.2460   12.0160 C.3    76  A76         0.1812
   1301  O5'        3.9690   13.0260   12.7070 O.3    76  A76        -0.3114
   1302  C4'        3.3720   13.9700   10.5750 C.3    76  A76         0.1773
   1303  O4'        4.5510   13.5050    9.8650 O.3    76  A76        -0.3307
   1304  C3'        2.3560   12.8650   10.3410 C.3    76  A76         0.1860
   1305  O3'        1.0300   13.3470   10.5200 O.3    76  A76        -0.3112
   1306  C2'        2.6380   12.5050    8.8880 C.3    76  A76         0.2309
   1307  O2'        2.1090   13.4490    7.9780 O.3    76  A76        -0.2156
   1308  C1'        4.1650   12.5770    8.8620 C.3    76  A76         0.2408
   1309  N1         6.0660    8.2090    6.9270 N.ar   76  A76        -0.2040
   1310  C2         5.4950    9.2740    6.3500 C.ar   76  A76         0.2016
   1311  N3         5.0200   10.3820    6.9120 N.ar   76  A76        -0.2048
   1312  C4         5.1710   10.3380    8.2470 C.ar   76  A76         0.1692
   1313  C5         5.7350    9.3130    8.9840 C.ar   76  A76         0.1518
   1314  C6         6.2060    8.1990    8.2710 C.ar   76  A76         0.1919
   1315  N6         6.7870    7.1430    8.8460 N.pl3  76  A76        -0.1054
   1316  N7         5.7180    9.6150   10.3390 N.ar   76  A76        -0.2193
   1317  C8         5.1570   10.7980   10.3890 C.ar   76  A76         0.1816
   1318  N9         4.8020   11.2960    9.1600 N.ar   76  A76        -0.2693
   1319  OP1        3.4560   13.8930   14.9920 O.3    76  A76        -0.4373
   1320  OP2        4.5970   11.6200   14.6570 O.co2  76  A76        -0.5172
   1321  P         -0.0820   12.3910   11.1790 P.3    77  U77         0.2141
   1322  C5'       -1.1430   11.8800    8.8390 C.3    77  U77         0.1812
   1323  O5'       -0.4810   11.3990   10.0010 O.3    77  U77        -0.3114
   1324  C4'       -1.0750   10.8530    7.7370 C.3    77  U77         0.1773
   1325  O4'        0.3170   10.5970    7.4030 O.3    77  U77        -0.3307
   1326  C3'       -1.6000    9.4710    8.0840 C.3    77  U77         0.1860
   1327  O3'       -3.0170    9.4060    7.9900 O.3    77  U77        -0.3112
   1328  C2'       -0.9360    8.6260    7.0090 C.3    77  U77         0.2309
   1329  O2'       -1.5550    8.7740    5.7470 O.3    77  U77        -0.2156
   1330  C1'        0.4610    9.2500    6.9770 C.3    77  U77         0.2420
   1331  N1         1.3960    8.5690    7.8820 N.ar   77  U77        -0.2534
   1332  C2         2.0740    7.4730    7.3880 C.ar   77  U77         0.3546
   1333  O2         1.9350    7.0730    6.2440 O.2    77  U77        -0.2443
   1334  N3         2.9190    6.8610    8.2810 N.ar   77  U77        -0.1530
   1335  C4         3.1510    7.2310    9.5900 C.ar   77  U77         0.2846
   1336  O4         3.9400    6.5760   10.2740 O.2    77  U77        -0.2650
   1337  C5         2.4190    8.3810   10.0250 C.ar   77  U77         0.0814
   1338  C6         1.5870    8.9960    9.1770 C.ar   77  U77         0.0870
   1339  OP1       -1.2640   13.2270   11.5100 O.2    77  U77        -0.5172
   1340  OP2        0.5700   11.5900   12.2440 O.co2  77  U77        -0.4373
   1341  P         -3.8130    8.2750    8.8080 P.3    78  G78         0.2141
   1342  C5'       -4.0050    6.7090    6.7080 C.3    78  G78         0.1812
   1343  O5'       -3.4970    6.9260    8.0200 O.3    78  G78        -0.3114
   1344  C4'       -3.3700    5.4830    6.0950 C.3    78  G78         0.1773
   1345  O4'       -1.9240    5.6240    6.1180 O.3    78  G78        -0.3307
   1346  C3'       -3.6060    4.1740    6.8300 C.3    78  G78         0.1860
   1347  O3'       -4.8660    3.6120    6.4810 O.3    78  G78        -0.3112
   1348  C2'       -2.4600    3.3190    6.3060 C.3    78  G78         0.2309
   1349  O2'       -2.7060    2.8070    5.0120 O.3    78  G78        -0.2156
   1350  C1'       -1.3250    4.3430    6.2440 C.3    78  G78         0.2408
   1351  N1         2.3260    1.9210    8.8130 N.ar   78  G78        -0.1709
   1352  C2         1.7260    1.5820    7.6250 C.ar   78  G78         0.2606
   1353  N2         2.1590    0.4530    7.0450 N.pl3  78  G78        -0.0859
   1354  N3         0.7730    2.2970    7.0490 N.ar   78  G78        -0.1918
   1355  C4         0.4600    3.3960    7.7700 C.ar   78  G78         0.1723
   1356  C5         0.9960    3.8210    8.9670 C.ar   78  G78         0.1748
   1357  C6         2.0210    3.0460    9.5720 C.ar   78  G78         0.3023
   1358  O6         2.6260    3.2580   10.6310 O.2    78  G78        -0.2633
   1359  N7         0.3970    5.0020    9.3830 N.ar   78  G78        -0.2173
   1360  C8        -0.4740    5.2700    8.4480 C.ar   78  G78         0.1817
   1361  N9        -0.4860    4.3390    7.4380 N.ar   78  G78        -0.2693
   1362  OP1       -5.2670    8.5640    8.6960 O.2    78  G78        -0.5172
   1363  OP2       -3.1860    8.1710   10.1510 O.co2  78  G78        -0.4373
   1364  P         -5.5560    2.5390    7.4600 P.3    79  U79         0.2141
   1365  C5'       -4.6910    0.4640    6.1040 C.3    79  U79         0.1812
   1366  O5'       -4.6580    1.2330    7.3020 O.3    79  U79        -0.3114
   1367  C4'       -3.8290   -0.7680    6.2500 C.3    79  U79         0.1773
   1368  O4'       -2.4500   -0.3640    6.4490 O.3    79  U79        -0.3307
   1369  C3'       -4.1340   -1.6410    7.4570 C.3    79  U79         0.1860
   1370  O3'       -5.1890   -2.5490    7.1670 O.3    79  U79        -0.3112
   1371  C2'       -2.8170   -2.3810    7.6540 C.3    79  U79         0.2309
   1372  O2'       -2.6740   -3.4880    6.7880 O.3    79  U79        -0.2156
   1373  C1'       -1.7980   -1.2980    7.2930 C.3    79  U79         0.2420
   1374  N1        -1.2780   -0.5800    8.4640 N.ar   79  U79        -0.2534
   1375  C2        -0.2140   -1.1450    9.1410 C.ar   79  U79         0.3546
   1376  O2         0.2950   -2.2010    8.8070 O.2    79  U79        -0.2443
   1377  N3         0.2330   -0.4270   10.2220 N.ar   79  U79        -0.1530
   1378  C4        -0.2670    0.7730   10.6860 C.ar   79  U79         0.2846
   1379  O4         0.2600    1.3110   11.6610 O.2    79  U79        -0.2650
   1380  C5        -1.3700    1.2900    9.9340 C.ar   79  U79         0.0814
   1381  C6        -1.8260    0.6120    8.8760 C.ar   79  U79         0.0870
   1382  OP1       -6.9130    2.2420    6.9370 O.2    79  U79        -0.5172
   1383  OP2       -5.3970    3.0350    8.8500 O.co2  79  U79        -0.4373
   1384  P         -6.0550   -3.1710    8.3700 P.3    80  C80         0.2141
   1385  C5'       -4.5710   -5.3340    8.4960 C.3    80  C80         0.1812
   1386  O5'       -5.0360   -4.1390    9.1190 O.3    80  C80        -0.3114
   1387  C4'       -3.5370   -6.0110    9.3650 C.3    80  C80         0.1773
   1388  O4'       -2.3760   -5.1500    9.4850 O.3    80  C80        -0.3307
   1389  C3'       -3.9560   -6.2720   10.8030 C.3    80  C80         0.1860
   1390  O3'       -4.6730   -7.4980   10.9020 O.3    80  C80        -0.3112
   1391  C2'       -2.6110   -6.3700   11.5150 C.3    80  C80         0.2309
   1392  O2'       -2.0140   -7.6450   11.3900 O.3    80  C80        -0.2156
   1393  C1'       -1.7850   -5.3240   10.7620 C.3    80  C80         0.2420
   1394  N1        -1.7510   -4.0180   11.4390 N.ar   80  C80        -0.2535
   1395  C2        -0.7370   -3.7690   12.3680 C.ar   80  C80         0.3532
   1396  O2         0.1030   -4.6540   12.5900 O.2    80  C80        -0.2443
   1397  N3        -0.6980   -2.5740   12.9990 N.ar   80  C80        -0.1739
   1398  C4        -1.6210   -1.6470   12.7310 C.ar   80  C80         0.1759
   1399  N4        -1.5430   -0.4820   13.3780 N.pl3  80  C80        -0.1070
   1400  C5        -2.6640   -1.8750   11.7870 C.ar   80  C80         0.0566
   1401  C6        -2.6910   -3.0630   11.1700 C.ar   80  C80         0.0850
   1402  OP1       -7.1390   -3.9980    7.7810 O.2    80  C80        -0.5172
   1403  OP2       -6.4000   -2.0600    9.2930 O.co2  80  C80        -0.4373
   1404  P         -5.6520   -7.7480   12.1520 P.3    81  C81         0.2141
   1405  C5'       -3.8330   -9.0160   13.5620 C.3    81  C81         0.1813
   1406  O5'       -4.6650   -7.8710   13.3980 O.3    81  C81        -0.3114
   1407  C4'       -3.0430   -8.9060   14.8460 C.3    81  C81         0.1801
   1408  O4'       -2.0770   -7.8290   14.7310 O.3    81  C81        -0.3306
   1409  C3'       -3.8480   -8.5290   16.0770 C.3    81  C81         0.2161
   1410  O3'       -4.6190   -9.6100   16.6150 O.3    81  C81        -0.2175
   1411  C2'       -2.7670   -7.9850   17.0010 C.3    81  C81         0.2338
   1412  O2'       -2.0160   -9.0070   17.6250 O.3    81  C81        -0.2155
   1413  C1'       -1.8790   -7.2330   16.0050 C.3    81  C81         0.2421
   1414  N1        -2.2020   -5.8020   15.8980 N.ar   81  C81        -0.2535
   1415  C2        -1.4850   -4.8900   16.6780 C.ar   81  C81         0.3532
   1416  O2        -0.5980   -5.3140   17.4340 O.2    81  C81        -0.2443
   1417  N3        -1.7750   -3.5710   16.5880 N.ar   81  C81        -0.1739
   1418  C4        -2.7380   -3.1560   15.7620 C.ar   81  C81         0.1759
   1419  N4        -2.9920   -1.8460   15.7060 N.pl3  81  C81        -0.1070
   1420  C5        -3.4830   -4.0640   14.9560 C.ar   81  C81         0.0566
   1421  C6        -3.1850   -5.3650   15.0550 C.ar   81  C81         0.0850
   1422  OP1       -6.3270   -9.0570   11.9590 O.2    81  C81        -0.5172
   1423  OP2       -6.4680   -6.5210   12.3330 O.co2  81  C81        -0.4373
@<TRIPOS>BOND
     1   687   666    2
     2   721   720    2
     3   707   689    2
     4   722   720   ar
     5   722   723   ar
     6   724   723    2
     7   720   719   ar
     8   723   725   ar
     9   262   261    1
    10   295   277    2
    11   667   669    1
    12   667   668    1
    13   257   255    1
    14   257   258    1
    15   257   259    1
    16   260   259    1
    17   260   277    1
    18   255   256    1
    19   242   241    1
    20   689   708    1
    21   689   672    1
    22   689   691    1
    23   650   666    1
    24   650   649    1
    25   666   668    1
    26   666   688    1
    27   719   718    1
    28   719   726   ar
    29   672   671    1
    30   664   644    2
    31   725   726   ar
    32   669   671    1
    33   669   670    1
    34   713   718    1
    35   713   712    1
    36   258   263    1
    37   645   647    1
    38   645   646    1
    39   718   716    1
    40   259   261    1
    41   277   279    1
    42   277   296    1
    43   275   254    2
    44   261   263    1
    45   647   649    1
    46   647   648    1
    47   728   709    2
    48   652   651    1
    49   263   274    1
    50   240   254    1
    51   240   239    1
    52   148   128    2
    53   671   673    1
    54   649   651    1
    55   629   628    1
    56   691   690    1
    57   279   278    1
    58   256   254    1
    59   241   239    1
    60   241   243    1
    61   711   709    1
    62   711   710    1
    63   690   692    1
    64   168   150    2
    65   712   710    1
    66   712   714    1
    67   670   675    1
    68   254   276    1
    69   646   644    1
    70   644   627    1
    71   644   665    1
    72   223   222   ar
    73   223   224   ar
    74   222   227   ar
    75   627   626    1
    76   237   239    1
    77   237   238    1
    78   237   235    1
    79   674   673    1
    80   651   653    1
    81   648   653    1
    82   709   727    1
    83   709   695    1
    84   716   717    1
    85   716   714    1
    86   715   714    1
    87   715   729    1
    88   243   238    1
    89   243   244    1
    90   748   729    2
    91   169   150    1
    92   673   675    1
    93   246   245    2
    94   628   626    1
    95   628   630    1
    96   278   280    1
    97   633   632    1
    98   694   692    1
    99   694   695    1
   100   694   696    1
   101   692   693    1
   102   274   273   ar
   103   274   268   ar
   104   150   134    1
   105   150   152    1
   106   747   729    1
   107   224   225   ar
   108   128   114    1
   109   128   149    1
   110   128   130    1
   111   280   281    1
   112   280   282    1
   113   653   663    1
   114   675   686    1
   115   729   731    1
   116   235   236    1
   117   626   624    1
   118   114   113    1
   119   281   286    1
   120   187   188   ar
   121   187   184   ar
   122   227   228    1
   123   227   226   ar
   124   188   189   ar
   125   267   268   ar
   126   267   265   ar
   127   129   130    1
   128   129   131    1
   129   285   284    1
   130   273   272   ar
   131   634   632   ar
   132   634   635   ar
   133   134   133    1
   134   696   697    1
   135   696   698    1
   136   268   269   ar
   137   244   245   ar
   138   244   251   ar
   139   245   247   ar
   140   283   282    1
   141   283   297    1
   142   632   631   ar
   143   151   152    1
   144   151   153    1
   145   630   625    1
   146   630   641    1
   147   624   625    1
   148   624   622    1
   149   685   686   ar
   150   685   684   ar
   151   126   108    2
   152   686   680   ar
   153   225   226   ar
   154   225   231   ar
   155   693   698    1
   156   282   284    1
   157   318   297    2
   158   266   265    1
   159   286   284    1
   160   286   287    1
   161   131   133    1
   162   131   132    1
   163   663   662   ar
   164   663   657   ar
   165   226   229   ar
   166   109   111    1
   167   109   110    1
   168   265   264   ar
   169   116   115    1
   170   236   234    1
   171   220   219    1
   172   186   185    1
   173   111   113    1
   174   111   112    1
   175   731   730    1
   176   113   115    1
   177   189   179    1
   178   189   183   ar
   179   184   185   ar
   180   184   183   ar
   181   133   135    1
   182   635   641   ar
   183   635   636   ar
   184   698   699    1
   185   662   661   ar
   186   219   221    1
   187   219   217    1
   188   272   269   ar
   189   297   299    1
   190   297   319    1
   191   251   250   ar
   192   179   174    1
   193   179   177    1
   194   641   640   ar
   195   298   299    1
   196   298   300    1
   197   269   270   ar
   198   247   248   ar
   199   706   699   ar
   200   706   705   ar
   201   631   637   ar
   202   684   681   ar
   203   185   180   ar
   204   153   154    1
   205   153   155    1
   206   115   117    1
   207   622   623    1
   208   110   108    1
   209   231   221    1
   210   231   230   ar
   211   252   234    2
   212   174   173    1
   213   183   182   ar
   214   680   679   ar
   215   680   681   ar
   216   108    92    1
   217   108   127    1
   218   730   732    1
   219   657   656   ar
   220   657   658   ar
   221   221   216    1
   222   287   294   ar
   223   287   288   ar
   224   656   655   ar
   225   699   700   ar
   226   294   293   ar
   227   705   703   ar
   228   132   137    1
   229   623   621    1
   230   264   270   ar
   231   234   218    1
   232   234   253    1
   233   229   230   ar
   234   178   177    1
   235   190   170    2
   236   154   159    1
   237   218   217    1
   238   136   135    1
   239  1172  1154    2
   240   300   301    1
   241   300   302    1
   242   112   117    1
   243   167   166   ar
   244   167   160   ar
   245   166   164   ar
   246   679   677   ar
   247   217   215    1
   248    92    91    1
   249   135   137    1
   250   636   637   ar
   251   636   639   ar
   252   270   271    2
   253   177   175    1
   254   248   250   ar
   255   248   249    1
   256   681   682   ar
   257  1109  1089    2
   258   609   608    1
   259   661   658   ar
   260   637   638    2
   261   155   157    1
   262   155   156    1
   263   613   612    2
   264   640   639   ar
   265   301   306    1
   266   117   118    1
   267    94    93    1
   268   289   288    2
   269   745   746   ar
   270   745   743   ar
   271   180   181   ar
   272   658   659   ar
   273   172   170    1
   274   172   171    1
   275   288   290   ar
   276   173   175    1
   277   173   171    1
   278   137   147    1
   279   746   739   ar
   280   182   181   ar
   281   293   291   ar
   282   655   654   ar
   283   157   159    1
   284   157   158    1
   285   732   734    1
   286   732   733    1
   287   216   215    1
   288   338   320    2
   289   170   156    1
   290   170   191    1
   291   159   160    1
   292   700   701    2
   293   700   702   ar
   294   160   161   ar
   295  1137  1154    1
   296  1137  1136    1
   297   303   302    1
   298   303   320    1
   299   608   610    1
   300   608   606    1
   301   164   165    2
   302   164   163   ar
   303   703   702   ar
   304   703   704    2
   305   215   213    1
   306   302   304    1
   307   621   642    2
   308   621   607    1
   309   621   643    1
   310  1154  1173    1
   311  1154  1156    1
   312   734   736    1
   313   734   735    1
   314   733   738    1
   315   677   678    1
   316   677   676   ar
   317   175   176    1
   318    91    93    1
   319    91    89    1
   320  1132  1134    1
   321  1132  1133    1
   322   612   614   ar
   323   612   611   ar
   324   736   738    1
   325   736   737    1
   326  1091  1089    1
   327  1091  1090    1
   328    93    95    1
   329  1152  1131    2
   330   682   676   ar
   331   682   683    2
   332  1089  1073    1
   333  1089  1110    1
   334   744   743    2
   335   339   320    1
   336   743   742   ar
   337  1134  1136    1
   338  1134  1135    1
   339   607   606    1
   340   320   322    1
   341  1097  1096    1
   342   118   125   ar
   343   118   119   ar
   344  1155  1156    1
   345  1155  1157    1
   346   306   304    1
   347   306   317    1
   348   614   615   ar
   349   146   147   ar
   350   146   145   ar
   351   290   291   ar
   352   147   141   ar
   353   767   749    2
   354   305   304    1
   355   739   738    1
   356   739   740   ar
   357   659   654   ar
   358   659   660    1
   359    89    87    1
   360    89    90    1
   361  1139  1138    1
   362  1192  1174    2
   363   291   292    1
   364   610   611    1
   365   610   605    1
   366   316   317   ar
   367   316   315   ar
   368   125   124   ar
   369   163   161   ar
   370   606   604    1
   371  1136  1138    1
   372   161   162    2
   373   120   119    2
   374  1073  1072    1
   375   176   192    1
   376  1119  1118    1
   377   611   618   ar
   378  1092  1090    1
   379  1092  1093    1
   380  1092  1094    1
   381   768   749    1
   382    87    88    1
   383   735   749    1
   384   317   311   ar
   385   119   121   ar
   386  1095  1094    1
   387  1095  1111    1
   388   213   214    1
   389  1117  1131    1
   390  1117  1116    1
   391  1133  1131    1
   392   749   751    1
   393  1135  1140    1
   394  1129  1111    2
   395  1131  1153    1
   396   590   589    1
   397   742   740   ar
   398    95    90    1
   399    95   105    1
   400  1070  1072    1
   401  1070  1068    1
   402  1070  1071    1
   403  1157  1159    1
   404  1157  1158    1
   405  1138  1140    1
   406  1093  1098    1
   407  1160  1174    1
   408  1160  1159    1
   409  1096  1094    1
   410  1096  1098    1
   411   315   312   ar
   412   740   741    2
   413   615   616    1
   414   615   617   ar
   415   145   142   ar
   416   106    86    2
   417  1174  1193    1
   418  1174  1176    1
   419   604   605    1
   420   604   602    1
   421   141   140   ar
   422   141   142   ar
   423  1072  1074    1
   424  1068  1069    1
   425   322   321    1
   426   124   122   ar
   427  1098  1108    1
   428    88    86    1
   429  1349  1348    1
   430  1023  1002    2
   431  1140  1151    1
   432  1111  1130    1
   433  1111  1113    1
   434   214   212    1
   435  1071  1076    1
   436   618   617   ar
   437   321   323    1
   438  1159  1161    1
   439  1118  1116    1
   440  1118  1120    1
   441   140   139   ar
   442   121   122   ar
   443  1116  1114    1
   444   311   312   ar
   445   311   310   ar
   446  1114  1112    1
   447  1114  1115    1
   448   805   804    1
   449   192   211    2
   450   192   194    1
   451   192   210    1
   452    98    99   ar
   453    98    97   ar
   454  1158  1163    1
   455   142   143   ar
   456  1053  1052    1
   457   193   194    1
   458   193   195    1
   459   589   588   ar
   460   589   591   ar
   461   105    99   ar
   462   105   104   ar
   463    86   107    1
   464    86    72    1
   465   312   313   ar
   466  1329  1328    1
   467   588   594   ar
   468   122   123    2
   469   751   750    1
   470  1000   982    2
   471  1076  1074    1
   472  1076  1086    1
   473   983   985    1
   474   983   984    1
   475  1079  1078   ar
   476  1079  1080   ar
   477    99   100   ar
   478  1176  1175    1
   479   970   969    1
   480  1087  1067    2
   481   602   603    1
   482  1344  1345    1
   483  1344  1342    1
   484  1344  1346    1
   485  1365  1367    1
   486  1365  1366    1
   487  1345  1350    1
   488  1112  1113    1
   489  1074  1075    1
   490  1115  1120    1
   491    97    96   ar
   492   784   783    2
   493  1120  1121    1
   494   310   308   ar
   495  1069  1067    1
   496  1350  1348    1
   497  1350  1361    1
   498  1333  1332    2
   499  1367  1368    1
   500  1367  1369    1
   501   823   822    2
   502   799   804   ar
   503   799   800   ar
   504   988  1002    1
   505   988   987    1
   506   750   752    1
   507  1175  1177    1
   508  1002  1024    1
   509  1002  1004    1
   510  1348  1346    1
   511   985   987    1
   512   985   986    1
   513  1310  1311   ar
   514  1310  1309   ar
   515  1078  1077   ar
   516   968   982    1
   517   968   967    1
   518  1108  1102   ar
   519  1108  1107   ar
   520  1368  1373    1
   521   824   822   ar
   522   824   825   ar
   523  1151  1150   ar
   524  1151  1145   ar
   525   104   103   ar
   526  1347  1346    1
   527  1347  1364    1
   528   804   803   ar
   529   591   592   ar
   530  1162  1161    1
   531  1161  1163    1
   532    72    71    1
   533   336   337   ar
   534   336   334   ar
   535   139   138   ar
   536  1101  1102   ar
   537  1101  1100   ar
   538   323   324    1
   539   323   325    1
   540   826   825    1
   541   603   601    1
   542   212   233    2
   543   212   232    1
   544   212   198    1
   545  1342  1343    1
   546    74    73    1
   547  1051  1067    1
   548  1051  1050    1
   549   337   330   ar
   550  1163  1164    1
   551   965   963    1
   552   965   967    1
   553   965   966    1
   554  1372  1371    1
   555  1171  1170   ar
   556  1171  1164   ar
   557   324   329    1
   558   195   196    1
   559   195   197    1
   560   143   138   ar
   561   143   144    1
   562  1067  1088    1
   563   982   984    1
   564   982  1001    1
   565  1150  1149   ar
   566  1311  1312   ar
   567  1052  1054    1
   568  1052  1050    1
   569  1309  1314   ar
   570  1382  1364    2
   571   594   595    2
   572   594   593   ar
   573   822   821   ar
   574   313   314    2
   575   313   307   ar
   576  1330  1328    1
   577  1330  1325    1
   578  1330  1331    1
   579  1328  1326    1
   580  1123  1122    2
   581  1353  1352    1
   582  1354  1352   ar
   583  1354  1355   ar
   584  1080  1086   ar
   585  1080  1081   ar
   586  1086  1085   ar
   587   990   989    1
   588   963   964    1
   589  1102  1103   ar
   590   765   766   ar
   591   765   763   ar
   592   987   989    1
   593   100   103   ar
   594   100   101   ar
   595  1370  1369    1
   596  1370  1384    1
   597   986   991    1
   598  1213  1194    2
   599   825   827   ar
   600   967   969    1
   601    96   101   ar
   602  1107  1106   ar
   603   783   785   ar
   604   783   782   ar
   605  1373  1371    1
   606  1373  1374    1
   607   362   340    2
   608  1366  1364    1
   609   800   801   ar
   610   969   971    1
   611   198   197    1
   612  1332  1331   ar
   613  1332  1334   ar
   614   308   307   ar
   615   308   309    1
   616  1325  1324    1
   617  1361  1355   ar
   618  1361  1360   ar
   619   766   759   ar
   620  1170  1168   ar
   621  1369  1371    1
   622  1364  1383    1
   623    73    71    1
   624    73    75    1
   625  1004  1003    1
   626   966   971    1
   627  1164  1165   ar
   628  1054  1049    1
   629  1054  1064    1
   630  1003  1005    1
   631   785   786   ar
   632  1145  1144   ar
   633  1145  1146   ar
   634   788   769    2
   635  1144  1142   ar
   636  1077  1082   ar
   637  1121  1122   ar
   638  1121  1128   ar
   639  1050  1048    1
   640  1212  1194    1
   641   325   326    1
   642   325   327    1
   643  1352  1351   ar
   644  1100  1099   ar
   645   592   593   ar
   646   592   598   ar
   647   948   947    1
   648   196   201    1
   649   334   335    2
   650   334   333   ar
   651    71    69    1
   652  1324  1326    1
   653  1324  1322    1
   654   752   753    1
   655   752   754    1
   656   197   199    1
   657   586   585    1
   658  1049  1048    1
   659  1355  1356   ar
   660  1402  1384    2
   661  1177  1178    1
   662  1177  1179    1
   663   101   102    1
   664   803   806   ar
   665   803   802   ar
   666  1048  1046    1
   667  1122  1124   ar
   668  1331  1338   ar
   669   326   340    1
   670   753   758    1
   671   989   991    1
   672   971   972    1
   673   330   329    1
   674   330   331   ar
   675   764   763    1
   676   593   596   ar
   677  1307  1306    1
   678  1327  1326    1
   679  1327  1341    1
   680  1343  1341    1
   681   361   340    1
   682  1194  1180    1
   683  1194  1196    1
   684   329   327    1
   685   340   342    1
   686   601   619    2
   687   601   620    1
   688   601   584    1
   689   980   962    2
   690   991   992    1
   691   763   762   ar
   692  1149  1146   ar
   693   585   587    1
   694   585   583    1
   695    78    77    2
   696  1312  1313   ar
   697  1312  1318   ar
   698  1057  1056   ar
   699  1057  1058   ar
   700  1314  1315    1
   701  1314  1313   ar
   702  1334  1335   ar
   703   821   820    1
   704   821   828   ar
   705  1043  1025    2
   706  1384  1386    1
   707  1384  1403    1
   708  1180  1179    1
   709  1085  1084   ar
   710  1081  1082   ar
   711  1081  1084   ar
   712   782   780   ar
   713   806   807   ar
   714   819   818    1
   715  1103  1106   ar
   716  1103  1104   ar
   717  1360  1359   ar
   718  1178  1183    1
   719   964   962    1
   720  1374  1381   ar
   721  1374  1375   ar
   722  1385  1386    1
   723  1385  1387    1
   724  1179  1181    1
   725  1128  1127   ar
   726   827   828   ar
   727   754   755    1
   728   754   756    1
   729   801   802   ar
   730   818   820    1
   731   818   816    1
   732  1146  1147   ar
   733  1082  1083    1
   734  1362  1341    2
   735   759   758    1
   736   759   760   ar
   737  1064  1058   ar
   738  1064  1063   ar
   739  1191  1190   ar
   740  1191  1184   ar
   741  1142  1143    1
   742  1142  1141   ar
   743   598   587    1
   744   598   597   ar
   745   802   808   ar
   746  1376  1375    2
   747  1341  1363    1
   748   820   815    1
   749  1351  1357   ar
   750   327   328    1
   751   786   779   ar
   752  1322  1323    1
   753  1165  1166    2
   754  1165  1167   ar
   755   333   331   ar
   756  1308  1306    1
   757  1308  1318    1
   758  1308  1303    1
   759    69    70    1
   760    69    67    1
   761  1381  1380   ar
   762  1056  1055   ar
   763  1168  1167   ar
   764  1168  1169    2
   765  1306  1304    1
   766    75    76    1
   767    75    70    1
   768  1190  1188   ar
   769  1005  1007    1
   770  1005  1006    1
   771   951   952   ar
   772   951   950   ar
   773   587   582    1
   774   952   953   ar
   775  1099  1104   ar
   776   769   755    1
   777   769   787    1
   778   769   771    1
   779  1356  1359   ar
   780  1356  1357   ar
   781  1313  1316   ar
   782   947   949    1
   783   947   945    1
   784  1058  1059   ar
   785   331   332    2
   786   584   583    1
   787   201   199    1
   788   201   202    1
   789   758   756    1
   790   962   946    1
   791   962   981    1
   792  1007  1009    1
   793  1007  1008    1
   794    77    76   ar
   795    77    79   ar
   796   199   200    1
   797   946   945    1
   798  1375  1377   ar
   799  1253  1252    1
   800  1318  1317   ar
   801  1338  1337   ar
   802  1046  1047    1
   803  1124  1125   ar
   804   209   202   ar
   805   209   208   ar
   806   596   597   ar
   807  1047  1045    1
   808  1026  1028    1
   809  1026  1027    1
   810   583   581    1
   811  1387  1388    1
   812  1387  1389    1
   813   974   973    2
   814  1104  1105    1
   815   972   973   ar
   816   972   979   ar
   817   762   760   ar
   818  1388  1393    1
   819  1196  1195    1
   820   992   999   ar
   821   992   993   ar
   822    76    83   ar
   823  1357  1358    2
   824  1291  1290    2
   825  1335  1337   ar
   826  1335  1336    2
   827   999   998   ar
   828   358   359   ar
   829   358   355   ar
   830   342   341    1
   831   807   808   ar
   832    79    80   ar
   833  1009  1010    1
   834  1009  1011    1
   835   780   779   ar
   836   780   781    2
   837   949   944    1
   838   949   959    1
   839  1183  1184    1
   840  1183  1181    1
   841   760   761    2
   842    67    68    1
   843  1025  1008    1
   844  1025  1027    1
   845  1025  1044    1
   846   756   757    1
   847   202   203   ar
   848  1063  1062   ar
   849  1303  1302    1
   850  1274  1273    1
   851  1127  1125   ar
   852  1184  1185   ar
   853   945   943    1
   854  1006  1011    1
   855   208   206   ar
   856   779   778    1
   857   771   770    1
   858   573   572    1
   859  1141  1147   ar
   860  1380  1378   ar
   861  1147  1148    2
   862  1181  1182    1
   863   950   955   ar
   864   357   356    2
   865   380   379    2
   866   816   817    1
   867   816   814    1
   868  1323  1321    1
   869   808   798    1
   870   552   551    1
   871   973   975   ar
   872   846   845    1
   873  1028  1029    1
   874  1028  1030    1
   875   359   360   ar
   876  1055  1060   ar
   877   979   978   ar
   878  1292  1290   ar
   879  1292  1293   ar
   880  1021  1020   ar
   881  1021  1022   ar
   882   815   814    1
   883   953   959   ar
   884   953   954   ar
   885  1188  1189    1
   886  1188  1187   ar
   887  1377  1378   ar
   888   850   831    2
   889   817   831    1
   890  1125  1126    2
   891   582   581    1
   892   531   530    1
   893  1059  1062   ar
   894  1059  1060   ar
   895  1316  1317   ar
   896  1304  1305    1
   897  1304  1302    1
   898   943   944    1
   899   943   941    1
   900  1210  1211   ar
   901  1210  1208   ar
   902   571   572   ar
   903   571   569   ar
   904  1290  1289   ar
   905  1195  1197    1
   906  1065  1045    2
   907   581   579    1
   908  1252  1247   ar
   909  1252  1251   ar
   910   994   993    2
   911    83    82   ar
   912   444   443    1
   913  1305  1321    1
   914  1302  1300    1
   915  1236  1214    2
   916  1294  1293    2
   917  1011  1022    1
   918   993   995   ar
   919   959   958   ar
   920   847   845   ar
   921   847   848   ar
   922    80    82   ar
   923    80    81    1
   924  1231  1230    2
   925    68    66    1
   926  1378  1379    2
   927  1209  1208    1
   928   849   831    1
   929  1045  1031    1
   930  1045  1066    1
   931   355   356   ar
   932   355   354   ar
   933   341   343    1
   934   505   504    1
   935  1020  1017   ar
   936  1393  1394    1
   937  1393  1391    1
   938   402   401    1
   939   998   996   ar
   940  1389  1390    1
   941  1389  1391    1
   942   572   574   ar
   943   356   350   ar
   944  1029  1034    1
   945   831   833    1
   946  1254  1251   ar
   947  1254  1255   ar
   948  1060  1061    1
   949  1390  1404    1
   950   814   812    1
   951  1022  1016   ar
   952  1272  1273   ar
   953  1272  1270   ar
   954   845   844   ar
   955  1211  1204   ar
   956   570   569    2
   957  1273  1275   ar
   958  1293  1295   ar
   959   546   551   ar
   960   546   547   ar
   961   810   789    2
   962  1247  1248   ar
   963   551   550   ar
   964  1030  1031    1
   965  1030  1032    1
   966  1185  1187   ar
   967  1185  1186    2
   968  1401  1394   ar
   969  1401  1400   ar
   970  1321  1339    2
   971  1321  1340    1
   972   379   373   ar
   973   379   378   ar
   974   955   954   ar
   975   955   956    1
   976   203   204    2
   977   203   205   ar
   978  1251  1250   ar
   979  1208  1207   ar
   980   773   778    1
   981   773   772    1
   982   778   776    1
   983   569   568   ar
   984   770   772    1
   985   798   796    1
   986   798   793    1
   987   206   205   ar
   988   206   207    2
   989   932   931    2
   990   954   957   ar
   991   423   422    2
   992   438   443   ar
   993   438   439   ar
   994  1392  1391    1
   995   975   976   ar
   996   360   354   ar
   997   360   349    1
   998  1394  1395   ar
   999   978   976   ar
  1000   443   442   ar
  1001  1232  1229   ar
  1002  1232  1233   ar
  1003    55    54   ar
  1004    55    56   ar
  1005   344   343    1
  1006   344   349    1
  1007   848   841   ar
  1008   530   532   ar
  1009   530   529   ar
  1010    84    66    2
  1011   941   942    1
  1012    54    59   ar
  1013   381   378   ar
  1014   381   382   ar
  1015   796   794    1
  1016   796   797    1
  1017   774   772    1
  1018   774   776    1
  1019   774   775    1
  1020  1400  1398   ar
  1021  1289  1288    1
  1022  1289  1296   ar
  1023  1230  1229   ar
  1024  1230  1224   ar
  1025   995   996   ar
  1026   354   353   ar
  1027   532   533   ar
  1028  1197  1199    1
  1029  1197  1198    1
  1030   579   580    1
  1031   373   374   ar
  1032    66    85    1
  1033    66    50    1
  1034   996   997    1
  1035   343   345    1
  1036   504   506   ar
  1037   504   503   ar
  1038  1422  1404    2
  1039  1255  1256   ar
  1040   501   500    1
  1041  1017  1016   ar
  1042  1017  1018   ar
  1043   421   422   ar
  1044   421   419   ar
  1045  1214  1200    1
  1046  1214  1235    1
  1047  1214  1216    1
  1048   958   957   ar
  1049   909   908    1
  1050  1287  1286    1
  1051  1300  1301    1
  1052   776   777    1
  1053   378   377   ar
  1054   401   396   ar
  1055   401   400   ar
  1056  1199  1200    1
  1057  1199  1201    1
  1058  1271  1270    2
  1059   976   977    1
  1060   813   812    1
  1061   813   811    1
  1062  1270  1269   ar
  1063   350   351   ar
  1064  1016  1015   ar
  1065  1198  1203    1
  1066   574   575   ar
  1067    56    57   ar
  1068   580   578    1
  1069   844   842   ar
  1070  1404  1423    1
  1071  1404  1406    1
  1072  1288  1286    1
  1073  1288  1283    1
  1074   547   548   ar
  1075  1034  1032    1
  1076  1034  1035    1
  1077   385   363    2
  1078   907   908   ar
  1079   907   913   ar
  1080   914   913    2
  1081  1229  1228   ar
  1082  1275  1276   ar
  1083   793   792    1
  1084   422   424   ar
  1085  1286  1284    1
  1086   349   347    1
  1087   396   397   ar
  1088   506   507   ar
  1089  1204  1203    1
  1090  1204  1205   ar
  1091  1395  1396    2
  1092  1395  1397   ar
  1093   868   867    2
  1094    52    51    1
  1095   833   832    1
  1096   931   933   ar
  1097   931   930   ar
  1098   439   440   ar
  1099   550   553   ar
  1100   550   549   ar
  1101   933   934   ar
  1102  1295  1296   ar
  1103   791   789    1
  1104   791   790    1
  1105  1032  1033    1
  1106  1233  1234   ar
  1107   789   775    1
  1108   789   809    1
  1109  1248  1249   ar
  1110   928   927    1
  1111  1042  1035   ar
  1112  1042  1041   ar
  1113   420   419    2
  1114   345   347    1
  1115   345   346    1
  1116   794   792    1
  1117   794   795    1
  1118   529   527   ar
  1119  1207  1205   ar
  1120  1250  1256   ar
  1121  1250  1249   ar
  1122   568   575   ar
  1123   568   567    1
  1124  1258  1237    2
  1125    59    60    1
  1126    59    58   ar
  1127   503   509   ar
  1128  1301  1299    1
  1129   442   445   ar
  1130   442   441   ar
  1131  1398  1397   ar
  1132  1398  1399    1
  1133   942   940    1
  1134   482   481    1
  1135   841   842   ar
  1136   841   840    1
  1137   908   910   ar
  1138   553   554   ar
  1139   830   811    2
  1140   832   834    1
  1141    51    49    1
  1142    51    53    1
  1143   419   418   ar
  1144   913   912   ar
  1145  1224  1225   ar
  1146   382   383   ar
  1147  1216  1215    1
  1148  1035  1036   ar
  1149   891   890    2
  1150  1203  1201    1
  1151  1018  1019    2
  1152  1018  1012   ar
  1153  1256  1246    1
  1154    57    58   ar
  1155    57    63   ar
  1156   353   351   ar
  1157   842   843    2
  1158   927   929    1
  1159   927   925    1
  1160   535   516    2
  1161   533   526   ar
  1162    50    49    1
  1163   500   502    1
  1164   500   498    1
  1165  1205  1206    2
  1166  1015  1013   ar
  1167   400   403   ar
  1168   400   399   ar
  1169   351   352    1
  1170   445   446   ar
  1171  1041  1039   ar
  1172   374   375    1
  1173   374   376   ar
  1174   792   790    1
  1175   403   404   ar
  1176   835   840    1
  1177   835   834    1
  1178   565   567    1
  1179   565   566    1
  1180   565   563    1
  1181   811   795    1
  1182   811   829    1
  1183   347   348    1
  1184  1201  1202    1
  1185  1269  1276   ar
  1186  1269  1268    1
  1187   346   363    1
  1188   377   383   ar
  1189   377   376   ar
  1190    58    61   ar
  1191  1406  1405    1
  1192   548   549   ar
  1193  1283  1282    1
  1194   549   555   ar
  1195   567   562    1
  1196   929   930    1
  1197   929   924    1
  1198   363   365    1
  1199   363   384    1
  1200   935   934    1
  1201  1405  1407    1
  1202   507   513   ar
  1203   507   508   ar
  1204   440   441   ar
  1205   934   936   ar
  1206  1228  1234   ar
  1207  1228  1227   ar
  1208   930   937   ar
  1209   867   861   ar
  1210   867   866   ar
  1211   397   398   ar
  1212   600   578    2
  1213   578   599    1
  1214   578   564    1
  1215   502   513    1
  1216   502   497    1
  1217   441   447   ar
  1218    49    47    1
  1219   424   425   ar
  1220  1234  1223    1
  1221  1284  1285    1
  1222  1284  1282    1
  1223   840   838    1
  1224   527   526   ar
  1225   527   528    2
  1226    63    53    1
  1227    63    62   ar
  1228   834   836    1
  1229    53    48    1
  1230   383   372    1
  1231   481   480   ar
  1232   481   483   ar
  1233   499   516    1
  1234   499   498    1
  1235   509   508   ar
  1236   509   510    2
  1237   480   486   ar
  1238   884   890   ar
  1239   884   885   ar
  1240  1237  1257    1
  1241  1237  1239    1
  1242  1237  1220    1
  1243   890   889   ar
  1244  1012  1013   ar
  1245   554   555   ar
  1246   526   525    1
  1247  1013  1014    1
  1248   910   911   ar
  1249  1225  1227   ar
  1250  1225  1226    1
  1251   418   425   ar
  1252   418   417    1
  1253   563   564    1
  1254   563   561    1
  1255  1036  1037    2
  1256  1036  1038   ar
  1257   869   866   ar
  1258   869   870   ar
  1259   513   512   ar
  1260  1299  1285    1
  1261  1299  1320    2
  1262  1299  1319    1
  1263   861   862   ar
  1264   940   926    1
  1265   940   960    2
  1266   940   961    1
  1267   912   911   ar
  1268   912   915   ar
  1269   516   534    1
  1270   516   518    1
  1271  1215  1217    1
  1272   498   496    1
  1273   446   447   ar
  1274   365   364    1
  1275    61    62   ar
  1276   399   398   ar
  1277   399   405   ar
  1278  1282  1280    1
  1279   508   511   ar
  1280   926   925    1
  1281  1246  1241    1
  1282  1246  1244    1
  1283  1039  1038   ar
  1284  1039  1040    2
  1285   866   865   ar
  1286   925   923    1
  1287  1219  1220    1
  1288  1219  1217    1
  1289  1219  1221    1
  1290   836   838    1
  1291   836   837    1
  1292   404   405   ar
  1293  1239  1238    1
  1294  1241  1240    1
  1295  1268  1266    1
  1296  1268  1263    1
  1297   555   545    1
  1298   497   496    1
  1299   447   437    1
  1300  1408  1407    1
  1301  1408  1413    1
  1302   416   415    1
  1303   937   936   ar
  1304   873   851    2
  1305   911   917   ar
  1306  1218  1223    1
  1307  1218  1217    1
  1308   924   923    1
  1309   886   885    1
  1310  1407  1409    1
  1311   562   561    1
  1312   496   494    1
  1313  1223  1221    1
  1314   483   484   ar
  1315   557   536    2
  1316  1420  1421   ar
  1317  1420  1418   ar
  1318   838   839    1
  1319    47    48    1
  1320    47    45    1
  1321    33    32    1
  1322   487   486    2
  1323  1421  1414   ar
  1324  1221  1222    1
  1325   885   887   ar
  1326   517   518    1
  1327   517   519    1
  1328   486   485   ar
  1329    38    37    2
  1330  1266  1267    1
  1331  1266  1264    1
  1332    31    37   ar
  1333    31    32   ar
  1334   417   415    1
  1335   417   412    1
  1336   405   395    1
  1337   923   921    1
  1338   372   367    1
  1339   372   370    1
  1340   915   916   ar
  1341   870   871   ar
  1342   367   366    1
  1343   889   892   ar
  1344   889   888   ar
  1345  1244  1242    1
  1346  1244  1245    1
  1347   561   559    1
  1348   512   511   ar
  1349   525   520    1
  1350   525   523    1
  1351  1263  1262    1
  1352   837   851    1
  1353   520   519    1
  1354  1242  1240    1
  1355  1242  1243    1
  1356  1278  1259    2
  1357   862   863    1
  1358   862   864   ar
  1359    37    36   ar
  1360    32    34   ar
  1361   415   413    1
  1362   364   366    1
  1363  1240  1238    1
  1364   577   558    2
  1365  1419  1418    1
  1366  1281  1280    1
  1367  1281  1279    1
  1368   407   386    2
  1369  1418  1417   ar
  1370   521   519    1
  1371   521   523    1
  1372   521   522    1
  1373   560   559    1
  1374   560   558    1
  1375   865   871   ar
  1376   865   864   ar
  1377   892   893   ar
  1378  1414  1413    1
  1379  1414  1415   ar
  1380   545   543    1
  1381   545   540    1
  1382   437   432    1
  1383   437   435    1
  1384  1413  1411    1
  1385   851   853    1
  1386   851   872    1
  1387   484   485   ar
  1388   484   490   ar
  1389    46    45    1
  1390    46    44    1
  1391  1409  1410    1
  1392  1409  1411    1
  1393  1264  1262    1
  1394  1264  1265    1
  1395   523   524    1
  1396   368   366    1
  1397   368   370    1
  1398   368   369    1
  1399   917   916   ar
  1400   917   906    1
  1401   485   488   ar
  1402   543   541    1
  1403   543   544    1
  1404   370   371    1
  1405   412   411    1
  1406   887   888   ar
  1407   494   495    1
  1408   536   538    1
  1409   536   522    1
  1410   536   556    1
  1411   871   860    1
  1412  1261  1259    1
  1413  1261  1260    1
  1414   888   894   ar
  1415   432   431    1
  1416   538   537    1
  1417    34    35   ar
  1418  1417  1415   ar
  1419    36    35   ar
  1420    36    39   ar
  1421  1298  1279    2
  1422   558   542    1
  1423   558   576    1
  1424   541   542    1
  1425   541   539    1
  1426  1415  1416    2
  1427  1262  1260    1
  1428   395   390    1
  1429   395   393    1
  1430  1259  1243    1
  1431  1259  1277    1
  1432   853   852    1
  1433   921   922    1
  1434   540   539    1
  1435    65    44    2
  1436   414   413    1
  1437   414   428    1
  1438  1279  1265    1
  1439  1279  1297    1
  1440  1411  1412    1
  1441    35    41   ar
  1442   413   411    1
  1443   435   436    1
  1444   435   433    1
  1445   495   493    1
  1446   386   369    1
  1447   386   388    1
  1448   386   406    1
  1449   478   477    1
  1450   922   920    1
  1451   906   904    1
  1452   906   901    1
  1453   893   894   ar
  1454   490   479    1
  1455   490   489   ar
  1456    44    64    1
  1457    44    27    1
  1458   390   389    1
  1459   388   387    1
  1460   904   905    1
  1461   904   902    1
  1462    39    40   ar
  1463   477   479    1
  1464   477   475    1
  1465    17    16    2
  1466   449   428    2
  1467   393   391    1
  1468   393   394    1
  1469   488   489   ar
  1470   411   409    1
  1471   539   537    1
  1472   479   474    1
  1473   894   883    1
  1474   427   408    2
  1475   860   855    1
  1476   860   858    1
  1477   430   428    1
  1478   430   429    1
  1479   855   854    1
  1480   431   429    1
  1481   431   433    1
  1482   391   389    1
  1483   391   392    1
  1484   428   448    1
  1485   410   409    1
  1486   410   408    1
  1487    41    40   ar
  1488    41    30    1
  1489    28    29    1
  1490    28    26    1
  1491    28    30    1
  1492   852   854    1
  1493   389   387    1
  1494    16    10   ar
  1495    16    15   ar
  1496   433   434    1
  1497   902   903    1
  1498   902   900    1
  1499   901   900    1
  1500   896   874    2
  1501    27    26    1
  1502    26    24    1
  1503   854   856    1
  1504    10    11   ar
  1505   920   939    2
  1506   920   903    1
  1507   920   938    1
  1508   856   858    1
  1509   856   857    1
  1510   493   476    1
  1511   493   515    2
  1512   493   514    1
  1513   408   392    1
  1514   408   426    1
  1515   475   476    1
  1516   475   473    1
  1517   858   859    1
  1518    30    25    1
  1519   434   450    1
  1520   883   881    1
  1521   883   878    1
  1522   474   473    1
  1523   919   897    2
  1524    15    18   ar
  1525    15    14   ar
  1526    18    19   ar
  1527    43    21    2
  1528   900   898    1
  1529   881   879    1
  1530   881   882    1
  1531   899   897    1
  1532   899   898    1
  1533   473   471    1
  1534    11    12    1
  1535    11    13   ar
  1536   874   876    1
  1537   874   857    1
  1538   874   895    1
  1539   876   875    1
  1540   878   877    1
  1541    23    21    1
  1542    23    22    1
  1543   879   877    1
  1544   879   880    1
  1545    25    24    1
  1546    24    22    1
  1547    14    13   ar
  1548    14    20   ar
  1549   897   880    1
  1550   897   918    1
  1551    19    20   ar
  1552    21    42    1
  1553    21     6    1
  1554   450   469    2
  1555   450   452    1
  1556   450   468    1
  1557     2     1    1
  1558   472   471    1
  1559   472   470    1
  1560   877   875    1
  1561    20     9    1
  1562   452   451    1
  1563   492   470    2
  1564   451   453    1
  1565     5     6    1
  1566     5     7    1
  1567     5     3    1
  1568     7     9    1
  1569     7     8    1
  1570   470   456    1
  1571   470   491    1
  1572     1     3    1
  1573   455   453    1
  1574   455   456    1
  1575   455   457    1
  1576     9     4    1
  1577   453   454    1
  1578     3     4    1
  1579   457   458    1
  1580   457   459    1
  1581   454   459    1
  1582   459   460    1
  1583   467   460   ar
  1584   467   466   ar
  1585   460   461   ar
  1586   466   464   ar
  1587   461   462    2
  1588   461   463   ar
  1589   464   463   ar
  1590   464   465    2
