ligand
  PyMOL2.2          3D                             0

 26 28  0  0  0  0  0  0  0  0999 V2000
   48.8470   58.4550   28.7080 N   0  0  0  0  0  0  0  0  0  0  0  0
   48.4060   57.2860   27.9420 C   0  0  0  0  0  0  0  0  0  0  0  0
   46.9950   57.4110   27.3630 C   0  0  0  0  0  0  0  0  0  0  0  0
   46.5850   56.5090   26.6320 O   0  0  0  0  0  0  0  0  0  0  0  0
   48.4570   55.9560   28.7050 C   0  0  0  0  0  0  0  0  0  0  0  0
   49.7430   55.4720   29.3520 C   0  0  0  0  0  0  0  0  0  0  0  0
   49.6080   53.6740   29.4810 S   0  0  0  0  0  0  0  0  0  0  0  0
   48.2250   53.9600   30.6110 C   0  0  0  0  0  0  0  0  0  0  0  0
   48.6350   54.1870   32.0700 C   0  0  0  0  0  0  0  0  0  0  0  0
   49.4780   55.3310   32.2480 O   0  0  0  0  0  0  0  0  0  0  0  0
   47.4110   54.3910   32.9510 C   0  0  0  0  0  0  0  0  0  0  0  0
   46.9700   53.1730   33.5090 O   0  0  0  0  0  0  0  0  0  0  0  0
   47.8580   55.4040   33.9970 C   0  0  0  0  0  0  0  0  0  0  0  0
   48.3740   54.7700   35.1500 O   0  0  0  0  0  0  0  0  0  0  0  0
   49.0020   56.1310   33.3180 C   0  0  0  0  0  0  0  0  0  0  0  0
   46.2490   58.3670   27.6090 O   0  0  0  0  0  0  0  0  0  0  0  0
   45.1060   59.1460   31.4880 N   0  0  0  0  0  0  0  0  0  0  0  0
   45.0620   57.8190   31.8340 C   0  0  0  0  0  0  0  0  0  0  0  0
   46.2030   57.1870   32.2820 N   0  0  0  0  0  0  0  0  0  0  0  0
   47.3600   57.8580   32.4220 C   0  0  0  0  0  0  0  0  0  0  0  0
   47.4250   59.1980   32.0800 C   0  0  0  0  0  0  0  0  0  0  0  0
   46.2900   59.8290   31.6110 C   0  0  0  0  0  0  0  0  0  0  0  0
   46.3260   61.1080   31.2910 N   0  0  0  0  0  0  0  0  0  0  0  0
   48.6840   59.6340   32.3080 N   0  0  0  0  0  0  0  0  0  0  0  0
   49.4190   58.5880   32.7630 C   0  0  0  0  0  0  0  0  0  0  0  0
   48.6080   57.4770   32.8410 N   0  0  0  0  0  0  0  0  0  0  0  0
  1  2  1  0  0  0  0
  2  3  1  0  0  0  0
  2  5  1  0  0  0  0
  3  4  4  0  0  0  0
  3 16  4  0  0  0  0
  5  6  1  0  0  0  0
  6  7  1  0  0  0  0
  7  8  1  0  0  0  0
  8  9  1  0  0  0  0
  9 10  1  0  0  0  0
  9 11  1  0  0  0  0
 10 15  1  0  0  0  0
 11 12  1  0  0  0  0
 11 13  1  0  0  0  0
 13 14  1  0  0  0  0
 13 15  1  0  0  0  0
 15 26  1  0  0  0  0
 17 18  4  0  0  0  0
 18 19  4  0  0  0  0
 19 20  4  0  0  0  0
 20 21  4  0  0  0  0
 21 22  4  0  0  0  0
 17 22  4  0  0  0  0
 22 23  1  0  0  0  0
 21 24  4  0  0  0  0
 24 25  4  0  0  0  0
 20 26  4  0  0  0  0
 25 26  4  0  0  0  0
M  END
$$$$
