ligand
 OpenBabel11021811483D
libRbt.so/2013.1/901 2013/11/27
 26 28  0  0  0  0  0  0  0  0999 V2000
   48.5863   58.3141   28.4535 N   0  0  0  0  0  0  0  0  0  0  0  0
   48.3059   56.9416   28.0230 C   0  0  2  0  0  0  0  0  0  0  0  0
   46.8159   56.6085   27.9194 C   0  0  0  0  0  0  0  0  0  0  0  0
   46.0207   57.2975   28.5590 O   0  0  0  0  0  0  0  0  0  0  0  0
   48.9464   55.8487   28.8884 C   0  0  0  0  0  0  0  0  0  0  0  0
   48.5407   54.3927   28.7399 C   0  0  0  0  0  0  0  0  0  0  0  0
   49.5412   53.4578   29.9200 S   0  0  0  0  0  0  0  0  0  0  0  0
   48.2934   53.8810   31.1591 C   0  0  0  0  0  0  0  0  0  0  0  0
   48.8654   54.2919   32.5201 C   0  0  1  0  0  0  0  0  0  0  0  0
   49.6029   55.5188   32.4754 O   0  0  0  0  0  0  0  0  0  0  0  0
   47.7529   54.4748   33.5422 C   0  0  1  0  0  0  0  0  0  0  0  0
   47.5158   53.2858   34.2629 O   0  0  0  0  0  0  0  0  0  0  0  0
   48.2268   55.6254   34.4206 C   0  0  1  0  0  0  0  0  0  0  0  0
   48.9515   55.1614   35.5418 O   0  0  0  0  0  0  0  0  0  0  0  0
   49.1916   56.3783   33.5258 C   0  0  2  0  0  0  0  0  0  0  0  0
   46.3789   55.6913   27.2132 O   0  0  0  0  0  0  0  0  0  0  0  0
   44.7772   58.9156   32.2244 N   0  0  0  0  0  0  0  0  0  0  0  0
   44.9105   57.6442   32.7228 C   0  0  0  0  0  0  0  0  0  0  0  0
   46.1654   57.1382   32.9896 N   0  0  0  0  0  0  0  0  0  0  0  0
   47.2694   57.8833   32.8035 C   0  0  0  0  0  0  0  0  0  0  0  0
   47.1564   59.1692   32.3030 C   0  0  0  0  0  0  0  0  0  0  0  0
   45.9032   59.6718   32.0147 C   0  0  0  0  0  0  0  0  0  0  0  0
   45.7712   60.8985   31.5487 N   0  0  0  0  0  0  0  0  0  0  0  0
   48.3965   59.6985   32.2080 N   0  0  0  0  0  0  0  0  0  0  0  0
   49.2897   58.7616   32.6152 C   0  0  0  0  0  0  0  0  0  0  0  0
   48.6028   57.6279   32.9906 N   0  0  0  0  0  0  0  0  0  0  0  0
  2  1  1  1  0  0  0
  2  3  1  0  0  0  0
  2  5  1  0  0  0  0
  3  4  1  0  0  0  0
  3 16  1  0  0  0  0
  5  6  1  0  0  0  0
  6  7  1  0  0  0  0
  7  8  1  0  0  0  0
  9  8  1  6  0  0  0
  9 10  1  0  0  0  0
  9 11  1  0  0  0  0
 10 15  1  0  0  0  0
 11 12  1  1  0  0  0
 11 13  1  0  0  0  0
 13 14  1  1  0  0  0
 13 15  1  0  0  0  0
 15 26  1  6  0  0  0
 17 18  2  0  0  0  0
 17 22  1  0  0  0  0
 18 19  1  0  0  0  0
 19 20  2  0  0  0  0
 20 21  1  0  0  0  0
 20 26  1  0  0  0  0
 21 22  2  0  0  0  0
 21 24  1  0  0  0  0
 22 23  1  0  0  0  0
 24 25  2  0  0  0  0
 25 26  1  0  0  0  0
M  END
>  <CHROM.1>
-21.81667504,168.14419924,179.36404961,84.53017562,-137.55179892,66.08629297
96.19822295,47.78851567,56.48761364,31.42920497,3.01154578,-1.11904777,1.44843404

>  <Name>
ligand

>  <RI>
0

>  <Rbt.Current_Directory>
/home/itssahil/PROJECTS/Mol_Feturizer/New_Systems/rnas/3GX3

>  <Rbt.Executable>
rbdock ($Id: //depot/dev/client3/rdock/2013.1/src/exe/rbdock.cxx#4 $)

>  <Rbt.Library>
libRbt.so (2013.1, Build901 2013/11/27)

>  <Rbt.Parameter_File>
/export/apps/rDock/src/rDock_2013.1_src/data/scripts/dock_solv.prm

>  <Rbt.Receptor>
prm/pocket_docking_2.prm

>  <SCORE>
-13.7184

>  <SCORE.INTER>
-11.4814

>  <SCORE.INTER.CONST>
1

>  <SCORE.INTER.POLAR>
0

>  <SCORE.INTER.ROT>
7

>  <SCORE.INTER.SOLV>
20.1845

>  <SCORE.INTER.VDW>
-22.6491

>  <SCORE.INTER.norm>
-0.441591

>  <SCORE.INTRA>
-2.23705

>  <SCORE.INTRA.DIHEDRAL>
0.577671

>  <SCORE.INTRA.DIHEDRAL.0>
5.78979

>  <SCORE.INTRA.POLAR>
0

>  <SCORE.INTRA.POLAR.0>
0

>  <SCORE.INTRA.REPUL>
0

>  <SCORE.INTRA.REPUL.0>
0

>  <SCORE.INTRA.SOLV>
-0.992407

>  <SCORE.INTRA.SOLV.lig_0>
-49.9151

>  <SCORE.INTRA.VDW>
-2.02968

>  <SCORE.INTRA.VDW.0>
-0.211125

>  <SCORE.INTRA.norm>
-0.0860405

>  <SCORE.RESTR>
0

>  <SCORE.RESTR.CAVITY>
0

>  <SCORE.RESTR.norm>
0

>  <SCORE.SYSTEM>
0

>  <SCORE.SYSTEM.CONST>
0

>  <SCORE.SYSTEM.DIHEDRAL>
0

>  <SCORE.SYSTEM.SOLV>
0

>  <SCORE.SYSTEM.norm>
0

>  <SCORE.heavy>
26

>  <SCORE.norm>
-0.527632

>  <RMSD>
0.744

$$$$
ligand
 OpenBabel11021811483D
libRbt.so/2013.1/901 2013/11/27
 26 28  0  0  0  0  0  0  0  0999 V2000
   48.5197   58.5468   28.3255 N   0  0  0  0  0  0  0  0  0  0  0  0
   48.1523   57.3015   27.6457 C   0  0  2  0  0  0  0  0  0  0  0  0
   46.7307   56.8197   27.9435 C   0  0  0  0  0  0  0  0  0  0  0  0
   46.5803   55.9469   28.7989 O   0  0  0  0  0  0  0  0  0  0  0  0
   49.0888   56.1166   27.9159 C   0  0  0  0  0  0  0  0  0  0  0  0
   49.5480   55.7857   29.3252 C   0  0  0  0  0  0  0  0  0  0  0  0
   49.6457   53.9834   29.4237 S   0  0  0  0  0  0  0  0  0  0  0  0
   48.4248   54.0907   30.7538 C   0  0  0  0  0  0  0  0  0  0  0  0
   49.0199   54.3575   32.1406 C   0  0  1  0  0  0  0  0  0  0  0  0
   49.6894   55.6201   32.2341 O   0  0  0  0  0  0  0  0  0  0  0  0
   47.9344   54.3460   33.2071 C   0  0  1  0  0  0  0  0  0  0  0  0
   47.7850   53.0637   33.7752 O   0  0  0  0  0  0  0  0  0  0  0  0
   48.3762   55.4010   34.2130 C   0  0  1  0  0  0  0  0  0  0  0  0
   49.1619   54.8405   35.2456 O   0  0  0  0  0  0  0  0  0  0  0  0
   49.2690   56.3148   33.3968 C   0  0  2  0  0  0  0  0  0  0  0  0
   45.7320   57.2780   27.3748 O   0  0  0  0  0  0  0  0  0  0  0  0
   44.8608   58.5852   31.6556 N   0  0  0  0  0  0  0  0  0  0  0  0
   45.1071   57.2501   31.8542 C   0  0  0  0  0  0  0  0  0  0  0  0
   46.3443   56.8385   32.3037 N   0  0  0  0  0  0  0  0  0  0  0  0
   47.3119   57.7281   32.5880 C   0  0  0  0  0  0  0  0  0  0  0  0
   47.0829   59.0800   32.3961 C   0  0  0  0  0  0  0  0  0  0  0  0
   45.8526   59.4944   31.9260 C   0  0  0  0  0  0  0  0  0  0  0  0
   45.6085   60.7781   31.7476 N   0  0  0  0  0  0  0  0  0  0  0  0
   48.2000   59.7543   32.7491 N   0  0  0  0  0  0  0  0  0  0  0  0
   49.1361   58.8511   33.1355 C   0  0  0  0  0  0  0  0  0  0  0  0
   48.5971   57.5866   33.0424 N   0  0  0  0  0  0  0  0  0  0  0  0
  2  1  1  1  0  0  0
  2  3  1  0  0  0  0
  2  5  1  0  0  0  0
  3  4  1  0  0  0  0
  3 16  1  0  0  0  0
  5  6  1  0  0  0  0
  6  7  1  0  0  0  0
  7  8  1  0  0  0  0
  9  8  1  6  0  0  0
  9 10  1  0  0  0  0
  9 11  1  0  0  0  0
 10 15  1  0  0  0  0
 11 12  1  1  0  0  0
 11 13  1  0  0  0  0
 13 14  1  1  0  0  0
 13 15  1  0  0  0  0
 15 26  1  6  0  0  0
 17 18  2  0  0  0  0
 17 22  1  0  0  0  0
 18 19  1  0  0  0  0
 19 20  2  0  0  0  0
 20 21  1  0  0  0  0
 20 26  1  0  0  0  0
 21 22  2  0  0  0  0
 21 24  1  0  0  0  0
 22 23  1  0  0  0  0
 24 25  2  0  0  0  0
 25 26  1  0  0  0  0
M  END
>  <CHROM.1>
-98.38150774,46.08067423,144.18838883,-120.17499668,-84.92958412,63.12286382
78.00520122,47.86965766,56.55868978,31.24188187,-2.37730188,-1.05619268,1.48653626

>  <Name>
ligand

>  <RI>
0

>  <Rbt.Current_Directory>
/home/itssahil/PROJECTS/Mol_Feturizer/New_Systems/rnas/3GX3

>  <Rbt.Executable>
rbdock ($Id: //depot/dev/client3/rdock/2013.1/src/exe/rbdock.cxx#4 $)

>  <Rbt.Library>
libRbt.so (2013.1, Build901 2013/11/27)

>  <Rbt.Parameter_File>
/export/apps/rDock/src/rDock_2013.1_src/data/scripts/dock_solv.prm

>  <Rbt.Receptor>
prm/pocket_docking_2.prm

>  <SCORE>
-10.9748

>  <SCORE.INTER>
-10.8394

>  <SCORE.INTER.CONST>
1

>  <SCORE.INTER.POLAR>
0

>  <SCORE.INTER.ROT>
7

>  <SCORE.INTER.SOLV>
20.8287

>  <SCORE.INTER.VDW>
-22.4358

>  <SCORE.INTER.norm>
-0.4169

>  <SCORE.INTRA>
-0.305963

>  <SCORE.INTRA.DIHEDRAL>
4.69465

>  <SCORE.INTRA.DIHEDRAL.0>
5.78979

>  <SCORE.INTRA.POLAR>
0

>  <SCORE.INTRA.POLAR.0>
0

>  <SCORE.INTRA.REPUL>
0

>  <SCORE.INTRA.REPUL.0>
0

>  <SCORE.INTRA.SOLV>
-0.263557

>  <SCORE.INTRA.SOLV.lig_0>
-49.9151

>  <SCORE.INTRA.VDW>
-2.52151

>  <SCORE.INTRA.VDW.0>
-0.211125

>  <SCORE.INTRA.norm>
-0.0117678

>  <SCORE.RESTR>
0.17052

>  <SCORE.RESTR.CAVITY>
0.17052

>  <SCORE.RESTR.norm>
0.00655845

>  <SCORE.SYSTEM>
0

>  <SCORE.SYSTEM.CONST>
0

>  <SCORE.SYSTEM.DIHEDRAL>
0

>  <SCORE.SYSTEM.SOLV>
0

>  <SCORE.SYSTEM.norm>
0

>  <SCORE.heavy>
26

>  <SCORE.norm>
-0.422109

>  <RMSD>
0.751

$$$$
ligand
 OpenBabel11021811483D
libRbt.so/2013.1/901 2013/11/27
 26 28  0  0  0  0  0  0  0  0999 V2000
   48.4108   58.5093   28.5903 N   0  0  0  0  0  0  0  0  0  0  0  0
   48.4655   57.3436   27.7037 C   0  0  2  0  0  0  0  0  0  0  0  0
   47.1354   57.0082   27.0254 C   0  0  0  0  0  0  0  0  0  0  0  0
   46.0941   57.3391   27.5931 O   0  0  0  0  0  0  0  0  0  0  0  0
   48.9660   56.0521   28.3635 C   0  0  0  0  0  0  0  0  0  0  0  0
   48.2916   55.4933   29.6043 C   0  0  0  0  0  0  0  0  0  0  0  0
   49.0206   53.8650   29.8958 S   0  0  0  0  0  0  0  0  0  0  0  0
   47.9654   53.7666   31.3615 C   0  0  0  0  0  0  0  0  0  0  0  0
   48.6698   54.1234   32.6749 C   0  0  1  0  0  0  0  0  0  0  0  0
   49.4384   55.3291   32.5937 O   0  0  0  0  0  0  0  0  0  0  0  0
   47.6597   54.3107   33.7976 C   0  0  1  0  0  0  0  0  0  0  0  0
   47.4509   53.1099   34.5075 O   0  0  0  0  0  0  0  0  0  0  0  0
   48.2463   55.4227   34.6575 C   0  0  1  0  0  0  0  0  0  0  0  0
   49.0537   54.9074   35.6968 O   0  0  0  0  0  0  0  0  0  0  0  0
   49.1501   56.1714   33.6978 C   0  0  2  0  0  0  0  0  0  0  0  0
   47.0638   56.4353   25.9311 O   0  0  0  0  0  0  0  0  0  0  0  0
   44.7731   58.6605   32.1932 N   0  0  0  0  0  0  0  0  0  0  0  0
   44.9214   57.3438   32.5494 C   0  0  0  0  0  0  0  0  0  0  0  0
   46.1651   56.8625   32.9010 N   0  0  0  0  0  0  0  0  0  0  0  0
   47.2389   57.6713   32.9368 C   0  0  0  0  0  0  0  0  0  0  0  0
   47.1101   59.0035   32.5827 C   0  0  0  0  0  0  0  0  0  0  0  0
   45.8707   59.4842   32.2097 C   0  0  0  0  0  0  0  0  0  0  0  0
   45.7225   60.7527   31.8804 N   0  0  0  0  0  0  0  0  0  0  0  0
   48.3210   59.5929   32.6988 N   0  0  0  0  0  0  0  0  0  0  0  0
   49.2145   58.6515   33.0947 C   0  0  0  0  0  0  0  0  0  0  0  0
   48.5552   57.4516   33.2488 N   0  0  0  0  0  0  0  0  0  0  0  0
  2  1  1  1  0  0  0
  2  3  1  0  0  0  0
  2  5  1  0  0  0  0
  3  4  1  0  0  0  0
  3 16  1  0  0  0  0
  5  6  1  0  0  0  0
  6  7  1  0  0  0  0
  7  8  1  0  0  0  0
  9  8  1  6  0  0  0
  9 10  1  0  0  0  0
  9 11  1  0  0  0  0
 10 15  1  0  0  0  0
 11 12  1  1  0  0  0
 11 13  1  0  0  0  0
 13 14  1  1  0  0  0
 13 15  1  0  0  0  0
 15 26  1  6  0  0  0
 17 18  2  0  0  0  0
 17 22  1  0  0  0  0
 18 19  1  0  0  0  0
 19 20  2  0  0  0  0
 20 21  1  0  0  0  0
 20 26  1  0  0  0  0
 21 22  2  0  0  0  0
 21 24  1  0  0  0  0
 22 23  1  0  0  0  0
 24 25  2  0  0  0  0
 25 26  1  0  0  0  0
M  END
>  <CHROM.1>
-26.81343266,55.86706456,171.67394548,178.33654471,-98.65657433,47.26001344
82.37170092,47.73641954,56.51520796,31.43258379,1.85727961,1.15714985,-1.57743737

>  <Name>
ligand

>  <RI>
0

>  <Rbt.Current_Directory>
/home/itssahil/PROJECTS/Mol_Feturizer/New_Systems/rnas/3GX3

>  <Rbt.Executable>
rbdock ($Id: //depot/dev/client3/rdock/2013.1/src/exe/rbdock.cxx#4 $)

>  <Rbt.Library>
libRbt.so (2013.1, Build901 2013/11/27)

>  <Rbt.Parameter_File>
/export/apps/rDock/src/rDock_2013.1_src/data/scripts/dock_solv.prm

>  <Rbt.Receptor>
prm/pocket_docking_2.prm

>  <SCORE>
-16.87

>  <SCORE.INTER>
-13.1923

>  <SCORE.INTER.CONST>
1

>  <SCORE.INTER.POLAR>
0

>  <SCORE.INTER.ROT>
7

>  <SCORE.INTER.SOLV>
20.315

>  <SCORE.INTER.VDW>
-23.8332

>  <SCORE.INTER.norm>
-0.507395

>  <SCORE.INTRA>
-3.67772

>  <SCORE.INTRA.DIHEDRAL>
-0.268414

>  <SCORE.INTRA.DIHEDRAL.0>
5.78979

>  <SCORE.INTRA.POLAR>
0

>  <SCORE.INTRA.POLAR.0>
0

>  <SCORE.INTRA.REPUL>
0

>  <SCORE.INTRA.REPUL.0>
0

>  <SCORE.INTRA.SOLV>
-0.32044

>  <SCORE.INTRA.SOLV.lig_0>
-49.9151

>  <SCORE.INTRA.VDW>
-3.3833

>  <SCORE.INTRA.VDW.0>
-0.211125

>  <SCORE.INTRA.norm>
-0.141451

>  <SCORE.RESTR>
0

>  <SCORE.RESTR.CAVITY>
0

>  <SCORE.RESTR.norm>
0

>  <SCORE.SYSTEM>
0

>  <SCORE.SYSTEM.CONST>
0

>  <SCORE.SYSTEM.DIHEDRAL>
0

>  <SCORE.SYSTEM.SOLV>
0

>  <SCORE.SYSTEM.norm>
0

>  <SCORE.heavy>
26

>  <SCORE.norm>
-0.648846

>  <RMSD>
0.762

$$$$
ligand
 OpenBabel11021811483D
libRbt.so/2013.1/901 2013/11/27
 26 28  0  0  0  0  0  0  0  0999 V2000
   48.4271   58.4284   28.5796 N   0  0  0  0  0  0  0  0  0  0  0  0
   48.4965   57.2392   27.7258 C   0  0  2  0  0  0  0  0  0  0  0  0
   47.1811   56.8920   27.0253 C   0  0  0  0  0  0  0  0  0  0  0  0
   46.1271   57.1541   27.6054 O   0  0  0  0  0  0  0  0  0  0  0  0
   48.9745   55.9635   28.4314 C   0  0  0  0  0  0  0  0  0  0  0  0
   48.2591   55.4329   29.6616 C   0  0  0  0  0  0  0  0  0  0  0  0
   48.8729   53.7537   29.9284 S   0  0  0  0  0  0  0  0  0  0  0  0
   47.8564   53.7280   31.4241 C   0  0  0  0  0  0  0  0  0  0  0  0
   48.6148   54.0667   32.7119 C   0  0  1  0  0  0  0  0  0  0  0  0
   49.4273   55.2404   32.5964 O   0  0  0  0  0  0  0  0  0  0  0  0
   47.6482   54.3026   33.8635 C   0  0  1  0  0  0  0  0  0  0  0  0
   47.4146   53.1165   34.5902 O   0  0  0  0  0  0  0  0  0  0  0  0
   48.3047   55.3970   34.6950 C   0  0  1  0  0  0  0  0  0  0  0  0
   49.1232   54.8582   35.7135 O   0  0  0  0  0  0  0  0  0  0  0  0
   49.2070   56.1019   33.7013 C   0  0  2  0  0  0  0  0  0  0  0  0
   47.1329   56.3757   25.9019 O   0  0  0  0  0  0  0  0  0  0  0  0
   44.9183   58.7059   32.1381 N   0  0  0  0  0  0  0  0  0  0  0  0
   45.0310   57.3810   32.4765 C   0  0  0  0  0  0  0  0  0  0  0  0
   46.2561   56.8681   32.8483 N   0  0  0  0  0  0  0  0  0  0  0  0
   47.3453   57.6534   32.9213 C   0  0  0  0  0  0  0  0  0  0  0  0
   47.2523   58.9934   32.5857 C   0  0  0  0  0  0  0  0  0  0  0  0
   46.0321   59.5059   32.1925 C   0  0  0  0  0  0  0  0  0  0  0  0
   45.9179   60.7822   31.8802 N   0  0  0  0  0  0  0  0  0  0  0  0
   48.4723   59.5552   32.7384 N   0  0  0  0  0  0  0  0  0  0  0  0
   49.3367   58.5891   33.1394 C   0  0  0  0  0  0  0  0  0  0  0  0
   48.6493   57.4012   33.2594 N   0  0  0  0  0  0  0  0  0  0  0  0
  2  1  1  1  0  0  0
  2  3  1  0  0  0  0
  2  5  1  0  0  0  0
  3  4  1  0  0  0  0
  3 16  1  0  0  0  0
  5  6  1  0  0  0  0
  6  7  1  0  0  0  0
  7  8  1  0  0  0  0
  9  8  1  6  0  0  0
  9 10  1  0  0  0  0
  9 11  1  0  0  0  0
 10 15  1  0  0  0  0
 11 12  1  1  0  0  0
 11 13  1  0  0  0  0
 13 14  1  1  0  0  0
 13 15  1  0  0  0  0
 15 26  1  6  0  0  0
 17 18  2  0  0  0  0
 17 22  1  0  0  0  0
 18 19  1  0  0  0  0
 19 20  2  0  0  0  0
 20 21  1  0  0  0  0
 20 26  1  0  0  0  0
 21 22  2  0  0  0  0
 21 24  1  0  0  0  0
 22 23  1  0  0  0  0
 24 25  2  0  0  0  0
 25 26  1  0  0  0  0
M  END
>  <CHROM.1>
-32.09378737,56.52479863,166.78891229,176.33853011,-96.93247630,47.96200033
78.83555239,47.77476397,56.46546393,31.44734856,1.90271160,1.20366228,-1.63941813

>  <Name>
ligand

>  <RI>
0

>  <Rbt.Current_Directory>
/home/itssahil/PROJECTS/Mol_Feturizer/New_Systems/rnas/3GX3

>  <Rbt.Executable>
rbdock ($Id: //depot/dev/client3/rdock/2013.1/src/exe/rbdock.cxx#4 $)

>  <Rbt.Library>
libRbt.so (2013.1, Build901 2013/11/27)

>  <Rbt.Parameter_File>
/export/apps/rDock/src/rDock_2013.1_src/data/scripts/dock_solv.prm

>  <Rbt.Receptor>
prm/pocket_docking_2.prm

>  <SCORE>
-16.8482

>  <SCORE.INTER>
-13.123

>  <SCORE.INTER.CONST>
1

>  <SCORE.INTER.POLAR>
0

>  <SCORE.INTER.ROT>
7

>  <SCORE.INTER.SOLV>
20.1287

>  <SCORE.INTER.VDW>
-23.7249

>  <SCORE.INTER.norm>
-0.504731

>  <SCORE.INTRA>
-3.7252

>  <SCORE.INTRA.DIHEDRAL>
-0.0591193

>  <SCORE.INTRA.DIHEDRAL.0>
5.78979

>  <SCORE.INTRA.POLAR>
0

>  <SCORE.INTRA.POLAR.0>
0

>  <SCORE.INTRA.REPUL>
0

>  <SCORE.INTRA.REPUL.0>
0

>  <SCORE.INTRA.SOLV>
-0.318261

>  <SCORE.INTRA.SOLV.lig_0>
-49.9151

>  <SCORE.INTRA.VDW>
-3.53651

>  <SCORE.INTRA.VDW.0>
-0.211125

>  <SCORE.INTRA.norm>
-0.143277

>  <SCORE.RESTR>
0

>  <SCORE.RESTR.CAVITY>
0

>  <SCORE.RESTR.norm>
0

>  <SCORE.SYSTEM>
0

>  <SCORE.SYSTEM.CONST>
0

>  <SCORE.SYSTEM.DIHEDRAL>
0

>  <SCORE.SYSTEM.SOLV>
0

>  <SCORE.SYSTEM.norm>
0

>  <SCORE.heavy>
26

>  <SCORE.norm>
-0.648008

>  <RMSD>
0.780

$$$$
ligand
 OpenBabel11021811483D
libRbt.so/2013.1/901 2013/11/27
 26 28  0  0  0  0  0  0  0  0999 V2000
   48.0386   58.8161   27.7366 N   0  0  0  0  0  0  0  0  0  0  0  0
   47.9919   57.3789   27.4531 C   0  0  2  0  0  0  0  0  0  0  0  0
   46.6041   56.7533   27.6095 C   0  0  0  0  0  0  0  0  0  0  0  0
   45.8497   57.2191   28.4639 O   0  0  0  0  0  0  0  0  0  0  0  0
   48.9604   56.5246   28.2813 C   0  0  0  0  0  0  0  0  0  0  0  0
   48.8734   55.0084   28.2714 C   0  0  0  0  0  0  0  0  0  0  0  0
   50.1295   54.4143   29.4276 S   0  0  0  0  0  0  0  0  0  0  0  0
   48.7928   54.2412   30.6337 C   0  0  0  0  0  0  0  0  0  0  0  0
   49.1546   54.6984   32.0509 C   0  0  1  0  0  0  0  0  0  0  0  0
   49.7313   56.0087   32.0913 O   0  0  0  0  0  0  0  0  0  0  0  0
   47.9219   54.7237   32.9429 C   0  0  1  0  0  0  0  0  0  0  0  0
   47.7591   53.5028   33.6301 O   0  0  0  0  0  0  0  0  0  0  0  0
   48.1466   55.9102   33.8712 C   0  0  1  0  0  0  0  0  0  0  0  0
   48.7960   55.5226   35.0653 O   0  0  0  0  0  0  0  0  0  0  0  0
   49.1012   56.7927   33.0913 C   0  0  2  0  0  0  0  0  0  0  0  0
   46.2062   55.8149   26.9081 O   0  0  0  0  0  0  0  0  0  0  0  0
   44.4991   59.0854   32.0038 N   0  0  0  0  0  0  0  0  0  0  0  0
   44.7226   57.8757   32.6115 C   0  0  0  0  0  0  0  0  0  0  0  0
   46.0136   57.4274   32.7968 N   0  0  0  0  0  0  0  0  0  0  0  0
   47.0687   58.1728   32.4234 C   0  0  0  0  0  0  0  0  0  0  0  0
   46.8648   59.3971   31.8101 C   0  0  0  0  0  0  0  0  0  0  0  0
   45.5734   59.8399   31.6036 C   0  0  0  0  0  0  0  0  0  0  0  0
   45.3559   61.0087   31.0324 N   0  0  0  0  0  0  0  0  0  0  0  0
   48.0714   59.9404   31.5344 N   0  0  0  0  0  0  0  0  0  0  0  0
   49.0306   59.0702   31.9395 C   0  0  0  0  0  0  0  0  0  0  0  0
   48.4217   57.9670   32.4964 N   0  0  0  0  0  0  0  0  0  0  0  0
  2  1  1  1  0  0  0
  2  3  1  0  0  0  0
  2  5  1  0  0  0  0
  3  4  1  0  0  0  0
  3 16  1  0  0  0  0
  5  6  1  0  0  0  0
  6  7  1  0  0  0  0
  7  8  1  0  0  0  0
  9  8  1  6  0  0  0
  9 10  1  0  0  0  0
  9 11  1  0  0  0  0
 10 15  1  0  0  0  0
 11 12  1  1  0  0  0
 11 13  1  0  0  0  0
 13 14  1  1  0  0  0
 13 15  1  0  0  0  0
 15 26  1  6  0  0  0
 17 18  2  0  0  0  0
 17 22  1  0  0  0  0
 18 19  1  0  0  0  0
 19 20  2  0  0  0  0
 20 21  1  0  0  0  0
 20 26  1  0  0  0  0
 21 22  2  0  0  0  0
 21 24  1  0  0  0  0
 22 23  1  0  0  0  0
 24 25  2  0  0  0  0
 25 26  1  0  0  0  0
M  END
>  <CHROM.1>
-32.37414305,169.83694884,-177.36904487,98.97234365,-138.47156311,50.75557095
111.15275213,47.74577794,56.84615353,30.97441324,3.11109244,-0.97582657,1.55459997

>  <Name>
ligand

>  <RI>
0

>  <Rbt.Current_Directory>
/home/itssahil/PROJECTS/Mol_Feturizer/New_Systems/rnas/3GX3

>  <Rbt.Executable>
rbdock ($Id: //depot/dev/client3/rdock/2013.1/src/exe/rbdock.cxx#4 $)

>  <Rbt.Library>
libRbt.so (2013.1, Build901 2013/11/27)

>  <Rbt.Parameter_File>
/export/apps/rDock/src/rDock_2013.1_src/data/scripts/dock_solv.prm

>  <Rbt.Receptor>
prm/pocket_docking_2.prm

>  <SCORE>
-12.8076

>  <SCORE.INTER>
-10.7714

>  <SCORE.INTER.CONST>
1

>  <SCORE.INTER.POLAR>
0

>  <SCORE.INTER.ROT>
7

>  <SCORE.INTER.SOLV>
22.8156

>  <SCORE.INTER.VDW>
-23.0528

>  <SCORE.INTER.norm>
-0.414286

>  <SCORE.INTRA>
-2.09853

>  <SCORE.INTRA.DIHEDRAL>
1.449

>  <SCORE.INTRA.DIHEDRAL.0>
5.78979

>  <SCORE.INTRA.POLAR>
0

>  <SCORE.INTRA.POLAR.0>
0

>  <SCORE.INTRA.REPUL>
0

>  <SCORE.INTRA.REPUL.0>
0

>  <SCORE.INTRA.SOLV>
-0.974914

>  <SCORE.INTRA.SOLV.lig_0>
-49.9151

>  <SCORE.INTRA.VDW>
-2.33558

>  <SCORE.INTRA.VDW.0>
-0.211125

>  <SCORE.INTRA.norm>
-0.0807129

>  <SCORE.RESTR>
0.0623768

>  <SCORE.RESTR.CAVITY>
0.0623768

>  <SCORE.RESTR.norm>
0.00239911

>  <SCORE.SYSTEM>
0

>  <SCORE.SYSTEM.CONST>
0

>  <SCORE.SYSTEM.DIHEDRAL>
0

>  <SCORE.SYSTEM.SOLV>
0

>  <SCORE.SYSTEM.norm>
0

>  <SCORE.heavy>
26

>  <SCORE.norm>
-0.4926

>  <RMSD>
0.877

$$$$
ligand
 OpenBabel11021811483D
libRbt.so/2013.1/901 2013/11/27
 26 28  0  0  0  0  0  0  0  0999 V2000
   48.2235   58.4648   28.4718 N   0  0  0  0  0  0  0  0  0  0  0  0
   48.3541   57.1634   27.8107 C   0  0  2  0  0  0  0  0  0  0  0  0
   47.0203   56.4802   27.5011 C   0  0  0  0  0  0  0  0  0  0  0  0
   46.0123   56.8839   28.0816 O   0  0  0  0  0  0  0  0  0  0  0  0
   49.2140   56.1393   28.5627 C   0  0  0  0  0  0  0  0  0  0  0  0
   49.1116   55.9858   30.0702 C   0  0  0  0  0  0  0  0  0  0  0  0
   47.5613   55.1143   30.3937 S   0  0  0  0  0  0  0  0  0  0  0  0
   48.5579   53.8636   31.2387 C   0  0  0  0  0  0  0  0  0  0  0  0
   48.8819   54.1922   32.7000 C   0  0  1  0  0  0  0  0  0  0  0  0
   49.5858   55.4294   32.8577 O   0  0  0  0  0  0  0  0  0  0  0  0
   47.6087   54.2924   33.5275 C   0  0  1  0  0  0  0  0  0  0  0  0
   47.2828   53.0556   34.1221 O   0  0  0  0  0  0  0  0  0  0  0  0
   47.8991   55.3894   34.5436 C   0  0  1  0  0  0  0  0  0  0  0  0
   48.4355   54.8629   35.7406 O   0  0  0  0  0  0  0  0  0  0  0  0
   48.9821   56.2126   33.8744 C   0  0  2  0  0  0  0  0  0  0  0  0
   46.9112   55.5552   26.6865 O   0  0  0  0  0  0  0  0  0  0  0  0
   44.7643   58.8064   32.1137 N   0  0  0  0  0  0  0  0  0  0  0  0
   44.8388   57.5122   32.5634 C   0  0  0  0  0  0  0  0  0  0  0  0
   46.0501   56.9950   32.9723 N   0  0  0  0  0  0  0  0  0  0  0  0
   47.1634   57.7493   32.9731 C   0  0  0  0  0  0  0  0  0  0  0  0
   47.1092   59.0581   32.5248 C   0  0  0  0  0  0  0  0  0  0  0  0
   45.9025   59.5730   32.0947 C   0  0  0  0  0  0  0  0  0  0  0  0
   45.8253   60.8210   31.6752 N   0  0  0  0  0  0  0  0  0  0  0  0
   48.3469   59.5925   32.6237 N   0  0  0  0  0  0  0  0  0  0  0  0
   49.1841   58.6376   33.1019 C   0  0  0  0  0  0  0  0  0  0  0  0
   48.4614   57.4862   33.3258 N   0  0  0  0  0  0  0  0  0  0  0  0
  2  1  1  1  0  0  0
  2  3  1  0  0  0  0
  2  5  1  0  0  0  0
  3  4  1  0  0  0  0
  3 16  1  0  0  0  0
  5  6  1  0  0  0  0
  6  7  1  0  0  0  0
  7  8  1  0  0  0  0
  9  8  1  6  0  0  0
  9 10  1  0  0  0  0
  9 11  1  0  0  0  0
 10 15  1  0  0  0  0
 11 12  1  1  0  0  0
 11 13  1  0  0  0  0
 13 14  1  1  0  0  0
 13 15  1  0  0  0  0
 15 26  1  6  0  0  0
 17 18  2  0  0  0  0
 17 22  1  0  0  0  0
 18 19  1  0  0  0  0
 19 20  2  0  0  0  0
 20 21  1  0  0  0  0
 20 26  1  0  0  0  0
 21 22  2  0  0  0  0
 21 24  1  0  0  0  0
 22 23  1  0  0  0  0
 24 25  2  0  0  0  0
 25 26  1  0  0  0  0
M  END
>  <CHROM.1>
-16.69481646,41.49393824,74.61682705,122.35020299,84.25346148,-58.42116386
98.54938525,47.60141933,56.59382670,31.54169998,1.92956262,1.19844647,-1.64443125

>  <Name>
ligand

>  <RI>
0

>  <Rbt.Current_Directory>
/home/itssahil/PROJECTS/Mol_Feturizer/New_Systems/rnas/3GX3

>  <Rbt.Executable>
rbdock ($Id: //depot/dev/client3/rdock/2013.1/src/exe/rbdock.cxx#4 $)

>  <Rbt.Library>
libRbt.so (2013.1, Build901 2013/11/27)

>  <Rbt.Parameter_File>
/export/apps/rDock/src/rDock_2013.1_src/data/scripts/dock_solv.prm

>  <Rbt.Receptor>
prm/pocket_docking_2.prm

>  <SCORE>
-13.5925

>  <SCORE.INTER>
-11.0283

>  <SCORE.INTER.CONST>
1

>  <SCORE.INTER.POLAR>
0

>  <SCORE.INTER.ROT>
7

>  <SCORE.INTER.SOLV>
19.1502

>  <SCORE.INTER.VDW>
-22.0023

>  <SCORE.INTER.norm>
-0.424167

>  <SCORE.INTRA>
-2.56447

>  <SCORE.INTRA.DIHEDRAL>
2.36489

>  <SCORE.INTRA.DIHEDRAL.0>
5.78979

>  <SCORE.INTRA.POLAR>
0

>  <SCORE.INTRA.POLAR.0>
0

>  <SCORE.INTRA.REPUL>
0

>  <SCORE.INTRA.REPUL.0>
0

>  <SCORE.INTRA.SOLV>
0.721407

>  <SCORE.INTRA.SOLV.lig_0>
-49.9151

>  <SCORE.INTRA.VDW>
-4.10762

>  <SCORE.INTRA.VDW.0>
-0.211125

>  <SCORE.INTRA.norm>
-0.0986335

>  <SCORE.RESTR>
0.000322744

>  <SCORE.RESTR.CAVITY>
0.000322744

>  <SCORE.RESTR.norm>
1.24132e-05

>  <SCORE.SYSTEM>
0

>  <SCORE.SYSTEM.CONST>
0

>  <SCORE.SYSTEM.DIHEDRAL>
0

>  <SCORE.SYSTEM.SOLV>
0

>  <SCORE.SYSTEM.norm>
0

>  <SCORE.heavy>
26

>  <SCORE.norm>
-0.522788

>  <RMSD>
0.900

$$$$
ligand
 OpenBabel11021811483D
libRbt.so/2013.1/901 2013/11/27
 26 28  0  0  0  0  0  0  0  0999 V2000
   48.1655   58.5321   28.4514 N   0  0  0  0  0  0  0  0  0  0  0  0
   47.9758   57.2047   27.8601 C   0  0  2  0  0  0  0  0  0  0  0  0
   46.5334   56.6960   27.9093 C   0  0  0  0  0  0  0  0  0  0  0  0
   45.6968   57.3780   28.5019 O   0  0  0  0  0  0  0  0  0  0  0  0
   48.8573   56.0994   28.4558 C   0  0  0  0  0  0  0  0  0  0  0  0
   48.9275   55.8757   29.9563 C   0  0  0  0  0  0  0  0  0  0  0  0
   47.3640   55.1045   30.4343 S   0  0  0  0  0  0  0  0  0  0  0  0
   48.3573   53.8217   31.2337 C   0  0  0  0  0  0  0  0  0  0  0  0
   48.7927   54.1566   32.6643 C   0  0  1  0  0  0  0  0  0  0  0  0
   49.5552   55.3656   32.7540 O   0  0  0  0  0  0  0  0  0  0  0  0
   47.5837   54.3210   33.5739 C   0  0  1  0  0  0  0  0  0  0  0  0
   47.2490   53.1070   34.2093 O   0  0  0  0  0  0  0  0  0  0  0  0
   47.9866   55.4188   34.5499 C   0  0  1  0  0  0  0  0  0  0  0  0
   48.5811   54.8869   35.7166 O   0  0  0  0  0  0  0  0  0  0  0  0
   49.0541   56.1870   33.7959 C   0  0  2  0  0  0  0  0  0  0  0  0
   46.1725   55.6427   27.3697 O   0  0  0  0  0  0  0  0  0  0  0  0
   44.8501   58.8910   32.1735 N   0  0  0  0  0  0  0  0  0  0  0  0
   44.9051   57.5959   32.6232 C   0  0  0  0  0  0  0  0  0  0  0  0
   46.1152   57.0468   32.9919 N   0  0  0  0  0  0  0  0  0  0  0  0
   47.2478   57.7709   32.9535 C   0  0  0  0  0  0  0  0  0  0  0  0
   47.2135   59.0802   32.5046 C   0  0  0  0  0  0  0  0  0  0  0  0
   46.0071   59.6268   32.1145 C   0  0  0  0  0  0  0  0  0  0  0  0
   45.9492   60.8759   31.6952 N   0  0  0  0  0  0  0  0  0  0  0  0
   48.4676   59.5813   32.5604 N   0  0  0  0  0  0  0  0  0  0  0  0
   49.2947   58.6049   33.0119 C   0  0  0  0  0  0  0  0  0  0  0  0
   48.5494   57.4736   33.2626 N   0  0  0  0  0  0  0  0  0  0  0  0
  2  1  1  1  0  0  0
  2  3  1  0  0  0  0
  2  5  1  0  0  0  0
  3  4  1  0  0  0  0
  3 16  1  0  0  0  0
  5  6  1  0  0  0  0
  6  7  1  0  0  0  0
  7  8  1  0  0  0  0
  9  8  1  6  0  0  0
  9 10  1  0  0  0  0
  9 11  1  0  0  0  0
 10 15  1  0  0  0  0
 11 12  1  1  0  0  0
 11 13  1  0  0  0  0
 13 14  1  1  0  0  0
 13 15  1  0  0  0  0
 15 26  1  6  0  0  0
 17 18  2  0  0  0  0
 17 22  1  0  0  0  0
 18 19  1  0  0  0  0
 19 20  2  0  0  0  0
 20 21  1  0  0  0  0
 20 26  1  0  0  0  0
 21 22  2  0  0  0  0
 21 24  1  0  0  0  0
 22 23  1  0  0  0  0
 24 25  2  0  0  0  0
 25 26  1  0  0  0  0
M  END
>  <CHROM.1>
-4.73214485,50.98676883,73.46817314,127.46539315,85.64109960,-58.13848341
96.31482871,47.51917246,56.63283552,31.59128937,2.33489741,1.22960438,-1.88440877

>  <Name>
ligand

>  <RI>
0

>  <Rbt.Current_Directory>
/home/itssahil/PROJECTS/Mol_Feturizer/New_Systems/rnas/3GX3

>  <Rbt.Executable>
rbdock ($Id: //depot/dev/client3/rdock/2013.1/src/exe/rbdock.cxx#4 $)

>  <Rbt.Library>
libRbt.so (2013.1, Build901 2013/11/27)

>  <Rbt.Parameter_File>
/export/apps/rDock/src/rDock_2013.1_src/data/scripts/dock_solv.prm

>  <Rbt.Receptor>
prm/pocket_docking_2.prm

>  <SCORE>
-13.8938

>  <SCORE.INTER>
-10.639

>  <SCORE.INTER.CONST>
1

>  <SCORE.INTER.POLAR>
0

>  <SCORE.INTER.ROT>
7

>  <SCORE.INTER.SOLV>
19.3774

>  <SCORE.INTER.VDW>
-21.8185

>  <SCORE.INTER.norm>
-0.409193

>  <SCORE.INTRA>
-3.25926

>  <SCORE.INTRA.DIHEDRAL>
1.32336

>  <SCORE.INTRA.DIHEDRAL.0>
5.78979

>  <SCORE.INTRA.POLAR>
0

>  <SCORE.INTRA.POLAR.0>
0

>  <SCORE.INTRA.REPUL>
0

>  <SCORE.INTRA.REPUL.0>
0

>  <SCORE.INTRA.SOLV>
0.598383

>  <SCORE.INTRA.SOLV.lig_0>
-49.9151

>  <SCORE.INTRA.VDW>
-4.22013

>  <SCORE.INTRA.VDW.0>
-0.211125

>  <SCORE.INTRA.norm>
-0.125356

>  <SCORE.RESTR>
0.00451333

>  <SCORE.RESTR.CAVITY>
0.00451333

>  <SCORE.RESTR.norm>
0.00017359

>  <SCORE.SYSTEM>
0

>  <SCORE.SYSTEM.CONST>
0

>  <SCORE.SYSTEM.DIHEDRAL>
0

>  <SCORE.SYSTEM.SOLV>
0

>  <SCORE.SYSTEM.norm>
0

>  <SCORE.heavy>
26

>  <SCORE.norm>
-0.534375

>  <RMSD>
0.903

$$$$
ligand
 OpenBabel11021811483D
libRbt.so/2013.1/901 2013/11/27
 26 28  0  0  0  0  0  0  0  0999 V2000
   49.0057   56.5341   29.5498 N   0  0  0  0  0  0  0  0  0  0  0  0
   48.6731   56.0838   28.1954 C   0  0  2  0  0  0  0  0  0  0  0  0
   47.2137   56.3158   27.7977 C   0  0  0  0  0  0  0  0  0  0  0  0
   46.6798   57.3719   28.1376 O   0  0  0  0  0  0  0  0  0  0  0  0
   48.9822   54.6084   27.9102 C   0  0  0  0  0  0  0  0  0  0  0  0
   48.4912   53.5108   28.8381 C   0  0  0  0  0  0  0  0  0  0  0  0
   49.6896   53.4045   30.1872 S   0  0  0  0  0  0  0  0  0  0  0  0
   48.3237   53.8179   31.2984 C   0  0  0  0  0  0  0  0  0  0  0  0
   48.7500   54.1381   32.7351 C   0  0  1  0  0  0  0  0  0  0  0  0
   49.5476   55.3232   32.8364 O   0  0  0  0  0  0  0  0  0  0  0  0
   47.5345   54.3383   33.6287 C   0  0  1  0  0  0  0  0  0  0  0  0
   47.1547   53.1346   34.2581 O   0  0  0  0  0  0  0  0  0  0  0  0
   47.9576   55.4225   34.6114 C   0  0  1  0  0  0  0  0  0  0  0  0
   48.5201   54.8717   35.7853 O   0  0  0  0  0  0  0  0  0  0  0  0
   49.0579   56.1586   33.8727 C   0  0  2  0  0  0  0  0  0  0  0  0
   46.5572   55.4981   27.1408 O   0  0  0  0  0  0  0  0  0  0  0  0
   44.9670   58.9761   32.1572 N   0  0  0  0  0  0  0  0  0  0  0  0
   44.9778   57.6775   32.5999 C   0  0  0  0  0  0  0  0  0  0  0  0
   46.1637   57.0962   32.9969 N   0  0  0  0  0  0  0  0  0  0  0  0
   47.3145   57.7920   32.9930 C   0  0  0  0  0  0  0  0  0  0  0  0
   47.3247   59.1042   32.5516 C   0  0  0  0  0  0  0  0  0  0  0  0
   46.1431   59.6830   32.1333 C   0  0  0  0  0  0  0  0  0  0  0  0
   46.1274   60.9356   31.7205 N   0  0  0  0  0  0  0  0  0  0  0  0
   48.5890   59.5735   32.6436 N   0  0  0  0  0  0  0  0  0  0  0  0
   49.3792   58.5741   33.1106 C   0  0  0  0  0  0  0  0  0  0  0  0
   48.5997   57.4604   33.3344 N   0  0  0  0  0  0  0  0  0  0  0  0
  2  1  1  1  0  0  0
  2  3  1  0  0  0  0
  2  5  1  0  0  0  0
  3  4  1  0  0  0  0
  3 16  1  0  0  0  0
  5  6  1  0  0  0  0
  6  7  1  0  0  0  0
  7  8  1  0  0  0  0
  9  8  1  6  0  0  0
  9 10  1  0  0  0  0
  9 11  1  0  0  0  0
 10 15  1  0  0  0  0
 11 12  1  1  0  0  0
 11 13  1  0  0  0  0
 13 14  1  1  0  0  0
 13 15  1  0  0  0  0
 15 26  1  6  0  0  0
 17 18  2  0  0  0  0
 17 22  1  0  0  0  0
 18 19  1  0  0  0  0
 19 20  2  0  0  0  0
 20 21  1  0  0  0  0
 20 26  1  0  0  0  0
 21 22  2  0  0  0  0
 21 24  1  0  0  0  0
 22 23  1  0  0  0  0
 24 25  2  0  0  0  0
 25 26  1  0  0  0  0
M  END
>  <CHROM.1>
40.25258402,51.18328651,-83.33706638,119.41202591,-169.86492300,65.19109079
95.45118312,47.86383319,56.22050532,31.56395897,0.97116132,1.16304034,-1.67591055

>  <Name>
ligand

>  <RI>
0

>  <Rbt.Current_Directory>
/home/itssahil/PROJECTS/Mol_Feturizer/New_Systems/rnas/3GX3

>  <Rbt.Executable>
rbdock ($Id: //depot/dev/client3/rdock/2013.1/src/exe/rbdock.cxx#4 $)

>  <Rbt.Library>
libRbt.so (2013.1, Build901 2013/11/27)

>  <Rbt.Parameter_File>
/export/apps/rDock/src/rDock_2013.1_src/data/scripts/dock_solv.prm

>  <Rbt.Receptor>
prm/pocket_docking_2.prm

>  <SCORE>
-12.4024

>  <SCORE.INTER>
-12.3368

>  <SCORE.INTER.CONST>
1

>  <SCORE.INTER.POLAR>
0

>  <SCORE.INTER.ROT>
7

>  <SCORE.INTER.SOLV>
15.609

>  <SCORE.INTER.VDW>
-21.6942

>  <SCORE.INTER.norm>
-0.474493

>  <SCORE.INTRA>
-0.06605

>  <SCORE.INTRA.DIHEDRAL>
1.8437

>  <SCORE.INTRA.DIHEDRAL.0>
5.78979

>  <SCORE.INTRA.POLAR>
0

>  <SCORE.INTRA.POLAR.0>
0

>  <SCORE.INTRA.REPUL>
0

>  <SCORE.INTRA.REPUL.0>
0

>  <SCORE.INTRA.SOLV>
2.65812

>  <SCORE.INTRA.SOLV.lig_0>
-49.9151

>  <SCORE.INTRA.VDW>
-2.31696

>  <SCORE.INTRA.VDW.0>
-0.211125

>  <SCORE.INTRA.norm>
-0.00254039

>  <SCORE.RESTR>
0.000501392

>  <SCORE.RESTR.CAVITY>
0.000501392

>  <SCORE.RESTR.norm>
1.92843e-05

>  <SCORE.SYSTEM>
0

>  <SCORE.SYSTEM.CONST>
0

>  <SCORE.SYSTEM.DIHEDRAL>
0

>  <SCORE.SYSTEM.SOLV>
0

>  <SCORE.SYSTEM.norm>
0

>  <SCORE.heavy>
26

>  <SCORE.norm>
-0.477014

>  <RMSD>
0.999

$$$$
ligand
 OpenBabel11021811483D
libRbt.so/2013.1/901 2013/11/27
 26 28  0  0  0  0  0  0  0  0999 V2000
   47.3867   57.8365   28.5839 N   0  0  0  0  0  0  0  0  0  0  0  0
   47.7468   56.9165   27.5014 C   0  0  2  0  0  0  0  0  0  0  0  0
   46.5880   56.0505   27.0023 C   0  0  0  0  0  0  0  0  0  0  0  0
   46.7133   55.4814   25.9177 O   0  0  0  0  0  0  0  0  0  0  0  0
   48.9072   55.9650   27.8205 C   0  0  0  0  0  0  0  0  0  0  0  0
   48.7160   54.7792   28.7501 C   0  0  0  0  0  0  0  0  0  0  0  0
   47.8864   55.4123   30.2261 S   0  0  0  0  0  0  0  0  0  0  0  0
   48.5769   53.9883   31.1018 C   0  0  0  0  0  0  0  0  0  0  0  0
   48.8447   54.2290   32.5914 C   0  0  1  0  0  0  0  0  0  0  0  0
   49.5654   55.4400   32.8469 O   0  0  0  0  0  0  0  0  0  0  0  0
   47.5396   54.3115   33.3698 C   0  0  1  0  0  0  0  0  0  0  0  0
   47.1646   53.0514   33.8804 O   0  0  0  0  0  0  0  0  0  0  0  0
   47.8080   55.3444   34.4566 C   0  0  1  0  0  0  0  0  0  0  0  0
   48.2825   54.7414   35.6435 O   0  0  0  0  0  0  0  0  0  0  0  0
   48.9344   56.1792   33.8798 C   0  0  2  0  0  0  0  0  0  0  0  0
   45.5437   55.8880   27.6458 O   0  0  0  0  0  0  0  0  0  0  0  0
   44.8400   58.9666   32.1238 N   0  0  0  0  0  0  0  0  0  0  0  0
   44.8687   57.6497   32.5078 C   0  0  0  0  0  0  0  0  0  0  0  0
   46.0532   57.0814   32.9273 N   0  0  0  0  0  0  0  0  0  0  0  0
   47.1836   57.8060   33.0026 C   0  0  0  0  0  0  0  0  0  0  0  0
   47.1754   59.1369   32.6214 C   0  0  0  0  0  0  0  0  0  0  0  0
   45.9961   59.7039   32.1807 C   0  0  0  0  0  0  0  0  0  0  0  0
   45.9626   60.9733   31.8244 N   0  0  0  0  0  0  0  0  0  0  0  0
   48.4215   59.6339   32.7870 N   0  0  0  0  0  0  0  0  0  0  0  0
   49.2195   58.6347   33.2411 C   0  0  0  0  0  0  0  0  0  0  0  0
   48.4626   57.4922   33.3819 N   0  0  0  0  0  0  0  0  0  0  0  0
  2  1  1  1  0  0  0
  2  3  1  0  0  0  0
  2  5  1  0  0  0  0
  3  4  1  0  0  0  0
  3 16  1  0  0  0  0
  5  6  1  0  0  0  0
  6  7  1  0  0  0  0
  7  8  1  0  0  0  0
  9  8  1  6  0  0  0
  9 10  1  0  0  0  0
  9 11  1  0  0  0  0
 10 15  1  0  0  0  0
 11 12  1  1  0  0  0
 11 13  1  0  0  0  0
 13 14  1  1  0  0  0
 13 15  1  0  0  0  0
 15 26  1  6  0  0  0
 17 18  2  0  0  0  0
 17 22  1  0  0  0  0
 18 19  1  0  0  0  0
 19 20  2  0  0  0  0
 20 21  1  0  0  0  0
 20 26  1  0  0  0  0
 21 22  2  0  0  0  0
 21 24  1  0  0  0  0
 22 23  1  0  0  0  0
 24 25  2  0  0  0  0
 25 26  1  0  0  0  0
M  END
>  <CHROM.1>
163.82731290,74.26986217,-48.77083582,-156.62208394,150.53937562,-48.88087929
99.19033207,47.50692887,56.50476608,31.36628125,1.85238307,1.19700070,-1.89161682

>  <Name>
ligand

>  <RI>
0

>  <Rbt.Current_Directory>
/home/itssahil/PROJECTS/Mol_Feturizer/New_Systems/rnas/3GX3

>  <Rbt.Executable>
rbdock ($Id: //depot/dev/client3/rdock/2013.1/src/exe/rbdock.cxx#4 $)

>  <Rbt.Library>
libRbt.so (2013.1, Build901 2013/11/27)

>  <Rbt.Parameter_File>
/export/apps/rDock/src/rDock_2013.1_src/data/scripts/dock_solv.prm

>  <Rbt.Receptor>
prm/pocket_docking_2.prm

>  <SCORE>
-13.6886

>  <SCORE.INTER>
-11.3617

>  <SCORE.INTER.CONST>
1

>  <SCORE.INTER.POLAR>
0

>  <SCORE.INTER.ROT>
7

>  <SCORE.INTER.SOLV>
16.0483

>  <SCORE.INTER.VDW>
-21.1906

>  <SCORE.INTER.norm>
-0.436989

>  <SCORE.INTRA>
-2.33975

>  <SCORE.INTRA.DIHEDRAL>
0.588076

>  <SCORE.INTRA.DIHEDRAL.0>
5.78979

>  <SCORE.INTRA.POLAR>
0

>  <SCORE.INTRA.POLAR.0>
0

>  <SCORE.INTRA.REPUL>
0

>  <SCORE.INTRA.REPUL.0>
0

>  <SCORE.INTRA.SOLV>
1.04168

>  <SCORE.INTRA.SOLV.lig_0>
-49.9151

>  <SCORE.INTRA.VDW>
-3.15463

>  <SCORE.INTRA.VDW.0>
-0.211125

>  <SCORE.INTRA.norm>
-0.0899905

>  <SCORE.RESTR>
0.0128721

>  <SCORE.RESTR.CAVITY>
0.0128721

>  <SCORE.RESTR.norm>
0.000495081

>  <SCORE.SYSTEM>
0

>  <SCORE.SYSTEM.CONST>
0

>  <SCORE.SYSTEM.DIHEDRAL>
0

>  <SCORE.SYSTEM.SOLV>
0

>  <SCORE.SYSTEM.norm>
0

>  <SCORE.heavy>
26

>  <SCORE.norm>
-0.526485

>  <RMSD>
1.061

$$$$
ligand
 OpenBabel11021811483D
libRbt.so/2013.1/901 2013/11/27
 26 28  0  0  0  0  0  0  0  0999 V2000
   47.2056   54.9006   28.0585 N   0  0  0  0  0  0  0  0  0  0  0  0
   47.9064   56.1650   28.2994 C   0  0  2  0  0  0  0  0  0  0  0  0
   47.6490   57.2372   27.2383 C   0  0  0  0  0  0  0  0  0  0  0  0
   47.8298   58.4154   27.5472 O   0  0  0  0  0  0  0  0  0  0  0  0
   49.4285   56.0428   28.4476 C   0  0  0  0  0  0  0  0  0  0  0  0
   50.0571   55.6274   29.7663 C   0  0  0  0  0  0  0  0  0  0  0  0
   49.9218   53.8270   29.8552 S   0  0  0  0  0  0  0  0  0  0  0  0
   48.5467   54.0878   31.0008 C   0  0  0  0  0  0  0  0  0  0  0  0
   48.9708   54.3844   32.4432 C   0  0  1  0  0  0  0  0  0  0  0  0
   49.6311   55.6468   32.5892 O   0  0  0  0  0  0  0  0  0  0  0  0
   47.7640   54.4001   33.3701 C   0  0  1  0  0  0  0  0  0  0  0  0
   47.5397   53.1315   33.9443 O   0  0  0  0  0  0  0  0  0  0  0  0
   48.0865   55.4764   34.3985 C   0  0  1  0  0  0  0  0  0  0  0  0
   48.7380   54.9373   35.5310 O   0  0  0  0  0  0  0  0  0  0  0  0
   49.0767   56.3690   33.6767 C   0  0  2  0  0  0  0  0  0  0  0  0
   47.2835   56.9702   26.0868 O   0  0  0  0  0  0  0  0  0  0  0  0
   44.6556   58.7702   32.1582 N   0  0  0  0  0  0  0  0  0  0  0  0
   44.8262   57.4602   32.5286 C   0  0  0  0  0  0  0  0  0  0  0  0
   46.0785   57.0029   32.8816 N   0  0  0  0  0  0  0  0  0  0  0  0
   47.1393   57.8293   32.9050 C   0  0  0  0  0  0  0  0  0  0  0  0
   46.9879   59.1552   32.5364 C   0  0  0  0  0  0  0  0  0  0  0  0
   45.7398   59.6116   32.1620 C   0  0  0  0  0  0  0  0  0  0  0  0
   45.5702   60.8738   31.8190 N   0  0  0  0  0  0  0  0  0  0  0  0
   48.1895   59.7652   32.6420 N   0  0  0  0  0  0  0  0  0  0  0  0
   49.0992   58.8428   33.0456 C   0  0  0  0  0  0  0  0  0  0  0  0
   48.4599   57.6343   33.2152 N   0  0  0  0  0  0  0  0  0  0  0  0
  2  1  1  6  0  0  0
  2  3  1  0  0  0  0
  2  5  1  0  0  0  0
  3  4  1  0  0  0  0
  3 16  1  0  0  0  0
  5  6  1  0  0  0  0
  6  7  1  0  0  0  0
  7  8  1  0  0  0  0
  9  8  1  6  0  0  0
  9 10  1  0  0  0  0
  9 11  1  0  0  0  0
 10 15  1  0  0  0  0
 11 12  1  1  0  0  0
 11 13  1  0  0  0  0
 13 14  1  1  0  0  0
 13 15  1  0  0  0  0
 15 26  1  6  0  0  0
 17 18  2  0  0  0  0
 17 22  1  0  0  0  0
 18 19  1  0  0  0  0
 19 20  2  0  0  0  0
 20 21  1  0  0  0  0
 20 26  1  0  0  0  0
 21 22  2  0  0  0  0
 21 24  1  0  0  0  0
 22 23  1  0  0  0  0
 24 25  2  0  0  0  0
 25 26  1  0  0  0  0
M  END
>  <CHROM.1>
157.59561152,-81.63732344,80.40541244,-102.77074423,-80.87446656,67.37703126
94.78170218,47.91852265,56.51664347,31.35931758,-1.31504806,-1.05747102,1.69258072

>  <Name>
ligand

>  <RI>
0

>  <Rbt.Current_Directory>
/home/itssahil/PROJECTS/Mol_Feturizer/New_Systems/rnas/3GX3

>  <Rbt.Executable>
rbdock ($Id: //depot/dev/client3/rdock/2013.1/src/exe/rbdock.cxx#4 $)

>  <Rbt.Library>
libRbt.so (2013.1, Build901 2013/11/27)

>  <Rbt.Parameter_File>
/export/apps/rDock/src/rDock_2013.1_src/data/scripts/dock_solv.prm

>  <Rbt.Receptor>
prm/pocket_docking_2.prm

>  <SCORE>
-16.226

>  <SCORE.INTER>
-15.8882

>  <SCORE.INTER.CONST>
1

>  <SCORE.INTER.POLAR>
0

>  <SCORE.INTER.ROT>
7

>  <SCORE.INTER.SOLV>
14.7028

>  <SCORE.INTER.VDW>
-23.7597

>  <SCORE.INTER.norm>
-0.611083

>  <SCORE.INTRA>
-0.338341

>  <SCORE.INTRA.DIHEDRAL>
2.91899

>  <SCORE.INTRA.DIHEDRAL.0>
5.78979

>  <SCORE.INTRA.POLAR>
0

>  <SCORE.INTRA.POLAR.0>
0

>  <SCORE.INTRA.REPUL>
0

>  <SCORE.INTRA.REPUL.0>
0

>  <SCORE.INTRA.SOLV>
1.43942

>  <SCORE.INTRA.SOLV.lig_0>
-49.9151

>  <SCORE.INTRA.VDW>
-2.51755

>  <SCORE.INTRA.VDW.0>
-0.211125

>  <SCORE.INTRA.norm>
-0.0130131

>  <SCORE.RESTR>
0.000514847

>  <SCORE.RESTR.CAVITY>
0.000514847

>  <SCORE.RESTR.norm>
1.98018e-05

>  <SCORE.SYSTEM>
0

>  <SCORE.SYSTEM.CONST>
0

>  <SCORE.SYSTEM.DIHEDRAL>
0

>  <SCORE.SYSTEM.SOLV>
0

>  <SCORE.SYSTEM.norm>
0

>  <SCORE.heavy>
26

>  <SCORE.norm>
-0.624077

>  <RMSD>
1.078

$$$$
ligand
 OpenBabel11021811483D
libRbt.so/2013.1/901 2013/11/27
 26 28  0  0  0  0  0  0  0  0999 V2000
   46.5796   57.1553   28.9365 N   0  0  0  0  0  0  0  0  0  0  0  0
   47.6761   57.6001   28.0718 C   0  0  2  0  0  0  0  0  0  0  0  0
   47.3344   57.6103   26.5802 C   0  0  0  0  0  0  0  0  0  0  0  0
   46.7227   58.5799   26.1310 O   0  0  0  0  0  0  0  0  0  0  0  0
   48.9812   56.8081   28.2233 C   0  0  0  0  0  0  0  0  0  0  0  0
   49.0099   55.3010   28.0373 C   0  0  0  0  0  0  0  0  0  0  0  0
   50.2205   54.6608   29.2173 S   0  0  0  0  0  0  0  0  0  0  0  0
   48.8634   54.5770   30.4101 C   0  0  0  0  0  0  0  0  0  0  0  0
   49.2717   54.8746   31.8568 C   0  0  1  0  0  0  0  0  0  0  0  0
   49.8129   56.1891   32.0315 O   0  0  0  0  0  0  0  0  0  0  0  0
   48.0775   54.7537   32.7923 C   0  0  1  0  0  0  0  0  0  0  0  0
   47.9779   53.4554   33.3342 O   0  0  0  0  0  0  0  0  0  0  0  0
   48.3081   55.8287   33.8466 C   0  0  1  0  0  0  0  0  0  0  0  0
   49.0177   55.3238   34.9597 O   0  0  0  0  0  0  0  0  0  0  0  0
   49.2039   56.8281   33.1416 C   0  0  2  0  0  0  0  0  0  0  0  0
   47.6578   56.6979   25.8096 O   0  0  0  0  0  0  0  0  0  0  0  0
   44.4963   58.9972   32.2749 N   0  0  0  0  0  0  0  0  0  0  0  0
   44.7796   57.7203   32.6896 C   0  0  0  0  0  0  0  0  0  0  0  0
   46.0910   57.3230   32.8456 N   0  0  0  0  0  0  0  0  0  0  0  0
   47.1066   58.1784   32.6323 C   0  0  0  0  0  0  0  0  0  0  0  0
   46.8420   59.4717   32.2150 C   0  0  0  0  0  0  0  0  0  0  0  0
   45.5310   59.8668   32.0373 C   0  0  0  0  0  0  0  0  0  0  0  0
   45.2554   61.0978   31.6522 N   0  0  0  0  0  0  0  0  0  0  0  0
   48.0189   60.1208   32.0712 N   0  0  0  0  0  0  0  0  0  0  0  0
   49.0201   59.2535   32.3654 C   0  0  0  0  0  0  0  0  0  0  0  0
   48.4675   58.0417   32.7182 N   0  0  0  0  0  0  0  0  0  0  0  0
  2  1  1  1  0  0  0
  2  3  1  0  0  0  0
  2  5  1  0  0  0  0
  3  4  1  0  0  0  0
  3 16  1  0  0  0  0
  5  6  1  0  0  0  0
  6  7  1  0  0  0  0
  7  8  1  0  0  0  0
  9  8  1  6  0  0  0
  9 10  1  0  0  0  0
  9 11  1  0  0  0  0
 10 15  1  0  0  0  0
 11 12  1  1  0  0  0
 11 13  1  0  0  0  0
 13 14  1  1  0  0  0
 13 15  1  0  0  0  0
 15 26  1  6  0  0  0
 17 18  2  0  0  0  0
 17 22  1  0  0  0  0
 18 19  1  0  0  0  0
 19 20  2  0  0  0  0
 20 21  1  0  0  0  0
 20 26  1  0  0  0  0
 21 22  2  0  0  0  0
 21 24  1  0  0  0  0
 22 23  1  0  0  0  0
 24 25  2  0  0  0  0
 25 26  1  0  0  0  0
M  END
>  <CHROM.1>
82.07438607,56.16562754,-144.71959009,88.01657870,-145.47110900,60.76658449
106.17532426,47.85940422,56.98279406,30.90650498,1.40043738,0.95260445,-1.50731496

>  <Name>
ligand

>  <RI>
0

>  <Rbt.Current_Directory>
/home/itssahil/PROJECTS/Mol_Feturizer/New_Systems/rnas/3GX3

>  <Rbt.Executable>
rbdock ($Id: //depot/dev/client3/rdock/2013.1/src/exe/rbdock.cxx#4 $)

>  <Rbt.Library>
libRbt.so (2013.1, Build901 2013/11/27)

>  <Rbt.Parameter_File>
/export/apps/rDock/src/rDock_2013.1_src/data/scripts/dock_solv.prm

>  <Rbt.Receptor>
prm/pocket_docking_3.prm

>  <SCORE>
-16.7624

>  <SCORE.INTER>
-16.7106

>  <SCORE.INTER.CONST>
1

>  <SCORE.INTER.POLAR>
0

>  <SCORE.INTER.ROT>
7

>  <SCORE.INTER.SOLV>
16.4206

>  <SCORE.INTER.VDW>
-24.8806

>  <SCORE.INTER.norm>
-0.642717

>  <SCORE.INTRA>
-0.0517171

>  <SCORE.INTRA.DIHEDRAL>
3.22508

>  <SCORE.INTRA.DIHEDRAL.0>
5.78979

>  <SCORE.INTRA.POLAR>
0

>  <SCORE.INTRA.POLAR.0>
0

>  <SCORE.INTRA.REPUL>
0

>  <SCORE.INTRA.REPUL.0>
0

>  <SCORE.INTRA.SOLV>
0.505336

>  <SCORE.INTRA.SOLV.lig_0>
-49.9151

>  <SCORE.INTRA.VDW>
-1.91692

>  <SCORE.INTRA.VDW.0>
-0.211125

>  <SCORE.INTRA.norm>
-0.00198912

>  <SCORE.RESTR>
0

>  <SCORE.RESTR.CAVITY>
0

>  <SCORE.RESTR.norm>
0

>  <SCORE.SYSTEM>
0

>  <SCORE.SYSTEM.CONST>
0

>  <SCORE.SYSTEM.DIHEDRAL>
0

>  <SCORE.SYSTEM.SOLV>
0

>  <SCORE.SYSTEM.norm>
0

>  <SCORE.heavy>
26

>  <SCORE.norm>
-0.644706

>  <RMSD>
1.081

$$$$
ligand
 OpenBabel11021811483D
libRbt.so/2013.1/901 2013/11/27
 26 28  0  0  0  0  0  0  0  0999 V2000
   48.1025   58.3799   28.0408 N   0  0  0  0  0  0  0  0  0  0  0  0
   47.7890   56.9573   28.2017 C   0  0  2  0  0  0  0  0  0  0  0  0
   46.8106   56.4088   27.1606 C   0  0  0  0  0  0  0  0  0  0  0  0
   47.2689   55.7736   26.2106 O   0  0  0  0  0  0  0  0  0  0  0  0
   47.2364   56.5686   29.5790 C   0  0  0  0  0  0  0  0  0  0  0  0
   47.1059   55.1120   29.9890 C   0  0  0  0  0  0  0  0  0  0  0  0
   48.7872   54.4951   30.2349 S   0  0  0  0  0  0  0  0  0  0  0  0
   48.1091   53.4711   31.5627 C   0  0  0  0  0  0  0  0  0  0  0  0
   48.6148   53.8327   32.9633 C   0  0  1  0  0  0  0  0  0  0  0  0
   49.3810   55.0423   32.9920 O   0  0  0  0  0  0  0  0  0  0  0  0
   47.4523   54.0157   33.9283 C   0  0  1  0  0  0  0  0  0  0  0  0
   47.1494   52.8144   34.6025 O   0  0  0  0  0  0  0  0  0  0  0  0
   47.9032   55.1314   34.8620 C   0  0  1  0  0  0  0  0  0  0  0  0
   48.5547   54.6213   36.0078 O   0  0  0  0  0  0  0  0  0  0  0  0
   48.9322   55.8840   34.0416 C   0  0  2  0  0  0  0  0  0  0  0  0
   45.5856   56.5636   27.2412 O   0  0  0  0  0  0  0  0  0  0  0  0
   44.7473   58.4011   32.1005 N   0  0  0  0  0  0  0  0  0  0  0  0
   44.8400   57.0926   32.5027 C   0  0  0  0  0  0  0  0  0  0  0  0
   46.0399   56.6011   32.9726 N   0  0  0  0  0  0  0  0  0  0  0  0
   47.1215   57.3930   33.0795 C   0  0  0  0  0  0  0  0  0  0  0  0
   47.0483   58.7168   32.6807 C   0  0  0  0  0  0  0  0  0  0  0  0
   45.8546   59.2070   32.1897 C   0  0  0  0  0  0  0  0  0  0  0  0
   45.7588   60.4681   31.8156 N   0  0  0  0  0  0  0  0  0  0  0  0
   48.2556   59.2894   32.8851 N   0  0  0  0  0  0  0  0  0  0  0  0
   49.0942   58.3449   33.3812 C   0  0  0  0  0  0  0  0  0  0  0  0
   48.4019   57.1607   33.5095 N   0  0  0  0  0  0  0  0  0  0  0  0
  2  1  1  1  0  0  0
  2  3  1  0  0  0  0
  2  5  1  0  0  0  0
  3  4  1  0  0  0  0
  3 16  1  0  0  0  0
  5  6  1  0  0  0  0
  6  7  1  0  0  0  0
  7  8  1  0  0  0  0
  9  8  1  6  0  0  0
  9 10  1  0  0  0  0
  9 11  1  0  0  0  0
 10 15  1  0  0  0  0
 11 12  1  1  0  0  0
 11 13  1  0  0  0  0
 13 14  1  1  0  0  0
 13 15  1  0  0  0  0
 15 26  1  6  0  0  0
 17 18  2  0  0  0  0
 17 22  1  0  0  0  0
 18 19  1  0  0  0  0
 19 20  2  0  0  0  0
 20 21  1  0  0  0  0
 20 26  1  0  0  0  0
 21 22  2  0  0  0  0
 21 24  1  0  0  0  0
 22 23  1  0  0  0  0
 24 25  2  0  0  0  0
 25 26  1  0  0  0  0
M  END
>  <CHROM.1>
100.24243396,-168.59490026,70.57658801,145.51751480,-114.27819312,8.69608703
86.27032051,47.46431576,56.28991243,31.62292417,2.08173139,1.21075284,-1.77455743

>  <Name>
ligand

>  <RI>
0

>  <Rbt.Current_Directory>
/home/itssahil/PROJECTS/Mol_Feturizer/New_Systems/rnas/3GX3

>  <Rbt.Executable>
rbdock ($Id: //depot/dev/client3/rdock/2013.1/src/exe/rbdock.cxx#4 $)

>  <Rbt.Library>
libRbt.so (2013.1, Build901 2013/11/27)

>  <Rbt.Parameter_File>
/export/apps/rDock/src/rDock_2013.1_src/data/scripts/dock_solv.prm

>  <Rbt.Receptor>
prm/pocket_docking_2.prm

>  <SCORE>
-11.0078

>  <SCORE.INTER>
-9.84691

>  <SCORE.INTER.CONST>
1

>  <SCORE.INTER.POLAR>
0

>  <SCORE.INTER.ROT>
7

>  <SCORE.INTER.SOLV>
18.4478

>  <SCORE.INTER.VDW>
-20.9806

>  <SCORE.INTER.norm>
-0.378727

>  <SCORE.INTRA>
-1.19155

>  <SCORE.INTRA.DIHEDRAL>
6.78477

>  <SCORE.INTRA.DIHEDRAL.0>
5.78979

>  <SCORE.INTRA.POLAR>
0

>  <SCORE.INTRA.POLAR.0>
0

>  <SCORE.INTRA.REPUL>
0

>  <SCORE.INTRA.REPUL.0>
0

>  <SCORE.INTRA.SOLV>
-0.798376

>  <SCORE.INTRA.SOLV.lig_0>
-49.9151

>  <SCORE.INTRA.VDW>
-4.18475

>  <SCORE.INTRA.VDW.0>
-0.211125

>  <SCORE.INTRA.norm>
-0.0458288

>  <SCORE.RESTR>
0.0306508

>  <SCORE.RESTR.CAVITY>
0.0306508

>  <SCORE.RESTR.norm>
0.00117888

>  <SCORE.SYSTEM>
0

>  <SCORE.SYSTEM.CONST>
0

>  <SCORE.SYSTEM.DIHEDRAL>
0

>  <SCORE.SYSTEM.SOLV>
0

>  <SCORE.SYSTEM.norm>
0

>  <SCORE.heavy>
26

>  <SCORE.norm>
-0.423377

>  <RMSD>
1.162

$$$$
ligand
 OpenBabel11021811483D
libRbt.so/2013.1/901 2013/11/27
 26 28  0  0  0  0  0  0  0  0999 V2000
   46.0932   55.6507   27.5252 N   0  0  0  0  0  0  0  0  0  0  0  0
   47.2628   56.2316   28.1904 C   0  0  2  0  0  0  0  0  0  0  0  0
   47.5481   57.6842   27.8027 C   0  0  0  0  0  0  0  0  0  0  0  0
   47.8350   58.4789   28.6983 O   0  0  0  0  0  0  0  0  0  0  0  0
   48.5708   55.4541   27.9943 C   0  0  0  0  0  0  0  0  0  0  0  0
   49.6835   55.5187   29.0259 C   0  0  0  0  0  0  0  0  0  0  0  0
   49.9017   53.8371   29.6520 S   0  0  0  0  0  0  0  0  0  0  0  0
   48.6082   54.2252   30.8551 C   0  0  0  0  0  0  0  0  0  0  0  0
   49.1298   54.6506   32.2317 C   0  0  1  0  0  0  0  0  0  0  0  0
   49.7614   55.9360   32.2236 O   0  0  0  0  0  0  0  0  0  0  0  0
   47.9957   54.7150   33.2444 C   0  0  1  0  0  0  0  0  0  0  0  0
   47.8527   53.4937   33.9352 O   0  0  0  0  0  0  0  0  0  0  0  0
   48.3619   55.8805   34.1542 C   0  0  1  0  0  0  0  0  0  0  0  0
   49.1120   55.4528   35.2732 O   0  0  0  0  0  0  0  0  0  0  0  0
   49.2685   56.7329   33.2883 C   0  0  2  0  0  0  0  0  0  0  0  0
   47.5171   58.0870   26.6332 O   0  0  0  0  0  0  0  0  0  0  0  0
   44.6520   59.0204   32.2525 N   0  0  0  0  0  0  0  0  0  0  0  0
   44.8836   57.7674   32.7613 C   0  0  0  0  0  0  0  0  0  0  0  0
   46.1780   57.3301   32.9493 N   0  0  0  0  0  0  0  0  0  0  0  0
   47.2272   58.1254   32.6755 C   0  0  0  0  0  0  0  0  0  0  0  0
   47.0149   59.3939   32.1630 C   0  0  0  0  0  0  0  0  0  0  0  0
   45.7209   59.8275   31.9534 C   0  0  0  0  0  0  0  0  0  0  0  0
   45.4951   61.0367   31.4776 N   0  0  0  0  0  0  0  0  0  0  0  0
   48.2171   59.9824   31.9741 N   0  0  0  0  0  0  0  0  0  0  0  0
   49.1826   59.0995   32.3342 C   0  0  0  0  0  0  0  0  0  0  0  0
   48.5816   57.9406   32.7745 N   0  0  0  0  0  0  0  0  0  0  0  0
  2  1  1  6  0  0  0
  2  3  1  0  0  0  0
  2  5  1  0  0  0  0
  3  4  1  0  0  0  0
  3 16  1  0  0  0  0
  5  6  1  0  0  0  0
  6  7  1  0  0  0  0
  7  8  1  0  0  0  0
  9  8  1  6  0  0  0
  9 10  1  0  0  0  0
  9 11  1  0  0  0  0
 10 15  1  0  0  0  0
 11 12  1  1  0  0  0
 11 13  1  0  0  0  0
 13 14  1  1  0  0  0
 13 15  1  0  0  0  0
 15 26  1  6  0  0  0
 17 18  2  0  0  0  0
 17 22  1  0  0  0  0
 18 19  1  0  0  0  0
 19 20  2  0  0  0  0
 20 21  1  0  0  0  0
 20 26  1  0  0  0  0
 21 22  2  0  0  0  0
 21 24  1  0  0  0  0
 22 23  1  0  0  0  0
 24 25  2  0  0  0  0
 25 26  1  0  0  0  0
M  END
>  <CHROM.1>
135.99530483,-153.04511553,117.83285637,-87.16960445,-97.39547001,69.75119111
101.67959404,47.89472358,56.77725665,31.20868947,0.51715870,1.04916748,-1.58295473

>  <Name>
ligand

>  <RI>
0

>  <Rbt.Current_Directory>
/home/itssahil/PROJECTS/Mol_Feturizer/New_Systems/rnas/3GX3

>  <Rbt.Executable>
rbdock ($Id: //depot/dev/client3/rdock/2013.1/src/exe/rbdock.cxx#4 $)

>  <Rbt.Library>
libRbt.so (2013.1, Build901 2013/11/27)

>  <Rbt.Parameter_File>
/export/apps/rDock/src/rDock_2013.1_src/data/scripts/dock_solv.prm

>  <Rbt.Receptor>
prm/pocket_docking_3.prm

>  <SCORE>
-13.8182

>  <SCORE.INTER>
-14.5237

>  <SCORE.INTER.CONST>
1

>  <SCORE.INTER.POLAR>
0

>  <SCORE.INTER.ROT>
7

>  <SCORE.INTER.SOLV>
17.1216

>  <SCORE.INTER.VDW>
-23.6563

>  <SCORE.INTER.norm>
-0.558605

>  <SCORE.INTRA>
0.705483

>  <SCORE.INTRA.DIHEDRAL>
7.81551

>  <SCORE.INTRA.DIHEDRAL.0>
5.78979

>  <SCORE.INTRA.POLAR>
0

>  <SCORE.INTRA.POLAR.0>
0

>  <SCORE.INTRA.REPUL>
0

>  <SCORE.INTRA.REPUL.0>
0

>  <SCORE.INTRA.SOLV>
-0.729714

>  <SCORE.INTRA.SOLV.lig_0>
-49.9151

>  <SCORE.INTRA.VDW>
-2.83741

>  <SCORE.INTRA.VDW.0>
-0.211125

>  <SCORE.INTRA.norm>
0.0271339

>  <SCORE.RESTR>
0

>  <SCORE.RESTR.CAVITY>
0

>  <SCORE.RESTR.norm>
0

>  <SCORE.SYSTEM>
0

>  <SCORE.SYSTEM.CONST>
0

>  <SCORE.SYSTEM.DIHEDRAL>
0

>  <SCORE.SYSTEM.SOLV>
0

>  <SCORE.SYSTEM.norm>
0

>  <SCORE.heavy>
26

>  <SCORE.norm>
-0.531471

>  <RMSD>
1.203

$$$$
ligand
 OpenBabel11021811483D
libRbt.so/2013.1/901 2013/11/27
 26 28  0  0  0  0  0  0  0  0999 V2000
   45.5395   56.5441   28.0936 N   0  0  0  0  0  0  0  0  0  0  0  0
   46.8451   56.8852   28.6655 C   0  0  2  0  0  0  0  0  0  0  0  0
   47.6308   57.9229   27.8608 C   0  0  0  0  0  0  0  0  0  0  0  0
   48.5371   58.5334   28.4283 O   0  0  0  0  0  0  0  0  0  0  0  0
   47.7841   55.6929   28.8900 C   0  0  0  0  0  0  0  0  0  0  0  0
   49.0062   55.8148   29.7836 C   0  0  0  0  0  0  0  0  0  0  0  0
   49.6811   54.1472   29.9608 S   0  0  0  0  0  0  0  0  0  0  0  0
   48.4148   53.8779   31.2238 C   0  0  0  0  0  0  0  0  0  0  0  0
   48.8535   54.2358   32.6478 C   0  0  1  0  0  0  0  0  0  0  0  0
   49.5683   55.4745   32.7237 O   0  0  0  0  0  0  0  0  0  0  0  0
   47.6498   54.3559   33.5712 C   0  0  1  0  0  0  0  0  0  0  0  0
   47.3713   53.1324   34.2152 O   0  0  0  0  0  0  0  0  0  0  0  0
   48.0203   55.4730   34.5381 C   0  0  1  0  0  0  0  0  0  0  0  0
   48.6493   54.9701   35.6996 O   0  0  0  0  0  0  0  0  0  0  0  0
   49.0474   56.2798   33.7685 C   0  0  2  0  0  0  0  0  0  0  0  0
   47.4044   58.1617   26.6680 O   0  0  0  0  0  0  0  0  0  0  0  0
   44.7161   58.8168   32.2123 N   0  0  0  0  0  0  0  0  0  0  0  0
   44.8272   57.5280   32.6698 C   0  0  0  0  0  0  0  0  0  0  0  0
   46.0637   57.0261   33.0178 N   0  0  0  0  0  0  0  0  0  0  0  0
   47.1681   57.7906   32.9515 C   0  0  0  0  0  0  0  0  0  0  0  0
   47.0772   59.0942   32.4942 C   0  0  0  0  0  0  0  0  0  0  0  0
   45.8441   59.5936   32.1247 C   0  0  0  0  0  0  0  0  0  0  0  0
   45.7324   60.8365   31.6979 N   0  0  0  0  0  0  0  0  0  0  0  0
   48.3130   59.6410   32.5212 N   0  0  0  0  0  0  0  0  0  0  0  0
   49.1840   58.6987   32.9628 C   0  0  0  0  0  0  0  0  0  0  0  0
   48.4856   57.5430   33.2364 N   0  0  0  0  0  0  0  0  0  0  0  0
  2  1  1  6  0  0  0
  2  3  1  0  0  0  0
  2  5  1  0  0  0  0
  3  4  1  0  0  0  0
  3 16  1  0  0  0  0
  5  6  1  0  0  0  0
  6  7  1  0  0  0  0
  7  8  1  0  0  0  0
  9  8  1  6  0  0  0
  9 10  1  0  0  0  0
  9 11  1  0  0  0  0
 10 15  1  0  0  0  0
 11 12  1  1  0  0  0
 11 13  1  0  0  0  0
 13 14  1  1  0  0  0
 13 15  1  0  0  0  0
 15 26  1  6  0  0  0
 17 18  2  0  0  0  0
 17 22  1  0  0  0  0
 18 19  1  0  0  0  0
 19 20  2  0  0  0  0
 20 21  1  0  0  0  0
 20 26  1  0  0  0  0
 21 22  2  0  0  0  0
 21 24  1  0  0  0  0
 22 23  1  0  0  0  0
 24 25  2  0  0  0  0
 25 26  1  0  0  0  0
M  END
>  <CHROM.1>
160.36889851,-164.23100116,171.97773463,-81.06774744,-90.34667598,43.75868075
96.85136033,47.72625038,56.66530415,31.53637002,-2.08233975,-1.09229748,1.69922384

>  <Name>
ligand

>  <RI>
0

>  <Rbt.Current_Directory>
/home/itssahil/PROJECTS/Mol_Feturizer/New_Systems/rnas/3GX3

>  <Rbt.Executable>
rbdock ($Id: //depot/dev/client3/rdock/2013.1/src/exe/rbdock.cxx#4 $)

>  <Rbt.Library>
libRbt.so (2013.1, Build901 2013/11/27)

>  <Rbt.Parameter_File>
/export/apps/rDock/src/rDock_2013.1_src/data/scripts/dock_solv.prm

>  <Rbt.Receptor>
prm/pocket_docking_2.prm

>  <SCORE>
-16.8281

>  <SCORE.INTER>
-14.4201

>  <SCORE.INTER.CONST>
1

>  <SCORE.INTER.POLAR>
0

>  <SCORE.INTER.ROT>
7

>  <SCORE.INTER.SOLV>
16.738

>  <SCORE.INTER.VDW>
-23.4594

>  <SCORE.INTER.norm>
-0.554618

>  <SCORE.INTRA>
-2.40801

>  <SCORE.INTRA.DIHEDRAL>
0.902955

>  <SCORE.INTRA.DIHEDRAL.0>
5.78979

>  <SCORE.INTRA.POLAR>
0

>  <SCORE.INTRA.POLAR.0>
0

>  <SCORE.INTRA.REPUL>
0

>  <SCORE.INTRA.REPUL.0>
0

>  <SCORE.INTRA.SOLV>
-0.911655

>  <SCORE.INTRA.SOLV.lig_0>
-49.9151

>  <SCORE.INTRA.VDW>
-2.40366

>  <SCORE.INTRA.VDW.0>
-0.211125

>  <SCORE.INTRA.norm>
-0.0926159

>  <SCORE.RESTR>
0

>  <SCORE.RESTR.CAVITY>
0

>  <SCORE.RESTR.norm>
0

>  <SCORE.SYSTEM>
0

>  <SCORE.SYSTEM.CONST>
0

>  <SCORE.SYSTEM.DIHEDRAL>
0

>  <SCORE.SYSTEM.SOLV>
0

>  <SCORE.SYSTEM.norm>
0

>  <SCORE.heavy>
26

>  <SCORE.norm>
-0.647234

>  <RMSD>
1.205

$$$$
ligand
 OpenBabel11021811483D
libRbt.so/2013.1/901 2013/11/27
 26 28  0  0  0  0  0  0  0  0999 V2000
   50.1041   55.9321   29.0071 N   0  0  0  0  0  0  0  0  0  0  0  0
   48.9713   55.6887   28.1097 C   0  0  2  0  0  0  0  0  0  0  0  0
   48.2452   56.9575   27.6573 C   0  0  0  0  0  0  0  0  0  0  0  0
   47.3710   56.8510   26.7968 O   0  0  0  0  0  0  0  0  0  0  0  0
   47.9017   54.7375   28.6618 C   0  0  0  0  0  0  0  0  0  0  0  0
   48.2413   53.3029   29.0270 C   0  0  0  0  0  0  0  0  0  0  0  0
   49.5644   53.3853   30.2559 S   0  0  0  0  0  0  0  0  0  0  0  0
   48.2697   53.6901   31.4816 C   0  0  0  0  0  0  0  0  0  0  0  0
   48.7898   54.0766   32.8703 C   0  0  1  0  0  0  0  0  0  0  0  0
   49.5438   55.2943   32.8719 O   0  0  0  0  0  0  0  0  0  0  0  0
   47.6381   54.2615   33.8477 C   0  0  1  0  0  0  0  0  0  0  0  0
   47.3564   53.0669   34.5427 O   0  0  0  0  0  0  0  0  0  0  0  0
   48.0896   55.3948   34.7598 C   0  0  1  0  0  0  0  0  0  0  0  0
   48.7611   54.9076   35.9039 O   0  0  0  0  0  0  0  0  0  0  0  0
   49.1000   56.1461   33.9154 C   0  0  2  0  0  0  0  0  0  0  0  0
   48.4884   58.0758   28.1276 O   0  0  0  0  0  0  0  0  0  0  0  0
   44.7967   58.6973   32.3060 N   0  0  0  0  0  0  0  0  0  0  0  0
   44.8969   57.4101   32.7701 C   0  0  0  0  0  0  0  0  0  0  0  0
   46.1275   56.9036   33.1324 N   0  0  0  0  0  0  0  0  0  0  0  0
   47.2362   57.6624   33.0736 C   0  0  0  0  0  0  0  0  0  0  0  0
   47.1562   58.9644   32.6098 C   0  0  0  0  0  0  0  0  0  0  0  0
   45.9293   59.4682   32.2261 C   0  0  0  0  0  0  0  0  0  0  0  0
   45.8278   60.7098   31.7928 N   0  0  0  0  0  0  0  0  0  0  0  0
   48.3944   59.5053   32.6465 N   0  0  0  0  0  0  0  0  0  0  0  0
   49.2564   58.5608   33.1006 C   0  0  0  0  0  0  0  0  0  0  0  0
   48.5497   57.4097   33.3724 N   0  0  0  0  0  0  0  0  0  0  0  0
  2  1  1  1  0  0  0
  2  3  1  0  0  0  0
  2  5  1  0  0  0  0
  3  4  1  0  0  0  0
  3 16  1  0  0  0  0
  5  6  1  0  0  0  0
  6  7  1  0  0  0  0
  7  8  1  0  0  0  0
  9  8  1  6  0  0  0
  9 10  1  0  0  0  0
  9 11  1  0  0  0  0
 10 15  1  0  0  0  0
 11 12  1  1  0  0  0
 11 13  1  0  0  0  0
 13 14  1  1  0  0  0
 13 15  1  0  0  0  0
 15 26  1  6  0  0  0
 17 18  2  0  0  0  0
 17 22  1  0  0  0  0
 18 19  1  0  0  0  0
 19 20  2  0  0  0  0
 20 21  1  0  0  0  0
 20 26  1  0  0  0  0
 21 22  2  0  0  0  0
 21 24  1  0  0  0  0
 22 23  1  0  0  0  0
 24 25  2  0  0  0  0
 25 26  1  0  0  0  0
M  END
>  <CHROM.1>
172.69367559,-60.63424711,57.54531090,81.56176081,-171.46472073,61.76924135
92.84596548,47.97799026,56.21948710,31.63399974,0.95580411,1.15840986,-1.30929952

>  <Name>
ligand

>  <RI>
0

>  <Rbt.Current_Directory>
/home/itssahil/PROJECTS/Mol_Feturizer/New_Systems/rnas/3GX3

>  <Rbt.Executable>
rbdock ($Id: //depot/dev/client3/rdock/2013.1/src/exe/rbdock.cxx#4 $)

>  <Rbt.Library>
libRbt.so (2013.1, Build901 2013/11/27)

>  <Rbt.Parameter_File>
/export/apps/rDock/src/rDock_2013.1_src/data/scripts/dock_solv.prm

>  <Rbt.Receptor>
prm/pocket_docking_2.prm

>  <SCORE>
-15.3427

>  <SCORE.INTER>
-13.8795

>  <SCORE.INTER.CONST>
1

>  <SCORE.INTER.POLAR>
0

>  <SCORE.INTER.ROT>
7

>  <SCORE.INTER.SOLV>
16.6651

>  <SCORE.INTER.VDW>
-23.0747

>  <SCORE.INTER.norm>
-0.533828

>  <SCORE.INTRA>
-1.46727

>  <SCORE.INTRA.DIHEDRAL>
-2.0987

>  <SCORE.INTRA.DIHEDRAL.0>
5.78979

>  <SCORE.INTRA.POLAR>
0

>  <SCORE.INTRA.POLAR.0>
0

>  <SCORE.INTRA.REPUL>
0

>  <SCORE.INTRA.REPUL.0>
0

>  <SCORE.INTRA.SOLV>
1.81038

>  <SCORE.INTRA.SOLV.lig_0>
-49.9151

>  <SCORE.INTRA.VDW>
-1.32311

>  <SCORE.INTRA.VDW.0>
-0.211125

>  <SCORE.INTRA.norm>
-0.0564334

>  <SCORE.RESTR>
0.00413095

>  <SCORE.RESTR.CAVITY>
0.00413095

>  <SCORE.RESTR.norm>
0.000158883

>  <SCORE.SYSTEM>
0

>  <SCORE.SYSTEM.CONST>
0

>  <SCORE.SYSTEM.DIHEDRAL>
0

>  <SCORE.SYSTEM.SOLV>
0

>  <SCORE.SYSTEM.norm>
0

>  <SCORE.heavy>
26

>  <SCORE.norm>
-0.590102

>  <RMSD>
1.239

$$$$
ligand
 OpenBabel11021811483D
libRbt.so/2013.1/901 2013/11/27
 26 28  0  0  0  0  0  0  0  0999 V2000
   47.0924   55.9367   26.1927 N   0  0  0  0  0  0  0  0  0  0  0  0
   46.7741   56.5736   27.4736 C   0  0  2  0  0  0  0  0  0  0  0  0
   46.3809   58.0482   27.3606 C   0  0  0  0  0  0  0  0  0  0  0  0
   45.6763   58.5312   28.2474 O   0  0  0  0  0  0  0  0  0  0  0  0
   47.8823   56.4890   28.5311 C   0  0  0  0  0  0  0  0  0  0  0  0
   48.2916   55.1561   29.1331 C   0  0  0  0  0  0  0  0  0  0  0  0
   49.6477   55.5037   30.2768 S   0  0  0  0  0  0  0  0  0  0  0  0
   49.1211   54.0335   31.1892 C   0  0  0  0  0  0  0  0  0  0  0  0
   48.9215   54.2578   32.6919 C   0  0  1  0  0  0  0  0  0  0  0  0
   49.5244   55.4668   33.1672 O   0  0  0  0  0  0  0  0  0  0  0  0
   47.4411   54.3297   33.0368 C   0  0  1  0  0  0  0  0  0  0  0  0
   46.9343   53.0634   33.3960 O   0  0  0  0  0  0  0  0  0  0  0  0
   47.3609   55.3507   34.1644 C   0  0  1  0  0  0  0  0  0  0  0  0
   47.4544   54.7349   35.4331 O   0  0  0  0  0  0  0  0  0  0  0  0
   48.6055   56.1934   33.9666 C   0  0  2  0  0  0  0  0  0  0  0  0
   46.7511   58.7738   26.4293 O   0  0  0  0  0  0  0  0  0  0  0  0
   44.8834   59.3390   31.9993 N   0  0  0  0  0  0  0  0  0  0  0  0
   44.7460   58.0659   32.4922 C   0  0  0  0  0  0  0  0  0  0  0  0
   45.8525   57.3838   32.9532 N   0  0  0  0  0  0  0  0  0  0  0  0
   47.0687   57.9577   32.9630 C   0  0  0  0  0  0  0  0  0  0  0  0
   47.2283   59.2421   32.4716 C   0  0  0  0  0  0  0  0  0  0  0  0
   46.1265   59.9204   31.9896 C   0  0  0  0  0  0  0  0  0  0  0  0
   46.2534   61.1495   31.5283 N   0  0  0  0  0  0  0  0  0  0  0  0
   48.5309   59.5834   32.5901 N   0  0  0  0  0  0  0  0  0  0  0  0
   49.1986   58.5291   33.1232 C   0  0  0  0  0  0  0  0  0  0  0  0
   48.3014   57.5113   33.3623 N   0  0  0  0  0  0  0  0  0  0  0  0
  2  1  1  6  0  0  0
  2  3  1  0  0  0  0
  2  5  1  0  0  0  0
  3  4  1  0  0  0  0
  3 16  1  0  0  0  0
  5  6  1  0  0  0  0
  6  7  1  0  0  0  0
  7  8  1  0  0  0  0
  9  8  1  6  0  0  0
  9 10  1  0  0  0  0
  9 11  1  0  0  0  0
 10 15  1  0  0  0  0
 11 12  1  1  0  0  0
 11 13  1  0  0  0  0
 13 14  1  1  0  0  0
 13 15  1  0  0  0  0
 15 26  1  6  0  0  0
 17 18  2  0  0  0  0
 17 22  1  0  0  0  0
 18 19  1  0  0  0  0
 19 20  2  0  0  0  0
 20 21  1  0  0  0  0
 20 26  1  0  0  0  0
 21 22  2  0  0  0  0
 21 24  1  0  0  0  0
 22 23  1  0  0  0  0
 24 25  2  0  0  0  0
 25 26  1  0  0  0  0
M  END
>  <CHROM.1>
155.33644899,-66.38024948,178.16022717,152.70396041,-129.14462115,-15.97816718
119.72577621,47.50556040,56.84147827,31.31305912,-2.09260260,-1.13707853
1.52048947

>  <Name>
ligand

>  <RI>
0

>  <Rbt.Current_Directory>
/home/itssahil/PROJECTS/Mol_Feturizer/New_Systems/rnas/3GX3

>  <Rbt.Executable>
rbdock ($Id: //depot/dev/client3/rdock/2013.1/src/exe/rbdock.cxx#4 $)

>  <Rbt.Library>
libRbt.so (2013.1, Build901 2013/11/27)

>  <Rbt.Parameter_File>
/export/apps/rDock/src/rDock_2013.1_src/data/scripts/dock_solv.prm

>  <Rbt.Receptor>
prm/pocket_docking_2.prm

>  <SCORE>
-12.2202

>  <SCORE.INTER>
-11.6455

>  <SCORE.INTER.CONST>
1

>  <SCORE.INTER.POLAR>
0

>  <SCORE.INTER.ROT>
7

>  <SCORE.INTER.SOLV>
18.8003

>  <SCORE.INTER.VDW>
-22.2971

>  <SCORE.INTER.norm>
-0.447905

>  <SCORE.INTRA>
-0.574707

>  <SCORE.INTRA.DIHEDRAL>
4.88976

>  <SCORE.INTRA.DIHEDRAL.0>
5.78979

>  <SCORE.INTRA.POLAR>
0

>  <SCORE.INTRA.POLAR.0>
0

>  <SCORE.INTRA.REPUL>
0

>  <SCORE.INTRA.REPUL.0>
0

>  <SCORE.INTRA.SOLV>
-0.394714

>  <SCORE.INTRA.SOLV.lig_0>
-49.9151

>  <SCORE.INTRA.VDW>
-2.82223

>  <SCORE.INTRA.VDW.0>
-0.211125

>  <SCORE.INTRA.norm>
-0.0221041

>  <SCORE.RESTR>
0

>  <SCORE.RESTR.CAVITY>
0

>  <SCORE.RESTR.norm>
0

>  <SCORE.SYSTEM>
0

>  <SCORE.SYSTEM.CONST>
0

>  <SCORE.SYSTEM.DIHEDRAL>
0

>  <SCORE.SYSTEM.SOLV>
0

>  <SCORE.SYSTEM.norm>
0

>  <SCORE.heavy>
26

>  <SCORE.norm>
-0.470009

>  <RMSD>
1.242

$$$$
ligand
 OpenBabel11021811483D
libRbt.so/2013.1/901 2013/11/27
 26 28  0  0  0  0  0  0  0  0999 V2000
   47.5086   54.9259   27.5224 N   0  0  0  0  0  0  0  0  0  0  0  0
   47.0867   56.2125   28.0833 C   0  0  2  0  0  0  0  0  0  0  0  0
   47.1666   57.3822   27.0998 C   0  0  0  0  0  0  0  0  0  0  0  0
   48.0031   57.3269   26.1981 O   0  0  0  0  0  0  0  0  0  0  0  0
   47.8386   56.6439   29.3490 C   0  0  0  0  0  0  0  0  0  0  0  0
   47.9523   55.7180   30.5475 C   0  0  0  0  0  0  0  0  0  0  0  0
   49.5679   54.9163   30.4257 S   0  0  0  0  0  0  0  0  0  0  0  0
   48.9038   53.6384   31.5200 C   0  0  0  0  0  0  0  0  0  0  0  0
   48.9016   54.0145   33.0055 C   0  0  1  0  0  0  0  0  0  0  0  0
   49.5611   55.2570   33.2743 O   0  0  0  0  0  0  0  0  0  0  0  0
   47.4787   54.1398   33.5304 C   0  0  1  0  0  0  0  0  0  0  0  0
   47.0233   52.9224   34.0780 O   0  0  0  0  0  0  0  0  0  0  0  0
   47.5459   55.2694   34.5500 C   0  0  1  0  0  0  0  0  0  0  0  0
   47.8039   54.7825   35.8515 O   0  0  0  0  0  0  0  0  0  0  0  0
   48.7540   56.0719   34.1086 C   0  0  2  0  0  0  0  0  0  0  0  0
   46.4209   58.3675   27.1642 O   0  0  0  0  0  0  0  0  0  0  0  0
   44.8357   58.9086   32.0548 N   0  0  0  0  0  0  0  0  0  0  0  0
   44.7695   57.6727   32.6470 C   0  0  0  0  0  0  0  0  0  0  0  0
   45.9193   57.0720   33.1151 N   0  0  0  0  0  0  0  0  0  0  0  0
   47.1098   57.6922   33.0349 C   0  0  0  0  0  0  0  0  0  0  0  0
   47.1979   58.9404   32.4425 C   0  0  0  0  0  0  0  0  0  0  0  0
   46.0522   59.5360   31.9536 C   0  0  0  0  0  0  0  0  0  0  0  0
   46.1108   60.7300   31.3965 N   0  0  0  0  0  0  0  0  0  0  0  0
   48.4883   59.3406   32.4847 N   0  0  0  0  0  0  0  0  0  0  0  0
   49.2181   58.3574   33.0695 C   0  0  0  0  0  0  0  0  0  0  0  0
   48.3736   57.3265   33.4189 N   0  0  0  0  0  0  0  0  0  0  0  0
  2  1  1  6  0  0  0
  2  3  1  0  0  0  0
  2  5  1  0  0  0  0
  3  4  1  0  0  0  0
  3 16  1  0  0  0  0
  5  6  1  0  0  0  0
  6  7  1  0  0  0  0
  7  8  1  0  0  0  0
  9  8  1  6  0  0  0
  9 10  1  0  0  0  0
  9 11  1  0  0  0  0
 10 15  1  0  0  0  0
 11 12  1  1  0  0  0
 11 13  1  0  0  0  0
 13 14  1  1  0  0  0
 13 15  1  0  0  0  0
 15 26  1  6  0  0  0
 17 18  2  0  0  0  0
 17 22  1  0  0  0  0
 18 19  1  0  0  0  0
 19 20  2  0  0  0  0
 20 21  1  0  0  0  0
 20 26  1  0  0  0  0
 21 22  2  0  0  0  0
 21 24  1  0  0  0  0
 22 23  1  0  0  0  0
 24 25  2  0  0  0  0
 25 26  1  0  0  0  0
M  END
>  <CHROM.1>
-28.18967774,-52.53182362,97.76872453,-159.46309499,-80.34777992,-6.36423082
113.56092008,47.64121037,56.52029279,31.53054662,-1.86296794,-1.13386060
1.67604999

>  <Name>
ligand

>  <RI>
0

>  <Rbt.Current_Directory>
/home/itssahil/PROJECTS/Mol_Feturizer/New_Systems/rnas/3GX3

>  <Rbt.Executable>
rbdock ($Id: //depot/dev/client3/rdock/2013.1/src/exe/rbdock.cxx#4 $)

>  <Rbt.Library>
libRbt.so (2013.1, Build901 2013/11/27)

>  <Rbt.Parameter_File>
/export/apps/rDock/src/rDock_2013.1_src/data/scripts/dock_solv.prm

>  <Rbt.Receptor>
prm/pocket_docking_2.prm

>  <SCORE>
-11.0869

>  <SCORE.INTER>
-11.7707

>  <SCORE.INTER.CONST>
1

>  <SCORE.INTER.POLAR>
0

>  <SCORE.INTER.ROT>
7

>  <SCORE.INTER.SOLV>
13.5363

>  <SCORE.INTER.VDW>
-20.6259

>  <SCORE.INTER.norm>
-0.452719

>  <SCORE.INTRA>
0.501117

>  <SCORE.INTRA.DIHEDRAL>
7.48551

>  <SCORE.INTRA.DIHEDRAL.0>
5.78979

>  <SCORE.INTRA.POLAR>
0

>  <SCORE.INTRA.POLAR.0>
0

>  <SCORE.INTRA.REPUL>
0

>  <SCORE.INTRA.REPUL.0>
0

>  <SCORE.INTRA.SOLV>
0.855614

>  <SCORE.INTRA.SOLV.lig_0>
-49.9151

>  <SCORE.INTRA.VDW>
-3.66945

>  <SCORE.INTRA.VDW.0>
-0.211125

>  <SCORE.INTRA.norm>
0.0192737

>  <SCORE.RESTR>
0.182674

>  <SCORE.RESTR.CAVITY>
0.182674

>  <SCORE.RESTR.norm>
0.00702591

>  <SCORE.SYSTEM>
0

>  <SCORE.SYSTEM.CONST>
0

>  <SCORE.SYSTEM.DIHEDRAL>
0

>  <SCORE.SYSTEM.SOLV>
0

>  <SCORE.SYSTEM.norm>
0

>  <SCORE.heavy>
26

>  <SCORE.norm>
-0.426419

>  <RMSD>
1.244

$$$$
ligand
 OpenBabel11021811483D
libRbt.so/2013.1/901 2013/11/27
 26 28  0  0  0  0  0  0  0  0999 V2000
   47.1467   57.7415   27.9235 N   0  0  0  0  0  0  0  0  0  0  0  0
   47.9784   57.1052   26.8982 C   0  0  2  0  0  0  0  0  0  0  0  0
   47.2328   56.0948   26.0235 C   0  0  0  0  0  0  0  0  0  0  0  0
   47.5999   55.9541   24.8567 O   0  0  0  0  0  0  0  0  0  0  0  0
   49.2298   56.3945   27.4298 C   0  0  0  0  0  0  0  0  0  0  0  0
   49.1189   55.2404   28.4109 C   0  0  0  0  0  0  0  0  0  0  0  0
   48.3266   55.9021   29.8949 S   0  0  0  0  0  0  0  0  0  0  0  0
   49.0010   54.4705   30.7708 C   0  0  0  0  0  0  0  0  0  0  0  0
   48.9599   54.5850   32.2984 C   0  0  1  0  0  0  0  0  0  0  0  0
   49.5534   55.7920   32.7902 O   0  0  0  0  0  0  0  0  0  0  0  0
   47.5255   54.5520   32.8055 C   0  0  1  0  0  0  0  0  0  0  0  0
   47.1234   53.2388   33.1267 O   0  0  0  0  0  0  0  0  0  0  0  0
   47.5228   55.4913   34.0047 C   0  0  1  0  0  0  0  0  0  0  0  0
   47.7868   54.8003   35.2090 O   0  0  0  0  0  0  0  0  0  0  0  0
   48.6957   56.4129   33.7337 C   0  0  2  0  0  0  0  0  0  0  0  0
   46.2925   55.4077   26.4415 O   0  0  0  0  0  0  0  0  0  0  0  0
   44.7314   59.3038   31.8509 N   0  0  0  0  0  0  0  0  0  0  0  0
   44.7282   57.9728   32.1841 C   0  0  0  0  0  0  0  0  0  0  0  0
   45.8820   57.3778   32.6498 N   0  0  0  0  0  0  0  0  0  0  0  0
   47.0110   58.0885   32.8196 C   0  0  0  0  0  0  0  0  0  0  0  0
   47.0345   59.4332   32.4910 C   0  0  0  0  0  0  0  0  0  0  0  0
   45.8872   60.0276   32.0044 C   0  0  0  0  0  0  0  0  0  0  0  0
   45.8836   61.3101   31.6966 N   0  0  0  0  0  0  0  0  0  0  0  0
   48.2721   59.9118   32.7487 N   0  0  0  0  0  0  0  0  0  0  0  0
   49.0350   58.8885   33.2094 C   0  0  0  0  0  0  0  0  0  0  0  0
   48.2632   57.7484   33.2608 N   0  0  0  0  0  0  0  0  0  0  0  0
  2  1  1  1  0  0  0
  2  3  1  0  0  0  0
  2  5  1  0  0  0  0
  3  4  1  0  0  0  0
  3 16  1  0  0  0  0
  5  6  1  0  0  0  0
  6  7  1  0  0  0  0
  7  8  1  0  0  0  0
  9  8  1  6  0  0  0
  9 10  1  0  0  0  0
  9 11  1  0  0  0  0
 10 15  1  0  0  0  0
 11 12  1  1  0  0  0
 11 13  1  0  0  0  0
 13 14  1  1  0  0  0
 13 15  1  0  0  0  0
 15 26  1  6  0  0  0
 17 18  2  0  0  0  0
 17 22  1  0  0  0  0
 18 19  1  0  0  0  0
 19 20  2  0  0  0  0
 20 21  1  0  0  0  0
 20 26  1  0  0  0  0
 21 22  2  0  0  0  0
 21 24  1  0  0  0  0
 22 23  1  0  0  0  0
 24 25  2  0  0  0  0
 25 26  1  0  0  0  0
M  END
>  <CHROM.1>
148.86516276,60.61188058,-61.70053824,-160.57915391,165.58420577,-52.50173445
108.15585542,47.58851868,56.76487877,30.96303912,1.45053742,1.17314231,-1.62329144

>  <Name>
ligand

>  <RI>
0

>  <Rbt.Current_Directory>
/home/itssahil/PROJECTS/Mol_Feturizer/New_Systems/rnas/3GX3

>  <Rbt.Executable>
rbdock ($Id: //depot/dev/client3/rdock/2013.1/src/exe/rbdock.cxx#4 $)

>  <Rbt.Library>
libRbt.so (2013.1, Build901 2013/11/27)

>  <Rbt.Parameter_File>
/export/apps/rDock/src/rDock_2013.1_src/data/scripts/dock_solv.prm

>  <Rbt.Receptor>
prm/pocket_docking_7.prm

>  <SCORE>
-16.5289

>  <SCORE.INTER>
-13.2182

>  <SCORE.INTER.CONST>
1

>  <SCORE.INTER.POLAR>
0

>  <SCORE.INTER.ROT>
7

>  <SCORE.INTER.SOLV>
17.3898

>  <SCORE.INTER.VDW>
-22.8754

>  <SCORE.INTER.norm>
-0.508392

>  <SCORE.INTRA>
-3.31075

>  <SCORE.INTRA.DIHEDRAL>
-1.87

>  <SCORE.INTRA.DIHEDRAL.0>
5.78979

>  <SCORE.INTRA.POLAR>
0

>  <SCORE.INTRA.POLAR.0>
0

>  <SCORE.INTRA.REPUL>
0

>  <SCORE.INTRA.REPUL.0>
0

>  <SCORE.INTRA.SOLV>
1.06874

>  <SCORE.INTRA.SOLV.lig_0>
-49.9151

>  <SCORE.INTRA.VDW>
-2.91012

>  <SCORE.INTRA.VDW.0>
-0.211125

>  <SCORE.INTRA.norm>
-0.127337

>  <SCORE.RESTR>
0

>  <SCORE.RESTR.CAVITY>
0

>  <SCORE.RESTR.norm>
0

>  <SCORE.SYSTEM>
0

>  <SCORE.SYSTEM.CONST>
0

>  <SCORE.SYSTEM.DIHEDRAL>
0

>  <SCORE.SYSTEM.SOLV>
0

>  <SCORE.SYSTEM.norm>
0

>  <SCORE.heavy>
26

>  <SCORE.norm>
-0.635728

>  <RMSD>
1.246

$$$$
ligand
 OpenBabel11021811483D
libRbt.so/2013.1/901 2013/11/27
 26 28  0  0  0  0  0  0  0  0999 V2000
   47.4983   57.0510   29.5362 N   0  0  0  0  0  0  0  0  0  0  0  0
   47.9506   56.2675   28.3833 C   0  0  2  0  0  0  0  0  0  0  0  0
   47.8282   56.9954   27.0428 C   0  0  0  0  0  0  0  0  0  0  0  0
   48.5105   56.5945   26.0995 O   0  0  0  0  0  0  0  0  0  0  0  0
   47.2610   54.9074   28.2149 C   0  0  0  0  0  0  0  0  0  0  0  0
   46.9849   54.0147   29.4123 C   0  0  0  0  0  0  0  0  0  0  0  0
   48.5870   53.6667   30.1737 S   0  0  0  0  0  0  0  0  0  0  0  0
   47.7157   53.6458   31.7586 C   0  0  0  0  0  0  0  0  0  0  0  0
   48.5785   54.0417   32.9616 C   0  0  1  0  0  0  0  0  0  0  0  0
   49.4178   55.1737   32.7062 O   0  0  0  0  0  0  0  0  0  0  0  0
   47.7086   54.3904   34.1606 C   0  0  1  0  0  0  0  0  0  0  0  0
   47.4914   53.2655   34.9832 O   0  0  0  0  0  0  0  0  0  0  0  0
   48.4603   55.5129   34.8641 C   0  0  1  0  0  0  0  0  0  0  0  0
   49.3344   55.0135   35.8562 O   0  0  0  0  0  0  0  0  0  0  0  0
   49.3084   56.1152   33.7612 C   0  0  2  0  0  0  0  0  0  0  0  0
   47.0665   57.9541   26.8649 O   0  0  0  0  0  0  0  0  0  0  0  0
   45.0034   58.7627   32.3204 N   0  0  0  0  0  0  0  0  0  0  0  0
   45.0984   57.4597   32.7396 C   0  0  0  0  0  0  0  0  0  0  0  0
   46.3300   56.9288   33.0612 N   0  0  0  0  0  0  0  0  0  0  0  0
   47.4456   57.6777   33.0062 C   0  0  0  0  0  0  0  0  0  0  0  0
   47.3710   58.9953   32.5875 C   0  0  0  0  0  0  0  0  0  0  0  0
   46.1427   59.5242   32.2444 C   0  0  0  0  0  0  0  0  0  0  0  0
   46.0466   60.7805   31.8546 N   0  0  0  0  0  0  0  0  0  0  0  0
   48.6156   59.5219   32.6183 N   0  0  0  0  0  0  0  0  0  0  0  0
   49.4756   58.5539   33.0242 C   0  0  0  0  0  0  0  0  0  0  0  0
   48.7617   57.4018   33.2711 N   0  0  0  0  0  0  0  0  0  0  0  0
  2  1  1  1  0  0  0
  2  3  1  0  0  0  0
  2  5  1  0  0  0  0
  3  4  1  0  0  0  0
  3 16  1  0  0  0  0
  5  6  1  0  0  0  0
  6  7  1  0  0  0  0
  7  8  1  0  0  0  0
  9  8  1  6  0  0  0
  9 10  1  0  0  0  0
  9 11  1  0  0  0  0
 10 15  1  0  0  0  0
 11 12  1  1  0  0  0
 11 13  1  0  0  0  0
 13 14  1  1  0  0  0
 13 15  1  0  0  0  0
 15 26  1  6  0  0  0
 17 18  2  0  0  0  0
 17 22  1  0  0  0  0
 18 19  1  0  0  0  0
 19 20  2  0  0  0  0
 20 21  1  0  0  0  0
 20 26  1  0  0  0  0
 21 22  2  0  0  0  0
 21 24  1  0  0  0  0
 22 23  1  0  0  0  0
 24 25  2  0  0  0  0
 25 26  1  0  0  0  0
M  END
>  <CHROM.1>
159.72055615,-41.71930755,-59.18402776,146.78960528,-152.04352478,43.11878387
78.56816610,47.75835196,56.34684402,31.57265827,1.91292799,1.27958730,-1.74353004

>  <Name>
ligand

>  <RI>
0

>  <Rbt.Current_Directory>
/home/itssahil/PROJECTS/Mol_Feturizer/New_Systems/rnas/3GX3

>  <Rbt.Executable>
rbdock ($Id: //depot/dev/client3/rdock/2013.1/src/exe/rbdock.cxx#4 $)

>  <Rbt.Library>
libRbt.so (2013.1, Build901 2013/11/27)

>  <Rbt.Parameter_File>
/export/apps/rDock/src/rDock_2013.1_src/data/scripts/dock_solv.prm

>  <Rbt.Receptor>
prm/pocket_docking_2.prm

>  <SCORE>
-14.8349

>  <SCORE.INTER>
-13.4015

>  <SCORE.INTER.CONST>
1

>  <SCORE.INTER.POLAR>
0

>  <SCORE.INTER.ROT>
7

>  <SCORE.INTER.SOLV>
14.3802

>  <SCORE.INTER.VDW>
-21.9944

>  <SCORE.INTER.norm>
-0.515442

>  <SCORE.INTRA>
-1.87055

>  <SCORE.INTRA.DIHEDRAL>
1.59431

>  <SCORE.INTRA.DIHEDRAL.0>
5.78979

>  <SCORE.INTRA.POLAR>
0

>  <SCORE.INTRA.POLAR.0>
0

>  <SCORE.INTRA.REPUL>
0

>  <SCORE.INTRA.REPUL.0>
0

>  <SCORE.INTRA.SOLV>
1.72714

>  <SCORE.INTRA.SOLV.lig_0>
-49.9151

>  <SCORE.INTRA.VDW>
-3.53127

>  <SCORE.INTRA.VDW.0>
-0.211125

>  <SCORE.INTRA.norm>
-0.0719442

>  <SCORE.RESTR>
0.437116

>  <SCORE.RESTR.CAVITY>
0.437116

>  <SCORE.RESTR.norm>
0.0168122

>  <SCORE.SYSTEM>
0

>  <SCORE.SYSTEM.CONST>
0

>  <SCORE.SYSTEM.DIHEDRAL>
0

>  <SCORE.SYSTEM.SOLV>
0

>  <SCORE.SYSTEM.norm>
0

>  <SCORE.heavy>
26

>  <SCORE.norm>
-0.570574

>  <RMSD>
1.249

$$$$
ligand
 OpenBabel11021811483D
libRbt.so/2013.1/901 2013/11/27
 26 28  0  0  0  0  0  0  0  0999 V2000
   47.4365   55.9228   26.0032 N   0  0  0  0  0  0  0  0  0  0  0  0
   47.0992   56.2246   27.3971 C   0  0  2  0  0  0  0  0  0  0  0  0
   46.7877   57.6992   27.6623 C   0  0  0  0  0  0  0  0  0  0  0  0
   46.8167   58.4794   26.7102 O   0  0  0  0  0  0  0  0  0  0  0  0
   48.1573   55.8022   28.4246 C   0  0  0  0  0  0  0  0  0  0  0  0
   48.7127   54.3887   28.4423 C   0  0  0  0  0  0  0  0  0  0  0  0
   47.9878   53.5701   29.8818 S   0  0  0  0  0  0  0  0  0  0  0  0
   49.2275   54.4373   30.8730 C   0  0  0  0  0  0  0  0  0  0  0  0
   48.9123   54.4973   32.3715 C   0  0  1  0  0  0  0  0  0  0  0  0
   49.4001   55.6861   33.0038 O   0  0  0  0  0  0  0  0  0  0  0  0
   47.4104   54.4461   32.6115 C   0  0  1  0  0  0  0  0  0  0  0  0
   46.9658   53.1223   32.8090 O   0  0  0  0  0  0  0  0  0  0  0  0
   47.1866   55.3421   33.8228 C   0  0  1  0  0  0  0  0  0  0  0  0
   47.2348   54.6087   35.0300 O   0  0  0  0  0  0  0  0  0  0  0  0
   48.3830   56.2729   33.7992 C   0  0  2  0  0  0  0  0  0  0  0  0
   46.4957   58.1342   28.7832 O   0  0  0  0  0  0  0  0  0  0  0  0
   44.6031   59.3722   31.8693 N   0  0  0  0  0  0  0  0  0  0  0  0
   44.5177   58.0499   32.2256 C   0  0  0  0  0  0  0  0  0  0  0  0
   45.6329   57.3924   32.7008 N   0  0  0  0  0  0  0  0  0  0  0  0
   46.8043   58.0341   32.8573 C   0  0  0  0  0  0  0  0  0  0  0  0
   46.9110   59.3688   32.5053 C   0  0  0  0  0  0  0  0  0  0  0  0
   45.8021   60.0251   32.0092 C   0  0  0  0  0  0  0  0  0  0  0  0
   45.8778   61.2998   31.6792 N   0  0  0  0  0  0  0  0  0  0  0  0
   48.1765   59.7738   32.7537 N   0  0  0  0  0  0  0  0  0  0  0  0
   48.8750   58.7130   33.2316 C   0  0  0  0  0  0  0  0  0  0  0  0
   48.0337   57.6244   33.3034 N   0  0  0  0  0  0  0  0  0  0  0  0
  2  1  1  6  0  0  0
  2  3  1  0  0  0  0
  2  5  1  0  0  0  0
  3  4  1  0  0  0  0
  3 16  1  0  0  0  0
  5  6  1  0  0  0  0
  6  7  1  0  0  0  0
  7  8  1  0  0  0  0
  9  8  1  6  0  0  0
  9 10  1  0  0  0  0
  9 11  1  0  0  0  0
 10 15  1  0  0  0  0
 11 12  1  1  0  0  0
 11 13  1  0  0  0  0
 13 14  1  1  0  0  0
 13 15  1  0  0  0  0
 15 26  1  6  0  0  0
 17 18  2  0  0  0  0
 17 22  1  0  0  0  0
 18 19  1  0  0  0  0
 19 20  2  0  0  0  0
 20 21  1  0  0  0  0
 20 26  1  0  0  0  0
 21 22  2  0  0  0  0
 21 24  1  0  0  0  0
 22 23  1  0  0  0  0
 24 25  2  0  0  0  0
 25 26  1  0  0  0  0
M  END
>  <CHROM.1>
1.49161587,-51.61017248,-106.61003453,-79.56558595,162.39199791,-148.10190870
119.63580515,47.33762262,56.63878699,31.16827601,1.27587705,1.22232299,-1.62826302

>  <Name>
ligand

>  <RI>
0

>  <Rbt.Current_Directory>
/home/itssahil/PROJECTS/Mol_Feturizer/New_Systems/rnas/3GX3

>  <Rbt.Executable>
rbdock ($Id: //depot/dev/client3/rdock/2013.1/src/exe/rbdock.cxx#4 $)

>  <Rbt.Library>
libRbt.so (2013.1, Build901 2013/11/27)

>  <Rbt.Parameter_File>
/export/apps/rDock/src/rDock_2013.1_src/data/scripts/dock_solv.prm

>  <Rbt.Receptor>
prm/pocket_docking_2.prm

>  <SCORE>
-8.39702

>  <SCORE.INTER>
-11.1841

>  <SCORE.INTER.CONST>
1

>  <SCORE.INTER.POLAR>
0

>  <SCORE.INTER.ROT>
7

>  <SCORE.INTER.SOLV>
17.4323

>  <SCORE.INTER.VDW>
-21.5335

>  <SCORE.INTER.norm>
-0.430159

>  <SCORE.INTRA>
2.78711

>  <SCORE.INTRA.DIHEDRAL>
6.07902

>  <SCORE.INTRA.DIHEDRAL.0>
5.78979

>  <SCORE.INTRA.POLAR>
0

>  <SCORE.INTRA.POLAR.0>
0

>  <SCORE.INTRA.REPUL>
0

>  <SCORE.INTRA.REPUL.0>
0

>  <SCORE.INTRA.SOLV>
-0.11194

>  <SCORE.INTRA.SOLV.lig_0>
-49.9151

>  <SCORE.INTRA.VDW>
-0.196428

>  <SCORE.INTRA.VDW.0>
-0.211125

>  <SCORE.INTRA.norm>
0.107197

>  <SCORE.RESTR>
0

>  <SCORE.RESTR.CAVITY>
0

>  <SCORE.RESTR.norm>
0

>  <SCORE.SYSTEM>
0

>  <SCORE.SYSTEM.CONST>
0

>  <SCORE.SYSTEM.DIHEDRAL>
0

>  <SCORE.SYSTEM.SOLV>
0

>  <SCORE.SYSTEM.norm>
0

>  <SCORE.heavy>
26

>  <SCORE.norm>
-0.322962

>  <RMSD>
1.252

$$$$
ligand
 OpenBabel11021811483D
libRbt.so/2013.1/901 2013/11/27
 26 28  0  0  0  0  0  0  0  0999 V2000
   48.0605   56.0599   26.9711 N   0  0  0  0  0  0  0  0  0  0  0  0
   47.2782   56.6750   28.0470 C   0  0  2  0  0  0  0  0  0  0  0  0
   46.6210   58.0030   27.6647 C   0  0  0  0  0  0  0  0  0  0  0  0
   45.7089   58.4257   28.3756 O   0  0  0  0  0  0  0  0  0  0  0  0
   48.0509   56.9202   29.3495 C   0  0  0  0  0  0  0  0  0  0  0  0
   48.5824   55.7621   30.1759 C   0  0  0  0  0  0  0  0  0  0  0  0
   47.1403   54.8296   30.7405 S   0  0  0  0  0  0  0  0  0  0  0  0
   48.3094   53.6654   31.4816 C   0  0  0  0  0  0  0  0  0  0  0  0
   48.8087   54.0680   32.8734 C   0  0  1  0  0  0  0  0  0  0  0  0
   49.5504   55.2932   32.8744 O   0  0  0  0  0  0  0  0  0  0  0  0
   47.6435   54.2488   33.8354 C   0  0  1  0  0  0  0  0  0  0  0  0
   47.3654   53.0569   34.5364 O   0  0  0  0  0  0  0  0  0  0  0  0
   48.0725   55.3938   34.7438 C   0  0  1  0  0  0  0  0  0  0  0  0
   48.7350   54.9223   35.8998 O   0  0  0  0  0  0  0  0  0  0  0  0
   49.0855   56.1486   33.9057 C   0  0  2  0  0  0  0  0  0  0  0  0
   46.9756   58.6721   26.6862 O   0  0  0  0  0  0  0  0  0  0  0  0
   44.7704   58.6572   32.2612 N   0  0  0  0  0  0  0  0  0  0  0  0
   44.8768   57.3765   32.7420 C   0  0  0  0  0  0  0  0  0  0  0  0
   46.1097   56.8810   33.1114 N   0  0  0  0  0  0  0  0  0  0  0  0
   47.2146   57.6445   33.0434 C   0  0  0  0  0  0  0  0  0  0  0  0
   47.1283   58.9400   32.5627 C   0  0  0  0  0  0  0  0  0  0  0  0
   45.8991   59.4326   32.1719 C   0  0  0  0  0  0  0  0  0  0  0  0
   45.7917   60.6680   31.7225 N   0  0  0  0  0  0  0  0  0  0  0  0
   48.3638   59.4875   32.5930 N   0  0  0  0  0  0  0  0  0  0  0  0
   49.2302   58.5532   33.0598 C   0  0  0  0  0  0  0  0  0  0  0  0
   48.5291   57.4023   33.3461 N   0  0  0  0  0  0  0  0  0  0  0  0
  2  1  1  6  0  0  0
  2  3  1  0  0  0  0
  2  5  1  0  0  0  0
  3  4  1  0  0  0  0
  3 16  1  0  0  0  0
  5  6  1  0  0  0  0
  6  7  1  0  0  0  0
  7  8  1  0  0  0  0
  9  8  1  6  0  0  0
  9 10  1  0  0  0  0
  9 11  1  0  0  0  0
 10 15  1  0  0  0  0
 11 12  1  1  0  0  0
 11 13  1  0  0  0  0
 13 14  1  1  0  0  0
 13 15  1  0  0  0  0
 15 26  1  6  0  0  0
 17 18  2  0  0  0  0
 17 22  1  0  0  0  0
 18 19  1  0  0  0  0
 19 20  2  0  0  0  0
 20 21  1  0  0  0  0
 20 26  1  0  0  0  0
 21 22  2  0  0  0  0
 21 24  1  0  0  0  0
 22 23  1  0  0  0  0
 24 25  2  0  0  0  0
 25 26  1  0  0  0  0
M  END
>  <CHROM.1>
163.21120353,-65.25879459,-63.54878763,176.76836170,84.39303372,-63.09194228
93.62353034,47.45879780,56.67118070,31.65594341,-2.24273331,-1.19979247,1.44006588

>  <Name>
ligand

>  <RI>
0

>  <Rbt.Current_Directory>
/home/itssahil/PROJECTS/Mol_Feturizer/New_Systems/rnas/3GX3

>  <Rbt.Executable>
rbdock ($Id: //depot/dev/client3/rdock/2013.1/src/exe/rbdock.cxx#4 $)

>  <Rbt.Library>
libRbt.so (2013.1, Build901 2013/11/27)

>  <Rbt.Parameter_File>
/export/apps/rDock/src/rDock_2013.1_src/data/scripts/dock_solv.prm

>  <Rbt.Receptor>
prm/pocket_docking_2.prm

>  <SCORE>
-17.8112

>  <SCORE.INTER>
-12.554

>  <SCORE.INTER.CONST>
1

>  <SCORE.INTER.POLAR>
0

>  <SCORE.INTER.ROT>
7

>  <SCORE.INTER.SOLV>
14.9398

>  <SCORE.INTER.VDW>
-21.6159

>  <SCORE.INTER.norm>
-0.482845

>  <SCORE.INTRA>
-5.26195

>  <SCORE.INTRA.DIHEDRAL>
-1.87593

>  <SCORE.INTRA.DIHEDRAL.0>
5.78979

>  <SCORE.INTRA.POLAR>
0

>  <SCORE.INTRA.POLAR.0>
0

>  <SCORE.INTRA.REPUL>
0

>  <SCORE.INTRA.REPUL.0>
0

>  <SCORE.INTRA.SOLV>
0.403845

>  <SCORE.INTRA.SOLV.lig_0>
-49.9151

>  <SCORE.INTRA.VDW>
-4.5259

>  <SCORE.INTRA.VDW.0>
-0.211125

>  <SCORE.INTRA.norm>
-0.202383

>  <SCORE.RESTR>
0.00465977

>  <SCORE.RESTR.CAVITY>
0.00465977

>  <SCORE.RESTR.norm>
0.000179222

>  <SCORE.SYSTEM>
0

>  <SCORE.SYSTEM.CONST>
0

>  <SCORE.SYSTEM.DIHEDRAL>
0

>  <SCORE.SYSTEM.SOLV>
0

>  <SCORE.SYSTEM.norm>
0

>  <SCORE.heavy>
26

>  <SCORE.norm>
-0.685048

>  <RMSD>
1.258

$$$$
ligand
 OpenBabel11021811483D
libRbt.so/2013.1/901 2013/11/27
 26 28  0  0  0  0  0  0  0  0999 V2000
   45.4817   56.8709   28.0732 N   0  0  0  0  0  0  0  0  0  0  0  0
   46.8045   56.9171   28.7023 C   0  0  2  0  0  0  0  0  0  0  0  0
   47.8498   57.7037   27.9083 C   0  0  0  0  0  0  0  0  0  0  0  0
   48.5417   58.5239   28.5122 O   0  0  0  0  0  0  0  0  0  0  0  0
   47.4211   55.5470   29.0130 C   0  0  0  0  0  0  0  0  0  0  0  0
   48.7240   55.4304   29.7848 C   0  0  0  0  0  0  0  0  0  0  0  0
   49.0455   53.6629   29.9856 S   0  0  0  0  0  0  0  0  0  0  0  0
   47.9644   53.7336   31.4339 C   0  0  0  0  0  0  0  0  0  0  0  0
   48.6799   54.0858   32.7424 C   0  0  1  0  0  0  0  0  0  0  0  0
   49.4435   55.2947   32.6606 O   0  0  0  0  0  0  0  0  0  0  0  0
   47.6799   54.2635   33.8757 C   0  0  1  0  0  0  0  0  0  0  0  0
   47.4820   53.0582   34.5810 O   0  0  0  0  0  0  0  0  0  0  0  0
   48.2708   55.3729   34.7360 C   0  0  1  0  0  0  0  0  0  0  0  0
   49.0898   54.8549   35.7649 O   0  0  0  0  0  0  0  0  0  0  0  0
   49.1629   56.1299   33.7719 C   0  0  2  0  0  0  0  0  0  0  0  0
   48.0371   57.5404   26.6962 O   0  0  0  0  0  0  0  0  0  0  0  0
   44.8747   58.5185   31.8945 N   0  0  0  0  0  0  0  0  0  0  0  0
   45.0490   57.1879   32.1807 C   0  0  0  0  0  0  0  0  0  0  0  0
   46.2646   56.7398   32.6536 N   0  0  0  0  0  0  0  0  0  0  0  0
   47.2810   57.5918   32.8758 C   0  0  0  0  0  0  0  0  0  0  0  0
   47.1250   58.9385   32.5952 C   0  0  0  0  0  0  0  0  0  0  0  0
   45.9163   59.3878   32.1016 C   0  0  0  0  0  0  0  0  0  0  0  0
   45.7415   60.6684   31.8390 N   0  0  0  0  0  0  0  0  0  0  0  0
   48.2793   59.5725   32.8999 N   0  0  0  0  0  0  0  0  0  0  0  0
   49.1671   58.6468   33.3431 C   0  0  0  0  0  0  0  0  0  0  0  0
   48.5593   57.4104   33.3355 N   0  0  0  0  0  0  0  0  0  0  0  0
  2  1  1  6  0  0  0
  2  3  1  0  0  0  0
  2  5  1  0  0  0  0
  3  4  1  0  0  0  0
  3 16  1  0  0  0  0
  5  6  1  0  0  0  0
  6  7  1  0  0  0  0
  7  8  1  0  0  0  0
  9  8  1  6  0  0  0
  9 10  1  0  0  0  0
  9 11  1  0  0  0  0
 10 15  1  0  0  0  0
 11 12  1  1  0  0  0
 11 13  1  0  0  0  0
 13 14  1  1  0  0  0
 13 15  1  0  0  0  0
 15 26  1  6  0  0  0
 17 18  2  0  0  0  0
 17 22  1  0  0  0  0
 18 19  1  0  0  0  0
 19 20  2  0  0  0  0
 20 21  1  0  0  0  0
 20 26  1  0  0  0  0
 21 22  2  0  0  0  0
 21 24  1  0  0  0  0
 22 23  1  0  0  0  0
 24 25  2  0  0  0  0
 25 26  1  0  0  0  0
M  END
>  <CHROM.1>
132.68989024,-174.01763352,177.66129104,-84.42137641,-88.49822174,53.77285305
73.51779466,47.71678453,56.47923730,31.58854204,-2.20328538,-1.19030502,1.51264158

>  <Name>
ligand

>  <RI>
0

>  <Rbt.Current_Directory>
/home/itssahil/PROJECTS/Mol_Feturizer/New_Systems/rnas/3GX3

>  <Rbt.Executable>
rbdock ($Id: //depot/dev/client3/rdock/2013.1/src/exe/rbdock.cxx#4 $)

>  <Rbt.Library>
libRbt.so (2013.1, Build901 2013/11/27)

>  <Rbt.Parameter_File>
/export/apps/rDock/src/rDock_2013.1_src/data/scripts/dock_solv.prm

>  <Rbt.Receptor>
prm/pocket_docking_2.prm

>  <SCORE>
-17.1842

>  <SCORE.INTER>
-12.9424

>  <SCORE.INTER.CONST>
1

>  <SCORE.INTER.POLAR>
0

>  <SCORE.INTER.ROT>
7

>  <SCORE.INTER.SOLV>
16.4489

>  <SCORE.INTER.VDW>
-22.3779

>  <SCORE.INTER.norm>
-0.497783

>  <SCORE.INTRA>
-4.24257

>  <SCORE.INTRA.DIHEDRAL>
-0.728233

>  <SCORE.INTRA.DIHEDRAL.0>
5.78979

>  <SCORE.INTRA.POLAR>
0

>  <SCORE.INTRA.POLAR.0>
0

>  <SCORE.INTRA.REPUL>
0

>  <SCORE.INTRA.REPUL.0>
0

>  <SCORE.INTRA.SOLV>
-0.921812

>  <SCORE.INTRA.SOLV.lig_0>
-49.9151

>  <SCORE.INTRA.VDW>
-3.41755

>  <SCORE.INTRA.VDW.0>
-0.211125

>  <SCORE.INTRA.norm>
-0.163176

>  <SCORE.RESTR>
0.000748799

>  <SCORE.RESTR.CAVITY>
0.000748799

>  <SCORE.RESTR.norm>
2.88e-05

>  <SCORE.SYSTEM>
0

>  <SCORE.SYSTEM.CONST>
0

>  <SCORE.SYSTEM.DIHEDRAL>
0

>  <SCORE.SYSTEM.SOLV>
0

>  <SCORE.SYSTEM.norm>
0

>  <SCORE.heavy>
26

>  <SCORE.norm>
-0.66093

>  <RMSD>
1.263

$$$$
ligand
 OpenBabel11021811483D
libRbt.so/2013.1/901 2013/11/27
 26 28  0  0  0  0  0  0  0  0999 V2000
   47.9804   56.1262   27.0043 N   0  0  0  0  0  0  0  0  0  0  0  0
   47.1615   56.7050   28.0730 C   0  0  2  0  0  0  0  0  0  0  0  0
   46.4674   58.0147   27.6924 C   0  0  0  0  0  0  0  0  0  0  0  0
   46.8359   58.5913   26.6688 O   0  0  0  0  0  0  0  0  0  0  0  0
   47.9049   56.9625   29.3901 C   0  0  0  0  0  0  0  0  0  0  0  0
   48.4367   55.8128   30.2280 C   0  0  0  0  0  0  0  0  0  0  0  0
   46.9949   54.8862   30.8026 S   0  0  0  0  0  0  0  0  0  0  0  0
   48.1633   53.6720   31.4598 C   0  0  0  0  0  0  0  0  0  0  0  0
   48.7896   54.0579   32.8041 C   0  0  1  0  0  0  0  0  0  0  0  0
   49.5506   55.2697   32.7451 O   0  0  0  0  0  0  0  0  0  0  0  0
   47.7164   54.2540   33.8651 C   0  0  1  0  0  0  0  0  0  0  0  0
   47.4791   53.0634   34.5830 O   0  0  0  0  0  0  0  0  0  0  0  0
   48.2438   55.3862   34.7370 C   0  0  1  0  0  0  0  0  0  0  0  0
   48.9962   54.8967   35.8287 O   0  0  0  0  0  0  0  0  0  0  0  0
   49.1933   56.1276   33.8165 C   0  0  2  0  0  0  0  0  0  0  0  0
   45.5480   58.5070   28.3581 O   0  0  0  0  0  0  0  0  0  0  0  0
   44.8464   58.5968   32.1960 N   0  0  0  0  0  0  0  0  0  0  0  0
   44.9801   57.2946   32.6072 C   0  0  0  0  0  0  0  0  0  0  0  0
   46.2177   56.8156   32.9824 N   0  0  0  0  0  0  0  0  0  0  0  0
   47.2998   57.6140   32.9877 C   0  0  0  0  0  0  0  0  0  0  0  0
   47.1858   58.9316   32.5780 C   0  0  0  0  0  0  0  0  0  0  0  0
   45.9525   59.4091   32.1815 C   0  0  0  0  0  0  0  0  0  0  0  0
   45.8184   60.6642   31.7991 N   0  0  0  0  0  0  0  0  0  0  0  0
   48.4025   59.5128   32.6731 N   0  0  0  0  0  0  0  0  0  0  0  0
   49.2851   58.5796   33.1107 C   0  0  0  0  0  0  0  0  0  0  0  0
   48.6129   57.3940   33.3127 N   0  0  0  0  0  0  0  0  0  0  0  0
  2  1  1  6  0  0  0
  2  3  1  0  0  0  0
  2  5  1  0  0  0  0
  3  4  1  0  0  0  0
  3 16  1  0  0  0  0
  5  6  1  0  0  0  0
  6  7  1  0  0  0  0
  7  8  1  0  0  0  0
  9  8  1  6  0  0  0
  9 10  1  0  0  0  0
  9 11  1  0  0  0  0
 10 15  1  0  0  0  0
 11 12  1  1  0  0  0
 11 13  1  0  0  0  0
 13 14  1  1  0  0  0
 13 15  1  0  0  0  0
 15 26  1  6  0  0  0
 17 18  2  0  0  0  0
 17 22  1  0  0  0  0
 18 19  1  0  0  0  0
 19 20  2  0  0  0  0
 20 21  1  0  0  0  0
 20 26  1  0  0  0  0
 21 22  2  0  0  0  0
 21 24  1  0  0  0  0
 22 23  1  0  0  0  0
 24 25  2  0  0  0  0
 25 26  1  0  0  0  0
M  END
>  <CHROM.1>
-13.48214659,-66.48267325,-65.05070151,173.23184429,80.29369882,-61.22138270
85.91717525,47.45656535,56.67270340,31.64787582,-2.42146431,-1.21339153,1.26808264

>  <Name>
ligand

>  <RI>
0

>  <Rbt.Current_Directory>
/home/itssahil/PROJECTS/Mol_Feturizer/New_Systems/rnas/3GX3

>  <Rbt.Executable>
rbdock ($Id: //depot/dev/client3/rdock/2013.1/src/exe/rbdock.cxx#4 $)

>  <Rbt.Library>
libRbt.so (2013.1, Build901 2013/11/27)

>  <Rbt.Parameter_File>
/export/apps/rDock/src/rDock_2013.1_src/data/scripts/dock_solv.prm

>  <Rbt.Receptor>
prm/pocket_docking_2.prm

>  <SCORE>
-17.7302

>  <SCORE.INTER>
-12.4401

>  <SCORE.INTER.CONST>
1

>  <SCORE.INTER.POLAR>
0

>  <SCORE.INTER.ROT>
7

>  <SCORE.INTER.SOLV>
15.2036

>  <SCORE.INTER.VDW>
-21.6279

>  <SCORE.INTER.norm>
-0.478464

>  <SCORE.INTRA>
-5.29015

>  <SCORE.INTRA.DIHEDRAL>
-1.93498

>  <SCORE.INTRA.DIHEDRAL.0>
5.78979

>  <SCORE.INTRA.POLAR>
0

>  <SCORE.INTRA.POLAR.0>
0

>  <SCORE.INTRA.REPUL>
0

>  <SCORE.INTRA.REPUL.0>
0

>  <SCORE.INTRA.SOLV>
0.436739

>  <SCORE.INTRA.SOLV.lig_0>
-49.9151

>  <SCORE.INTRA.VDW>
-4.54103

>  <SCORE.INTRA.VDW.0>
-0.211125

>  <SCORE.INTRA.norm>
-0.203467

>  <SCORE.RESTR>
0

>  <SCORE.RESTR.CAVITY>
0

>  <SCORE.RESTR.norm>
0

>  <SCORE.SYSTEM>
0

>  <SCORE.SYSTEM.CONST>
0

>  <SCORE.SYSTEM.DIHEDRAL>
0

>  <SCORE.SYSTEM.SOLV>
0

>  <SCORE.SYSTEM.norm>
0

>  <SCORE.heavy>
26

>  <SCORE.norm>
-0.681931

>  <RMSD>
1.279

$$$$
ligand
 OpenBabel11021811483D
libRbt.so/2013.1/901 2013/11/27
 26 28  0  0  0  0  0  0  0  0999 V2000
   47.5872   55.4820   26.6231 N   0  0  0  0  0  0  0  0  0  0  0  0
   46.6119   56.1370   27.4992 C   0  0  2  0  0  0  0  0  0  0  0  0
   46.4166   57.6282   27.2167 C   0  0  0  0  0  0  0  0  0  0  0  0
   46.5850   58.0281   26.0644 O   0  0  0  0  0  0  0  0  0  0  0  0
   46.8985   56.0029   29.0004 C   0  0  0  0  0  0  0  0  0  0  0  0
   48.1881   56.5327   29.6029 C   0  0  0  0  0  0  0  0  0  0  0  0
   49.4431   55.2607   29.3300 S   0  0  0  0  0  0  0  0  0  0  0  0
   48.6830   54.3594   30.7016 C   0  0  0  0  0  0  0  0  0  0  0  0
   49.2035   54.7568   32.0871 C   0  0  1  0  0  0  0  0  0  0  0  0
   49.7610   56.0754   32.1237 O   0  0  0  0  0  0  0  0  0  0  0  0
   48.0851   54.7144   33.1183 C   0  0  1  0  0  0  0  0  0  0  0  0
   48.0234   53.4594   33.7590 O   0  0  0  0  0  0  0  0  0  0  0  0
   48.4005   55.8603   34.0709 C   0  0  1  0  0  0  0  0  0  0  0  0
   49.1927   55.4305   35.1596 O   0  0  0  0  0  0  0  0  0  0  0  0
   49.2423   56.7982   33.2283 C   0  0  2  0  0  0  0  0  0  0  0  0
   46.0848   58.4405   28.0891 O   0  0  0  0  0  0  0  0  0  0  0  0
   44.4963   58.7965   32.1795 N   0  0  0  0  0  0  0  0  0  0  0  0
   44.8093   57.5304   32.6056 C   0  0  0  0  0  0  0  0  0  0  0  0
   46.1273   57.1806   32.8123 N   0  0  0  0  0  0  0  0  0  0  0  0
   47.1187   58.0723   32.6377 C   0  0  0  0  0  0  0  0  0  0  0  0
   46.8238   59.3555   32.2098 C   0  0  0  0  0  0  0  0  0  0  0  0
   45.5073   59.7032   31.9815 C   0  0  0  0  0  0  0  0  0  0  0  0
   45.2024   60.9237   31.5854 N   0  0  0  0  0  0  0  0  0  0  0  0
   47.9812   60.0469   32.1111 N   0  0  0  0  0  0  0  0  0  0  0  0
   49.0010   59.2160   32.4442 C   0  0  0  0  0  0  0  0  0  0  0  0
   48.4794   57.9848   32.7761 N   0  0  0  0  0  0  0  0  0  0  0  0
  2  1  1  6  0  0  0
  2  3  1  0  0  0  0
  2  5  1  0  0  0  0
  3  4  1  0  0  0  0
  3 16  1  0  0  0  0
  5  6  1  0  0  0  0
  6  7  1  0  0  0  0
  7  8  1  0  0  0  0
  9  8  1  6  0  0  0
  9 10  1  0  0  0  0
  9 11  1  0  0  0  0
 10 15  1  0  0  0  0
 11 12  1  1  0  0  0
 11 13  1  0  0  0  0
 13 14  1  1  0  0  0
 13 15  1  0  0  0  0
 15 26  1  6  0  0  0
 17 18  2  0  0  0  0
 17 22  1  0  0  0  0
 18 19  1  0  0  0  0
 19 20  2  0  0  0  0
 20 21  1  0  0  0  0
 20 26  1  0  0  0  0
 21 22  2  0  0  0  0
 21 24  1  0  0  0  0
 22 23  1  0  0  0  0
 24 25  2  0  0  0  0
 25 26  1  0  0  0  0
M  END
>  <CHROM.1>
29.66379592,59.88158052,-82.77969836,-77.07856949,-86.20420344,23.71812641
97.96303492,47.58353323,56.93066628,31.07812717,-2.08440181,-0.98025374,1.36693626

>  <Name>
ligand

>  <RI>
0

>  <Rbt.Current_Directory>
/home/itssahil/PROJECTS/Mol_Feturizer/New_Systems/rnas/3GX3

>  <Rbt.Executable>
rbdock ($Id: //depot/dev/client3/rdock/2013.1/src/exe/rbdock.cxx#4 $)

>  <Rbt.Library>
libRbt.so (2013.1, Build901 2013/11/27)

>  <Rbt.Parameter_File>
/export/apps/rDock/src/rDock_2013.1_src/data/scripts/dock_solv.prm

>  <Rbt.Receptor>
prm/pocket_docking_2.prm

>  <SCORE>
-11.6791

>  <SCORE.INTER>
-12.3773

>  <SCORE.INTER.CONST>
1

>  <SCORE.INTER.POLAR>
0

>  <SCORE.INTER.ROT>
7

>  <SCORE.INTER.SOLV>
16.4012

>  <SCORE.INTER.VDW>
-21.9852

>  <SCORE.INTER.norm>
-0.476049

>  <SCORE.INTRA>
0.683758

>  <SCORE.INTRA.DIHEDRAL>
3.68859

>  <SCORE.INTRA.DIHEDRAL.0>
5.78979

>  <SCORE.INTRA.POLAR>
0

>  <SCORE.INTRA.POLAR.0>
0

>  <SCORE.INTRA.REPUL>
0

>  <SCORE.INTRA.REPUL.0>
0

>  <SCORE.INTRA.SOLV>
1.03373

>  <SCORE.INTRA.SOLV.lig_0>
-49.9151

>  <SCORE.INTRA.VDW>
-1.6774

>  <SCORE.INTRA.VDW.0>
-0.211125

>  <SCORE.INTRA.norm>
0.0262984

>  <SCORE.RESTR>
0.0144174

>  <SCORE.RESTR.CAVITY>
0.0144174

>  <SCORE.RESTR.norm>
0.000554517

>  <SCORE.SYSTEM>
0

>  <SCORE.SYSTEM.CONST>
0

>  <SCORE.SYSTEM.DIHEDRAL>
0

>  <SCORE.SYSTEM.SOLV>
0

>  <SCORE.SYSTEM.norm>
0

>  <SCORE.heavy>
26

>  <SCORE.norm>
-0.449196

>  <RMSD>
1.293

$$$$
ligand
 OpenBabel11021811483D
libRbt.so/2013.1/901 2013/11/27
 26 28  0  0  0  0  0  0  0  0999 V2000
   48.5538   56.5546   26.4445 N   0  0  0  0  0  0  0  0  0  0  0  0
   47.2408   56.4202   27.0815 C   0  0  2  0  0  0  0  0  0  0  0  0
   46.9347   57.4997   28.1221 C   0  0  0  0  0  0  0  0  0  0  0  0
   45.7744   57.6125   28.5182 O   0  0  0  0  0  0  0  0  0  0  0  0
   46.9852   55.0667   27.7571 C   0  0  0  0  0  0  0  0  0  0  0  0
   47.9824   54.4809   28.7414 C   0  0  0  0  0  0  0  0  0  0  0  0
   47.9081   55.5132   30.2235 S   0  0  0  0  0  0  0  0  0  0  0  0
   48.6307   54.1133   31.1121 C   0  0  0  0  0  0  0  0  0  0  0  0
   48.9664   54.3992   32.5798 C   0  0  1  0  0  0  0  0  0  0  0  0
   49.6285   55.6543   32.7732 O   0  0  0  0  0  0  0  0  0  0  0  0
   47.7040   54.4230   33.4293 C   0  0  1  0  0  0  0  0  0  0  0  0
   47.4318   53.1542   33.9819 O   0  0  0  0  0  0  0  0  0  0  0  0
   47.9719   55.4914   34.4814 C   0  0  1  0  0  0  0  0  0  0  0  0
   48.5459   54.9408   35.6497 O   0  0  0  0  0  0  0  0  0  0  0  0
   49.0141   56.3772   33.8274 C   0  0  2  0  0  0  0  0  0  0  0  0
   47.8016   58.2488   28.5894 O   0  0  0  0  0  0  0  0  0  0  0  0
   44.7096   58.8411   32.0900 N   0  0  0  0  0  0  0  0  0  0  0  0
   44.8422   57.5294   32.4699 C   0  0  0  0  0  0  0  0  0  0  0  0
   46.0686   57.0542   32.8848 N   0  0  0  0  0  0  0  0  0  0  0  0
   47.1391   57.8647   32.9594 C   0  0  0  0  0  0  0  0  0  0  0  0
   47.0260   59.1920   32.5823 C   0  0  0  0  0  0  0  0  0  0  0  0
   45.8048   59.6663   32.1462 C   0  0  0  0  0  0  0  0  0  0  0  0
   45.6712   60.9302   31.7938 N   0  0  0  0  0  0  0  0  0  0  0  0
   48.2299   59.7843   32.7463 N   0  0  0  0  0  0  0  0  0  0  0  0
   49.1047   58.8492   33.1954 C   0  0  0  0  0  0  0  0  0  0  0  0
   48.4397   57.6507   33.3347 N   0  0  0  0  0  0  0  0  0  0  0  0
  2  1  1  1  0  0  0
  2  3  1  0  0  0  0
  2  5  1  0  0  0  0
  3  4  1  0  0  0  0
  3 16  1  0  0  0  0
  5  6  1  0  0  0  0
  6  7  1  0  0  0  0
  7  8  1  0  0  0  0
  9  8  1  6  0  0  0
  9 10  1  0  0  0  0
  9 11  1  0  0  0  0
 10 15  1  0  0  0  0
 11 12  1  1  0  0  0
 11 13  1  0  0  0  0
 13 14  1  1  0  0  0
 13 15  1  0  0  0  0
 15 26  1  6  0  0  0
 17 18  2  0  0  0  0
 17 22  1  0  0  0  0
 18 19  1  0  0  0  0
 19 20  2  0  0  0  0
 20 21  1  0  0  0  0
 20 26  1  0  0  0  0
 21 22  2  0  0  0  0
 21 24  1  0  0  0  0
 22 23  1  0  0  0  0
 24 25  2  0  0  0  0
 25 26  1  0  0  0  0
M  END
>  <CHROM.1>
166.59679761,50.99479920,69.86434002,159.22976089,175.11950267,-45.13769212
95.67706284,47.50851981,56.69957285,31.44472419,-1.94600820,-1.17503567,1.37605873

>  <Name>
ligand

>  <RI>
0

>  <Rbt.Current_Directory>
/home/itssahil/PROJECTS/Mol_Feturizer/New_Systems/rnas/3GX3

>  <Rbt.Executable>
rbdock ($Id: //depot/dev/client3/rdock/2013.1/src/exe/rbdock.cxx#4 $)

>  <Rbt.Library>
libRbt.so (2013.1, Build901 2013/11/27)

>  <Rbt.Parameter_File>
/export/apps/rDock/src/rDock_2013.1_src/data/scripts/dock_solv.prm

>  <Rbt.Receptor>
prm/pocket_docking_2.prm

>  <SCORE>
-13.6161

>  <SCORE.INTER>
-9.6818

>  <SCORE.INTER.CONST>
1

>  <SCORE.INTER.POLAR>
0

>  <SCORE.INTER.ROT>
7

>  <SCORE.INTER.SOLV>
18.1711

>  <SCORE.INTER.VDW>
-20.7782

>  <SCORE.INTER.norm>
-0.372377

>  <SCORE.INTRA>
-4.11891

>  <SCORE.INTRA.DIHEDRAL>
-0.816044

>  <SCORE.INTRA.DIHEDRAL.0>
5.78979

>  <SCORE.INTRA.POLAR>
0

>  <SCORE.INTRA.POLAR.0>
0

>  <SCORE.INTRA.REPUL>
0

>  <SCORE.INTRA.REPUL.0>
0

>  <SCORE.INTRA.SOLV>
0.438261

>  <SCORE.INTRA.SOLV.lig_0>
-49.9151

>  <SCORE.INTRA.VDW>
-3.93002

>  <SCORE.INTRA.VDW.0>
-0.211125

>  <SCORE.INTRA.norm>
-0.15842

>  <SCORE.RESTR>
0.184608

>  <SCORE.RESTR.CAVITY>
0.184608

>  <SCORE.RESTR.norm>
0.0071003

>  <SCORE.SYSTEM>
0

>  <SCORE.SYSTEM.CONST>
0

>  <SCORE.SYSTEM.DIHEDRAL>
0

>  <SCORE.SYSTEM.SOLV>
0

>  <SCORE.SYSTEM.norm>
0

>  <SCORE.heavy>
26

>  <SCORE.norm>
-0.523696

>  <RMSD>
1.297

$$$$
ligand
 OpenBabel11021811483D
libRbt.so/2013.1/901 2013/11/27
 26 28  0  0  0  0  0  0  0  0999 V2000
   47.5275   55.4288   26.7545 N   0  0  0  0  0  0  0  0  0  0  0  0
   47.3758   56.4681   27.7766 C   0  0  2  0  0  0  0  0  0  0  0  0
   47.3550   57.8945   27.2228 C   0  0  0  0  0  0  0  0  0  0  0  0
   46.6128   58.1374   26.2708 O   0  0  0  0  0  0  0  0  0  0  0  0
   48.4309   56.4391   28.8900 C   0  0  0  0  0  0  0  0  0  0  0  0
   48.6428   55.1965   29.7372 C   0  0  0  0  0  0  0  0  0  0  0  0
   47.1082   54.9330   30.6554 S   0  0  0  0  0  0  0  0  0  0  0  0
   47.9662   53.5865   31.5051 C   0  0  0  0  0  0  0  0  0  0  0  0
   48.6329   53.9920   32.8239 C   0  0  1  0  0  0  0  0  0  0  0  0
   49.4483   55.1636   32.7073 O   0  0  0  0  0  0  0  0  0  0  0  0
   47.5886   54.2776   33.8933 C   0  0  1  0  0  0  0  0  0  0  0  0
   47.3086   53.1269   34.6593 O   0  0  0  0  0  0  0  0  0  0  0  0
   48.1831   55.4152   34.7134 C   0  0  1  0  0  0  0  0  0  0  0  0
   48.9307   54.9315   35.8111 O   0  0  0  0  0  0  0  0  0  0  0  0
   49.1498   56.0764   33.7509 C   0  0  2  0  0  0  0  0  0  0  0  0
   48.0374   58.8108   27.6979 O   0  0  0  0  0  0  0  0  0  0  0  0
   44.8656   58.7735   32.3405 N   0  0  0  0  0  0  0  0  0  0  0  0
   44.9404   57.4948   32.8324 C   0  0  0  0  0  0  0  0  0  0  0  0
   46.1687   56.9440   33.1320 N   0  0  0  0  0  0  0  0  0  0  0  0
   47.3026   57.6518   32.9845 C   0  0  0  0  0  0  0  0  0  0  0  0
   47.2487   58.9444   32.4913 C   0  0  0  0  0  0  0  0  0  0  0  0
   46.0225   59.4919   32.1703 C   0  0  0  0  0  0  0  0  0  0  0  0
   45.9466   60.7258   31.7105 N   0  0  0  0  0  0  0  0  0  0  0  0
   48.5085   59.4312   32.4371 N   0  0  0  0  0  0  0  0  0  0  0  0
   49.3566   58.4612   32.8629 C   0  0  0  0  0  0  0  0  0  0  0  0
   48.6203   57.3493   33.2087 N   0  0  0  0  0  0  0  0  0  0  0  0
  2  1  1  6  0  0  0
  2  3  1  0  0  0  0
  2  5  1  0  0  0  0
  3  4  1  0  0  0  0
  3 16  1  0  0  0  0
  5  6  1  0  0  0  0
  6  7  1  0  0  0  0
  7  8  1  0  0  0  0
  9  8  1  6  0  0  0
  9 10  1  0  0  0  0
  9 11  1  0  0  0  0
 10 15  1  0  0  0  0
 11 12  1  1  0  0  0
 11 13  1  0  0  0  0
 13 14  1  1  0  0  0
 13 15  1  0  0  0  0
 15 26  1  6  0  0  0
 17 18  2  0  0  0  0
 17 22  1  0  0  0  0
 18 19  1  0  0  0  0
 19 20  2  0  0  0  0
 20 21  1  0  0  0  0
 20 26  1  0  0  0  0
 21 22  2  0  0  0  0
 21 24  1  0  0  0  0
 22 23  1  0  0  0  0
 24 25  2  0  0  0  0
 25 26  1  0  0  0  0
M  END
>  <CHROM.1>
48.73098352,-56.97414206,-64.06367817,-174.66012643,93.29165973,-49.78283934
90.85302556,47.58713010,56.59972121,31.51068951,-2.03189662,-1.27396724,1.51389474

>  <Name>
ligand

>  <RI>
0

>  <Rbt.Current_Directory>
/home/itssahil/PROJECTS/Mol_Feturizer/New_Systems/rnas/3GX3

>  <Rbt.Executable>
rbdock ($Id: //depot/dev/client3/rdock/2013.1/src/exe/rbdock.cxx#4 $)

>  <Rbt.Library>
libRbt.so (2013.1, Build901 2013/11/27)

>  <Rbt.Parameter_File>
/export/apps/rDock/src/rDock_2013.1_src/data/scripts/dock_solv.prm

>  <Rbt.Receptor>
prm/pocket_docking_2.prm

>  <SCORE>
-17.3371

>  <SCORE.INTER>
-13.9632

>  <SCORE.INTER.CONST>
1

>  <SCORE.INTER.POLAR>
0

>  <SCORE.INTER.ROT>
7

>  <SCORE.INTER.SOLV>
14.3209

>  <SCORE.INTER.VDW>
-22.3491

>  <SCORE.INTER.norm>
-0.537048

>  <SCORE.INTRA>
-3.43024

>  <SCORE.INTRA.DIHEDRAL>
-1.04036

>  <SCORE.INTRA.DIHEDRAL.0>
5.78979

>  <SCORE.INTRA.POLAR>
0

>  <SCORE.INTRA.POLAR.0>
0

>  <SCORE.INTRA.REPUL>
0

>  <SCORE.INTRA.REPUL.0>
0

>  <SCORE.INTRA.SOLV>
0.506835

>  <SCORE.INTRA.SOLV.lig_0>
-49.9151

>  <SCORE.INTRA.VDW>
-3.16347

>  <SCORE.INTRA.VDW.0>
-0.211125

>  <SCORE.INTRA.norm>
-0.131932

>  <SCORE.RESTR>
0.0563919

>  <SCORE.RESTR.CAVITY>
0.0563919

>  <SCORE.RESTR.norm>
0.00216892

>  <SCORE.SYSTEM>
0

>  <SCORE.SYSTEM.CONST>
0

>  <SCORE.SYSTEM.DIHEDRAL>
0

>  <SCORE.SYSTEM.SOLV>
0

>  <SCORE.SYSTEM.norm>
0

>  <SCORE.heavy>
26

>  <SCORE.norm>
-0.666811

>  <RMSD>
1.308

$$$$
ligand
 OpenBabel11021811483D
libRbt.so/2013.1/901 2013/11/27
 26 28  0  0  0  0  0  0  0  0999 V2000
   47.5198   55.4163   26.8466 N   0  0  0  0  0  0  0  0  0  0  0  0
   47.3320   56.4941   27.8218 C   0  0  2  0  0  0  0  0  0  0  0  0
   47.2827   57.8947   27.2073 C   0  0  0  0  0  0  0  0  0  0  0  0
   48.0391   58.7546   27.6596 O   0  0  0  0  0  0  0  0  0  0  0  0
   48.3754   56.5385   28.9457 C   0  0  0  0  0  0  0  0  0  0  0  0
   48.6123   55.3366   29.8435 C   0  0  0  0  0  0  0  0  0  0  0  0
   47.0500   55.0147   30.6938 S   0  0  0  0  0  0  0  0  0  0  0  0
   47.8956   53.6426   31.5145 C   0  0  0  0  0  0  0  0  0  0  0  0
   48.6246   54.0287   32.8059 C   0  0  1  0  0  0  0  0  0  0  0  0
   49.4537   55.1875   32.6613 O   0  0  0  0  0  0  0  0  0  0  0  0
   47.6316   54.3246   33.9205 C   0  0  1  0  0  0  0  0  0  0  0  0
   47.3653   53.1738   34.6912 O   0  0  0  0  0  0  0  0  0  0  0  0
   48.2794   55.4470   34.7210 C   0  0  1  0  0  0  0  0  0  0  0  0
   49.0649   54.9441   35.7829 O   0  0  0  0  0  0  0  0  0  0  0  0
   49.2152   56.0984   33.7219 C   0  0  2  0  0  0  0  0  0  0  0  0
   46.5299   58.1929   26.2717 O   0  0  0  0  0  0  0  0  0  0  0  0
   44.9366   58.7935   32.2908 N   0  0  0  0  0  0  0  0  0  0  0  0
   45.0142   57.4993   32.7399 C   0  0  0  0  0  0  0  0  0  0  0  0
   46.2410   56.9526   33.0532 N   0  0  0  0  0  0  0  0  0  0  0  0
   47.3695   57.6782   32.9610 C   0  0  0  0  0  0  0  0  0  0  0  0
   47.3125   58.9865   32.5116 C   0  0  0  0  0  0  0  0  0  0  0  0
   46.0886   59.5307   32.1767 C   0  0  0  0  0  0  0  0  0  0  0  0
   46.0095   60.7789   31.7581 N   0  0  0  0  0  0  0  0  0  0  0  0
   48.5672   59.4895   32.5082 N   0  0  0  0  0  0  0  0  0  0  0  0
   49.4157   58.5150   32.9228 C   0  0  0  0  0  0  0  0  0  0  0  0
   48.6845   57.3832   33.2100 N   0  0  0  0  0  0  0  0  0  0  0  0
  2  1  1  6  0  0  0
  2  3  1  0  0  0  0
  2  5  1  0  0  0  0
  3  4  1  0  0  0  0
  3 16  1  0  0  0  0
  5  6  1  0  0  0  0
  6  7  1  0  0  0  0
  7  8  1  0  0  0  0
  9  8  1  6  0  0  0
  9 10  1  0  0  0  0
  9 11  1  0  0  0  0
 10 15  1  0  0  0  0
 11 12  1  1  0  0  0
 11 13  1  0  0  0  0
 13 14  1  1  0  0  0
 13 15  1  0  0  0  0
 15 26  1  6  0  0  0
 17 18  2  0  0  0  0
 17 22  1  0  0  0  0
 18 19  1  0  0  0  0
 19 20  2  0  0  0  0
 20 21  1  0  0  0  0
 20 26  1  0  0  0  0
 21 22  2  0  0  0  0
 21 24  1  0  0  0  0
 22 23  1  0  0  0  0
 24 25  2  0  0  0  0
 25 26  1  0  0  0  0
M  END
>  <CHROM.1>
-127.16240148,-56.70935589,-61.24320832,-179.73121212,87.69236277,-48.72258380
86.24798769,47.60674275,56.63827540,31.51981336,-2.14369988,-1.28900001,1.40785783

>  <Name>
ligand

>  <RI>
0

>  <Rbt.Current_Directory>
/home/itssahil/PROJECTS/Mol_Feturizer/New_Systems/rnas/3GX3

>  <Rbt.Executable>
rbdock ($Id: //depot/dev/client3/rdock/2013.1/src/exe/rbdock.cxx#4 $)

>  <Rbt.Library>
libRbt.so (2013.1, Build901 2013/11/27)

>  <Rbt.Parameter_File>
/export/apps/rDock/src/rDock_2013.1_src/data/scripts/dock_solv.prm

>  <Rbt.Receptor>
prm/pocket_docking_2.prm

>  <SCORE>
-16.5887

>  <SCORE.INTER>
-13.9569

>  <SCORE.INTER.CONST>
1

>  <SCORE.INTER.POLAR>
0

>  <SCORE.INTER.ROT>
7

>  <SCORE.INTER.SOLV>
14.6348

>  <SCORE.INTER.VDW>
-22.4496

>  <SCORE.INTER.norm>
-0.536805

>  <SCORE.INTRA>
-2.65715

>  <SCORE.INTRA.DIHEDRAL>
-1.3806

>  <SCORE.INTRA.DIHEDRAL.0>
5.78979

>  <SCORE.INTRA.POLAR>
0

>  <SCORE.INTRA.POLAR.0>
0

>  <SCORE.INTRA.REPUL>
0

>  <SCORE.INTRA.REPUL.0>
0

>  <SCORE.INTRA.SOLV>
0.575577

>  <SCORE.INTRA.SOLV.lig_0>
-49.9151

>  <SCORE.INTRA.VDW>
-2.25464

>  <SCORE.INTRA.VDW.0>
-0.211125

>  <SCORE.INTRA.norm>
-0.102198

>  <SCORE.RESTR>
0.0253926

>  <SCORE.RESTR.CAVITY>
0.0253926

>  <SCORE.RESTR.norm>
0.000976638

>  <SCORE.SYSTEM>
0

>  <SCORE.SYSTEM.CONST>
0

>  <SCORE.SYSTEM.DIHEDRAL>
0

>  <SCORE.SYSTEM.SOLV>
0

>  <SCORE.SYSTEM.norm>
0

>  <SCORE.heavy>
26

>  <SCORE.norm>
-0.638026

>  <RMSD>
1.314

$$$$
ligand
 OpenBabel11021811483D
libRbt.so/2013.1/901 2013/11/27
 26 28  0  0  0  0  0  0  0  0999 V2000
   47.4897   55.8493   26.8965 N   0  0  0  0  0  0  0  0  0  0  0  0
   46.9453   56.6113   28.0237 C   0  0  2  0  0  0  0  0  0  0  0  0
   46.4403   58.0073   27.6520 C   0  0  0  0  0  0  0  0  0  0  0  0
   45.5636   58.5136   28.3527 O   0  0  0  0  0  0  0  0  0  0  0  0
   47.9034   56.7865   29.2090 C   0  0  0  0  0  0  0  0  0  0  0  0
   48.3783   55.5912   30.0167 C   0  0  0  0  0  0  0  0  0  0  0  0
   46.9098   54.8825   30.7972 S   0  0  0  0  0  0  0  0  0  0  0  0
   48.0082   53.6212   31.4856 C   0  0  0  0  0  0  0  0  0  0  0  0
   48.6668   54.0104   32.8134 C   0  0  1  0  0  0  0  0  0  0  0  0
   49.4686   55.1935   32.7204 O   0  0  0  0  0  0  0  0  0  0  0  0
   47.6164   54.2642   33.8850 C   0  0  1  0  0  0  0  0  0  0  0  0
   47.3481   53.0964   34.6292 O   0  0  0  0  0  0  0  0  0  0  0  0
   48.1954   55.3935   34.7274 C   0  0  1  0  0  0  0  0  0  0  0  0
   48.9459   54.8987   35.8180 O   0  0  0  0  0  0  0  0  0  0  0  0
   49.1567   56.0835   33.7797 C   0  0  2  0  0  0  0  0  0  0  0  0
   46.8838   58.6496   26.6919 O   0  0  0  0  0  0  0  0  0  0  0  0
   44.8629   58.6994   32.2508 N   0  0  0  0  0  0  0  0  0  0  0  0
   44.9548   57.4052   32.6969 C   0  0  0  0  0  0  0  0  0  0  0  0
   46.1839   56.8815   33.0391 N   0  0  0  0  0  0  0  0  0  0  0  0
   47.2997   57.6297   32.9782 C   0  0  0  0  0  0  0  0  0  0  0  0
   47.2281   58.9384   32.5323 C   0  0  0  0  0  0  0  0  0  0  0  0
   46.0025   59.4597   32.1686 C   0  0  0  0  0  0  0  0  0  0  0  0
   45.9092   60.7079   31.7528 N   0  0  0  0  0  0  0  0  0  0  0  0
   48.4722   59.4662   32.5626 N   0  0  0  0  0  0  0  0  0  0  0  0
   49.3292   58.5070   32.9950 C   0  0  0  0  0  0  0  0  0  0  0  0
   48.6136   57.3597   33.2593 N   0  0  0  0  0  0  0  0  0  0  0  0
  2  1  1  6  0  0  0
  2  3  1  0  0  0  0
  2  5  1  0  0  0  0
  3  4  1  0  0  0  0
  3 16  1  0  0  0  0
  5  6  1  0  0  0  0
  6  7  1  0  0  0  0
  7  8  1  0  0  0  0
  9  8  1  6  0  0  0
  9 10  1  0  0  0  0
  9 11  1  0  0  0  0
 10 15  1  0  0  0  0
 11 12  1  1  0  0  0
 11 13  1  0  0  0  0
 13 14  1  1  0  0  0
 13 15  1  0  0  0  0
 15 26  1  6  0  0  0
 17 18  2  0  0  0  0
 17 22  1  0  0  0  0
 18 19  1  0  0  0  0
 19 20  2  0  0  0  0
 20 21  1  0  0  0  0
 20 26  1  0  0  0  0
 21 22  2  0  0  0  0
 21 24  1  0  0  0  0
 22 23  1  0  0  0  0
 24 25  2  0  0  0  0
 25 26  1  0  0  0  0
M  END
>  <CHROM.1>
153.97431763,-64.52500865,-63.58932844,178.46563935,86.74592668,-59.56287513
87.58366357,47.40430970,56.64870088,31.62060506,-2.49247677,-1.24310885,1.17593219

>  <Name>
ligand

>  <RI>
0

>  <Rbt.Current_Directory>
/home/itssahil/PROJECTS/Mol_Feturizer/New_Systems/rnas/3GX3

>  <Rbt.Executable>
rbdock ($Id: //depot/dev/client3/rdock/2013.1/src/exe/rbdock.cxx#4 $)

>  <Rbt.Library>
libRbt.so (2013.1, Build901 2013/11/27)

>  <Rbt.Parameter_File>
/export/apps/rDock/src/rDock_2013.1_src/data/scripts/dock_solv.prm

>  <Rbt.Receptor>
prm/pocket_docking_2.prm

>  <SCORE>
-18.1302

>  <SCORE.INTER>
-12.6123

>  <SCORE.INTER.CONST>
1

>  <SCORE.INTER.POLAR>
0

>  <SCORE.INTER.ROT>
7

>  <SCORE.INTER.SOLV>
14.6965

>  <SCORE.INTER.VDW>
-21.5737

>  <SCORE.INTER.norm>
-0.485088

>  <SCORE.INTRA>
-5.52212

>  <SCORE.INTRA.DIHEDRAL>
-1.81308

>  <SCORE.INTRA.DIHEDRAL.0>
5.78979

>  <SCORE.INTRA.POLAR>
0

>  <SCORE.INTRA.POLAR.0>
0

>  <SCORE.INTRA.REPUL>
0

>  <SCORE.INTRA.REPUL.0>
0

>  <SCORE.INTRA.SOLV>
0.428178

>  <SCORE.INTRA.SOLV.lig_0>
-49.9151

>  <SCORE.INTRA.VDW>
-4.82967

>  <SCORE.INTRA.VDW.0>
-0.211125

>  <SCORE.INTRA.norm>
-0.212389

>  <SCORE.RESTR>
0.00425743

>  <SCORE.RESTR.CAVITY>
0.00425743

>  <SCORE.RESTR.norm>
0.000163747

>  <SCORE.SYSTEM>
0

>  <SCORE.SYSTEM.CONST>
0

>  <SCORE.SYSTEM.DIHEDRAL>
0

>  <SCORE.SYSTEM.SOLV>
0

>  <SCORE.SYSTEM.norm>
0

>  <SCORE.heavy>
26

>  <SCORE.norm>
-0.697314

>  <RMSD>
1.321

$$$$
ligand
 OpenBabel11021811483D
libRbt.so/2013.1/901 2013/11/27
 26 28  0  0  0  0  0  0  0  0999 V2000
   49.6674   55.7420   28.5847 N   0  0  0  0  0  0  0  0  0  0  0  0
   48.2871   55.9844   28.1561 C   0  0  2  0  0  0  0  0  0  0  0  0
   47.9655   57.4544   27.8778 C   0  0  0  0  0  0  0  0  0  0  0  0
   47.1605   57.7136   26.9829 O   0  0  0  0  0  0  0  0  0  0  0  0
   47.2106   55.4688   29.1200 C   0  0  0  0  0  0  0  0  0  0  0  0
   47.0297   53.9818   29.3706 C   0  0  0  0  0  0  0  0  0  0  0  0
   48.5220   53.4191   30.2214 S   0  0  0  0  0  0  0  0  0  0  0  0
   47.6372   53.7327   31.7673 C   0  0  0  0  0  0  0  0  0  0  0  0
   48.5398   54.0887   32.9534 C   0  0  1  0  0  0  0  0  0  0  0  0
   49.4071   55.1975   32.6899 O   0  0  0  0  0  0  0  0  0  0  0  0
   47.7095   54.4503   34.1764 C   0  0  1  0  0  0  0  0  0  0  0  0
   47.4774   53.3233   34.9922 O   0  0  0  0  0  0  0  0  0  0  0  0
   48.5116   55.5415   34.8735 C   0  0  1  0  0  0  0  0  0  0  0  0
   49.3932   55.0047   35.8391 O   0  0  0  0  0  0  0  0  0  0  0  0
   49.3515   56.1299   33.7570 C   0  0  2  0  0  0  0  0  0  0  0  0
   48.4663   58.3860   28.5199 O   0  0  0  0  0  0  0  0  0  0  0  0
   45.1383   58.8420   32.1723 N   0  0  0  0  0  0  0  0  0  0  0  0
   45.2104   57.5209   32.5358 C   0  0  0  0  0  0  0  0  0  0  0  0
   46.4208   56.9756   32.9093 N   0  0  0  0  0  0  0  0  0  0  0  0
   47.5356   57.7261   32.9595 C   0  0  0  0  0  0  0  0  0  0  0  0
   47.4838   59.0616   32.5983 C   0  0  0  0  0  0  0  0  0  0  0  0
   46.2779   59.6060   32.2035 C   0  0  0  0  0  0  0  0  0  0  0  0
   46.2030   60.8791   31.8670 N   0  0  0  0  0  0  0  0  0  0  0  0
   48.7224   59.5861   32.7318 N   0  0  0  0  0  0  0  0  0  0  0  0
   49.5579   58.6002   33.1457 C   0  0  0  0  0  0  0  0  0  0  0  0
   48.8331   57.4380   33.2936 N   0  0  0  0  0  0  0  0  0  0  0  0
  2  1  1  1  0  0  0
  2  3  1  0  0  0  0
  2  5  1  0  0  0  0
  3  4  1  0  0  0  0
  3 16  1  0  0  0  0
  5  6  1  0  0  0  0
  6  7  1  0  0  0  0
  7  8  1  0  0  0  0
  9  8  1  6  0  0  0
  9 10  1  0  0  0  0
  9 11  1  0  0  0  0
 10 15  1  0  0  0  0
 11 12  1  1  0  0  0
 11 13  1  0  0  0  0
 13 14  1  1  0  0  0
 13 15  1  0  0  0  0
 15 26  1  6  0  0  0
 17 18  2  0  0  0  0
 17 22  1  0  0  0  0
 18 19  1  0  0  0  0
 19 20  2  0  0  0  0
 20 21  1  0  0  0  0
 20 26  1  0  0  0  0
 21 22  2  0  0  0  0
 21 24  1  0  0  0  0
 22 23  1  0  0  0  0
 24 25  2  0  0  0  0
 25 26  1  0  0  0  0
M  END
>  <CHROM.1>
146.38640607,-66.01501782,66.63503179,92.71418269,-151.81560812,54.79372945
72.89406802,47.89017085,56.40098627,31.68951942,-2.11663544,-1.32037317,1.44560340

>  <Name>
ligand

>  <RI>
0

>  <Rbt.Current_Directory>
/home/itssahil/PROJECTS/Mol_Feturizer/New_Systems/rnas/3GX3

>  <Rbt.Executable>
rbdock ($Id: //depot/dev/client3/rdock/2013.1/src/exe/rbdock.cxx#4 $)

>  <Rbt.Library>
libRbt.so (2013.1, Build901 2013/11/27)

>  <Rbt.Parameter_File>
/export/apps/rDock/src/rDock_2013.1_src/data/scripts/dock_solv.prm

>  <Rbt.Receptor>
prm/pocket_docking_2.prm

>  <SCORE>
-16.1808

>  <SCORE.INTER>
-13.3716

>  <SCORE.INTER.CONST>
1

>  <SCORE.INTER.POLAR>
0

>  <SCORE.INTER.ROT>
7

>  <SCORE.INTER.SOLV>
16.3817

>  <SCORE.INTER.VDW>
-22.6417

>  <SCORE.INTER.norm>
-0.514294

>  <SCORE.INTRA>
-2.91629

>  <SCORE.INTRA.DIHEDRAL>
-0.097425

>  <SCORE.INTRA.DIHEDRAL.0>
5.78979

>  <SCORE.INTRA.POLAR>
0

>  <SCORE.INTRA.POLAR.0>
0

>  <SCORE.INTRA.REPUL>
0

>  <SCORE.INTRA.REPUL.0>
0

>  <SCORE.INTRA.SOLV>
1.17716

>  <SCORE.INTRA.SOLV.lig_0>
-49.9151

>  <SCORE.INTRA.VDW>
-3.45615

>  <SCORE.INTRA.VDW.0>
-0.211125

>  <SCORE.INTRA.norm>
-0.112165

>  <SCORE.RESTR>
0.107112

>  <SCORE.RESTR.CAVITY>
0.107112

>  <SCORE.RESTR.norm>
0.00411971

>  <SCORE.SYSTEM>
0

>  <SCORE.SYSTEM.CONST>
0

>  <SCORE.SYSTEM.DIHEDRAL>
0

>  <SCORE.SYSTEM.SOLV>
0

>  <SCORE.SYSTEM.norm>
0

>  <SCORE.heavy>
26

>  <SCORE.norm>
-0.622339

>  <RMSD>
1.324

$$$$
ligand
 OpenBabel11021811483D
libRbt.so/2013.1/901 2013/11/27
 26 28  0  0  0  0  0  0  0  0999 V2000
   48.6797   55.5746   27.4535 N   0  0  0  0  0  0  0  0  0  0  0  0
   47.4468   56.3106   27.7465 C   0  0  2  0  0  0  0  0  0  0  0  0
   47.4388   57.7516   27.2317 C   0  0  0  0  0  0  0  0  0  0  0  0
   46.6816   58.0323   26.3022 O   0  0  0  0  0  0  0  0  0  0  0  0
   47.0645   56.3670   29.2313 C   0  0  0  0  0  0  0  0  0  0  0  0
   47.0010   55.1045   30.0731 C   0  0  0  0  0  0  0  0  0  0  0  0
   48.7043   54.5320   30.2698 S   0  0  0  0  0  0  0  0  0  0  0  0
   48.0810   53.4427   31.5722 C   0  0  0  0  0  0  0  0  0  0  0  0
   48.5697   53.7952   32.9812 C   0  0  1  0  0  0  0  0  0  0  0  0
   49.3752   54.9787   33.0196 O   0  0  0  0  0  0  0  0  0  0  0  0
   47.3945   54.0224   33.9209 C   0  0  1  0  0  0  0  0  0  0  0  0
   47.0377   52.8358   34.5948 O   0  0  0  0  0  0  0  0  0  0  0  0
   47.8632   55.1278   34.8582 C   0  0  1  0  0  0  0  0  0  0  0  0
   48.4736   54.6027   36.0198 O   0  0  0  0  0  0  0  0  0  0  0  0
   48.9335   55.8409   34.0555 C   0  0  2  0  0  0  0  0  0  0  0  0
   48.1460   58.6435   27.7170 O   0  0  0  0  0  0  0  0  0  0  0  0
   44.8200   58.5578   32.2346 N   0  0  0  0  0  0  0  0  0  0  0  0
   44.8516   57.2593   32.6767 C   0  0  0  0  0  0  0  0  0  0  0  0
   46.0408   56.7072   33.1044 N   0  0  0  0  0  0  0  0  0  0  0  0
   47.1736   57.4314   33.1311 C   0  0  0  0  0  0  0  0  0  0  0  0
   47.1627   58.7440   32.6909 C   0  0  0  0  0  0  0  0  0  0  0  0
   45.9784   59.2938   32.2420 C   0  0  0  0  0  0  0  0  0  0  0  0
   45.9423   60.5461   31.8297 N   0  0  0  0  0  0  0  0  0  0  0  0
   48.4120   59.2446   32.8165 N   0  0  0  0  0  0  0  0  0  0  0  0
   49.2144   58.2646   33.3035 C   0  0  0  0  0  0  0  0  0  0  0  0
   48.4572   57.1315   33.5060 N   0  0  0  0  0  0  0  0  0  0  0  0
  2  1  1  1  0  0  0
  2  3  1  0  0  0  0
  2  5  1  0  0  0  0
  3  4  1  0  0  0  0
  3 16  1  0  0  0  0
  5  6  1  0  0  0  0
  6  7  1  0  0  0  0
  7  8  1  0  0  0  0
  9  8  1  6  0  0  0
  9 10  1  0  0  0  0
  9 11  1  0  0  0  0
 10 15  1  0  0  0  0
 11 12  1  1  0  0  0
 11 13  1  0  0  0  0
 13 14  1  1  0  0  0
 13 15  1  0  0  0  0
 15 26  1  6  0  0  0
 17 18  2  0  0  0  0
 17 22  1  0  0  0  0
 18 19  1  0  0  0  0
 19 20  2  0  0  0  0
 20 21  1  0  0  0  0
 20 26  1  0  0  0  0
 21 22  2  0  0  0  0
 21 24  1  0  0  0  0
 22 23  1  0  0  0  0
 24 25  2  0  0  0  0
 25 26  1  0  0  0  0
M  END
>  <CHROM.1>
110.94332337,-50.96779965,69.48189473,166.28585447,-112.69025110,3.42582758
90.92094659,47.57735637,56.39729935,31.62172782,-1.85798887,-1.22389069,1.70908881

>  <Name>
ligand

>  <RI>
0

>  <Rbt.Current_Directory>
/home/itssahil/PROJECTS/Mol_Feturizer/New_Systems/rnas/3GX3

>  <Rbt.Executable>
rbdock ($Id: //depot/dev/client3/rdock/2013.1/src/exe/rbdock.cxx#4 $)

>  <Rbt.Library>
libRbt.so (2013.1, Build901 2013/11/27)

>  <Rbt.Parameter_File>
/export/apps/rDock/src/rDock_2013.1_src/data/scripts/dock_solv.prm

>  <Rbt.Receptor>
prm/pocket_docking_2.prm

>  <SCORE>
-13.6232

>  <SCORE.INTER>
-13.1694

>  <SCORE.INTER.CONST>
1

>  <SCORE.INTER.POLAR>
0

>  <SCORE.INTER.ROT>
7

>  <SCORE.INTER.SOLV>
13.5468

>  <SCORE.INTER.VDW>
-21.5619

>  <SCORE.INTER.norm>
-0.506514

>  <SCORE.INTRA>
-0.470572

>  <SCORE.INTRA.DIHEDRAL>
5.53867

>  <SCORE.INTRA.DIHEDRAL.0>
5.78979

>  <SCORE.INTRA.POLAR>
0

>  <SCORE.INTRA.POLAR.0>
0

>  <SCORE.INTRA.REPUL>
0

>  <SCORE.INTRA.REPUL.0>
0

>  <SCORE.INTRA.SOLV>
1.02146

>  <SCORE.INTRA.SOLV.lig_0>
-49.9151

>  <SCORE.INTRA.VDW>
-3.75064

>  <SCORE.INTRA.VDW.0>
-0.211125

>  <SCORE.INTRA.norm>
-0.0180989

>  <SCORE.RESTR>
0.0167425

>  <SCORE.RESTR.CAVITY>
0.0167425

>  <SCORE.RESTR.norm>
0.000643943

>  <SCORE.SYSTEM>
0

>  <SCORE.SYSTEM.CONST>
0

>  <SCORE.SYSTEM.DIHEDRAL>
0

>  <SCORE.SYSTEM.SOLV>
0

>  <SCORE.SYSTEM.norm>
0

>  <SCORE.heavy>
26

>  <SCORE.norm>
-0.523969

>  <RMSD>
1.329

$$$$
ligand
 OpenBabel11021811483D
libRbt.so/2013.1/901 2013/11/27
 26 28  0  0  0  0  0  0  0  0999 V2000
   46.0312   58.2977   28.2909 N   0  0  0  0  0  0  0  0  0  0  0  0
   46.6747   57.2116   27.5466 C   0  0  2  0  0  0  0  0  0  0  0  0
   45.9140   55.8844   27.5900 C   0  0  0  0  0  0  0  0  0  0  0  0
   46.0953   55.0807   26.6750 O   0  0  0  0  0  0  0  0  0  0  0  0
   48.1198   56.9093   27.9636 C   0  0  0  0  0  0  0  0  0  0  0  0
   48.4967   56.7494   29.4261 C   0  0  0  0  0  0  0  0  0  0  0  0
   50.0226   55.7808   29.4604 S   0  0  0  0  0  0  0  0  0  0  0  0
   49.0991   54.5470   30.4071 C   0  0  0  0  0  0  0  0  0  0  0  0
   49.1438   54.7494   31.9255 C   0  0  1  0  0  0  0  0  0  0  0  0
   49.6865   56.0177   32.3101 O   0  0  0  0  0  0  0  0  0  0  0  0
   47.7480   54.6589   32.5252 C   0  0  1  0  0  0  0  0  0  0  0  0
   47.4523   53.3449   32.9440 O   0  0  0  0  0  0  0  0  0  0  0  0
   47.7574   55.6659   33.6679 C   0  0  1  0  0  0  0  0  0  0  0  0
   48.1385   55.0653   34.8893 O   0  0  0  0  0  0  0  0  0  0  0  0
   48.8492   56.6399   33.2711 C   0  0  2  0  0  0  0  0  0  0  0  0
   45.1410   55.5816   28.5074 O   0  0  0  0  0  0  0  0  0  0  0  0
   44.5194   59.4134   32.1858 N   0  0  0  0  0  0  0  0  0  0  0  0
   44.6083   58.1413   32.6923 C   0  0  0  0  0  0  0  0  0  0  0  0
   45.8456   57.5668   32.8951 N   0  0  0  0  0  0  0  0  0  0  0  0
   46.9777   58.2455   32.6381 C   0  0  0  0  0  0  0  0  0  0  0  0
   46.9097   59.5309   32.1282 C   0  0  0  0  0  0  0  0  0  0  0  0
   45.6727   60.1017   31.9039 C   0  0  0  0  0  0  0  0  0  0  0  0
   45.5844   61.3295   31.4303 N   0  0  0  0  0  0  0  0  0  0  0  0
   48.1706   59.9873   31.9572 N   0  0  0  0  0  0  0  0  0  0  0  0
   49.0307   59.0047   32.3259 C   0  0  0  0  0  0  0  0  0  0  0  0
   48.3029   57.9159   32.7536 N   0  0  0  0  0  0  0  0  0  0  0  0
  2  1  1  1  0  0  0
  2  3  1  0  0  0  0
  2  5  1  0  0  0  0
  3  4  1  0  0  0  0
  3 16  1  0  0  0  0
  5  6  1  0  0  0  0
  6  7  1  0  0  0  0
  7  8  1  0  0  0  0
  9  8  1  6  0  0  0
  9 10  1  0  0  0  0
  9 11  1  0  0  0  0
 10 15  1  0  0  0  0
 11 12  1  1  0  0  0
 11 13  1  0  0  0  0
 13 14  1  1  0  0  0
 13 15  1  0  0  0  0
 15 26  1  6  0  0  0
 17 18  2  0  0  0  0
 17 22  1  0  0  0  0
 18 19  1  0  0  0  0
 19 20  2  0  0  0  0
 20 21  1  0  0  0  0
 20 26  1  0  0  0  0
 21 22  2  0  0  0  0
 21 24  1  0  0  0  0
 22 23  1  0  0  0  0
 24 25  2  0  0  0  0
 25 26  1  0  0  0  0
M  END
>  <CHROM.1>
155.60669662,47.99162846,157.59548243,-119.05885724,-89.72289451,11.47546546
122.73527490,47.45364785,56.91025026,31.06046195,1.44581072,0.97387638,-1.93865911

>  <Name>
ligand

>  <RI>
0

>  <Rbt.Current_Directory>
/home/itssahil/PROJECTS/Mol_Feturizer/New_Systems/rnas/3GX3

>  <Rbt.Executable>
rbdock ($Id: //depot/dev/client3/rdock/2013.1/src/exe/rbdock.cxx#4 $)

>  <Rbt.Library>
libRbt.so (2013.1, Build901 2013/11/27)

>  <Rbt.Parameter_File>
/export/apps/rDock/src/rDock_2013.1_src/data/scripts/dock_solv.prm

>  <Rbt.Receptor>
prm/pocket_docking_3.prm

>  <SCORE>
-12.4302

>  <SCORE.INTER>
-13.0415

>  <SCORE.INTER.CONST>
1

>  <SCORE.INTER.POLAR>
0

>  <SCORE.INTER.ROT>
7

>  <SCORE.INTER.SOLV>
19.147

>  <SCORE.INTER.VDW>
-23.3434

>  <SCORE.INTER.norm>
-0.501598

>  <SCORE.INTRA>
0.611342

>  <SCORE.INTRA.DIHEDRAL>
7.6528

>  <SCORE.INTRA.DIHEDRAL.0>
5.78979

>  <SCORE.INTRA.POLAR>
0

>  <SCORE.INTRA.POLAR.0>
0

>  <SCORE.INTRA.REPUL>
0

>  <SCORE.INTRA.REPUL.0>
0

>  <SCORE.INTRA.SOLV>
-0.221015

>  <SCORE.INTRA.SOLV.lig_0>
-49.9151

>  <SCORE.INTRA.VDW>
-3.10455

>  <SCORE.INTRA.VDW.0>
-0.211125

>  <SCORE.INTRA.norm>
0.0235132

>  <SCORE.RESTR>
0

>  <SCORE.RESTR.CAVITY>
0

>  <SCORE.RESTR.norm>
0

>  <SCORE.SYSTEM>
0

>  <SCORE.SYSTEM.CONST>
0

>  <SCORE.SYSTEM.DIHEDRAL>
0

>  <SCORE.SYSTEM.SOLV>
0

>  <SCORE.SYSTEM.norm>
0

>  <SCORE.heavy>
26

>  <SCORE.norm>
-0.478085

>  <RMSD>
1.330

$$$$
ligand
 OpenBabel11021811483D
libRbt.so/2013.1/901 2013/11/27
 26 28  0  0  0  0  0  0  0  0999 V2000
   48.1160   55.9066   26.4908 N   0  0  0  0  0  0  0  0  0  0  0  0
   47.8340   56.2543   27.8863 C   0  0  2  0  0  0  0  0  0  0  0  0
   48.0314   57.7355   28.2161 C   0  0  0  0  0  0  0  0  0  0  0  0
   47.6878   58.5683   27.3768 O   0  0  0  0  0  0  0  0  0  0  0  0
   48.6332   55.4574   28.9255 C   0  0  0  0  0  0  0  0  0  0  0  0
   48.5248   53.9446   29.0064 C   0  0  0  0  0  0  0  0  0  0  0  0
   49.6813   53.4148   30.2907 S   0  0  0  0  0  0  0  0  0  0  0  0
   48.3357   53.6795   31.4701 C   0  0  0  0  0  0  0  0  0  0  0  0
   48.7952   54.0690   32.8791 C   0  0  1  0  0  0  0  0  0  0  0  0
   49.5212   55.3030   32.9152 O   0  0  0  0  0  0  0  0  0  0  0  0
   47.6043   54.2223   33.8140 C   0  0  1  0  0  0  0  0  0  0  0  0
   47.3238   53.0176   34.4918 O   0  0  0  0  0  0  0  0  0  0  0  0
   47.9961   55.3599   34.7481 C   0  0  1  0  0  0  0  0  0  0  0  0
   48.6356   54.8807   35.9139 O   0  0  0  0  0  0  0  0  0  0  0  0
   49.0201   56.1384   33.9459 C   0  0  2  0  0  0  0  0  0  0  0  0
   48.5050   58.1286   29.2895 O   0  0  0  0  0  0  0  0  0  0  0  0
   44.7065   58.6351   32.2794 N   0  0  0  0  0  0  0  0  0  0  0  0
   44.8155   57.3520   32.7529 C   0  0  0  0  0  0  0  0  0  0  0  0
   46.0476   56.8605   33.1301 N   0  0  0  0  0  0  0  0  0  0  0  0
   47.1491   57.6301   33.0767 C   0  0  0  0  0  0  0  0  0  0  0  0
   47.0602   58.9282   32.6036 C   0  0  0  0  0  0  0  0  0  0  0  0
   45.8320   59.4170   32.2050 C   0  0  0  0  0  0  0  0  0  0  0  0
   45.7220   60.6547   31.7627 N   0  0  0  0  0  0  0  0  0  0  0  0
   48.2925   59.4820   32.6483 N   0  0  0  0  0  0  0  0  0  0  0  0
   49.1597   58.5492   33.1167 C   0  0  0  0  0  0  0  0  0  0  0  0
   48.4621   57.3928   33.3894 N   0  0  0  0  0  0  0  0  0  0  0  0
  2  1  1  6  0  0  0
  2  3  1  0  0  0  0
  2  5  1  0  0  0  0
  3  4  1  0  0  0  0
  3 16  1  0  0  0  0
  5  6  1  0  0  0  0
  6  7  1  0  0  0  0
  7  8  1  0  0  0  0
  9  8  1  6  0  0  0
  9 10  1  0  0  0  0
  9 11  1  0  0  0  0
 10 15  1  0  0  0  0
 11 12  1  1  0  0  0
 11 13  1  0  0  0  0
 13 14  1  1  0  0  0
 13 15  1  0  0  0  0
 15 26  1  6  0  0  0
 17 18  2  0  0  0  0
 17 22  1  0  0  0  0
 18 19  1  0  0  0  0
 19 20  2  0  0  0  0
 20 21  1  0  0  0  0
 20 26  1  0  0  0  0
 21 22  2  0  0  0  0
 21 24  1  0  0  0  0
 22 23  1  0  0  0  0
 24 25  2  0  0  0  0
 25 26  1  0  0  0  0
M  END
>  <CHROM.1>
38.60833004,-59.90020514,177.11916753,87.47987202,-150.81437033,61.62575813
94.71418852,47.87535733,56.37197939,31.63369035,-1.62290684,-1.14204539,1.85421624

>  <Name>
ligand

>  <RI>
0

>  <Rbt.Current_Directory>
/home/itssahil/PROJECTS/Mol_Feturizer/New_Systems/rnas/3GX3

>  <Rbt.Executable>
rbdock ($Id: //depot/dev/client3/rdock/2013.1/src/exe/rbdock.cxx#4 $)

>  <Rbt.Library>
libRbt.so (2013.1, Build901 2013/11/27)

>  <Rbt.Parameter_File>
/export/apps/rDock/src/rDock_2013.1_src/data/scripts/dock_solv.prm

>  <Rbt.Receptor>
prm/pocket_docking_3.prm

>  <SCORE>
-16.9993

>  <SCORE.INTER>
-14.7368

>  <SCORE.INTER.CONST>
1

>  <SCORE.INTER.POLAR>
0

>  <SCORE.INTER.ROT>
7

>  <SCORE.INTER.SOLV>
15.3203

>  <SCORE.INTER.VDW>
-23.1979

>  <SCORE.INTER.norm>
-0.566798

>  <SCORE.INTRA>
-2.26253

>  <SCORE.INTRA.DIHEDRAL>
-0.72426

>  <SCORE.INTRA.DIHEDRAL.0>
5.78979

>  <SCORE.INTRA.POLAR>
0

>  <SCORE.INTRA.POLAR.0>
0

>  <SCORE.INTRA.REPUL>
0

>  <SCORE.INTRA.REPUL.0>
0

>  <SCORE.INTRA.SOLV>
-0.457901

>  <SCORE.INTRA.SOLV.lig_0>
-49.9151

>  <SCORE.INTRA.VDW>
-1.67145

>  <SCORE.INTRA.VDW.0>
-0.211125

>  <SCORE.INTRA.norm>
-0.0870203

>  <SCORE.RESTR>
0

>  <SCORE.RESTR.CAVITY>
0

>  <SCORE.RESTR.norm>
0

>  <SCORE.SYSTEM>
0

>  <SCORE.SYSTEM.CONST>
0

>  <SCORE.SYSTEM.DIHEDRAL>
0

>  <SCORE.SYSTEM.SOLV>
0

>  <SCORE.SYSTEM.norm>
0

>  <SCORE.heavy>
26

>  <SCORE.norm>
-0.653819

>  <RMSD>
1.332

$$$$
ligand
 OpenBabel11021811483D
libRbt.so/2013.1/901 2013/11/27
 26 28  0  0  0  0  0  0  0  0999 V2000
   47.4017   55.7635   26.2766 N   0  0  0  0  0  0  0  0  0  0  0  0
   47.4939   56.3255   27.6269 C   0  0  2  0  0  0  0  0  0  0  0  0
   47.6680   57.8455   27.6635 C   0  0  0  0  0  0  0  0  0  0  0  0
   47.0592   58.5201   26.8326 O   0  0  0  0  0  0  0  0  0  0  0  0
   48.6051   55.7298   28.5010 C   0  0  0  0  0  0  0  0  0  0  0  0
   48.5884   55.8943   30.0107 C   0  0  0  0  0  0  0  0  0  0  0  0
   47.0756   55.0975   30.5974 S   0  0  0  0  0  0  0  0  0  0  0  0
   48.1418   53.8104   31.2888 C   0  0  0  0  0  0  0  0  0  0  0  0
   48.7452   54.1533   32.6550 C   0  0  1  0  0  0  0  0  0  0  0  0
   49.5380   55.3459   32.6387 O   0  0  0  0  0  0  0  0  0  0  0  0
   47.6521   54.3562   33.6942 C   0  0  1  0  0  0  0  0  0  0  0  0
   47.3674   53.1581   34.3819 O   0  0  0  0  0  0  0  0  0  0  0  0
   48.1871   55.4568   34.6012 C   0  0  1  0  0  0  0  0  0  0  0  0
   48.9003   54.9264   35.7001 O   0  0  0  0  0  0  0  0  0  0  0  0
   49.1769   56.1914   33.7186 C   0  0  2  0  0  0  0  0  0  0  0  0
   48.3786   58.4215   28.4967 O   0  0  0  0  0  0  0  0  0  0  0  0
   44.8953   58.8737   32.2728 N   0  0  0  0  0  0  0  0  0  0  0  0
   44.9791   57.5702   32.6929 C   0  0  0  0  0  0  0  0  0  0  0  0
   46.2060   57.0293   33.0158 N   0  0  0  0  0  0  0  0  0  0  0  0
   47.3278   57.7689   32.9612 C   0  0  0  0  0  0  0  0  0  0  0  0
   47.2645   59.0867   32.5414 C   0  0  0  0  0  0  0  0  0  0  0  0
   46.0408   59.6256   32.1971 C   0  0  0  0  0  0  0  0  0  0  0  0
   45.9555   60.8824   31.8063 N   0  0  0  0  0  0  0  0  0  0  0  0
   48.5134   59.6029   32.5728 N   0  0  0  0  0  0  0  0  0  0  0  0
   49.3650   58.6281   32.9800 C   0  0  0  0  0  0  0  0  0  0  0  0
   48.6413   57.4821   33.2272 N   0  0  0  0  0  0  0  0  0  0  0  0
  2  1  1  6  0  0  0
  2  3  1  0  0  0  0
  2  5  1  0  0  0  0
  3  4  1  0  0  0  0
  3 16  1  0  0  0  0
  5  6  1  0  0  0  0
  6  7  1  0  0  0  0
  7  8  1  0  0  0  0
  9  8  1  6  0  0  0
  9 10  1  0  0  0  0
  9 11  1  0  0  0  0
 10 15  1  0  0  0  0
 11 12  1  1  0  0  0
 11 13  1  0  0  0  0
 13 14  1  1  0  0  0
 13 15  1  0  0  0  0
 15 26  1  6  0  0  0
 17 18  2  0  0  0  0
 17 22  1  0  0  0  0
 18 19  1  0  0  0  0
 19 20  2  0  0  0  0
 20 21  1  0  0  0  0
 20 26  1  0  0  0  0
 21 22  2  0  0  0  0
 21 24  1  0  0  0  0
 22 23  1  0  0  0  0
 24 25  2  0  0  0  0
 25 26  1  0  0  0  0
M  END
>  <CHROM.1>
37.70927405,-162.12421700,61.10149324,109.03509821,82.68002115,-58.78240146
90.60962303,47.65778691,56.69448780,31.50862901,-1.97082102,-1.27167600,1.54174838

>  <Name>
ligand

>  <RI>
0

>  <Rbt.Current_Directory>
/home/itssahil/PROJECTS/Mol_Feturizer/New_Systems/rnas/3GX3

>  <Rbt.Executable>
rbdock ($Id: //depot/dev/client3/rdock/2013.1/src/exe/rbdock.cxx#4 $)

>  <Rbt.Library>
libRbt.so (2013.1, Build901 2013/11/27)

>  <Rbt.Parameter_File>
/export/apps/rDock/src/rDock_2013.1_src/data/scripts/dock_solv.prm

>  <Rbt.Receptor>
prm/pocket_docking_2.prm

>  <SCORE>
-15.7054

>  <SCORE.INTER>
-13.4662

>  <SCORE.INTER.CONST>
1

>  <SCORE.INTER.POLAR>
0

>  <SCORE.INTER.ROT>
7

>  <SCORE.INTER.SOLV>
16.1927

>  <SCORE.INTER.VDW>
-22.6417

>  <SCORE.INTER.norm>
-0.517932

>  <SCORE.INTRA>
-2.24209

>  <SCORE.INTRA.DIHEDRAL>
1.08188

>  <SCORE.INTRA.DIHEDRAL.0>
5.78979

>  <SCORE.INTRA.POLAR>
0

>  <SCORE.INTRA.POLAR.0>
0

>  <SCORE.INTRA.REPUL>
0

>  <SCORE.INTRA.REPUL.0>
0

>  <SCORE.INTRA.SOLV>
-0.33082

>  <SCORE.INTRA.SOLV.lig_0>
-49.9151

>  <SCORE.INTRA.VDW>
-2.61763

>  <SCORE.INTRA.VDW.0>
-0.211125

>  <SCORE.INTRA.norm>
-0.0862344

>  <SCORE.RESTR>
0.00294488

>  <SCORE.RESTR.CAVITY>
0.00294488

>  <SCORE.RESTR.norm>
0.000113265

>  <SCORE.SYSTEM>
0

>  <SCORE.SYSTEM.CONST>
0

>  <SCORE.SYSTEM.DIHEDRAL>
0

>  <SCORE.SYSTEM.SOLV>
0

>  <SCORE.SYSTEM.norm>
0

>  <SCORE.heavy>
26

>  <SCORE.norm>
-0.604053

>  <RMSD>
1.343

$$$$
ligand
 OpenBabel11021811483D
libRbt.so/2013.1/901 2013/11/27
 26 28  0  0  0  0  0  0  0  0999 V2000
   47.0284   56.1953   26.1539 N   0  0  0  0  0  0  0  0  0  0  0  0
   46.6431   56.3606   27.5582 C   0  0  2  0  0  0  0  0  0  0  0  0
   46.8973   57.7621   28.1178 C   0  0  0  0  0  0  0  0  0  0  0  0
   48.0436   58.2087   28.0671 O   0  0  0  0  0  0  0  0  0  0  0  0
   47.2968   55.3690   28.5293 C   0  0  0  0  0  0  0  0  0  0  0  0
   48.7972   55.1333   28.5174 C   0  0  0  0  0  0  0  0  0  0  0  0
   49.4662   56.0100   29.9497 S   0  0  0  0  0  0  0  0  0  0  0  0
   49.3906   54.4294   30.8256 C   0  0  0  0  0  0  0  0  0  0  0  0
   49.0214   54.5434   32.3085 C   0  0  1  0  0  0  0  0  0  0  0  0
   49.4667   55.7650   32.9088 O   0  0  0  0  0  0  0  0  0  0  0  0
   47.5129   54.4750   32.4978 C   0  0  1  0  0  0  0  0  0  0  0  0
   47.0834   53.1523   32.7331 O   0  0  0  0  0  0  0  0  0  0  0  0
   47.2314   55.4144   33.6632 C   0  0  1  0  0  0  0  0  0  0  0  0
   47.2486   54.7307   34.9001 O   0  0  0  0  0  0  0  0  0  0  0  0
   48.4124   56.3648   33.6437 C   0  0  2  0  0  0  0  0  0  0  0  0
   46.0023   58.4657   28.6023 O   0  0  0  0  0  0  0  0  0  0  0  0
   44.5641   59.4502   31.8301 N   0  0  0  0  0  0  0  0  0  0  0  0
   44.4732   58.1606   32.2898 C   0  0  0  0  0  0  0  0  0  0  0  0
   45.6075   57.4996   32.7122 N   0  0  0  0  0  0  0  0  0  0  0  0
   46.8063   58.1090   32.7166 C   0  0  0  0  0  0  0  0  0  0  0  0
   46.9191   59.4106   32.2584 C   0  0  0  0  0  0  0  0  0  0  0  0
   45.7892   60.0686   31.8148 C   0  0  0  0  0  0  0  0  0  0  0  0
   45.8714   61.3130   31.3856 N   0  0  0  0  0  0  0  0  0  0  0  0
   48.2130   59.7873   32.3634 N   0  0  0  0  0  0  0  0  0  0  0  0
   48.9210   58.7393   32.8553 C   0  0  0  0  0  0  0  0  0  0  0  0
   48.0587   57.6890   33.0817 N   0  0  0  0  0  0  0  0  0  0  0  0
  2  1  1  6  0  0  0
  2  3  1  0  0  0  0
  2  5  1  0  0  0  0
  3  4  1  0  0  0  0
  3 16  1  0  0  0  0
  5  6  1  0  0  0  0
  6  7  1  0  0  0  0
  7  8  1  0  0  0  0
  9  8  1  6  0  0  0
  9 10  1  0  0  0  0
  9 11  1  0  0  0  0
 10 15  1  0  0  0  0
 11 12  1  1  0  0  0
 11 13  1  0  0  0  0
 13 14  1  1  0  0  0
 13 15  1  0  0  0  0
 15 26  1  6  0  0  0
 17 18  2  0  0  0  0
 17 22  1  0  0  0  0
 18 19  1  0  0  0  0
 19 20  2  0  0  0  0
 20 21  1  0  0  0  0
 20 26  1  0  0  0  0
 21 22  2  0  0  0  0
 21 24  1  0  0  0  0
 22 23  1  0  0  0  0
 24 25  2  0  0  0  0
 25 26  1  0  0  0  0
M  END
>  <CHROM.1>
-57.10382684,49.69145003,104.03224682,96.37785476,-144.13236630,-30.82492638
127.55626204,47.46269887,56.91600491,31.16161960,-2.00998013,-1.10818392
1.63902862

>  <Name>
ligand

>  <RI>
0

>  <Rbt.Current_Directory>
/home/itssahil/PROJECTS/Mol_Feturizer/New_Systems/rnas/3GX3

>  <Rbt.Executable>
rbdock ($Id: //depot/dev/client3/rdock/2013.1/src/exe/rbdock.cxx#4 $)

>  <Rbt.Library>
libRbt.so (2013.1, Build901 2013/11/27)

>  <Rbt.Parameter_File>
/export/apps/rDock/src/rDock_2013.1_src/data/scripts/dock_solv.prm

>  <Rbt.Receptor>
prm/pocket_docking_2.prm

>  <SCORE>
-10.7044

>  <SCORE.INTER>
-11.0216

>  <SCORE.INTER.CONST>
1

>  <SCORE.INTER.POLAR>
0

>  <SCORE.INTER.ROT>
7

>  <SCORE.INTER.SOLV>
18.486

>  <SCORE.INTER.VDW>
-21.7764

>  <SCORE.INTER.norm>
-0.423906

>  <SCORE.INTRA>
0.31489

>  <SCORE.INTRA.DIHEDRAL>
7.72858

>  <SCORE.INTRA.DIHEDRAL.0>
5.78979

>  <SCORE.INTRA.POLAR>
0

>  <SCORE.INTRA.POLAR.0>
0

>  <SCORE.INTRA.REPUL>
0

>  <SCORE.INTRA.REPUL.0>
0

>  <SCORE.INTRA.SOLV>
-0.0634429

>  <SCORE.INTRA.SOLV.lig_0>
-49.9151

>  <SCORE.INTRA.VDW>
-3.51768

>  <SCORE.INTRA.VDW.0>
-0.211125

>  <SCORE.INTRA.norm>
0.0121111

>  <SCORE.RESTR>
0.00229087

>  <SCORE.RESTR.CAVITY>
0.00229087

>  <SCORE.RESTR.norm>
8.81104e-05

>  <SCORE.SYSTEM>
0

>  <SCORE.SYSTEM.CONST>
0

>  <SCORE.SYSTEM.DIHEDRAL>
0

>  <SCORE.SYSTEM.SOLV>
0

>  <SCORE.SYSTEM.norm>
0

>  <SCORE.heavy>
26

>  <SCORE.norm>
-0.411707

>  <RMSD>
1.343

$$$$
ligand
 OpenBabel11021811483D
libRbt.so/2013.1/901 2013/11/27
 26 28  0  0  0  0  0  0  0  0999 V2000
   47.1499   56.6688   25.8916 N   0  0  0  0  0  0  0  0  0  0  0  0
   47.6014   56.4786   27.2728 C   0  0  2  0  0  0  0  0  0  0  0  0
   47.5712   57.7503   28.1236 C   0  0  0  0  0  0  0  0  0  0  0  0
   46.5698   57.9692   28.8057 O   0  0  0  0  0  0  0  0  0  0  0  0
   49.0068   55.8806   27.4173 C   0  0  0  0  0  0  0  0  0  0  0  0
   49.3576   54.9758   28.5856 C   0  0  0  0  0  0  0  0  0  0  0  0
   49.0020   55.9159   30.0881 S   0  0  0  0  0  0  0  0  0  0  0  0
   49.2691   54.3740   30.9951 C   0  0  0  0  0  0  0  0  0  0  0  0
   48.9407   54.4527   32.4898 C   0  0  1  0  0  0  0  0  0  0  0  0
   49.4245   55.6486   33.1119 O   0  0  0  0  0  0  0  0  0  0  0  0
   47.4366   54.4065   32.7169 C   0  0  1  0  0  0  0  0  0  0  0  0
   46.9883   53.0858   32.9267 O   0  0  0  0  0  0  0  0  0  0  0  0
   47.2033   55.3176   33.9151 C   0  0  1  0  0  0  0  0  0  0  0  0
   47.2396   54.5990   35.1316 O   0  0  0  0  0  0  0  0  0  0  0  0
   48.4012   56.2464   33.8909 C   0  0  2  0  0  0  0  0  0  0  0  0
   48.5107   58.5544   28.1653 O   0  0  0  0  0  0  0  0  0  0  0  0
   44.6916   59.2788   31.7319 N   0  0  0  0  0  0  0  0  0  0  0  0
   44.6088   57.9545   32.0810 C   0  0  0  0  0  0  0  0  0  0  0  0
   45.7044   57.3168   32.6242 N   0  0  0  0  0  0  0  0  0  0  0  0
   46.8516   57.9799   32.8539 C   0  0  0  0  0  0  0  0  0  0  0  0
   46.9551   59.3171   32.5104 C   0  0  0  0  0  0  0  0  0  0  0  0
   45.8671   59.9536   31.9468 C   0  0  0  0  0  0  0  0  0  0  0  0
   45.9394   61.2302   31.6232 N   0  0  0  0  0  0  0  0  0  0  0  0
   48.1948   59.7450   32.8375 N   0  0  0  0  0  0  0  0  0  0  0  0
   48.8819   58.6965   33.3570 C   0  0  0  0  0  0  0  0  0  0  0  0
   48.0582   57.5922   33.3754 N   0  0  0  0  0  0  0  0  0  0  0  0
  2  1  1  6  0  0  0
  2  3  1  0  0  0  0
  2  5  1  0  0  0  0
  3  4  1  0  0  0  0
  3 16  1  0  0  0  0
  5  6  1  0  0  0  0
  6  7  1  0  0  0  0
  7  8  1  0  0  0  0
  9  8  1  6  0  0  0
  9 10  1  0  0  0  0
  9 11  1  0  0  0  0
 10 15  1  0  0  0  0
 11 12  1  1  0  0  0
 11 13  1  0  0  0  0
 13 14  1  1  0  0  0
 13 15  1  0  0  0  0
 15 26  1  6  0  0  0
 17 18  2  0  0  0  0
 17 22  1  0  0  0  0
 18 19  1  0  0  0  0
 19 20  2  0  0  0  0
 20 21  1  0  0  0  0
 20 26  1  0  0  0  0
 21 22  2  0  0  0  0
 21 24  1  0  0  0  0
 22 23  1  0  0  0  0
 24 25  2  0  0  0  0
 25 26  1  0  0  0  0
M  END
>  <CHROM.1>
93.92691254,-147.61582406,-56.65571871,170.25969640,-173.19473378,-43.47521572
116.27684191,47.61214836,56.86742059,31.24872908,-1.35137266,-1.12305773
1.88433638

>  <Name>
ligand

>  <RI>
0

>  <Rbt.Current_Directory>
/home/itssahil/PROJECTS/Mol_Feturizer/New_Systems/rnas/3GX3

>  <Rbt.Executable>
rbdock ($Id: //depot/dev/client3/rdock/2013.1/src/exe/rbdock.cxx#4 $)

>  <Rbt.Library>
libRbt.so (2013.1, Build901 2013/11/27)

>  <Rbt.Parameter_File>
/export/apps/rDock/src/rDock_2013.1_src/data/scripts/dock_solv.prm

>  <Rbt.Receptor>
prm/pocket_docking_2.prm

>  <SCORE>
-14.2543

>  <SCORE.INTER>
-11.6785

>  <SCORE.INTER.CONST>
1

>  <SCORE.INTER.POLAR>
0

>  <SCORE.INTER.ROT>
7

>  <SCORE.INTER.SOLV>
19.8772

>  <SCORE.INTER.VDW>
-22.678

>  <SCORE.INTER.norm>
-0.449172

>  <SCORE.INTRA>
-2.62455

>  <SCORE.INTRA.DIHEDRAL>
1.29991

>  <SCORE.INTRA.DIHEDRAL.0>
5.78979

>  <SCORE.INTRA.POLAR>
0

>  <SCORE.INTRA.POLAR.0>
0

>  <SCORE.INTRA.REPUL>
0

>  <SCORE.INTRA.REPUL.0>
0

>  <SCORE.INTRA.SOLV>
-0.679528

>  <SCORE.INTRA.SOLV.lig_0>
-49.9151

>  <SCORE.INTRA.VDW>
-2.93474

>  <SCORE.INTRA.VDW.0>
-0.211125

>  <SCORE.INTRA.norm>
-0.100944

>  <SCORE.RESTR>
0.0487047

>  <SCORE.RESTR.CAVITY>
0.0487047

>  <SCORE.RESTR.norm>
0.00187326

>  <SCORE.SYSTEM>
0

>  <SCORE.SYSTEM.CONST>
0

>  <SCORE.SYSTEM.DIHEDRAL>
0

>  <SCORE.SYSTEM.SOLV>
0

>  <SCORE.SYSTEM.norm>
0

>  <SCORE.heavy>
26

>  <SCORE.norm>
-0.548242

>  <RMSD>
1.345

$$$$
ligand
 OpenBabel11021811483D
libRbt.so/2013.1/901 2013/11/27
 26 28  0  0  0  0  0  0  0  0999 V2000
   46.3240   56.9439   28.7479 N   0  0  0  0  0  0  0  0  0  0  0  0
   47.2918   56.1392   27.9972 C   0  0  2  0  0  0  0  0  0  0  0  0
   47.4985   56.5942   26.5508 C   0  0  0  0  0  0  0  0  0  0  0  0
   46.8714   57.5774   26.1558 O   0  0  0  0  0  0  0  0  0  0  0  0
   46.9858   54.6365   27.9509 C   0  0  0  0  0  0  0  0  0  0  0  0
   46.8521   53.8239   29.2270 C   0  0  0  0  0  0  0  0  0  0  0  0
   48.4966   53.7686   29.9754 S   0  0  0  0  0  0  0  0  0  0  0  0
   47.6556   53.6906   31.5747 C   0  0  0  0  0  0  0  0  0  0  0  0
   48.5459   54.0260   32.7761 C   0  0  1  0  0  0  0  0  0  0  0  0
   49.3681   55.1794   32.5648 O   0  0  0  0  0  0  0  0  0  0  0  0
   47.7044   54.2966   34.0149 C   0  0  1  0  0  0  0  0  0  0  0  0
   47.5187   53.1243   34.7768 O   0  0  0  0  0  0  0  0  0  0  0  0
   48.4641   55.3848   34.7624 C   0  0  1  0  0  0  0  0  0  0  0  0
   49.3682   54.8386   35.7015 O   0  0  0  0  0  0  0  0  0  0  0  0
   49.2778   56.0578   33.6746 C   0  0  2  0  0  0  0  0  0  0  0  0
   48.2752   56.0278   25.7717 O   0  0  0  0  0  0  0  0  0  0  0  0
   44.9727   58.6573   32.1493 N   0  0  0  0  0  0  0  0  0  0  0  0
   45.1003   57.3225   32.4402 C   0  0  0  0  0  0  0  0  0  0  0  0
   46.3276   56.8135   32.8098 N   0  0  0  0  0  0  0  0  0  0  0  0
   47.4043   57.6108   32.9267 C   0  0  0  0  0  0  0  0  0  0  0  0
   47.2962   58.9608   32.6394 C   0  0  0  0  0  0  0  0  0  0  0  0
   46.0739   59.4703   32.2485 C   0  0  0  0  0  0  0  0  0  0  0  0
   45.9453   60.7556   31.9819 N   0  0  0  0  0  0  0  0  0  0  0  0
   48.5057   59.5337   32.8296 N   0  0  0  0  0  0  0  0  0  0  0  0
   49.3787   58.5657   33.2066 C   0  0  0  0  0  0  0  0  0  0  0  0
   48.7071   57.3646   33.2733 N   0  0  0  0  0  0  0  0  0  0  0  0
  2  1  1  6  0  0  0
  2  3  1  0  0  0  0
  2  5  1  0  0  0  0
  3  4  1  0  0  0  0
  3 16  1  0  0  0  0
  5  6  1  0  0  0  0
  6  7  1  0  0  0  0
  7  8  1  0  0  0  0
  9  8  1  6  0  0  0
  9 10  1  0  0  0  0
  9 11  1  0  0  0  0
 10 15  1  0  0  0  0
 11 12  1  1  0  0  0
 11 13  1  0  0  0  0
 13 14  1  1  0  0  0
 13 15  1  0  0  0  0
 15 26  1  6  0  0  0
 17 18  2  0  0  0  0
 17 22  1  0  0  0  0
 18 19  1  0  0  0  0
 19 20  2  0  0  0  0
 20 21  1  0  0  0  0
 20 26  1  0  0  0  0
 21 22  2  0  0  0  0
 21 24  1  0  0  0  0
 22 23  1  0  0  0  0
 24 25  2  0  0  0  0
 25 26  1  0  0  0  0
M  END
>  <CHROM.1>
1.03194610,-57.93251619,-67.76439313,149.25567684,-163.02149228,44.65454535
71.45341093,47.61575398,56.23591090,31.38232186,2.00581662,1.24809034,-1.96207622

>  <Name>
ligand

>  <RI>
0

>  <Rbt.Current_Directory>
/home/itssahil/PROJECTS/Mol_Feturizer/New_Systems/rnas/3GX3

>  <Rbt.Executable>
rbdock ($Id: //depot/dev/client3/rdock/2013.1/src/exe/rbdock.cxx#4 $)

>  <Rbt.Library>
libRbt.so (2013.1, Build901 2013/11/27)

>  <Rbt.Parameter_File>
/export/apps/rDock/src/rDock_2013.1_src/data/scripts/dock_solv.prm

>  <Rbt.Receptor>
prm/pocket_docking_3.prm

>  <SCORE>
-16.4836

>  <SCORE.INTER>
-13.3951

>  <SCORE.INTER.CONST>
1

>  <SCORE.INTER.POLAR>
0

>  <SCORE.INTER.ROT>
7

>  <SCORE.INTER.SOLV>
14.3121

>  <SCORE.INTER.VDW>
-21.9674

>  <SCORE.INTER.norm>
-0.515195

>  <SCORE.INTRA>
-3.08856

>  <SCORE.INTRA.DIHEDRAL>
-0.216261

>  <SCORE.INTRA.DIHEDRAL.0>
5.78979

>  <SCORE.INTRA.POLAR>
0

>  <SCORE.INTRA.POLAR.0>
0

>  <SCORE.INTRA.REPUL>
0

>  <SCORE.INTRA.REPUL.0>
0

>  <SCORE.INTRA.SOLV>
0.276755

>  <SCORE.INTRA.SOLV.lig_0>
-49.9151

>  <SCORE.INTRA.VDW>
-3.1188

>  <SCORE.INTRA.VDW.0>
-0.211125

>  <SCORE.INTRA.norm>
-0.118791

>  <SCORE.RESTR>
0

>  <SCORE.RESTR.CAVITY>
0

>  <SCORE.RESTR.norm>
0

>  <SCORE.SYSTEM>
0

>  <SCORE.SYSTEM.CONST>
0

>  <SCORE.SYSTEM.DIHEDRAL>
0

>  <SCORE.SYSTEM.SOLV>
0

>  <SCORE.SYSTEM.norm>
0

>  <SCORE.heavy>
26

>  <SCORE.norm>
-0.633986

>  <RMSD>
1.371

$$$$
ligand
 OpenBabel11021811483D
libRbt.so/2013.1/901 2013/11/27
 26 28  0  0  0  0  0  0  0  0999 V2000
   45.4483   55.9410   27.9623 N   0  0  0  0  0  0  0  0  0  0  0  0
   46.3087   57.1223   28.0721 C   0  0  2  0  0  0  0  0  0  0  0  0
   46.8903   57.6010   26.7400 C   0  0  0  0  0  0  0  0  0  0  0  0
   47.3312   56.7554   25.9612 O   0  0  0  0  0  0  0  0  0  0  0  0
   47.4864   56.9766   29.0444 C   0  0  0  0  0  0  0  0  0  0  0  0
   48.3295   55.7136   29.0710 C   0  0  0  0  0  0  0  0  0  0  0  0
   49.7012   56.0356   30.2035 S   0  0  0  0  0  0  0  0  0  0  0  0
   49.3455   54.4193   30.9333 C   0  0  0  0  0  0  0  0  0  0  0  0
   48.8053   54.4758   32.3663 C   0  0  1  0  0  0  0  0  0  0  0  0
   49.2058   55.6545   33.0744 O   0  0  0  0  0  0  0  0  0  0  0  0
   47.2838   54.4443   32.3730 C   0  0  1  0  0  0  0  0  0  0  0  0
   46.7971   53.1258   32.4905 O   0  0  0  0  0  0  0  0  0  0  0  0
   46.8887   55.3370   33.5423 C   0  0  1  0  0  0  0  0  0  0  0  0
   46.7418   54.5967   34.7373 O   0  0  0  0  0  0  0  0  0  0  0  0
   48.0865   56.2512   33.7090 C   0  0  2  0  0  0  0  0  0  0  0  0
   46.9223   58.7929   26.4093 O   0  0  0  0  0  0  0  0  0  0  0  0
   44.4973   59.6281   31.8837 N   0  0  0  0  0  0  0  0  0  0  0  0
   44.3106   58.3356   32.3045 C   0  0  0  0  0  0  0  0  0  0  0  0
   45.3877   57.5909   32.7374 N   0  0  0  0  0  0  0  0  0  0  0  0
   46.6227   58.1204   32.7899 C   0  0  0  0  0  0  0  0  0  0  0  0
   46.8320   59.4235   32.3715 C   0  0  0  0  0  0  0  0  0  0  0  0
   45.7597   60.1653   31.9175 C   0  0  0  0  0  0  0  0  0  0  0  0
   45.9340   61.4126   31.5256 N   0  0  0  0  0  0  0  0  0  0  0  0
   48.1442   59.7119   32.5205 N   0  0  0  0  0  0  0  0  0  0  0  0
   48.7692   58.6073   33.0008 C   0  0  0  0  0  0  0  0  0  0  0  0
   47.8348   57.6100   33.1753 N   0  0  0  0  0  0  0  0  0  0  0  0
  2  1  1  6  0  0  0
  2  3  1  0  0  0  0
  2  5  1  0  0  0  0
  3  4  1  0  0  0  0
  3 16  1  0  0  0  0
  5  6  1  0  0  0  0
  6  7  1  0  0  0  0
  7  8  1  0  0  0  0
  9  8  1  6  0  0  0
  9 10  1  0  0  0  0
  9 11  1  0  0  0  0
 10 15  1  0  0  0  0
 11 12  1  1  0  0  0
 11 13  1  0  0  0  0
 13 14  1  1  0  0  0
 13 15  1  0  0  0  0
 15 26  1  6  0  0  0
 17 18  2  0  0  0  0
 17 22  1  0  0  0  0
 18 19  1  0  0  0  0
 19 20  2  0  0  0  0
 20 21  1  0  0  0  0
 20 26  1  0  0  0  0
 21 22  2  0  0  0  0
 21 24  1  0  0  0  0
 22 23  1  0  0  0  0
 24 25  2  0  0  0  0
 25 26  1  0  0  0  0
M  END
>  <CHROM.1>
-43.40330592,43.77738745,173.56486121,133.32241782,-112.50158916,-25.70396416
133.36901329,47.28623338,56.95501201,31.10265905,-1.82458367,-1.11433018
1.65837182

>  <Name>
ligand

>  <RI>
0

>  <Rbt.Current_Directory>
/home/itssahil/PROJECTS/Mol_Feturizer/New_Systems/rnas/3GX3

>  <Rbt.Executable>
rbdock ($Id: //depot/dev/client3/rdock/2013.1/src/exe/rbdock.cxx#4 $)

>  <Rbt.Library>
libRbt.so (2013.1, Build901 2013/11/27)

>  <Rbt.Parameter_File>
/export/apps/rDock/src/rDock_2013.1_src/data/scripts/dock_solv.prm

>  <Rbt.Receptor>
prm/pocket_docking_2.prm

>  <SCORE>
-13.4906

>  <SCORE.INTER>
-12.8244

>  <SCORE.INTER.CONST>
1

>  <SCORE.INTER.POLAR>
0

>  <SCORE.INTER.ROT>
7

>  <SCORE.INTER.SOLV>
18.5206

>  <SCORE.INTER.VDW>
-22.9898

>  <SCORE.INTER.norm>
-0.493246

>  <SCORE.INTRA>
-0.683227

>  <SCORE.INTRA.DIHEDRAL>
5.81718

>  <SCORE.INTRA.DIHEDRAL.0>
5.78979

>  <SCORE.INTRA.POLAR>
0

>  <SCORE.INTRA.POLAR.0>
0

>  <SCORE.INTRA.REPUL>
0

>  <SCORE.INTRA.REPUL.0>
0

>  <SCORE.INTRA.SOLV>
-0.152673

>  <SCORE.INTRA.SOLV.lig_0>
-49.9151

>  <SCORE.INTRA.VDW>
-3.51548

>  <SCORE.INTRA.VDW.0>
-0.211125

>  <SCORE.INTRA.norm>
-0.026278

>  <SCORE.RESTR>
0.0169933

>  <SCORE.RESTR.CAVITY>
0.0169933

>  <SCORE.RESTR.norm>
0.000653587

>  <SCORE.SYSTEM>
0

>  <SCORE.SYSTEM.CONST>
0

>  <SCORE.SYSTEM.DIHEDRAL>
0

>  <SCORE.SYSTEM.SOLV>
0

>  <SCORE.SYSTEM.norm>
0

>  <SCORE.heavy>
26

>  <SCORE.norm>
-0.51887

>  <RMSD>
1.418

$$$$
ligand
 OpenBabel11021811483D
libRbt.so/2013.1/901 2013/11/27
 26 28  0  0  0  0  0  0  0  0999 V2000
   49.6003   56.0957   28.9027 N   0  0  0  0  0  0  0  0  0  0  0  0
   48.8733   55.2483   27.9534 C   0  0  2  0  0  0  0  0  0  0  0  0
   47.6513   55.9188   27.3220 C   0  0  0  0  0  0  0  0  0  0  0  0
   47.2452   56.9706   27.8169 O   0  0  0  0  0  0  0  0  0  0  0  0
   48.3996   53.9030   28.5186 C   0  0  0  0  0  0  0  0  0  0  0  0
   47.1520   53.8098   29.3796 C   0  0  0  0  0  0  0  0  0  0  0  0
   47.3726   54.9881   30.7327 S   0  0  0  0  0  0  0  0  0  0  0  0
   48.3265   53.6975   31.5668 C   0  0  0  0  0  0  0  0  0  0  0  0
   48.8427   54.0883   32.9557 C   0  0  1  0  0  0  0  0  0  0  0  0
   49.5857   55.3126   32.9579 O   0  0  0  0  0  0  0  0  0  0  0  0
   47.6891   54.2625   33.9329 C   0  0  1  0  0  0  0  0  0  0  0  0
   47.4179   53.0653   34.6274 O   0  0  0  0  0  0  0  0  0  0  0  0
   48.1301   55.3997   34.8453 C   0  0  1  0  0  0  0  0  0  0  0  0
   48.8056   54.9181   35.9896 O   0  0  0  0  0  0  0  0  0  0  0  0
   49.1340   56.1602   34.0015 C   0  0  2  0  0  0  0  0  0  0  0  0
   47.0674   55.4588   26.3328 O   0  0  0  0  0  0  0  0  0  0  0  0
   44.8408   58.6158   32.2249 N   0  0  0  0  0  0  0  0  0  0  0  0
   44.9579   57.3214   32.6647 C   0  0  0  0  0  0  0  0  0  0  0  0
   46.1835   56.8445   33.0800 N   0  0  0  0  0  0  0  0  0  0  0  0
   47.2690   57.6382   33.0967 C   0  0  0  0  0  0  0  0  0  0  0  0
   47.1716   58.9479   32.6586 C   0  0  0  0  0  0  0  0  0  0  0  0
   45.9508   59.4229   32.2221 C   0  0  0  0  0  0  0  0  0  0  0  0
   45.8324   60.6708   31.8120 N   0  0  0  0  0  0  0  0  0  0  0  0
   48.3883   59.5256   32.7727 N   0  0  0  0  0  0  0  0  0  0  0  0
   49.2552   58.5974   33.2504 C   0  0  0  0  0  0  0  0  0  0  0  0
   48.5725   57.4189   33.4586 N   0  0  0  0  0  0  0  0  0  0  0  0
  2  1  1  1  0  0  0
  2  3  1  0  0  0  0
  2  5  1  0  0  0  0
  3  4  1  0  0  0  0
  3 16  1  0  0  0  0
  5  6  1  0  0  0  0
  6  7  1  0  0  0  0
  7  8  1  0  0  0  0
  9  8  1  6  0  0  0
  9 10  1  0  0  0  0
  9 11  1  0  0  0  0
 10 15  1  0  0  0  0
 11 12  1  1  0  0  0
 11 13  1  0  0  0  0
 13 14  1  1  0  0  0
 13 15  1  0  0  0  0
 15 26  1  6  0  0  0
 17 18  2  0  0  0  0
 17 22  1  0  0  0  0
 18 19  1  0  0  0  0
 19 20  2  0  0  0  0
 20 21  1  0  0  0  0
 20 26  1  0  0  0  0
 21 22  2  0  0  0  0
 21 24  1  0  0  0  0
 22 23  1  0  0  0  0
 24 25  2  0  0  0  0
 25 26  1  0  0  0  0
M  END
>  <CHROM.1>
-12.80265173,79.46774613,-54.20942741,-83.26737441,-178.54857574,-53.41087811
89.33936329,47.68481772,56.18779327,31.66271441,-1.58635034,-1.21519774,1.36740045

>  <Name>
ligand

>  <RI>
0

>  <Rbt.Current_Directory>
/home/itssahil/PROJECTS/Mol_Feturizer/New_Systems/rnas/3GX3

>  <Rbt.Executable>
rbdock ($Id: //depot/dev/client3/rdock/2013.1/src/exe/rbdock.cxx#4 $)

>  <Rbt.Library>
libRbt.so (2013.1, Build901 2013/11/27)

>  <Rbt.Parameter_File>
/export/apps/rDock/src/rDock_2013.1_src/data/scripts/dock_solv.prm

>  <Rbt.Receptor>
prm/pocket_docking_2.prm

>  <SCORE>
-11.7312

>  <SCORE.INTER>
-9.43787

>  <SCORE.INTER.CONST>
1

>  <SCORE.INTER.POLAR>
0

>  <SCORE.INTER.ROT>
7

>  <SCORE.INTER.SOLV>
14.7432

>  <SCORE.INTER.VDW>
-19.473

>  <SCORE.INTER.norm>
-0.362995

>  <SCORE.INTRA>
-2.33747

>  <SCORE.INTRA.DIHEDRAL>
-0.582336

>  <SCORE.INTRA.DIHEDRAL.0>
5.78979

>  <SCORE.INTRA.POLAR>
0

>  <SCORE.INTRA.POLAR.0>
0

>  <SCORE.INTRA.REPUL>
0.00851273

>  <SCORE.INTRA.REPUL.0>
0

>  <SCORE.INTRA.SOLV>
1.73619

>  <SCORE.INTRA.SOLV.lig_0>
-49.9151

>  <SCORE.INTRA.VDW>
-2.95696

>  <SCORE.INTRA.VDW.0>
-0.211125

>  <SCORE.INTRA.norm>
-0.0899027

>  <SCORE.RESTR>
0.0441336

>  <SCORE.RESTR.CAVITY>
0.0441336

>  <SCORE.RESTR.norm>
0.00169745

>  <SCORE.SYSTEM>
0

>  <SCORE.SYSTEM.CONST>
0

>  <SCORE.SYSTEM.DIHEDRAL>
0

>  <SCORE.SYSTEM.SOLV>
0

>  <SCORE.SYSTEM.norm>
0

>  <SCORE.heavy>
26

>  <SCORE.norm>
-0.4512

>  <RMSD>
1.422

$$$$
ligand
 OpenBabel11021811483D
libRbt.so/2013.1/901 2013/11/27
 26 28  0  0  0  0  0  0  0  0999 V2000
   45.9491   57.7948   28.8484 N   0  0  0  0  0  0  0  0  0  0  0  0
   47.2510   57.2044   28.5257 C   0  0  2  0  0  0  0  0  0  0  0  0
   47.6240   57.2793   27.0434 C   0  0  0  0  0  0  0  0  0  0  0  0
   48.7116   56.8197   26.6941 O   0  0  0  0  0  0  0  0  0  0  0  0
   47.4214   55.7409   28.9534 C   0  0  0  0  0  0  0  0  0  0  0  0
   47.2841   55.3282   30.4085 C   0  0  0  0  0  0  0  0  0  0  0  0
   47.5564   53.5420   30.4636 S   0  0  0  0  0  0  0  0  0  0  0  0
   46.9737   53.6077   32.1746 C   0  0  0  0  0  0  0  0  0  0  0  0
   48.0783   53.8344   33.2123 C   0  0  1  0  0  0  0  0  0  0  0  0
   49.0590   54.7903   32.7931 O   0  0  0  0  0  0  0  0  0  0  0  0
   47.4939   54.3379   34.5241 C   0  0  1  0  0  0  0  0  0  0  0  0
   47.2097   53.2723   35.4033 O   0  0  0  0  0  0  0  0  0  0  0  0
   48.5436   55.2997   35.0655 C   0  0  1  0  0  0  0  0  0  0  0  0
   49.4600   54.6449   35.9193 O   0  0  0  0  0  0  0  0  0  0  0  0
   49.2976   55.7344   33.8242 C   0  0  2  0  0  0  0  0  0  0  0  0
   46.8770   57.7659   26.1854 O   0  0  0  0  0  0  0  0  0  0  0  0
   45.4089   58.9187   32.2893 N   0  0  0  0  0  0  0  0  0  0  0  0
   45.3369   57.5894   32.6213 C   0  0  0  0  0  0  0  0  0  0  0  0
   46.4797   56.9089   32.9861 N   0  0  0  0  0  0  0  0  0  0  0  0
   47.6680   57.5342   33.0584 C   0  0  0  0  0  0  0  0  0  0  0  0
   47.7617   58.8757   32.7292 C   0  0  0  0  0  0  0  0  0  0  0  0
   46.6236   59.5553   32.3430 C   0  0  0  0  0  0  0  0  0  0  0  0
   46.6875   60.8366   32.0369 N   0  0  0  0  0  0  0  0  0  0  0  0
   49.0485   59.2612   32.8798 N   0  0  0  0  0  0  0  0  0  0  0  0
   49.7711   58.1820   33.2730 C   0  0  0  0  0  0  0  0  0  0  0  0
   48.9251   57.1010   33.3903 N   0  0  0  0  0  0  0  0  0  0  0  0
  2  1  1  6  0  0  0
  2  3  1  0  0  0  0
  2  5  1  0  0  0  0
  3  4  1  0  0  0  0
  3 16  1  0  0  0  0
  5  6  1  0  0  0  0
  6  7  1  0  0  0  0
  7  8  1  0  0  0  0
  9  8  1  6  0  0  0
  9 10  1  0  0  0  0
  9 11  1  0  0  0  0
 10 15  1  0  0  0  0
 11 12  1  1  0  0  0
 11 13  1  0  0  0  0
 13 14  1  1  0  0  0
 13 15  1  0  0  0  0
 15 26  1  6  0  0  0
 17 18  2  0  0  0  0
 17 22  1  0  0  0  0
 18 19  1  0  0  0  0
 19 20  2  0  0  0  0
 20 21  1  0  0  0  0
 20 26  1  0  0  0  0
 21 22  2  0  0  0  0
 21 24  1  0  0  0  0
 22 23  1  0  0  0  0
 24 25  2  0  0  0  0
 25 26  1  0  0  0  0
M  END
>  <CHROM.1>
179.08525189,-59.04919734,179.98839922,-169.53965424,-90.38426319,40.49728235
63.70330690,47.64641660,56.39558652,31.73884021,2.67799529,1.39746943,-2.29305409

>  <Name>
ligand

>  <RI>
0

>  <Rbt.Current_Directory>
/home/itssahil/PROJECTS/Mol_Feturizer/New_Systems/rnas/3GX3

>  <Rbt.Executable>
rbdock ($Id: //depot/dev/client3/rdock/2013.1/src/exe/rbdock.cxx#4 $)

>  <Rbt.Library>
libRbt.so (2013.1, Build901 2013/11/27)

>  <Rbt.Parameter_File>
/export/apps/rDock/src/rDock_2013.1_src/data/scripts/dock_solv.prm

>  <Rbt.Receptor>
prm/pocket_docking_3.prm

>  <SCORE>
-17.6039

>  <SCORE.INTER>
-13.5542

>  <SCORE.INTER.CONST>
1

>  <SCORE.INTER.POLAR>
0

>  <SCORE.INTER.ROT>
7

>  <SCORE.INTER.SOLV>
17.836

>  <SCORE.INTER.VDW>
-23.2481

>  <SCORE.INTER.norm>
-0.521316

>  <SCORE.INTRA>
-4.04964

>  <SCORE.INTRA.DIHEDRAL>
-0.31025

>  <SCORE.INTRA.DIHEDRAL.0>
5.78979

>  <SCORE.INTRA.POLAR>
0

>  <SCORE.INTRA.POLAR.0>
0

>  <SCORE.INTRA.REPUL>
0

>  <SCORE.INTRA.REPUL.0>
0

>  <SCORE.INTRA.SOLV>
0.0055872

>  <SCORE.INTRA.SOLV.lig_0>
-49.9151

>  <SCORE.INTRA.VDW>
-3.89731

>  <SCORE.INTRA.VDW.0>
-0.211125

>  <SCORE.INTRA.norm>
-0.155756

>  <SCORE.RESTR>
0

>  <SCORE.RESTR.CAVITY>
0

>  <SCORE.RESTR.norm>
0

>  <SCORE.SYSTEM>
0

>  <SCORE.SYSTEM.CONST>
0

>  <SCORE.SYSTEM.DIHEDRAL>
0

>  <SCORE.SYSTEM.SOLV>
0

>  <SCORE.SYSTEM.norm>
0

>  <SCORE.heavy>
26

>  <SCORE.norm>
-0.677072

>  <RMSD>
1.458

$$$$
ligand
 OpenBabel11021811483D
libRbt.so/2013.1/901 2013/11/27
 26 28  0  0  0  0  0  0  0  0999 V2000
   47.5220   55.9873   25.9487 N   0  0  0  0  0  0  0  0  0  0  0  0
   46.4894   56.4776   26.8658 C   0  0  2  0  0  0  0  0  0  0  0  0
   46.6890   57.9255   27.3192 C   0  0  0  0  0  0  0  0  0  0  0  0
   46.8030   58.7945   26.4544 O   0  0  0  0  0  0  0  0  0  0  0  0
   46.2995   55.6367   28.1349 C   0  0  0  0  0  0  0  0  0  0  0  0
   47.4794   55.2762   29.0205 C   0  0  0  0  0  0  0  0  0  0  0  0
   46.7936   54.8224   30.6303 S   0  0  0  0  0  0  0  0  0  0  0  0
   48.3993   54.0714   30.9897 C   0  0  0  0  0  0  0  0  0  0  0  0
   48.9886   54.4561   32.3510 C   0  0  1  0  0  0  0  0  0  0  0  0
   49.6407   55.7312   32.3437 O   0  0  0  0  0  0  0  0  0  0  0  0
   47.9018   54.5148   33.4145 C   0  0  1  0  0  0  0  0  0  0  0  0
   47.7691   53.2800   34.0832 O   0  0  0  0  0  0  0  0  0  0  0  0
   48.3276   55.6526   34.3333 C   0  0  1  0  0  0  0  0  0  0  0  0
   49.1193   55.1872   35.4076 O   0  0  0  0  0  0  0  0  0  0  0  0
   49.2091   56.5106   33.4472 C   0  0  2  0  0  0  0  0  0  0  0  0
   46.7256   58.2586   28.5102 O   0  0  0  0  0  0  0  0  0  0  0  0
   44.6153   58.7276   32.1821 N   0  0  0  0  0  0  0  0  0  0  0  0
   44.8539   57.4365   32.5807 C   0  0  0  0  0  0  0  0  0  0  0  0
   46.1425   57.0286   32.8550 N   0  0  0  0  0  0  0  0  0  0  0  0
   47.1753   57.8861   32.7738 C   0  0  0  0  0  0  0  0  0  0  0  0
   46.9555   59.1936   32.3751 C   0  0  0  0  0  0  0  0  0  0  0  0
   45.6696   59.6001   32.0791 C   0  0  0  0  0  0  0  0  0  0  0  0
   45.4355   60.8443   31.7093 N   0  0  0  0  0  0  0  0  0  0  0  0
   48.1416   59.8420   32.3724 N   0  0  0  0  0  0  0  0  0  0  0  0
   49.1071   58.9611   32.7373 C   0  0  0  0  0  0  0  0  0  0  0  0
   48.5204   57.7408   32.9921 N   0  0  0  0  0  0  0  0  0  0  0  0
  2  1  1  1  0  0  0
  2  3  1  0  0  0  0
  2  5  1  0  0  0  0
  3  4  1  0  0  0  0
  3 16  1  0  0  0  0
  5  6  1  0  0  0  0
  6  7  1  0  0  0  0
  7  8  1  0  0  0  0
  9  8  1  6  0  0  0
  9 10  1  0  0  0  0
  9 11  1  0  0  0  0
 10 15  1  0  0  0  0
 11 12  1  1  0  0  0
 11 13  1  0  0  0  0
 13 14  1  1  0  0  0
 13 15  1  0  0  0  0
 15 26  1  6  0  0  0
 17 18  2  0  0  0  0
 17 22  1  0  0  0  0
 18 19  1  0  0  0  0
 19 20  2  0  0  0  0
 20 21  1  0  0  0  0
 20 26  1  0  0  0  0
 21 22  2  0  0  0  0
 21 24  1  0  0  0  0
 22 23  1  0  0  0  0
 24 25  2  0  0  0  0
 25 26  1  0  0  0  0
M  END
>  <CHROM.1>
54.92443356,51.86716214,160.60845454,163.94293585,131.73291182,-81.09511354
91.53825866,47.33707996,56.76612818,31.25193841,-2.35446646,-1.19708740,1.11215701

>  <Name>
ligand

>  <RI>
0

>  <Rbt.Current_Directory>
/home/itssahil/PROJECTS/Mol_Feturizer/New_Systems/rnas/3GX3

>  <Rbt.Executable>
rbdock ($Id: //depot/dev/client3/rdock/2013.1/src/exe/rbdock.cxx#4 $)

>  <Rbt.Library>
libRbt.so (2013.1, Build901 2013/11/27)

>  <Rbt.Parameter_File>
/export/apps/rDock/src/rDock_2013.1_src/data/scripts/dock_solv.prm

>  <Rbt.Receptor>
prm/pocket_docking_2.prm

>  <SCORE>
-12.2936

>  <SCORE.INTER>
-11.3558

>  <SCORE.INTER.CONST>
1

>  <SCORE.INTER.POLAR>
0

>  <SCORE.INTER.ROT>
7

>  <SCORE.INTER.SOLV>
18.2527

>  <SCORE.INTER.VDW>
-21.9214

>  <SCORE.INTER.norm>
-0.436761

>  <SCORE.INTRA>
-1.057

>  <SCORE.INTRA.DIHEDRAL>
2.67885

>  <SCORE.INTRA.DIHEDRAL.0>
5.78979

>  <SCORE.INTRA.POLAR>
0

>  <SCORE.INTRA.POLAR.0>
0

>  <SCORE.INTRA.REPUL>
0

>  <SCORE.INTRA.REPUL.0>
0

>  <SCORE.INTRA.SOLV>
-0.0735612

>  <SCORE.INTRA.SOLV.lig_0>
-49.9151

>  <SCORE.INTRA.VDW>
-2.35964

>  <SCORE.INTRA.VDW.0>
-0.211125

>  <SCORE.INTRA.norm>
-0.0406539

>  <SCORE.RESTR>
0.119153

>  <SCORE.RESTR.CAVITY>
0.119153

>  <SCORE.RESTR.norm>
0.00458282

>  <SCORE.SYSTEM>
0

>  <SCORE.SYSTEM.CONST>
0

>  <SCORE.SYSTEM.DIHEDRAL>
0

>  <SCORE.SYSTEM.SOLV>
0

>  <SCORE.SYSTEM.norm>
0

>  <SCORE.heavy>
26

>  <SCORE.norm>
-0.472832

>  <RMSD>
1.480

$$$$
ligand
 OpenBabel11021811483D
libRbt.so/2013.1/901 2013/11/27
 26 28  0  0  0  0  0  0  0  0999 V2000
   47.5752   56.6405   26.0047 N   0  0  0  0  0  0  0  0  0  0  0  0
   46.5499   56.8066   27.0386 C   0  0  2  0  0  0  0  0  0  0  0  0
   46.8280   57.9467   28.0207 C   0  0  0  0  0  0  0  0  0  0  0  0
   45.8692   58.4735   28.5859 O   0  0  0  0  0  0  0  0  0  0  0  0
   46.2703   55.5541   27.8793 C   0  0  0  0  0  0  0  0  0  0  0  0
   47.3681   54.8988   28.6990 C   0  0  0  0  0  0  0  0  0  0  0  0
   46.8857   55.0689   30.4328 S   0  0  0  0  0  0  0  0  0  0  0  0
   48.3627   54.1050   30.8335 C   0  0  0  0  0  0  0  0  0  0  0  0
   49.0456   54.5072   32.1451 C   0  0  1  0  0  0  0  0  0  0  0  0
   49.7215   55.7674   32.0662 O   0  0  0  0  0  0  0  0  0  0  0  0
   48.0305   54.6132   33.2739 C   0  0  1  0  0  0  0  0  0  0  0  0
   47.9159   53.3968   33.9786 O   0  0  0  0  0  0  0  0  0  0  0  0
   48.5371   55.7618   34.1364 C   0  0  1  0  0  0  0  0  0  0  0  0
   49.3864   55.3034   35.1690 O   0  0  0  0  0  0  0  0  0  0  0  0
   49.3772   56.5805   33.1761 C   0  0  2  0  0  0  0  0  0  0  0  0
   47.9693   58.3484   28.2796 O   0  0  0  0  0  0  0  0  0  0  0  0
   44.7537   58.8945   32.2348 N   0  0  0  0  0  0  0  0  0  0  0  0
   44.9903   57.6115   32.6597 C   0  0  0  0  0  0  0  0  0  0  0  0
   46.2861   57.1733   32.8355 N   0  0  0  0  0  0  0  0  0  0  0  0
   47.3313   57.9945   32.6316 C   0  0  0  0  0  0  0  0  0  0  0  0
   47.1140   59.2933   32.2043 C   0  0  0  0  0  0  0  0  0  0  0  0
   45.8189   59.7293   32.0068 C   0  0  0  0  0  0  0  0  0  0  0  0
   45.5881   60.9664   31.6119 N   0  0  0  0  0  0  0  0  0  0  0  0
   48.3129   59.9036   32.0732 N   0  0  0  0  0  0  0  0  0  0  0  0
   49.2818   59.0062   32.3853 C   0  0  0  0  0  0  0  0  0  0  0  0
   48.6859   57.8148   32.7367 N   0  0  0  0  0  0  0  0  0  0  0  0
  2  1  1  6  0  0  0
  2  3  1  0  0  0  0
  2  5  1  0  0  0  0
  3  4  1  0  0  0  0
  3 16  1  0  0  0  0
  5  6  1  0  0  0  0
  6  7  1  0  0  0  0
  7  8  1  0  0  0  0
  9  8  1  6  0  0  0
  9 10  1  0  0  0  0
  9 11  1  0  0  0  0
 10 15  1  0  0  0  0
 11 12  1  1  0  0  0
 11 13  1  0  0  0  0
 13 14  1  1  0  0  0
 13 15  1  0  0  0  0
 15 26  1  6  0  0  0
 17 18  2  0  0  0  0
 17 22  1  0  0  0  0
 18 19  1  0  0  0  0
 19 20  2  0  0  0  0
 20 21  1  0  0  0  0
 20 26  1  0  0  0  0
 21 22  2  0  0  0  0
 21 24  1  0  0  0  0
 22 23  1  0  0  0  0
 24 25  2  0  0  0  0
 25 26  1  0  0  0  0
M  END
>  <CHROM.1>
154.13433815,59.72283047,115.28518704,176.62535986,145.55626374,-71.98702174
93.22269816,47.45427546,56.85981529,31.22035890,-2.50596447,-1.16913818,1.02855076

>  <Name>
ligand

>  <RI>
0

>  <Rbt.Current_Directory>
/home/itssahil/PROJECTS/Mol_Feturizer/New_Systems/rnas/3GX3

>  <Rbt.Executable>
rbdock ($Id: //depot/dev/client3/rdock/2013.1/src/exe/rbdock.cxx#4 $)

>  <Rbt.Library>
libRbt.so (2013.1, Build901 2013/11/27)

>  <Rbt.Parameter_File>
/export/apps/rDock/src/rDock_2013.1_src/data/scripts/dock_solv.prm

>  <Rbt.Receptor>
prm/pocket_docking_2.prm

>  <SCORE>
-12.6204

>  <SCORE.INTER>
-10.6085

>  <SCORE.INTER.CONST>
1

>  <SCORE.INTER.POLAR>
0

>  <SCORE.INTER.ROT>
7

>  <SCORE.INTER.SOLV>
19.6977

>  <SCORE.INTER.VDW>
-21.9049

>  <SCORE.INTER.norm>
-0.40802

>  <SCORE.INTRA>
-2.08707

>  <SCORE.INTRA.DIHEDRAL>
4.48107

>  <SCORE.INTRA.DIHEDRAL.0>
5.78979

>  <SCORE.INTRA.POLAR>
0

>  <SCORE.INTRA.POLAR.0>
0

>  <SCORE.INTRA.REPUL>
0

>  <SCORE.INTRA.REPUL.0>
0

>  <SCORE.INTRA.SOLV>
-0.0515552

>  <SCORE.INTRA.SOLV.lig_0>
-49.9151

>  <SCORE.INTRA.VDW>
-4.30183

>  <SCORE.INTRA.VDW.0>
-0.211125

>  <SCORE.INTRA.norm>
-0.0802719

>  <SCORE.RESTR>
0.0752022

>  <SCORE.RESTR.CAVITY>
0.0752022

>  <SCORE.RESTR.norm>
0.00289239

>  <SCORE.SYSTEM>
0

>  <SCORE.SYSTEM.CONST>
0

>  <SCORE.SYSTEM.DIHEDRAL>
0

>  <SCORE.SYSTEM.SOLV>
0

>  <SCORE.SYSTEM.norm>
0

>  <SCORE.heavy>
26

>  <SCORE.norm>
-0.485399

>  <RMSD>
1.484

$$$$
ligand
 OpenBabel11021811483D
libRbt.so/2013.1/901 2013/11/27
 26 28  0  0  0  0  0  0  0  0999 V2000
   46.3847   56.9803   27.4921 N   0  0  0  0  0  0  0  0  0  0  0  0
   47.7257   57.0158   26.9019 C   0  0  2  0  0  0  0  0  0  0  0  0
   48.0412   55.8287   25.9893 C   0  0  0  0  0  0  0  0  0  0  0  0
   48.7414   56.0291   24.9965 O   0  0  0  0  0  0  0  0  0  0  0  0
   48.8749   57.1166   27.9132 C   0  0  0  0  0  0  0  0  0  0  0  0
   49.2105   55.9585   28.8368 C   0  0  0  0  0  0  0  0  0  0  0  0
   47.7226   55.6293   29.8092 S   0  0  0  0  0  0  0  0  0  0  0  0
   48.6659   54.3169   30.6212 C   0  0  0  0  0  0  0  0  0  0  0  0
   49.1020   54.6429   32.0536 C   0  0  1  0  0  0  0  0  0  0  0  0
   49.7432   55.9180   32.1721 O   0  0  0  0  0  0  0  0  0  0  0  0
   47.9060   54.6537   32.9946 C   0  0  1  0  0  0  0  0  0  0  0  0
   47.7092   53.3908   33.5910 O   0  0  0  0  0  0  0  0  0  0  0  0
   48.2228   55.7511   34.0022 C   0  0  1  0  0  0  0  0  0  0  0  0
   48.8964   55.2405   35.1350 O   0  0  0  0  0  0  0  0  0  0  0  0
   49.1898   56.6481   33.2548 C   0  0  2  0  0  0  0  0  0  0  0  0
   47.6369   54.6810   26.2140 O   0  0  0  0  0  0  0  0  0  0  0  0
   44.6599   59.1096   32.2354 N   0  0  0  0  0  0  0  0  0  0  0  0
   44.8465   57.8299   32.6939 C   0  0  0  0  0  0  0  0  0  0  0  0
   46.1243   57.3479   32.8862 N   0  0  0  0  0  0  0  0  0  0  0  0
   47.2005   58.1237   32.6658 C   0  0  0  0  0  0  0  0  0  0  0  0
   47.0336   59.4184   32.2047 C   0  0  0  0  0  0  0  0  0  0  0  0
   45.7566   59.8976   31.9907 C   0  0  0  0  0  0  0  0  0  0  0  0
   45.5739   61.1320   31.5635 N   0  0  0  0  0  0  0  0  0  0  0  0
   48.2552   59.9796   32.0631 N   0  0  0  0  0  0  0  0  0  0  0  0
   49.1885   59.0547   32.4021 C   0  0  0  0  0  0  0  0  0  0  0  0
   48.5470   57.8959   32.7811 N   0  0  0  0  0  0  0  0  0  0  0  0
  2  1  1  1  0  0  0
  2  3  1  0  0  0  0
  2  5  1  0  0  0  0
  3  4  1  0  0  0  0
  3 16  1  0  0  0  0
  5  6  1  0  0  0  0
  6  7  1  0  0  0  0
  7  8  1  0  0  0  0
  9  8  1  6  0  0  0
  9 10  1  0  0  0  0
  9 11  1  0  0  0  0
 10 15  1  0  0  0  0
 11 12  1  1  0  0  0
 11 13  1  0  0  0  0
 13 14  1  1  0  0  0
 13 15  1  0  0  0  0
 15 26  1  6  0  0  0
 17 18  2  0  0  0  0
 17 22  1  0  0  0  0
 18 19  1  0  0  0  0
 19 20  2  0  0  0  0
 20 21  1  0  0  0  0
 20 26  1  0  0  0  0
 21 22  2  0  0  0  0
 21 24  1  0  0  0  0
 22 23  1  0  0  0  0
 24 25  2  0  0  0  0
 25 26  1  0  0  0  0
M  END
>  <CHROM.1>
144.59875758,68.96142455,-59.18819652,-179.60797409,106.15088441,-49.94487847
104.78885004,47.76442959,56.76543794,30.88564179,1.36211460,1.10757830,-1.59956426

>  <Name>
ligand

>  <RI>
0

>  <Rbt.Current_Directory>
/home/itssahil/PROJECTS/Mol_Feturizer/New_Systems/rnas/3GX3

>  <Rbt.Executable>
rbdock ($Id: //depot/dev/client3/rdock/2013.1/src/exe/rbdock.cxx#4 $)

>  <Rbt.Library>
libRbt.so (2013.1, Build901 2013/11/27)

>  <Rbt.Parameter_File>
/export/apps/rDock/src/rDock_2013.1_src/data/scripts/dock_solv.prm

>  <Rbt.Receptor>
prm/pocket_docking_4.prm

>  <SCORE>
-16.3056

>  <SCORE.INTER>
-13.1521

>  <SCORE.INTER.CONST>
1

>  <SCORE.INTER.POLAR>
0

>  <SCORE.INTER.ROT>
7

>  <SCORE.INTER.SOLV>
16.7845

>  <SCORE.INTER.VDW>
-22.6295

>  <SCORE.INTER.norm>
-0.505849

>  <SCORE.INTRA>
-3.15355

>  <SCORE.INTRA.DIHEDRAL>
-0.243073

>  <SCORE.INTRA.DIHEDRAL.0>
5.78979

>  <SCORE.INTRA.POLAR>
0

>  <SCORE.INTRA.POLAR.0>
0

>  <SCORE.INTRA.REPUL>
0

>  <SCORE.INTRA.REPUL.0>
0

>  <SCORE.INTRA.SOLV>
1.08739

>  <SCORE.INTRA.SOLV.lig_0>
-49.9151

>  <SCORE.INTRA.VDW>
-3.57571

>  <SCORE.INTRA.VDW.0>
-0.211125

>  <SCORE.INTRA.norm>
-0.12129

>  <SCORE.RESTR>
0

>  <SCORE.RESTR.CAVITY>
0

>  <SCORE.RESTR.norm>
0

>  <SCORE.SYSTEM>
0

>  <SCORE.SYSTEM.CONST>
0

>  <SCORE.SYSTEM.DIHEDRAL>
0

>  <SCORE.SYSTEM.SOLV>
0

>  <SCORE.SYSTEM.norm>
0

>  <SCORE.heavy>
26

>  <SCORE.norm>
-0.627139

>  <RMSD>
1.492

$$$$
ligand
 OpenBabel11021811483D
libRbt.so/2013.1/901 2013/11/27
 26 28  0  0  0  0  0  0  0  0999 V2000
   47.5635   56.2492   25.9623 N   0  0  0  0  0  0  0  0  0  0  0  0
   47.2479   56.2032   27.3928 C   0  0  2  0  0  0  0  0  0  0  0  0
   47.8961   57.3196   28.2146 C   0  0  0  0  0  0  0  0  0  0  0  0
   47.8124   58.4739   27.7943 O   0  0  0  0  0  0  0  0  0  0  0  0
   47.5938   54.8807   28.0891 C   0  0  0  0  0  0  0  0  0  0  0  0
   47.0104   54.5339   29.4478 C   0  0  0  0  0  0  0  0  0  0  0  0
   48.1375   53.3379   30.2007 S   0  0  0  0  0  0  0  0  0  0  0  0
   47.3644   53.7564   31.7814 C   0  0  0  0  0  0  0  0  0  0  0  0
   48.3546   54.0739   32.9070 C   0  0  1  0  0  0  0  0  0  0  0  0
   49.2714   55.1223   32.5732 O   0  0  0  0  0  0  0  0  0  0  0  0
   47.6206   54.5054   34.1683 C   0  0  1  0  0  0  0  0  0  0  0  0
   47.3678   53.4079   35.0174 O   0  0  0  0  0  0  0  0  0  0  0  0
   48.5272   55.5553   34.7975 C   0  0  1  0  0  0  0  0  0  0  0  0
   49.4290   54.9797   35.7212 O   0  0  0  0  0  0  0  0  0  0  0  0
   49.3352   56.0729   33.6238 C   0  0  2  0  0  0  0  0  0  0  0  0
   48.4840   57.1136   29.2836 O   0  0  0  0  0  0  0  0  0  0  0  0
   45.2193   58.9984   32.1684 N   0  0  0  0  0  0  0  0  0  0  0  0
   45.2329   57.6787   32.5434 C   0  0  0  0  0  0  0  0  0  0  0  0
   46.4250   57.0709   32.8772 N   0  0  0  0  0  0  0  0  0  0  0  0
   47.5802   57.7594   32.8774 C   0  0  0  0  0  0  0  0  0  0  0  0
   47.5877   59.0925   32.5039 C   0  0  0  0  0  0  0  0  0  0  0  0
   46.3993   59.6989   32.1485 C   0  0  0  0  0  0  0  0  0  0  0  0
   46.3813   60.9711   31.8012 N   0  0  0  0  0  0  0  0  0  0  0  0
   48.8573   59.5493   32.5851 N   0  0  0  0  0  0  0  0  0  0  0  0
   49.6529   58.5226   32.9782 C   0  0  0  0  0  0  0  0  0  0  0  0
   48.8718   57.4033   33.1659 N   0  0  0  0  0  0  0  0  0  0  0  0
  2  1  1  6  0  0  0
  2  3  1  0  0  0  0
  2  5  1  0  0  0  0
  3  4  1  0  0  0  0
  3 16  1  0  0  0  0
  5  6  1  0  0  0  0
  6  7  1  0  0  0  0
  7  8  1  0  0  0  0
  9  8  1  6  0  0  0
  9 10  1  0  0  0  0
  9 11  1  0  0  0  0
 10 15  1  0  0  0  0
 11 12  1  1  0  0  0
 11 13  1  0  0  0  0
 13 14  1  1  0  0  0
 13 15  1  0  0  0  0
 15 26  1  6  0  0  0
 17 18  2  0  0  0  0
 17 22  1  0  0  0  0
 18 19  1  0  0  0  0
 19 20  2  0  0  0  0
 20 21  1  0  0  0  0
 20 26  1  0  0  0  0
 21 22  2  0  0  0  0
 21 24  1  0  0  0  0
 22 23  1  0  0  0  0
 24 25  2  0  0  0  0
 25 26  1  0  0  0  0
M  END
>  <CHROM.1>
47.68055301,-163.70241929,-156.54815850,161.71825413,-130.86418954,55.74543787
71.60997768,47.78272461,56.41097214,31.56159199,-2.25478685,-1.37349624,1.09785456

>  <Name>
ligand

>  <RI>
0

>  <Rbt.Current_Directory>
/home/itssahil/PROJECTS/Mol_Feturizer/New_Systems/rnas/3GX3

>  <Rbt.Executable>
rbdock ($Id: //depot/dev/client3/rdock/2013.1/src/exe/rbdock.cxx#4 $)

>  <Rbt.Library>
libRbt.so (2013.1, Build901 2013/11/27)

>  <Rbt.Parameter_File>
/export/apps/rDock/src/rDock_2013.1_src/data/scripts/dock_solv.prm

>  <Rbt.Receptor>
prm/pocket_docking_2.prm

>  <SCORE>
-13.4629

>  <SCORE.INTER>
-11.6776

>  <SCORE.INTER.CONST>
1

>  <SCORE.INTER.POLAR>
0

>  <SCORE.INTER.ROT>
7

>  <SCORE.INTER.SOLV>
18.9024

>  <SCORE.INTER.VDW>
-22.3525

>  <SCORE.INTER.norm>
-0.449139

>  <SCORE.INTRA>
-1.81264

>  <SCORE.INTRA.DIHEDRAL>
2.54234

>  <SCORE.INTRA.DIHEDRAL.0>
5.78979

>  <SCORE.INTRA.POLAR>
0

>  <SCORE.INTRA.POLAR.0>
0

>  <SCORE.INTRA.REPUL>
0

>  <SCORE.INTRA.REPUL.0>
0

>  <SCORE.INTRA.SOLV>
-1.01008

>  <SCORE.INTRA.SOLV.lig_0>
-49.9151

>  <SCORE.INTRA.VDW>
-2.57877

>  <SCORE.INTRA.VDW.0>
-0.211125

>  <SCORE.INTRA.norm>
-0.0697168

>  <SCORE.RESTR>
0.0273858

>  <SCORE.RESTR.CAVITY>
0.0273858

>  <SCORE.RESTR.norm>
0.0010533

>  <SCORE.SYSTEM>
0

>  <SCORE.SYSTEM.CONST>
0

>  <SCORE.SYSTEM.DIHEDRAL>
0

>  <SCORE.SYSTEM.SOLV>
0

>  <SCORE.SYSTEM.norm>
0

>  <SCORE.heavy>
26

>  <SCORE.norm>
-0.517802

>  <RMSD>
1.497

$$$$
ligand
 OpenBabel11021811483D
libRbt.so/2013.1/901 2013/11/27
 26 28  0  0  0  0  0  0  0  0999 V2000
   48.2594   54.9327   25.3193 N   0  0  0  0  0  0  0  0  0  0  0  0
   47.6640   55.4385   26.5592 C   0  0  2  0  0  0  0  0  0  0  0  0
   48.0977   56.8585   26.9299 C   0  0  0  0  0  0  0  0  0  0  0  0
   49.2139   57.0142   27.4258 O   0  0  0  0  0  0  0  0  0  0  0  0
   47.9045   54.5633   27.7961 C   0  0  0  0  0  0  0  0  0  0  0  0
   49.3012   54.0951   28.1659 C   0  0  0  0  0  0  0  0  0  0  0  0
   49.1830   53.3864   29.8246 S   0  0  0  0  0  0  0  0  0  0  0  0
   49.4830   55.0568   30.4501 C   0  0  0  0  0  0  0  0  0  0  0  0
   49.4340   55.1804   31.9767 C   0  0  1  0  0  0  0  0  0  0  0  0
   49.7985   56.4821   32.4497 O   0  0  0  0  0  0  0  0  0  0  0  0
   48.0345   54.8896   32.4989 C   0  0  1  0  0  0  0  0  0  0  0  0
   47.8843   53.5288   32.8380 O   0  0  0  0  0  0  0  0  0  0  0  0
   47.8683   55.8269   33.6881 C   0  0  1  0  0  0  0  0  0  0  0  0
   48.2651   55.2112   34.8969 O   0  0  0  0  0  0  0  0  0  0  0  0
   48.8487   56.9456   33.3954 C   0  0  2  0  0  0  0  0  0  0  0  0
   47.3841   57.8512   26.7398 O   0  0  0  0  0  0  0  0  0  0  0  0
   44.2751   59.1924   32.1101 N   0  0  0  0  0  0  0  0  0  0  0  0
   44.4992   57.9094   32.5417 C   0  0  0  0  0  0  0  0  0  0  0  0
   45.7844   57.4909   32.8159 N   0  0  0  0  0  0  0  0  0  0  0  0
   46.8283   58.3310   32.7024 C   0  0  0  0  0  0  0  0  0  0  0  0
   46.6232   59.6302   32.2701 C   0  0  0  0  0  0  0  0  0  0  0  0
   45.3405   60.0467   31.9742 C   0  0  0  0  0  0  0  0  0  0  0  0
   45.1205   61.2836   31.5726 N   0  0  0  0  0  0  0  0  0  0  0  0
   47.8182   60.2613   32.2394 N   0  0  0  0  0  0  0  0  0  0  0  0
   48.7745   59.3770   32.6199 C   0  0  0  0  0  0  0  0  0  0  0  0
   48.1732   58.1726   32.9129 N   0  0  0  0  0  0  0  0  0  0  0  0
  2  1  1  6  0  0  0
  2  3  1  0  0  0  0
  2  5  1  0  0  0  0
  3  4  1  0  0  0  0
  3 16  1  0  0  0  0
  5  6  1  0  0  0  0
  6  7  1  0  0  0  0
  7  8  1  0  0  0  0
  9  8  1  6  0  0  0
  9 10  1  0  0  0  0
  9 11  1  0  0  0  0
 10 15  1  0  0  0  0
 11 12  1  1  0  0  0
 11 13  1  0  0  0  0
 13 14  1  1  0  0  0
 13 15  1  0  0  0  0
 15 26  1  6  0  0  0
 17 18  2  0  0  0  0
 17 22  1  0  0  0  0
 18 19  1  0  0  0  0
 19 20  2  0  0  0  0
 20 21  1  0  0  0  0
 20 26  1  0  0  0  0
 21 22  2  0  0  0  0
 21 24  1  0  0  0  0
 22 23  1  0  0  0  0
 24 25  2  0  0  0  0
 25 26  1  0  0  0  0
M  END
>  <CHROM.1>
-77.25723891,50.72186878,169.17795837,-88.07134789,176.83875155,174.44224002
120.35126907,47.80364855,56.64984688,30.86729759,0.85312366,1.07180923,-1.56596788

>  <Name>
ligand

>  <RI>
0

>  <Rbt.Current_Directory>
/home/itssahil/PROJECTS/Mol_Feturizer/New_Systems/rnas/3GX3

>  <Rbt.Executable>
rbdock ($Id: //depot/dev/client3/rdock/2013.1/src/exe/rbdock.cxx#4 $)

>  <Rbt.Library>
libRbt.so (2013.1, Build901 2013/11/27)

>  <Rbt.Parameter_File>
/export/apps/rDock/src/rDock_2013.1_src/data/scripts/dock_solv.prm

>  <Rbt.Receptor>
prm/pocket_docking_5.prm

>  <SCORE>
-14.8267

>  <SCORE.INTER>
-13.0254

>  <SCORE.INTER.CONST>
1

>  <SCORE.INTER.POLAR>
0

>  <SCORE.INTER.ROT>
7

>  <SCORE.INTER.SOLV>
16.6679

>  <SCORE.INTER.VDW>
-22.5062

>  <SCORE.INTER.norm>
-0.500976

>  <SCORE.INTRA>
-1.8013

>  <SCORE.INTRA.DIHEDRAL>
-1.0069

>  <SCORE.INTRA.DIHEDRAL.0>
5.78979

>  <SCORE.INTRA.POLAR>
0

>  <SCORE.INTRA.POLAR.0>
0

>  <SCORE.INTRA.REPUL>
0

>  <SCORE.INTRA.REPUL.0>
0

>  <SCORE.INTRA.SOLV>
-0.307926

>  <SCORE.INTRA.SOLV.lig_0>
-49.9151

>  <SCORE.INTRA.VDW>
-1.14389

>  <SCORE.INTRA.VDW.0>
-0.211125

>  <SCORE.INTRA.norm>
-0.0692808

>  <SCORE.RESTR>
0

>  <SCORE.RESTR.CAVITY>
0

>  <SCORE.RESTR.norm>
0

>  <SCORE.SYSTEM>
0

>  <SCORE.SYSTEM.CONST>
0

>  <SCORE.SYSTEM.DIHEDRAL>
0

>  <SCORE.SYSTEM.SOLV>
0

>  <SCORE.SYSTEM.norm>
0

>  <SCORE.heavy>
26

>  <SCORE.norm>
-0.570257

>  <RMSD>
1.614

$$$$
ligand
 OpenBabel11021811483D
libRbt.so/2013.1/901 2013/11/27
 26 28  0  0  0  0  0  0  0  0999 V2000
   46.0140   57.4953   27.6204 N   0  0  0  0  0  0  0  0  0  0  0  0
   47.3887   57.5284   27.1135 C   0  0  2  0  0  0  0  0  0  0  0  0
   47.8489   56.2225   26.4619 C   0  0  0  0  0  0  0  0  0  0  0  0
   47.4660   55.1610   26.9544 O   0  0  0  0  0  0  0  0  0  0  0  0
   48.4523   57.9053   28.1530 C   0  0  0  0  0  0  0  0  0  0  0  0
   48.6075   57.1123   29.4390 C   0  0  0  0  0  0  0  0  0  0  0  0
   49.8281   55.8220   29.1026 S   0  0  0  0  0  0  0  0  0  0  0  0
   48.9844   54.8362   30.3627 C   0  0  0  0  0  0  0  0  0  0  0  0
   49.3959   55.1614   31.8025 C   0  0  1  0  0  0  0  0  0  0  0  0
   49.7950   56.5252   31.9812 O   0  0  0  0  0  0  0  0  0  0  0  0
   48.2472   54.9008   32.7661 C   0  0  1  0  0  0  0  0  0  0  0  0
   48.3040   53.5936   33.2928 O   0  0  0  0  0  0  0  0  0  0  0  0
   48.3869   55.9832   33.8285 C   0  0  1  0  0  0  0  0  0  0  0  0
   49.1766   55.5472   34.9166 O   0  0  0  0  0  0  0  0  0  0  0  0
   49.1495   57.0820   33.1148 C   0  0  2  0  0  0  0  0  0  0  0  0
   48.5728   56.1896   25.4590 O   0  0  0  0  0  0  0  0  0  0  0  0
   44.2215   58.6892   32.2492 N   0  0  0  0  0  0  0  0  0  0  0  0
   44.6551   57.4409   32.6183 C   0  0  0  0  0  0  0  0  0  0  0  0
   46.0035   57.2019   32.7822 N   0  0  0  0  0  0  0  0  0  0  0  0
   46.9081   58.1838   32.6212 C   0  0  0  0  0  0  0  0  0  0  0  0
   46.4910   59.4509   32.2506 C   0  0  0  0  0  0  0  0  0  0  0  0
   45.1437   59.6887   32.0649 C   0  0  0  0  0  0  0  0  0  0  0  0
   44.7230   60.8913   31.7238 N   0  0  0  0  0  0  0  0  0  0  0  0
   47.5804   60.2453   32.1538 N   0  0  0  0  0  0  0  0  0  0  0  0
   48.6773   59.4964   32.4317 C   0  0  0  0  0  0  0  0  0  0  0  0
   48.2743   58.2123   32.7263 N   0  0  0  0  0  0  0  0  0  0  0  0
  2  1  1  1  0  0  0
  2  3  1  0  0  0  0
  2  5  1  0  0  0  0
  3  4  1  0  0  0  0
  3 16  1  0  0  0  0
  5  6  1  0  0  0  0
  6  7  1  0  0  0  0
  7  8  1  0  0  0  0
  9  8  1  6  0  0  0
  9 10  1  0  0  0  0
  9 11  1  0  0  0  0
 10 15  1  0  0  0  0
 11 12  1  1  0  0  0
 11 13  1  0  0  0  0
 13 14  1  1  0  0  0
 13 15  1  0  0  0  0
 15 26  1  6  0  0  0
 17 18  2  0  0  0  0
 17 22  1  0  0  0  0
 18 19  1  0  0  0  0
 19 20  2  0  0  0  0
 20 21  1  0  0  0  0
 20 26  1  0  0  0  0
 21 22  2  0  0  0  0
 21 24  1  0  0  0  0
 22 23  1  0  0  0  0
 24 25  2  0  0  0  0
 25 26  1  0  0  0  0
M  END
>  <CHROM.1>
-36.90386248,56.69846580,91.39723691,-151.66184963,-82.28896131,29.93776273
103.17691543,47.78073576,57.03764649,30.87285651,1.26107036,0.86891514,-1.58937460

>  <Name>
ligand

>  <RI>
0

>  <Rbt.Current_Directory>
/home/itssahil/PROJECTS/Mol_Feturizer/New_Systems/rnas/3GX3

>  <Rbt.Executable>
rbdock ($Id: //depot/dev/client3/rdock/2013.1/src/exe/rbdock.cxx#4 $)

>  <Rbt.Library>
libRbt.so (2013.1, Build901 2013/11/27)

>  <Rbt.Parameter_File>
/export/apps/rDock/src/rDock_2013.1_src/data/scripts/dock_solv.prm

>  <Rbt.Receptor>
prm/pocket_docking_3.prm

>  <SCORE>
-15.8257

>  <SCORE.INTER>
-14.8435

>  <SCORE.INTER.CONST>
1

>  <SCORE.INTER.POLAR>
0

>  <SCORE.INTER.ROT>
7

>  <SCORE.INTER.SOLV>
20.4844

>  <SCORE.INTER.VDW>
-24.9905

>  <SCORE.INTER.norm>
-0.570904

>  <SCORE.INTRA>
-0.982217

>  <SCORE.INTRA.DIHEDRAL>
4.57833

>  <SCORE.INTRA.DIHEDRAL.0>
5.78979

>  <SCORE.INTRA.POLAR>
0

>  <SCORE.INTRA.POLAR.0>
0

>  <SCORE.INTRA.REPUL>
0

>  <SCORE.INTRA.REPUL.0>
0

>  <SCORE.INTRA.SOLV>
0.0243482

>  <SCORE.INTRA.SOLV.lig_0>
-49.9151

>  <SCORE.INTRA.VDW>
-3.28356

>  <SCORE.INTRA.VDW.0>
-0.211125

>  <SCORE.INTRA.norm>
-0.0377776

>  <SCORE.RESTR>
0

>  <SCORE.RESTR.CAVITY>
0

>  <SCORE.RESTR.norm>
0

>  <SCORE.SYSTEM>
0

>  <SCORE.SYSTEM.CONST>
0

>  <SCORE.SYSTEM.DIHEDRAL>
0

>  <SCORE.SYSTEM.SOLV>
0

>  <SCORE.SYSTEM.norm>
0

>  <SCORE.heavy>
26

>  <SCORE.norm>
-0.608682

>  <RMSD>
1.617

$$$$
ligand
 OpenBabel11021811483D
libRbt.so/2013.1/901 2013/11/27
 26 28  0  0  0  0  0  0  0  0999 V2000
   49.1481   55.9932   27.9748 N   0  0  0  0  0  0  0  0  0  0  0  0
   47.9511   55.1591   27.8359 C   0  0  2  0  0  0  0  0  0  0  0  0
   47.2771   55.2520   26.4652 C   0  0  0  0  0  0  0  0  0  0  0  0
   47.4832   56.2563   25.7834 O   0  0  0  0  0  0  0  0  0  0  0  0
   46.8609   55.4124   28.8853 C   0  0  0  0  0  0  0  0  0  0  0  0
   47.1142   55.1466   30.3590 C   0  0  0  0  0  0  0  0  0  0  0  0
   47.4104   53.3704   30.5170 S   0  0  0  0  0  0  0  0  0  0  0  0
   46.8883   53.5390   32.2405 C   0  0  0  0  0  0  0  0  0  0  0  0
   48.0277   53.8325   33.2222 C   0  0  1  0  0  0  0  0  0  0  0  0
   48.9445   54.8229   32.7431 O   0  0  0  0  0  0  0  0  0  0  0  0
   47.4816   54.3332   34.5515 C   0  0  1  0  0  0  0  0  0  0  0  0
   47.2856   53.2719   35.4597 O   0  0  0  0  0  0  0  0  0  0  0  0
   48.5108   55.3497   35.0285 C   0  0  1  0  0  0  0  0  0  0  0  0
   49.4935   54.7512   35.8494 O   0  0  0  0  0  0  0  0  0  0  0  0
   49.1874   55.7949   33.7470 C   0  0  2  0  0  0  0  0  0  0  0  0
   46.5505   54.3595   26.0108 O   0  0  0  0  0  0  0  0  0  0  0  0
   45.1051   58.7578   32.2726 N   0  0  0  0  0  0  0  0  0  0  0  0
   45.1097   57.4300   32.6183 C   0  0  0  0  0  0  0  0  0  0  0  0
   46.2941   56.8133   32.9631 N   0  0  0  0  0  0  0  0  0  0  0  0
   47.4497   57.5000   33.0023 C   0  0  0  0  0  0  0  0  0  0  0  0
   47.4662   58.8410   32.6586 C   0  0  0  0  0  0  0  0  0  0  0  0
   46.2859   59.4568   32.2925 C   0  0  0  0  0  0  0  0  0  0  0  0
   46.2763   60.7365   31.9732 N   0  0  0  0  0  0  0  0  0  0  0  0
   48.7344   59.2941   32.7760 N   0  0  0  0  0  0  0  0  0  0  0  0
   49.5206   58.2578   33.1625 C   0  0  0  0  0  0  0  0  0  0  0  0
   48.7348   57.1358   33.3092 N   0  0  0  0  0  0  0  0  0  0  0  0
  2  1  1  6  0  0  0
  2  3  1  0  0  0  0
  2  5  1  0  0  0  0
  3  4  1  0  0  0  0
  3 16  1  0  0  0  0
  5  6  1  0  0  0  0
  6  7  1  0  0  0  0
  7  8  1  0  0  0  0
  9  8  1  6  0  0  0
  9 10  1  0  0  0  0
  9 11  1  0  0  0  0
 10 15  1  0  0  0  0
 11 12  1  1  0  0  0
 11 13  1  0  0  0  0
 13 14  1  1  0  0  0
 13 15  1  0  0  0  0
 15 26  1  6  0  0  0
 17 18  2  0  0  0  0
 17 22  1  0  0  0  0
 18 19  1  0  0  0  0
 19 20  2  0  0  0  0
 20 21  1  0  0  0  0
 20 26  1  0  0  0  0
 21 22  2  0  0  0  0
 21 24  1  0  0  0  0
 22 23  1  0  0  0  0
 24 25  2  0  0  0  0
 25 26  1  0  0  0  0
M  END
>  <CHROM.1>
-22.68176650,-63.53008030,-63.55926073,-156.20972003,-90.79652176,43.97159696
62.25200922,47.56741050,55.97771117,31.59473195,2.06571863,1.36407549,-2.18066723

>  <Name>
ligand

>  <RI>
0

>  <Rbt.Current_Directory>
/home/itssahil/PROJECTS/Mol_Feturizer/New_Systems/rnas/3GX3

>  <Rbt.Executable>
rbdock ($Id: //depot/dev/client3/rdock/2013.1/src/exe/rbdock.cxx#4 $)

>  <Rbt.Library>
libRbt.so (2013.1, Build901 2013/11/27)

>  <Rbt.Parameter_File>
/export/apps/rDock/src/rDock_2013.1_src/data/scripts/dock_solv.prm

>  <Rbt.Receptor>
prm/pocket_docking_5.prm

>  <SCORE>
-14.9738

>  <SCORE.INTER>
-11.2048

>  <SCORE.INTER.CONST>
1

>  <SCORE.INTER.POLAR>
0

>  <SCORE.INTER.ROT>
7

>  <SCORE.INTER.SOLV>
15.9964

>  <SCORE.INTER.VDW>
-21.0687

>  <SCORE.INTER.norm>
-0.430953

>  <SCORE.INTRA>
-3.76902

>  <SCORE.INTRA.DIHEDRAL>
0.108099

>  <SCORE.INTRA.DIHEDRAL.0>
5.78979

>  <SCORE.INTRA.POLAR>
0

>  <SCORE.INTRA.POLAR.0>
0

>  <SCORE.INTRA.REPUL>
0

>  <SCORE.INTRA.REPUL.0>
0

>  <SCORE.INTRA.SOLV>
0.167367

>  <SCORE.INTRA.SOLV.lig_0>
-49.9151

>  <SCORE.INTRA.VDW>
-3.90675

>  <SCORE.INTRA.VDW.0>
-0.211125

>  <SCORE.INTRA.norm>
-0.144962

>  <SCORE.RESTR>
0

>  <SCORE.RESTR.CAVITY>
0

>  <SCORE.RESTR.norm>
0

>  <SCORE.SYSTEM>
0

>  <SCORE.SYSTEM.CONST>
0

>  <SCORE.SYSTEM.DIHEDRAL>
0

>  <SCORE.SYSTEM.SOLV>
0

>  <SCORE.SYSTEM.norm>
0

>  <SCORE.heavy>
26

>  <SCORE.norm>
-0.575915

>  <RMSD>
1.649

$$$$
ligand
 OpenBabel11021811483D
libRbt.so/2013.1/901 2013/11/27
 26 28  0  0  0  0  0  0  0  0999 V2000
   49.1502   54.4721   26.7944 N   0  0  0  0  0  0  0  0  0  0  0  0
   47.7941   55.0219   26.8752 C   0  0  2  0  0  0  0  0  0  0  0  0
   47.5996   56.3284   26.1027 C   0  0  0  0  0  0  0  0  0  0  0  0
   47.1514   56.2651   24.9576 O   0  0  0  0  0  0  0  0  0  0  0  0
   47.2795   55.2670   28.2996 C   0  0  0  0  0  0  0  0  0  0  0  0
   47.1843   54.1326   29.3050 C   0  0  0  0  0  0  0  0  0  0  0  0
   46.8137   54.8923   30.9029 S   0  0  0  0  0  0  0  0  0  0  0  0
   47.7844   53.5601   31.6475 C   0  0  0  0  0  0  0  0  0  0  0  0
   48.5404   53.9610   32.9188 C   0  0  1  0  0  0  0  0  0  0  0  0
   49.3659   55.1181   32.7434 O   0  0  0  0  0  0  0  0  0  0  0  0
   47.5712   54.2694   34.0508 C   0  0  1  0  0  0  0  0  0  0  0  0
   47.3217   53.1274   34.8399 O   0  0  0  0  0  0  0  0  0  0  0  0
   48.2354   55.4009   34.8245 C   0  0  1  0  0  0  0  0  0  0  0  0
   49.0434   54.9102   35.8752 O   0  0  0  0  0  0  0  0  0  0  0  0
   49.1496   56.0410   33.7984 C   0  0  2  0  0  0  0  0  0  0  0  0
   47.8585   57.4390   26.5829 O   0  0  0  0  0  0  0  0  0  0  0  0
   44.8562   58.6719   32.2941 N   0  0  0  0  0  0  0  0  0  0  0  0
   44.9467   57.3763   32.7368 C   0  0  0  0  0  0  0  0  0  0  0  0
   46.1758   56.8486   33.0725 N   0  0  0  0  0  0  0  0  0  0  0  0
   47.2933   57.5939   33.0085 C   0  0  0  0  0  0  0  0  0  0  0  0
   47.2233   58.9039   32.5660 C   0  0  0  0  0  0  0  0  0  0  0  0
   45.9975   59.4293   32.2088 C   0  0  0  0  0  0  0  0  0  0  0  0
   45.9057   60.6787   31.7962 N   0  0  0  0  0  0  0  0  0  0  0  0
   48.4689   59.4283   32.5921 N   0  0  0  0  0  0  0  0  0  0  0  0
   49.3252   58.4658   33.0186 C   0  0  0  0  0  0  0  0  0  0  0  0
   48.6077   57.3198   33.2833 N   0  0  0  0  0  0  0  0  0  0  0  0
  2  1  1  1  0  0  0
  2  3  1  0  0  0  0
  2  5  1  0  0  0  0
  3  4  1  0  0  0  0
  3 16  1  0  0  0  0
  5  6  1  0  0  0  0
  6  7  1  0  0  0  0
  7  8  1  0  0  0  0
  9  8  1  6  0  0  0
  9 10  1  0  0  0  0
  9 11  1  0  0  0  0
 10 15  1  0  0  0  0
 11 12  1  1  0  0  0
 11 13  1  0  0  0  0
 13 14  1  1  0  0  0
 13 15  1  0  0  0  0
 15 26  1  6  0  0  0
 17 18  2  0  0  0  0
 17 22  1  0  0  0  0
 18 19  1  0  0  0  0
 19 20  2  0  0  0  0
 20 21  1  0  0  0  0
 20 26  1  0  0  0  0
 21 22  2  0  0  0  0
 21 24  1  0  0  0  0
 22 23  1  0  0  0  0
 24 25  2  0  0  0  0
 25 26  1  0  0  0  0
M  END
>  <CHROM.1>
95.19108210,-58.71524814,170.51318477,-147.21391260,147.31463825,-53.37159542
83.45328590,47.54944576,56.21240023,31.37016776,-1.68961841,-1.27668857,1.42876294

>  <Name>
ligand

>  <RI>
0

>  <Rbt.Current_Directory>
/home/itssahil/PROJECTS/Mol_Feturizer/New_Systems/rnas/3GX3

>  <Rbt.Executable>
rbdock ($Id: //depot/dev/client3/rdock/2013.1/src/exe/rbdock.cxx#4 $)

>  <Rbt.Library>
libRbt.so (2013.1, Build901 2013/11/27)

>  <Rbt.Parameter_File>
/export/apps/rDock/src/rDock_2013.1_src/data/scripts/dock_solv.prm

>  <Rbt.Receptor>
prm/pocket_docking_3.prm

>  <SCORE>
-15.9238

>  <SCORE.INTER>
-12.6692

>  <SCORE.INTER.CONST>
1

>  <SCORE.INTER.POLAR>
0

>  <SCORE.INTER.ROT>
7

>  <SCORE.INTER.SOLV>
13.258

>  <SCORE.INTER.VDW>
-21.1321

>  <SCORE.INTER.norm>
-0.487275

>  <SCORE.INTRA>
-3.25462

>  <SCORE.INTRA.DIHEDRAL>
0.330979

>  <SCORE.INTRA.DIHEDRAL.0>
5.78979

>  <SCORE.INTRA.POLAR>
0

>  <SCORE.INTRA.POLAR.0>
0

>  <SCORE.INTRA.REPUL>
0

>  <SCORE.INTRA.REPUL.0>
0

>  <SCORE.INTRA.SOLV>
-0.168954

>  <SCORE.INTRA.SOLV.lig_0>
-49.9151

>  <SCORE.INTRA.VDW>
-3.33564

>  <SCORE.INTRA.VDW.0>
-0.211125

>  <SCORE.INTRA.norm>
-0.125178

>  <SCORE.RESTR>
0

>  <SCORE.RESTR.CAVITY>
0

>  <SCORE.RESTR.norm>
0

>  <SCORE.SYSTEM>
0

>  <SCORE.SYSTEM.CONST>
0

>  <SCORE.SYSTEM.DIHEDRAL>
0

>  <SCORE.SYSTEM.SOLV>
0

>  <SCORE.SYSTEM.norm>
0

>  <SCORE.heavy>
26

>  <SCORE.norm>
-0.612453

>  <RMSD>
1.660

$$$$
ligand
 OpenBabel11021811483D
libRbt.so/2013.1/901 2013/11/27
 26 28  0  0  0  0  0  0  0  0999 V2000
   46.2697   55.2030   27.7832 N   0  0  0  0  0  0  0  0  0  0  0  0
   47.6435   55.5577   28.1501 C   0  0  2  0  0  0  0  0  0  0  0  0
   48.0615   56.9680   27.7282 C   0  0  0  0  0  0  0  0  0  0  0  0
   48.5893   57.6942   28.5709 O   0  0  0  0  0  0  0  0  0  0  0  0
   48.7209   54.5994   27.6261 C   0  0  0  0  0  0  0  0  0  0  0  0
   50.1160   54.5844   28.2261 C   0  0  0  0  0  0  0  0  0  0  0  0
   49.9553   53.8770   29.8819 S   0  0  0  0  0  0  0  0  0  0  0  0
   49.8169   55.5766   30.4848 C   0  0  0  0  0  0  0  0  0  0  0  0
   49.7480   55.7044   32.0103 C   0  0  1  0  0  0  0  0  0  0  0  0
   49.8769   57.0546   32.4701 O   0  0  0  0  0  0  0  0  0  0  0  0
   48.4224   55.1759   32.5387 C   0  0  1  0  0  0  0  0  0  0  0  0
   48.5155   53.8133   32.8910 O   0  0  0  0  0  0  0  0  0  0  0  0
   48.0940   56.0805   33.7194 C   0  0  1  0  0  0  0  0  0  0  0  0
   48.5943   55.5565   34.9329 O   0  0  0  0  0  0  0  0  0  0  0  0
   48.8608   57.3520   33.4137 C   0  0  2  0  0  0  0  0  0  0  0  0
   47.9055   57.4007   26.5795 O   0  0  0  0  0  0  0  0  0  0  0  0
   43.9615   58.7411   32.1155 N   0  0  0  0  0  0  0  0  0  0  0  0
   44.4095   57.5221   32.5582 C   0  0  0  0  0  0  0  0  0  0  0  0
   45.7484   57.3404   32.8341 N   0  0  0  0  0  0  0  0  0  0  0  0
   46.6269   58.3511   32.7115 C   0  0  0  0  0  0  0  0  0  0  0  0
   46.1949   59.5894   32.2679 C   0  0  0  0  0  0  0  0  0  0  0  0
   44.8587   59.7694   31.9703 C   0  0  0  0  0  0  0  0  0  0  0  0
   44.4230   60.9440   31.5580 N   0  0  0  0  0  0  0  0  0  0  0  0
   47.2591   60.4220   32.2297 N   0  0  0  0  0  0  0  0  0  0  0  0
   48.3570   59.7247   32.6166 C   0  0  0  0  0  0  0  0  0  0  0  0
   47.9786   58.4355   32.9213 N   0  0  0  0  0  0  0  0  0  0  0  0
  2  1  1  6  0  0  0
  2  3  1  0  0  0  0
  2  5  1  0  0  0  0
  3  4  1  0  0  0  0
  3 16  1  0  0  0  0
  5  6  1  0  0  0  0
  6  7  1  0  0  0  0
  7  8  1  0  0  0  0
  9  8  1  6  0  0  0
  9 10  1  0  0  0  0
  9 11  1  0  0  0  0
 10 15  1  0  0  0  0
 11 12  1  1  0  0  0
 11 13  1  0  0  0  0
 13 14  1  1  0  0  0
 13 15  1  0  0  0  0
 15 26  1  6  0  0  0
 17 18  2  0  0  0  0
 17 22  1  0  0  0  0
 18 19  1  0  0  0  0
 19 20  2  0  0  0  0
 20 21  1  0  0  0  0
 20 26  1  0  0  0  0
 21 22  2  0  0  0  0
 21 24  1  0  0  0  0
 22 23  1  0  0  0  0
 24 25  2  0  0  0  0
 25 26  1  0  0  0  0
M  END
>  <CHROM.1>
130.51940603,-162.33227107,70.24271312,-94.06832486,-175.47201148,169.61050984
120.28793637,47.82040957,56.83043326,31.09376950,0.69565125,0.86448451,-1.67880265

>  <Name>
ligand

>  <RI>
0

>  <Rbt.Current_Directory>
/home/itssahil/PROJECTS/Mol_Feturizer/New_Systems/rnas/3GX3

>  <Rbt.Executable>
rbdock ($Id: //depot/dev/client3/rdock/2013.1/src/exe/rbdock.cxx#4 $)

>  <Rbt.Library>
libRbt.so (2013.1, Build901 2013/11/27)

>  <Rbt.Parameter_File>
/export/apps/rDock/src/rDock_2013.1_src/data/scripts/dock_solv.prm

>  <Rbt.Receptor>
prm/pocket_docking_4.prm

>  <SCORE>
-15.9547

>  <SCORE.INTER>
-13.5601

>  <SCORE.INTER.CONST>
1

>  <SCORE.INTER.POLAR>
0

>  <SCORE.INTER.ROT>
7

>  <SCORE.INTER.SOLV>
18.2323

>  <SCORE.INTER.VDW>
-23.3841

>  <SCORE.INTER.norm>
-0.521541

>  <SCORE.INTRA>
-2.39466

>  <SCORE.INTRA.DIHEDRAL>
0.314317

>  <SCORE.INTRA.DIHEDRAL.0>
5.78979

>  <SCORE.INTRA.POLAR>
0

>  <SCORE.INTRA.POLAR.0>
0

>  <SCORE.INTRA.REPUL>
0

>  <SCORE.INTRA.REPUL.0>
0

>  <SCORE.INTRA.SOLV>
-0.548463

>  <SCORE.INTRA.SOLV.lig_0>
-49.9151

>  <SCORE.INTRA.VDW>
-2.27759

>  <SCORE.INTRA.VDW.0>
-0.211125

>  <SCORE.INTRA.norm>
-0.0921024

>  <SCORE.RESTR>
0

>  <SCORE.RESTR.CAVITY>
0

>  <SCORE.RESTR.norm>
0

>  <SCORE.SYSTEM>
0

>  <SCORE.SYSTEM.CONST>
0

>  <SCORE.SYSTEM.DIHEDRAL>
0

>  <SCORE.SYSTEM.SOLV>
0

>  <SCORE.SYSTEM.norm>
0

>  <SCORE.heavy>
26

>  <SCORE.norm>
-0.613643

>  <RMSD>
1.712

$$$$
ligand
 OpenBabel11021811483D
libRbt.so/2013.1/901 2013/11/27
 26 28  0  0  0  0  0  0  0  0999 V2000
   45.9147   56.2987   27.4386 N   0  0  0  0  0  0  0  0  0  0  0  0
   47.2423   56.0429   28.0042 C   0  0  2  0  0  0  0  0  0  0  0  0
   48.4019   56.4556   27.0949 C   0  0  0  0  0  0  0  0  0  0  0  0
   48.1870   56.5504   25.8863 O   0  0  0  0  0  0  0  0  0  0  0  0
   47.4991   54.5884   28.4194 C   0  0  0  0  0  0  0  0  0  0  0  0
   46.5935   53.8859   29.4159 C   0  0  0  0  0  0  0  0  0  0  0  0
   46.6867   54.8342   30.9520 S   0  0  0  0  0  0  0  0  0  0  0  0
   47.8898   53.6079   31.5177 C   0  0  0  0  0  0  0  0  0  0  0  0
   48.6327   53.9939   32.8013 C   0  0  1  0  0  0  0  0  0  0  0  0
   49.4386   55.1688   32.6555 O   0  0  0  0  0  0  0  0  0  0  0  0
   47.6529   54.2605   33.9347 C   0  0  1  0  0  0  0  0  0  0  0  0
   47.4197   53.0972   34.6975 O   0  0  0  0  0  0  0  0  0  0  0  0
   48.2935   55.3861   34.7364 C   0  0  1  0  0  0  0  0  0  0  0  0
   49.1050   54.8866   35.7803 O   0  0  0  0  0  0  0  0  0  0  0  0
   49.2012   56.0644   33.7293 C   0  0  2  0  0  0  0  0  0  0  0  0
   49.5346   56.7103   27.5227 O   0  0  0  0  0  0  0  0  0  0  0  0
   44.8504   58.7034   32.4160 N   0  0  0  0  0  0  0  0  0  0  0  0
   44.9580   57.4073   32.8532 C   0  0  0  0  0  0  0  0  0  0  0  0
   46.1998   56.8773   33.1345 N   0  0  0  0  0  0  0  0  0  0  0  0
   47.3146   57.6210   33.0225 C   0  0  0  0  0  0  0  0  0  0  0  0
   47.2275   58.9315   32.5846 C   0  0  0  0  0  0  0  0  0  0  0  0
   45.9881   59.4592   32.2817 C   0  0  0  0  0  0  0  0  0  0  0  0
   45.8804   60.7091   31.8747 N   0  0  0  0  0  0  0  0  0  0  0  0
   48.4739   59.4539   32.5569 N   0  0  0  0  0  0  0  0  0  0  0  0
   49.3464   58.4897   32.9447 C   0  0  0  0  0  0  0  0  0  0  0  0
   48.6393   57.3446   33.2395 N   0  0  0  0  0  0  0  0  0  0  0  0
  2  1  1  6  0  0  0
  2  3  1  0  0  0  0
  2  5  1  0  0  0  0
  3  4  1  0  0  0  0
  3 16  1  0  0  0  0
  5  6  1  0  0  0  0
  6  7  1  0  0  0  0
  7  8  1  0  0  0  0
  9  8  1  6  0  0  0
  9 10  1  0  0  0  0
  9 11  1  0  0  0  0
 10 15  1  0  0  0  0
 11 12  1  1  0  0  0
 11 13  1  0  0  0  0
 13 14  1  1  0  0  0
 13 15  1  0  0  0  0
 15 26  1  6  0  0  0
 17 18  2  0  0  0  0
 17 22  1  0  0  0  0
 18 19  1  0  0  0  0
 19 20  2  0  0  0  0
 20 21  1  0  0  0  0
 20 26  1  0  0  0  0
 21 22  2  0  0  0  0
 21 24  1  0  0  0  0
 22 23  1  0  0  0  0
 24 25  2  0  0  0  0
 25 26  1  0  0  0  0
M  END
>  <CHROM.1>
-22.33873112,-56.92499659,-60.41226038,-98.29039928,168.86229066,-63.23309436
86.67370366,47.55244398,56.27411688,31.53689632,1.76377081,1.29961157,-1.72579200

>  <Name>
ligand

>  <RI>
0

>  <Rbt.Current_Directory>
/home/itssahil/PROJECTS/Mol_Feturizer/New_Systems/rnas/3GX3

>  <Rbt.Executable>
rbdock ($Id: //depot/dev/client3/rdock/2013.1/src/exe/rbdock.cxx#4 $)

>  <Rbt.Library>
libRbt.so (2013.1, Build901 2013/11/27)

>  <Rbt.Parameter_File>
/export/apps/rDock/src/rDock_2013.1_src/data/scripts/dock_solv.prm

>  <Rbt.Receptor>
prm/pocket_docking_3.prm

>  <SCORE>
-14.9593

>  <SCORE.INTER>
-11.3981

>  <SCORE.INTER.CONST>
1

>  <SCORE.INTER.POLAR>
0

>  <SCORE.INTER.ROT>
7

>  <SCORE.INTER.SOLV>
16.2265

>  <SCORE.INTER.VDW>
-21.2743

>  <SCORE.INTER.norm>
-0.43839

>  <SCORE.INTRA>
-3.56112

>  <SCORE.INTRA.DIHEDRAL>
-0.935513

>  <SCORE.INTRA.DIHEDRAL.0>
5.78979

>  <SCORE.INTRA.POLAR>
0

>  <SCORE.INTRA.POLAR.0>
0

>  <SCORE.INTRA.REPUL>
0

>  <SCORE.INTRA.REPUL.0>
0

>  <SCORE.INTRA.SOLV>
0.509043

>  <SCORE.INTRA.SOLV.lig_0>
-49.9151

>  <SCORE.INTRA.VDW>
-3.34788

>  <SCORE.INTRA.VDW.0>
-0.211125

>  <SCORE.INTRA.norm>
-0.136966

>  <SCORE.RESTR>
0

>  <SCORE.RESTR.CAVITY>
0

>  <SCORE.RESTR.norm>
0

>  <SCORE.SYSTEM>
0

>  <SCORE.SYSTEM.CONST>
0

>  <SCORE.SYSTEM.DIHEDRAL>
0

>  <SCORE.SYSTEM.SOLV>
0

>  <SCORE.SYSTEM.norm>
0

>  <SCORE.heavy>
26

>  <SCORE.norm>
-0.575356

>  <RMSD>
1.719

$$$$
ligand
 OpenBabel11021811483D
libRbt.so/2013.1/901 2013/11/27
 26 28  0  0  0  0  0  0  0  0999 V2000
   50.9661   55.4775   26.9872 N   0  0  0  0  0  0  0  0  0  0  0  0
   50.0347   55.0332   28.0278 C   0  0  2  0  0  0  0  0  0  0  0  0
   48.5657   55.0383   27.5990 C   0  0  0  0  0  0  0  0  0  0  0  0
   47.9255   53.9920   27.7064 O   0  0  0  0  0  0  0  0  0  0  0  0
   50.1157   55.8154   29.3451 C   0  0  0  0  0  0  0  0  0  0  0  0
   49.7690   55.1584   30.6698 C   0  0  0  0  0  0  0  0  0  0  0  0
   47.9855   54.8646   30.6462 S   0  0  0  0  0  0  0  0  0  0  0  0
   48.3119   53.4187   31.6827 C   0  0  0  0  0  0  0  0  0  0  0  0
   48.5832   53.7429   33.1556 C   0  0  1  0  0  0  0  0  0  0  0  0
   49.4117   54.8970   33.3363 O   0  0  0  0  0  0  0  0  0  0  0  0
   47.2824   54.0040   33.9012 C   0  0  1  0  0  0  0  0  0  0  0  0
   46.7841   52.8255   34.4946 O   0  0  0  0  0  0  0  0  0  0  0  0
   47.6339   55.0849   34.9152 C   0  0  1  0  0  0  0  0  0  0  0  0
   48.0351   54.5297   36.1515 O   0  0  0  0  0  0  0  0  0  0  0  0
   48.8409   55.7661   34.3008 C   0  0  2  0  0  0  0  0  0  0  0  0
   47.9948   56.0468   27.1655 O   0  0  0  0  0  0  0  0  0  0  0  0
   45.0581   58.7691   32.2296 N   0  0  0  0  0  0  0  0  0  0  0  0
   44.9593   57.4850   32.7026 C   0  0  0  0  0  0  0  0  0  0  0  0
   46.0772   56.8466   33.1974 N   0  0  0  0  0  0  0  0  0  0  0  0
   47.2653   57.4735   33.2597 C   0  0  0  0  0  0  0  0  0  0  0  0
   47.3857   58.7700   32.7892 C   0  0  0  0  0  0  0  0  0  0  0  0
   46.2734   59.4051   32.2735 C   0  0  0  0  0  0  0  0  0  0  0  0
   46.3624   60.6444   31.8311 N   0  0  0  0  0  0  0  0  0  0  0  0
   48.6664   59.1669   32.9606 N   0  0  0  0  0  0  0  0  0  0  0  0
   49.3601   58.1365   33.5067 C   0  0  0  0  0  0  0  0  0  0  0  0
   48.5010   57.0769   33.7003 N   0  0  0  0  0  0  0  0  0  0  0  0
  2  1  1  6  0  0  0
  2  3  1  0  0  0  0
  2  5  1  0  0  0  0
  3  4  1  0  0  0  0
  3 16  1  0  0  0  0
  5  6  1  0  0  0  0
  6  7  1  0  0  0  0
  7  8  1  0  0  0  0
  9  8  1  6  0  0  0
  9 10  1  0  0  0  0
  9 11  1  0  0  0  0
 10 15  1  0  0  0  0
 11 12  1  1  0  0  0
 11 13  1  0  0  0  0
 13 14  1  1  0  0  0
 13 15  1  0  0  0  0
 15 26  1  6  0  0  0
 17 18  2  0  0  0  0
 17 22  1  0  0  0  0
 18 19  1  0  0  0  0
 19 20  2  0  0  0  0
 20 21  1  0  0  0  0
 20 26  1  0  0  0  0
 21 22  2  0  0  0  0
 21 24  1  0  0  0  0
 22 23  1  0  0  0  0
 24 25  2  0  0  0  0
 25 26  1  0  0  0  0
M  END
>  <CHROM.1>
124.59022917,-150.79893057,-69.10416797,148.96412080,77.37971085,-41.09314218
98.31510718,48.02191915,55.99566898,31.78726347,0.67693625,1.17520290,-0.97496255

>  <Name>
ligand

>  <RI>
0

>  <Rbt.Current_Directory>
/home/itssahil/PROJECTS/Mol_Feturizer/New_Systems/rnas/3GX3

>  <Rbt.Executable>
rbdock ($Id: //depot/dev/client3/rdock/2013.1/src/exe/rbdock.cxx#4 $)

>  <Rbt.Library>
libRbt.so (2013.1, Build901 2013/11/27)

>  <Rbt.Parameter_File>
/export/apps/rDock/src/rDock_2013.1_src/data/scripts/dock_solv.prm

>  <Rbt.Receptor>
prm/pocket_docking_3.prm

>  <SCORE>
-10.9321

>  <SCORE.INTER>
-9.23604

>  <SCORE.INTER.CONST>
1

>  <SCORE.INTER.POLAR>
0

>  <SCORE.INTER.ROT>
7

>  <SCORE.INTER.SOLV>
17.0043

>  <SCORE.INTER.VDW>
-20.0921

>  <SCORE.INTER.norm>
-0.355232

>  <SCORE.INTRA>
-1.69607

>  <SCORE.INTRA.DIHEDRAL>
2.86904

>  <SCORE.INTRA.DIHEDRAL.0>
5.78979

>  <SCORE.INTRA.POLAR>
0

>  <SCORE.INTRA.POLAR.0>
0

>  <SCORE.INTRA.REPUL>
0

>  <SCORE.INTRA.REPUL.0>
0

>  <SCORE.INTRA.SOLV>
-0.479282

>  <SCORE.INTRA.SOLV.lig_0>
-49.9151

>  <SCORE.INTRA.VDW>
-2.89095

>  <SCORE.INTRA.VDW.0>
-0.211125

>  <SCORE.INTRA.norm>
-0.0652334

>  <SCORE.RESTR>
0

>  <SCORE.RESTR.CAVITY>
0

>  <SCORE.RESTR.norm>
0

>  <SCORE.SYSTEM>
0

>  <SCORE.SYSTEM.CONST>
0

>  <SCORE.SYSTEM.DIHEDRAL>
0

>  <SCORE.SYSTEM.SOLV>
0

>  <SCORE.SYSTEM.norm>
0

>  <SCORE.heavy>
26

>  <SCORE.norm>
-0.420466

>  <RMSD>
1.729

$$$$
ligand
 OpenBabel11021811483D
libRbt.so/2013.1/901 2013/11/27
 26 28  0  0  0  0  0  0  0  0999 V2000
   47.3976   56.3880   26.7747 N   0  0  0  0  0  0  0  0  0  0  0  0
   47.2081   55.7236   28.0671 C   0  0  2  0  0  0  0  0  0  0  0  0
   48.2088   56.1486   29.1440 C   0  0  0  0  0  0  0  0  0  0  0  0
   47.7753   56.4290   30.2618 O   0  0  0  0  0  0  0  0  0  0  0  0
   47.2346   54.1905   28.0162 C   0  0  0  0  0  0  0  0  0  0  0  0
   47.0178   53.3604   29.2694 C   0  0  0  0  0  0  0  0  0  0  0  0
   48.5982   53.3318   30.1464 S   0  0  0  0  0  0  0  0  0  0  0  0
   47.6460   53.5824   31.6635 C   0  0  0  0  0  0  0  0  0  0  0  0
   48.4903   53.9493   32.8886 C   0  0  1  0  0  0  0  0  0  0  0  0
   49.3352   55.0852   32.6722 O   0  0  0  0  0  0  0  0  0  0  0  0
   47.6021   54.2723   34.0814 C   0  0  1  0  0  0  0  0  0  0  0  0
   47.3703   53.1293   34.8747 O   0  0  0  0  0  0  0  0  0  0  0  0
   48.3443   55.3771   34.8220 C   0  0  1  0  0  0  0  0  0  0  0  0
   49.2019   54.8537   35.8161 O   0  0  0  0  0  0  0  0  0  0  0  0
   49.2106   56.0027   33.7466 C   0  0  2  0  0  0  0  0  0  0  0  0
   49.4284   56.2077   28.9435 O   0  0  0  0  0  0  0  0  0  0  0  0
   44.9376   58.6812   32.2683 N   0  0  0  0  0  0  0  0  0  0  0  0
   45.0249   57.3676   32.6548 C   0  0  0  0  0  0  0  0  0  0  0  0
   46.2491   56.8302   32.9932 N   0  0  0  0  0  0  0  0  0  0  0  0
   47.3641   57.5820   32.9866 C   0  0  0  0  0  0  0  0  0  0  0  0
   47.2972   58.9102   32.6015 C   0  0  0  0  0  0  0  0  0  0  0  0
   46.0767   59.4462   32.2416 C   0  0  0  0  0  0  0  0  0  0  0  0
   45.9878   60.7124   31.8832 N   0  0  0  0  0  0  0  0  0  0  0  0
   48.5394   59.4377   32.6779 N   0  0  0  0  0  0  0  0  0  0  0  0
   49.3910   58.4605   33.0794 C   0  0  0  0  0  0  0  0  0  0  0  0
   48.6736   57.3011   33.2773 N   0  0  0  0  0  0  0  0  0  0  0  0
  2  1  1  6  0  0  0
  2  3  1  0  0  0  0
  2  5  1  0  0  0  0
  3  4  1  0  0  0  0
  3 16  1  0  0  0  0
  5  6  1  0  0  0  0
  6  7  1  0  0  0  0
  7  8  1  0  0  0  0
  9  8  1  6  0  0  0
  9 10  1  0  0  0  0
  9 11  1  0  0  0  0
 10 15  1  0  0  0  0
 11 12  1  1  0  0  0
 11 13  1  0  0  0  0
 13 14  1  1  0  0  0
 13 15  1  0  0  0  0
 15 26  1  6  0  0  0
 17 18  2  0  0  0  0
 17 22  1  0  0  0  0
 18 19  1  0  0  0  0
 19 20  2  0  0  0  0
 20 21  1  0  0  0  0
 20 26  1  0  0  0  0
 21 22  2  0  0  0  0
 21 24  1  0  0  0  0
 22 23  1  0  0  0  0
 24 25  2  0  0  0  0
 25 26  1  0  0  0  0
M  END
>  <CHROM.1>
133.09437163,-178.46149116,-80.75839093,137.64221654,-167.87861032,54.11170743
77.93793572,47.75452313,56.04973878,31.75605753,1.34132860,1.26881252,-1.89627196

>  <Name>
ligand

>  <RI>
0

>  <Rbt.Current_Directory>
/home/itssahil/PROJECTS/Mol_Feturizer/New_Systems/rnas/3GX3

>  <Rbt.Executable>
rbdock ($Id: //depot/dev/client3/rdock/2013.1/src/exe/rbdock.cxx#4 $)

>  <Rbt.Library>
libRbt.so (2013.1, Build901 2013/11/27)

>  <Rbt.Parameter_File>
/export/apps/rDock/src/rDock_2013.1_src/data/scripts/dock_solv.prm

>  <Rbt.Receptor>
prm/pocket_docking_4.prm

>  <SCORE>
-15.6318

>  <SCORE.INTER>
-11.0715

>  <SCORE.INTER.CONST>
1

>  <SCORE.INTER.POLAR>
0

>  <SCORE.INTER.ROT>
7

>  <SCORE.INTER.SOLV>
15.3969

>  <SCORE.INTER.VDW>
-20.78

>  <SCORE.INTER.norm>
-0.425828

>  <SCORE.INTRA>
-4.56025

>  <SCORE.INTRA.DIHEDRAL>
0.807371

>  <SCORE.INTRA.DIHEDRAL.0>
5.78979

>  <SCORE.INTRA.POLAR>
0

>  <SCORE.INTRA.POLAR.0>
0

>  <SCORE.INTRA.REPUL>
0

>  <SCORE.INTRA.REPUL.0>
0

>  <SCORE.INTRA.SOLV>
-0.829753

>  <SCORE.INTRA.SOLV.lig_0>
-49.9151

>  <SCORE.INTRA.VDW>
-4.54906

>  <SCORE.INTRA.VDW.0>
-0.211125

>  <SCORE.INTRA.norm>
-0.175394

>  <SCORE.RESTR>
0

>  <SCORE.RESTR.CAVITY>
0

>  <SCORE.RESTR.norm>
0

>  <SCORE.SYSTEM>
0

>  <SCORE.SYSTEM.CONST>
0

>  <SCORE.SYSTEM.DIHEDRAL>
0

>  <SCORE.SYSTEM.SOLV>
0

>  <SCORE.SYSTEM.norm>
0

>  <SCORE.heavy>
26

>  <SCORE.norm>
-0.601222

>  <RMSD>
1.738

$$$$
ligand
 OpenBabel11021811483D
libRbt.so/2013.1/901 2013/11/27
 26 28  0  0  0  0  0  0  0  0999 V2000
   47.3687   56.7570   28.1446 N   0  0  0  0  0  0  0  0  0  0  0  0
   48.2429   55.7198   27.5898 C   0  0  2  0  0  0  0  0  0  0  0  0
   48.2840   55.6860   26.0604 C   0  0  0  0  0  0  0  0  0  0  0  0
   47.3001   56.0952   25.4436 O   0  0  0  0  0  0  0  0  0  0  0  0
   47.9305   54.2924   28.0575 C   0  0  0  0  0  0  0  0  0  0  0  0
   48.0812   53.8944   29.5154 C   0  0  0  0  0  0  0  0  0  0  0  0
   49.8568   53.8135   29.8449 S   0  0  0  0  0  0  0  0  0  0  0  0
   49.7230   55.5185   30.4333 C   0  0  0  0  0  0  0  0  0  0  0  0
   49.7005   55.6628   31.9587 C   0  0  1  0  0  0  0  0  0  0  0  0
   49.8530   57.0167   32.4000 O   0  0  0  0  0  0  0  0  0  0  0  0
   48.3873   55.1500   32.5318 C   0  0  1  0  0  0  0  0  0  0  0  0
   48.4808   53.7905   32.8957 O   0  0  0  0  0  0  0  0  0  0  0  0
   48.1008   56.0694   33.7120 C   0  0  1  0  0  0  0  0  0  0  0  0
   48.6332   55.5542   34.9157 O   0  0  0  0  0  0  0  0  0  0  0  0
   48.8676   57.3317   33.3702 C   0  0  2  0  0  0  0  0  0  0  0  0
   49.2638   55.2810   25.4224 O   0  0  0  0  0  0  0  0  0  0  0  0
   43.9528   58.7233   32.1346 N   0  0  0  0  0  0  0  0  0  0  0  0
   44.4066   57.5028   32.5670 C   0  0  0  0  0  0  0  0  0  0  0  0
   45.7487   57.3207   32.8266 N   0  0  0  0  0  0  0  0  0  0  0  0
   46.6252   58.3325   32.6981 C   0  0  0  0  0  0  0  0  0  0  0  0
   46.1874   59.5724   32.2648 C   0  0  0  0  0  0  0  0  0  0  0  0
   44.8477   59.7528   31.9835 C   0  0  0  0  0  0  0  0  0  0  0  0
   44.4066   60.9289   31.5812 N   0  0  0  0  0  0  0  0  0  0  0  0
   47.2506   60.4058   32.2178 N   0  0  0  0  0  0  0  0  0  0  0  0
   48.3533   59.7074   32.5890 C   0  0  0  0  0  0  0  0  0  0  0  0
   47.9792   58.4167   32.8926 N   0  0  0  0  0  0  0  0  0  0  0  0
  2  1  1  6  0  0  0
  2  3  1  0  0  0  0
  2  5  1  0  0  0  0
  3  4  1  0  0  0  0
  3 16  1  0  0  0  0
  5  6  1  0  0  0  0
  6  7  1  0  0  0  0
  7  8  1  0  0  0  0
  9  8  1  6  0  0  0
  9 10  1  0  0  0  0
  9 11  1  0  0  0  0
 10 15  1  0  0  0  0
 11 12  1  1  0  0  0
 11 13  1  0  0  0  0
 13 14  1  1  0  0  0
 13 15  1  0  0  0  0
 15 26  1  6  0  0  0
 17 18  2  0  0  0  0
 17 22  1  0  0  0  0
 18 19  1  0  0  0  0
 19 20  2  0  0  0  0
 20 21  1  0  0  0  0
 20 26  1  0  0  0  0
 21 22  2  0  0  0  0
 21 24  1  0  0  0  0
 22 23  1  0  0  0  0
 24 25  2  0  0  0  0
 25 26  1  0  0  0  0
M  END
>  <CHROM.1>
-27.13251046,-64.32743349,-72.31543717,94.41603314,101.79034592,168.70622410
118.86798693,47.76945514,56.63741746,30.90280135,0.99652549,0.88374301,-1.73507264

>  <Name>
ligand

>  <RI>
0

>  <Rbt.Current_Directory>
/home/itssahil/PROJECTS/Mol_Feturizer/New_Systems/rnas/3GX3

>  <Rbt.Executable>
rbdock ($Id: //depot/dev/client3/rdock/2013.1/src/exe/rbdock.cxx#4 $)

>  <Rbt.Library>
libRbt.so (2013.1, Build901 2013/11/27)

>  <Rbt.Parameter_File>
/export/apps/rDock/src/rDock_2013.1_src/data/scripts/dock_solv.prm

>  <Rbt.Receptor>
prm/pocket_docking_5.prm

>  <SCORE>
-13.8746

>  <SCORE.INTER>
-13.0957

>  <SCORE.INTER.CONST>
1

>  <SCORE.INTER.POLAR>
0

>  <SCORE.INTER.ROT>
7

>  <SCORE.INTER.SOLV>
17.1404

>  <SCORE.INTER.VDW>
-22.7106

>  <SCORE.INTER.norm>
-0.503679

>  <SCORE.INTRA>
-0.778922

>  <SCORE.INTRA.DIHEDRAL>
1.51763

>  <SCORE.INTRA.DIHEDRAL.0>
5.78979

>  <SCORE.INTRA.POLAR>
0

>  <SCORE.INTRA.POLAR.0>
0

>  <SCORE.INTRA.REPUL>
0

>  <SCORE.INTRA.REPUL.0>
0

>  <SCORE.INTRA.SOLV>
1.05902

>  <SCORE.INTRA.SOLV.lig_0>
-49.9151

>  <SCORE.INTRA.VDW>
-2.06725

>  <SCORE.INTRA.VDW.0>
-0.211125

>  <SCORE.INTRA.norm>
-0.0299585

>  <SCORE.RESTR>
0

>  <SCORE.RESTR.CAVITY>
0

>  <SCORE.RESTR.norm>
0

>  <SCORE.SYSTEM>
0

>  <SCORE.SYSTEM.CONST>
0

>  <SCORE.SYSTEM.DIHEDRAL>
0

>  <SCORE.SYSTEM.SOLV>
0

>  <SCORE.SYSTEM.norm>
0

>  <SCORE.heavy>
26

>  <SCORE.norm>
-0.533637

>  <RMSD>
1.769

$$$$
ligand
 OpenBabel11021811483D
libRbt.so/2013.1/901 2013/11/27
 26 28  0  0  0  0  0  0  0  0999 V2000
   49.4966   55.0316   27.5653 N   0  0  0  0  0  0  0  0  0  0  0  0
   48.3735   55.8888   27.9543 C   0  0  2  0  0  0  0  0  0  0  0  0
   48.6396   56.7486   29.1920 C   0  0  0  0  0  0  0  0  0  0  0  0
   49.5099   56.3784   29.9803 O   0  0  0  0  0  0  0  0  0  0  0  0
   47.0517   55.1504   28.2022 C   0  0  0  0  0  0  0  0  0  0  0  0
   46.9404   54.0806   29.2745 C   0  0  0  0  0  0  0  0  0  0  0  0
   46.7870   54.9490   30.8524 S   0  0  0  0  0  0  0  0  0  0  0  0
   47.7576   53.6032   31.5722 C   0  0  0  0  0  0  0  0  0  0  0  0
   48.5522   53.9934   32.8231 C   0  0  1  0  0  0  0  0  0  0  0  0
   49.3685   55.1548   32.6339 O   0  0  0  0  0  0  0  0  0  0  0  0
   47.6182   54.2872   33.9881 C   0  0  1  0  0  0  0  0  0  0  0  0
   47.3968   53.1364   34.7730 O   0  0  0  0  0  0  0  0  0  0  0  0
   48.3033   55.4128   34.7523 C   0  0  1  0  0  0  0  0  0  0  0  0
   49.1453   54.9138   35.7719 O   0  0  0  0  0  0  0  0  0  0  0  0
   49.1830   56.0661   33.7046 C   0  0  2  0  0  0  0  0  0  0  0  0
   48.0309   57.8006   29.4241 O   0  0  0  0  0  0  0  0  0  0  0  0
   44.8396   58.6919   32.3415 N   0  0  0  0  0  0  0  0  0  0  0  0
   44.9479   57.3912   32.7647 C   0  0  0  0  0  0  0  0  0  0  0  0
   46.1878   56.8662   33.0630 N   0  0  0  0  0  0  0  0  0  0  0  0
   47.2994   57.6187   32.9813 C   0  0  0  0  0  0  0  0  0  0  0  0
   47.2114   58.9339   32.5581 C   0  0  0  0  0  0  0  0  0  0  0  0
   45.9743   59.4569   32.2382 C   0  0  0  0  0  0  0  0  0  0  0  0
   45.8656   60.7111   31.8446 N   0  0  0  0  0  0  0  0  0  0  0  0
   48.4544   59.4650   32.5605 N   0  0  0  0  0  0  0  0  0  0  0  0
   49.3261   58.5019   32.9529 C   0  0  0  0  0  0  0  0  0  0  0  0
   48.6216   57.3485   33.2200 N   0  0  0  0  0  0  0  0  0  0  0  0
  2  1  1  1  0  0  0
  2  3  1  0  0  0  0
  2  5  1  0  0  0  0
  3  4  1  0  0  0  0
  3 16  1  0  0  0  0
  5  6  1  0  0  0  0
  6  7  1  0  0  0  0
  7  8  1  0  0  0  0
  9  8  1  6  0  0  0
  9 10  1  0  0  0  0
  9 11  1  0  0  0  0
 10 15  1  0  0  0  0
 11 12  1  1  0  0  0
 11 13  1  0  0  0  0
 13 14  1  1  0  0  0
 13 15  1  0  0  0  0
 15 26  1  6  0  0  0
 17 18  2  0  0  0  0
 17 22  1  0  0  0  0
 18 19  1  0  0  0  0
 19 20  2  0  0  0  0
 20 21  1  0  0  0  0
 20 26  1  0  0  0  0
 21 22  2  0  0  0  0
 21 24  1  0  0  0  0
 22 23  1  0  0  0  0
 24 25  2  0  0  0  0
 25 26  1  0  0  0  0
M  END
>  <CHROM.1>
-22.83803157,60.19153270,78.49031616,-144.72393187,153.55289062,-52.17352854
83.00448757,47.71339204,56.31162427,31.83364951,-1.36852228,-1.26343237,1.64264160

>  <Name>
ligand

>  <RI>
0

>  <Rbt.Current_Directory>
/home/itssahil/PROJECTS/Mol_Feturizer/New_Systems/rnas/3GX3

>  <Rbt.Executable>
rbdock ($Id: //depot/dev/client3/rdock/2013.1/src/exe/rbdock.cxx#4 $)

>  <Rbt.Library>
libRbt.so (2013.1, Build901 2013/11/27)

>  <Rbt.Parameter_File>
/export/apps/rDock/src/rDock_2013.1_src/data/scripts/dock_solv.prm

>  <Rbt.Receptor>
prm/pocket_docking_3.prm

>  <SCORE>
-16.3861

>  <SCORE.INTER>
-11.3025

>  <SCORE.INTER.CONST>
1

>  <SCORE.INTER.POLAR>
0

>  <SCORE.INTER.ROT>
7

>  <SCORE.INTER.SOLV>
13.3876

>  <SCORE.INTER.VDW>
-20.2642

>  <SCORE.INTER.norm>
-0.43471

>  <SCORE.INTRA>
-5.08368

>  <SCORE.INTRA.DIHEDRAL>
1.01364

>  <SCORE.INTRA.DIHEDRAL.0>
5.78979

>  <SCORE.INTRA.POLAR>
0

>  <SCORE.INTRA.POLAR.0>
0

>  <SCORE.INTRA.REPUL>
0

>  <SCORE.INTRA.REPUL.0>
0

>  <SCORE.INTRA.SOLV>
0.426636

>  <SCORE.INTRA.SOLV.lig_0>
-49.9151

>  <SCORE.INTRA.VDW>
-5.80381

>  <SCORE.INTRA.VDW.0>
-0.211125

>  <SCORE.INTRA.norm>
-0.195526

>  <SCORE.RESTR>
0

>  <SCORE.RESTR.CAVITY>
0

>  <SCORE.RESTR.norm>
0

>  <SCORE.SYSTEM>
0

>  <SCORE.SYSTEM.CONST>
0

>  <SCORE.SYSTEM.DIHEDRAL>
0

>  <SCORE.SYSTEM.SOLV>
0

>  <SCORE.SYSTEM.norm>
0

>  <SCORE.heavy>
26

>  <SCORE.norm>
-0.630236

>  <RMSD>
1.805

$$$$
ligand
 OpenBabel11021811483D
libRbt.so/2013.1/901 2013/11/27
 26 28  0  0  0  0  0  0  0  0999 V2000
   49.8222   55.0258   28.1807 N   0  0  0  0  0  0  0  0  0  0  0  0
   48.7163   55.9848   28.2519 C   0  0  2  0  0  0  0  0  0  0  0  0
   48.7521   56.8937   29.4825 C   0  0  0  0  0  0  0  0  0  0  0  0
   47.9520   57.8280   29.5382 O   0  0  0  0  0  0  0  0  0  0  0  0
   47.3154   55.3615   28.2004 C   0  0  0  0  0  0  0  0  0  0  0  0
   46.9172   54.2478   29.1531 C   0  0  0  0  0  0  0  0  0  0  0  0
   46.7304   55.0081   30.7825 S   0  0  0  0  0  0  0  0  0  0  0  0
   47.7996   53.6903   31.4084 C   0  0  0  0  0  0  0  0  0  0  0  0
   48.5107   54.0223   32.7246 C   0  0  1  0  0  0  0  0  0  0  0  0
   49.3672   55.1663   32.6305 O   0  0  0  0  0  0  0  0  0  0  0  0
   47.5022   54.3073   33.8280 C   0  0  1  0  0  0  0  0  0  0  0  0
   47.1959   53.1406   34.5589 O   0  0  0  0  0  0  0  0  0  0  0  0
   48.1578   55.3913   34.6738 C   0  0  1  0  0  0  0  0  0  0  0  0
   48.9109   54.8404   35.7354 O   0  0  0  0  0  0  0  0  0  0  0  0
   49.1272   56.0508   33.7128 C   0  0  2  0  0  0  0  0  0  0  0  0
   49.5362   56.7210   30.4240 O   0  0  0  0  0  0  0  0  0  0  0  0
   44.9361   58.8822   32.2858 N   0  0  0  0  0  0  0  0  0  0  0  0
   44.9768   57.5744   32.6987 C   0  0  0  0  0  0  0  0  0  0  0  0
   46.1852   56.9912   33.0174 N   0  0  0  0  0  0  0  0  0  0  0  0
   47.3311   57.6932   32.9658 C   0  0  0  0  0  0  0  0  0  0  0  0
   47.3114   59.0147   32.5534 C   0  0  0  0  0  0  0  0  0  0  0  0
   46.1061   59.5960   32.2132 C   0  0  0  0  0  0  0  0  0  0  0  0
   46.0623   60.8571   31.8295 N   0  0  0  0  0  0  0  0  0  0  0  0
   48.5767   59.4889   32.5865 N   0  0  0  0  0  0  0  0  0  0  0  0
   49.3957   58.4840   32.9875 C   0  0  0  0  0  0  0  0  0  0  0  0
   48.6345   57.3614   33.2291 N   0  0  0  0  0  0  0  0  0  0  0  0
  2  1  1  1  0  0  0
  2  3  1  0  0  0  0
  2  5  1  0  0  0  0
  3  4  1  0  0  0  0
  3 16  1  0  0  0  0
  5  6  1  0  0  0  0
  6  7  1  0  0  0  0
  7  8  1  0  0  0  0
  9  8  1  6  0  0  0
  9 10  1  0  0  0  0
  9 11  1  0  0  0  0
 10 15  1  0  0  0  0
 11 12  1  1  0  0  0
 11 13  1  0  0  0  0
 13 14  1  1  0  0  0
 13 15  1  0  0  0  0
 15 26  1  6  0  0  0
 17 18  2  0  0  0  0
 17 22  1  0  0  0  0
 18 19  1  0  0  0  0
 19 20  2  0  0  0  0
 20 21  1  0  0  0  0
 20 26  1  0  0  0  0
 21 22  2  0  0  0  0
 21 24  1  0  0  0  0
 22 23  1  0  0  0  0
 24 25  2  0  0  0  0
 25 26  1  0  0  0  0
M  END
>  <CHROM.1>
171.61791312,52.83389771,72.01850897,-129.74933220,157.58844730,-60.32951363
86.37601441,47.74093170,56.38887315,31.85559485,0.35829911,1.29008629,-1.35836346

>  <Name>
ligand

>  <RI>
0

>  <Rbt.Current_Directory>
/home/itssahil/PROJECTS/Mol_Feturizer/New_Systems/rnas/3GX3

>  <Rbt.Executable>
rbdock ($Id: //depot/dev/client3/rdock/2013.1/src/exe/rbdock.cxx#4 $)

>  <Rbt.Library>
libRbt.so (2013.1, Build901 2013/11/27)

>  <Rbt.Parameter_File>
/export/apps/rDock/src/rDock_2013.1_src/data/scripts/dock_solv.prm

>  <Rbt.Receptor>
prm/pocket_docking_4.prm

>  <SCORE>
-15.999

>  <SCORE.INTER>
-10.8695

>  <SCORE.INTER.CONST>
1

>  <SCORE.INTER.POLAR>
0

>  <SCORE.INTER.ROT>
7

>  <SCORE.INTER.SOLV>
13.9562

>  <SCORE.INTER.VDW>
-20.165

>  <SCORE.INTER.norm>
-0.418056

>  <SCORE.INTRA>
-5.12952

>  <SCORE.INTRA.DIHEDRAL>
0.786926

>  <SCORE.INTRA.DIHEDRAL.0>
5.78979

>  <SCORE.INTRA.POLAR>
0

>  <SCORE.INTRA.POLAR.0>
0

>  <SCORE.INTRA.REPUL>
0

>  <SCORE.INTRA.REPUL.0>
0

>  <SCORE.INTRA.SOLV>
1.0552

>  <SCORE.INTRA.SOLV.lig_0>
-49.9151

>  <SCORE.INTRA.VDW>
-6.05059

>  <SCORE.INTRA.VDW.0>
-0.211125

>  <SCORE.INTRA.norm>
-0.197289

>  <SCORE.RESTR>
0

>  <SCORE.RESTR.CAVITY>
0

>  <SCORE.RESTR.norm>
0

>  <SCORE.SYSTEM>
0

>  <SCORE.SYSTEM.CONST>
0

>  <SCORE.SYSTEM.DIHEDRAL>
0

>  <SCORE.SYSTEM.SOLV>
0

>  <SCORE.SYSTEM.norm>
0

>  <SCORE.heavy>
26

>  <SCORE.norm>
-0.615345

>  <RMSD>
1.805

$$$$
ligand
 OpenBabel11021811483D
libRbt.so/2013.1/901 2013/11/27
 26 28  0  0  0  0  0  0  0  0999 V2000
   48.2763   53.8011   26.2454 N   0  0  0  0  0  0  0  0  0  0  0  0
   47.2007   54.7475   26.5539 C   0  0  2  0  0  0  0  0  0  0  0  0
   47.2482   56.0398   25.7359 C   0  0  0  0  0  0  0  0  0  0  0  0
   47.5856   55.9672   24.5539 O   0  0  0  0  0  0  0  0  0  0  0  0
   47.1042   55.1585   28.0289 C   0  0  0  0  0  0  0  0  0  0  0  0
   47.0180   54.1155   29.1295 C   0  0  0  0  0  0  0  0  0  0  0  0
   46.9204   55.0224   30.6901 S   0  0  0  0  0  0  0  0  0  0  0  0
   47.8659   53.6651   31.4216 C   0  0  0  0  0  0  0  0  0  0  0  0
   48.5857   54.0246   32.7258 C   0  0  1  0  0  0  0  0  0  0  0  0
   49.3990   55.1984   32.6166 O   0  0  0  0  0  0  0  0  0  0  0  0
   47.5855   54.2751   33.8451 C   0  0  1  0  0  0  0  0  0  0  0  0
   47.3331   53.0993   34.5821 O   0  0  0  0  0  0  0  0  0  0  0  0
   48.2153   55.3833   34.6790 C   0  0  1  0  0  0  0  0  0  0  0  0
   49.0047   54.8615   35.7289 O   0  0  0  0  0  0  0  0  0  0  0  0
   49.1448   56.0756   33.7017 C   0  0  2  0  0  0  0  0  0  0  0  0
   46.9496   57.1449   26.2056 O   0  0  0  0  0  0  0  0  0  0  0  0
   44.8328   58.7510   32.3354 N   0  0  0  0  0  0  0  0  0  0  0  0
   44.9271   57.4460   32.7484 C   0  0  0  0  0  0  0  0  0  0  0  0
   46.1606   56.9075   33.0495 N   0  0  0  0  0  0  0  0  0  0  0  0
   47.2792   57.6507   32.9805 C   0  0  0  0  0  0  0  0  0  0  0  0
   47.2053   58.9702   32.5677 C   0  0  0  0  0  0  0  0  0  0  0  0
   45.9748   59.5068   32.2450 C   0  0  0  0  0  0  0  0  0  0  0  0
   45.8795   60.7650   31.8613 N   0  0  0  0  0  0  0  0  0  0  0  0
   48.4530   59.4901   32.5816 N   0  0  0  0  0  0  0  0  0  0  0  0
   49.3138   58.5161   32.9710 C   0  0  0  0  0  0  0  0  0  0  0  0
   48.5976   57.3668   33.2245 N   0  0  0  0  0  0  0  0  0  0  0  0
  2  1  1  1  0  0  0
  2  3  1  0  0  0  0
  2  5  1  0  0  0  0
  3  4  1  0  0  0  0
  3 16  1  0  0  0  0
  5  6  1  0  0  0  0
  6  7  1  0  0  0  0
  7  8  1  0  0  0  0
  9  8  1  6  0  0  0
  9 10  1  0  0  0  0
  9 11  1  0  0  0  0
 10 15  1  0  0  0  0
 11 12  1  1  0  0  0
 11 13  1  0  0  0  0
 13 14  1  1  0  0  0
 13 15  1  0  0  0  0
 15 26  1  6  0  0  0
 17 18  2  0  0  0  0
 17 22  1  0  0  0  0
 18 19  1  0  0  0  0
 19 20  2  0  0  0  0
 20 21  1  0  0  0  0
 20 26  1  0  0  0  0
 21 22  2  0  0  0  0
 21 24  1  0  0  0  0
 22 23  1  0  0  0  0
 24 25  2  0  0  0  0
 25 26  1  0  0  0  0
M  END
>  <CHROM.1>
37.87294280,-53.04484701,-179.98506252,-146.09924311,159.25902396,-52.26270861
86.29026699,47.45949036,56.17955397,31.20505160,-1.77898141,-1.26518772,1.24157499

>  <Name>
ligand

>  <RI>
0

>  <Rbt.Current_Directory>
/home/itssahil/PROJECTS/Mol_Feturizer/New_Systems/rnas/3GX3

>  <Rbt.Executable>
rbdock ($Id: //depot/dev/client3/rdock/2013.1/src/exe/rbdock.cxx#4 $)

>  <Rbt.Library>
libRbt.so (2013.1, Build901 2013/11/27)

>  <Rbt.Parameter_File>
/export/apps/rDock/src/rDock_2013.1_src/data/scripts/dock_solv.prm

>  <Rbt.Receptor>
prm/pocket_docking_6.prm

>  <SCORE>
-15.5245

>  <SCORE.INTER>
-12.5677

>  <SCORE.INTER.CONST>
1

>  <SCORE.INTER.POLAR>
0

>  <SCORE.INTER.ROT>
7

>  <SCORE.INTER.SOLV>
13.6942

>  <SCORE.INTER.VDW>
-21.2099

>  <SCORE.INTER.norm>
-0.483374

>  <SCORE.INTRA>
-2.95682

>  <SCORE.INTRA.DIHEDRAL>
-0.503481

>  <SCORE.INTRA.DIHEDRAL.0>
5.78979

>  <SCORE.INTRA.POLAR>
0

>  <SCORE.INTRA.POLAR.0>
0

>  <SCORE.INTRA.REPUL>
0

>  <SCORE.INTRA.REPUL.0>
0

>  <SCORE.INTRA.SOLV>
-0.130242

>  <SCORE.INTRA.SOLV.lig_0>
-49.9151

>  <SCORE.INTRA.VDW>
-2.63996

>  <SCORE.INTRA.VDW.0>
-0.211125

>  <SCORE.INTRA.norm>
-0.113724

>  <SCORE.RESTR>
0

>  <SCORE.RESTR.CAVITY>
0

>  <SCORE.RESTR.norm>
0

>  <SCORE.SYSTEM>
0

>  <SCORE.SYSTEM.CONST>
0

>  <SCORE.SYSTEM.DIHEDRAL>
0

>  <SCORE.SYSTEM.SOLV>
0

>  <SCORE.SYSTEM.norm>
0

>  <SCORE.heavy>
26

>  <SCORE.norm>
-0.597097

>  <RMSD>
1.806

$$$$
ligand
 OpenBabel11021811483D
libRbt.so/2013.1/901 2013/11/27
 26 28  0  0  0  0  0  0  0  0999 V2000
   48.5343   58.6015   28.3847 N   0  0  0  0  0  0  0  0  0  0  0  0
   48.3292   57.1946   28.0292 C   0  0  2  0  0  0  0  0  0  0  0  0
   47.3132   56.9727   26.9065 C   0  0  0  0  0  0  0  0  0  0  0  0
   47.5964   56.1697   26.0170 O   0  0  0  0  0  0  0  0  0  0  0  0
   47.9100   56.2877   29.1934 C   0  0  0  0  0  0  0  0  0  0  0  0
   47.7958   54.7839   29.0142 C   0  0  0  0  0  0  0  0  0  0  0  0
   46.8813   54.1641   30.4450 S   0  0  0  0  0  0  0  0  0  0  0  0
   48.4854   53.7100   31.1465 C   0  0  0  0  0  0  0  0  0  0  0  0
   48.7218   54.2217   32.5715 C   0  0  1  0  0  0  0  0  0  0  0  0
   48.8086   55.6490   32.6516 O   0  0  0  0  0  0  0  0  0  0  0  0
   47.5935   53.7888   33.4965 C   0  0  1  0  0  0  0  0  0  0  0  0
   47.8923   52.5676   34.1359 O   0  0  0  0  0  0  0  0  0  0  0  0
   47.4288   54.9507   34.4676 C   0  0  1  0  0  0  0  0  0  0  0  0
   48.2193   54.7780   35.6264 O   0  0  0  0  0  0  0  0  0  0  0  0
   47.9857   56.1337   33.7001 C   0  0  2  0  0  0  0  0  0  0  0  0
   46.2206   57.5517   26.8637 O   0  0  0  0  0  0  0  0  0  0  0  0
   46.8660   60.5709   31.1165 N   0  0  0  0  0  0  0  0  0  0  0  0
   48.0995   60.0670   31.4437 C   0  0  0  0  0  0  0  0  0  0  0  0
   48.1947   58.8849   32.1477 N   0  0  0  0  0  0  0  0  0  0  0  0
   47.0957   58.1909   32.4929 C   0  0  0  0  0  0  0  0  0  0  0  0
   45.8418   58.6813   32.1706 C   0  0  0  0  0  0  0  0  0  0  0  0
   45.7417   59.8752   31.4843 C   0  0  0  0  0  0  0  0  0  0  0  0
   44.5577   60.3548   31.1562 N   0  0  0  0  0  0  0  0  0  0  0  0
   44.9147   57.8091   32.6255 N   0  0  0  0  0  0  0  0  0  0  0  0
   45.5602   56.7918   33.2501 C   0  0  0  0  0  0  0  0  0  0  0  0
   46.9176   57.0148   33.1736 N   0  0  0  0  0  0  0  0  0  0  0  0
  2  1  1  1  0  0  0
  2  3  1  0  0  0  0
  2  5  1  0  0  0  0
  3  4  1  0  0  0  0
  3 16  1  0  0  0  0
  5  6  1  0  0  0  0
  6  7  1  0  0  0  0
  7  8  1  0  0  0  0
  9  8  1  6  0  0  0
  9 10  1  0  0  0  0
  9 11  1  0  0  0  0
 10 15  1  0  0  0  0
 11 12  1  1  0  0  0
 11 13  1  0  0  0  0
 13 14  1  1  0  0  0
 13 15  1  0  0  0  0
 15 26  1  6  0  0  0
 17 18  2  0  0  0  0
 17 22  1  0  0  0  0
 18 19  1  0  0  0  0
 19 20  2  0  0  0  0
 20 21  1  0  0  0  0
 20 26  1  0  0  0  0
 21 22  2  0  0  0  0
 21 24  1  0  0  0  0
 22 23  1  0  0  0  0
 24 25  2  0  0  0  0
 25 26  1  0  0  0  0
M  END
>  <CHROM.1>
135.71197521,-173.79133988,-165.48008572,-99.12926246,128.54876421,-66.18903388
-61.17750472,47.29357236,56.56396145,31.23401845,-1.96901125,-1.27961406
1.76948404

>  <Name>
ligand

>  <RI>
0

>  <Rbt.Current_Directory>
/home/itssahil/PROJECTS/Mol_Feturizer/New_Systems/rnas/3GX3

>  <Rbt.Executable>
rbdock ($Id: //depot/dev/client3/rdock/2013.1/src/exe/rbdock.cxx#4 $)

>  <Rbt.Library>
libRbt.so (2013.1, Build901 2013/11/27)

>  <Rbt.Parameter_File>
/export/apps/rDock/src/rDock_2013.1_src/data/scripts/dock_solv.prm

>  <Rbt.Receptor>
prm/pocket_docking_2.prm

>  <SCORE>
-11.8234

>  <SCORE.INTER>
-9.31972

>  <SCORE.INTER.CONST>
1

>  <SCORE.INTER.POLAR>
0

>  <SCORE.INTER.ROT>
7

>  <SCORE.INTER.SOLV>
21.3741

>  <SCORE.INTER.VDW>
-21.6045

>  <SCORE.INTER.norm>
-0.358451

>  <SCORE.INTRA>
-2.53458

>  <SCORE.INTRA.DIHEDRAL>
2.05411

>  <SCORE.INTRA.DIHEDRAL.0>
5.78979

>  <SCORE.INTRA.POLAR>
0

>  <SCORE.INTRA.POLAR.0>
0

>  <SCORE.INTRA.REPUL>
0

>  <SCORE.INTRA.REPUL.0>
0

>  <SCORE.INTRA.SOLV>
-0.130606

>  <SCORE.INTRA.SOLV.lig_0>
-49.9151

>  <SCORE.INTRA.VDW>
-3.49633

>  <SCORE.INTRA.VDW.0>
-0.211125

>  <SCORE.INTRA.norm>
-0.0974839

>  <SCORE.RESTR>
0.0308541

>  <SCORE.RESTR.CAVITY>
0.0308541

>  <SCORE.RESTR.norm>
0.00118669

>  <SCORE.SYSTEM>
0

>  <SCORE.SYSTEM.CONST>
0

>  <SCORE.SYSTEM.DIHEDRAL>
0

>  <SCORE.SYSTEM.SOLV>
0

>  <SCORE.SYSTEM.norm>
0

>  <SCORE.heavy>
26

>  <SCORE.norm>
-0.454748

>  <RMSD>
1.917

$$$$
ligand
 OpenBabel11021811483D
libRbt.so/2013.1/901 2013/11/27
 26 28  0  0  0  0  0  0  0  0999 V2000
   47.8196   54.7215   27.0152 N   0  0  0  0  0  0  0  0  0  0  0  0
   48.2295   55.5257   28.1698 C   0  0  2  0  0  0  0  0  0  0  0  0
   49.1064   56.7291   27.8168 C   0  0  0  0  0  0  0  0  0  0  0  0
   48.6140   57.8539   27.9097 O   0  0  0  0  0  0  0  0  0  0  0  0
   48.9629   54.7493   29.2711 C   0  0  0  0  0  0  0  0  0  0  0  0
   48.2414   53.7098   30.1110 C   0  0  0  0  0  0  0  0  0  0  0  0
   47.0490   54.6095   31.1290 S   0  0  0  0  0  0  0  0  0  0  0  0
   47.2097   53.2644   32.3275 C   0  0  0  0  0  0  0  0  0  0  0  0
   48.1357   53.5748   33.5084 C   0  0  1  0  0  0  0  0  0  0  0  0
   49.1406   54.5467   33.1975 O   0  0  0  0  0  0  0  0  0  0  0  0
   47.3433   54.1124   34.6912 C   0  0  1  0  0  0  0  0  0  0  0  0
   46.9592   53.0756   35.5670 O   0  0  0  0  0  0  0  0  0  0  0  0
   48.2694   55.1336   35.3388 C   0  0  1  0  0  0  0  0  0  0  0  0
   49.0633   54.5493   36.3517 O   0  0  0  0  0  0  0  0  0  0  0  0
   49.1913   55.5419   34.2067 C   0  0  2  0  0  0  0  0  0  0  0  0
   50.2857   56.6203   27.4585 O   0  0  0  0  0  0  0  0  0  0  0  0
   45.3717   58.6785   32.4204 N   0  0  0  0  0  0  0  0  0  0  0  0
   45.2690   57.3856   32.8679 C   0  0  0  0  0  0  0  0  0  0  0  0
   46.3972   56.7105   33.2846 N   0  0  0  0  0  0  0  0  0  0  0  0
   47.6013   57.3091   33.2952 C   0  0  0  0  0  0  0  0  0  0  0  0
   47.7261   58.6138   32.8493 C   0  0  0  0  0  0  0  0  0  0  0  0
   46.6023   59.2860   32.4114 C   0  0  0  0  0  0  0  0  0  0  0  0
   46.6959   60.5336   31.9939 N   0  0  0  0  0  0  0  0  0  0  0  0
   49.0233   58.9779   32.9583 N   0  0  0  0  0  0  0  0  0  0  0  0
   49.7216   57.9191   33.4406 C   0  0  0  0  0  0  0  0  0  0  0  0
   48.8497   56.8744   33.6568 N   0  0  0  0  0  0  0  0  0  0  0  0
  2  1  1  6  0  0  0
  2  3  1  0  0  0  0
  2  5  1  0  0  0  0
  3  4  1  0  0  0  0
  3 16  1  0  0  0  0
  5  6  1  0  0  0  0
  6  7  1  0  0  0  0
  7  8  1  0  0  0  0
  9  8  1  6  0  0  0
  9 10  1  0  0  0  0
  9 11  1  0  0  0  0
 10 15  1  0  0  0  0
 11 12  1  1  0  0  0
 11 13  1  0  0  0  0
 13 14  1  1  0  0  0
 13 15  1  0  0  0  0
 15 26  1  6  0  0  0
 17 18  2  0  0  0  0
 17 22  1  0  0  0  0
 18 19  1  0  0  0  0
 19 20  2  0  0  0  0
 20 21  1  0  0  0  0
 20 26  1  0  0  0  0
 21 22  2  0  0  0  0
 21 24  1  0  0  0  0
 22 23  1  0  0  0  0
 24 25  2  0  0  0  0
 25 26  1  0  0  0  0
M  END
>  <CHROM.1>
108.51419223,-68.04315064,-67.84134460,-152.48963859,100.08575358,-26.43438547
73.72072602,47.94144507,56.04318483,31.98784829,-1.00096074,-1.37131467,2.31846784

>  <Name>
ligand

>  <RI>
0

>  <Rbt.Current_Directory>
/home/itssahil/PROJECTS/Mol_Feturizer/New_Systems/rnas/3GX3

>  <Rbt.Executable>
rbdock ($Id: //depot/dev/client3/rdock/2013.1/src/exe/rbdock.cxx#4 $)

>  <Rbt.Library>
libRbt.so (2013.1, Build901 2013/11/27)

>  <Rbt.Parameter_File>
/export/apps/rDock/src/rDock_2013.1_src/data/scripts/dock_solv.prm

>  <Rbt.Receptor>
prm/pocket_docking_3.prm

>  <SCORE>
-14.931

>  <SCORE.INTER>
-12.8199

>  <SCORE.INTER.CONST>
1

>  <SCORE.INTER.POLAR>
0

>  <SCORE.INTER.ROT>
7

>  <SCORE.INTER.SOLV>
14.7152

>  <SCORE.INTER.VDW>
-21.7183

>  <SCORE.INTER.norm>
-0.493072

>  <SCORE.INTRA>
-2.11805

>  <SCORE.INTRA.DIHEDRAL>
3.54873

>  <SCORE.INTRA.DIHEDRAL.0>
5.78979

>  <SCORE.INTRA.POLAR>
0

>  <SCORE.INTRA.POLAR.0>
0

>  <SCORE.INTRA.REPUL>
0

>  <SCORE.INTRA.REPUL.0>
0

>  <SCORE.INTRA.SOLV>
0.215692

>  <SCORE.INTRA.SOLV.lig_0>
-49.9151

>  <SCORE.INTRA.VDW>
-4.00026

>  <SCORE.INTRA.VDW.0>
-0.211125

>  <SCORE.INTRA.norm>
-0.0814635

>  <SCORE.RESTR>
0.00691665

>  <SCORE.RESTR.CAVITY>
0.00691665

>  <SCORE.RESTR.norm>
0.000266025

>  <SCORE.SYSTEM>
0

>  <SCORE.SYSTEM.CONST>
0

>  <SCORE.SYSTEM.DIHEDRAL>
0

>  <SCORE.SYSTEM.SOLV>
0

>  <SCORE.SYSTEM.norm>
0

>  <SCORE.heavy>
26

>  <SCORE.norm>
-0.57427

>  <RMSD>
1.930

$$$$
ligand
 OpenBabel11021811483D
libRbt.so/2013.1/901 2013/11/27
 26 28  0  0  0  0  0  0  0  0999 V2000
   46.2728   57.0537   28.8644 N   0  0  0  0  0  0  0  0  0  0  0  0
   47.6067   57.1628   28.2672 C   0  0  2  0  0  0  0  0  0  0  0  0
   47.6065   57.2248   26.7381 C   0  0  0  0  0  0  0  0  0  0  0  0
   48.3316   56.4412   26.1249 O   0  0  0  0  0  0  0  0  0  0  0  0
   48.5870   56.0524   28.6667 C   0  0  0  0  0  0  0  0  0  0  0  0
   48.9692   55.8293   30.1196 C   0  0  0  0  0  0  0  0  0  0  0  0
   49.9090   54.2860   30.1723 S   0  0  0  0  0  0  0  0  0  0  0  0
   48.6359   53.6669   31.2979 C   0  0  0  0  0  0  0  0  0  0  0  0
   48.8136   54.1016   32.7566 C   0  0  1  0  0  0  0  0  0  0  0  0
   48.9456   55.5193   32.9110 O   0  0  0  0  0  0  0  0  0  0  0  0
   47.6232   53.6680   33.5998 C   0  0  1  0  0  0  0  0  0  0  0  0
   47.8447   52.4077   34.1930 O   0  0  0  0  0  0  0  0  0  0  0  0
   47.4474   54.7882   34.6168 C   0  0  1  0  0  0  0  0  0  0  0  0
   48.1684   54.5316   35.8051 O   0  0  0  0  0  0  0  0  0  0  0  0
   48.0853   55.9844   33.9382 C   0  0  2  0  0  0  0  0  0  0  0  0
   46.9018   58.0142   26.0968 O   0  0  0  0  0  0  0  0  0  0  0  0
   47.2633   60.4646   31.3171 N   0  0  0  0  0  0  0  0  0  0  0  0
   48.4606   59.8845   31.6527 C   0  0  0  0  0  0  0  0  0  0  0  0
   48.4768   58.7043   32.3659 N   0  0  0  0  0  0  0  0  0  0  0  0
   47.3342   58.0854   32.7122 C   0  0  0  0  0  0  0  0  0  0  0  0
   46.1156   58.6534   32.3816 C   0  0  0  0  0  0  0  0  0  0  0  0
   46.0952   59.8459   31.6860 C   0  0  0  0  0  0  0  0  0  0  0  0
   44.9458   60.3985   31.3499 N   0  0  0  0  0  0  0  0  0  0  0  0
   45.1326   57.8465   32.8396 N   0  0  0  0  0  0  0  0  0  0  0  0
   45.7089   56.7945   33.4741 C   0  0  0  0  0  0  0  0  0  0  0  0
   47.0781   56.9287   33.4010 N   0  0  0  0  0  0  0  0  0  0  0  0
  2  1  1  6  0  0  0
  2  3  1  0  0  0  0
  2  5  1  0  0  0  0
  3  4  1  0  0  0  0
  3 16  1  0  0  0  0
  5  6  1  0  0  0  0
  6  7  1  0  0  0  0
  7  8  1  0  0  0  0
  9  8  1  6  0  0  0
  9 10  1  0  0  0  0
  9 11  1  0  0  0  0
 10 15  1  0  0  0  0
 11 12  1  1  0  0  0
 11 13  1  0  0  0  0
 13 14  1  1  0  0  0
 13 15  1  0  0  0  0
 15 26  1  6  0  0  0
 17 18  2  0  0  0  0
 17 22  1  0  0  0  0
 18 19  1  0  0  0  0
 19 20  2  0  0  0  0
 20 21  1  0  0  0  0
 20 26  1  0  0  0  0
 21 22  2  0  0  0  0
 21 24  1  0  0  0  0
 22 23  1  0  0  0  0
 24 25  2  0  0  0  0
 25 26  1  0  0  0  0
M  END
>  <CHROM.1>
-128.27876257,-59.91318713,171.00577308,-120.38830181,-81.70309857,53.33259139
-56.61677401,47.69520901,56.51965969,31.34863655,-1.78043112,-1.10839840
1.90138904

>  <Name>
ligand

>  <RI>
0

>  <Rbt.Current_Directory>
/home/itssahil/PROJECTS/Mol_Feturizer/New_Systems/rnas/3GX3

>  <Rbt.Executable>
rbdock ($Id: //depot/dev/client3/rdock/2013.1/src/exe/rbdock.cxx#4 $)

>  <Rbt.Library>
libRbt.so (2013.1, Build901 2013/11/27)

>  <Rbt.Parameter_File>
/export/apps/rDock/src/rDock_2013.1_src/data/scripts/dock_solv.prm

>  <Rbt.Receptor>
prm/pocket_docking_3.prm

>  <SCORE>
-15.6493

>  <SCORE.INTER>
-15.1979

>  <SCORE.INTER.CONST>
1

>  <SCORE.INTER.POLAR>
0

>  <SCORE.INTER.ROT>
7

>  <SCORE.INTER.SOLV>
15.0518

>  <SCORE.INTER.VDW>
-23.4159

>  <SCORE.INTER.norm>
-0.584535

>  <SCORE.INTRA>
-0.451389

>  <SCORE.INTRA.DIHEDRAL>
0.599945

>  <SCORE.INTRA.DIHEDRAL.0>
5.78979

>  <SCORE.INTRA.POLAR>
0

>  <SCORE.INTRA.POLAR.0>
0

>  <SCORE.INTRA.REPUL>
0

>  <SCORE.INTRA.REPUL.0>
0

>  <SCORE.INTRA.SOLV>
-0.2345

>  <SCORE.INTRA.SOLV.lig_0>
-49.9151

>  <SCORE.INTRA.VDW>
-0.634111

>  <SCORE.INTRA.VDW.0>
-0.211125

>  <SCORE.INTRA.norm>
-0.0173611

>  <SCORE.RESTR>
0

>  <SCORE.RESTR.CAVITY>
0

>  <SCORE.RESTR.norm>
0

>  <SCORE.SYSTEM>
0

>  <SCORE.SYSTEM.CONST>
0

>  <SCORE.SYSTEM.DIHEDRAL>
0

>  <SCORE.SYSTEM.SOLV>
0

>  <SCORE.SYSTEM.norm>
0

>  <SCORE.heavy>
26

>  <SCORE.norm>
-0.601896

>  <RMSD>
1.932

$$$$
ligand
 OpenBabel11021811483D
libRbt.so/2013.1/901 2013/11/27
 26 28  0  0  0  0  0  0  0  0999 V2000
   46.9238   57.2079   29.2087 N   0  0  0  0  0  0  0  0  0  0  0  0
   47.8303   57.0150   28.0734 C   0  0  2  0  0  0  0  0  0  0  0  0
   47.2117   57.3454   26.7133 C   0  0  0  0  0  0  0  0  0  0  0  0
   47.0095   58.5286   26.4390 O   0  0  0  0  0  0  0  0  0  0  0  0
   48.4322   55.6086   27.9580 C   0  0  0  0  0  0  0  0  0  0  0  0
   49.0734   54.9294   29.1556 C   0  0  0  0  0  0  0  0  0  0  0  0
   47.7698   54.7298   30.3918 S   0  0  0  0  0  0  0  0  0  0  0  0
   49.0252   53.9643   31.4451 C   0  0  0  0  0  0  0  0  0  0  0  0
   48.8847   54.2880   32.9364 C   0  0  1  0  0  0  0  0  0  0  0  0
   48.8826   55.6935   33.2112 O   0  0  0  0  0  0  0  0  0  0  0  0
   47.5872   53.7206   33.4937 C   0  0  1  0  0  0  0  0  0  0  0  0
   47.7788   52.4306   34.0310 O   0  0  0  0  0  0  0  0  0  0  0  0
   47.1378   54.7424   34.5301 C   0  0  1  0  0  0  0  0  0  0  0  0
   47.6307   54.4308   35.8176 O   0  0  0  0  0  0  0  0  0  0  0  0
   47.8082   56.0240   34.0760 C   0  0  2  0  0  0  0  0  0  0  0  0
   46.9220   56.4799   25.8778 O   0  0  0  0  0  0  0  0  0  0  0  0
   47.2449   60.4757   31.3405 N   0  0  0  0  0  0  0  0  0  0  0  0
   48.4013   59.9147   31.8208 C   0  0  0  0  0  0  0  0  0  0  0  0
   48.3481   58.7392   32.5401 N   0  0  0  0  0  0  0  0  0  0  0  0
   47.1807   58.1065   32.7528 C   0  0  0  0  0  0  0  0  0  0  0  0
   46.0027   58.6552   32.2750 C   0  0  0  0  0  0  0  0  0  0  0  0
   46.0495   59.8429   31.5726 C   0  0  0  0  0  0  0  0  0  0  0  0
   44.9410   60.3771   31.0977 N   0  0  0  0  0  0  0  0  0  0  0  0
   44.9830   57.8373   32.6192 N   0  0  0  0  0  0  0  0  0  0  0  0
   45.4935   56.7976   33.3260 C   0  0  0  0  0  0  0  0  0  0  0  0
   46.8597   56.9506   33.4154 N   0  0  0  0  0  0  0  0  0  0  0  0
  2  1  1  1  0  0  0
  2  3  1  0  0  0  0
  2  5  1  0  0  0  0
  3  4  1  0  0  0  0
  3 16  1  0  0  0  0
  5  6  1  0  0  0  0
  6  7  1  0  0  0  0
  7  8  1  0  0  0  0
  9  8  1  6  0  0  0
  9 10  1  0  0  0  0
  9 11  1  0  0  0  0
 10 15  1  0  0  0  0
 11 12  1  1  0  0  0
 11 13  1  0  0  0  0
 13 14  1  1  0  0  0
 13 15  1  0  0  0  0
 15 26  1  6  0  0  0
 17 18  2  0  0  0  0
 17 22  1  0  0  0  0
 18 19  1  0  0  0  0
 19 20  2  0  0  0  0
 20 21  1  0  0  0  0
 20 26  1  0  0  0  0
 21 22  2  0  0  0  0
 21 24  1  0  0  0  0
 22 23  1  0  0  0  0
 24 25  2  0  0  0  0
 25 26  1  0  0  0  0
M  END
>  <CHROM.1>
71.96359291,-49.10259184,62.44826216,-179.76669843,143.55956639,-56.01958140
-49.44603588,47.40332074,56.56180168,31.31568926,-1.82640122,-1.22793599
1.80734626

>  <Name>
ligand

>  <RI>
0

>  <Rbt.Current_Directory>
/home/itssahil/PROJECTS/Mol_Feturizer/New_Systems/rnas/3GX3

>  <Rbt.Executable>
rbdock ($Id: //depot/dev/client3/rdock/2013.1/src/exe/rbdock.cxx#4 $)

>  <Rbt.Library>
libRbt.so (2013.1, Build901 2013/11/27)

>  <Rbt.Parameter_File>
/export/apps/rDock/src/rDock_2013.1_src/data/scripts/dock_solv.prm

>  <Rbt.Receptor>
prm/pocket_docking_2.prm

>  <SCORE>
-12.5036

>  <SCORE.INTER>
-11.4361

>  <SCORE.INTER.CONST>
1

>  <SCORE.INTER.POLAR>
0

>  <SCORE.INTER.ROT>
7

>  <SCORE.INTER.SOLV>
13.9603

>  <SCORE.INTER.VDW>
-20.5442

>  <SCORE.INTER.norm>
-0.439852

>  <SCORE.INTRA>
-1.39004

>  <SCORE.INTRA.DIHEDRAL>
-0.861934

>  <SCORE.INTRA.DIHEDRAL.0>
5.78979

>  <SCORE.INTRA.POLAR>
0

>  <SCORE.INTRA.POLAR.0>
0

>  <SCORE.INTRA.REPUL>
0

>  <SCORE.INTRA.REPUL.0>
0

>  <SCORE.INTRA.SOLV>
2.41383

>  <SCORE.INTRA.SOLV.lig_0>
-49.9151

>  <SCORE.INTRA.VDW>
-2.16598

>  <SCORE.INTRA.VDW.0>
-0.211125

>  <SCORE.INTRA.norm>
-0.053463

>  <SCORE.RESTR>
0.322595

>  <SCORE.RESTR.CAVITY>
0.322595

>  <SCORE.RESTR.norm>
0.0124075

>  <SCORE.SYSTEM>
0

>  <SCORE.SYSTEM.CONST>
0

>  <SCORE.SYSTEM.DIHEDRAL>
0

>  <SCORE.SYSTEM.SOLV>
0

>  <SCORE.SYSTEM.norm>
0

>  <SCORE.heavy>
26

>  <SCORE.norm>
-0.480907

>  <RMSD>
1.959

$$$$
ligand
 OpenBabel11021811483D
libRbt.so/2013.1/901 2013/11/27
 26 28  0  0  0  0  0  0  0  0999 V2000
   46.8117   54.5329   27.0936 N   0  0  0  0  0  0  0  0  0  0  0  0
   46.3661   55.1232   28.3588 C   0  0  2  0  0  0  0  0  0  0  0  0
   47.4269   55.9718   29.0634 C   0  0  0  0  0  0  0  0  0  0  0  0
   47.0681   56.6978   29.9909 O   0  0  0  0  0  0  0  0  0  0  0  0
   45.8426   54.1179   29.3926 C   0  0  0  0  0  0  0  0  0  0  0  0
   46.5936   52.8305   29.6846 C   0  0  0  0  0  0  0  0  0  0  0  0
   48.2022   53.3145   30.3524 S   0  0  0  0  0  0  0  0  0  0  0  0
   47.3919   53.4043   31.9670 C   0  0  0  0  0  0  0  0  0  0  0  0
   48.3291   53.7533   33.1281 C   0  0  1  0  0  0  0  0  0  0  0  0
   49.2030   54.8502   32.8379 O   0  0  0  0  0  0  0  0  0  0  0  0
   47.5350   54.1297   34.3706 C   0  0  1  0  0  0  0  0  0  0  0  0
   47.3101   53.0087   35.1965 O   0  0  0  0  0  0  0  0  0  0  0  0
   48.3683   55.2133   35.0425 C   0  0  1  0  0  0  0  0  0  0  0  0
   49.2677   54.6691   35.9872 O   0  0  0  0  0  0  0  0  0  0  0  0
   49.1864   55.7872   33.9025 C   0  0  2  0  0  0  0  0  0  0  0  0
   48.6240   55.9477   28.7515 O   0  0  0  0  0  0  0  0  0  0  0  0
   45.0494   58.4556   32.0634 N   0  0  0  0  0  0  0  0  0  0  0  0
   45.1279   57.1228   32.3795 C   0  0  0  0  0  0  0  0  0  0  0  0
   46.3167   56.5931   32.8357 N   0  0  0  0  0  0  0  0  0  0  0  0
   47.4009   57.3688   33.0126 C   0  0  0  0  0  0  0  0  0  0  0  0
   47.3420   58.7165   32.7012 C   0  0  0  0  0  0  0  0  0  0  0  0
   46.1596   59.2463   32.2241 C   0  0  0  0  0  0  0  0  0  0  0  0
   46.0774   60.5300   31.9328 N   0  0  0  0  0  0  0  0  0  0  0  0
   48.5489   59.2661   32.9629 N   0  0  0  0  0  0  0  0  0  0  0  0
   49.3736   58.2853   33.4092 C   0  0  0  0  0  0  0  0  0  0  0  0
   48.6725   57.0999   33.4473 N   0  0  0  0  0  0  0  0  0  0  0  0
  2  1  1  6  0  0  0
  2  3  1  0  0  0  0
  2  5  1  0  0  0  0
  3  4  1  0  0  0  0
  3 16  1  0  0  0  0
  5  6  1  0  0  0  0
  6  7  1  0  0  0  0
  7  8  1  0  0  0  0
  9  8  1  6  0  0  0
  9 10  1  0  0  0  0
  9 11  1  0  0  0  0
 10 15  1  0  0  0  0
 11 12  1  1  0  0  0
 11 13  1  0  0  0  0
 13 14  1  1  0  0  0
 13 15  1  0  0  0  0
 15 26  1  6  0  0  0
 17 18  2  0  0  0  0
 17 22  1  0  0  0  0
 18 19  1  0  0  0  0
 19 20  2  0  0  0  0
 20 21  1  0  0  0  0
 20 26  1  0  0  0  0
 21 22  2  0  0  0  0
 21 24  1  0  0  0  0
 22 23  1  0  0  0  0
 24 25  2  0  0  0  0
 25 26  1  0  0  0  0
M  END
>  <CHROM.1>
166.80872760,45.58832511,62.68107701,85.43312693,177.43508066,46.18973940
65.59284954,47.50783303,55.80496717,31.92163632,2.04411391,1.23691612,-2.50828633

>  <Name>
ligand

>  <RI>
0

>  <Rbt.Current_Directory>
/home/itssahil/PROJECTS/Mol_Feturizer/New_Systems/rnas/3GX3

>  <Rbt.Executable>
rbdock ($Id: //depot/dev/client3/rdock/2013.1/src/exe/rbdock.cxx#4 $)

>  <Rbt.Library>
libRbt.so (2013.1, Build901 2013/11/27)

>  <Rbt.Parameter_File>
/export/apps/rDock/src/rDock_2013.1_src/data/scripts/dock_solv.prm

>  <Rbt.Receptor>
prm/pocket_docking_6.prm

>  <SCORE>
-15.5238

>  <SCORE.INTER>
-11.2551

>  <SCORE.INTER.CONST>
1

>  <SCORE.INTER.POLAR>
0

>  <SCORE.INTER.ROT>
7

>  <SCORE.INTER.SOLV>
14.3931

>  <SCORE.INTER.VDW>
-20.5678

>  <SCORE.INTER.norm>
-0.43289

>  <SCORE.INTRA>
-4.26867

>  <SCORE.INTRA.DIHEDRAL>
-0.568128

>  <SCORE.INTRA.DIHEDRAL.0>
5.78979

>  <SCORE.INTRA.POLAR>
0

>  <SCORE.INTRA.POLAR.0>
0

>  <SCORE.INTRA.REPUL>
0

>  <SCORE.INTRA.REPUL.0>
0

>  <SCORE.INTRA.SOLV>
0.474915

>  <SCORE.INTRA.SOLV.lig_0>
-49.9151

>  <SCORE.INTRA.VDW>
-4.22206

>  <SCORE.INTRA.VDW.0>
-0.211125

>  <SCORE.INTRA.norm>
-0.16418

>  <SCORE.RESTR>
0

>  <SCORE.RESTR.CAVITY>
0

>  <SCORE.RESTR.norm>
0

>  <SCORE.SYSTEM>
0

>  <SCORE.SYSTEM.CONST>
0

>  <SCORE.SYSTEM.DIHEDRAL>
0

>  <SCORE.SYSTEM.SOLV>
0

>  <SCORE.SYSTEM.norm>
0

>  <SCORE.heavy>
26

>  <SCORE.norm>
-0.59707

>  <RMSD>
2.009

$$$$
ligand
 OpenBabel11021811483D
libRbt.so/2013.1/901 2013/11/27
 26 28  0  0  0  0  0  0  0  0999 V2000
   45.7123   56.1802   28.8694 N   0  0  0  0  0  0  0  0  0  0  0  0
   46.9178   56.8958   28.4419 C   0  0  2  0  0  0  0  0  0  0  0  0
   46.9296   57.2753   26.9595 C   0  0  0  0  0  0  0  0  0  0  0  0
   47.1409   58.4514   26.6626 O   0  0  0  0  0  0  0  0  0  0  0  0
   48.2374   56.1661   28.7244 C   0  0  0  0  0  0  0  0  0  0  0  0
   48.5865   55.6907   30.1239 C   0  0  0  0  0  0  0  0  0  0  0  0
   47.4144   54.3748   30.5267 S   0  0  0  0  0  0  0  0  0  0  0  0
   48.7538   53.6087   31.4704 C   0  0  0  0  0  0  0  0  0  0  0  0
   48.8364   54.0582   32.9330 C   0  0  1  0  0  0  0  0  0  0  0  0
   48.9496   55.4781   33.0817 O   0  0  0  0  0  0  0  0  0  0  0  0
   47.5979   53.6244   33.7036 C   0  0  1  0  0  0  0  0  0  0  0  0
   47.7894   52.3712   34.3219 O   0  0  0  0  0  0  0  0  0  0  0  0
   47.3514   54.7527   34.6967 C   0  0  1  0  0  0  0  0  0  0  0  0
   47.9975   54.5121   35.9305 O   0  0  0  0  0  0  0  0  0  0  0  0
   48.0233   55.9469   34.0480 C   0  0  2  0  0  0  0  0  0  0  0  0
   46.7515   56.4524   26.0528 O   0  0  0  0  0  0  0  0  0  0  0  0
   47.3429   60.3635   31.2825 N   0  0  0  0  0  0  0  0  0  0  0  0
   48.5207   59.7901   31.6906 C   0  0  0  0  0  0  0  0  0  0  0  0
   48.4988   58.6274   32.4320 N   0  0  0  0  0  0  0  0  0  0  0  0
   47.3389   58.0187   32.7363 C   0  0  0  0  0  0  0  0  0  0  0  0
   46.1396   58.5801   32.3324 C   0  0  0  0  0  0  0  0  0  0  0  0
   46.1564   59.7555   31.6081 C   0  0  0  0  0  0  0  0  0  0  0  0
   45.0264   60.3014   31.2025 N   0  0  0  0  0  0  0  0  0  0  0  0
   45.1332   57.7858   32.7607 N   0  0  0  0  0  0  0  0  0  0  0  0
   45.6748   56.7487   33.4480 C   0  0  0  0  0  0  0  0  0  0  0  0
   47.0463   56.8792   33.4393 N   0  0  0  0  0  0  0  0  0  0  0  0
  2  1  1  6  0  0  0
  2  3  1  0  0  0  0
  2  5  1  0  0  0  0
  3  4  1  0  0  0  0
  3 16  1  0  0  0  0
  5  6  1  0  0  0  0
  6  7  1  0  0  0  0
  7  8  1  0  0  0  0
  9  8  1  6  0  0  0
  9 10  1  0  0  0  0
  9 11  1  0  0  0  0
 10 15  1  0  0  0  0
 11 12  1  1  0  0  0
 11 13  1  0  0  0  0
 13 14  1  1  0  0  0
 13 15  1  0  0  0  0
 15 26  1  6  0  0  0
 17 18  2  0  0  0  0
 17 22  1  0  0  0  0
 18 19  1  0  0  0  0
 19 20  2  0  0  0  0
 20 21  1  0  0  0  0
 20 26  1  0  0  0  0
 21 22  2  0  0  0  0
 21 24  1  0  0  0  0
 22 23  1  0  0  0  0
 24 25  2  0  0  0  0
 25 26  1  0  0  0  0
M  END
>  <CHROM.1>
127.03748370,-54.56952485,67.27666024,146.62244687,89.19376706,-55.80189350
-55.36725504,47.32983740,56.46706280,31.44770027,-2.21978397,-1.31192156
1.48795471

>  <Name>
ligand

>  <RI>
0

>  <Rbt.Current_Directory>
/home/itssahil/PROJECTS/Mol_Feturizer/New_Systems/rnas/3GX3

>  <Rbt.Executable>
rbdock ($Id: //depot/dev/client3/rdock/2013.1/src/exe/rbdock.cxx#4 $)

>  <Rbt.Library>
libRbt.so (2013.1, Build901 2013/11/27)

>  <Rbt.Parameter_File>
/export/apps/rDock/src/rDock_2013.1_src/data/scripts/dock_solv.prm

>  <Rbt.Receptor>
prm/pocket_docking_3.prm

>  <SCORE>
-15.1555

>  <SCORE.INTER>
-11.9471

>  <SCORE.INTER.CONST>
1

>  <SCORE.INTER.POLAR>
0

>  <SCORE.INTER.ROT>
7

>  <SCORE.INTER.SOLV>
14.0398

>  <SCORE.INTER.VDW>
-20.9113

>  <SCORE.INTER.norm>
-0.459505

>  <SCORE.INTRA>
-3.20832

>  <SCORE.INTRA.DIHEDRAL>
-0.0616327

>  <SCORE.INTRA.DIHEDRAL.0>
5.78979

>  <SCORE.INTRA.POLAR>
0

>  <SCORE.INTRA.POLAR.0>
0

>  <SCORE.INTRA.REPUL>
0

>  <SCORE.INTRA.REPUL.0>
0

>  <SCORE.INTRA.SOLV>
1.16607

>  <SCORE.INTRA.SOLV.lig_0>
-49.9151

>  <SCORE.INTRA.VDW>
-3.76054

>  <SCORE.INTRA.VDW.0>
-0.211125

>  <SCORE.INTRA.norm>
-0.123397

>  <SCORE.RESTR>
0

>  <SCORE.RESTR.CAVITY>
0

>  <SCORE.RESTR.norm>
0

>  <SCORE.SYSTEM>
0

>  <SCORE.SYSTEM.CONST>
0

>  <SCORE.SYSTEM.DIHEDRAL>
0

>  <SCORE.SYSTEM.SOLV>
0

>  <SCORE.SYSTEM.norm>
0

>  <SCORE.heavy>
26

>  <SCORE.norm>
-0.582902

>  <RMSD>
2.053

$$$$
ligand
 OpenBabel11021811483D
libRbt.so/2013.1/901 2013/11/27
 26 28  0  0  0  0  0  0  0  0999 V2000
   48.3460   56.4159   26.4974 N   0  0  0  0  0  0  0  0  0  0  0  0
   47.1796   56.7508   27.3191 C   0  0  2  0  0  0  0  0  0  0  0  0
   47.3047   58.0747   28.0762 C   0  0  0  0  0  0  0  0  0  0  0  0
   48.4177   58.5951   28.1567 O   0  0  0  0  0  0  0  0  0  0  0  0
   46.7871   55.6846   28.3501 C   0  0  0  0  0  0  0  0  0  0  0  0
   47.7842   55.1873   29.3821 C   0  0  0  0  0  0  0  0  0  0  0  0
   46.8729   54.0843   30.4869 S   0  0  0  0  0  0  0  0  0  0  0  0
   48.4748   53.6378   31.1981 C   0  0  0  0  0  0  0  0  0  0  0  0
   48.6996   54.1493   32.6250 C   0  0  1  0  0  0  0  0  0  0  0  0
   48.8018   55.5756   32.7039 O   0  0  0  0  0  0  0  0  0  0  0  0
   47.5551   53.7310   33.5368 C   0  0  1  0  0  0  0  0  0  0  0  0
   47.8320   52.5076   34.1817 O   0  0  0  0  0  0  0  0  0  0  0  0
   47.3919   54.8964   34.5039 C   0  0  1  0  0  0  0  0  0  0  0  0
   48.1660   54.7167   35.6726 O   0  0  0  0  0  0  0  0  0  0  0  0
   47.9717   56.0716   33.7414 C   0  0  2  0  0  0  0  0  0  0  0  0
   46.3381   58.6473   28.5947 O   0  0  0  0  0  0  0  0  0  0  0  0
   46.9329   60.5540   31.2025 N   0  0  0  0  0  0  0  0  0  0  0  0
   48.1559   60.0417   31.5552 C   0  0  0  0  0  0  0  0  0  0  0  0
   48.2292   58.8478   32.2417 N   0  0  0  0  0  0  0  0  0  0  0  0
   47.1197   58.1508   32.5447 C   0  0  0  0  0  0  0  0  0  0  0  0
   45.8761   58.6496   32.1961 C   0  0  0  0  0  0  0  0  0  0  0  0
   45.7975   59.8550   31.5274 C   0  0  0  0  0  0  0  0  0  0  0  0
   44.6240   60.3429   31.1747 N   0  0  0  0  0  0  0  0  0  0  0  0
   44.9351   57.7722   32.6105 N   0  0  0  0  0  0  0  0  0  0  0  0
   45.5609   56.7431   33.2355 C   0  0  0  0  0  0  0  0  0  0  0  0
   46.9204   56.9640   33.2004 N   0  0  0  0  0  0  0  0  0  0  0  0
  2  1  1  1  0  0  0
  2  3  1  0  0  0  0
  2  5  1  0  0  0  0
  3  4  1  0  0  0  0
  3 16  1  0  0  0  0
  5  6  1  0  0  0  0
  6  7  1  0  0  0  0
  7  8  1  0  0  0  0
  9  8  1  6  0  0  0
  9 10  1  0  0  0  0
  9 11  1  0  0  0  0
 10 15  1  0  0  0  0
 11 12  1  1  0  0  0
 11 13  1  0  0  0  0
 13 14  1  1  0  0  0
 13 15  1  0  0  0  0
 15 26  1  6  0  0  0
 17 18  2  0  0  0  0
 17 22  1  0  0  0  0
 18 19  1  0  0  0  0
 19 20  2  0  0  0  0
 20 21  1  0  0  0  0
 20 26  1  0  0  0  0
 21 22  2  0  0  0  0
 21 24  1  0  0  0  0
 22 23  1  0  0  0  0
 24 25  2  0  0  0  0
 25 26  1  0  0  0  0
M  END
>  <CHROM.1>
-14.15810506,56.02342094,174.27741209,170.91309615,110.24007598,-67.21547681
-62.65252316,47.24650946,56.60747782,31.35601989,-2.09168234,-1.29314859
1.83715658

>  <Name>
ligand

>  <RI>
0

>  <Rbt.Current_Directory>
/home/itssahil/PROJECTS/Mol_Feturizer/New_Systems/rnas/3GX3

>  <Rbt.Executable>
rbdock ($Id: //depot/dev/client3/rdock/2013.1/src/exe/rbdock.cxx#4 $)

>  <Rbt.Library>
libRbt.so (2013.1, Build901 2013/11/27)

>  <Rbt.Parameter_File>
/export/apps/rDock/src/rDock_2013.1_src/data/scripts/dock_solv.prm

>  <Rbt.Receptor>
prm/pocket_docking_2.prm

>  <SCORE>
-13.8831

>  <SCORE.INTER>
-10.1089

>  <SCORE.INTER.CONST>
1

>  <SCORE.INTER.POLAR>
0

>  <SCORE.INTER.ROT>
7

>  <SCORE.INTER.SOLV>
17.8991

>  <SCORE.INTER.VDW>
-20.9723

>  <SCORE.INTER.norm>
-0.388804

>  <SCORE.INTRA>
-3.83314

>  <SCORE.INTRA.DIHEDRAL>
-0.198759

>  <SCORE.INTRA.DIHEDRAL.0>
5.78979

>  <SCORE.INTRA.POLAR>
0

>  <SCORE.INTRA.POLAR.0>
0

>  <SCORE.INTRA.REPUL>
0

>  <SCORE.INTRA.REPUL.0>
0

>  <SCORE.INTRA.SOLV>
0.275576

>  <SCORE.INTRA.SOLV.lig_0>
-49.9151

>  <SCORE.INTRA.VDW>
-3.87155

>  <SCORE.INTRA.VDW.0>
-0.211125

>  <SCORE.INTRA.norm>
-0.147428

>  <SCORE.RESTR>
0.0589551

>  <SCORE.RESTR.CAVITY>
0.0589551

>  <SCORE.RESTR.norm>
0.00226751

>  <SCORE.SYSTEM>
0

>  <SCORE.SYSTEM.CONST>
0

>  <SCORE.SYSTEM.DIHEDRAL>
0

>  <SCORE.SYSTEM.SOLV>
0

>  <SCORE.SYSTEM.norm>
0

>  <SCORE.heavy>
26

>  <SCORE.norm>
-0.533965

>  <RMSD>
2.133

$$$$
ligand
 OpenBabel11021811483D
libRbt.so/2013.1/901 2013/11/27
 26 28  0  0  0  0  0  0  0  0999 V2000
   48.6183   55.8295   27.6698 N   0  0  0  0  0  0  0  0  0  0  0  0
   49.8324   55.0246   27.8311 C   0  0  2  0  0  0  0  0  0  0  0  0
   50.8654   55.2173   26.7186 C   0  0  0  0  0  0  0  0  0  0  0  0
   52.0435   55.3736   27.0404 O   0  0  0  0  0  0  0  0  0  0  0  0
   49.5949   53.5145   27.9602 C   0  0  0  0  0  0  0  0  0  0  0  0
   48.9154   52.9296   29.1861 C   0  0  0  0  0  0  0  0  0  0  0  0
   50.0238   53.2327   30.5815 S   0  0  0  0  0  0  0  0  0  0  0  0
   48.5399   53.5868   31.5530 C   0  0  0  0  0  0  0  0  0  0  0  0
   48.8144   53.9880   33.0063 C   0  0  1  0  0  0  0  0  0  0  0  0
   49.5359   55.2195   33.1253 O   0  0  0  0  0  0  0  0  0  0  0  0
   47.5129   54.1550   33.7771 C   0  0  1  0  0  0  0  0  0  0  0  0
   47.1406   52.9579   34.4235 O   0  0  0  0  0  0  0  0  0  0  0  0
   47.7860   55.2999   34.7439 C   0  0  1  0  0  0  0  0  0  0  0  0
   48.2661   54.8294   35.9872 O   0  0  0  0  0  0  0  0  0  0  0  0
   48.9095   56.0667   34.0746 C   0  0  2  0  0  0  0  0  0  0  0  0
   50.5699   55.2081   25.5171 O   0  0  0  0  0  0  0  0  0  0  0  0
   44.7531   58.7874   32.3597 N   0  0  0  0  0  0  0  0  0  0  0  0
   44.7748   57.5396   32.9299 C   0  0  0  0  0  0  0  0  0  0  0  0
   45.9763   56.9751   33.3036 N   0  0  0  0  0  0  0  0  0  0  0  0
   47.1345   57.6417   33.1524 C   0  0  0  0  0  0  0  0  0  0  0  0
   47.1341   58.9027   32.5808 C   0  0  0  0  0  0  0  0  0  0  0  0
   45.9353   59.4625   32.1859 C   0  0  0  0  0  0  0  0  0  0  0  0
   45.9101   60.6676   31.6504 N   0  0  0  0  0  0  0  0  0  0  0  0
   48.4086   59.3511   32.5402 N   0  0  0  0  0  0  0  0  0  0  0  0
   49.2139   58.3864   33.0521 C   0  0  0  0  0  0  0  0  0  0  0  0
   48.4350   57.3179   33.4391 N   0  0  0  0  0  0  0  0  0  0  0  0
  2  1  1  6  0  0  0
  2  3  1  0  0  0  0
  2  5  1  0  0  0  0
  3  4  1  0  0  0  0
  3 16  1  0  0  0  0
  5  6  1  0  0  0  0
  6  7  1  0  0  0  0
  7  8  1  0  0  0  0
  9  8  1  6  0  0  0
  9 10  1  0  0  0  0
  9 11  1  0  0  0  0
 10 15  1  0  0  0  0
 11 12  1  1  0  0  0
 11 13  1  0  0  0  0
 13 14  1  1  0  0  0
 13 15  1  0  0  0  0
 15 26  1  6  0  0  0
 17 18  2  0  0  0  0
 17 22  1  0  0  0  0
 18 19  1  0  0  0  0
 19 20  2  0  0  0  0
 20 21  1  0  0  0  0
 20 26  1  0  0  0  0
 21 22  2  0  0  0  0
 21 24  1  0  0  0  0
 22 23  1  0  0  0  0
 24 25  2  0  0  0  0
 25 26  1  0  0  0  0
M  END
>  <CHROM.1>
133.97022299,-68.23280019,-65.40326896,140.72328629,-178.82532406,64.26029081
106.02018209,48.39370734,55.84220134,31.47567660,0.38223817,1.04664013,-0.89458494

>  <Name>
ligand

>  <RI>
0

>  <Rbt.Current_Directory>
/home/itssahil/PROJECTS/Mol_Feturizer/New_Systems/rnas/3GX3

>  <Rbt.Executable>
rbdock ($Id: //depot/dev/client3/rdock/2013.1/src/exe/rbdock.cxx#4 $)

>  <Rbt.Library>
libRbt.so (2013.1, Build901 2013/11/27)

>  <Rbt.Parameter_File>
/export/apps/rDock/src/rDock_2013.1_src/data/scripts/dock_solv.prm

>  <Rbt.Receptor>
prm/pocket_docking_6.prm

>  <SCORE>
-17.5104

>  <SCORE.INTER>
-14.7983

>  <SCORE.INTER.CONST>
1

>  <SCORE.INTER.POLAR>
0

>  <SCORE.INTER.ROT>
7

>  <SCORE.INTER.SOLV>
14.4142

>  <SCORE.INTER.VDW>
-22.9369

>  <SCORE.INTER.norm>
-0.569164

>  <SCORE.INTRA>
-2.71216

>  <SCORE.INTRA.DIHEDRAL>
-0.739221

>  <SCORE.INTRA.DIHEDRAL.0>
5.78979

>  <SCORE.INTRA.POLAR>
0

>  <SCORE.INTRA.POLAR.0>
0

>  <SCORE.INTRA.REPUL>
0

>  <SCORE.INTRA.REPUL.0>
0

>  <SCORE.INTRA.SOLV>
-0.0295691

>  <SCORE.INTRA.SOLV.lig_0>
-49.9151

>  <SCORE.INTRA.VDW>
-2.32776

>  <SCORE.INTRA.VDW.0>
-0.211125

>  <SCORE.INTRA.norm>
-0.104314

>  <SCORE.RESTR>
0

>  <SCORE.RESTR.CAVITY>
0

>  <SCORE.RESTR.norm>
0

>  <SCORE.SYSTEM>
0

>  <SCORE.SYSTEM.CONST>
0

>  <SCORE.SYSTEM.DIHEDRAL>
0

>  <SCORE.SYSTEM.SOLV>
0

>  <SCORE.SYSTEM.norm>
0

>  <SCORE.heavy>
26

>  <SCORE.norm>
-0.673477

>  <RMSD>
2.206

$$$$
ligand
 OpenBabel11021811483D
libRbt.so/2013.1/901 2013/11/27
 26 28  0  0  0  0  0  0  0  0999 V2000
   46.5976   58.3641   28.4321 N   0  0  0  0  0  0  0  0  0  0  0  0
   47.5045   57.3087   27.9721 C   0  0  2  0  0  0  0  0  0  0  0  0
   46.9303   56.4289   26.8595 C   0  0  0  0  0  0  0  0  0  0  0  0
   47.5078   56.4166   25.7721 O   0  0  0  0  0  0  0  0  0  0  0  0
   48.0072   56.3637   29.0712 C   0  0  0  0  0  0  0  0  0  0  0  0
   49.4921   56.1200   29.2770 C   0  0  0  0  0  0  0  0  0  0  0  0
   49.6361   54.5647   30.1869 S   0  0  0  0  0  0  0  0  0  0  0  0
   49.7194   55.5683   31.6893 C   0  0  0  0  0  0  0  0  0  0  0  0
   48.7974   55.0964   32.8188 C   0  0  1  0  0  0  0  0  0  0  0  0
   48.2938   56.1699   33.6220 O   0  0  0  0  0  0  0  0  0  0  0  0
   47.5934   54.3522   32.2597 C   0  0  1  0  0  0  0  0  0  0  0  0
   47.8331   52.9639   32.1914 O   0  0  0  0  0  0  0  0  0  0  0  0
   46.4494   54.7189   33.1961 C   0  0  1  0  0  0  0  0  0  0  0  0
   46.3218   53.7890   34.2529 O   0  0  0  0  0  0  0  0  0  0  0  0
   46.8920   56.0400   33.7936 C   0  0  2  0  0  0  0  0  0  0  0  0
   45.9253   55.7231   27.0108 O   0  0  0  0  0  0  0  0  0  0  0  0
   47.3391   60.6682   31.3445 N   0  0  0  0  0  0  0  0  0  0  0  0
   48.3406   59.8364   31.7776 C   0  0  0  0  0  0  0  0  0  0  0  0
   48.0257   58.6592   32.4234 N   0  0  0  0  0  0  0  0  0  0  0  0
   46.7463   58.2884   32.6082 C   0  0  0  0  0  0  0  0  0  0  0  0
   45.7209   59.1127   32.1770 C   0  0  0  0  0  0  0  0  0  0  0  0
   46.0323   60.3022   31.5490 C   0  0  0  0  0  0  0  0  0  0  0  0
   45.0715   61.0970   31.1191 N   0  0  0  0  0  0  0  0  0  0  0  0
   44.5441   58.5208   32.4801 N   0  0  0  0  0  0  0  0  0  0  0  0
   44.8089   57.3518   33.1161 C   0  0  0  0  0  0  0  0  0  0  0  0
   46.1748   57.1929   33.2011 N   0  0  0  0  0  0  0  0  0  0  0  0
  2  1  1  1  0  0  0
  2  3  1  0  0  0  0
  2  5  1  0  0  0  0
  3  4  1  0  0  0  0
  3 16  1  0  0  0  0
  5  6  1  0  0  0  0
  6  7  1  0  0  0  0
  7  8  1  0  0  0  0
  9  8  1  6  0  0  0
  9 10  1  0  0  0  0
  9 11  1  0  0  0  0
 10 15  1  0  0  0  0
 11 12  1  1  0  0  0
 11 13  1  0  0  0  0
 13 14  1  1  0  0  0
 13 15  1  0  0  0  0
 15 26  1  6  0  0  0
 17 18  2  0  0  0  0
 17 22  1  0  0  0  0
 18 19  1  0  0  0  0
 19 20  2  0  0  0  0
 20 21  1  0  0  0  0
 20 26  1  0  0  0  0
 21 22  2  0  0  0  0
 21 24  1  0  0  0  0
 22 23  1  0  0  0  0
 24 25  2  0  0  0  0
 25 26  1  0  0  0  0
M  END
>  <CHROM.1>
118.28763941,-126.35507038,-159.67710223,-95.05482372,132.23271943,-147.10117488
-2.65530801,47.30477367,56.76343831,31.08173434,1.16177733,1.14099328,-1.25519606

>  <Name>
ligand

>  <RI>
0

>  <Rbt.Current_Directory>
/home/itssahil/PROJECTS/Mol_Feturizer/New_Systems/rnas/3GX3

>  <Rbt.Executable>
rbdock ($Id: //depot/dev/client3/rdock/2013.1/src/exe/rbdock.cxx#4 $)

>  <Rbt.Library>
libRbt.so (2013.1, Build901 2013/11/27)

>  <Rbt.Parameter_File>
/export/apps/rDock/src/rDock_2013.1_src/data/scripts/dock_solv.prm

>  <Rbt.Receptor>
prm/pocket_docking_2.prm

>  <SCORE>
-6.84635

>  <SCORE.INTER>
-10.0476

>  <SCORE.INTER.CONST>
1

>  <SCORE.INTER.POLAR>
0

>  <SCORE.INTER.ROT>
7

>  <SCORE.INTER.SOLV>
18.2855

>  <SCORE.INTER.VDW>
-21.0602

>  <SCORE.INTER.norm>
-0.386445

>  <SCORE.INTRA>
2.75075

>  <SCORE.INTRA.DIHEDRAL>
10.5288

>  <SCORE.INTRA.DIHEDRAL.0>
5.78979

>  <SCORE.INTRA.POLAR>
0

>  <SCORE.INTRA.POLAR.0>
0

>  <SCORE.INTRA.REPUL>
0

>  <SCORE.INTRA.REPUL.0>
0

>  <SCORE.INTRA.SOLV>
0.189957

>  <SCORE.INTRA.SOLV.lig_0>
-49.9151

>  <SCORE.INTRA.VDW>
-2.60861

>  <SCORE.INTRA.VDW.0>
-0.211125

>  <SCORE.INTRA.norm>
0.105798

>  <SCORE.RESTR>
0.450471

>  <SCORE.RESTR.CAVITY>
0.450471

>  <SCORE.RESTR.norm>
0.0173258

>  <SCORE.SYSTEM>
0

>  <SCORE.SYSTEM.CONST>
0

>  <SCORE.SYSTEM.DIHEDRAL>
0

>  <SCORE.SYSTEM.SOLV>
0

>  <SCORE.SYSTEM.norm>
0

>  <SCORE.heavy>
26

>  <SCORE.norm>
-0.263321

>  <RMSD>
2.212

$$$$
ligand
 OpenBabel11021811483D
libRbt.so/2013.1/901 2013/11/27
 26 28  0  0  0  0  0  0  0  0999 V2000
   49.8899   53.7191   26.0462 N   0  0  0  0  0  0  0  0  0  0  0  0
   48.8503   54.6991   25.7196 C   0  0  2  0  0  0  0  0  0  0  0  0
   49.0002   55.3356   24.3361 C   0  0  0  0  0  0  0  0  0  0  0  0
   47.9935   55.7936   23.7951 O   0  0  0  0  0  0  0  0  0  0  0  0
   48.7071   55.8493   26.7248 C   0  0  0  0  0  0  0  0  0  0  0  0
   48.2820   55.5886   28.1593 C   0  0  0  0  0  0  0  0  0  0  0  0
   49.6851   54.7916   28.9740 S   0  0  0  0  0  0  0  0  0  0  0  0
   48.5800   54.5089   30.3777 C   0  0  0  0  0  0  0  0  0  0  0  0
   49.1747   54.8860   31.7387 C   0  0  1  0  0  0  0  0  0  0  0  0
   49.7265   56.2073   31.7671 O   0  0  0  0  0  0  0  0  0  0  0  0
   48.1157   54.8193   32.8296 C   0  0  1  0  0  0  0  0  0  0  0  0
   48.0964   53.5532   33.4510 O   0  0  0  0  0  0  0  0  0  0  0  0
   48.4777   55.9508   33.7828 C   0  0  1  0  0  0  0  0  0  0  0  0
   49.3316   55.5076   34.8182 O   0  0  0  0  0  0  0  0  0  0  0  0
   49.2663   56.9081   32.9110 C   0  0  2  0  0  0  0  0  0  0  0  0
   50.0861   55.4215   23.7491 O   0  0  0  0  0  0  0  0  0  0  0  0
   44.4600   58.9647   32.3752 N   0  0  0  0  0  0  0  0  0  0  0  0
   44.8021   57.7031   32.7922 C   0  0  0  0  0  0  0  0  0  0  0  0
   46.1299   57.3352   32.8521 N   0  0  0  0  0  0  0  0  0  0  0  0
   47.1071   58.2054   32.5417 C   0  0  0  0  0  0  0  0  0  0  0  0
   46.7830   59.4837   32.1203 C   0  0  0  0  0  0  0  0  0  0  0  0
   45.4540   59.8491   32.0388 C   0  0  0  0  0  0  0  0  0  0  0  0
   45.1228   61.0656   31.6517 N   0  0  0  0  0  0  0  0  0  0  0  0
   47.9309   60.1525   31.8706 N   0  0  0  0  0  0  0  0  0  0  0  0
   48.9704   59.3117   32.1024 C   0  0  0  0  0  0  0  0  0  0  0  0
   48.4732   58.0974   32.5225 N   0  0  0  0  0  0  0  0  0  0  0  0
  2  1  1  1  0  0  0
  2  3  1  0  0  0  0
  2  5  1  0  0  0  0
  3  4  1  0  0  0  0
  3 16  1  0  0  0  0
  5  6  1  0  0  0  0
  6  7  1  0  0  0  0
  7  8  1  0  0  0  0
  9  8  1  6  0  0  0
  9 10  1  0  0  0  0
  9 11  1  0  0  0  0
 10 15  1  0  0  0  0
 11 12  1  1  0  0  0
 11 13  1  0  0  0  0
 13 14  1  1  0  0  0
 13 15  1  0  0  0  0
 15 26  1  6  0  0  0
 17 18  2  0  0  0  0
 17 22  1  0  0  0  0
 18 19  1  0  0  0  0
 19 20  2  0  0  0  0
 20 21  1  0  0  0  0
 20 26  1  0  0  0  0
 21 22  2  0  0  0  0
 21 24  1  0  0  0  0
 22 23  1  0  0  0  0
 24 25  2  0  0  0  0
 25 26  1  0  0  0  0
M  END
>  <CHROM.1>
155.75009893,-63.68042514,71.95001223,-171.44698441,-132.66101634,50.93452396
102.35351245,48.14852426,56.51727607,30.33724236,-1.08136238,-0.99155272
1.61677510

>  <Name>
ligand

>  <RI>
0

>  <Rbt.Current_Directory>
/home/itssahil/PROJECTS/Mol_Feturizer/New_Systems/rnas/3GX3

>  <Rbt.Executable>
rbdock ($Id: //depot/dev/client3/rdock/2013.1/src/exe/rbdock.cxx#4 $)

>  <Rbt.Library>
libRbt.so (2013.1, Build901 2013/11/27)

>  <Rbt.Parameter_File>
/export/apps/rDock/src/rDock_2013.1_src/data/scripts/dock_solv.prm

>  <Rbt.Receptor>
prm/pocket_docking_6.prm

>  <SCORE>
-15.9404

>  <SCORE.INTER>
-14.0319

>  <SCORE.INTER.CONST>
1

>  <SCORE.INTER.POLAR>
0

>  <SCORE.INTER.ROT>
7

>  <SCORE.INTER.SOLV>
14.9454

>  <SCORE.INTER.VDW>
-22.603

>  <SCORE.INTER.norm>
-0.539687

>  <SCORE.INTRA>
-1.92949

>  <SCORE.INTRA.DIHEDRAL>
0.180626

>  <SCORE.INTRA.DIHEDRAL.0>
5.78979

>  <SCORE.INTRA.POLAR>
0

>  <SCORE.INTRA.POLAR.0>
0

>  <SCORE.INTRA.REPUL>
0

>  <SCORE.INTRA.REPUL.0>
0

>  <SCORE.INTRA.SOLV>
0.783534

>  <SCORE.INTRA.SOLV.lig_0>
-49.9151

>  <SCORE.INTRA.VDW>
-2.41157

>  <SCORE.INTRA.VDW.0>
-0.211125

>  <SCORE.INTRA.norm>
-0.0742112

>  <SCORE.RESTR>
0.0209913

>  <SCORE.RESTR.CAVITY>
0.0209913

>  <SCORE.RESTR.norm>
0.000807357

>  <SCORE.SYSTEM>
0

>  <SCORE.SYSTEM.CONST>
0

>  <SCORE.SYSTEM.DIHEDRAL>
0

>  <SCORE.SYSTEM.SOLV>
0

>  <SCORE.SYSTEM.norm>
0

>  <SCORE.heavy>
26

>  <SCORE.norm>
-0.613091

>  <RMSD>
2.245

$$$$
ligand
 OpenBabel11021811483D
libRbt.so/2013.1/901 2013/11/27
 26 28  0  0  0  0  0  0  0  0999 V2000
   46.1047   55.1900   27.7949 N   0  0  0  0  0  0  0  0  0  0  0  0
   46.9807   54.1855   27.1854 C   0  0  2  0  0  0  0  0  0  0  0  0
   46.2739   52.8811   26.8105 C   0  0  0  0  0  0  0  0  0  0  0  0
   45.4093   52.4488   27.5732 O   0  0  0  0  0  0  0  0  0  0  0  0
   48.2062   53.8015   28.0247 C   0  0  0  0  0  0  0  0  0  0  0  0
   48.0509   53.2240   29.4207 C   0  0  0  0  0  0  0  0  0  0  0  0
   49.7192   53.0585   30.0967 S   0  0  0  0  0  0  0  0  0  0  0  0
   49.5293   54.7494   30.7102 C   0  0  0  0  0  0  0  0  0  0  0  0
   49.2386   54.8502   32.2114 C   0  0  1  0  0  0  0  0  0  0  0  0
   49.6307   56.1051   32.7793 O   0  0  0  0  0  0  0  0  0  0  0  0
   47.7520   54.6783   32.4878 C   0  0  1  0  0  0  0  0  0  0  0  0
   47.4306   53.3310   32.7538 O   0  0  0  0  0  0  0  0  0  0  0  0
   47.4725   55.6058   33.6633 C   0  0  1  0  0  0  0  0  0  0  0  0
   47.6086   54.9358   34.9002 O   0  0  0  0  0  0  0  0  0  0  0  0
   48.5808   56.6361   33.5712 C   0  0  2  0  0  0  0  0  0  0  0  0
   46.5231   52.2549   25.7729 O   0  0  0  0  0  0  0  0  0  0  0  0
   44.4156   59.4701   32.0753 N   0  0  0  0  0  0  0  0  0  0  0  0
   44.4396   58.1870   32.5608 C   0  0  0  0  0  0  0  0  0  0  0  0
   45.6432   57.5975   32.8863 N   0  0  0  0  0  0  0  0  0  0  0  0
   46.8012   58.2712   32.7705 C   0  0  0  0  0  0  0  0  0  0  0  0
   46.7984   59.5675   32.2842 C   0  0  0  0  0  0  0  0  0  0  0  0
   45.5975   60.1539   31.9373 C   0  0  0  0  0  0  0  0  0  0  0  0
   45.5701   61.3920   31.4836 N   0  0  0  0  0  0  0  0  0  0  0  0
   48.0733   60.0161   32.2633 N   0  0  0  0  0  0  0  0  0  0  0  0
   48.8811   59.0184   32.7032 C   0  0  0  0  0  0  0  0  0  0  0  0
   48.1034   57.9275   33.0243 N   0  0  0  0  0  0  0  0  0  0  0  0
  2  1  1  1  0  0  0
  2  3  1  0  0  0  0
  2  5  1  0  0  0  0
  3  4  1  0  0  0  0
  3 16  1  0  0  0  0
  5  6  1  0  0  0  0
  6  7  1  0  0  0  0
  7  8  1  0  0  0  0
  9  8  1  6  0  0  0
  9 10  1  0  0  0  0
  9 11  1  0  0  0  0
 10 15  1  0  0  0  0
 11 12  1  1  0  0  0
 11 13  1  0  0  0  0
 13 14  1  1  0  0  0
 13 15  1  0  0  0  0
 15 26  1  6  0  0  0
 17 18  2  0  0  0  0
 17 22  1  0  0  0  0
 18 19  1  0  0  0  0
 19 20  2  0  0  0  0
 20 21  1  0  0  0  0
 20 26  1  0  0  0  0
 21 22  2  0  0  0  0
 21 24  1  0  0  0  0
 22 23  1  0  0  0  0
 24 25  2  0  0  0  0
 25 26  1  0  0  0  0
M  END
>  <CHROM.1>
-38.40553726,58.96607411,-175.02526872,88.96938619,103.24368837,155.57849743
129.80403931,47.39842847,55.87859871,31.06241559,1.42754353,0.86767062,-2.35606938

>  <Name>
ligand

>  <RI>
0

>  <Rbt.Current_Directory>
/home/itssahil/PROJECTS/Mol_Feturizer/New_Systems/rnas/3GX3

>  <Rbt.Executable>
rbdock ($Id: //depot/dev/client3/rdock/2013.1/src/exe/rbdock.cxx#4 $)

>  <Rbt.Library>
libRbt.so (2013.1, Build901 2013/11/27)

>  <Rbt.Parameter_File>
/export/apps/rDock/src/rDock_2013.1_src/data/scripts/dock_solv.prm

>  <Rbt.Receptor>
prm/pocket_docking_5.prm

>  <SCORE>
-13.1867

>  <SCORE.INTER>
-12.4502

>  <SCORE.INTER.CONST>
1

>  <SCORE.INTER.POLAR>
0

>  <SCORE.INTER.ROT>
7

>  <SCORE.INTER.SOLV>
16.1171

>  <SCORE.INTER.VDW>
-21.9392

>  <SCORE.INTER.norm>
-0.478854

>  <SCORE.INTRA>
-0.736502

>  <SCORE.INTRA.DIHEDRAL>
2.1119

>  <SCORE.INTRA.DIHEDRAL.0>
5.78979

>  <SCORE.INTRA.POLAR>
0

>  <SCORE.INTRA.POLAR.0>
0

>  <SCORE.INTRA.REPUL>
0

>  <SCORE.INTRA.REPUL.0>
0

>  <SCORE.INTRA.SOLV>
-0.087393

>  <SCORE.INTRA.SOLV.lig_0>
-49.9151

>  <SCORE.INTRA.VDW>
-1.74876

>  <SCORE.INTRA.VDW.0>
-0.211125

>  <SCORE.INTRA.norm>
-0.028327

>  <SCORE.RESTR>
0

>  <SCORE.RESTR.CAVITY>
0

>  <SCORE.RESTR.norm>
0

>  <SCORE.SYSTEM>
0

>  <SCORE.SYSTEM.CONST>
0

>  <SCORE.SYSTEM.DIHEDRAL>
0

>  <SCORE.SYSTEM.SOLV>
0

>  <SCORE.SYSTEM.norm>
0

>  <SCORE.heavy>
26

>  <SCORE.norm>
-0.507181

>  <RMSD>
2.276

$$$$
ligand
 OpenBabel11021811483D
libRbt.so/2013.1/901 2013/11/27
 26 28  0  0  0  0  0  0  0  0999 V2000
   46.7975   52.9113   25.6589 N   0  0  0  0  0  0  0  0  0  0  0  0
   46.6560   53.3490   27.0504 C   0  0  2  0  0  0  0  0  0  0  0  0
   47.5713   54.5123   27.4385 C   0  0  0  0  0  0  0  0  0  0  0  0
   47.0839   55.4483   28.0728 O   0  0  0  0  0  0  0  0  0  0  0  0
   46.8666   52.2490   28.0989 C   0  0  0  0  0  0  0  0  0  0  0  0
   46.6800   52.5310   29.5796 C   0  0  0  0  0  0  0  0  0  0  0  0
   48.2120   53.3002   30.1530 S   0  0  0  0  0  0  0  0  0  0  0  0
   47.3710   53.5613   31.7328 C   0  0  0  0  0  0  0  0  0  0  0  0
   48.3051   53.8962   32.9006 C   0  0  1  0  0  0  0  0  0  0  0  0
   49.1904   54.9865   32.6204 O   0  0  0  0  0  0  0  0  0  0  0  0
   47.5079   54.2736   34.1407 C   0  0  1  0  0  0  0  0  0  0  0  0
   47.2685   53.1507   34.9599 O   0  0  0  0  0  0  0  0  0  0  0  0
   48.3473   55.3465   34.8223 C   0  0  1  0  0  0  0  0  0  0  0  0
   49.2367   54.7895   35.7691 O   0  0  0  0  0  0  0  0  0  0  0  0
   49.1766   55.9184   33.6894 C   0  0  2  0  0  0  0  0  0  0  0  0
   48.7755   54.5442   27.1559 O   0  0  0  0  0  0  0  0  0  0  0  0
   44.9741   58.7534   32.3039 N   0  0  0  0  0  0  0  0  0  0  0  0
   45.0224   57.4349   32.6803 C   0  0  0  0  0  0  0  0  0  0  0  0
   46.2329   56.8532   32.9936 N   0  0  0  0  0  0  0  0  0  0  0  0
   47.3731   57.5660   32.9723 C   0  0  0  0  0  0  0  0  0  0  0  0
   47.3456   58.8983   32.5969 C   0  0  0  0  0  0  0  0  0  0  0  0
   46.1384   59.4787   32.2620 C   0  0  0  0  0  0  0  0  0  0  0  0
   46.0872   60.7497   31.9134 N   0  0  0  0  0  0  0  0  0  0  0  0
   48.6065   59.3821   32.6548 N   0  0  0  0  0  0  0  0  0  0  0  0
   49.4305   58.3732   33.0350 C   0  0  0  0  0  0  0  0  0  0  0  0
   48.6769   57.2379   33.2381 N   0  0  0  0  0  0  0  0  0  0  0  0
  2  1  1  6  0  0  0
  2  3  1  0  0  0  0
  2  5  1  0  0  0  0
  3  4  1  0  0  0  0
  3 16  1  0  0  0  0
  5  6  1  0  0  0  0
  6  7  1  0  0  0  0
  7  8  1  0  0  0  0
  9  8  1  6  0  0  0
  9 10  1  0  0  0  0
  9 11  1  0  0  0  0
 10 15  1  0  0  0  0
 11 12  1  1  0  0  0
 11 13  1  0  0  0  0
 13 14  1  1  0  0  0
 13 15  1  0  0  0  0
 15 26  1  6  0  0  0
 17 18  2  0  0  0  0
 17 22  1  0  0  0  0
 18 19  1  0  0  0  0
 19 20  2  0  0  0  0
 20 21  1  0  0  0  0
 20 26  1  0  0  0  0
 21 22  2  0  0  0  0
 21 24  1  0  0  0  0
 22 23  1  0  0  0  0
 24 25  2  0  0  0  0
 25 26  1  0  0  0  0
M  END
>  <CHROM.1>
134.22707886,-176.69588368,-81.69471126,173.56546899,164.12891518,52.32032239
75.15435450,47.55791768,55.55371782,31.47241362,1.67211520,1.26538605,-2.29918744

>  <Name>
ligand

>  <RI>
0

>  <Rbt.Current_Directory>
/home/itssahil/PROJECTS/Mol_Feturizer/New_Systems/rnas/3GX3

>  <Rbt.Executable>
rbdock ($Id: //depot/dev/client3/rdock/2013.1/src/exe/rbdock.cxx#4 $)

>  <Rbt.Library>
libRbt.so (2013.1, Build901 2013/11/27)

>  <Rbt.Parameter_File>
/export/apps/rDock/src/rDock_2013.1_src/data/scripts/dock_solv.prm

>  <Rbt.Receptor>
prm/pocket_docking_5.prm

>  <SCORE>
-17.0042

>  <SCORE.INTER>
-13.1421

>  <SCORE.INTER.CONST>
1

>  <SCORE.INTER.POLAR>
0

>  <SCORE.INTER.ROT>
7

>  <SCORE.INTER.SOLV>
15.3552

>  <SCORE.INTER.VDW>
-22.1465

>  <SCORE.INTER.norm>
-0.505465

>  <SCORE.INTRA>
-3.86214

>  <SCORE.INTRA.DIHEDRAL>
-0.664016

>  <SCORE.INTRA.DIHEDRAL.0>
5.78979

>  <SCORE.INTRA.POLAR>
0

>  <SCORE.INTRA.POLAR.0>
0

>  <SCORE.INTRA.REPUL>
0

>  <SCORE.INTRA.REPUL.0>
0

>  <SCORE.INTRA.SOLV>
-0.901508

>  <SCORE.INTRA.SOLV.lig_0>
-49.9151

>  <SCORE.INTRA.VDW>
-3.07937

>  <SCORE.INTRA.VDW.0>
-0.211125

>  <SCORE.INTRA.norm>
-0.148544

>  <SCORE.RESTR>
0

>  <SCORE.RESTR.CAVITY>
0

>  <SCORE.RESTR.norm>
0

>  <SCORE.SYSTEM>
0

>  <SCORE.SYSTEM.CONST>
0

>  <SCORE.SYSTEM.DIHEDRAL>
0

>  <SCORE.SYSTEM.SOLV>
0

>  <SCORE.SYSTEM.norm>
0

>  <SCORE.heavy>
26

>  <SCORE.norm>
-0.654009

>  <RMSD>
2.337

$$$$
ligand
 OpenBabel11021811483D
libRbt.so/2013.1/901 2013/11/27
 26 28  0  0  0  0  0  0  0  0999 V2000
   48.9958   54.3049   26.6605 N   0  0  0  0  0  0  0  0  0  0  0  0
   49.3402   55.3735   27.6024 C   0  0  2  0  0  0  0  0  0  0  0  0
   50.7544   55.2709   28.1780 C   0  0  0  0  0  0  0  0  0  0  0  0
   51.5987   56.0800   27.7924 O   0  0  0  0  0  0  0  0  0  0  0  0
   48.3848   55.5179   28.7941 C   0  0  0  0  0  0  0  0  0  0  0  0
   48.2322   54.4048   29.8161 C   0  0  0  0  0  0  0  0  0  0  0  0
   46.9364   54.9326   30.9606 S   0  0  0  0  0  0  0  0  0  0  0  0
   47.3436   53.4667   31.9388 C   0  0  0  0  0  0  0  0  0  0  0  0
   48.2248   53.7451   33.1612 C   0  0  1  0  0  0  0  0  0  0  0  0
   49.2259   54.7406   32.9206 O   0  0  0  0  0  0  0  0  0  0  0  0
   47.3855   54.2283   34.3351 C   0  0  1  0  0  0  0  0  0  0  0  0
   46.9867   53.1551   35.1588 O   0  0  0  0  0  0  0  0  0  0  0  0
   48.2748   55.2367   35.0508 C   0  0  1  0  0  0  0  0  0  0  0  0
   49.0422   54.6255   36.0683 O   0  0  0  0  0  0  0  0  0  0  0  0
   49.2285   55.6984   33.9666 C   0  0  2  0  0  0  0  0  0  0  0  0
   51.0785   54.4239   29.0198 O   0  0  0  0  0  0  0  0  0  0  0  0
   45.4127   58.8766   32.2469 N   0  0  0  0  0  0  0  0  0  0  0  0
   45.3106   57.5705   32.6548 C   0  0  0  0  0  0  0  0  0  0  0  0
   46.4377   56.8863   33.0593 N   0  0  0  0  0  0  0  0  0  0  0  0
   47.6400   57.4877   33.0968 C   0  0  0  0  0  0  0  0  0  0  0  0
   47.7641   58.8055   32.6910 C   0  0  0  0  0  0  0  0  0  0  0  0
   46.6415   59.4874   32.2652 C   0  0  0  0  0  0  0  0  0  0  0  0
   46.7344   60.7472   31.8860 N   0  0  0  0  0  0  0  0  0  0  0  0
   49.0593   59.1697   32.8205 N   0  0  0  0  0  0  0  0  0  0  0  0
   49.7573   58.0988   33.2760 C   0  0  0  0  0  0  0  0  0  0  0  0
   48.8870   57.0458   33.4544 N   0  0  0  0  0  0  0  0  0  0  0  0
  2  1  1  1  0  0  0
  2  3  1  0  0  0  0
  2  5  1  0  0  0  0
  3  4  1  0  0  0  0
  3 16  1  0  0  0  0
  5  6  1  0  0  0  0
  6  7  1  0  0  0  0
  7  8  1  0  0  0  0
  9  8  1  6  0  0  0
  9 10  1  0  0  0  0
  9 11  1  0  0  0  0
 10 15  1  0  0  0  0
 11 12  1  1  0  0  0
 11 13  1  0  0  0  0
 13 14  1  1  0  0  0
 13 15  1  0  0  0  0
 15 26  1  6  0  0  0
 17 18  2  0  0  0  0
 17 22  1  0  0  0  0
 18 19  1  0  0  0  0
 19 20  2  0  0  0  0
 20 21  1  0  0  0  0
 20 26  1  0  0  0  0
 21 22  2  0  0  0  0
 21 24  1  0  0  0  0
 22 23  1  0  0  0  0
 24 25  2  0  0  0  0
 25 26  1  0  0  0  0
M  END
>  <CHROM.1>
107.77135029,63.77816601,-175.88271990,-173.44002554,100.70938673,-37.93760654
75.40759009,48.23440354,55.99557152,31.82650349,-0.42873524,-1.15914789,2.41064545

>  <Name>
ligand

>  <RI>
0

>  <Rbt.Current_Directory>
/home/itssahil/PROJECTS/Mol_Feturizer/New_Systems/rnas/3GX3

>  <Rbt.Executable>
rbdock ($Id: //depot/dev/client3/rdock/2013.1/src/exe/rbdock.cxx#4 $)

>  <Rbt.Library>
libRbt.so (2013.1, Build901 2013/11/27)

>  <Rbt.Parameter_File>
/export/apps/rDock/src/rDock_2013.1_src/data/scripts/dock_solv.prm

>  <Rbt.Receptor>
prm/pocket_docking_7.prm

>  <SCORE>
-16.6225

>  <SCORE.INTER>
-13.2473

>  <SCORE.INTER.CONST>
1

>  <SCORE.INTER.POLAR>
0

>  <SCORE.INTER.ROT>
7

>  <SCORE.INTER.SOLV>
14.7447

>  <SCORE.INTER.VDW>
-22.0131

>  <SCORE.INTER.norm>
-0.509512

>  <SCORE.INTRA>
-3.43829

>  <SCORE.INTRA.DIHEDRAL>
0.660223

>  <SCORE.INTRA.DIHEDRAL.0>
5.78979

>  <SCORE.INTRA.POLAR>
0

>  <SCORE.INTRA.POLAR.0>
0

>  <SCORE.INTRA.REPUL>
0

>  <SCORE.INTRA.REPUL.0>
0

>  <SCORE.INTRA.SOLV>
-0.134211

>  <SCORE.INTRA.SOLV.lig_0>
-49.9151

>  <SCORE.INTRA.VDW>
-3.7013

>  <SCORE.INTRA.VDW.0>
-0.211125

>  <SCORE.INTRA.norm>
-0.132242

>  <SCORE.RESTR>
0.0630801

>  <SCORE.RESTR.CAVITY>
0.0630801

>  <SCORE.RESTR.norm>
0.00242616

>  <SCORE.SYSTEM>
0

>  <SCORE.SYSTEM.CONST>
0

>  <SCORE.SYSTEM.DIHEDRAL>
0

>  <SCORE.SYSTEM.SOLV>
0

>  <SCORE.SYSTEM.norm>
0

>  <SCORE.heavy>
26

>  <SCORE.norm>
-0.639328

>  <RMSD>
2.356

$$$$
ligand
 OpenBabel11021811483D
libRbt.so/2013.1/901 2013/11/27
 26 28  0  0  0  0  0  0  0  0999 V2000
   47.7146   54.7955   26.6467 N   0  0  0  0  0  0  0  0  0  0  0  0
   48.5346   54.8913   27.8576 C   0  0  2  0  0  0  0  0  0  0  0  0
   49.0041   56.3101   28.1870 C   0  0  0  0  0  0  0  0  0  0  0  0
   49.8964   56.8019   27.4956 O   0  0  0  0  0  0  0  0  0  0  0  0
   49.7814   53.9973   27.8668 C   0  0  0  0  0  0  0  0  0  0  0  0
   50.6699   53.9035   29.0950 C   0  0  0  0  0  0  0  0  0  0  0  0
   49.6823   53.1090   30.3839 S   0  0  0  0  0  0  0  0  0  0  0  0
   49.3524   54.7717   31.0149 C   0  0  0  0  0  0  0  0  0  0  0  0
   49.0906   54.8368   32.5234 C   0  0  1  0  0  0  0  0  0  0  0  0
   48.9353   56.1740   33.0121 O   0  0  0  0  0  0  0  0  0  0  0  0
   47.8229   54.0771   32.8863 C   0  0  1  0  0  0  0  0  0  0  0  0
   48.1057   52.7387   33.2297 O   0  0  0  0  0  0  0  0  0  0  0  0
   47.2140   54.8754   34.0317 C   0  0  1  0  0  0  0  0  0  0  0  0
   47.6555   54.4037   35.2888 O   0  0  0  0  0  0  0  0  0  0  0  0
   47.7832   56.2666   33.8341 C   0  0  2  0  0  0  0  0  0  0  0  0
   48.5175   56.9841   29.1034 O   0  0  0  0  0  0  0  0  0  0  0  0
   47.0339   60.6840   31.0876 N   0  0  0  0  0  0  0  0  0  0  0  0
   48.2216   60.1061   31.4590 C   0  0  0  0  0  0  0  0  0  0  0  0
   48.2183   58.9440   32.2017 N   0  0  0  0  0  0  0  0  0  0  0  0
   47.0662   58.3402   32.5428 C   0  0  0  0  0  0  0  0  0  0  0  0
   45.8570   58.9062   32.1763 C   0  0  0  0  0  0  0  0  0  0  0  0
   45.8558   60.0810   31.4508 C   0  0  0  0  0  0  0  0  0  0  0  0
   44.7158   60.6311   31.0805 N   0  0  0  0  0  0  0  0  0  0  0  0
   44.8613   58.1162   32.6366 N   0  0  0  0  0  0  0  0  0  0  0  0
   45.4201   57.0774   33.3074 C   0  0  0  0  0  0  0  0  0  0  0  0
   46.7912   57.2024   33.2556 N   0  0  0  0  0  0  0  0  0  0  0  0
  2  1  1  6  0  0  0
  2  3  1  0  0  0  0
  2  5  1  0  0  0  0
  3  4  1  0  0  0  0
  3 16  1  0  0  0  0
  5  6  1  0  0  0  0
  6  7  1  0  0  0  0
  7  8  1  0  0  0  0
  9  8  1  6  0  0  0
  9 10  1  0  0  0  0
  9 11  1  0  0  0  0
 10 15  1  0  0  0  0
 11 12  1  1  0  0  0
 11 13  1  0  0  0  0
 13 14  1  1  0  0  0
 13 15  1  0  0  0  0
 15 26  1  6  0  0  0
 17 18  2  0  0  0  0
 17 22  1  0  0  0  0
 18 19  1  0  0  0  0
 19 20  2  0  0  0  0
 20 21  1  0  0  0  0
 20 26  1  0  0  0  0
 21 22  2  0  0  0  0
 21 24  1  0  0  0  0
 22 23  1  0  0  0  0
 24 25  2  0  0  0  0
 25 26  1  0  0  0  0
M  END
>  <CHROM.1>
-73.68938199,-175.12569444,66.27980293,-98.07164060,-151.59003170,175.45002221
-33.97484927,47.97485529,56.26585196,31.23964995,-0.05074040,1.06645788,-0.95236587

>  <Name>
ligand

>  <RI>
0

>  <Rbt.Current_Directory>
/home/itssahil/PROJECTS/Mol_Feturizer/New_Systems/rnas/3GX3

>  <Rbt.Executable>
rbdock ($Id: //depot/dev/client3/rdock/2013.1/src/exe/rbdock.cxx#4 $)

>  <Rbt.Library>
libRbt.so (2013.1, Build901 2013/11/27)

>  <Rbt.Parameter_File>
/export/apps/rDock/src/rDock_2013.1_src/data/scripts/dock_solv.prm

>  <Rbt.Receptor>
prm/pocket_docking_3.prm

>  <SCORE>
-15.0832

>  <SCORE.INTER>
-12.6012

>  <SCORE.INTER.CONST>
1

>  <SCORE.INTER.POLAR>
0

>  <SCORE.INTER.ROT>
7

>  <SCORE.INTER.SOLV>
15.0414

>  <SCORE.INTER.VDW>
-21.6813

>  <SCORE.INTER.norm>
-0.48466

>  <SCORE.INTRA>
-2.48205

>  <SCORE.INTRA.DIHEDRAL>
0.136964

>  <SCORE.INTRA.DIHEDRAL.0>
5.78979

>  <SCORE.INTRA.POLAR>
0

>  <SCORE.INTRA.POLAR.0>
0

>  <SCORE.INTRA.REPUL>
0

>  <SCORE.INTRA.REPUL.0>
0

>  <SCORE.INTRA.SOLV>
-0.753374

>  <SCORE.INTRA.SOLV.lig_0>
-49.9151

>  <SCORE.INTRA.VDW>
-2.17385

>  <SCORE.INTRA.VDW.0>
-0.211125

>  <SCORE.INTRA.norm>
-0.0954636

>  <SCORE.RESTR>
0

>  <SCORE.RESTR.CAVITY>
0

>  <SCORE.RESTR.norm>
0

>  <SCORE.SYSTEM>
0

>  <SCORE.SYSTEM.CONST>
0

>  <SCORE.SYSTEM.DIHEDRAL>
0

>  <SCORE.SYSTEM.SOLV>
0

>  <SCORE.SYSTEM.norm>
0

>  <SCORE.heavy>
26

>  <SCORE.norm>
-0.580124

>  <RMSD>
2.369

$$$$
ligand
 OpenBabel11021811483D
libRbt.so/2013.1/901 2013/11/27
 26 28  0  0  0  0  0  0  0  0999 V2000
   51.5430   53.6601   25.5969 N   0  0  0  0  0  0  0  0  0  0  0  0
   50.1759   53.2166   25.8837 C   0  0  2  0  0  0  0  0  0  0  0  0
   49.0928   54.2171   25.4744 C   0  0  0  0  0  0  0  0  0  0  0  0
   49.3540   55.4181   25.5470 O   0  0  0  0  0  0  0  0  0  0  0  0
   49.9095   52.8479   27.3489 C   0  0  0  0  0  0  0  0  0  0  0  0
   50.0370   53.8825   28.4534 C   0  0  0  0  0  0  0  0  0  0  0  0
   49.5164   53.0693   29.9815 S   0  0  0  0  0  0  0  0  0  0  0  0
   49.5376   54.7098   30.7429 C   0  0  0  0  0  0  0  0  0  0  0  0
   49.0787   54.7362   32.2047 C   0  0  1  0  0  0  0  0  0  0  0  0
   49.4403   55.9417   32.8882 O   0  0  0  0  0  0  0  0  0  0  0  0
   47.5657   54.6038   32.2999 C   0  0  1  0  0  0  0  0  0  0  0  0
   47.1753   53.2563   32.4458 O   0  0  0  0  0  0  0  0  0  0  0  0
   47.1804   55.4731   33.4899 C   0  0  1  0  0  0  0  0  0  0  0  0
   47.1526   54.7296   34.6916 O   0  0  0  0  0  0  0  0  0  0  0  0
   48.3225   56.4654   33.5865 C   0  0  2  0  0  0  0  0  0  0  0  0
   47.9784   53.8713   25.0625 O   0  0  0  0  0  0  0  0  0  0  0  0
   44.4152   59.5938   31.9853 N   0  0  0  0  0  0  0  0  0  0  0  0
   44.3392   58.2941   32.4184 C   0  0  0  0  0  0  0  0  0  0  0  0
   45.4872   57.6229   32.7840 N   0  0  0  0  0  0  0  0  0  0  0  0
   46.6862   58.2314   32.7586 C   0  0  0  0  0  0  0  0  0  0  0  0
   46.7841   59.5430   32.3264 C   0  0  0  0  0  0  0  0  0  0  0  0
   45.6398   60.2116   31.9394 C   0  0  0  0  0  0  0  0  0  0  0  0
   45.7081   61.4655   31.5360 N   0  0  0  0  0  0  0  0  0  0  0  0
   48.0816   59.9163   32.3927 N   0  0  0  0  0  0  0  0  0  0  0  0
   48.8055   58.8570   32.8343 C   0  0  0  0  0  0  0  0  0  0  0  0
   47.9505   57.8023   33.0680 N   0  0  0  0  0  0  0  0  0  0  0  0
  2  1  1  1  0  0  0
  2  3  1  0  0  0  0
  2  5  1  0  0  0  0
  3  4  1  0  0  0  0
  3 16  1  0  0  0  0
  5  6  1  0  0  0  0
  6  7  1  0  0  0  0
  7  8  1  0  0  0  0
  9  8  1  6  0  0  0
  9 10  1  0  0  0  0
  9 11  1  0  0  0  0
 10 15  1  0  0  0  0
 11 12  1  1  0  0  0
 11 13  1  0  0  0  0
 13 14  1  1  0  0  0
 13 15  1  0  0  0  0
 15 26  1  6  0  0  0
 17 18  2  0  0  0  0
 17 22  1  0  0  0  0
 18 19  1  0  0  0  0
 19 20  2  0  0  0  0
 20 21  1  0  0  0  0
 20 26  1  0  0  0  0
 21 22  2  0  0  0  0
 21 24  1  0  0  0  0
 22 23  1  0  0  0  0
 24 25  2  0  0  0  0
 25 26  1  0  0  0  0
M  END
>  <CHROM.1>
-32.92292410,62.39715222,175.67833227,-169.33756208,177.20363876,163.98455533
133.64713904,48.06942552,55.97649524,30.67811300,0.52357581,1.10365304,-1.25978837

>  <Name>
ligand

>  <RI>
0

>  <Rbt.Current_Directory>
/home/itssahil/PROJECTS/Mol_Feturizer/New_Systems/rnas/3GX3

>  <Rbt.Executable>
rbdock ($Id: //depot/dev/client3/rdock/2013.1/src/exe/rbdock.cxx#4 $)

>  <Rbt.Library>
libRbt.so (2013.1, Build901 2013/11/27)

>  <Rbt.Parameter_File>
/export/apps/rDock/src/rDock_2013.1_src/data/scripts/dock_solv.prm

>  <Rbt.Receptor>
prm/pocket_docking_5.prm

>  <SCORE>
-14.7286

>  <SCORE.INTER>
-11.7388

>  <SCORE.INTER.CONST>
1

>  <SCORE.INTER.POLAR>
0

>  <SCORE.INTER.ROT>
7

>  <SCORE.INTER.SOLV>
16.3926

>  <SCORE.INTER.VDW>
-21.5568

>  <SCORE.INTER.norm>
-0.451494

>  <SCORE.INTRA>
-2.98978

>  <SCORE.INTRA.DIHEDRAL>
-1.82335

>  <SCORE.INTRA.DIHEDRAL.0>
5.78979

>  <SCORE.INTRA.POLAR>
0

>  <SCORE.INTRA.POLAR.0>
0

>  <SCORE.INTRA.REPUL>
0

>  <SCORE.INTRA.REPUL.0>
0

>  <SCORE.INTRA.SOLV>
-0.40492

>  <SCORE.INTRA.SOLV.lig_0>
-49.9151

>  <SCORE.INTRA.VDW>
-1.87565

>  <SCORE.INTRA.VDW.0>
-0.211125

>  <SCORE.INTRA.norm>
-0.114992

>  <SCORE.RESTR>
0

>  <SCORE.RESTR.CAVITY>
0

>  <SCORE.RESTR.norm>
0

>  <SCORE.SYSTEM>
0

>  <SCORE.SYSTEM.CONST>
0

>  <SCORE.SYSTEM.DIHEDRAL>
0

>  <SCORE.SYSTEM.SOLV>
0

>  <SCORE.SYSTEM.norm>
0

>  <SCORE.heavy>
26

>  <SCORE.norm>
-0.566486

>  <RMSD>
2.394

$$$$
ligand
 OpenBabel11021811483D
libRbt.so/2013.1/901 2013/11/27
 26 28  0  0  0  0  0  0  0  0999 V2000
   49.2992   54.8492   25.7142 N   0  0  0  0  0  0  0  0  0  0  0  0
   50.0502   54.6521   26.9572 C   0  0  2  0  0  0  0  0  0  0  0  0
   50.4157   53.1943   27.2452 C   0  0  0  0  0  0  0  0  0  0  0  0
   51.5817   52.9360   27.5448 O   0  0  0  0  0  0  0  0  0  0  0  0
   49.3674   55.1965   28.2186 C   0  0  0  0  0  0  0  0  0  0  0  0
   50.0857   55.2067   29.5567 C   0  0  0  0  0  0  0  0  0  0  0  0
   50.0731   53.5026   30.1594 S   0  0  0  0  0  0  0  0  0  0  0  0
   48.5912   53.9508   31.0945 C   0  0  0  0  0  0  0  0  0  0  0  0
   48.8439   54.2561   32.5748 C   0  0  1  0  0  0  0  0  0  0  0  0
   49.5721   55.4714   32.7842 O   0  0  0  0  0  0  0  0  0  0  0  0
   47.5307   54.3843   33.3331 C   0  0  1  0  0  0  0  0  0  0  0  0
   47.1388   53.1515   33.8953 O   0  0  0  0  0  0  0  0  0  0  0  0
   47.7955   55.4628   34.3756 C   0  0  1  0  0  0  0  0  0  0  0  0
   48.2510   54.9099   35.5940 O   0  0  0  0  0  0  0  0  0  0  0  0
   48.9358   56.2615   33.7754 C   0  0  2  0  0  0  0  0  0  0  0  0
   49.5908   52.2730   27.2040 O   0  0  0  0  0  0  0  0  0  0  0  0
   44.8337   59.1055   32.1315 N   0  0  0  0  0  0  0  0  0  0  0  0
   44.8375   57.8216   32.6154 C   0  0  0  0  0  0  0  0  0  0  0  0
   46.0271   57.2293   32.9841 N   0  0  0  0  0  0  0  0  0  0  0  0
   47.1899   57.9011   32.9123 C   0  0  0  0  0  0  0  0  0  0  0  0
   47.2073   59.1982   32.4284 C   0  0  0  0  0  0  0  0  0  0  0  0
   46.0211   59.7873   32.0384 C   0  0  0  0  0  0  0  0  0  0  0  0
   46.0127   61.0262   31.5860 N   0  0  0  0  0  0  0  0  0  0  0  0
   48.4830   59.6445   32.4554 N   0  0  0  0  0  0  0  0  0  0  0  0
   49.2721   58.6446   32.9231 C   0  0  0  0  0  0  0  0  0  0  0  0
   48.4812   57.5545   33.2135 N   0  0  0  0  0  0  0  0  0  0  0  0
  2  1  1  6  0  0  0
  2  3  1  0  0  0  0
  2  5  1  0  0  0  0
  3  4  1  0  0  0  0
  3 16  1  0  0  0  0
  5  6  1  0  0  0  0
  6  7  1  0  0  0  0
  7  8  1  0  0  0  0
  9  8  1  6  0  0  0
  9 10  1  0  0  0  0
  9 11  1  0  0  0  0
 10 15  1  0  0  0  0
 11 12  1  1  0  0  0
 11 13  1  0  0  0  0
 13 14  1  1  0  0  0
 13 15  1  0  0  0  0
 15 26  1  6  0  0  0
 17 18  2  0  0  0  0
 17 22  1  0  0  0  0
 18 19  1  0  0  0  0
 19 20  2  0  0  0  0
 20 21  1  0  0  0  0
 20 26  1  0  0  0  0
 21 22  2  0  0  0  0
 21 24  1  0  0  0  0
 22 23  1  0  0  0  0
 24 25  2  0  0  0  0
 25 26  1  0  0  0  0
M  END
>  <CHROM.1>
130.88551100,-173.15940805,-75.61392956,-95.12260560,-99.88914021,69.44925728
105.21146268,48.41989256,55.83558421,31.27974441,0.31731198,1.10179623,-1.08651750

>  <Name>
ligand

>  <RI>
0

>  <Rbt.Current_Directory>
/home/itssahil/PROJECTS/Mol_Feturizer/New_Systems/rnas/3GX3

>  <Rbt.Executable>
rbdock ($Id: //depot/dev/client3/rdock/2013.1/src/exe/rbdock.cxx#4 $)

>  <Rbt.Library>
libRbt.so (2013.1, Build901 2013/11/27)

>  <Rbt.Parameter_File>
/export/apps/rDock/src/rDock_2013.1_src/data/scripts/dock_solv.prm

>  <Rbt.Receptor>
prm/pocket_docking_6.prm

>  <SCORE>
-16.2433

>  <SCORE.INTER>
-14.5989

>  <SCORE.INTER.CONST>
1

>  <SCORE.INTER.POLAR>
0

>  <SCORE.INTER.ROT>
7

>  <SCORE.INTER.SOLV>
15.3838

>  <SCORE.INTER.VDW>
-23.1272

>  <SCORE.INTER.norm>
-0.561496

>  <SCORE.INTRA>
-1.64442

>  <SCORE.INTRA.DIHEDRAL>
1.69594

>  <SCORE.INTRA.DIHEDRAL.0>
5.78979

>  <SCORE.INTRA.POLAR>
0

>  <SCORE.INTRA.POLAR.0>
0

>  <SCORE.INTRA.REPUL>
0

>  <SCORE.INTRA.REPUL.0>
0

>  <SCORE.INTRA.SOLV>
-0.832311

>  <SCORE.INTRA.SOLV.lig_0>
-49.9151

>  <SCORE.INTRA.VDW>
-2.07624

>  <SCORE.INTRA.VDW.0>
-0.211125

>  <SCORE.INTRA.norm>
-0.0632469

>  <SCORE.RESTR>
0

>  <SCORE.RESTR.CAVITY>
0

>  <SCORE.RESTR.norm>
0

>  <SCORE.SYSTEM>
0

>  <SCORE.SYSTEM.CONST>
0

>  <SCORE.SYSTEM.DIHEDRAL>
0

>  <SCORE.SYSTEM.SOLV>
0

>  <SCORE.SYSTEM.norm>
0

>  <SCORE.heavy>
26

>  <SCORE.norm>
-0.624742

>  <RMSD>
2.441

$$$$
ligand
 OpenBabel11021811483D
libRbt.so/2013.1/901 2013/11/27
 26 28  0  0  0  0  0  0  0  0999 V2000
   49.3033   52.8413   27.9719 N   0  0  0  0  0  0  0  0  0  0  0  0
   48.9261   54.2282   28.2583 C   0  0  2  0  0  0  0  0  0  0  0  0
   49.5911   54.8147   29.5055 C   0  0  0  0  0  0  0  0  0  0  0  0
   50.2479   54.0599   30.2230 O   0  0  0  0  0  0  0  0  0  0  0  0
   47.4182   54.4717   28.4026 C   0  0  0  0  0  0  0  0  0  0  0  0
   46.6200   53.8109   29.5129 C   0  0  0  0  0  0  0  0  0  0  0  0
   46.7871   54.8717   30.9670 S   0  0  0  0  0  0  0  0  0  0  0  0
   47.6745   53.4990   31.7414 C   0  0  0  0  0  0  0  0  0  0  0  0
   48.4617   53.8822   32.9991 C   0  0  1  0  0  0  0  0  0  0  0  0
   49.3432   54.9926   32.7968 O   0  0  0  0  0  0  0  0  0  0  0  0
   47.5200   54.2586   34.1337 C   0  0  1  0  0  0  0  0  0  0  0  0
   47.2202   53.1441   34.9446 O   0  0  0  0  0  0  0  0  0  0  0  0
   48.2480   55.3676   34.8821 C   0  0  1  0  0  0  0  0  0  0  0  0
   49.0398   54.8541   35.9343 O   0  0  0  0  0  0  0  0  0  0  0  0
   49.1840   55.9429   33.8375 C   0  0  2  0  0  0  0  0  0  0  0  0
   49.5089   56.0105   29.8126 O   0  0  0  0  0  0  0  0  0  0  0  0
   45.0160   58.7632   32.3236 N   0  0  0  0  0  0  0  0  0  0  0  0
   45.0446   57.4723   32.7878 C   0  0  0  0  0  0  0  0  0  0  0  0
   46.2484   56.8885   33.1224 N   0  0  0  0  0  0  0  0  0  0  0  0
   47.4017   57.5748   33.0363 C   0  0  0  0  0  0  0  0  0  0  0  0
   47.3941   58.8791   32.5719 C   0  0  0  0  0  0  0  0  0  0  0  0
   46.1933   59.4601   32.2159 C   0  0  0  0  0  0  0  0  0  0  0  0
   46.1613   60.7054   31.7827 N   0  0  0  0  0  0  0  0  0  0  0  0
   48.6649   59.3398   32.5788 N   0  0  0  0  0  0  0  0  0  0  0  0
   49.4751   58.3423   33.0146 C   0  0  0  0  0  0  0  0  0  0  0  0
   48.7029   57.2389   33.3049 N   0  0  0  0  0  0  0  0  0  0  0  0
  2  1  1  1  0  0  0
  2  3  1  0  0  0  0
  2  5  1  0  0  0  0
  3  4  1  0  0  0  0
  3 16  1  0  0  0  0
  5  6  1  0  0  0  0
  6  7  1  0  0  0  0
  7  8  1  0  0  0  0
  9  8  1  6  0  0  0
  9 10  1  0  0  0  0
  9 11  1  0  0  0  0
 10 15  1  0  0  0  0
 11 12  1  1  0  0  0
 11 13  1  0  0  0  0
 13 14  1  1  0  0  0
 13 15  1  0  0  0  0
 15 26  1  6  0  0  0
 17 18  2  0  0  0  0
 17 22  1  0  0  0  0
 18 19  1  0  0  0  0
 19 20  2  0  0  0  0
 20 21  1  0  0  0  0
 20 26  1  0  0  0  0
 21 22  2  0  0  0  0
 21 24  1  0  0  0  0
 22 23  1  0  0  0  0
 24 25  2  0  0  0  0
 25 26  1  0  0  0  0
M  END
>  <CHROM.1>
-7.60247446,63.10541623,85.19636056,-114.77366353,164.84825497,-52.44421120
83.44057073,47.88210949,55.85847692,31.97755407,0.66051899,1.21806829,-1.59570722

>  <Name>
ligand

>  <RI>
0

>  <Rbt.Current_Directory>
/home/itssahil/PROJECTS/Mol_Feturizer/New_Systems/rnas/3GX3

>  <Rbt.Executable>
rbdock ($Id: //depot/dev/client3/rdock/2013.1/src/exe/rbdock.cxx#4 $)

>  <Rbt.Library>
libRbt.so (2013.1, Build901 2013/11/27)

>  <Rbt.Parameter_File>
/export/apps/rDock/src/rDock_2013.1_src/data/scripts/dock_solv.prm

>  <Rbt.Receptor>
prm/pocket_docking_5.prm

>  <SCORE>
-14.9126

>  <SCORE.INTER>
-11.1865

>  <SCORE.INTER.CONST>
1

>  <SCORE.INTER.POLAR>
0

>  <SCORE.INTER.ROT>
7

>  <SCORE.INTER.SOLV>
13.8193

>  <SCORE.INTER.VDW>
-20.3308

>  <SCORE.INTER.norm>
-0.430249

>  <SCORE.INTRA>
-3.72611

>  <SCORE.INTRA.DIHEDRAL>
2.09677

>  <SCORE.INTRA.DIHEDRAL.0>
5.78979

>  <SCORE.INTRA.POLAR>
0

>  <SCORE.INTRA.POLAR.0>
0

>  <SCORE.INTRA.REPUL>
0

>  <SCORE.INTRA.REPUL.0>
0

>  <SCORE.INTRA.SOLV>
0.675997

>  <SCORE.INTRA.SOLV.lig_0>
-49.9151

>  <SCORE.INTRA.VDW>
-5.11249

>  <SCORE.INTRA.VDW.0>
-0.211125

>  <SCORE.INTRA.norm>
-0.143312

>  <SCORE.RESTR>
0

>  <SCORE.RESTR.CAVITY>
0

>  <SCORE.RESTR.norm>
0

>  <SCORE.SYSTEM>
0

>  <SCORE.SYSTEM.CONST>
0

>  <SCORE.SYSTEM.DIHEDRAL>
0

>  <SCORE.SYSTEM.SOLV>
0

>  <SCORE.SYSTEM.norm>
0

>  <SCORE.heavy>
26

>  <SCORE.norm>
-0.573561

>  <RMSD>
2.442

$$$$
ligand
 OpenBabel11021811483D
libRbt.so/2013.1/901 2013/11/27
 26 28  0  0  0  0  0  0  0  0999 V2000
   49.7359   52.2600   25.4544 N   0  0  0  0  0  0  0  0  0  0  0  0
   49.7754   53.2475   26.5366 C   0  0  2  0  0  0  0  0  0  0  0  0
   49.8347   54.7001   26.0588 C   0  0  0  0  0  0  0  0  0  0  0  0
   49.1057   55.5238   26.6120 O   0  0  0  0  0  0  0  0  0  0  0  0
   50.9217   53.0625   27.5394 C   0  0  0  0  0  0  0  0  0  0  0  0
   50.9813   53.8753   28.8209 C   0  0  0  0  0  0  0  0  0  0  0  0
   49.6326   53.2824   29.8684 S   0  0  0  0  0  0  0  0  0  0  0  0
   49.6784   54.9026   30.6711 C   0  0  0  0  0  0  0  0  0  0  0  0
   49.2362   54.8959   32.1383 C   0  0  1  0  0  0  0  0  0  0  0  0
   49.5656   56.1044   32.8326 O   0  0  0  0  0  0  0  0  0  0  0  0
   47.7296   54.7120   32.2489 C   0  0  1  0  0  0  0  0  0  0  0  0
   47.3859   53.3506   32.3823 O   0  0  0  0  0  0  0  0  0  0  0  0
   47.3297   55.5534   33.4540 C   0  0  1  0  0  0  0  0  0  0  0  0
   47.3407   54.7948   34.6465 O   0  0  0  0  0  0  0  0  0  0  0  0
   48.4392   56.5820   33.5501 C   0  0  2  0  0  0  0  0  0  0  0  0
   50.5900   55.0811   25.1559 O   0  0  0  0  0  0  0  0  0  0  0  0
   44.4214   59.5746   31.9630 N   0  0  0  0  0  0  0  0  0  0  0  0
   44.3954   58.2648   32.3706 C   0  0  0  0  0  0  0  0  0  0  0  0
   45.5666   57.6352   32.7367 N   0  0  0  0  0  0  0  0  0  0  0  0
   46.7392   58.2937   32.7367 C   0  0  0  0  0  0  0  0  0  0  0  0
   46.7866   59.6164   32.3305 C   0  0  0  0  0  0  0  0  0  0  0  0
   45.6194   60.2439   31.9430 C   0  0  0  0  0  0  0  0  0  0  0  0
   45.6393   61.5071   31.5641 N   0  0  0  0  0  0  0  0  0  0  0  0
   48.0664   60.0423   32.4189 N   0  0  0  0  0  0  0  0  0  0  0  0
   48.8294   59.0058   32.8489 C   0  0  0  0  0  0  0  0  0  0  0  0
   48.0170   57.9119   33.0527 N   0  0  0  0  0  0  0  0  0  0  0  0
  2  1  1  6  0  0  0
  2  3  1  0  0  0  0
  2  5  1  0  0  0  0
  3  4  1  0  0  0  0
  3 16  1  0  0  0  0
  5  6  1  0  0  0  0
  6  7  1  0  0  0  0
  7  8  1  0  0  0  0
  9  8  1  6  0  0  0
  9 10  1  0  0  0  0
  9 11  1  0  0  0  0
 10 15  1  0  0  0  0
 11 12  1  1  0  0  0
 11 13  1  0  0  0  0
 13 14  1  1  0  0  0
 13 15  1  0  0  0  0
 15 26  1  6  0  0  0
 17 18  2  0  0  0  0
 17 22  1  0  0  0  0
 18 19  1  0  0  0  0
 19 20  2  0  0  0  0
 20 21  1  0  0  0  0
 20 26  1  0  0  0  0
 21 22  2  0  0  0  0
 21 24  1  0  0  0  0
 22 23  1  0  0  0  0
 24 25  2  0  0  0  0
 25 26  1  0  0  0  0
M  END
>  <CHROM.1>
135.45343174,-171.04081013,69.63034278,-155.43807709,-150.93385397,166.56277836
132.19810248,48.24981212,56.07915904,30.75579353,0.34517352,1.08913854,-1.12356729

>  <Name>
ligand

>  <RI>
0

>  <Rbt.Current_Directory>
/home/itssahil/PROJECTS/Mol_Feturizer/New_Systems/rnas/3GX3

>  <Rbt.Executable>
rbdock ($Id: //depot/dev/client3/rdock/2013.1/src/exe/rbdock.cxx#4 $)

>  <Rbt.Library>
libRbt.so (2013.1, Build901 2013/11/27)

>  <Rbt.Parameter_File>
/export/apps/rDock/src/rDock_2013.1_src/data/scripts/dock_solv.prm

>  <Rbt.Receptor>
prm/pocket_docking_7.prm

>  <SCORE>
-16.3233

>  <SCORE.INTER>
-13.8706

>  <SCORE.INTER.CONST>
1

>  <SCORE.INTER.POLAR>
0

>  <SCORE.INTER.ROT>
7

>  <SCORE.INTER.SOLV>
15.3587

>  <SCORE.INTER.VDW>
-22.6333

>  <SCORE.INTER.norm>
-0.533483

>  <SCORE.INTRA>
-2.45273

>  <SCORE.INTRA.DIHEDRAL>
0.220893

>  <SCORE.INTRA.DIHEDRAL.0>
5.78979

>  <SCORE.INTRA.POLAR>
0

>  <SCORE.INTRA.POLAR.0>
0

>  <SCORE.INTRA.REPUL>
0

>  <SCORE.INTRA.REPUL.0>
0

>  <SCORE.INTRA.SOLV>
-0.844105

>  <SCORE.INTRA.SOLV.lig_0>
-49.9151

>  <SCORE.INTRA.VDW>
-2.14113

>  <SCORE.INTRA.VDW.0>
-0.211125

>  <SCORE.INTRA.norm>
-0.0943359

>  <SCORE.RESTR>
0

>  <SCORE.RESTR.CAVITY>
0

>  <SCORE.RESTR.norm>
0

>  <SCORE.SYSTEM>
0

>  <SCORE.SYSTEM.CONST>
0

>  <SCORE.SYSTEM.DIHEDRAL>
0

>  <SCORE.SYSTEM.SOLV>
0

>  <SCORE.SYSTEM.norm>
0

>  <SCORE.heavy>
26

>  <SCORE.norm>
-0.627819

>  <RMSD>
2.493

$$$$
ligand
 OpenBabel11021811483D
libRbt.so/2013.1/901 2013/11/27
 26 28  0  0  0  0  0  0  0  0999 V2000
   48.5711   55.2206   27.3947 N   0  0  0  0  0  0  0  0  0  0  0  0
   49.2033   54.8394   28.6607 C   0  0  2  0  0  0  0  0  0  0  0  0
   50.7260   54.7064   28.5866 C   0  0  0  0  0  0  0  0  0  0  0  0
   51.3962   55.7367   28.5119 O   0  0  0  0  0  0  0  0  0  0  0  0
   48.6737   53.5409   29.2828 C   0  0  0  0  0  0  0  0  0  0  0  0
   47.2358   53.4291   29.7589 C   0  0  0  0  0  0  0  0  0  0  0  0
   47.0613   54.5811   31.1410 S   0  0  0  0  0  0  0  0  0  0  0  0
   47.7073   53.2593   32.1929 C   0  0  0  0  0  0  0  0  0  0  0  0
   48.5256   53.7470   33.3933 C   0  0  1  0  0  0  0  0  0  0  0  0
   49.3554   54.8743   33.0902 O   0  0  0  0  0  0  0  0  0  0  0  0
   47.6131   54.1578   34.5398 C   0  0  1  0  0  0  0  0  0  0  0  0
   47.3871   53.0850   35.4271 O   0  0  0  0  0  0  0  0  0  0  0  0
   48.3252   55.3363   35.1911 C   0  0  1  0  0  0  0  0  0  0  0  0
   49.1750   54.9173   36.2399 O   0  0  0  0  0  0  0  0  0  0  0  0
   49.1985   55.8802   34.0777 C   0  0  2  0  0  0  0  0  0  0  0  0
   51.3083   53.6150   28.6132 O   0  0  0  0  0  0  0  0  0  0  0  0
   44.8780   58.4204   32.4970 N   0  0  0  0  0  0  0  0  0  0  0  0
   44.9752   57.1583   33.0264 C   0  0  0  0  0  0  0  0  0  0  0  0
   46.2105   56.6494   33.3685 N   0  0  0  0  0  0  0  0  0  0  0  0
   47.3284   57.3833   33.2263 C   0  0  0  0  0  0  0  0  0  0  0  0
   47.2516   58.6597   32.6957 C   0  0  0  0  0  0  0  0  0  0  0  0
   46.0191   59.1648   32.3322 C   0  0  0  0  0  0  0  0  0  0  0  0
   45.9212   60.3830   31.8362 N   0  0  0  0  0  0  0  0  0  0  0  0
   48.4991   59.1788   32.6557 N   0  0  0  0  0  0  0  0  0  0  0  0
   49.3625   58.2442   33.1274 C   0  0  0  0  0  0  0  0  0  0  0  0
   48.6481   57.1227   33.4881 N   0  0  0  0  0  0  0  0  0  0  0  0
  2  1  1  6  0  0  0
  2  3  1  0  0  0  0
  2  5  1  0  0  0  0
  3  4  1  0  0  0  0
  3 16  1  0  0  0  0
  5  6  1  0  0  0  0
  6  7  1  0  0  0  0
  7  8  1  0  0  0  0
  9  8  1  6  0  0  0
  9 10  1  0  0  0  0
  9 11  1  0  0  0  0
 10 15  1  0  0  0  0
 11 12  1  1  0  0  0
 11 13  1  0  0  0  0
 13 14  1  1  0  0  0
 13 15  1  0  0  0  0
 15 26  1  6  0  0  0
 17 18  2  0  0  0  0
 17 22  1  0  0  0  0
 18 19  1  0  0  0  0
 19 20  2  0  0  0  0
 20 21  1  0  0  0  0
 20 26  1  0  0  0  0
 21 22  2  0  0  0  0
 21 24  1  0  0  0  0
 22 23  1  0  0  0  0
 24 25  2  0  0  0  0
 25 26  1  0  0  0  0
M  END
>  <CHROM.1>
73.47482370,-64.35363765,-65.33032738,-84.83266638,148.27100176,-38.53959521
82.00242105,48.10090412,55.75533433,32.03560002,0.45904153,1.07847161,-1.04872551

>  <Name>
ligand

>  <RI>
0

>  <Rbt.Current_Directory>
/home/itssahil/PROJECTS/Mol_Feturizer/New_Systems/rnas/3GX3

>  <Rbt.Executable>
rbdock ($Id: //depot/dev/client3/rdock/2013.1/src/exe/rbdock.cxx#4 $)

>  <Rbt.Library>
libRbt.so (2013.1, Build901 2013/11/27)

>  <Rbt.Parameter_File>
/export/apps/rDock/src/rDock_2013.1_src/data/scripts/dock_solv.prm

>  <Rbt.Receptor>
prm/pocket_docking_3.prm

>  <SCORE>
-15.3563

>  <SCORE.INTER>
-13.4072

>  <SCORE.INTER.CONST>
1

>  <SCORE.INTER.POLAR>
0

>  <SCORE.INTER.ROT>
7

>  <SCORE.INTER.SOLV>
13.0357

>  <SCORE.INTER.VDW>
-21.55

>  <SCORE.INTER.norm>
-0.515662

>  <SCORE.INTRA>
-1.94912

>  <SCORE.INTRA.DIHEDRAL>
0.961923

>  <SCORE.INTRA.DIHEDRAL.0>
5.78979

>  <SCORE.INTRA.POLAR>
0

>  <SCORE.INTRA.POLAR.0>
0

>  <SCORE.INTRA.REPUL>
0

>  <SCORE.INTRA.REPUL.0>
0

>  <SCORE.INTRA.SOLV>
0.271042

>  <SCORE.INTRA.SOLV.lig_0>
-49.9151

>  <SCORE.INTRA.VDW>
-2.5656

>  <SCORE.INTRA.VDW.0>
-0.211125

>  <SCORE.INTRA.norm>
-0.0749662

>  <SCORE.RESTR>
0

>  <SCORE.RESTR.CAVITY>
0

>  <SCORE.RESTR.norm>
0

>  <SCORE.SYSTEM>
0

>  <SCORE.SYSTEM.CONST>
0

>  <SCORE.SYSTEM.DIHEDRAL>
0

>  <SCORE.SYSTEM.SOLV>
0

>  <SCORE.SYSTEM.norm>
0

>  <SCORE.heavy>
26

>  <SCORE.norm>
-0.590628

>  <RMSD>
2.514

$$$$
ligand
 OpenBabel11021811483D
libRbt.so/2013.1/901 2013/11/27
 26 28  0  0  0  0  0  0  0  0999 V2000
   48.9391   54.9095   26.7460 N   0  0  0  0  0  0  0  0  0  0  0  0
   50.2625   54.5660   27.2736 C   0  0  2  0  0  0  0  0  0  0  0  0
   50.5195   53.0622   27.3930 C   0  0  0  0  0  0  0  0  0  0  0  0
   49.5468   52.3093   27.4493 O   0  0  0  0  0  0  0  0  0  0  0  0
   50.5950   55.1833   28.6381 C   0  0  0  0  0  0  0  0  0  0  0  0
   49.6448   55.0431   29.8146 C   0  0  0  0  0  0  0  0  0  0  0  0
   49.6946   53.3056   30.3108 S   0  0  0  0  0  0  0  0  0  0  0  0
   48.3552   53.7002   31.4605 C   0  0  0  0  0  0  0  0  0  0  0  0
   48.8219   54.0987   32.8646 C   0  0  1  0  0  0  0  0  0  0  0  0
   49.5739   55.3175   32.8848 O   0  0  0  0  0  0  0  0  0  0  0  0
   47.6339   54.2898   33.7963 C   0  0  1  0  0  0  0  0  0  0  0  0
   47.3275   53.1005   34.4899 O   0  0  0  0  0  0  0  0  0  0  0  0
   48.0492   55.4313   34.7154 C   0  0  1  0  0  0  0  0  0  0  0  0
   48.6776   54.9544   35.8881 O   0  0  0  0  0  0  0  0  0  0  0  0
   49.0899   56.1771   33.9038 C   0  0  2  0  0  0  0  0  0  0  0  0
   51.6560   52.5738   27.4204 O   0  0  0  0  0  0  0  0  0  0  0  0
   44.8151   58.7853   32.3097 N   0  0  0  0  0  0  0  0  0  0  0  0
   44.8936   57.5126   32.8164 C   0  0  0  0  0  0  0  0  0  0  0  0
   46.1193   56.9863   33.1665 N   0  0  0  0  0  0  0  0  0  0  0  0
   47.2455   57.7127   33.0543 C   0  0  0  0  0  0  0  0  0  0  0  0
   47.1876   58.9995   32.5469 C   0  0  0  0  0  0  0  0  0  0  0  0
   45.9649   59.5224   32.1754 C   0  0  0  0  0  0  0  0  0  0  0  0
   45.8848   60.7505   31.7012 N   0  0  0  0  0  0  0  0  0  0  0  0
   48.4399   59.5081   32.5346 N   0  0  0  0  0  0  0  0  0  0  0  0
   49.2882   58.5571   33.0008 C   0  0  0  0  0  0  0  0  0  0  0  0
   48.5590   57.4355   33.3300 N   0  0  0  0  0  0  0  0  0  0  0  0
  2  1  1  1  0  0  0
  2  3  1  0  0  0  0
  2  5  1  0  0  0  0
  3  4  1  0  0  0  0
  3 16  1  0  0  0  0
  5  6  1  0  0  0  0
  6  7  1  0  0  0  0
  7  8  1  0  0  0  0
  9  8  1  6  0  0  0
  9 10  1  0  0  0  0
  9 11  1  0  0  0  0
 10 15  1  0  0  0  0
 11 12  1  1  0  0  0
 11 13  1  0  0  0  0
 13 14  1  1  0  0  0
 13 15  1  0  0  0  0
 15 26  1  6  0  0  0
 17 18  2  0  0  0  0
 17 22  1  0  0  0  0
 18 19  1  0  0  0  0
 19 20  2  0  0  0  0
 20 21  1  0  0  0  0
 20 26  1  0  0  0  0
 21 22  2  0  0  0  0
 21 24  1  0  0  0  0
 22 23  1  0  0  0  0
 24 25  2  0  0  0  0
 25 26  1  0  0  0  0
M  END
>  <CHROM.1>
-21.72331636,51.62710738,69.80969228,-173.60470433,-92.07080159,64.72696617
97.04865399,48.45087899,55.68993964,31.52224653,0.33274144,1.09190494,-1.10329604

>  <Name>
ligand

>  <RI>
0

>  <Rbt.Current_Directory>
/home/itssahil/PROJECTS/Mol_Feturizer/New_Systems/rnas/3GX3

>  <Rbt.Executable>
rbdock ($Id: //depot/dev/client3/rdock/2013.1/src/exe/rbdock.cxx#4 $)

>  <Rbt.Library>
libRbt.so (2013.1, Build901 2013/11/27)

>  <Rbt.Parameter_File>
/export/apps/rDock/src/rDock_2013.1_src/data/scripts/dock_solv.prm

>  <Rbt.Receptor>
prm/pocket_docking_5.prm

>  <SCORE>
-18.8767

>  <SCORE.INTER>
-15.9348

>  <SCORE.INTER.CONST>
1

>  <SCORE.INTER.POLAR>
0

>  <SCORE.INTER.ROT>
7

>  <SCORE.INTER.SOLV>
14.5395

>  <SCORE.INTER.VDW>
-23.7364

>  <SCORE.INTER.norm>
-0.612877

>  <SCORE.INTRA>
-2.9419

>  <SCORE.INTRA.DIHEDRAL>
-0.778906

>  <SCORE.INTRA.DIHEDRAL.0>
5.78979

>  <SCORE.INTRA.POLAR>
0

>  <SCORE.INTRA.POLAR.0>
0

>  <SCORE.INTRA.REPUL>
0

>  <SCORE.INTRA.REPUL.0>
0

>  <SCORE.INTRA.SOLV>
0.348916

>  <SCORE.INTRA.SOLV.lig_0>
-49.9151

>  <SCORE.INTRA.VDW>
-2.72691

>  <SCORE.INTRA.VDW.0>
-0.211125

>  <SCORE.INTRA.norm>
-0.11315

>  <SCORE.RESTR>
0

>  <SCORE.RESTR.CAVITY>
0

>  <SCORE.RESTR.norm>
0

>  <SCORE.SYSTEM>
0

>  <SCORE.SYSTEM.CONST>
0

>  <SCORE.SYSTEM.DIHEDRAL>
0

>  <SCORE.SYSTEM.SOLV>
0

>  <SCORE.SYSTEM.norm>
0

>  <SCORE.heavy>
26

>  <SCORE.norm>
-0.726027

>  <RMSD>
2.521

$$$$
ligand
 OpenBabel11021811483D
libRbt.so/2013.1/901 2013/11/27
 26 28  0  0  0  0  0  0  0  0999 V2000
   47.7198   53.8451   27.8092 N   0  0  0  0  0  0  0  0  0  0  0  0
   47.0873   55.1638   27.9021 C   0  0  2  0  0  0  0  0  0  0  0  0
   45.7540   55.2740   27.1590 C   0  0  0  0  0  0  0  0  0  0  0  0
   45.5031   54.4396   26.2890 O   0  0  0  0  0  0  0  0  0  0  0  0
   47.9585   56.3339   27.4274 C   0  0  0  0  0  0  0  0  0  0  0  0
   49.1535   56.8018   28.2397 C   0  0  0  0  0  0  0  0  0  0  0  0
   48.5041   57.3691   29.8285 S   0  0  0  0  0  0  0  0  0  0  0  0
   49.6138   56.1655   30.5974 C   0  0  0  0  0  0  0  0  0  0  0  0
   49.1057   55.5926   31.9248 C   0  0  1  0  0  0  0  0  0  0  0  0
   48.6718   56.6002   32.8453 O   0  0  0  0  0  0  0  0  0  0  0  0
   47.9270   54.6578   31.6954 C   0  0  1  0  0  0  0  0  0  0  0  0
   48.3515   53.3207   31.5496 O   0  0  0  0  0  0  0  0  0  0  0  0
   47.0272   54.8739   32.9053 C   0  0  1  0  0  0  0  0  0  0  0  0
   47.3273   53.9670   33.9470 O   0  0  0  0  0  0  0  0  0  0  0  0
   47.4020   56.2640   33.3801 C   0  0  2  0  0  0  0  0  0  0  0  0
   44.9173   56.1518   27.4047 O   0  0  0  0  0  0  0  0  0  0  0  0
   46.5192   61.0037   31.2888 N   0  0  0  0  0  0  0  0  0  0  0  0
   47.7213   60.3706   31.4805 C   0  0  0  0  0  0  0  0  0  0  0  0
   47.7556   59.1233   32.0678 N   0  0  0  0  0  0  0  0  0  0  0  0
   46.6235   58.4930   32.4278 C   0  0  0  0  0  0  0  0  0  0  0  0
   45.4002   59.1139   32.2413 C   0  0  0  0  0  0  0  0  0  0  0  0
   45.3632   60.3717   31.6730 C   0  0  0  0  0  0  0  0  0  0  0  0
   44.2081   60.9766   31.4747 N   0  0  0  0  0  0  0  0  0  0  0  0
   44.4301   58.2821   32.6821 N   0  0  0  0  0  0  0  0  0  0  0  0
   45.0210   57.1603   33.1656 C   0  0  0  0  0  0  0  0  0  0  0  0
   46.3852   57.2765   33.0121 N   0  0  0  0  0  0  0  0  0  0  0  0
  2  1  1  6  0  0  0
  2  3  1  0  0  0  0
  2  5  1  0  0  0  0
  3  4  1  0  0  0  0
  3 16  1  0  0  0  0
  5  6  1  0  0  0  0
  6  7  1  0  0  0  0
  7  8  1  0  0  0  0
  9  8  1  6  0  0  0
  9 10  1  0  0  0  0
  9 11  1  0  0  0  0
 10 15  1  0  0  0  0
 11 12  1  1  0  0  0
 11 13  1  0  0  0  0
 13 14  1  1  0  0  0
 13 15  1  0  0  0  0
 15 26  1  6  0  0  0
 17 18  2  0  0  0  0
 17 22  1  0  0  0  0
 18 19  1  0  0  0  0
 19 20  2  0  0  0  0
 20 21  1  0  0  0  0
 20 26  1  0  0  0  0
 21 22  2  0  0  0  0
 21 24  1  0  0  0  0
 22 23  1  0  0  0  0
 24 25  2  0  0  0  0
 25 26  1  0  0  0  0
M  END
>  <CHROM.1>
-19.05947580,-71.52213704,-62.17440753,122.96496565,-149.85182612,-49.45561385
-10.07334189,47.07414218,56.82509210,30.77507447,1.12367205,1.11263718,-1.94815702

>  <Name>
ligand

>  <RI>
0

>  <Rbt.Current_Directory>
/home/itssahil/PROJECTS/Mol_Feturizer/New_Systems/rnas/3GX3

>  <Rbt.Executable>
rbdock ($Id: //depot/dev/client3/rdock/2013.1/src/exe/rbdock.cxx#4 $)

>  <Rbt.Library>
libRbt.so (2013.1, Build901 2013/11/27)

>  <Rbt.Parameter_File>
/export/apps/rDock/src/rDock_2013.1_src/data/scripts/dock_solv.prm

>  <Rbt.Receptor>
prm/pocket_docking_3.prm

>  <SCORE>
-12.839

>  <SCORE.INTER>
-10.4784

>  <SCORE.INTER.CONST>
1

>  <SCORE.INTER.POLAR>
0

>  <SCORE.INTER.ROT>
7

>  <SCORE.INTER.SOLV>
17.1026

>  <SCORE.INTER.VDW>
-20.9532

>  <SCORE.INTER.norm>
-0.403017

>  <SCORE.INTRA>
-2.36183

>  <SCORE.INTRA.DIHEDRAL>
1.60795

>  <SCORE.INTRA.DIHEDRAL.0>
5.78979

>  <SCORE.INTRA.POLAR>
0

>  <SCORE.INTRA.POLAR.0>
0

>  <SCORE.INTRA.REPUL>
0

>  <SCORE.INTRA.REPUL.0>
0

>  <SCORE.INTRA.SOLV>
1.54123

>  <SCORE.INTRA.SOLV.lig_0>
-49.9151

>  <SCORE.INTRA.VDW>
-3.93642

>  <SCORE.INTRA.VDW.0>
-0.211125

>  <SCORE.INTRA.norm>
-0.0908398

>  <SCORE.RESTR>
0.00125188

>  <SCORE.RESTR.CAVITY>
0.00125188

>  <SCORE.RESTR.norm>
4.81494e-05

>  <SCORE.SYSTEM>
0

>  <SCORE.SYSTEM.CONST>
0

>  <SCORE.SYSTEM.DIHEDRAL>
0

>  <SCORE.SYSTEM.SOLV>
0

>  <SCORE.SYSTEM.norm>
0

>  <SCORE.heavy>
26

>  <SCORE.norm>
-0.493809

>  <RMSD>
2.620

$$$$
ligand
 OpenBabel11021811483D
libRbt.so/2013.1/901 2013/11/27
 26 28  0  0  0  0  0  0  0  0999 V2000
   48.0530   52.8864   26.0904 N   0  0  0  0  0  0  0  0  0  0  0  0
   46.9241   52.1867   26.7099 C   0  0  2  0  0  0  0  0  0  0  0  0
   45.5509   52.7122   26.2856 C   0  0  0  0  0  0  0  0  0  0  0  0
   45.4072   53.9289   26.1624 O   0  0  0  0  0  0  0  0  0  0  0  0
   46.9380   52.1677   28.2439 C   0  0  0  0  0  0  0  0  0  0  0  0
   46.8500   53.4552   29.0448 C   0  0  0  0  0  0  0  0  0  0  0  0
   46.9280   52.9821   30.7877 S   0  0  0  0  0  0  0  0  0  0  0  0
   48.2627   54.1916   30.9520 C   0  0  0  0  0  0  0  0  0  0  0  0
   48.7381   54.4196   32.3909 C   0  0  1  0  0  0  0  0  0  0  0  0
   49.5283   55.6042   32.5433 O   0  0  0  0  0  0  0  0  0  0  0  0
   47.5542   54.5457   33.3387 C   0  0  1  0  0  0  0  0  0  0  0  0
   47.2083   53.2982   33.8987 O   0  0  0  0  0  0  0  0  0  0  0  0
   48.0030   55.5663   34.3766 C   0  0  1  0  0  0  0  0  0  0  0  0
   48.6128   54.9445   35.4898 O   0  0  0  0  0  0  0  0  0  0  0  0
   49.0692   56.3626   33.6503 C   0  0  2  0  0  0  0  0  0  0  0  0
   44.5900   51.9696   26.0487 O   0  0  0  0  0  0  0  0  0  0  0  0
   44.9248   59.1948   32.0942 N   0  0  0  0  0  0  0  0  0  0  0  0
   44.9686   57.8631   32.4217 C   0  0  0  0  0  0  0  0  0  0  0  0
   46.1645   57.2854   32.7935 N   0  0  0  0  0  0  0  0  0  0  0  0
   47.2920   58.0135   32.8770 C   0  0  0  0  0  0  0  0  0  0  0  0
   47.2687   59.3592   32.5526 C   0  0  0  0  0  0  0  0  0  0  0  0
   46.0777   59.9365   32.1595 C   0  0  0  0  0  0  0  0  0  0  0  0
   46.0299   61.2195   31.8577 N   0  0  0  0  0  0  0  0  0  0  0  0
   48.5150   59.8568   32.7145 N   0  0  0  0  0  0  0  0  0  0  0  0
   49.3276   58.8446   33.1103 C   0  0  0  0  0  0  0  0  0  0  0  0
   48.5801   57.6923   33.2176 N   0  0  0  0  0  0  0  0  0  0  0  0
  2  1  1  1  0  0  0
  2  3  1  0  0  0  0
  2  5  1  0  0  0  0
  3  4  1  0  0  0  0
  3 16  1  0  0  0  0
  5  6  1  0  0  0  0
  6  7  1  0  0  0  0
  7  8  1  0  0  0  0
  9  8  1  6  0  0  0
  9 10  1  0  0  0  0
  9 11  1  0  0  0  0
 10 15  1  0  0  0  0
 11 12  1  1  0  0  0
 11 13  1  0  0  0  0
 13 14  1  1  0  0  0
 13 15  1  0  0  0  0
 15 26  1  6  0  0  0
 17 18  2  0  0  0  0
 17 22  1  0  0  0  0
 18 19  1  0  0  0  0
 19 20  2  0  0  0  0
 20 21  1  0  0  0  0
 20 26  1  0  0  0  0
 21 22  2  0  0  0  0
 21 24  1  0  0  0  0
 22 23  1  0  0  0  0
 24 25  2  0  0  0  0
 25 26  1  0  0  0  0
M  END
>  <CHROM.1>
-39.82403248,62.81681577,-179.04437435,127.87715148,173.28277231,-164.66449792
91.73013416,47.19283684,55.55539324,31.16938196,1.89682744,1.08561734,-2.61341511

>  <Name>
ligand

>  <RI>
0

>  <Rbt.Current_Directory>
/home/itssahil/PROJECTS/Mol_Feturizer/New_Systems/rnas/3GX3

>  <Rbt.Executable>
rbdock ($Id: //depot/dev/client3/rdock/2013.1/src/exe/rbdock.cxx#4 $)

>  <Rbt.Library>
libRbt.so (2013.1, Build901 2013/11/27)

>  <Rbt.Parameter_File>
/export/apps/rDock/src/rDock_2013.1_src/data/scripts/dock_solv.prm

>  <Rbt.Receptor>
prm/pocket_docking_6.prm

>  <SCORE>
-16.1352

>  <SCORE.INTER>
-14.0155

>  <SCORE.INTER.CONST>
1

>  <SCORE.INTER.POLAR>
0

>  <SCORE.INTER.ROT>
7

>  <SCORE.INTER.SOLV>
16.2629

>  <SCORE.INTER.VDW>
-23.0313

>  <SCORE.INTER.norm>
-0.539058

>  <SCORE.INTRA>
-2.11972

>  <SCORE.INTRA.DIHEDRAL>
0.295747

>  <SCORE.INTRA.DIHEDRAL.0>
5.78979

>  <SCORE.INTRA.POLAR>
0

>  <SCORE.INTRA.POLAR.0>
0

>  <SCORE.INTRA.REPUL>
0

>  <SCORE.INTRA.REPUL.0>
0

>  <SCORE.INTRA.SOLV>
-0.300159

>  <SCORE.INTRA.SOLV.lig_0>
-49.9151

>  <SCORE.INTRA.VDW>
-2.11751

>  <SCORE.INTRA.VDW.0>
-0.211125

>  <SCORE.INTRA.norm>
-0.0815276

>  <SCORE.RESTR>
0

>  <SCORE.RESTR.CAVITY>
0

>  <SCORE.RESTR.norm>
0

>  <SCORE.SYSTEM>
0

>  <SCORE.SYSTEM.CONST>
0

>  <SCORE.SYSTEM.DIHEDRAL>
0

>  <SCORE.SYSTEM.SOLV>
0

>  <SCORE.SYSTEM.norm>
0

>  <SCORE.heavy>
26

>  <SCORE.norm>
-0.620585

>  <RMSD>
2.661

$$$$
ligand
 OpenBabel11021811483D
libRbt.so/2013.1/901 2013/11/27
 26 28  0  0  0  0  0  0  0  0999 V2000
   44.3229   53.2505   29.5254 N   0  0  0  0  0  0  0  0  0  0  0  0
   45.0419   53.7680   28.3579 C   0  0  2  0  0  0  0  0  0  0  0  0
   45.6306   52.6841   27.4523 C   0  0  0  0  0  0  0  0  0  0  0  0
   45.2697   52.6511   26.2755 O   0  0  0  0  0  0  0  0  0  0  0  0
   46.1804   54.7445   28.6801 C   0  0  0  0  0  0  0  0  0  0  0  0
   47.3650   54.3155   29.5282 C   0  0  0  0  0  0  0  0  0  0  0  0
   48.4239   55.7699   29.7048 S   0  0  0  0  0  0  0  0  0  0  0  0
   49.4979   54.7383   30.7314 C   0  0  0  0  0  0  0  0  0  0  0  0
   49.2568   54.8756   32.2385 C   0  0  1  0  0  0  0  0  0  0  0  0
   49.6620   56.1458   32.7615 O   0  0  0  0  0  0  0  0  0  0  0  0
   47.7810   54.7053   32.5686 C   0  0  1  0  0  0  0  0  0  0  0  0
   47.4747   53.3638   32.8786 O   0  0  0  0  0  0  0  0  0  0  0  0
   47.5366   55.6609   33.7292 C   0  0  1  0  0  0  0  0  0  0  0  0
   47.7167   55.0226   34.9773 O   0  0  0  0  0  0  0  0  0  0  0  0
   48.6366   56.6927   33.5745 C   0  0  2  0  0  0  0  0  0  0  0  0
   46.4593   51.8544   27.8471 O   0  0  0  0  0  0  0  0  0  0  0  0
   44.4187   59.4351   32.0560 N   0  0  0  0  0  0  0  0  0  0  0  0
   44.4662   58.1594   32.5589 C   0  0  0  0  0  0  0  0  0  0  0  0
   45.6806   57.5948   32.8878 N   0  0  0  0  0  0  0  0  0  0  0  0
   46.8267   58.2864   32.7584 C   0  0  0  0  0  0  0  0  0  0  0  0
   46.8002   59.5756   32.2545 C   0  0  0  0  0  0  0  0  0  0  0  0
   45.5883   60.1368   31.9041 C   0  0  0  0  0  0  0  0  0  0  0  0
   45.5384   61.3679   31.4336 N   0  0  0  0  0  0  0  0  0  0  0  0
   48.0673   60.0453   32.2225 N   0  0  0  0  0  0  0  0  0  0  0  0
   48.8934   59.0675   32.6729 C   0  0  0  0  0  0  0  0  0  0  0  0
   48.1354   57.9681   33.0119 N   0  0  0  0  0  0  0  0  0  0  0  0
  2  1  1  1  0  0  0
  2  3  1  0  0  0  0
  2  5  1  0  0  0  0
  3  4  1  0  0  0  0
  3 16  1  0  0  0  0
  5  6  1  0  0  0  0
  6  7  1  0  0  0  0
  7  8  1  0  0  0  0
  9  8  1  6  0  0  0
  9 10  1  0  0  0  0
  9 11  1  0  0  0  0
 10 15  1  0  0  0  0
 11 12  1  1  0  0  0
 11 13  1  0  0  0  0
 13 14  1  1  0  0  0
 13 15  1  0  0  0  0
 15 26  1  6  0  0  0
 17 18  2  0  0  0  0
 17 22  1  0  0  0  0
 18 19  1  0  0  0  0
 19 20  2  0  0  0  0
 20 21  1  0  0  0  0
 20 26  1  0  0  0  0
 21 22  2  0  0  0  0
 21 24  1  0  0  0  0
 22 23  1  0  0  0  0
 24 25  2  0  0  0  0
 25 26  1  0  0  0  0
M  END
>  <CHROM.1>
121.03823266,60.73720392,-178.06624349,178.57305740,-96.25638744,-69.45589465
127.84444151,47.03903096,56.09790056,31.22317574,1.73717036,0.79571686,-2.60276357

>  <Name>
ligand

>  <RI>
0

>  <Rbt.Current_Directory>
/home/itssahil/PROJECTS/Mol_Feturizer/New_Systems/rnas/3GX3

>  <Rbt.Executable>
rbdock ($Id: //depot/dev/client3/rdock/2013.1/src/exe/rbdock.cxx#4 $)

>  <Rbt.Library>
libRbt.so (2013.1, Build901 2013/11/27)

>  <Rbt.Parameter_File>
/export/apps/rDock/src/rDock_2013.1_src/data/scripts/dock_solv.prm

>  <Rbt.Receptor>
prm/pocket_docking_6.prm

>  <SCORE>
-12.3438

>  <SCORE.INTER>
-9.53815

>  <SCORE.INTER.CONST>
1

>  <SCORE.INTER.POLAR>
0

>  <SCORE.INTER.ROT>
7

>  <SCORE.INTER.SOLV>
17.072

>  <SCORE.INTER.VDW>
-20.3161

>  <SCORE.INTER.norm>
-0.366852

>  <SCORE.INTRA>
-2.80567

>  <SCORE.INTRA.DIHEDRAL>
-1.07117

>  <SCORE.INTRA.DIHEDRAL.0>
5.78979

>  <SCORE.INTRA.POLAR>
0

>  <SCORE.INTRA.POLAR.0>
0

>  <SCORE.INTRA.REPUL>
0

>  <SCORE.INTRA.REPUL.0>
0

>  <SCORE.INTRA.SOLV>
-0.107434

>  <SCORE.INTRA.SOLV.lig_0>
-49.9151

>  <SCORE.INTRA.VDW>
-2.21636

>  <SCORE.INTRA.VDW.0>
-0.211125

>  <SCORE.INTRA.norm>
-0.10791

>  <SCORE.RESTR>
0

>  <SCORE.RESTR.CAVITY>
0

>  <SCORE.RESTR.norm>
0

>  <SCORE.SYSTEM>
0

>  <SCORE.SYSTEM.CONST>
0

>  <SCORE.SYSTEM.DIHEDRAL>
0

>  <SCORE.SYSTEM.SOLV>
0

>  <SCORE.SYSTEM.norm>
0

>  <SCORE.heavy>
26

>  <SCORE.norm>
-0.474762

>  <RMSD>
2.686

$$$$
ligand
 OpenBabel11021811483D
libRbt.so/2013.1/901 2013/11/27
 26 28  0  0  0  0  0  0  0  0999 V2000
   50.1979   53.7282   26.1574 N   0  0  0  0  0  0  0  0  0  0  0  0
   49.4483   52.8104   27.0198 C   0  0  2  0  0  0  0  0  0  0  0  0
   48.6496   51.7481   26.2614 C   0  0  0  0  0  0  0  0  0  0  0  0
   48.9465   50.5655   26.4329 O   0  0  0  0  0  0  0  0  0  0  0  0
   48.4749   53.4875   27.9933 C   0  0  0  0  0  0  0  0  0  0  0  0
   48.9767   54.4184   29.0833 C   0  0  0  0  0  0  0  0  0  0  0  0
   49.7982   53.3763   30.3108 S   0  0  0  0  0  0  0  0  0  0  0  0
   48.4104   53.7501   31.4088 C   0  0  0  0  0  0  0  0  0  0  0  0
   48.8143   54.0940   32.8465 C   0  0  1  0  0  0  0  0  0  0  0  0
   49.5708   55.3060   32.9456 O   0  0  0  0  0  0  0  0  0  0  0  0
   47.5859   54.2592   33.7294 C   0  0  1  0  0  0  0  0  0  0  0  0
   47.2419   53.0475   34.3641 O   0  0  0  0  0  0  0  0  0  0  0  0
   47.9645   55.3635   34.7077 C   0  0  1  0  0  0  0  0  0  0  0  0
   48.5360   54.8399   35.8896 O   0  0  0  0  0  0  0  0  0  0  0  0
   49.0452   56.1313   33.9723 C   0  0  2  0  0  0  0  0  0  0  0  0
   47.7148   52.0255   25.4996 O   0  0  0  0  0  0  0  0  0  0  0  0
   44.8722   58.8035   32.2220 N   0  0  0  0  0  0  0  0  0  0  0  0
   44.9227   57.5097   32.6761 C   0  0  0  0  0  0  0  0  0  0  0  0
   46.1253   56.9696   33.0811 N   0  0  0  0  0  0  0  0  0  0  0  0
   47.2536   57.7012   33.0740 C   0  0  0  0  0  0  0  0  0  0  0  0
   47.2237   59.0092   32.6212 C   0  0  0  0  0  0  0  0  0  0  0  0
   46.0255   59.5469   32.1949 C   0  0  0  0  0  0  0  0  0  0  0  0
   45.9715   60.7947   31.7711 N   0  0  0  0  0  0  0  0  0  0  0  0
   48.4723   59.5190   32.7123 N   0  0  0  0  0  0  0  0  0  0  0  0
   49.2923   58.5491   33.1899 C   0  0  0  0  0  0  0  0  0  0  0  0
   48.5477   57.4133   33.4215 N   0  0  0  0  0  0  0  0  0  0  0  0
  2  1  1  6  0  0  0
  2  3  1  0  0  0  0
  2  5  1  0  0  0  0
  3  4  1  0  0  0  0
  3 16  1  0  0  0  0
  5  6  1  0  0  0  0
  6  7  1  0  0  0  0
  7  8  1  0  0  0  0
  9  8  1  6  0  0  0
  9 10  1  0  0  0  0
  9 11  1  0  0  0  0
 10 15  1  0  0  0  0
 11 12  1  1  0  0  0
 11 13  1  0  0  0  0
 13 14  1  1  0  0  0
 13 15  1  0  0  0  0
 15 26  1  6  0  0  0
 17 18  2  0  0  0  0
 17 22  1  0  0  0  0
 18 19  1  0  0  0  0
 19 20  2  0  0  0  0
 20 21  1  0  0  0  0
 20 26  1  0  0  0  0
 21 22  2  0  0  0  0
 21 24  1  0  0  0  0
 22 23  1  0  0  0  0
 24 25  2  0  0  0  0
 25 26  1  0  0  0  0
M  END
>  <CHROM.1>
117.12110419,-63.36669356,-71.64523021,-109.82462633,-135.68700746,65.16593157
95.78705146,48.11746252,55.35526479,31.28455195,0.96766753,1.18492940,-1.72587044

>  <Name>
ligand

>  <RI>
0

>  <Rbt.Current_Directory>
/home/itssahil/PROJECTS/Mol_Feturizer/New_Systems/rnas/3GX3

>  <Rbt.Executable>
rbdock ($Id: //depot/dev/client3/rdock/2013.1/src/exe/rbdock.cxx#4 $)

>  <Rbt.Library>
libRbt.so (2013.1, Build901 2013/11/27)

>  <Rbt.Parameter_File>
/export/apps/rDock/src/rDock_2013.1_src/data/scripts/dock_solv.prm

>  <Rbt.Receptor>
prm/pocket_docking_5.prm

>  <SCORE>
-14.9614

>  <SCORE.INTER>
-13.4244

>  <SCORE.INTER.CONST>
1

>  <SCORE.INTER.POLAR>
0

>  <SCORE.INTER.ROT>
7

>  <SCORE.INTER.SOLV>
13.9821

>  <SCORE.INTER.VDW>
-21.877

>  <SCORE.INTER.norm>
-0.516322

>  <SCORE.INTRA>
-1.53698

>  <SCORE.INTRA.DIHEDRAL>
1.97678

>  <SCORE.INTRA.DIHEDRAL.0>
5.78979

>  <SCORE.INTRA.POLAR>
0

>  <SCORE.INTRA.POLAR.0>
0

>  <SCORE.INTRA.REPUL>
0

>  <SCORE.INTRA.REPUL.0>
0

>  <SCORE.INTRA.SOLV>
-0.156827

>  <SCORE.INTRA.SOLV.lig_0>
-49.9151

>  <SCORE.INTRA.VDW>
-2.44695

>  <SCORE.INTRA.VDW.0>
-0.211125

>  <SCORE.INTRA.norm>
-0.0591144

>  <SCORE.RESTR>
0

>  <SCORE.RESTR.CAVITY>
0

>  <SCORE.RESTR.norm>
0

>  <SCORE.SYSTEM>
0

>  <SCORE.SYSTEM.CONST>
0

>  <SCORE.SYSTEM.DIHEDRAL>
0

>  <SCORE.SYSTEM.SOLV>
0

>  <SCORE.SYSTEM.norm>
0

>  <SCORE.heavy>
26

>  <SCORE.norm>
-0.575437

>  <RMSD>
2.740

$$$$
ligand
 OpenBabel11021811483D
libRbt.so/2013.1/901 2013/11/27
 26 28  0  0  0  0  0  0  0  0999 V2000
   48.6759   52.1672   25.9887 N   0  0  0  0  0  0  0  0  0  0  0  0
   48.0968   51.6491   27.2313 C   0  0  2  0  0  0  0  0  0  0  0  0
   46.6588   52.1037   27.4908 C   0  0  0  0  0  0  0  0  0  0  0  0
   46.0208   52.5780   26.5505 O   0  0  0  0  0  0  0  0  0  0  0  0
   48.8989   51.9662   28.5001 C   0  0  0  0  0  0  0  0  0  0  0  0
   49.1643   53.4008   28.9219 C   0  0  0  0  0  0  0  0  0  0  0  0
   50.1537   53.3174   30.4325 S   0  0  0  0  0  0  0  0  0  0  0  0
   48.6439   53.7586   31.3254 C   0  0  0  0  0  0  0  0  0  0  0  0
   48.8567   54.0869   32.8071 C   0  0  1  0  0  0  0  0  0  0  0  0
   49.5542   55.3199   33.0175 O   0  0  0  0  0  0  0  0  0  0  0  0
   47.5244   54.1960   33.5343 C   0  0  1  0  0  0  0  0  0  0  0  0
   47.1461   52.9619   34.1030 O   0  0  0  0  0  0  0  0  0  0  0  0
   47.7428   55.2923   34.5690 C   0  0  1  0  0  0  0  0  0  0  0  0
   48.1824   54.7639   35.8039 O   0  0  0  0  0  0  0  0  0  0  0  0
   48.8792   56.1080   33.9843 C   0  0  2  0  0  0  0  0  0  0  0  0
   46.1097   52.0017   28.5949 O   0  0  0  0  0  0  0  0  0  0  0  0
   44.7463   58.8696   32.2782 N   0  0  0  0  0  0  0  0  0  0  0  0
   44.7647   57.5956   32.7873 C   0  0  0  0  0  0  0  0  0  0  0  0
   45.9606   57.0250   33.1695 N   0  0  0  0  0  0  0  0  0  0  0  0
   47.1154   57.7093   33.0864 C   0  0  0  0  0  0  0  0  0  0  0  0
   47.1181   58.9967   32.5772 C   0  0  0  0  0  0  0  0  0  0  0  0
   45.9257   59.5637   32.1737 C   0  0  0  0  0  0  0  0  0  0  0  0
   45.9032   60.7933   31.6971 N   0  0  0  0  0  0  0  0  0  0  0  0
   48.3883   59.4588   32.5974 N   0  0  0  0  0  0  0  0  0  0  0  0
   49.1885   58.4778   33.0860 C   0  0  0  0  0  0  0  0  0  0  0  0
   48.4101   57.3842   33.3964 N   0  0  0  0  0  0  0  0  0  0  0  0
  2  1  1  6  0  0  0
  2  3  1  0  0  0  0
  2  5  1  0  0  0  0
  3  4  1  0  0  0  0
  3 16  1  0  0  0  0
  5  6  1  0  0  0  0
  6  7  1  0  0  0  0
  7  8  1  0  0  0  0
  9  8  1  6  0  0  0
  9 10  1  0  0  0  0
  9 11  1  0  0  0  0
 10 15  1  0  0  0  0
 11 12  1  1  0  0  0
 11 13  1  0  0  0  0
 13 14  1  1  0  0  0
 13 15  1  0  0  0  0
 15 26  1  6  0  0  0
 17 18  2  0  0  0  0
 17 22  1  0  0  0  0
 18 19  1  0  0  0  0
 19 20  2  0  0  0  0
 20 21  1  0  0  0  0
 20 26  1  0  0  0  0
 21 22  2  0  0  0  0
 21 24  1  0  0  0  0
 22 23  1  0  0  0  0
 24 25  2  0  0  0  0
 25 26  1  0  0  0  0
M  END
>  <CHROM.1>
16.16115247,60.26689142,-179.04822487,-104.36242327,-170.69565889,69.94061213
106.57457651,47.74388467,55.24329158,31.45377966,1.34383256,0.99905189,-2.21689965

>  <Name>
ligand

>  <RI>
0

>  <Rbt.Current_Directory>
/home/itssahil/PROJECTS/Mol_Feturizer/New_Systems/rnas/3GX3

>  <Rbt.Executable>
rbdock ($Id: //depot/dev/client3/rdock/2013.1/src/exe/rbdock.cxx#4 $)

>  <Rbt.Library>
libRbt.so (2013.1, Build901 2013/11/27)

>  <Rbt.Parameter_File>
/export/apps/rDock/src/rDock_2013.1_src/data/scripts/dock_solv.prm

>  <Rbt.Receptor>
prm/pocket_docking_6.prm

>  <SCORE>
-18.1811

>  <SCORE.INTER>
-16.202

>  <SCORE.INTER.CONST>
1

>  <SCORE.INTER.POLAR>
0

>  <SCORE.INTER.ROT>
7

>  <SCORE.INTER.SOLV>
15.5684

>  <SCORE.INTER.VDW>
-24.2574

>  <SCORE.INTER.norm>
-0.623152

>  <SCORE.INTRA>
-1.97918

>  <SCORE.INTRA.DIHEDRAL>
-0.452496

>  <SCORE.INTRA.DIHEDRAL.0>
5.78979

>  <SCORE.INTRA.POLAR>
0

>  <SCORE.INTRA.POLAR.0>
0

>  <SCORE.INTRA.REPUL>
0

>  <SCORE.INTRA.REPUL.0>
0

>  <SCORE.INTRA.SOLV>
-0.543981

>  <SCORE.INTRA.SOLV.lig_0>
-49.9151

>  <SCORE.INTRA.VDW>
-1.48094

>  <SCORE.INTRA.VDW.0>
-0.211125

>  <SCORE.INTRA.norm>
-0.0761224

>  <SCORE.RESTR>
0

>  <SCORE.RESTR.CAVITY>
0

>  <SCORE.RESTR.norm>
0

>  <SCORE.SYSTEM>
0

>  <SCORE.SYSTEM.CONST>
0

>  <SCORE.SYSTEM.DIHEDRAL>
0

>  <SCORE.SYSTEM.SOLV>
0

>  <SCORE.SYSTEM.norm>
0

>  <SCORE.heavy>
26

>  <SCORE.norm>
-0.699275

>  <RMSD>
2.750

$$$$
ligand
 OpenBabel11021811483D
libRbt.so/2013.1/901 2013/11/27
 26 28  0  0  0  0  0  0  0  0999 V2000
   48.4235   52.5572   25.7073 N   0  0  0  0  0  0  0  0  0  0  0  0
   47.7517   51.9940   26.8817 C   0  0  2  0  0  0  0  0  0  0  0  0
   46.3356   52.5272   27.1104 C   0  0  0  0  0  0  0  0  0  0  0  0
   45.6055   51.9193   27.8936 O   0  0  0  0  0  0  0  0  0  0  0  0
   48.5099   52.1648   28.2044 C   0  0  0  0  0  0  0  0  0  0  0  0
   48.8023   53.5445   28.7681 C   0  0  0  0  0  0  0  0  0  0  0  0
   49.7087   53.2875   30.3108 S   0  0  0  0  0  0  0  0  0  0  0  0
   49.4563   55.0489   30.6347 C   0  0  0  0  0  0  0  0  0  0  0  0
   49.6310   55.4551   32.1020 C   0  0  1  0  0  0  0  0  0  0  0  0
   49.8756   56.8556   32.2747 O   0  0  0  0  0  0  0  0  0  0  0  0
   48.3871   55.1145   32.9100 C   0  0  1  0  0  0  0  0  0  0  0  0
   48.4881   53.8353   33.4952 O   0  0  0  0  0  0  0  0  0  0  0  0
   48.2780   56.2368   33.9341 C   0  0  1  0  0  0  0  0  0  0  0  0
   48.9439   55.9113   35.1375 O   0  0  0  0  0  0  0  0  0  0  0  0
   49.0300   57.3817   33.2845 C   0  0  2  0  0  0  0  0  0  0  0  0
   45.9021   53.5449   26.5560 O   0  0  0  0  0  0  0  0  0  0  0  0
   44.0512   58.6872   32.2242 N   0  0  0  0  0  0  0  0  0  0  0  0
   44.5245   57.5256   32.7802 C   0  0  0  0  0  0  0  0  0  0  0  0
   45.8802   57.3552   32.9669 N   0  0  0  0  0  0  0  0  0  0  0  0
   46.7537   58.3259   32.6455 C   0  0  0  0  0  0  0  0  0  0  0  0
   46.2963   59.5062   32.0849 C   0  0  0  0  0  0  0  0  0  0  0  0
   44.9415   59.6722   31.8768 C   0  0  0  0  0  0  0  0  0  0  0  0
   44.4826   60.7934   31.3555 N   0  0  0  0  0  0  0  0  0  0  0  0
   47.3604   60.3074   31.8545 N   0  0  0  0  0  0  0  0  0  0  0  0
   48.4810   59.6440   32.2360 C   0  0  0  0  0  0  0  0  0  0  0  0
   48.1188   58.4107   32.7320 N   0  0  0  0  0  0  0  0  0  0  0  0
  2  1  1  6  0  0  0
  2  3  1  0  0  0  0
  2  5  1  0  0  0  0
  3  4  1  0  0  0  0
  3 16  1  0  0  0  0
  5  6  1  0  0  0  0
  6  7  1  0  0  0  0
  7  8  1  0  0  0  0
  9  8  1  6  0  0  0
  9 10  1  0  0  0  0
  9 11  1  0  0  0  0
 10 15  1  0  0  0  0
 11 12  1  1  0  0  0
 11 13  1  0  0  0  0
 13 14  1  1  0  0  0
 13 15  1  0  0  0  0
 15 26  1  6  0  0  0
 17 18  2  0  0  0  0
 17 22  1  0  0  0  0
 18 19  1  0  0  0  0
 19 20  2  0  0  0  0
 20 21  1  0  0  0  0
 20 26  1  0  0  0  0
 21 22  2  0  0  0  0
 21 24  1  0  0  0  0
 22 23  1  0  0  0  0
 24 25  2  0  0  0  0
 25 26  1  0  0  0  0
M  END
>  <CHROM.1>
165.29927863,62.57942978,-179.67544602,-169.11005822,161.02943539,160.16155219
114.62247894,47.60294735,55.83744118,31.01630707,1.39464506,0.68657671,-2.34564850

>  <Name>
ligand

>  <RI>
0

>  <Rbt.Current_Directory>
/home/itssahil/PROJECTS/Mol_Feturizer/New_Systems/rnas/3GX3

>  <Rbt.Executable>
rbdock ($Id: //depot/dev/client3/rdock/2013.1/src/exe/rbdock.cxx#4 $)

>  <Rbt.Library>
libRbt.so (2013.1, Build901 2013/11/27)

>  <Rbt.Parameter_File>
/export/apps/rDock/src/rDock_2013.1_src/data/scripts/dock_solv.prm

>  <Rbt.Receptor>
prm/pocket_docking_5.prm

>  <SCORE>
-17.0867

>  <SCORE.INTER>
-14.5128

>  <SCORE.INTER.CONST>
1

>  <SCORE.INTER.POLAR>
0

>  <SCORE.INTER.ROT>
7

>  <SCORE.INTER.SOLV>
17.8734

>  <SCORE.INTER.VDW>
-23.8997

>  <SCORE.INTER.norm>
-0.558186

>  <SCORE.INTRA>
-2.57385

>  <SCORE.INTRA.DIHEDRAL>
-0.929094

>  <SCORE.INTRA.DIHEDRAL.0>
5.78979

>  <SCORE.INTRA.POLAR>
0

>  <SCORE.INTRA.POLAR.0>
0

>  <SCORE.INTRA.REPUL>
0

>  <SCORE.INTRA.REPUL.0>
0

>  <SCORE.INTRA.SOLV>
-0.440083

>  <SCORE.INTRA.SOLV.lig_0>
-49.9151

>  <SCORE.INTRA.VDW>
-1.88926

>  <SCORE.INTRA.VDW.0>
-0.211125

>  <SCORE.INTRA.norm>
-0.0989942

>  <SCORE.RESTR>
0

>  <SCORE.RESTR.CAVITY>
0

>  <SCORE.RESTR.norm>
0

>  <SCORE.SYSTEM>
0

>  <SCORE.SYSTEM.CONST>
0

>  <SCORE.SYSTEM.DIHEDRAL>
0

>  <SCORE.SYSTEM.SOLV>
0

>  <SCORE.SYSTEM.norm>
0

>  <SCORE.heavy>
26

>  <SCORE.norm>
-0.65718

>  <RMSD>
2.770

$$$$
ligand
 OpenBabel11021811483D
libRbt.so/2013.1/901 2013/11/27
 26 28  0  0  0  0  0  0  0  0999 V2000
   48.0351   54.0478   26.4140 N   0  0  0  0  0  0  0  0  0  0  0  0
   48.7535   53.5024   27.5691 C   0  0  2  0  0  0  0  0  0  0  0  0
   48.6700   51.9798   27.6983 C   0  0  0  0  0  0  0  0  0  0  0  0
   49.3368   51.4340   28.5778 O   0  0  0  0  0  0  0  0  0  0  0  0
   48.3365   54.0869   28.9249 C   0  0  0  0  0  0  0  0  0  0  0  0
   46.9460   53.8484   29.4874 C   0  0  0  0  0  0  0  0  0  0  0  0
   46.8382   54.8090   31.0149 S   0  0  0  0  0  0  0  0  0  0  0  0
   47.7614   53.4687   31.8040 C   0  0  0  0  0  0  0  0  0  0  0  0
   48.4955   53.8740   33.0866 C   0  0  1  0  0  0  0  0  0  0  0  0
   49.3539   55.0069   32.9117 O   0  0  0  0  0  0  0  0  0  0  0  0
   47.5065   54.2270   34.1881 C   0  0  1  0  0  0  0  0  0  0  0  0
   47.2087   53.1062   34.9908 O   0  0  0  0  0  0  0  0  0  0  0  0
   48.1795   55.3557   34.9582 C   0  0  1  0  0  0  0  0  0  0  0  0
   48.9486   54.8646   36.0375 O   0  0  0  0  0  0  0  0  0  0  0  0
   49.1348   55.9541   33.9444 C   0  0  2  0  0  0  0  0  0  0  0  0
   47.9540   51.2810   26.9702 O   0  0  0  0  0  0  0  0  0  0  0  0
   44.9396   58.6830   32.3409 N   0  0  0  0  0  0  0  0  0  0  0  0
   44.9849   57.3968   32.8167 C   0  0  0  0  0  0  0  0  0  0  0  0
   46.1939   56.8385   33.1752 N   0  0  0  0  0  0  0  0  0  0  0  0
   47.3354   57.5455   33.1012 C   0  0  0  0  0  0  0  0  0  0  0  0
   47.3110   58.8455   32.6254 C   0  0  0  0  0  0  0  0  0  0  0  0
   46.1054   59.4009   32.2456 C   0  0  0  0  0  0  0  0  0  0  0  0
   46.0570   60.6417   31.8011 N   0  0  0  0  0  0  0  0  0  0  0  0
   48.5727   59.3299   32.6482 N   0  0  0  0  0  0  0  0  0  0  0  0
   49.3943   58.3514   33.1053 C   0  0  0  0  0  0  0  0  0  0  0  0
   48.6383   57.2362   33.3931 N   0  0  0  0  0  0  0  0  0  0  0  0
  2  1  1  6  0  0  0
  2  3  1  0  0  0  0
  2  5  1  0  0  0  0
  3  4  1  0  0  0  0
  3 16  1  0  0  0  0
  5  6  1  0  0  0  0
  6  7  1  0  0  0  0
  7  8  1  0  0  0  0
  9  8  1  6  0  0  0
  9 10  1  0  0  0  0
  9 11  1  0  0  0  0
 10 15  1  0  0  0  0
 11 12  1  1  0  0  0
 11 13  1  0  0  0  0
 13 14  1  1  0  0  0
 13 15  1  0  0  0  0
 15 26  1  6  0  0  0
 17 18  2  0  0  0  0
 17 22  1  0  0  0  0
 18 19  1  0  0  0  0
 19 20  2  0  0  0  0
 20 21  1  0  0  0  0
 20 26  1  0  0  0  0
 21 22  2  0  0  0  0
 21 24  1  0  0  0  0
 22 23  1  0  0  0  0
 24 25  2  0  0  0  0
 25 26  1  0  0  0  0
M  END
>  <CHROM.1>
174.12939763,65.98581986,-175.64547361,-79.55262880,157.90184178,-53.59512533
84.62395942,47.71428380,55.43888412,31.71166704,1.14181031,1.23499779,-1.94061772

>  <Name>
ligand

>  <RI>
0

>  <Rbt.Current_Directory>
/home/itssahil/PROJECTS/Mol_Feturizer/New_Systems/rnas/3GX3

>  <Rbt.Executable>
rbdock ($Id: //depot/dev/client3/rdock/2013.1/src/exe/rbdock.cxx#4 $)

>  <Rbt.Library>
libRbt.so (2013.1, Build901 2013/11/27)

>  <Rbt.Parameter_File>
/export/apps/rDock/src/rDock_2013.1_src/data/scripts/dock_solv.prm

>  <Rbt.Receptor>
prm/pocket_docking_7.prm

>  <SCORE>
-14.7669

>  <SCORE.INTER>
-11.5123

>  <SCORE.INTER.CONST>
1

>  <SCORE.INTER.POLAR>
0

>  <SCORE.INTER.ROT>
7

>  <SCORE.INTER.SOLV>
13.2097

>  <SCORE.INTER.VDW>
-20.3448

>  <SCORE.INTER.norm>
-0.44278

>  <SCORE.INTRA>
-3.25457

>  <SCORE.INTRA.DIHEDRAL>
-1.31773

>  <SCORE.INTRA.DIHEDRAL.0>
5.78979

>  <SCORE.INTRA.POLAR>
0

>  <SCORE.INTRA.POLAR.0>
0

>  <SCORE.INTRA.REPUL>
0

>  <SCORE.INTRA.REPUL.0>
0

>  <SCORE.INTRA.SOLV>
-0.185229

>  <SCORE.INTRA.SOLV.lig_0>
-49.9151

>  <SCORE.INTRA.VDW>
-2.50309

>  <SCORE.INTRA.VDW.0>
-0.211125

>  <SCORE.INTRA.norm>
-0.125176

>  <SCORE.RESTR>
0

>  <SCORE.RESTR.CAVITY>
0

>  <SCORE.RESTR.norm>
0

>  <SCORE.SYSTEM>
0

>  <SCORE.SYSTEM.CONST>
0

>  <SCORE.SYSTEM.DIHEDRAL>
0

>  <SCORE.SYSTEM.SOLV>
0

>  <SCORE.SYSTEM.norm>
0

>  <SCORE.heavy>
26

>  <SCORE.norm>
-0.567956

>  <RMSD>
2.784

$$$$
ligand
 OpenBabel11021811483D
libRbt.so/2013.1/901 2013/11/27
 26 28  0  0  0  0  0  0  0  0999 V2000
   48.0271   52.1993   28.6279 N   0  0  0  0  0  0  0  0  0  0  0  0
   46.6895   52.7561   28.8483 C   0  0  2  0  0  0  0  0  0  0  0  0
   45.6955   52.4657   27.7217 C   0  0  0  0  0  0  0  0  0  0  0  0
   44.4964   52.4319   27.9993 O   0  0  0  0  0  0  0  0  0  0  0  0
   46.6518   54.2698   29.0951 C   0  0  0  0  0  0  0  0  0  0  0  0
   47.2207   54.8711   30.3684 C   0  0  0  0  0  0  0  0  0  0  0  0
   46.1433   54.3330   31.7166 S   0  0  0  0  0  0  0  0  0  0  0  0
   47.4530   53.1684   32.1635 C   0  0  0  0  0  0  0  0  0  0  0  0
   48.3529   53.6367   33.3121 C   0  0  1  0  0  0  0  0  0  0  0  0
   49.2053   54.7297   32.9518 O   0  0  0  0  0  0  0  0  0  0  0  0
   47.5199   54.0914   34.5018 C   0  0  1  0  0  0  0  0  0  0  0  0
   47.3038   53.0359   35.4120 O   0  0  0  0  0  0  0  0  0  0  0  0
   48.3089   55.2487   35.1002 C   0  0  1  0  0  0  0  0  0  0  0  0
   49.1989   54.8083   36.1060 O   0  0  0  0  0  0  0  0  0  0  0  0
   49.1393   55.7497   33.9350 C   0  0  2  0  0  0  0  0  0  0  0  0
   46.0433   52.2794   26.5489 O   0  0  0  0  0  0  0  0  0  0  0  0
   44.8319   58.4641   32.6327 N   0  0  0  0  0  0  0  0  0  0  0  0
   44.9111   57.2085   33.1803 C   0  0  0  0  0  0  0  0  0  0  0  0
   46.1443   56.6475   33.4385 N   0  0  0  0  0  0  0  0  0  0  0  0
   47.2806   57.3246   33.1959 C   0  0  0  0  0  0  0  0  0  0  0  0
   47.2223   58.5935   32.6452 C   0  0  0  0  0  0  0  0  0  0  0  0
   45.9901   59.1502   32.3656 C   0  0  0  0  0  0  0  0  0  0  0  0
   45.9106   60.3625   31.8523 N   0  0  0  0  0  0  0  0  0  0  0  0
   48.4855   59.0518   32.4993 N   0  0  0  0  0  0  0  0  0  0  0  0
   49.3386   58.0857   32.9241 C   0  0  0  0  0  0  0  0  0  0  0  0
   48.6032   57.0062   33.3622 N   0  0  0  0  0  0  0  0  0  0  0  0
  2  1  1  6  0  0  0
  2  3  1  0  0  0  0
  2  5  1  0  0  0  0
  3  4  1  0  0  0  0
  3 16  1  0  0  0  0
  5  6  1  0  0  0  0
  6  7  1  0  0  0  0
  7  8  1  0  0  0  0
  9  8  1  6  0  0  0
  9 10  1  0  0  0  0
  9 11  1  0  0  0  0
 10 15  1  0  0  0  0
 11 12  1  1  0  0  0
 11 13  1  0  0  0  0
 13 14  1  1  0  0  0
 13 15  1  0  0  0  0
 15 26  1  6  0  0  0
 17 18  2  0  0  0  0
 17 22  1  0  0  0  0
 18 19  1  0  0  0  0
 19 20  2  0  0  0  0
 20 21  1  0  0  0  0
 20 26  1  0  0  0  0
 21 22  2  0  0  0  0
 21 24  1  0  0  0  0
 22 23  1  0  0  0  0
 24 25  2  0  0  0  0
 25 26  1  0  0  0  0
M  END
>  <CHROM.1>
153.36713775,-68.62712519,-68.13587457,104.47537999,98.92615685,-70.04039570
83.50264205,47.11608089,55.31453683,31.98459508,-2.02766277,-1.09033628,0.45967102

>  <Name>
ligand

>  <RI>
0

>  <Rbt.Current_Directory>
/home/itssahil/PROJECTS/Mol_Feturizer/New_Systems/rnas/3GX3

>  <Rbt.Executable>
rbdock ($Id: //depot/dev/client3/rdock/2013.1/src/exe/rbdock.cxx#4 $)

>  <Rbt.Library>
libRbt.so (2013.1, Build901 2013/11/27)

>  <Rbt.Parameter_File>
/export/apps/rDock/src/rDock_2013.1_src/data/scripts/dock_solv.prm

>  <Rbt.Receptor>
prm/pocket_docking_5.prm

>  <SCORE>
-14.8816

>  <SCORE.INTER>
-12.201

>  <SCORE.INTER.CONST>
1

>  <SCORE.INTER.POLAR>
0

>  <SCORE.INTER.ROT>
7

>  <SCORE.INTER.SOLV>
14.8535

>  <SCORE.INTER.VDW>
-21.3518

>  <SCORE.INTER.norm>
-0.469271

>  <SCORE.INTRA>
-2.68054

>  <SCORE.INTRA.DIHEDRAL>
1.719

>  <SCORE.INTRA.DIHEDRAL.0>
5.78979

>  <SCORE.INTRA.POLAR>
0

>  <SCORE.INTRA.POLAR.0>
0

>  <SCORE.INTRA.REPUL>
0

>  <SCORE.INTRA.REPUL.0>
0

>  <SCORE.INTRA.SOLV>
1.01174

>  <SCORE.INTRA.SOLV.lig_0>
-49.9151

>  <SCORE.INTRA.VDW>
-4.04591

>  <SCORE.INTRA.VDW.0>
-0.211125

>  <SCORE.INTRA.norm>
-0.103098

>  <SCORE.RESTR>
0

>  <SCORE.RESTR.CAVITY>
0

>  <SCORE.RESTR.norm>
0

>  <SCORE.SYSTEM>
0

>  <SCORE.SYSTEM.CONST>
0

>  <SCORE.SYSTEM.DIHEDRAL>
0

>  <SCORE.SYSTEM.SOLV>
0

>  <SCORE.SYSTEM.norm>
0

>  <SCORE.heavy>
26

>  <SCORE.norm>
-0.572368

>  <RMSD>
2.811

$$$$
ligand
 OpenBabel11021811483D
libRbt.so/2013.1/901 2013/11/27
 26 28  0  0  0  0  0  0  0  0999 V2000
   48.6198   52.4651   25.6366 N   0  0  0  0  0  0  0  0  0  0  0  0
   47.9071   51.9076   26.7895 C   0  0  2  0  0  0  0  0  0  0  0  0
   46.4768   52.4263   26.9538 C   0  0  0  0  0  0  0  0  0  0  0  0
   45.7765   51.9297   27.8364 O   0  0  0  0  0  0  0  0  0  0  0  0
   48.6085   52.1032   28.1398 C   0  0  0  0  0  0  0  0  0  0  0  0
   48.8729   53.4931   28.6921 C   0  0  0  0  0  0  0  0  0  0  0  0
   49.7239   53.2652   30.2705 S   0  0  0  0  0  0  0  0  0  0  0  0
   49.3957   55.0159   30.5850 C   0  0  0  0  0  0  0  0  0  0  0  0
   49.6084   55.4495   32.0393 C   0  0  1  0  0  0  0  0  0  0  0  0
   49.8764   56.8495   32.1775 O   0  0  0  0  0  0  0  0  0  0  0  0
   48.3779   55.1437   32.8810 C   0  0  1  0  0  0  0  0  0  0  0  0
   48.4738   53.8753   33.4905 O   0  0  0  0  0  0  0  0  0  0  0  0
   48.3071   56.2882   33.8837 C   0  0  1  0  0  0  0  0  0  0  0  0
   48.9947   55.9777   35.0789 O   0  0  0  0  0  0  0  0  0  0  0  0
   49.0608   57.4084   33.1943 C   0  0  2  0  0  0  0  0  0  0  0  0
   46.0030   53.3277   26.2510 O   0  0  0  0  0  0  0  0  0  0  0  0
   44.0777   58.7714   32.2304 N   0  0  0  0  0  0  0  0  0  0  0  0
   44.5465   57.6157   32.8023 C   0  0  0  0  0  0  0  0  0  0  0  0
   45.9038   57.4271   32.9582 N   0  0  0  0  0  0  0  0  0  0  0  0
   46.7841   58.3750   32.5910 C   0  0  0  0  0  0  0  0  0  0  0  0
   46.3314   59.5491   32.0136 C   0  0  0  0  0  0  0  0  0  0  0  0
   44.9745   59.7327   31.8364 C   0  0  0  0  0  0  0  0  0  0  0  0
   44.5203   60.8486   31.2998 N   0  0  0  0  0  0  0  0  0  0  0  0
   47.4019   60.3266   31.7366 N   0  0  0  0  0  0  0  0  0  0  0  0
   48.5212   59.6539   32.1054 C   0  0  0  0  0  0  0  0  0  0  0  0
   48.1522   58.4391   32.6404 N   0  0  0  0  0  0  0  0  0  0  0  0
  2  1  1  6  0  0  0
  2  3  1  0  0  0  0
  2  5  1  0  0  0  0
  3  4  1  0  0  0  0
  3 16  1  0  0  0  0
  5  6  1  0  0  0  0
  6  7  1  0  0  0  0
  7  8  1  0  0  0  0
  9  8  1  6  0  0  0
  9 10  1  0  0  0  0
  9 11  1  0  0  0  0
 10 15  1  0  0  0  0
 11 12  1  1  0  0  0
 11 13  1  0  0  0  0
 13 14  1  1  0  0  0
 13 15  1  0  0  0  0
 15 26  1  6  0  0  0
 17 18  2  0  0  0  0
 17 22  1  0  0  0  0
 18 19  1  0  0  0  0
 19 20  2  0  0  0  0
 20 21  1  0  0  0  0
 20 26  1  0  0  0  0
 21 22  2  0  0  0  0
 21 24  1  0  0  0  0
 22 23  1  0  0  0  0
 24 25  2  0  0  0  0
 25 26  1  0  0  0  0
M  END
>  <CHROM.1>
174.48455153,62.01671032,-179.31969200,-167.11418672,165.83798784,156.26730929
114.94961396,47.65090756,55.83716980,30.94578058,1.37861952,0.70302158,-2.33519439

>  <Name>
ligand

>  <RI>
0

>  <Rbt.Current_Directory>
/home/itssahil/PROJECTS/Mol_Feturizer/New_Systems/rnas/3GX3

>  <Rbt.Executable>
rbdock ($Id: //depot/dev/client3/rdock/2013.1/src/exe/rbdock.cxx#4 $)

>  <Rbt.Library>
libRbt.so (2013.1, Build901 2013/11/27)

>  <Rbt.Parameter_File>
/export/apps/rDock/src/rDock_2013.1_src/data/scripts/dock_solv.prm

>  <Rbt.Receptor>
prm/pocket_docking_5.prm

>  <SCORE>
-17.0048

>  <SCORE.INTER>
-14.7761

>  <SCORE.INTER.CONST>
1

>  <SCORE.INTER.POLAR>
0

>  <SCORE.INTER.ROT>
7

>  <SCORE.INTER.SOLV>
17.8445

>  <SCORE.INTER.VDW>
-24.0656

>  <SCORE.INTER.norm>
-0.568313

>  <SCORE.INTRA>
-2.22868

>  <SCORE.INTRA.DIHEDRAL>
-0.593351

>  <SCORE.INTRA.DIHEDRAL.0>
5.78979

>  <SCORE.INTRA.POLAR>
0

>  <SCORE.INTRA.POLAR.0>
0

>  <SCORE.INTRA.REPUL>
0

>  <SCORE.INTRA.REPUL.0>
0

>  <SCORE.INTRA.SOLV>
-0.448104

>  <SCORE.INTRA.SOLV.lig_0>
-49.9151

>  <SCORE.INTRA.VDW>
-1.70795

>  <SCORE.INTRA.VDW.0>
-0.211125

>  <SCORE.INTRA.norm>
-0.0857183

>  <SCORE.RESTR>
0

>  <SCORE.RESTR.CAVITY>
0

>  <SCORE.RESTR.norm>
0

>  <SCORE.SYSTEM>
0

>  <SCORE.SYSTEM.CONST>
0

>  <SCORE.SYSTEM.DIHEDRAL>
0

>  <SCORE.SYSTEM.SOLV>
0

>  <SCORE.SYSTEM.norm>
0

>  <SCORE.heavy>
26

>  <SCORE.norm>
-0.654031

>  <RMSD>
2.812

$$$$
ligand
 OpenBabel11021811483D
libRbt.so/2013.1/901 2013/11/27
 26 28  0  0  0  0  0  0  0  0999 V2000
   50.3663   53.0332   27.1056 N   0  0  0  0  0  0  0  0  0  0  0  0
   49.5192   51.8378   27.0715 C   0  0  2  0  0  0  0  0  0  0  0  0
   48.4207   51.8773   26.0068 C   0  0  0  0  0  0  0  0  0  0  0  0
   48.2670   50.8856   25.2935 O   0  0  0  0  0  0  0  0  0  0  0  0
   48.8371   51.4903   28.4010 C   0  0  0  0  0  0  0  0  0  0  0  0
   48.1699   52.5632   29.2440 C   0  0  0  0  0  0  0  0  0  0  0  0
   49.4945   53.4217   30.1250 S   0  0  0  0  0  0  0  0  0  0  0  0
   48.2601   53.8211   31.3852 C   0  0  0  0  0  0  0  0  0  0  0  0
   48.8470   54.2211   32.7431 C   0  0  1  0  0  0  0  0  0  0  0  0
   49.6149   55.4289   32.6925 O   0  0  0  0  0  0  0  0  0  0  0  0
   47.7430   54.4348   33.7685 C   0  0  1  0  0  0  0  0  0  0  0  0
   47.4785   53.2541   34.4933 O   0  0  0  0  0  0  0  0  0  0  0  0
   48.2488   55.5754   34.6421 C   0  0  1  0  0  0  0  0  0  0  0  0
   48.9655   55.0963   35.7621 O   0  0  0  0  0  0  0  0  0  0  0  0
   49.2291   56.3014   33.7419 C   0  0  2  0  0  0  0  0  0  0  0  0
   47.6762   52.8522   25.8440 O   0  0  0  0  0  0  0  0  0  0  0  0
   44.8904   58.8778   32.2736 N   0  0  0  0  0  0  0  0  0  0  0  0
   44.9963   57.5954   32.7498 C   0  0  0  0  0  0  0  0  0  0  0  0
   46.2353   57.0805   33.0690 N   0  0  0  0  0  0  0  0  0  0  0  0
   47.3483   57.8267   32.9561 C   0  0  0  0  0  0  0  0  0  0  0  0
   47.2628   59.1237   32.4792 C   0  0  0  0  0  0  0  0  0  0  0  0
   46.0266   59.6356   32.1385 C   0  0  0  0  0  0  0  0  0  0  0  0
   45.9203   60.8727   31.6937 N   0  0  0  0  0  0  0  0  0  0  0  0
   48.5069   59.6518   32.4593 N   0  0  0  0  0  0  0  0  0  0  0  0
   49.3768   58.7039   32.8906 C   0  0  0  0  0  0  0  0  0  0  0  0
   48.6701   57.5639   33.2052 N   0  0  0  0  0  0  0  0  0  0  0  0
  2  1  1  1  0  0  0
  2  3  1  0  0  0  0
  2  5  1  0  0  0  0
  3  4  1  0  0  0  0
  3 16  1  0  0  0  0
  5  6  1  0  0  0  0
  6  7  1  0  0  0  0
  7  8  1  0  0  0  0
  9  8  1  6  0  0  0
  9 10  1  0  0  0  0
  9 11  1  0  0  0  0
 10 15  1  0  0  0  0
 11 12  1  1  0  0  0
 11 13  1  0  0  0  0
 13 14  1  1  0  0  0
 13 15  1  0  0  0  0
 15 26  1  6  0  0  0
 17 18  2  0  0  0  0
 17 22  1  0  0  0  0
 18 19  1  0  0  0  0
 19 20  2  0  0  0  0
 20 21  1  0  0  0  0
 20 26  1  0  0  0  0
 21 22  2  0  0  0  0
 21 24  1  0  0  0  0
 22 23  1  0  0  0  0
 24 25  2  0  0  0  0
 25 26  1  0  0  0  0
M  END
>  <CHROM.1>
133.07013566,44.61093350,-78.92943175,-153.71090438,160.99352048,63.95668357
92.51406302,48.11130449,55.29850521,31.22469655,1.12756310,1.14257868,-1.94213892

>  <Name>
ligand

>  <RI>
0

>  <Rbt.Current_Directory>
/home/itssahil/PROJECTS/Mol_Feturizer/New_Systems/rnas/3GX3

>  <Rbt.Executable>
rbdock ($Id: //depot/dev/client3/rdock/2013.1/src/exe/rbdock.cxx#4 $)

>  <Rbt.Library>
libRbt.so (2013.1, Build901 2013/11/27)

>  <Rbt.Parameter_File>
/export/apps/rDock/src/rDock_2013.1_src/data/scripts/dock_solv.prm

>  <Rbt.Receptor>
prm/pocket_docking_6.prm

>  <SCORE>
-17.6848

>  <SCORE.INTER>
-15.7108

>  <SCORE.INTER.CONST>
1

>  <SCORE.INTER.POLAR>
0

>  <SCORE.INTER.ROT>
7

>  <SCORE.INTER.SOLV>
15.6492

>  <SCORE.INTER.VDW>
-23.9569

>  <SCORE.INTER.norm>
-0.604262

>  <SCORE.INTRA>
-1.97396

>  <SCORE.INTRA.DIHEDRAL>
0.777662

>  <SCORE.INTRA.DIHEDRAL.0>
5.78979

>  <SCORE.INTRA.POLAR>
0

>  <SCORE.INTRA.POLAR.0>
0

>  <SCORE.INTRA.REPUL>
0

>  <SCORE.INTRA.REPUL.0>
0

>  <SCORE.INTRA.SOLV>
0.70453

>  <SCORE.INTRA.SOLV.lig_0>
-49.9151

>  <SCORE.INTRA.VDW>
-2.71506

>  <SCORE.INTRA.VDW.0>
-0.211125

>  <SCORE.INTRA.norm>
-0.0759217

>  <SCORE.RESTR>
0

>  <SCORE.RESTR.CAVITY>
0

>  <SCORE.RESTR.norm>
0

>  <SCORE.SYSTEM>
0

>  <SCORE.SYSTEM.CONST>
0

>  <SCORE.SYSTEM.DIHEDRAL>
0

>  <SCORE.SYSTEM.SOLV>
0

>  <SCORE.SYSTEM.norm>
0

>  <SCORE.heavy>
26

>  <SCORE.norm>
-0.680184

>  <RMSD>
2.860

$$$$
ligand
 OpenBabel11021811483D
libRbt.so/2013.1/901 2013/11/27
 26 28  0  0  0  0  0  0  0  0999 V2000
   46.6133   51.8822   29.6161 N   0  0  0  0  0  0  0  0  0  0  0  0
   46.2556   52.8661   28.5906 C   0  0  2  0  0  0  0  0  0  0  0  0
   46.3551   52.3420   27.1563 C   0  0  0  0  0  0  0  0  0  0  0  0
   47.3667   51.7182   26.8346 O   0  0  0  0  0  0  0  0  0  0  0  0
   47.0557   54.1741   28.6423 C   0  0  0  0  0  0  0  0  0  0  0  0
   47.0224   55.0656   29.8714 C   0  0  0  0  0  0  0  0  0  0  0  0
   48.2818   56.3373   29.6177 S   0  0  0  0  0  0  0  0  0  0  0  0
   49.4347   55.2185   30.4485 C   0  0  0  0  0  0  0  0  0  0  0  0
   49.5879   55.4684   31.9527 C   0  0  1  0  0  0  0  0  0  0  0  0
   49.8455   56.8401   32.2736 O   0  0  0  0  0  0  0  0  0  0  0  0
   48.3259   55.0627   32.7002 C   0  0  1  0  0  0  0  0  0  0  0  0
   48.4017   53.7285   33.1514 O   0  0  0  0  0  0  0  0  0  0  0  0
   48.2114   56.0744   33.8332 C   0  0  1  0  0  0  0  0  0  0  0  0
   48.8519   55.6173   35.0073 O   0  0  0  0  0  0  0  0  0  0  0  0
   48.9881   57.2702   33.3183 C   0  0  2  0  0  0  0  0  0  0  0  0
   45.4610   52.5053   26.3167 O   0  0  0  0  0  0  0  0  0  0  0  0
   44.0583   58.7073   32.2005 N   0  0  0  0  0  0  0  0  0  0  0  0
   44.5106   57.4831   32.6242 C   0  0  0  0  0  0  0  0  0  0  0  0
   45.8569   57.2885   32.8513 N   0  0  0  0  0  0  0  0  0  0  0  0
   46.7398   58.2915   32.6992 C   0  0  0  0  0  0  0  0  0  0  0  0
   46.3035   59.5347   32.2741 C   0  0  0  0  0  0  0  0  0  0  0  0
   44.9591   59.7277   32.0253 C   0  0  0  0  0  0  0  0  0  0  0  0
   44.5197   60.9072   31.6315 N   0  0  0  0  0  0  0  0  0  0  0  0
   47.3732   60.3576   32.1994 N   0  0  0  0  0  0  0  0  0  0  0  0
   48.4779   59.6493   32.5449 C   0  0  0  0  0  0  0  0  0  0  0  0
   48.0988   58.3629   32.8604 N   0  0  0  0  0  0  0  0  0  0  0  0
  2  1  1  1  0  0  0
  2  3  1  0  0  0  0
  2  5  1  0  0  0  0
  3  4  1  0  0  0  0
  3 16  1  0  0  0  0
  5  6  1  0  0  0  0
  6  7  1  0  0  0  0
  7  8  1  0  0  0  0
  9  8  1  6  0  0  0
  9 10  1  0  0  0  0
  9 11  1  0  0  0  0
 10 15  1  0  0  0  0
 11 12  1  1  0  0  0
 11 13  1  0  0  0  0
 13 14  1  1  0  0  0
 13 15  1  0  0  0  0
 15 26  1  6  0  0  0
 17 18  2  0  0  0  0
 17 22  1  0  0  0  0
 18 19  1  0  0  0  0
 19 20  2  0  0  0  0
 20 21  1  0  0  0  0
 20 26  1  0  0  0  0
 21 22  2  0  0  0  0
 21 24  1  0  0  0  0
 22 23  1  0  0  0  0
 24 25  2  0  0  0  0
 25 26  1  0  0  0  0
M  END
>  <CHROM.1>
-46.71911929,-60.31912884,171.32212558,-90.62833990,-94.39014330,-49.99095037
112.22125797,47.28089170,56.15688983,31.16415241,-1.56540563,-0.70619202
0.66867747

>  <Name>
ligand

>  <RI>
0

>  <Rbt.Current_Directory>
/home/itssahil/PROJECTS/Mol_Feturizer/New_Systems/rnas/3GX3

>  <Rbt.Executable>
rbdock ($Id: //depot/dev/client3/rdock/2013.1/src/exe/rbdock.cxx#4 $)

>  <Rbt.Library>
libRbt.so (2013.1, Build901 2013/11/27)

>  <Rbt.Parameter_File>
/export/apps/rDock/src/rDock_2013.1_src/data/scripts/dock_solv.prm

>  <Rbt.Receptor>
prm/pocket_docking_8.prm

>  <SCORE>
-12.5495

>  <SCORE.INTER>
-10.1392

>  <SCORE.INTER.CONST>
1

>  <SCORE.INTER.POLAR>
0

>  <SCORE.INTER.ROT>
7

>  <SCORE.INTER.SOLV>
22.3476

>  <SCORE.INTER.VDW>
-22.4753

>  <SCORE.INTER.norm>
-0.389968

>  <SCORE.INTRA>
-2.41037

>  <SCORE.INTRA.DIHEDRAL>
0.408527

>  <SCORE.INTRA.DIHEDRAL.0>
5.78979

>  <SCORE.INTRA.POLAR>
0

>  <SCORE.INTRA.POLAR.0>
0

>  <SCORE.INTRA.REPUL>
0

>  <SCORE.INTRA.REPUL.0>
0

>  <SCORE.INTRA.SOLV>
0.0810509

>  <SCORE.INTRA.SOLV.lig_0>
-49.9151

>  <SCORE.INTRA.VDW>
-2.65516

>  <SCORE.INTRA.VDW.0>
-0.211125

>  <SCORE.INTRA.norm>
-0.0927064

>  <SCORE.RESTR>
0

>  <SCORE.RESTR.CAVITY>
0

>  <SCORE.RESTR.norm>
0

>  <SCORE.SYSTEM>
0

>  <SCORE.SYSTEM.CONST>
0

>  <SCORE.SYSTEM.DIHEDRAL>
0

>  <SCORE.SYSTEM.SOLV>
0

>  <SCORE.SYSTEM.norm>
0

>  <SCORE.heavy>
26

>  <SCORE.norm>
-0.482674

>  <RMSD>
2.860

$$$$
ligand
 OpenBabel11021811483D
libRbt.so/2013.1/901 2013/11/27
 26 28  0  0  0  0  0  0  0  0999 V2000
   49.6519   54.7896   26.1541 N   0  0  0  0  0  0  0  0  0  0  0  0
   50.0395   55.6228   27.2957 C   0  0  2  0  0  0  0  0  0  0  0  0
   51.4715   55.3920   27.7835 C   0  0  0  0  0  0  0  0  0  0  0  0
   51.8000   54.2485   28.1006 O   0  0  0  0  0  0  0  0  0  0  0  0
   49.1271   55.5027   28.5233 C   0  0  0  0  0  0  0  0  0  0  0  0
   48.9265   54.1701   29.2238 C   0  0  0  0  0  0  0  0  0  0  0  0
   47.7523   54.4670   30.5657 S   0  0  0  0  0  0  0  0  0  0  0  0
   48.8899   53.5470   31.6292 C   0  0  0  0  0  0  0  0  0  0  0  0
   48.8560   53.9633   33.1036 C   0  0  1  0  0  0  0  0  0  0  0  0
   48.9390   55.3806   33.2920 O   0  0  0  0  0  0  0  0  0  0  0  0
   47.5688   53.4976   33.7684 C   0  0  1  0  0  0  0  0  0  0  0  0
   47.7296   52.2326   34.3713 O   0  0  0  0  0  0  0  0  0  0  0  0
   47.2333   54.5996   34.7649 C   0  0  1  0  0  0  0  0  0  0  0  0
   47.7877   54.3378   36.0383 O   0  0  0  0  0  0  0  0  0  0  0  0
   47.9365   55.8161   34.1957 C   0  0  2  0  0  0  0  0  0  0  0  0
   52.3111   56.2978   27.8581 O   0  0  0  0  0  0  0  0  0  0  0  0
   47.4098   60.2799   31.4725 N   0  0  0  0  0  0  0  0  0  0  0  0
   48.5612   59.7095   31.9537 C   0  0  0  0  0  0  0  0  0  0  0  0
   48.4984   58.5323   32.6694 N   0  0  0  0  0  0  0  0  0  0  0  0
   47.3262   57.9069   32.8775 C   0  0  0  0  0  0  0  0  0  0  0  0
   46.1531   58.4650   32.3987 C   0  0  0  0  0  0  0  0  0  0  0  0
   46.2096   59.6545   31.6999 C   0  0  0  0  0  0  0  0  0  0  0  0
   45.1059   60.1977   31.2242 N   0  0  0  0  0  0  0  0  0  0  0  0
   45.1270   57.6531   32.7380 N   0  0  0  0  0  0  0  0  0  0  0  0
   45.6288   56.6077   33.4428 C   0  0  0  0  0  0  0  0  0  0  0  0
   46.9959   56.7512   33.5358 N   0  0  0  0  0  0  0  0  0  0  0  0
  2  1  1  6  0  0  0
  2  3  1  0  0  0  0
  2  5  1  0  0  0  0
  3  4  1  0  0  0  0
  3 16  1  0  0  0  0
  5  6  1  0  0  0  0
  6  7  1  0  0  0  0
  7  8  1  0  0  0  0
  9  8  1  6  0  0  0
  9 10  1  0  0  0  0
  9 11  1  0  0  0  0
 10 15  1  0  0  0  0
 11 12  1  1  0  0  0
 11 13  1  0  0  0  0
 13 14  1  1  0  0  0
 13 15  1  0  0  0  0
 15 26  1  6  0  0  0
 17 18  2  0  0  0  0
 17 22  1  0  0  0  0
 18 19  1  0  0  0  0
 19 20  2  0  0  0  0
 20 21  1  0  0  0  0
 20 26  1  0  0  0  0
 21 22  2  0  0  0  0
 21 24  1  0  0  0  0
 22 23  1  0  0  0  0
 24 25  2  0  0  0  0
 25 26  1  0  0  0  0
M  END
>  <CHROM.1>
-55.94866967,59.67884791,-178.23943825,-132.77830974,151.14799577,-48.66966538
-55.06092201,48.23146394,55.97607841,31.50801536,0.30920730,0.97798519,-0.65578397

>  <Name>
ligand

>  <RI>
0

>  <Rbt.Current_Directory>
/home/itssahil/PROJECTS/Mol_Feturizer/New_Systems/rnas/3GX3

>  <Rbt.Executable>
rbdock ($Id: //depot/dev/client3/rdock/2013.1/src/exe/rbdock.cxx#4 $)

>  <Rbt.Library>
libRbt.so (2013.1, Build901 2013/11/27)

>  <Rbt.Parameter_File>
/export/apps/rDock/src/rDock_2013.1_src/data/scripts/dock_solv.prm

>  <Rbt.Receptor>
prm/pocket_docking_7.prm

>  <SCORE>
-15.7554

>  <SCORE.INTER>
-13.3673

>  <SCORE.INTER.CONST>
1

>  <SCORE.INTER.POLAR>
0

>  <SCORE.INTER.ROT>
7

>  <SCORE.INTER.SOLV>
13.9054

>  <SCORE.INTER.VDW>
-21.8133

>  <SCORE.INTER.norm>
-0.514127

>  <SCORE.INTRA>
-2.38814

>  <SCORE.INTRA.DIHEDRAL>
0.769928

>  <SCORE.INTRA.DIHEDRAL.0>
5.78979

>  <SCORE.INTRA.POLAR>
0

>  <SCORE.INTRA.POLAR.0>
0

>  <SCORE.INTRA.REPUL>
0

>  <SCORE.INTRA.REPUL.0>
0

>  <SCORE.INTRA.SOLV>
-0.304858

>  <SCORE.INTRA.SOLV.lig_0>
-49.9151

>  <SCORE.INTRA.VDW>
-2.62068

>  <SCORE.INTRA.VDW.0>
-0.211125

>  <SCORE.INTRA.norm>
-0.0918517

>  <SCORE.RESTR>
0

>  <SCORE.RESTR.CAVITY>
0

>  <SCORE.RESTR.norm>
0

>  <SCORE.SYSTEM>
0

>  <SCORE.SYSTEM.CONST>
0

>  <SCORE.SYSTEM.DIHEDRAL>
0

>  <SCORE.SYSTEM.SOLV>
0

>  <SCORE.SYSTEM.norm>
0

>  <SCORE.heavy>
26

>  <SCORE.norm>
-0.605978

>  <RMSD>
2.916

$$$$
ligand
 OpenBabel11021811483D
libRbt.so/2013.1/901 2013/11/27
 26 28  0  0  0  0  0  0  0  0999 V2000
   47.6904   53.4234   26.5260 N   0  0  0  0  0  0  0  0  0  0  0  0
   48.6997   52.5337   27.1071 C   0  0  2  0  0  0  0  0  0  0  0  0
   48.2537   51.8338   28.3928 C   0  0  0  0  0  0  0  0  0  0  0  0
   48.9534   50.9195   28.8293 O   0  0  0  0  0  0  0  0  0  0  0  0
   50.0502   53.1967   27.4076 C   0  0  0  0  0  0  0  0  0  0  0  0
   50.1482   54.3851   28.3482 C   0  0  0  0  0  0  0  0  0  0  0  0
   49.9824   53.7286   30.0243 S   0  0  0  0  0  0  0  0  0  0  0  0
   49.7755   55.4417   30.5664 C   0  0  0  0  0  0  0  0  0  0  0  0
   49.7255   55.6237   32.0871 C   0  0  1  0  0  0  0  0  0  0  0  0
   49.8735   56.9878   32.4975 O   0  0  0  0  0  0  0  0  0  0  0  0
   48.4006   55.1282   32.6485 C   0  0  1  0  0  0  0  0  0  0  0  0
   48.4837   53.7779   33.0475 O   0  0  0  0  0  0  0  0  0  0  0  0
   48.0950   56.0772   33.8001 C   0  0  1  0  0  0  0  0  0  0  0  0
   48.6039   55.5908   35.0257 O   0  0  0  0  0  0  0  0  0  0  0  0
   48.8714   57.3290   33.4413 C   0  0  2  0  0  0  0  0  0  0  0  0
   47.2341   52.1561   29.0154 O   0  0  0  0  0  0  0  0  0  0  0  0
   43.9732   58.7214   32.1425 N   0  0  0  0  0  0  0  0  0  0  0  0
   44.4138   57.5137   32.6220 C   0  0  0  0  0  0  0  0  0  0  0  0
   45.7536   57.3283   32.8914 N   0  0  0  0  0  0  0  0  0  0  0  0
   46.6404   58.3257   32.7265 C   0  0  0  0  0  0  0  0  0  0  0  0
   46.2158   59.5525   32.2455 C   0  0  0  0  0  0  0  0  0  0  0  0
   44.8786   59.7355   31.9544 C   0  0  0  0  0  0  0  0  0  0  0  0
   44.4501   60.8997   31.5068 N   0  0  0  0  0  0  0  0  0  0  0  0
   47.2875   60.3729   32.1694 N   0  0  0  0  0  0  0  0  0  0  0  0
   48.3824   59.6783   32.5693 C   0  0  0  0  0  0  0  0  0  0  0  0
   47.9948   58.4038   32.9209 N   0  0  0  0  0  0  0  0  0  0  0  0
  2  1  1  1  0  0  0
  2  3  1  0  0  0  0
  2  5  1  0  0  0  0
  3  4  1  0  0  0  0
  3 16  1  0  0  0  0
  5  6  1  0  0  0  0
  6  7  1  0  0  0  0
  7  8  1  0  0  0  0
  9  8  1  6  0  0  0
  9 10  1  0  0  0  0
  9 11  1  0  0  0  0
 10 15  1  0  0  0  0
 11 12  1  1  0  0  0
 11 13  1  0  0  0  0
 13 14  1  1  0  0  0
 13 15  1  0  0  0  0
 15 26  1  6  0  0  0
 17 18  2  0  0  0  0
 17 22  1  0  0  0  0
 18 19  1  0  0  0  0
 19 20  2  0  0  0  0
 20 21  1  0  0  0  0
 20 26  1  0  0  0  0
 21 22  2  0  0  0  0
 21 24  1  0  0  0  0
 22 23  1  0  0  0  0
 24 25  2  0  0  0  0
 25 26  1  0  0  0  0
M  END
>  <CHROM.1>
168.93460288,58.77375681,75.70354830,-167.65038893,-173.39817764,166.36407810
120.14436364,47.95852814,55.88596152,31.17918442,1.08319455,0.72730538,-2.22108163

>  <Name>
ligand

>  <RI>
0

>  <Rbt.Current_Directory>
/home/itssahil/PROJECTS/Mol_Feturizer/New_Systems/rnas/3GX3

>  <Rbt.Executable>
rbdock ($Id: //depot/dev/client3/rdock/2013.1/src/exe/rbdock.cxx#4 $)

>  <Rbt.Library>
libRbt.so (2013.1, Build901 2013/11/27)

>  <Rbt.Parameter_File>
/export/apps/rDock/src/rDock_2013.1_src/data/scripts/dock_solv.prm

>  <Rbt.Receptor>
prm/pocket_docking_4.prm

>  <SCORE>
-17.8493

>  <SCORE.INTER>
-15.2154

>  <SCORE.INTER.CONST>
1

>  <SCORE.INTER.POLAR>
0

>  <SCORE.INTER.ROT>
7

>  <SCORE.INTER.SOLV>
17.5049

>  <SCORE.INTER.VDW>
-24.2453

>  <SCORE.INTER.norm>
-0.585208

>  <SCORE.INTRA>
-2.63388

>  <SCORE.INTRA.DIHEDRAL>
-1.14077

>  <SCORE.INTRA.DIHEDRAL.0>
5.78979

>  <SCORE.INTRA.POLAR>
0

>  <SCORE.INTRA.POLAR.0>
0

>  <SCORE.INTRA.REPUL>
0

>  <SCORE.INTRA.REPUL.0>
0

>  <SCORE.INTRA.SOLV>
0.115478

>  <SCORE.INTRA.SOLV.lig_0>
-49.9151

>  <SCORE.INTRA.VDW>
-2.12123

>  <SCORE.INTRA.VDW.0>
-0.211125

>  <SCORE.INTRA.norm>
-0.101303

>  <SCORE.RESTR>
0

>  <SCORE.RESTR.CAVITY>
0

>  <SCORE.RESTR.norm>
0

>  <SCORE.SYSTEM>
0

>  <SCORE.SYSTEM.CONST>
0

>  <SCORE.SYSTEM.DIHEDRAL>
0

>  <SCORE.SYSTEM.SOLV>
0

>  <SCORE.SYSTEM.norm>
0

>  <SCORE.heavy>
26

>  <SCORE.norm>
-0.686511

>  <RMSD>
2.924

$$$$
ligand
 OpenBabel11021811483D
libRbt.so/2013.1/901 2013/11/27
 26 28  0  0  0  0  0  0  0  0999 V2000
   47.4705   55.8218   24.6888 N   0  0  0  0  0  0  0  0  0  0  0  0
   48.5594   55.8085   25.6697 C   0  0  2  0  0  0  0  0  0  0  0  0
   49.1881   54.4310   25.8907 C   0  0  0  0  0  0  0  0  0  0  0  0
   48.4502   53.4455   25.8699 O   0  0  0  0  0  0  0  0  0  0  0  0
   48.1891   56.3553   27.0545 C   0  0  0  0  0  0  0  0  0  0  0  0
   49.2149   56.4183   28.1726 C   0  0  0  0  0  0  0  0  0  0  0  0
   48.3339   56.9824   29.6468 S   0  0  0  0  0  0  0  0  0  0  0  0
   49.5705   56.0783   30.6085 C   0  0  0  0  0  0  0  0  0  0  0  0
   49.0629   55.5457   31.9528 C   0  0  1  0  0  0  0  0  0  0  0  0
   48.6578   56.5824   32.8540 O   0  0  0  0  0  0  0  0  0  0  0  0
   47.8634   54.6304   31.7545 C   0  0  1  0  0  0  0  0  0  0  0  0
   48.2594   53.2819   31.6352 O   0  0  0  0  0  0  0  0  0  0  0  0
   46.9791   54.8918   32.9669 C   0  0  1  0  0  0  0  0  0  0  0  0
   47.2701   54.0025   34.0262 O   0  0  0  0  0  0  0  0  0  0  0  0
   47.3863   56.2842   33.4070 C   0  0  2  0  0  0  0  0  0  0  0  0
   50.4007   54.2663   26.0736 O   0  0  0  0  0  0  0  0  0  0  0  0
   46.5759   60.9724   31.1750 N   0  0  0  0  0  0  0  0  0  0  0  0
   47.7661   60.3164   31.3644 C   0  0  0  0  0  0  0  0  0  0  0  0
   47.7821   59.0888   31.9926 N   0  0  0  0  0  0  0  0  0  0  0  0
   46.6427   58.4990   32.3956 C   0  0  0  0  0  0  0  0  0  0  0  0
   45.4312   59.1436   32.2122 C   0  0  0  0  0  0  0  0  0  0  0  0
   45.4130   60.3823   31.6027 C   0  0  0  0  0  0  0  0  0  0  0  0
   44.2691   61.0088   31.4067 N   0  0  0  0  0  0  0  0  0  0  0  0
   44.4505   58.3512   32.6996 N   0  0  0  0  0  0  0  0  0  0  0  0
   45.0237   57.2317   33.2090 C   0  0  0  0  0  0  0  0  0  0  0  0
   46.3870   57.3088   33.0251 N   0  0  0  0  0  0  0  0  0  0  0  0
  2  1  1  6  0  0  0
  2  3  1  0  0  0  0
  2  5  1  0  0  0  0
  3  4  1  0  0  0  0
  3 16  1  0  0  0  0
  5  6  1  0  0  0  0
  6  7  1  0  0  0  0
  7  8  1  0  0  0  0
  9  8  1  6  0  0  0
  9 10  1  0  0  0  0
  9 11  1  0  0  0  0
 10 15  1  0  0  0  0
 11 12  1  1  0  0  0
 11 13  1  0  0  0  0
 13 14  1  1  0  0  0
 13 15  1  0  0  0  0
 15 26  1  6  0  0  0
 17 18  2  0  0  0  0
 17 22  1  0  0  0  0
 18 19  1  0  0  0  0
 19 20  2  0  0  0  0
 20 21  1  0  0  0  0
 20 26  1  0  0  0  0
 21 22  2  0  0  0  0
 21 24  1  0  0  0  0
 22 23  1  0  0  0  0
 24 25  2  0  0  0  0
 25 26  1  0  0  0  0
M  END
>  <CHROM.1>
-36.93456484,-179.42146949,-175.21850482,152.39463394,-150.52568143,-62.71013164
-9.14594649,47.57797713,56.72408272,30.43296204,0.55978135,1.12334639,-1.14460675

>  <Name>
ligand

>  <RI>
0

>  <Rbt.Current_Directory>
/home/itssahil/PROJECTS/Mol_Feturizer/New_Systems/rnas/3GX3

>  <Rbt.Executable>
rbdock ($Id: //depot/dev/client3/rdock/2013.1/src/exe/rbdock.cxx#4 $)

>  <Rbt.Library>
libRbt.so (2013.1, Build901 2013/11/27)

>  <Rbt.Parameter_File>
/export/apps/rDock/src/rDock_2013.1_src/data/scripts/dock_solv.prm

>  <Rbt.Receptor>
prm/pocket_docking_4.prm

>  <SCORE>
-13.3959

>  <SCORE.INTER>
-9.4604

>  <SCORE.INTER.CONST>
1

>  <SCORE.INTER.POLAR>
0

>  <SCORE.INTER.ROT>
7

>  <SCORE.INTER.SOLV>
20.7695

>  <SCORE.INTER.VDW>
-21.4968

>  <SCORE.INTER.norm>
-0.363862

>  <SCORE.INTRA>
-3.9355

>  <SCORE.INTRA.DIHEDRAL>
-0.597504

>  <SCORE.INTRA.DIHEDRAL.0>
5.78979

>  <SCORE.INTRA.POLAR>
0

>  <SCORE.INTRA.POLAR.0>
0

>  <SCORE.INTRA.REPUL>
0

>  <SCORE.INTRA.REPUL.0>
0

>  <SCORE.INTRA.SOLV>
-0.747722

>  <SCORE.INTRA.SOLV.lig_0>
-49.9151

>  <SCORE.INTRA.VDW>
-3.26288

>  <SCORE.INTRA.VDW.0>
-0.211125

>  <SCORE.INTRA.norm>
-0.151365

>  <SCORE.RESTR>
0

>  <SCORE.RESTR.CAVITY>
0

>  <SCORE.RESTR.norm>
0

>  <SCORE.SYSTEM>
0

>  <SCORE.SYSTEM.CONST>
0

>  <SCORE.SYSTEM.DIHEDRAL>
0

>  <SCORE.SYSTEM.SOLV>
0

>  <SCORE.SYSTEM.norm>
0

>  <SCORE.heavy>
26

>  <SCORE.norm>
-0.515227

>  <RMSD>
2.933

$$$$
ligand
 OpenBabel11021811483D
libRbt.so/2013.1/901 2013/11/27
 26 28  0  0  0  0  0  0  0  0999 V2000
   51.3040   53.4618   25.8978 N   0  0  0  0  0  0  0  0  0  0  0  0
   50.6510   52.8546   27.0609 C   0  0  2  0  0  0  0  0  0  0  0  0
   50.1667   51.4213   26.8314 C   0  0  0  0  0  0  0  0  0  0  0  0
   50.9993   50.5147   26.8624 O   0  0  0  0  0  0  0  0  0  0  0  0
   49.4584   53.6429   27.6177 C   0  0  0  0  0  0  0  0  0  0  0  0
   48.7735   53.2225   28.9064 C   0  0  0  0  0  0  0  0  0  0  0  0
   49.9606   53.5146   30.2380 S   0  0  0  0  0  0  0  0  0  0  0  0
   48.5331   53.7111   31.3311 C   0  0  0  0  0  0  0  0  0  0  0  0
   48.8874   54.0681   32.7786 C   0  0  1  0  0  0  0  0  0  0  0  0
   49.5873   55.3119   32.8980 O   0  0  0  0  0  0  0  0  0  0  0  0
   47.6324   54.1765   33.6324 C   0  0  1  0  0  0  0  0  0  0  0  0
   47.3272   52.9489   34.2564 O   0  0  0  0  0  0  0  0  0  0  0  0
   47.9388   55.2934   34.6216 C   0  0  1  0  0  0  0  0  0  0  0  0
   48.5047   54.7918   35.8157 O   0  0  0  0  0  0  0  0  0  0  0  0
   49.0017   56.1102   33.9136 C   0  0  2  0  0  0  0  0  0  0  0  0
   48.9793   51.1361   26.6320 O   0  0  0  0  0  0  0  0  0  0  0  0
   44.7130   58.6879   32.3075 N   0  0  0  0  0  0  0  0  0  0  0  0
   44.8020   57.4082   32.7943 C   0  0  0  0  0  0  0  0  0  0  0  0
   46.0302   56.8923   33.1515 N   0  0  0  0  0  0  0  0  0  0  0  0
   47.1479   57.6352   33.0657 C   0  0  0  0  0  0  0  0  0  0  0  0
   47.0792   58.9294   32.5787 C   0  0  0  0  0  0  0  0  0  0  0  0
   45.8545   59.4422   32.2000 C   0  0  0  0  0  0  0  0  0  0  0  0
   45.7640   60.6768   31.7450 N   0  0  0  0  0  0  0  0  0  0  0  0
   48.3247   59.4544   32.5908 N   0  0  0  0  0  0  0  0  0  0  0  0
   49.1797   58.5071   33.0523 C   0  0  0  0  0  0  0  0  0  0  0  0
   48.4614   57.3707   33.3537 N   0  0  0  0  0  0  0  0  0  0  0  0
  2  1  1  6  0  0  0
  2  3  1  0  0  0  0
  2  5  1  0  0  0  0
  3  4  1  0  0  0  0
  3 16  1  0  0  0  0
  5  6  1  0  0  0  0
  6  7  1  0  0  0  0
  7  8  1  0  0  0  0
  9  8  1  6  0  0  0
  9 10  1  0  0  0  0
  9 11  1  0  0  0  0
 10 15  1  0  0  0  0
 11 12  1  1  0  0  0
 11 13  1  0  0  0  0
 13 14  1  1  0  0  0
 13 15  1  0  0  0  0
 15 26  1  6  0  0  0
 17 18  2  0  0  0  0
 17 22  1  0  0  0  0
 18 19  1  0  0  0  0
 19 20  2  0  0  0  0
 20 21  1  0  0  0  0
 20 26  1  0  0  0  0
 21 22  2  0  0  0  0
 21 24  1  0  0  0  0
 22 23  1  0  0  0  0
 24 25  2  0  0  0  0
 25 26  1  0  0  0  0
M  END
>  <CHROM.1>
77.80888310,-173.35963855,68.05906589,153.20063440,-177.73180663,61.13020797
100.81122506,48.39587587,55.22665805,31.30651097,0.45092905,1.14578271,-1.26998550

>  <Name>
ligand

>  <RI>
0

>  <Rbt.Current_Directory>
/home/itssahil/PROJECTS/Mol_Feturizer/New_Systems/rnas/3GX3

>  <Rbt.Executable>
rbdock ($Id: //depot/dev/client3/rdock/2013.1/src/exe/rbdock.cxx#4 $)

>  <Rbt.Library>
libRbt.so (2013.1, Build901 2013/11/27)

>  <Rbt.Parameter_File>
/export/apps/rDock/src/rDock_2013.1_src/data/scripts/dock_solv.prm

>  <Rbt.Receptor>
prm/pocket_docking_5.prm

>  <SCORE>
-17.0366

>  <SCORE.INTER>
-14.3304

>  <SCORE.INTER.CONST>
1

>  <SCORE.INTER.POLAR>
0

>  <SCORE.INTER.ROT>
7

>  <SCORE.INTER.SOLV>
15.7212

>  <SCORE.INTER.VDW>
-23.0607

>  <SCORE.INTER.norm>
-0.551169

>  <SCORE.INTRA>
-2.70618

>  <SCORE.INTRA.DIHEDRAL>
-1.51708

>  <SCORE.INTRA.DIHEDRAL.0>
5.78979

>  <SCORE.INTRA.POLAR>
0

>  <SCORE.INTRA.POLAR.0>
0

>  <SCORE.INTRA.REPUL>
0

>  <SCORE.INTRA.REPUL.0>
0

>  <SCORE.INTRA.SOLV>
-1.01419

>  <SCORE.INTRA.SOLV.lig_0>
-49.9151

>  <SCORE.INTRA.VDW>
-1.44055

>  <SCORE.INTRA.VDW.0>
-0.211125

>  <SCORE.INTRA.norm>
-0.104084

>  <SCORE.RESTR>
0

>  <SCORE.RESTR.CAVITY>
0

>  <SCORE.RESTR.norm>
0

>  <SCORE.SYSTEM>
0

>  <SCORE.SYSTEM.CONST>
0

>  <SCORE.SYSTEM.DIHEDRAL>
0

>  <SCORE.SYSTEM.SOLV>
0

>  <SCORE.SYSTEM.norm>
0

>  <SCORE.heavy>
26

>  <SCORE.norm>
-0.655253

>  <RMSD>
3.110

$$$$
ligand
 OpenBabel11021811483D
libRbt.so/2013.1/901 2013/11/27
 26 28  0  0  0  0  0  0  0  0999 V2000
   48.6148   53.4341   25.8319 N   0  0  0  0  0  0  0  0  0  0  0  0
   49.7815   52.6605   26.2657 C   0  0  2  0  0  0  0  0  0  0  0  0
   49.5964   51.1439   26.1791 C   0  0  0  0  0  0  0  0  0  0  0  0
   50.6030   50.4395   26.0973 O   0  0  0  0  0  0  0  0  0  0  0  0
   50.2693   52.9681   27.6874 C   0  0  0  0  0  0  0  0  0  0  0  0
   49.2969   53.0386   28.8519 C   0  0  0  0  0  0  0  0  0  0  0  0
   50.2858   53.3754   30.3272 S   0  0  0  0  0  0  0  0  0  0  0  0
   48.7431   53.8858   31.1215 C   0  0  0  0  0  0  0  0  0  0  0  0
   48.8697   54.1837   32.6194 C   0  0  1  0  0  0  0  0  0  0  0  0
   49.5713   55.4013   32.8954 O   0  0  0  0  0  0  0  0  0  0  0  0
   47.4971   54.3011   33.2661 C   0  0  1  0  0  0  0  0  0  0  0  0
   47.0662   53.0632   33.7869 O   0  0  0  0  0  0  0  0  0  0  0  0
   47.6682   55.3748   34.3328 C   0  0  1  0  0  0  0  0  0  0  0  0
   48.0234   54.8170   35.5820 O   0  0  0  0  0  0  0  0  0  0  0  0
   48.8503   56.1825   33.8342 C   0  0  2  0  0  0  0  0  0  0  0  0
   48.4857   50.5992   26.2023 O   0  0  0  0  0  0  0  0  0  0  0  0
   44.8403   59.1229   32.1339 N   0  0  0  0  0  0  0  0  0  0  0  0
   44.8028   57.8512   32.6477 C   0  0  0  0  0  0  0  0  0  0  0  0
   45.9731   57.2282   33.0274 N   0  0  0  0  0  0  0  0  0  0  0  0
   47.1574   57.8590   32.9371 C   0  0  0  0  0  0  0  0  0  0  0  0
   47.2166   59.1431   32.4230 C   0  0  0  0  0  0  0  0  0  0  0  0
   46.0495   59.7623   32.0221 C   0  0  0  0  0  0  0  0  0  0  0  0
   46.0810   60.9899   31.5409 N   0  0  0  0  0  0  0  0  0  0  0  0
   48.5065   59.5470   32.4365 N   0  0  0  0  0  0  0  0  0  0  0  0
   49.2633   58.5325   32.9256 C   0  0  0  0  0  0  0  0  0  0  0  0
   48.4373   57.4766   33.2433 N   0  0  0  0  0  0  0  0  0  0  0  0
  2  1  1  1  0  0  0
  2  3  1  0  0  0  0
  2  5  1  0  0  0  0
  3  4  1  0  0  0  0
  3 16  1  0  0  0  0
  5  6  1  0  0  0  0
  6  7  1  0  0  0  0
  7  8  1  0  0  0  0
  9  8  1  6  0  0  0
  9 10  1  0  0  0  0
  9 11  1  0  0  0  0
 10 15  1  0  0  0  0
 11 12  1  1  0  0  0
 11 13  1  0  0  0  0
 13 14  1  1  0  0  0
 13 15  1  0  0  0  0
 15 26  1  6  0  0  0
 17 18  2  0  0  0  0
 17 22  1  0  0  0  0
 18 19  1  0  0  0  0
 19 20  2  0  0  0  0
 20 21  1  0  0  0  0
 20 26  1  0  0  0  0
 21 22  2  0  0  0  0
 21 24  1  0  0  0  0
 22 23  1  0  0  0  0
 24 25  2  0  0  0  0
 25 26  1  0  0  0  0
M  END
>  <CHROM.1>
156.89689847,47.47532517,178.50732760,162.25448912,172.92583520,72.15626095
110.87618412,48.27636783,55.25697734,31.09181326,0.69117122,1.17544675,-1.54263934

>  <Name>
ligand

>  <RI>
0

>  <Rbt.Current_Directory>
/home/itssahil/PROJECTS/Mol_Feturizer/New_Systems/rnas/3GX3

>  <Rbt.Executable>
rbdock ($Id: //depot/dev/client3/rdock/2013.1/src/exe/rbdock.cxx#4 $)

>  <Rbt.Library>
libRbt.so (2013.1, Build901 2013/11/27)

>  <Rbt.Parameter_File>
/export/apps/rDock/src/rDock_2013.1_src/data/scripts/dock_solv.prm

>  <Rbt.Receptor>
prm/pocket_docking_8.prm

>  <SCORE>
-18.4361

>  <SCORE.INTER>
-15.6228

>  <SCORE.INTER.CONST>
1

>  <SCORE.INTER.POLAR>
0

>  <SCORE.INTER.ROT>
7

>  <SCORE.INTER.SOLV>
14.8007

>  <SCORE.INTER.VDW>
-23.6154

>  <SCORE.INTER.norm>
-0.600876

>  <SCORE.INTRA>
-2.81336

>  <SCORE.INTRA.DIHEDRAL>
-1.27512

>  <SCORE.INTRA.DIHEDRAL.0>
5.78979

>  <SCORE.INTRA.POLAR>
0

>  <SCORE.INTRA.POLAR.0>
0

>  <SCORE.INTRA.REPUL>
0

>  <SCORE.INTRA.REPUL.0>
0

>  <SCORE.INTRA.SOLV>
-0.507471

>  <SCORE.INTRA.SOLV.lig_0>
-49.9151

>  <SCORE.INTRA.VDW>
-1.92206

>  <SCORE.INTRA.VDW.0>
-0.211125

>  <SCORE.INTRA.norm>
-0.108206

>  <SCORE.RESTR>
0

>  <SCORE.RESTR.CAVITY>
0

>  <SCORE.RESTR.norm>
0

>  <SCORE.SYSTEM>
0

>  <SCORE.SYSTEM.CONST>
0

>  <SCORE.SYSTEM.DIHEDRAL>
0

>  <SCORE.SYSTEM.SOLV>
0

>  <SCORE.SYSTEM.norm>
0

>  <SCORE.heavy>
26

>  <SCORE.norm>
-0.709082

>  <RMSD>
3.124

$$$$
ligand
 OpenBabel11021811483D
libRbt.so/2013.1/901 2013/11/27
 26 28  0  0  0  0  0  0  0  0999 V2000
   51.2631   51.3305   25.7893 N   0  0  0  0  0  0  0  0  0  0  0  0
   50.2818   51.3392   26.8778 C   0  0  2  0  0  0  0  0  0  0  0  0
   48.8352   51.1401   26.4200 C   0  0  0  0  0  0  0  0  0  0  0  0
   48.5705   50.1429   25.7480 O   0  0  0  0  0  0  0  0  0  0  0  0
   50.3009   52.5971   27.7558 C   0  0  0  0  0  0  0  0  0  0  0  0
   49.4548   52.6883   29.0137 C   0  0  0  0  0  0  0  0  0  0  0  0
   50.0883   54.0935   29.9581 S   0  0  0  0  0  0  0  0  0  0  0  0
   48.6329   53.9092   31.0160 C   0  0  0  0  0  0  0  0  0  0  0  0
   48.8708   54.2611   32.4884 C   0  0  1  0  0  0  0  0  0  0  0  0
   49.4989   55.5354   32.6699 O   0  0  0  0  0  0  0  0  0  0  0  0
   47.5572   54.2958   33.2560 C   0  0  1  0  0  0  0  0  0  0  0  0
   47.2715   53.0457   33.8433 O   0  0  0  0  0  0  0  0  0  0  0  0
   47.7408   55.4112   34.2769 C   0  0  1  0  0  0  0  0  0  0  0  0
   48.2490   54.9197   35.5007 O   0  0  0  0  0  0  0  0  0  0  0  0
   48.8076   56.2890   33.6525 C   0  0  2  0  0  0  0  0  0  0  0  0
   47.9242   51.9265   26.7076 O   0  0  0  0  0  0  0  0  0  0  0  0
   44.4427   58.9128   32.3559 N   0  0  0  0  0  0  0  0  0  0  0  0
   44.5485   57.6641   32.9145 C   0  0  0  0  0  0  0  0  0  0  0  0
   45.7934   57.1279   33.1691 N   0  0  0  0  0  0  0  0  0  0  0  0
   46.9155   57.8231   32.9121 C   0  0  0  0  0  0  0  0  0  0  0  0
   46.8304   59.0855   32.3501 C   0  0  0  0  0  0  0  0  0  0  0  0
   45.5864   59.6171   32.0741 C   0  0  0  0  0  0  0  0  0  0  0  0
   45.4814   60.8229   31.5502 N   0  0  0  0  0  0  0  0  0  0  0  0
   48.0841   59.5651   32.1909 N   0  0  0  0  0  0  0  0  0  0  0  0
   48.9575   58.6186   32.6186 C   0  0  0  0  0  0  0  0  0  0  0  0
   48.2448   57.5302   33.0719 N   0  0  0  0  0  0  0  0  0  0  0  0
  2  1  1  6  0  0  0
  2  3  1  0  0  0  0
  2  5  1  0  0  0  0
  3  4  1  0  0  0  0
  3 16  1  0  0  0  0
  5  6  1  0  0  0  0
  6  7  1  0  0  0  0
  7  8  1  0  0  0  0
  9  8  1  6  0  0  0
  9 10  1  0  0  0  0
  9 11  1  0  0  0  0
 10 15  1  0  0  0  0
 11 12  1  1  0  0  0
 11 13  1  0  0  0  0
 13 14  1  1  0  0  0
 13 15  1  0  0  0  0
 15 26  1  6  0  0  0
 17 18  2  0  0  0  0
 17 22  1  0  0  0  0
 18 19  1  0  0  0  0
 19 20  2  0  0  0  0
 20 21  1  0  0  0  0
 20 26  1  0  0  0  0
 21 22  2  0  0  0  0
 21 24  1  0  0  0  0
 22 23  1  0  0  0  0
 24 25  2  0  0  0  0
 25 26  1  0  0  0  0
M  END
>  <CHROM.1>
55.13179527,-173.05551274,165.24434820,169.89016853,146.48382213,50.47940819
112.92051688,48.14244589,55.20250152,31.07073832,0.81954273,1.08745320,-1.71585342

>  <Name>
ligand

>  <RI>
0

>  <Rbt.Current_Directory>
/home/itssahil/PROJECTS/Mol_Feturizer/New_Systems/rnas/3GX3

>  <Rbt.Executable>
rbdock ($Id: //depot/dev/client3/rdock/2013.1/src/exe/rbdock.cxx#4 $)

>  <Rbt.Library>
libRbt.so (2013.1, Build901 2013/11/27)

>  <Rbt.Parameter_File>
/export/apps/rDock/src/rDock_2013.1_src/data/scripts/dock_solv.prm

>  <Rbt.Receptor>
prm/pocket_docking_8.prm

>  <SCORE>
-17.3812

>  <SCORE.INTER>
-16.3647

>  <SCORE.INTER.CONST>
1

>  <SCORE.INTER.POLAR>
0

>  <SCORE.INTER.ROT>
7

>  <SCORE.INTER.SOLV>
17.2762

>  <SCORE.INTER.VDW>
-24.9352

>  <SCORE.INTER.norm>
-0.629413

>  <SCORE.INTRA>
-1.0165

>  <SCORE.INTRA.DIHEDRAL>
-0.12117

>  <SCORE.INTRA.DIHEDRAL.0>
5.78979

>  <SCORE.INTRA.POLAR>
0

>  <SCORE.INTRA.POLAR.0>
0

>  <SCORE.INTRA.REPUL>
0

>  <SCORE.INTRA.REPUL.0>
0

>  <SCORE.INTRA.SOLV>
-1.11322

>  <SCORE.INTRA.SOLV.lig_0>
-49.9151

>  <SCORE.INTRA.VDW>
-0.3993

>  <SCORE.INTRA.VDW.0>
-0.211125

>  <SCORE.INTRA.norm>
-0.039096

>  <SCORE.RESTR>
0

>  <SCORE.RESTR.CAVITY>
0

>  <SCORE.RESTR.norm>
0

>  <SCORE.SYSTEM>
0

>  <SCORE.SYSTEM.CONST>
0

>  <SCORE.SYSTEM.DIHEDRAL>
0

>  <SCORE.SYSTEM.SOLV>
0

>  <SCORE.SYSTEM.norm>
0

>  <SCORE.heavy>
26

>  <SCORE.norm>
-0.668509

>  <RMSD>
3.233

$$$$
ligand
 OpenBabel11021811483D
libRbt.so/2013.1/901 2013/11/27
 26 28  0  0  0  0  0  0  0  0999 V2000
   47.8344   53.0602   26.1784 N   0  0  0  0  0  0  0  0  0  0  0  0
   47.5921   52.2128   27.3493 C   0  0  2  0  0  0  0  0  0  0  0  0
   46.1842   52.3397   27.9352 C   0  0  0  0  0  0  0  0  0  0  0  0
   45.2996   52.8162   27.2235 O   0  0  0  0  0  0  0  0  0  0  0  0
   48.5759   52.4154   28.5090 C   0  0  0  0  0  0  0  0  0  0  0  0
   48.6816   53.7516   29.2232 C   0  0  0  0  0  0  0  0  0  0  0  0
   50.0418   53.5968   30.4036 S   0  0  0  0  0  0  0  0  0  0  0  0
   49.3086   54.9998   31.2785 C   0  0  0  0  0  0  0  0  0  0  0  0
   48.3624   54.6111   32.4195 C   0  0  1  0  0  0  0  0  0  0  0  0
   48.0827   55.6936   33.3145 O   0  0  0  0  0  0  0  0  0  0  0  0
   47.0277   54.1244   31.8741 C   0  0  1  0  0  0  0  0  0  0  0  0
   47.0210   52.7242   31.7043 O   0  0  0  0  0  0  0  0  0  0  0  0
   46.0005   54.6114   32.8879 C   0  0  1  0  0  0  0  0  0  0  0  0
   45.7543   53.6429   33.8874 O   0  0  0  0  0  0  0  0  0  0  0  0
   46.6871   55.7916   33.5469 C   0  0  2  0  0  0  0  0  0  0  0  0
   45.8966   51.9723   29.0812 O   0  0  0  0  0  0  0  0  0  0  0  0
   47.8428   60.4687   31.4476 N   0  0  0  0  0  0  0  0  0  0  0  0
   48.7021   59.4537   31.7851 C   0  0  0  0  0  0  0  0  0  0  0  0
   48.2101   58.2947   32.3479 N   0  0  0  0  0  0  0  0  0  0  0  0
   46.8907   58.1220   32.5423 C   0  0  0  0  0  0  0  0  0  0  0  0
   46.0067   59.1334   32.2070 C   0  0  0  0  0  0  0  0  0  0  0  0
   46.4974   60.3036   31.6629 C   0  0  0  0  0  0  0  0  0  0  0  0
   45.6723   61.2753   31.3246 N   0  0  0  0  0  0  0  0  0  0  0  0
   44.7543   58.7171   32.4992 N   0  0  0  0  0  0  0  0  0  0  0  0
   44.8353   57.4732   33.0354 C   0  0  0  0  0  0  0  0  0  0  0  0
   46.1580   57.0892   33.0665 N   0  0  0  0  0  0  0  0  0  0  0  0
  2  1  1  6  0  0  0
  2  3  1  0  0  0  0
  2  5  1  0  0  0  0
  3  4  1  0  0  0  0
  3 16  1  0  0  0  0
  5  6  1  0  0  0  0
  6  7  1  0  0  0  0
  7  8  1  0  0  0  0
  9  8  1  6  0  0  0
  9 10  1  0  0  0  0
  9 11  1  0  0  0  0
 10 15  1  0  0  0  0
 11 12  1  1  0  0  0
 11 13  1  0  0  0  0
 13 14  1  1  0  0  0
 13 15  1  0  0  0  0
 15 26  1  6  0  0  0
 17 18  2  0  0  0  0
 17 22  1  0  0  0  0
 18 19  1  0  0  0  0
 19 20  2  0  0  0  0
 20 21  1  0  0  0  0
 20 26  1  0  0  0  0
 21 22  2  0  0  0  0
 21 24  1  0  0  0  0
 22 23  1  0  0  0  0
 24 25  2  0  0  0  0
 25 26  1  0  0  0  0
M  END
>  <CHROM.1>
19.01522835,62.20877812,-175.11033850,-159.64218745,94.18144927,164.10073834
-4.04107291,47.21618912,55.50681640,31.04934256,-0.28651410,1.43315705,-0.75739644

>  <Name>
ligand

>  <RI>
0

>  <Rbt.Current_Directory>
/home/itssahil/PROJECTS/Mol_Feturizer/New_Systems/rnas/3GX3

>  <Rbt.Executable>
rbdock ($Id: //depot/dev/client3/rdock/2013.1/src/exe/rbdock.cxx#4 $)

>  <Rbt.Library>
libRbt.so (2013.1, Build901 2013/11/27)

>  <Rbt.Parameter_File>
/export/apps/rDock/src/rDock_2013.1_src/data/scripts/dock_solv.prm

>  <Rbt.Receptor>
prm/pocket_docking_5.prm

>  <SCORE>
-14.8498

>  <SCORE.INTER>
-12.5798

>  <SCORE.INTER.CONST>
1

>  <SCORE.INTER.POLAR>
0

>  <SCORE.INTER.ROT>
7

>  <SCORE.INTER.SOLV>
14.9571

>  <SCORE.INTER.VDW>
-21.6389

>  <SCORE.INTER.norm>
-0.48384

>  <SCORE.INTRA>
-2.26995

>  <SCORE.INTRA.DIHEDRAL>
0.0589772

>  <SCORE.INTRA.DIHEDRAL.0>
5.78979

>  <SCORE.INTRA.POLAR>
0

>  <SCORE.INTRA.POLAR.0>
0

>  <SCORE.INTRA.REPUL>
0

>  <SCORE.INTRA.REPUL.0>
0

>  <SCORE.INTRA.SOLV>
0.0997148

>  <SCORE.INTRA.SOLV.lig_0>
-49.9151

>  <SCORE.INTRA.VDW>
-2.3493

>  <SCORE.INTRA.VDW.0>
-0.211125

>  <SCORE.INTRA.norm>
-0.0873058

>  <SCORE.RESTR>
0

>  <SCORE.RESTR.CAVITY>
0

>  <SCORE.RESTR.norm>
0

>  <SCORE.SYSTEM>
0

>  <SCORE.SYSTEM.CONST>
0

>  <SCORE.SYSTEM.DIHEDRAL>
0

>  <SCORE.SYSTEM.SOLV>
0

>  <SCORE.SYSTEM.norm>
0

>  <SCORE.heavy>
26

>  <SCORE.norm>
-0.571146

>  <RMSD>
3.262

$$$$
ligand
 OpenBabel11021811483D
libRbt.so/2013.1/901 2013/11/27
 26 28  0  0  0  0  0  0  0  0999 V2000
   49.1908   53.4027   26.2751 N   0  0  0  0  0  0  0  0  0  0  0  0
   49.7942   52.3664   27.1176 C   0  0  2  0  0  0  0  0  0  0  0  0
   50.3800   51.1867   26.3385 C   0  0  0  0  0  0  0  0  0  0  0  0
   49.6681   50.6334   25.4999 O   0  0  0  0  0  0  0  0  0  0  0  0
   48.8624   51.7760   28.1838 C   0  0  0  0  0  0  0  0  0  0  0  0
   48.2200   52.6589   29.2395 C   0  0  0  0  0  0  0  0  0  0  0  0
   49.5580   53.2390   30.3075 S   0  0  0  0  0  0  0  0  0  0  0  0
   48.2732   53.7176   31.4871 C   0  0  0  0  0  0  0  0  0  0  0  0
   48.7977   54.1009   32.8750 C   0  0  1  0  0  0  0  0  0  0  0  0
   49.5568   55.3153   32.8759 O   0  0  0  0  0  0  0  0  0  0  0  0
   47.6489   54.2899   33.8549 C   0  0  1  0  0  0  0  0  0  0  0  0
   47.3636   53.0960   34.5496 O   0  0  0  0  0  0  0  0  0  0  0  0
   48.1070   55.4207   34.7668 C   0  0  1  0  0  0  0  0  0  0  0  0
   48.7789   54.9298   35.9093 O   0  0  0  0  0  0  0  0  0  0  0  0
   49.1189   56.1683   33.9209 C   0  0  2  0  0  0  0  0  0  0  0  0
   51.5360   50.7780   26.5048 O   0  0  0  0  0  0  0  0  0  0  0  0
   44.8245   58.7355   32.3130 N   0  0  0  0  0  0  0  0  0  0  0  0
   44.9205   57.4470   32.7747 C   0  0  0  0  0  0  0  0  0  0  0  0
   46.1493   56.9362   33.1370 N   0  0  0  0  0  0  0  0  0  0  0  0
   47.2603   57.6918   33.0806 C   0  0  0  0  0  0  0  0  0  0  0  0
   47.1846   58.9949   32.6192 C   0  0  0  0  0  0  0  0  0  0  0  0
   45.9595   59.5032   32.2355 C   0  0  0  0  0  0  0  0  0  0  0  0
   45.8621   60.7459   31.8046 N   0  0  0  0  0  0  0  0  0  0  0  0
   48.4244   59.5320   32.6580 N   0  0  0  0  0  0  0  0  0  0  0  0
   49.2831   58.5840   33.1110 C   0  0  0  0  0  0  0  0  0  0  0  0
   48.5727   57.4346   33.3799 N   0  0  0  0  0  0  0  0  0  0  0  0
  2  1  1  6  0  0  0
  2  3  1  0  0  0  0
  2  5  1  0  0  0  0
  3  4  1  0  0  0  0
  3 16  1  0  0  0  0
  5  6  1  0  0  0  0
  6  7  1  0  0  0  0
  7  8  1  0  0  0  0
  9  8  1  6  0  0  0
  9 10  1  0  0  0  0
  9 11  1  0  0  0  0
 10 15  1  0  0  0  0
 11 12  1  1  0  0  0
 11 13  1  0  0  0  0
 13 14  1  1  0  0  0
 13 15  1  0  0  0  0
 15 26  1  6  0  0  0
 17 18  2  0  0  0  0
 17 22  1  0  0  0  0
 18 19  1  0  0  0  0
 19 20  2  0  0  0  0
 20 21  1  0  0  0  0
 20 26  1  0  0  0  0
 21 22  2  0  0  0  0
 21 24  1  0  0  0  0
 22 23  1  0  0  0  0
 24 25  2  0  0  0  0
 25 26  1  0  0  0  0
M  END
>  <CHROM.1>
-51.07136450,-58.71689928,-67.88035764,-164.71149544,168.82013432,67.90052293
92.65204087,48.31617382,55.12030731,31.33008135,0.71286402,1.15618467,-1.55285176

>  <Name>
ligand

>  <RI>
0

>  <Rbt.Current_Directory>
/home/itssahil/PROJECTS/Mol_Feturizer/New_Systems/rnas/3GX3

>  <Rbt.Executable>
rbdock ($Id: //depot/dev/client3/rdock/2013.1/src/exe/rbdock.cxx#4 $)

>  <Rbt.Library>
libRbt.so (2013.1, Build901 2013/11/27)

>  <Rbt.Parameter_File>
/export/apps/rDock/src/rDock_2013.1_src/data/scripts/dock_solv.prm

>  <Rbt.Receptor>
prm/pocket_docking_8.prm

>  <SCORE>
-20.8126

>  <SCORE.INTER>
-17.3617

>  <SCORE.INTER.CONST>
1

>  <SCORE.INTER.POLAR>
0

>  <SCORE.INTER.ROT>
7

>  <SCORE.INTER.SOLV>
14.6999

>  <SCORE.INTER.VDW>
-24.7411

>  <SCORE.INTER.norm>
-0.667756

>  <SCORE.INTRA>
-3.45096

>  <SCORE.INTRA.DIHEDRAL>
-1.89875

>  <SCORE.INTRA.DIHEDRAL.0>
5.78979

>  <SCORE.INTRA.POLAR>
0

>  <SCORE.INTRA.POLAR.0>
0

>  <SCORE.INTRA.REPUL>
0

>  <SCORE.INTRA.REPUL.0>
0

>  <SCORE.INTRA.SOLV>
-0.0353009

>  <SCORE.INTRA.SOLV.lig_0>
-49.9151

>  <SCORE.INTRA.VDW>
-2.48394

>  <SCORE.INTRA.VDW.0>
-0.211125

>  <SCORE.INTRA.norm>
-0.132729

>  <SCORE.RESTR>
0

>  <SCORE.RESTR.CAVITY>
0

>  <SCORE.RESTR.norm>
0

>  <SCORE.SYSTEM>
0

>  <SCORE.SYSTEM.CONST>
0

>  <SCORE.SYSTEM.DIHEDRAL>
0

>  <SCORE.SYSTEM.SOLV>
0

>  <SCORE.SYSTEM.norm>
0

>  <SCORE.heavy>
26

>  <SCORE.norm>
-0.800486

>  <RMSD>
3.294

$$$$
ligand
 OpenBabel11021811483D
libRbt.so/2013.1/901 2013/11/27
 26 28  0  0  0  0  0  0  0  0999 V2000
   49.9846   53.5327   26.5058 N   0  0  0  0  0  0  0  0  0  0  0  0
   50.3290   52.3137   27.2428 C   0  0  2  0  0  0  0  0  0  0  0  0
   50.7889   51.1537   26.3571 C   0  0  0  0  0  0  0  0  0  0  0  0
   51.9406   50.7400   26.4931 O   0  0  0  0  0  0  0  0  0  0  0  0
   49.2160   51.7683   28.1469 C   0  0  0  0  0  0  0  0  0  0  0  0
   48.5066   52.6659   29.1457 C   0  0  0  0  0  0  0  0  0  0  0  0
   49.7543   53.1851   30.3463 S   0  0  0  0  0  0  0  0  0  0  0  0
   48.3794   53.7241   31.3906 C   0  0  0  0  0  0  0  0  0  0  0  0
   48.7769   54.0841   32.8261 C   0  0  1  0  0  0  0  0  0  0  0  0
   49.5599   55.2802   32.9119 O   0  0  0  0  0  0  0  0  0  0  0  0
   47.5439   54.2927   33.6934 C   0  0  1  0  0  0  0  0  0  0  0  0
   47.1660   53.1005   34.3456 O   0  0  0  0  0  0  0  0  0  0  0  0
   47.9380   55.4052   34.6562 C   0  0  1  0  0  0  0  0  0  0  0  0
   48.4857   54.8897   35.8528 O   0  0  0  0  0  0  0  0  0  0  0  0
   49.0432   56.1352   33.9187 C   0  0  2  0  0  0  0  0  0  0  0  0
   50.0520   50.6085   25.5260 O   0  0  0  0  0  0  0  0  0  0  0  0
   44.9227   58.9356   32.2464 N   0  0  0  0  0  0  0  0  0  0  0  0
   44.9343   57.6584   32.7475 C   0  0  0  0  0  0  0  0  0  0  0  0
   46.1278   57.0772   33.1213 N   0  0  0  0  0  0  0  0  0  0  0  0
   47.2869   57.7540   33.0378 C   0  0  0  0  0  0  0  0  0  0  0  0
   47.2965   59.0446   32.5365 C   0  0  0  0  0  0  0  0  0  0  0  0
   46.1063   59.6222   32.1413 C   0  0  0  0  0  0  0  0  0  0  0  0
   46.0905   60.8549   31.6724 N   0  0  0  0  0  0  0  0  0  0  0  0
   48.5699   59.4977   32.5544 N   0  0  0  0  0  0  0  0  0  0  0  0
   49.3653   58.5083   33.0337 C   0  0  0  0  0  0  0  0  0  0  0  0
   48.5807   57.4182   33.3405 N   0  0  0  0  0  0  0  0  0  0  0  0
  2  1  1  6  0  0  0
  2  3  1  0  0  0  0
  2  5  1  0  0  0  0
  3  4  1  0  0  0  0
  3 16  1  0  0  0  0
  5  6  1  0  0  0  0
  6  7  1  0  0  0  0
  7  8  1  0  0  0  0
  9  8  1  6  0  0  0
  9 10  1  0  0  0  0
  9 11  1  0  0  0  0
 10 15  1  0  0  0  0
 11 12  1  1  0  0  0
 11 13  1  0  0  0  0
 13 14  1  1  0  0  0
 13 15  1  0  0  0  0
 15 26  1  6  0  0  0
 17 18  2  0  0  0  0
 17 22  1  0  0  0  0
 18 19  1  0  0  0  0
 19 20  2  0  0  0  0
 20 21  1  0  0  0  0
 20 26  1  0  0  0  0
 21 22  2  0  0  0  0
 21 24  1  0  0  0  0
 22 23  1  0  0  0  0
 24 25  2  0  0  0  0
 25 26  1  0  0  0  0
M  END
>  <CHROM.1>
116.70284128,-51.03774819,-64.14218777,-165.47444486,168.79565923,69.34170217
99.34015484,48.45137520,55.13665632,31.29458634,0.41327872,1.17957292,-1.25845909

>  <Name>
ligand

>  <RI>
0

>  <Rbt.Current_Directory>
/home/itssahil/PROJECTS/Mol_Feturizer/New_Systems/rnas/3GX3

>  <Rbt.Executable>
rbdock ($Id: //depot/dev/client3/rdock/2013.1/src/exe/rbdock.cxx#4 $)

>  <Rbt.Library>
libRbt.so (2013.1, Build901 2013/11/27)

>  <Rbt.Parameter_File>
/export/apps/rDock/src/rDock_2013.1_src/data/scripts/dock_solv.prm

>  <Rbt.Receptor>
prm/pocket_docking_7.prm

>  <SCORE>
-20.7207

>  <SCORE.INTER>
-17.6683

>  <SCORE.INTER.CONST>
1

>  <SCORE.INTER.POLAR>
0

>  <SCORE.INTER.ROT>
7

>  <SCORE.INTER.SOLV>
15.1421

>  <SCORE.INTER.VDW>
-25.0929

>  <SCORE.INTER.norm>
-0.679549

>  <SCORE.INTRA>
-3.05243

>  <SCORE.INTRA.DIHEDRAL>
-1.75401

>  <SCORE.INTRA.DIHEDRAL.0>
5.78979

>  <SCORE.INTRA.POLAR>
0

>  <SCORE.INTRA.POLAR.0>
0

>  <SCORE.INTRA.REPUL>
0

>  <SCORE.INTRA.REPUL.0>
0

>  <SCORE.INTRA.SOLV>
0.125599

>  <SCORE.INTRA.SOLV.lig_0>
-49.9151

>  <SCORE.INTRA.VDW>
-2.23822

>  <SCORE.INTRA.VDW.0>
-0.211125

>  <SCORE.INTRA.norm>
-0.117401

>  <SCORE.RESTR>
0

>  <SCORE.RESTR.CAVITY>
0

>  <SCORE.RESTR.norm>
0

>  <SCORE.SYSTEM>
0

>  <SCORE.SYSTEM.CONST>
0

>  <SCORE.SYSTEM.DIHEDRAL>
0

>  <SCORE.SYSTEM.SOLV>
0

>  <SCORE.SYSTEM.norm>
0

>  <SCORE.heavy>
26

>  <SCORE.norm>
-0.79695

>  <RMSD>
3.345

$$$$
ligand
 OpenBabel11021811483D
libRbt.so/2013.1/901 2013/11/27
 26 28  0  0  0  0  0  0  0  0999 V2000
   49.2601   53.2857   26.3022 N   0  0  0  0  0  0  0  0  0  0  0  0
   49.8435   52.2473   27.1560 C   0  0  2  0  0  0  0  0  0  0  0  0
   50.4032   51.0465   26.3901 C   0  0  0  0  0  0  0  0  0  0  0  0
   51.6012   50.7882   26.5097 O   0  0  0  0  0  0  0  0  0  0  0  0
   48.9017   51.6891   28.2308 C   0  0  0  0  0  0  0  0  0  0  0  0
   48.2463   52.6039   29.2507 C   0  0  0  0  0  0  0  0  0  0  0  0
   49.5767   53.2534   30.2879 S   0  0  0  0  0  0  0  0  0  0  0  0
   48.2927   53.6968   31.4821 C   0  0  0  0  0  0  0  0  0  0  0  0
   48.8224   54.0954   32.8637 C   0  0  1  0  0  0  0  0  0  0  0  0
   49.5538   55.3267   32.8542 O   0  0  0  0  0  0  0  0  0  0  0  0
   47.6794   54.2609   33.8548 C   0  0  1  0  0  0  0  0  0  0  0  0
   47.4282   53.0626   34.5551 O   0  0  0  0  0  0  0  0  0  0  0  0
   48.1209   55.4041   34.7593 C   0  0  1  0  0  0  0  0  0  0  0  0
   48.8152   54.9314   35.8961 O   0  0  0  0  0  0  0  0  0  0  0  0
   49.1071   56.1722   33.9016 C   0  0  2  0  0  0  0  0  0  0  0  0
   49.7038   50.3208   25.6724 O   0  0  0  0  0  0  0  0  0  0  0  0
   44.7435   58.6294   32.3080 N   0  0  0  0  0  0  0  0  0  0  0  0
   44.8740   57.3435   32.7684 C   0  0  0  0  0  0  0  0  0  0  0  0
   46.1165   56.8642   33.1268 N   0  0  0  0  0  0  0  0  0  0  0  0
   47.2076   57.6481   33.0678 C   0  0  0  0  0  0  0  0  0  0  0  0
   47.0970   58.9492   32.6077 C   0  0  0  0  0  0  0  0  0  0  0  0
   45.8582   59.4260   32.2279 C   0  0  0  0  0  0  0  0  0  0  0  0
   45.7276   60.6662   31.7983 N   0  0  0  0  0  0  0  0  0  0  0  0
   48.3227   59.5179   32.6434 N   0  0  0  0  0  0  0  0  0  0  0  0
   49.2068   58.5920   33.0931 C   0  0  0  0  0  0  0  0  0  0  0  0
   48.5270   57.4245   33.3632 N   0  0  0  0  0  0  0  0  0  0  0  0
  2  1  1  6  0  0  0
  2  3  1  0  0  0  0
  2  5  1  0  0  0  0
  3  4  1  0  0  0  0
  3 16  1  0  0  0  0
  5  6  1  0  0  0  0
  6  7  1  0  0  0  0
  7  8  1  0  0  0  0
  9  8  1  6  0  0  0
  9 10  1  0  0  0  0
  9 11  1  0  0  0  0
 10 15  1  0  0  0  0
 11 12  1  1  0  0  0
 11 13  1  0  0  0  0
 13 14  1  1  0  0  0
 13 15  1  0  0  0  0
 15 26  1  6  0  0  0
 17 18  2  0  0  0  0
 17 22  1  0  0  0  0
 18 19  1  0  0  0  0
 19 20  2  0  0  0  0
 20 21  1  0  0  0  0
 20 26  1  0  0  0  0
 21 22  2  0  0  0  0
 21 24  1  0  0  0  0
 22 23  1  0  0  0  0
 24 25  2  0  0  0  0
 25 26  1  0  0  0  0
M  END
>  <CHROM.1>
119.74972934,-56.82702538,-66.50911921,-162.54222931,167.69714958,67.57110120
92.16884283,48.31001978,55.06816133,31.33560945,0.72613304,1.13668491,-1.58345387

>  <Name>
ligand

>  <RI>
0

>  <Rbt.Current_Directory>
/home/itssahil/PROJECTS/Mol_Feturizer/New_Systems/rnas/3GX3

>  <Rbt.Executable>
rbdock ($Id: //depot/dev/client3/rdock/2013.1/src/exe/rbdock.cxx#4 $)

>  <Rbt.Library>
libRbt.so (2013.1, Build901 2013/11/27)

>  <Rbt.Parameter_File>
/export/apps/rDock/src/rDock_2013.1_src/data/scripts/dock_solv.prm

>  <Rbt.Receptor>
prm/pocket_docking_6.prm

>  <SCORE>
-21.0735

>  <SCORE.INTER>
-17.6647

>  <SCORE.INTER.CONST>
1

>  <SCORE.INTER.POLAR>
0

>  <SCORE.INTER.ROT>
7

>  <SCORE.INTER.SOLV>
14.6449

>  <SCORE.INTER.VDW>
-24.9247

>  <SCORE.INTER.norm>
-0.67941

>  <SCORE.INTRA>
-3.4088

>  <SCORE.INTRA.DIHEDRAL>
-1.8282

>  <SCORE.INTRA.DIHEDRAL.0>
5.78979

>  <SCORE.INTRA.POLAR>
0

>  <SCORE.INTRA.POLAR.0>
0

>  <SCORE.INTRA.REPUL>
0

>  <SCORE.INTRA.REPUL.0>
0

>  <SCORE.INTRA.SOLV>
-0.00544081

>  <SCORE.INTRA.SOLV.lig_0>
-49.9151

>  <SCORE.INTRA.VDW>
-2.49198

>  <SCORE.INTRA.VDW.0>
-0.211125

>  <SCORE.INTRA.norm>
-0.131108

>  <SCORE.RESTR>
0

>  <SCORE.RESTR.CAVITY>
0

>  <SCORE.RESTR.norm>
0

>  <SCORE.SYSTEM>
0

>  <SCORE.SYSTEM.CONST>
0

>  <SCORE.SYSTEM.DIHEDRAL>
0

>  <SCORE.SYSTEM.SOLV>
0

>  <SCORE.SYSTEM.norm>
0

>  <SCORE.heavy>
26

>  <SCORE.norm>
-0.810518

>  <RMSD>
3.352

$$$$
ligand
 OpenBabel11021811483D
libRbt.so/2013.1/901 2013/11/27
 26 28  0  0  0  0  0  0  0  0999 V2000
   48.8687   53.0530   26.1181 N   0  0  0  0  0  0  0  0  0  0  0  0
   49.5986   52.1786   27.0403 C   0  0  2  0  0  0  0  0  0  0  0  0
   50.2665   50.9764   26.3691 C   0  0  0  0  0  0  0  0  0  0  0  0
   51.4443   50.7404   26.6393 O   0  0  0  0  0  0  0  0  0  0  0  0
   48.7667   51.6306   28.2070 C   0  0  0  0  0  0  0  0  0  0  0  0
   48.1526   52.5620   29.2377 C   0  0  0  0  0  0  0  0  0  0  0  0
   49.5221   53.2149   30.2205 S   0  0  0  0  0  0  0  0  0  0  0  0
   48.2779   53.7258   31.4298 C   0  0  0  0  0  0  0  0  0  0  0  0
   48.8481   54.1320   32.7929 C   0  0  1  0  0  0  0  0  0  0  0  0
   49.5798   55.3625   32.7547 O   0  0  0  0  0  0  0  0  0  0  0  0
   47.7347   54.3045   33.8160 C   0  0  1  0  0  0  0  0  0  0  0  0
   47.5031   53.1106   34.5305 O   0  0  0  0  0  0  0  0  0  0  0  0
   48.2034   55.4526   34.7005 C   0  0  1  0  0  0  0  0  0  0  0  0
   48.9303   54.9860   35.8192 O   0  0  0  0  0  0  0  0  0  0  0  0
   49.1647   56.2146   33.8097 C   0  0  2  0  0  0  0  0  0  0  0  0
   49.6719   50.2285   25.5829 O   0  0  0  0  0  0  0  0  0  0  0  0
   44.7630   58.6553   32.2978 N   0  0  0  0  0  0  0  0  0  0  0  0
   44.9066   57.3704   32.7571 C   0  0  0  0  0  0  0  0  0  0  0  0
   46.1574   56.8957   33.0920 N   0  0  0  0  0  0  0  0  0  0  0  0
   47.2445   57.6831   33.0110 C   0  0  0  0  0  0  0  0  0  0  0  0
   47.1207   58.9832   32.5515 C   0  0  0  0  0  0  0  0  0  0  0  0
   45.8732   59.4555   32.1951 C   0  0  0  0  0  0  0  0  0  0  0  0
   45.7302   60.6946   31.7666 N   0  0  0  0  0  0  0  0  0  0  0  0
   48.3450   59.5561   32.5627 N   0  0  0  0  0  0  0  0  0  0  0  0
   49.2407   58.6337   32.9964 C   0  0  0  0  0  0  0  0  0  0  0  0
   48.5702   57.4643   33.2810 N   0  0  0  0  0  0  0  0  0  0  0  0
  2  1  1  6  0  0  0
  2  3  1  0  0  0  0
  2  5  1  0  0  0  0
  3  4  1  0  0  0  0
  3 16  1  0  0  0  0
  5  6  1  0  0  0  0
  6  7  1  0  0  0  0
  7  8  1  0  0  0  0
  9  8  1  6  0  0  0
  9 10  1  0  0  0  0
  9 11  1  0  0  0  0
 10 15  1  0  0  0  0
 11 12  1  1  0  0  0
 11 13  1  0  0  0  0
 13 14  1  1  0  0  0
 13 15  1  0  0  0  0
 15 26  1  6  0  0  0
 17 18  2  0  0  0  0
 17 22  1  0  0  0  0
 18 19  1  0  0  0  0
 19 20  2  0  0  0  0
 20 21  1  0  0  0  0
 20 26  1  0  0  0  0
 21 22  2  0  0  0  0
 21 24  1  0  0  0  0
 22 23  1  0  0  0  0
 24 25  2  0  0  0  0
 25 26  1  0  0  0  0
M  END
>  <CHROM.1>
131.74603861,-62.55983792,-70.57871459,-164.13466059,166.60313037,69.74183620
91.49580336,48.28694305,55.06621960,31.28202677,0.82128680,1.12762115,-1.69158600

>  <Name>
ligand

>  <RI>
0

>  <Rbt.Current_Directory>
/home/itssahil/PROJECTS/Mol_Feturizer/New_Systems/rnas/3GX3

>  <Rbt.Executable>
rbdock ($Id: //depot/dev/client3/rdock/2013.1/src/exe/rbdock.cxx#4 $)

>  <Rbt.Library>
libRbt.so (2013.1, Build901 2013/11/27)

>  <Rbt.Parameter_File>
/export/apps/rDock/src/rDock_2013.1_src/data/scripts/dock_solv.prm

>  <Rbt.Receptor>
prm/pocket_docking_6.prm

>  <SCORE>
-20.8461

>  <SCORE.INTER>
-17.4168

>  <SCORE.INTER.CONST>
1

>  <SCORE.INTER.POLAR>
0

>  <SCORE.INTER.ROT>
7

>  <SCORE.INTER.SOLV>
14.7418

>  <SCORE.INTER.VDW>
-24.7918

>  <SCORE.INTER.norm>
-0.669877

>  <SCORE.INTRA>
-3.42929

>  <SCORE.INTRA.DIHEDRAL>
-1.48605

>  <SCORE.INTRA.DIHEDRAL.0>
5.78979

>  <SCORE.INTRA.POLAR>
0

>  <SCORE.INTRA.POLAR.0>
0

>  <SCORE.INTRA.REPUL>
0

>  <SCORE.INTRA.REPUL.0>
0

>  <SCORE.INTRA.SOLV>
-0.170472

>  <SCORE.INTRA.SOLV.lig_0>
-49.9151

>  <SCORE.INTRA.VDW>
-2.60103

>  <SCORE.INTRA.VDW.0>
-0.211125

>  <SCORE.INTRA.norm>
-0.131896

>  <SCORE.RESTR>
0

>  <SCORE.RESTR.CAVITY>
0

>  <SCORE.RESTR.norm>
0

>  <SCORE.SYSTEM>
0

>  <SCORE.SYSTEM.CONST>
0

>  <SCORE.SYSTEM.DIHEDRAL>
0

>  <SCORE.SYSTEM.SOLV>
0

>  <SCORE.SYSTEM.norm>
0

>  <SCORE.heavy>
26

>  <SCORE.norm>
-0.801773

>  <RMSD>
3.370

$$$$
ligand
 OpenBabel11021811483D
libRbt.so/2013.1/901 2013/11/27
 26 28  0  0  0  0  0  0  0  0999 V2000
   49.4654   53.1702   26.3816 N   0  0  0  0  0  0  0  0  0  0  0  0
   50.6297   53.7910   27.0194 C   0  0  2  0  0  0  0  0  0  0  0  0
   50.9297   53.2657   28.4251 C   0  0  0  0  0  0  0  0  0  0  0  0
   52.0518   53.4632   28.8919 O   0  0  0  0  0  0  0  0  0  0  0  0
   50.5733   55.3209   27.1194 C   0  0  0  0  0  0  0  0  0  0  0  0
   49.5365   56.0122   27.9876 C   0  0  0  0  0  0  0  0  0  0  0  0
   50.1539   55.9351   29.6848 S   0  0  0  0  0  0  0  0  0  0  0  0
   48.5443   55.2415   30.1317 C   0  0  0  0  0  0  0  0  0  0  0  0
   48.3488   55.0098   31.6338 C   0  0  1  0  0  0  0  0  0  0  0  0
   48.2889   56.2250   32.3893 O   0  0  0  0  0  0  0  0  0  0  0  0
   47.0566   54.2518   31.9012 C   0  0  1  0  0  0  0  0  0  0  0  0
   47.2779   52.8598   31.9528 O   0  0  0  0  0  0  0  0  0  0  0  0
   46.5410   54.8272   33.2139 C   0  0  1  0  0  0  0  0  0  0  0  0
   47.0068   54.0891   34.3255 O   0  0  0  0  0  0  0  0  0  0  0  0
   47.1785   56.2015   33.2714 C   0  0  2  0  0  0  0  0  0  0  0  0
   50.0926   52.6679   29.1128 O   0  0  0  0  0  0  0  0  0  0  0  0
   46.5196   60.9678   31.1581 N   0  0  0  0  0  0  0  0  0  0  0  0
   47.6822   60.2515   31.2917 C   0  0  0  0  0  0  0  0  0  0  0  0
   47.6606   59.0119   31.8959 N   0  0  0  0  0  0  0  0  0  0  0  0
   46.5087   58.4698   32.3292 C   0  0  0  0  0  0  0  0  0  0  0  0
   45.3244   59.1755   32.2022 C   0  0  0  0  0  0  0  0  0  0  0  0
   45.3452   60.4259   31.6169 C   0  0  0  0  0  0  0  0  0  0  0  0
   44.2270   61.1107   31.4745 N   0  0  0  0  0  0  0  0  0  0  0  0
   44.3240   58.4216   32.7102 N   0  0  0  0  0  0  0  0  0  0  0  0
   44.8596   57.2657   33.1774 C   0  0  0  0  0  0  0  0  0  0  0  0
   46.2176   57.2807   32.9453 N   0  0  0  0  0  0  0  0  0  0  0  0
  2  1  1  1  0  0  0
  2  3  1  0  0  0  0
  2  5  1  0  0  0  0
  3  4  1  0  0  0  0
  3 16  1  0  0  0  0
  5  6  1  0  0  0  0
  6  7  1  0  0  0  0
  7  8  1  0  0  0  0
  9  8  1  6  0  0  0
  9 10  1  0  0  0  0
  9 11  1  0  0  0  0
 10 15  1  0  0  0  0
 11 12  1  1  0  0  0
 11 13  1  0  0  0  0
 13 14  1  1  0  0  0
 13 15  1  0  0  0  0
 15 26  1  6  0  0  0
 17 18  2  0  0  0  0
 17 22  1  0  0  0  0
 18 19  1  0  0  0  0
 19 20  2  0  0  0  0
 20 21  1  0  0  0  0
 20 26  1  0  0  0  0
 21 22  2  0  0  0  0
 21 24  1  0  0  0  0
 22 23  1  0  0  0  0
 24 25  2  0  0  0  0
 25 26  1  0  0  0  0
M  END
>  <CHROM.1>
161.69501362,65.79674416,80.13811511,-128.04426827,-175.51203137,67.45225650
-26.37406711,47.95758530,56.21238133,30.85811408,-0.36824061,0.89174766,-0.45846887

>  <Name>
ligand

>  <RI>
0

>  <Rbt.Current_Directory>
/home/itssahil/PROJECTS/Mol_Feturizer/New_Systems/rnas/3GX3

>  <Rbt.Executable>
rbdock ($Id: //depot/dev/client3/rdock/2013.1/src/exe/rbdock.cxx#4 $)

>  <Rbt.Library>
libRbt.so (2013.1, Build901 2013/11/27)

>  <Rbt.Parameter_File>
/export/apps/rDock/src/rDock_2013.1_src/data/scripts/dock_solv.prm

>  <Rbt.Receptor>
prm/pocket_docking_4.prm

>  <SCORE>
-14.7176

>  <SCORE.INTER>
-12.3583

>  <SCORE.INTER.CONST>
1

>  <SCORE.INTER.POLAR>
0

>  <SCORE.INTER.ROT>
7

>  <SCORE.INTER.SOLV>
17.487

>  <SCORE.INTER.VDW>
-22.3345

>  <SCORE.INTER.norm>
-0.475319

>  <SCORE.INTRA>
-2.35929

>  <SCORE.INTRA.DIHEDRAL>
1.07478

>  <SCORE.INTRA.DIHEDRAL.0>
5.78979

>  <SCORE.INTRA.POLAR>
0

>  <SCORE.INTRA.POLAR.0>
0

>  <SCORE.INTRA.REPUL>
0

>  <SCORE.INTRA.REPUL.0>
0

>  <SCORE.INTRA.SOLV>
0.0334583

>  <SCORE.INTRA.SOLV.lig_0>
-49.9151

>  <SCORE.INTRA.VDW>
-2.91341

>  <SCORE.INTRA.VDW.0>
-0.211125

>  <SCORE.INTRA.norm>
-0.0907418

>  <SCORE.RESTR>
0

>  <SCORE.RESTR.CAVITY>
0

>  <SCORE.RESTR.norm>
0

>  <SCORE.SYSTEM>
0

>  <SCORE.SYSTEM.CONST>
0

>  <SCORE.SYSTEM.DIHEDRAL>
0

>  <SCORE.SYSTEM.SOLV>
0

>  <SCORE.SYSTEM.norm>
0

>  <SCORE.heavy>
26

>  <SCORE.norm>
-0.56606

>  <RMSD>
3.372

$$$$
ligand
 OpenBabel11021811483D
libRbt.so/2013.1/901 2013/11/27
 26 28  0  0  0  0  0  0  0  0999 V2000
   48.8971   51.9013   26.3795 N   0  0  0  0  0  0  0  0  0  0  0  0
   49.6484   52.7822   27.2781 C   0  0  2  0  0  0  0  0  0  0  0  0
   51.0784   53.0751   26.8187 C   0  0  0  0  0  0  0  0  0  0  0  0
   51.7886   52.1250   26.4885 O   0  0  0  0  0  0  0  0  0  0  0  0
   49.7387   52.2987   28.7313 C   0  0  0  0  0  0  0  0  0  0  0  0
   50.5015   53.0942   29.7763 C   0  0  0  0  0  0  0  0  0  0  0  0
   49.6488   54.6799   29.9382 S   0  0  0  0  0  0  0  0  0  0  0  0
   48.5755   53.8649   31.1445 C   0  0  0  0  0  0  0  0  0  0  0  0
   48.8011   54.3070   32.5944 C   0  0  1  0  0  0  0  0  0  0  0  0
   48.8805   55.7290   32.7451 O   0  0  0  0  0  0  0  0  0  0  0  0
   47.6696   53.8240   33.4901 C   0  0  1  0  0  0  0  0  0  0  0  0
   47.9706   52.5742   34.0704 O   0  0  0  0  0  0  0  0  0  0  0  0
   47.4936   54.9360   34.5161 C   0  0  1  0  0  0  0  0  0  0  0  0
   48.2781   54.7101   35.6698 O   0  0  0  0  0  0  0  0  0  0  0  0
   48.0492   56.1578   33.8111 C   0  0  2  0  0  0  0  0  0  0  0  0
   51.5425   54.2201   26.7520 O   0  0  0  0  0  0  0  0  0  0  0  0
   46.9200   60.5777   31.2020 N   0  0  0  0  0  0  0  0  0  0  0  0
   48.1545   60.0454   31.4765 C   0  0  0  0  0  0  0  0  0  0  0  0
   48.2533   58.8739   32.1975 N   0  0  0  0  0  0  0  0  0  0  0  0
   47.1550   58.2171   32.6107 C   0  0  0  0  0  0  0  0  0  0  0  0
   45.9000   58.7366   32.3425 C   0  0  0  0  0  0  0  0  0  0  0  0
   45.7974   59.9203   31.6393 C   0  0  0  0  0  0  0  0  0  0  0  0
   44.6117   60.4269   31.3619 N   0  0  0  0  0  0  0  0  0  0  0  0
   44.9740   57.8988   32.8602 N   0  0  0  0  0  0  0  0  0  0  0  0
   45.6226   56.8753   33.4709 C   0  0  0  0  0  0  0  0  0  0  0  0
   46.9799   57.0589   33.3221 N   0  0  0  0  0  0  0  0  0  0  0  0
  2  1  1  6  0  0  0
  2  3  1  0  0  0  0
  2  5  1  0  0  0  0
  3  4  1  0  0  0  0
  3 16  1  0  0  0  0
  5  6  1  0  0  0  0
  6  7  1  0  0  0  0
  7  8  1  0  0  0  0
  9  8  1  6  0  0  0
  9 10  1  0  0  0  0
  9 11  1  0  0  0  0
 10 15  1  0  0  0  0
 11 12  1  1  0  0  0
 11 13  1  0  0  0  0
 13 14  1  1  0  0  0
 13 15  1  0  0  0  0
 15 26  1  6  0  0  0
 17 18  2  0  0  0  0
 17 22  1  0  0  0  0
 18 19  1  0  0  0  0
 19 20  2  0  0  0  0
 20 21  1  0  0  0  0
 20 26  1  0  0  0  0
 21 22  2  0  0  0  0
 21 24  1  0  0  0  0
 22 23  1  0  0  0  0
 24 25  2  0  0  0  0
 25 26  1  0  0  0  0
M  END
>  <CHROM.1>
-49.14844333,179.11107529,63.52639270,86.44759929,108.69233445,46.76716271
-55.79684335,48.32692760,55.57819840,31.17201796,0.07876801,1.08205432,-0.91167743

>  <Name>
ligand

>  <RI>
0

>  <Rbt.Current_Directory>
/home/itssahil/PROJECTS/Mol_Feturizer/New_Systems/rnas/3GX3

>  <Rbt.Executable>
rbdock ($Id: //depot/dev/client3/rdock/2013.1/src/exe/rbdock.cxx#4 $)

>  <Rbt.Library>
libRbt.so (2013.1, Build901 2013/11/27)

>  <Rbt.Parameter_File>
/export/apps/rDock/src/rDock_2013.1_src/data/scripts/dock_solv.prm

>  <Rbt.Receptor>
prm/pocket_docking_6.prm

>  <SCORE>
-15.839

>  <SCORE.INTER>
-14.2475

>  <SCORE.INTER.CONST>
1

>  <SCORE.INTER.POLAR>
0

>  <SCORE.INTER.ROT>
7

>  <SCORE.INTER.SOLV>
16.8168

>  <SCORE.INTER.VDW>
-23.3706

>  <SCORE.INTER.norm>
-0.547982

>  <SCORE.INTRA>
-1.59145

>  <SCORE.INTRA.DIHEDRAL>
0.882983

>  <SCORE.INTRA.DIHEDRAL.0>
5.78979

>  <SCORE.INTRA.POLAR>
0

>  <SCORE.INTRA.POLAR.0>
0

>  <SCORE.INTRA.REPUL>
0

>  <SCORE.INTRA.REPUL.0>
0

>  <SCORE.INTRA.SOLV>
-0.916569

>  <SCORE.INTRA.SOLV.lig_0>
-49.9151

>  <SCORE.INTRA.VDW>
-1.57465

>  <SCORE.INTRA.VDW.0>
-0.211125

>  <SCORE.INTRA.norm>
-0.0612095

>  <SCORE.RESTR>
0

>  <SCORE.RESTR.CAVITY>
0

>  <SCORE.RESTR.norm>
0

>  <SCORE.SYSTEM>
0

>  <SCORE.SYSTEM.CONST>
0

>  <SCORE.SYSTEM.DIHEDRAL>
0

>  <SCORE.SYSTEM.SOLV>
0

>  <SCORE.SYSTEM.norm>
0

>  <SCORE.heavy>
26

>  <SCORE.norm>
-0.609191

>  <RMSD>
3.390

$$$$
ligand
 OpenBabel11021811483D
libRbt.so/2013.1/901 2013/11/27
 26 28  0  0  0  0  0  0  0  0999 V2000
   49.6819   53.0037   26.2399 N   0  0  0  0  0  0  0  0  0  0  0  0
   50.7515   53.7074   26.9529 C   0  0  2  0  0  0  0  0  0  0  0  0
   50.9915   53.2051   28.3784 C   0  0  0  0  0  0  0  0  0  0  0  0
   52.1018   53.3860   28.8789 O   0  0  0  0  0  0  0  0  0  0  0  0
   50.5776   55.2291   27.0414 C   0  0  0  0  0  0  0  0  0  0  0  0
   49.4956   55.8454   27.9109 C   0  0  0  0  0  0  0  0  0  0  0  0
   50.1313   55.8394   29.6032 S   0  0  0  0  0  0  0  0  0  0  0  0
   48.4818   55.3004   30.1134 C   0  0  0  0  0  0  0  0  0  0  0  0
   48.3218   55.0921   31.6231 C   0  0  1  0  0  0  0  0  0  0  0  0
   48.2621   56.3193   32.3591 O   0  0  0  0  0  0  0  0  0  0  0  0
   47.0457   54.3224   31.9313 C   0  0  1  0  0  0  0  0  0  0  0  0
   47.2864   52.9344   32.0017 O   0  0  0  0  0  0  0  0  0  0  0  0
   46.5510   54.9136   33.2450 C   0  0  1  0  0  0  0  0  0  0  0  0
   47.0502   54.2007   34.3586 O   0  0  0  0  0  0  0  0  0  0  0  0
   47.1714   56.2967   33.2654 C   0  0  2  0  0  0  0  0  0  0  0  0
   50.1177   52.6418   29.0493 O   0  0  0  0  0  0  0  0  0  0  0  0
   46.4345   61.0968   31.2570 N   0  0  0  0  0  0  0  0  0  0  0  0
   47.6127   60.4088   31.4023 C   0  0  0  0  0  0  0  0  0  0  0  0
   47.6101   59.1539   31.9742 N   0  0  0  0  0  0  0  0  0  0  0  0
   46.4631   58.5698   32.3639 C   0  0  0  0  0  0  0  0  0  0  0  0
   45.2634   59.2466   32.2244 C   0  0  0  0  0  0  0  0  0  0  0  0
   45.2643   60.5118   31.6716 C   0  0  0  0  0  0  0  0  0  0  0  0
   44.1316   61.1697   31.5179 N   0  0  0  0  0  0  0  0  0  0  0  0
   44.2718   58.4531   32.6873 N   0  0  0  0  0  0  0  0  0  0  0  0
   44.8271   57.3002   33.1387 C   0  0  0  0  0  0  0  0  0  0  0  0
   46.1895   57.3578   32.9421 N   0  0  0  0  0  0  0  0  0  0  0  0
  2  1  1  1  0  0  0
  2  3  1  0  0  0  0
  2  5  1  0  0  0  0
  3  4  1  0  0  0  0
  3 16  1  0  0  0  0
  5  6  1  0  0  0  0
  6  7  1  0  0  0  0
  7  8  1  0  0  0  0
  9  8  1  6  0  0  0
  9 10  1  0  0  0  0
  9 11  1  0  0  0  0
 10 15  1  0  0  0  0
 11 12  1  1  0  0  0
 11 13  1  0  0  0  0
 13 14  1  1  0  0  0
 13 15  1  0  0  0  0
 15 26  1  6  0  0  0
 17 18  2  0  0  0  0
 17 22  1  0  0  0  0
 18 19  1  0  0  0  0
 19 20  2  0  0  0  0
 20 21  1  0  0  0  0
 20 26  1  0  0  0  0
 21 22  2  0  0  0  0
 21 24  1  0  0  0  0
 22 23  1  0  0  0  0
 24 25  2  0  0  0  0
 25 26  1  0  0  0  0
M  END
>  <CHROM.1>
155.72166771,70.11330983,80.47285505,-137.52172913,-179.63879854,73.65980309
-30.10266098,47.94840340,56.23558328,30.84920480,-0.35518178,0.90117575,-0.47700016

>  <Name>
ligand

>  <RI>
0

>  <Rbt.Current_Directory>
/home/itssahil/PROJECTS/Mol_Feturizer/New_Systems/rnas/3GX3

>  <Rbt.Executable>
rbdock ($Id: //depot/dev/client3/rdock/2013.1/src/exe/rbdock.cxx#4 $)

>  <Rbt.Library>
libRbt.so (2013.1, Build901 2013/11/27)

>  <Rbt.Parameter_File>
/export/apps/rDock/src/rDock_2013.1_src/data/scripts/dock_solv.prm

>  <Rbt.Receptor>
prm/pocket_docking_5.prm

>  <SCORE>
-14.842

>  <SCORE.INTER>
-12.7028

>  <SCORE.INTER.CONST>
1

>  <SCORE.INTER.POLAR>
0

>  <SCORE.INTER.ROT>
7

>  <SCORE.INTER.SOLV>
17.9714

>  <SCORE.INTER.VDW>
-22.7257

>  <SCORE.INTER.norm>
-0.48857

>  <SCORE.INTRA>
-2.14093

>  <SCORE.INTRA.DIHEDRAL>
1.40137

>  <SCORE.INTRA.DIHEDRAL.0>
5.78979

>  <SCORE.INTRA.POLAR>
0

>  <SCORE.INTRA.POLAR.0>
0

>  <SCORE.INTRA.REPUL>
0

>  <SCORE.INTRA.REPUL.0>
0

>  <SCORE.INTRA.SOLV>
-0.261054

>  <SCORE.INTRA.SOLV.lig_0>
-49.9151

>  <SCORE.INTRA.VDW>
-2.71109

>  <SCORE.INTRA.VDW.0>
-0.211125

>  <SCORE.INTRA.norm>
-0.0823436

>  <SCORE.RESTR>
0.00178571

>  <SCORE.RESTR.CAVITY>
0.00178571

>  <SCORE.RESTR.norm>
6.86812e-05

>  <SCORE.SYSTEM>
0

>  <SCORE.SYSTEM.CONST>
0

>  <SCORE.SYSTEM.DIHEDRAL>
0

>  <SCORE.SYSTEM.SOLV>
0

>  <SCORE.SYSTEM.norm>
0

>  <SCORE.heavy>
26

>  <SCORE.norm>
-0.570845

>  <RMSD>
3.422

$$$$
ligand
 OpenBabel11021811483D
libRbt.so/2013.1/901 2013/11/27
 26 28  0  0  0  0  0  0  0  0999 V2000
   49.9814   52.8291   24.6876 N   0  0  0  0  0  0  0  0  0  0  0  0
   51.0948   52.6734   25.6277 C   0  0  2  0  0  0  0  0  0  0  0  0
   51.1183   51.3272   26.3551 C   0  0  0  0  0  0  0  0  0  0  0  0
   52.0895   50.5904   26.1822 O   0  0  0  0  0  0  0  0  0  0  0  0
   51.1892   53.7620   26.7045 C   0  0  0  0  0  0  0  0  0  0  0  0
   50.0590   53.9862   27.6940 C   0  0  0  0  0  0  0  0  0  0  0  0
   50.4986   55.4551   28.6516 S   0  0  0  0  0  0  0  0  0  0  0  0
   49.1122   55.0391   29.7362 C   0  0  0  0  0  0  0  0  0  0  0  0
   49.4667   54.9857   31.2261 C   0  0  1  0  0  0  0  0  0  0  0  0
   50.0014   56.2176   31.7236 O   0  0  0  0  0  0  0  0  0  0  0  0
   48.2386   54.6596   32.0636 C   0  0  1  0  0  0  0  0  0  0  0  0
   48.1186   53.2713   32.2819 O   0  0  0  0  0  0  0  0  0  0  0  0
   48.4303   55.4553   33.3482 C   0  0  1  0  0  0  0  0  0  0  0  0
   49.0981   54.6973   34.3366 O   0  0  0  0  0  0  0  0  0  0  0  0
   49.3519   56.5841   32.9300 C   0  0  2  0  0  0  0  0  0  0  0  0
   50.2151   50.9575   27.1157 O   0  0  0  0  0  0  0  0  0  0  0  0
   45.0085   58.9740   31.1863 N   0  0  0  0  0  0  0  0  0  0  0  0
   45.3283   57.6413   31.1222 C   0  0  0  0  0  0  0  0  0  0  0  0
   46.5352   57.1989   31.6221 N   0  0  0  0  0  0  0  0  0  0  0  0
   47.3979   58.0478   32.2083 C   0  0  0  0  0  0  0  0  0  0  0  0
   47.0933   59.3962   32.2846 C   0  0  0  0  0  0  0  0  0  0  0  0
   45.8953   59.8462   31.7662 C   0  0  0  0  0  0  0  0  0  0  0  0
   45.5791   61.1245   31.8391 N   0  0  0  0  0  0  0  0  0  0  0  0
   48.1123   60.0272   32.9095 N   0  0  0  0  0  0  0  0  0  0  0  0
   49.0637   59.1059   33.2054 C   0  0  0  0  0  0  0  0  0  0  0  0
   48.6321   57.8697   32.7770 N   0  0  0  0  0  0  0  0  0  0  0  0
  2  1  1  1  0  0  0
  2  3  1  0  0  0  0
  2  5  1  0  0  0  0
  3  4  1  0  0  0  0
  3 16  1  0  0  0  0
  5  6  1  0  0  0  0
  6  7  1  0  0  0  0
  7  8  1  0  0  0  0
  9  8  1  6  0  0  0
  9 10  1  0  0  0  0
  9 11  1  0  0  0  0
 10 15  1  0  0  0  0
 11 12  1  1  0  0  0
 11 13  1  0  0  0  0
 13 14  1  1  0  0  0
 13 15  1  0  0  0  0
 15 26  1  6  0  0  0
 17 18  2  0  0  0  0
 17 22  1  0  0  0  0
 18 19  1  0  0  0  0
 19 20  2  0  0  0  0
 20 21  1  0  0  0  0
 20 26  1  0  0  0  0
 21 22  2  0  0  0  0
 21 24  1  0  0  0  0
 22 23  1  0  0  0  0
 24 25  2  0  0  0  0
 25 26  1  0  0  0  0
M  END
>  <CHROM.1>
118.14870934,60.63709393,-174.04158455,-170.05427097,128.50636754,58.37699315
80.81925856,48.86313268,55.70319006,30.32529632,0.63221306,1.04893936,-1.53209156

>  <Name>
ligand

>  <RI>
0

>  <Rbt.Current_Directory>
/home/itssahil/PROJECTS/Mol_Feturizer/New_Systems/rnas/3GX3

>  <Rbt.Executable>
rbdock ($Id: //depot/dev/client3/rdock/2013.1/src/exe/rbdock.cxx#4 $)

>  <Rbt.Library>
libRbt.so (2013.1, Build901 2013/11/27)

>  <Rbt.Parameter_File>
/export/apps/rDock/src/rDock_2013.1_src/data/scripts/dock_solv.prm

>  <Rbt.Receptor>
prm/pocket_docking_6.prm

>  <SCORE>
-15.124

>  <SCORE.INTER>
-12.2001

>  <SCORE.INTER.CONST>
1

>  <SCORE.INTER.POLAR>
0

>  <SCORE.INTER.ROT>
7

>  <SCORE.INTER.SOLV>
15.5971

>  <SCORE.INTER.VDW>
-21.5991

>  <SCORE.INTER.norm>
-0.469234

>  <SCORE.INTRA>
-3.04755

>  <SCORE.INTRA.DIHEDRAL>
-0.344577

>  <SCORE.INTRA.DIHEDRAL.0>
5.78979

>  <SCORE.INTRA.POLAR>
0

>  <SCORE.INTRA.POLAR.0>
0

>  <SCORE.INTRA.REPUL>
0

>  <SCORE.INTRA.REPUL.0>
0

>  <SCORE.INTRA.SOLV>
-0.543067

>  <SCORE.INTRA.SOLV.lig_0>
-49.9151

>  <SCORE.INTRA.VDW>
-2.60373

>  <SCORE.INTRA.VDW.0>
-0.211125

>  <SCORE.INTRA.norm>
-0.117214

>  <SCORE.RESTR>
0.123606

>  <SCORE.RESTR.CAVITY>
0.123606

>  <SCORE.RESTR.norm>
0.00475407

>  <SCORE.SYSTEM>
0

>  <SCORE.SYSTEM.CONST>
0

>  <SCORE.SYSTEM.DIHEDRAL>
0

>  <SCORE.SYSTEM.SOLV>
0

>  <SCORE.SYSTEM.norm>
0

>  <SCORE.heavy>
26

>  <SCORE.norm>
-0.581694

>  <RMSD>
3.494

$$$$
ligand
 OpenBabel11021811483D
libRbt.so/2013.1/901 2013/11/27
 26 28  0  0  0  0  0  0  0  0999 V2000
   49.4450   51.5481   27.9203 N   0  0  0  0  0  0  0  0  0  0  0  0
   50.3197   52.3369   27.0481 C   0  0  2  0  0  0  0  0  0  0  0  0
   51.1434   51.5023   26.0649 C   0  0  0  0  0  0  0  0  0  0  0  0
   51.1190   51.8155   24.8744 O   0  0  0  0  0  0  0  0  0  0  0  0
   51.3030   53.2586   27.7811 C   0  0  0  0  0  0  0  0  0  0  0  0
   50.8075   54.4043   28.6463 C   0  0  0  0  0  0  0  0  0  0  0  0
   50.0166   53.6542   30.0883 S   0  0  0  0  0  0  0  0  0  0  0  0
   49.7141   55.3389   30.6727 C   0  0  0  0  0  0  0  0  0  0  0  0
   49.5785   55.4675   32.1937 C   0  0  1  0  0  0  0  0  0  0  0  0
   49.7571   56.8080   32.6650 O   0  0  0  0  0  0  0  0  0  0  0  0
   48.2025   55.0099   32.6553 C   0  0  1  0  0  0  0  0  0  0  0  0
   48.2054   53.6437   33.0057 O   0  0  0  0  0  0  0  0  0  0  0  0
   47.8663   55.9287   33.8227 C   0  0  1  0  0  0  0  0  0  0  0  0
   48.2786   55.3765   35.0567 O   0  0  0  0  0  0  0  0  0  0  0  0
   48.7139   57.1578   33.5599 C   0  0  2  0  0  0  0  0  0  0  0  0
   51.8394   50.5416   26.4163 O   0  0  0  0  0  0  0  0  0  0  0  0
   43.9472   58.8391   32.1211 N   0  0  0  0  0  0  0  0  0  0  0  0
   44.3046   57.6010   32.5923 C   0  0  0  0  0  0  0  0  0  0  0  0
   45.6220   57.3377   32.9038 N   0  0  0  0  0  0  0  0  0  0  0  0
   46.5669   58.2876   32.7884 C   0  0  0  0  0  0  0  0  0  0  0  0
   46.2267   59.5440   32.3165 C   0  0  0  0  0  0  0  0  0  0  0  0
   44.9124   59.8050   31.9834 C   0  0  0  0  0  0  0  0  0  0  0  0
   44.5637   60.9985   31.5436 N   0  0  0  0  0  0  0  0  0  0  0  0
   47.3433   60.3055   32.2926 N   0  0  0  0  0  0  0  0  0  0  0  0
   48.3841   59.5450   32.7165 C   0  0  0  0  0  0  0  0  0  0  0  0
   47.9158   58.2879   33.0303 N   0  0  0  0  0  0  0  0  0  0  0  0
  2  1  1  1  0  0  0
  2  3  1  0  0  0  0
  2  5  1  0  0  0  0
  3  4  1  0  0  0  0
  3 16  1  0  0  0  0
  5  6  1  0  0  0  0
  6  7  1  0  0  0  0
  7  8  1  0  0  0  0
  9  8  1  6  0  0  0
  9 10  1  0  0  0  0
  9 11  1  0  0  0  0
 10 15  1  0  0  0  0
 11 12  1  1  0  0  0
 11 13  1  0  0  0  0
 13 14  1  1  0  0  0
 13 15  1  0  0  0  0
 15 26  1  6  0  0  0
 17 18  2  0  0  0  0
 17 22  1  0  0  0  0
 18 19  1  0  0  0  0
 19 20  2  0  0  0  0
 20 21  1  0  0  0  0
 20 26  1  0  0  0  0
 21 22  2  0  0  0  0
 21 24  1  0  0  0  0
 22 23  1  0  0  0  0
 24 25  2  0  0  0  0
 25 26  1  0  0  0  0
M  END
>  <CHROM.1>
129.08665982,-63.59603803,68.92178740,178.77607435,-154.23869358,161.67820804
122.13076333,48.47046146,55.71846563,30.94400314,0.67929852,0.91495619,-1.66707898

>  <Name>
ligand

>  <RI>
0

>  <Rbt.Current_Directory>
/home/itssahil/PROJECTS/Mol_Feturizer/New_Systems/rnas/3GX3

>  <Rbt.Executable>
rbdock ($Id: //depot/dev/client3/rdock/2013.1/src/exe/rbdock.cxx#4 $)

>  <Rbt.Library>
libRbt.so (2013.1, Build901 2013/11/27)

>  <Rbt.Parameter_File>
/export/apps/rDock/src/rDock_2013.1_src/data/scripts/dock_solv.prm

>  <Rbt.Receptor>
prm/pocket_docking_7.prm

>  <SCORE>
-17.3528

>  <SCORE.INTER>
-15.5111

>  <SCORE.INTER.CONST>
1

>  <SCORE.INTER.POLAR>
0

>  <SCORE.INTER.ROT>
7

>  <SCORE.INTER.SOLV>
21.4961

>  <SCORE.INTER.VDW>
-25.7728

>  <SCORE.INTER.norm>
-0.596582

>  <SCORE.INTRA>
-1.91393

>  <SCORE.INTRA.DIHEDRAL>
-0.567304

>  <SCORE.INTRA.DIHEDRAL.0>
5.78979

>  <SCORE.INTRA.POLAR>
0

>  <SCORE.INTRA.POLAR.0>
0

>  <SCORE.INTRA.REPUL>
0

>  <SCORE.INTRA.REPUL.0>
0

>  <SCORE.INTRA.SOLV>
0.811698

>  <SCORE.INTRA.SOLV.lig_0>
-49.9151

>  <SCORE.INTRA.VDW>
-2.03612

>  <SCORE.INTRA.VDW.0>
-0.211125

>  <SCORE.INTRA.norm>
-0.0736125

>  <SCORE.RESTR>
0.0722571

>  <SCORE.RESTR.CAVITY>
0.0722571

>  <SCORE.RESTR.norm>
0.00277912

>  <SCORE.SYSTEM>
0

>  <SCORE.SYSTEM.CONST>
0

>  <SCORE.SYSTEM.DIHEDRAL>
0

>  <SCORE.SYSTEM.SOLV>
0

>  <SCORE.SYSTEM.norm>
0

>  <SCORE.heavy>
26

>  <SCORE.norm>
-0.667415

>  <RMSD>
3.505

$$$$
ligand
 OpenBabel11021811483D
libRbt.so/2013.1/901 2013/11/27
 26 28  0  0  0  0  0  0  0  0999 V2000
   49.4444   53.4248   26.3328 N   0  0  0  0  0  0  0  0  0  0  0  0
   49.9435   52.3755   27.2259 C   0  0  2  0  0  0  0  0  0  0  0  0
   50.3120   51.0706   26.5165 C   0  0  0  0  0  0  0  0  0  0  0  0
   49.4280   50.4747   25.9004 O   0  0  0  0  0  0  0  0  0  0  0  0
   49.0008   52.0043   28.3779 C   0  0  0  0  0  0  0  0  0  0  0  0
   48.6331   53.0176   29.4478 C   0  0  0  0  0  0  0  0  0  0  0  0
   50.1503   53.3692   30.3653 S   0  0  0  0  0  0  0  0  0  0  0  0
   49.3191   54.8568   30.9716 C   0  0  0  0  0  0  0  0  0  0  0  0
   48.9888   54.8332   32.4678 C   0  0  1  0  0  0  0  0  0  0  0  0
   48.8177   56.1398   33.0288 O   0  0  0  0  0  0  0  0  0  0  0  0
   47.7021   54.0627   32.7262 C   0  0  1  0  0  0  0  0  0  0  0  0
   47.9625   52.7039   33.0008 O   0  0  0  0  0  0  0  0  0  0  0  0
   47.0453   54.7953   33.8889 C   0  0  1  0  0  0  0  0  0  0  0  0
   47.4265   54.2456   35.1340 O   0  0  0  0  0  0  0  0  0  0  0  0
   47.6296   56.1915   33.8016 C   0  0  2  0  0  0  0  0  0  0  0  0
   51.4565   50.6004   26.5243 O   0  0  0  0  0  0  0  0  0  0  0  0
   47.0266   60.6235   31.0426 N   0  0  0  0  0  0  0  0  0  0  0  0
   48.1942   59.9948   31.3951 C   0  0  0  0  0  0  0  0  0  0  0  0
   48.1530   58.8380   32.1448 N   0  0  0  0  0  0  0  0  0  0  0  0
   46.9817   58.2883   32.5113 C   0  0  0  0  0  0  0  0  0  0  0  0
   45.7923   58.9061   32.1642 C   0  0  0  0  0  0  0  0  0  0  0  0
   45.8299   60.0759   31.4317 C   0  0  0  0  0  0  0  0  0  0  0  0
   44.7087   60.6747   31.0795 N   0  0  0  0  0  0  0  0  0  0  0  0
   44.7712   58.1641   32.6481 N   0  0  0  0  0  0  0  0  0  0  0  0
   45.2956   57.1049   33.3146 C   0  0  0  0  0  0  0  0  0  0  0  0
   46.6697   57.1679   33.2362 N   0  0  0  0  0  0  0  0  0  0  0  0
  2  1  1  6  0  0  0
  2  3  1  0  0  0  0
  2  5  1  0  0  0  0
  3  4  1  0  0  0  0
  3 16  1  0  0  0  0
  5  6  1  0  0  0  0
  6  7  1  0  0  0  0
  7  8  1  0  0  0  0
  9  8  1  6  0  0  0
  9 10  1  0  0  0  0
  9 11  1  0  0  0  0
 10 15  1  0  0  0  0
 11 12  1  1  0  0  0
 11 13  1  0  0  0  0
 13 14  1  1  0  0  0
 13 15  1  0  0  0  0
 15 26  1  6  0  0  0
 17 18  2  0  0  0  0
 17 22  1  0  0  0  0
 18 19  1  0  0  0  0
 19 20  2  0  0  0  0
 20 21  1  0  0  0  0
 20 26  1  0  0  0  0
 21 22  2  0  0  0  0
 21 24  1  0  0  0  0
 22 23  1  0  0  0  0
 24 25  2  0  0  0  0
 25 26  1  0  0  0  0
M  END
>  <CHROM.1>
-60.46191884,-63.33643306,-66.42623767,162.28865975,111.60334892,157.58234056
-28.23543685,48.10777524,55.31146149,30.96653152,0.12014171,1.16712616,-1.07609383

>  <Name>
ligand

>  <RI>
0

>  <Rbt.Current_Directory>
/home/itssahil/PROJECTS/Mol_Feturizer/New_Systems/rnas/3GX3

>  <Rbt.Executable>
rbdock ($Id: //depot/dev/client3/rdock/2013.1/src/exe/rbdock.cxx#4 $)

>  <Rbt.Library>
libRbt.so (2013.1, Build901 2013/11/27)

>  <Rbt.Parameter_File>
/export/apps/rDock/src/rDock_2013.1_src/data/scripts/dock_solv.prm

>  <Rbt.Receptor>
prm/pocket_docking_6.prm

>  <SCORE>
-17.1685

>  <SCORE.INTER>
-15.6064

>  <SCORE.INTER.CONST>
1

>  <SCORE.INTER.POLAR>
0

>  <SCORE.INTER.ROT>
7

>  <SCORE.INTER.SOLV>
15.6393

>  <SCORE.INTER.VDW>
-23.884

>  <SCORE.INTER.norm>
-0.600244

>  <SCORE.INTRA>
-1.56215

>  <SCORE.INTRA.DIHEDRAL>
1.66532

>  <SCORE.INTRA.DIHEDRAL.0>
5.78979

>  <SCORE.INTRA.POLAR>
0

>  <SCORE.INTRA.POLAR.0>
0

>  <SCORE.INTRA.REPUL>
0

>  <SCORE.INTRA.REPUL.0>
0

>  <SCORE.INTRA.SOLV>
0.194844

>  <SCORE.INTRA.SOLV.lig_0>
-49.9151

>  <SCORE.INTRA.VDW>
-2.49223

>  <SCORE.INTRA.VDW.0>
-0.211125

>  <SCORE.INTRA.norm>
-0.0600827

>  <SCORE.RESTR>
0

>  <SCORE.RESTR.CAVITY>
0

>  <SCORE.RESTR.norm>
0

>  <SCORE.SYSTEM>
0

>  <SCORE.SYSTEM.CONST>
0

>  <SCORE.SYSTEM.DIHEDRAL>
0

>  <SCORE.SYSTEM.SOLV>
0

>  <SCORE.SYSTEM.norm>
0

>  <SCORE.heavy>
26

>  <SCORE.norm>
-0.660327

>  <RMSD>
3.688

$$$$
ligand
 OpenBabel11021811483D
libRbt.so/2013.1/901 2013/11/27
 26 28  0  0  0  0  0  0  0  0999 V2000
   47.1656   54.2840   25.6570 N   0  0  0  0  0  0  0  0  0  0  0  0
   47.5781   55.6090   25.1859 C   0  0  2  0  0  0  0  0  0  0  0  0
   48.8843   55.6129   24.3886 C   0  0  0  0  0  0  0  0  0  0  0  0
   48.8379   55.9280   23.1992 O   0  0  0  0  0  0  0  0  0  0  0  0
   47.7251   56.6694   26.2849 C   0  0  0  0  0  0  0  0  0  0  0  0
   48.6148   56.4292   27.4922 C   0  0  0  0  0  0  0  0  0  0  0  0
   48.4144   57.8652   28.5716 S   0  0  0  0  0  0  0  0  0  0  0  0
   48.7851   56.7543   29.9500 C   0  0  0  0  0  0  0  0  0  0  0  0
   48.8589   57.4429   31.3170 C   0  0  1  0  0  0  0  0  0  0  0  0
   47.6703   58.1705   31.6474 O   0  0  0  0  0  0  0  0  0  0  0  0
   49.0832   56.4242   32.4251 C   0  0  1  0  0  0  0  0  0  0  0  0
   50.4566   56.2544   32.6975 O   0  0  0  0  0  0  0  0  0  0  0  0
   48.2986   56.9708   33.6107 C   0  0  1  0  0  0  0  0  0  0  0  0
   49.1019   57.7925   34.4336 O   0  0  0  0  0  0  0  0  0  0  0  0
   47.2480   57.8511   32.9631 C   0  0  2  0  0  0  0  0  0  0  0  0
   49.9793   55.3288   24.8897 O   0  0  0  0  0  0  0  0  0  0  0  0
   44.4872   53.4793   33.9028 N   0  0  0  0  0  0  0  0  0  0  0  0
   45.8381   53.6763   34.0394 C   0  0  0  0  0  0  0  0  0  0  0  0
   46.3899   54.9002   33.7239 N   0  0  0  0  0  0  0  0  0  0  0  0
   45.6209   55.9250   33.3154 C   0  0  0  0  0  0  0  0  0  0  0  0
   44.2552   55.7474   33.1728 C   0  0  0  0  0  0  0  0  0  0  0  0
   43.7019   54.5172   33.4674 C   0  0  0  0  0  0  0  0  0  0  0  0
   42.4017   54.3292   33.3504 N   0  0  0  0  0  0  0  0  0  0  0  0
   43.7168   56.9138   32.7525 N   0  0  0  0  0  0  0  0  0  0  0  0
   44.7205   57.8148   32.6036 C   0  0  0  0  0  0  0  0  0  0  0  0
   45.9105   57.2144   32.9522 N   0  0  0  0  0  0  0  0  0  0  0  0
  2  1  1  1  0  0  0
  2  3  1  0  0  0  0
  2  5  1  0  0  0  0
  3  4  1  0  0  0  0
  3 16  1  0  0  0  0
  5  6  1  0  0  0  0
  6  7  1  0  0  0  0
  7  8  1  0  0  0  0
  9  8  1  6  0  0  0
  9 10  1  0  0  0  0
  9 11  1  0  0  0  0
 10 15  1  0  0  0  0
 11 12  1  1  0  0  0
 11 13  1  0  0  0  0
 13 14  1  1  0  0  0
 13 15  1  0  0  0  0
 15 26  1  6  0  0  0
 17 18  2  0  0  0  0
 17 22  1  0  0  0  0
 18 19  1  0  0  0  0
 19 20  2  0  0  0  0
 20 21  1  0  0  0  0
 20 26  1  0  0  0  0
 21 22  2  0  0  0  0
 21 24  1  0  0  0  0
 22 23  1  0  0  0  0
 24 25  2  0  0  0  0
 25 26  1  0  0  0  0
M  END
>  <CHROM.1>
114.83995979,54.47465944,-176.40667119,151.18263252,176.51739178,55.87620997
114.17677208,47.22378527,56.25706025,30.51292041,1.16001132,-0.48958394,-1.75266319

>  <Name>
ligand

>  <RI>
0

>  <Rbt.Current_Directory>
/home/itssahil/PROJECTS/Mol_Feturizer/New_Systems/rnas/3GX3

>  <Rbt.Executable>
rbdock ($Id: //depot/dev/client3/rdock/2013.1/src/exe/rbdock.cxx#4 $)

>  <Rbt.Library>
libRbt.so (2013.1, Build901 2013/11/27)

>  <Rbt.Parameter_File>
/export/apps/rDock/src/rDock_2013.1_src/data/scripts/dock_solv.prm

>  <Rbt.Receptor>
prm/pocket_docking_5.prm

>  <SCORE>
-14.7823

>  <SCORE.INTER>
-11.9039

>  <SCORE.INTER.CONST>
1

>  <SCORE.INTER.POLAR>
0

>  <SCORE.INTER.ROT>
7

>  <SCORE.INTER.SOLV>
11.9151

>  <SCORE.INTER.VDW>
-20.1743

>  <SCORE.INTER.norm>
-0.457844

>  <SCORE.INTRA>
-2.88404

>  <SCORE.INTRA.DIHEDRAL>
-1.55785

>  <SCORE.INTRA.DIHEDRAL.0>
5.78979

>  <SCORE.INTRA.POLAR>
0

>  <SCORE.INTRA.POLAR.0>
0

>  <SCORE.INTRA.REPUL>
0

>  <SCORE.INTRA.REPUL.0>
0

>  <SCORE.INTRA.SOLV>
-0.529328

>  <SCORE.INTRA.SOLV.lig_0>
-49.9151

>  <SCORE.INTRA.VDW>
-1.84045

>  <SCORE.INTRA.VDW.0>
-0.211125

>  <SCORE.INTRA.norm>
-0.110925

>  <SCORE.RESTR>
0.00569184

>  <SCORE.RESTR.CAVITY>
0.00569184

>  <SCORE.RESTR.norm>
0.000218917

>  <SCORE.SYSTEM>
0

>  <SCORE.SYSTEM.CONST>
0

>  <SCORE.SYSTEM.DIHEDRAL>
0

>  <SCORE.SYSTEM.SOLV>
0

>  <SCORE.SYSTEM.norm>
0

>  <SCORE.heavy>
26

>  <SCORE.norm>
-0.568549

>  <RMSD>
4.305

$$$$
ligand
 OpenBabel11021811483D
libRbt.so/2013.1/901 2013/11/27
 26 28  0  0  0  0  0  0  0  0999 V2000
   44.2900   56.9729   29.6349 N   0  0  0  0  0  0  0  0  0  0  0  0
   45.1400   57.8882   28.8684 C   0  0  2  0  0  0  0  0  0  0  0  0
   45.8490   57.2380   27.6783 C   0  0  0  0  0  0  0  0  0  0  0  0
   46.4652   57.9667   26.9003 O   0  0  0  0  0  0  0  0  0  0  0  0
   46.2180   58.6091   29.6882 C   0  0  0  0  0  0  0  0  0  0  0  0
   45.8530   59.4350   30.9093 C   0  0  0  0  0  0  0  0  0  0  0  0
   47.3594   60.2966   31.4156 S   0  0  0  0  0  0  0  0  0  0  0  0
   47.4817   59.0857   32.7535 C   0  0  0  0  0  0  0  0  0  0  0  0
   48.6214   58.0743   32.5909 C   0  0  1  0  0  0  0  0  0  0  0  0
   48.9327   57.3752   33.8015 O   0  0  0  0  0  0  0  0  0  0  0  0
   48.2696   57.0255   31.5458 C   0  0  1  0  0  0  0  0  0  0  0  0
   48.7316   57.3989   30.2665 O   0  0  0  0  0  0  0  0  0  0  0  0
   48.9062   55.7422   32.0633 C   0  0  1  0  0  0  0  0  0  0  0  0
   50.2135   55.5668   31.5556 O   0  0  0  0  0  0  0  0  0  0  0  0
   49.0183   55.9810   33.5562 C   0  0  2  0  0  0  0  0  0  0  0  0
   45.8409   56.0175   27.4751 O   0  0  0  0  0  0  0  0  0  0  0  0
   43.9117   54.8277   34.0152 N   0  0  0  0  0  0  0  0  0  0  0  0
   44.5195   55.6374   33.0892 C   0  0  0  0  0  0  0  0  0  0  0  0
   45.8833   55.8363   33.1394 N   0  0  0  0  0  0  0  0  0  0  0  0
   46.6421   55.2202   34.0630 C   0  0  0  0  0  0  0  0  0  0  0  0
   46.0485   54.3978   35.0053 C   0  0  0  0  0  0  0  0  0  0  0  0
   44.6806   54.2129   34.9714 C   0  0  0  0  0  0  0  0  0  0  0  0
   44.0955   53.4240   35.8516 N   0  0  0  0  0  0  0  0  0  0  0  0
   47.0164   53.9075   35.8114 N   0  0  0  0  0  0  0  0  0  0  0  0
   48.2048   54.4254   35.4102 C   0  0  0  0  0  0  0  0  0  0  0  0
   47.9877   55.2422   34.3222 N   0  0  0  0  0  0  0  0  0  0  0  0
  2  1  1  1  0  0  0
  2  3  1  0  0  0  0
  2  5  1  0  0  0  0
  3  4  1  0  0  0  0
  3 16  1  0  0  0  0
  5  6  1  0  0  0  0
  6  7  1  0  0  0  0
  7  8  1  0  0  0  0
  9  8  1  1  0  0  0
  9 10  1  0  0  0  0
  9 11  1  0  0  0  0
 10 15  1  0  0  0  0
 11 12  1  6  0  0  0
 11 13  1  0  0  0  0
 13 14  1  6  0  0  0
 13 15  1  0  0  0  0
 15 26  1  1  0  0  0
 17 18  2  0  0  0  0
 17 22  1  0  0  0  0
 18 19  1  0  0  0  0
 19 20  2  0  0  0  0
 20 21  1  0  0  0  0
 20 26  1  0  0  0  0
 21 22  2  0  0  0  0
 21 24  1  0  0  0  0
 22 23  1  0  0  0  0
 24 25  2  0  0  0  0
 25 26  1  0  0  0  0
M  END
>  <CHROM.1>
172.29813199,-55.67925781,-171.65632949,-103.91548407,109.16657971,163.85043381
72.68863807,46.84673137,56.68411776,32.04210665,1.54596825,-0.46362443,-1.02459423

>  <Name>
ligand

>  <RI>
0

>  <Rbt.Current_Directory>
/home/itssahil/PROJECTS/Mol_Feturizer/New_Systems/rnas/3GX3

>  <Rbt.Executable>
rbdock ($Id: //depot/dev/client3/rdock/2013.1/src/exe/rbdock.cxx#4 $)

>  <Rbt.Library>
libRbt.so (2013.1, Build901 2013/11/27)

>  <Rbt.Parameter_File>
/export/apps/rDock/src/rDock_2013.1_src/data/scripts/dock_solv.prm

>  <Rbt.Receptor>
prm/pocket_docking_6.prm

>  <SCORE>
-16.2824

>  <SCORE.INTER>
-14.592

>  <SCORE.INTER.CONST>
1

>  <SCORE.INTER.POLAR>
0

>  <SCORE.INTER.ROT>
7

>  <SCORE.INTER.SOLV>
14.0135

>  <SCORE.INTER.VDW>
-22.6658

>  <SCORE.INTER.norm>
-0.56123

>  <SCORE.INTRA>
-1.69043

>  <SCORE.INTRA.DIHEDRAL>
2.45393

>  <SCORE.INTRA.DIHEDRAL.0>
5.78979

>  <SCORE.INTRA.POLAR>
0

>  <SCORE.INTRA.POLAR.0>
0

>  <SCORE.INTRA.REPUL>
0

>  <SCORE.INTRA.REPUL.0>
0

>  <SCORE.INTRA.SOLV>
0.480059

>  <SCORE.INTRA.SOLV.lig_0>
-49.9151

>  <SCORE.INTRA.VDW>
-3.15742

>  <SCORE.INTRA.VDW.0>
-0.211125

>  <SCORE.INTRA.norm>
-0.0650165

>  <SCORE.RESTR>
0

>  <SCORE.RESTR.CAVITY>
0

>  <SCORE.RESTR.norm>
0

>  <SCORE.SYSTEM>
0

>  <SCORE.SYSTEM.CONST>
0

>  <SCORE.SYSTEM.DIHEDRAL>
0

>  <SCORE.SYSTEM.SOLV>
0

>  <SCORE.SYSTEM.norm>
0

>  <SCORE.heavy>
26

>  <SCORE.norm>
-0.626247

>  <RMSD>
4.582

$$$$
ligand
 OpenBabel11021811483D
libRbt.so/2013.1/901 2013/11/27
 26 28  0  0  0  0  0  0  0  0999 V2000
   47.5743   53.1005   26.0206 N   0  0  0  0  0  0  0  0  0  0  0  0
   47.1513   54.4997   25.9152 C   0  0  2  0  0  0  0  0  0  0  0  0
   48.0335   55.3549   25.0029 C   0  0  0  0  0  0  0  0  0  0  0  0
   47.4936   55.9699   24.0829 O   0  0  0  0  0  0  0  0  0  0  0  0
   47.0410   55.2444   27.2519 C   0  0  0  0  0  0  0  0  0  0  0  0
   48.2413   55.3871   28.1715 C   0  0  0  0  0  0  0  0  0  0  0  0
   47.6089   55.9998   29.7502 S   0  0  0  0  0  0  0  0  0  0  0  0
   48.3069   57.6042   29.2921 C   0  0  0  0  0  0  0  0  0  0  0  0
   48.0575   58.7190   30.3135 C   0  0  1  0  0  0  0  0  0  0  0  0
   46.6672   58.9532   30.5653 O   0  0  0  0  0  0  0  0  0  0  0  0
   48.7046   58.3840   31.6495 C   0  0  1  0  0  0  0  0  0  0  0  0
   50.0082   58.9153   31.7373 O   0  0  0  0  0  0  0  0  0  0  0  0
   47.7510   58.9570   32.6899 C   0  0  1  0  0  0  0  0  0  0  0  0
   48.0992   60.2804   33.0438 O   0  0  0  0  0  0  0  0  0  0  0  0
   46.4226   59.0076   31.9612 C   0  0  2  0  0  0  0  0  0  0  0  0
   49.2559   55.4648   25.1593 O   0  0  0  0  0  0  0  0  0  0  0  0
   45.9780   54.3907   34.4320 N   0  0  0  0  0  0  0  0  0  0  0  0
   47.1103   55.1374   34.2247 C   0  0  0  0  0  0  0  0  0  0  0  0
   47.0323   56.3269   33.5312 N   0  0  0  0  0  0  0  0  0  0  0  0
   45.8540   56.7926   33.0802 C   0  0  0  0  0  0  0  0  0  0  0  0
   44.6995   56.0553   33.2806 C   0  0  0  0  0  0  0  0  0  0  0  0
   44.7769   54.8535   33.9560 C   0  0  0  0  0  0  0  0  0  0  0  0
   43.6878   54.1406   34.1689 N   0  0  0  0  0  0  0  0  0  0  0  0
   43.6635   56.7320   32.7367 N   0  0  0  0  0  0  0  0  0  0  0  0
   44.1475   57.8689   32.1758 C   0  0  0  0  0  0  0  0  0  0  0  0
   45.5085   57.9211   32.3835 N   0  0  0  0  0  0  0  0  0  0  0  0
  2  1  1  1  0  0  0
  2  3  1  0  0  0  0
  2  5  1  0  0  0  0
  3  4  1  0  0  0  0
  3 16  1  0  0  0  0
  5  6  1  0  0  0  0
  6  7  1  0  0  0  0
  7  8  1  0  0  0  0
  9  8  1  6  0  0  0
  9 10  1  0  0  0  0
  9 11  1  0  0  0  0
 10 15  1  0  0  0  0
 11 12  1  6  0  0  0
 11 13  1  0  0  0  0
 13 14  1  6  0  0  0
 13 15  1  0  0  0  0
 15 26  1  1  0  0  0
 17 18  2  0  0  0  0
 17 22  1  0  0  0  0
 18 19  1  0  0  0  0
 19 20  2  0  0  0  0
 20 21  1  0  0  0  0
 20 26  1  0  0  0  0
 21 22  2  0  0  0  0
 21 24  1  0  0  0  0
 22 23  1  0  0  0  0
 24 25  2  0  0  0  0
 25 26  1  0  0  0  0
M  END
>  <CHROM.1>
125.21290073,59.03437298,-168.26745065,-105.18629157,178.31285477,-58.50022887
106.41768777,46.97857377,56.62472677,30.50860318,1.12659634,-0.91100184,-2.13910921

>  <Name>
ligand

>  <RI>
0

>  <Rbt.Current_Directory>
/home/itssahil/PROJECTS/Mol_Feturizer/New_Systems/rnas/3GX3

>  <Rbt.Executable>
rbdock ($Id: //depot/dev/client3/rdock/2013.1/src/exe/rbdock.cxx#4 $)

>  <Rbt.Library>
libRbt.so (2013.1, Build901 2013/11/27)

>  <Rbt.Parameter_File>
/export/apps/rDock/src/rDock_2013.1_src/data/scripts/dock_solv.prm

>  <Rbt.Receptor>
prm/pocket_docking_6.prm

>  <SCORE>
-13.3367

>  <SCORE.INTER>
-10.1722

>  <SCORE.INTER.CONST>
1

>  <SCORE.INTER.POLAR>
0

>  <SCORE.INTER.ROT>
7

>  <SCORE.INTER.SOLV>
10.7784

>  <SCORE.INTER.VDW>
-18.641

>  <SCORE.INTER.norm>
-0.39124

>  <SCORE.INTRA>
-3.16441

>  <SCORE.INTRA.DIHEDRAL>
-0.366946

>  <SCORE.INTRA.DIHEDRAL.0>
5.78979

>  <SCORE.INTRA.POLAR>
0

>  <SCORE.INTRA.POLAR.0>
0

>  <SCORE.INTRA.REPUL>
0

>  <SCORE.INTRA.REPUL.0>
0

>  <SCORE.INTRA.SOLV>
-0.283018

>  <SCORE.INTRA.SOLV.lig_0>
-49.9151

>  <SCORE.INTRA.VDW>
-2.83943

>  <SCORE.INTRA.VDW.0>
-0.211125

>  <SCORE.INTRA.norm>
-0.121708

>  <SCORE.RESTR>
0

>  <SCORE.RESTR.CAVITY>
0

>  <SCORE.RESTR.norm>
0

>  <SCORE.SYSTEM>
0

>  <SCORE.SYSTEM.CONST>
0

>  <SCORE.SYSTEM.DIHEDRAL>
0

>  <SCORE.SYSTEM.SOLV>
0

>  <SCORE.SYSTEM.norm>
0

>  <SCORE.heavy>
26

>  <SCORE.norm>
-0.512948

>  <RMSD>
4.586

$$$$
ligand
 OpenBabel11021811483D
libRbt.so/2013.1/901 2013/11/27
 26 28  0  0  0  0  0  0  0  0999 V2000
   47.5996   55.6614   25.2330 N   0  0  0  0  0  0  0  0  0  0  0  0
   47.4627   55.4550   26.6774 C   0  0  2  0  0  0  0  0  0  0  0  0
   47.0719   54.0294   27.0733 C   0  0  0  0  0  0  0  0  0  0  0  0
   47.5287   53.5716   28.1211 O   0  0  0  0  0  0  0  0  0  0  0  0
   46.4725   56.3970   27.3743 C   0  0  0  0  0  0  0  0  0  0  0  0
   46.6929   57.8997   27.3824 C   0  0  0  0  0  0  0  0  0  0  0  0
   48.3061   58.1781   28.1491 S   0  0  0  0  0  0  0  0  0  0  0  0
   47.4354   58.2054   29.7342 C   0  0  0  0  0  0  0  0  0  0  0  0
   48.3240   57.9239   30.9505 C   0  0  1  0  0  0  0  0  0  0  0  0
   47.6703   58.1805   32.1987 O   0  0  0  0  0  0  0  0  0  0  0  0
   48.7710   56.4693   30.9695 C   0  0  1  0  0  0  0  0  0  0  0  0
   50.0112   56.3037   30.3185 O   0  0  0  0  0  0  0  0  0  0  0  0
   48.8146   56.1026   32.4472 C   0  0  1  0  0  0  0  0  0  0  0  0
   50.0944   56.3279   33.0030 O   0  0  0  0  0  0  0  0  0  0  0  0
   47.8541   57.0877   33.0838 C   0  0  2  0  0  0  0  0  0  0  0  0
   46.3097   53.3281   26.3965 O   0  0  0  0  0  0  0  0  0  0  0  0
   45.4443   52.9145   35.1805 N   0  0  0  0  0  0  0  0  0  0  0  0
   46.7902   53.1234   35.0146 C   0  0  0  0  0  0  0  0  0  0  0  0
   47.2378   54.2850   34.4210 N   0  0  0  0  0  0  0  0  0  0  0  0
   46.3777   55.2419   34.0298 C   0  0  0  0  0  0  0  0  0  0  0  0
   45.0158   55.0513   34.1899 C   0  0  0  0  0  0  0  0  0  0  0  0
   44.5627   53.8805   34.7645 C   0  0  0  0  0  0  0  0  0  0  0  0
   43.2702   53.6832   34.9380 N   0  0  0  0  0  0  0  0  0  0  0  0
   44.3757   56.1455   33.7207 N   0  0  0  0  0  0  0  0  0  0  0  0
   45.3071   57.0102   33.2452 C   0  0  0  0  0  0  0  0  0  0  0  0
   46.5573   56.4623   33.4327 N   0  0  0  0  0  0  0  0  0  0  0  0
  2  1  1  6  0  0  0
  2  3  1  0  0  0  0
  2  5  1  0  0  0  0
  3  4  1  0  0  0  0
  3 16  1  0  0  0  0
  5  6  1  0  0  0  0
  6  7  1  0  0  0  0
  7  8  1  0  0  0  0
  9  8  1  6  0  0  0
  9 10  1  0  0  0  0
  9 11  1  0  0  0  0
 10 15  1  0  0  0  0
 11 12  1  1  0  0  0
 11 13  1  0  0  0  0
 13 14  1  1  0  0  0
 13 15  1  0  0  0  0
 15 26  1  6  0  0  0
 17 18  2  0  0  0  0
 17 22  1  0  0  0  0
 18 19  1  0  0  0  0
 19 20  2  0  0  0  0
 20 21  1  0  0  0  0
 20 26  1  0  0  0  0
 21 22  2  0  0  0  0
 21 24  1  0  0  0  0
 22 23  1  0  0  0  0
 24 25  2  0  0  0  0
 25 26  1  0  0  0  0
M  END
>  <CHROM.1>
145.52601121,-61.94211459,-57.97113353,-87.93851192,159.03164955,169.67604971
165.72293032,47.09412189,55.86136351,30.99862126,1.15756212,-0.91272417,-1.70309429

>  <Name>
ligand

>  <RI>
0

>  <Rbt.Current_Directory>
/home/itssahil/PROJECTS/Mol_Feturizer/New_Systems/rnas/3GX3

>  <Rbt.Executable>
rbdock ($Id: //depot/dev/client3/rdock/2013.1/src/exe/rbdock.cxx#4 $)

>  <Rbt.Library>
libRbt.so (2013.1, Build901 2013/11/27)

>  <Rbt.Parameter_File>
/export/apps/rDock/src/rDock_2013.1_src/data/scripts/dock_solv.prm

>  <Rbt.Receptor>
prm/pocket_docking_6.prm

>  <SCORE>
-14.0889

>  <SCORE.INTER>
-11.567

>  <SCORE.INTER.CONST>
1

>  <SCORE.INTER.POLAR>
0

>  <SCORE.INTER.ROT>
7

>  <SCORE.INTER.SOLV>
13.5501

>  <SCORE.INTER.VDW>
-20.4947

>  <SCORE.INTER.norm>
-0.444886

>  <SCORE.INTRA>
-2.52182

>  <SCORE.INTRA.DIHEDRAL>
-0.898197

>  <SCORE.INTRA.DIHEDRAL.0>
5.78979

>  <SCORE.INTRA.POLAR>
0

>  <SCORE.INTRA.POLAR.0>
0

>  <SCORE.INTRA.REPUL>
0

>  <SCORE.INTRA.REPUL.0>
0

>  <SCORE.INTRA.SOLV>
0.239275

>  <SCORE.INTRA.SOLV.lig_0>
-49.9151

>  <SCORE.INTRA.VDW>
-2.19236

>  <SCORE.INTRA.VDW.0>
-0.211125

>  <SCORE.INTRA.norm>
-0.096993

>  <SCORE.RESTR>
0

>  <SCORE.RESTR.CAVITY>
0

>  <SCORE.RESTR.norm>
0

>  <SCORE.SYSTEM>
0

>  <SCORE.SYSTEM.CONST>
0

>  <SCORE.SYSTEM.DIHEDRAL>
0

>  <SCORE.SYSTEM.SOLV>
0

>  <SCORE.SYSTEM.norm>
0

>  <SCORE.heavy>
26

>  <SCORE.norm>
-0.541879

>  <RMSD>
4.590

$$$$
ligand
 OpenBabel11021811483D
libRbt.so/2013.1/901 2013/11/27
 26 28  0  0  0  0  0  0  0  0999 V2000
   47.0506   53.6955   27.1889 N   0  0  0  0  0  0  0  0  0  0  0  0
   46.7687   54.8466   26.3267 C   0  0  2  0  0  0  0  0  0  0  0  0
   48.0009   55.4209   25.6240 C   0  0  0  0  0  0  0  0  0  0  0  0
   47.8499   55.9381   24.5169 O   0  0  0  0  0  0  0  0  0  0  0  0
   46.0671   56.0198   27.0231 C   0  0  0  0  0  0  0  0  0  0  0  0
   46.6147   56.6075   28.3121 C   0  0  0  0  0  0  0  0  0  0  0  0
   48.0433   57.6146   27.8513 S   0  0  0  0  0  0  0  0  0  0  0  0
   48.5943   57.4367   29.5648 C   0  0  0  0  0  0  0  0  0  0  0  0
   48.2279   58.6145   30.4741 C   0  0  1  0  0  0  0  0  0  0  0  0
   46.8151   58.8119   30.6005 O   0  0  0  0  0  0  0  0  0  0  0  0
   48.7786   58.4070   31.8775 C   0  0  1  0  0  0  0  0  0  0  0  0
   50.0527   58.9944   32.0223 O   0  0  0  0  0  0  0  0  0  0  0  0
   47.7273   59.0186   32.7945 C   0  0  1  0  0  0  0  0  0  0  0  0
   48.0020   60.3775   33.0693 O   0  0  0  0  0  0  0  0  0  0  0  0
   46.4595   58.9617   31.9652 C   0  0  2  0  0  0  0  0  0  0  0  0
   49.1320   55.4003   26.1252 O   0  0  0  0  0  0  0  0  0  0  0  0
   46.0502   54.3495   34.4509 N   0  0  0  0  0  0  0  0  0  0  0  0
   47.1790   55.0973   34.2288 C   0  0  0  0  0  0  0  0  0  0  0  0
   47.0912   56.2852   33.5337 N   0  0  0  0  0  0  0  0  0  0  0  0
   45.9071   56.7483   33.0955 C   0  0  0  0  0  0  0  0  0  0  0  0
   44.7560   56.0098   33.3109 C   0  0  0  0  0  0  0  0  0  0  0  0
   44.8429   54.8096   33.9879 C   0  0  0  0  0  0  0  0  0  0  0  0
   43.7575   54.0957   34.2150 N   0  0  0  0  0  0  0  0  0  0  0  0
   43.7128   56.6839   32.7777 N   0  0  0  0  0  0  0  0  0  0  0  0
   44.1886   57.8203   32.2087 C   0  0  0  0  0  0  0  0  0  0  0  0
   45.5519   57.8748   32.4005 N   0  0  0  0  0  0  0  0  0  0  0  0
  2  1  1  1  0  0  0
  2  3  1  0  0  0  0
  2  5  1  0  0  0  0
  3  4  1  0  0  0  0
  3 16  1  0  0  0  0
  5  6  1  0  0  0  0
  6  7  1  0  0  0  0
  7  8  1  0  0  0  0
  9  8  1  6  0  0  0
  9 10  1  0  0  0  0
  9 11  1  0  0  0  0
 10 15  1  0  0  0  0
 11 12  1  6  0  0  0
 11 13  1  0  0  0  0
 13 14  1  6  0  0  0
 13 15  1  0  0  0  0
 15 26  1  1  0  0  0
 17 18  2  0  0  0  0
 17 22  1  0  0  0  0
 18 19  1  0  0  0  0
 19 20  2  0  0  0  0
 20 21  1  0  0  0  0
 20 26  1  0  0  0  0
 21 22  2  0  0  0  0
 21 24  1  0  0  0  0
 22 23  1  0  0  0  0
 24 25  2  0  0  0  0
 25 26  1  0  0  0  0
M  END
>  <CHROM.1>
148.96058528,51.60059328,76.06498313,-158.64917397,-97.01671582,61.94551160
99.45110702,46.93834962,56.84701657,30.53105983,1.14283656,-0.89272480,-2.01712528

>  <Name>
ligand

>  <RI>
0

>  <Rbt.Current_Directory>
/home/itssahil/PROJECTS/Mol_Feturizer/New_Systems/rnas/3GX3

>  <Rbt.Executable>
rbdock ($Id: //depot/dev/client3/rdock/2013.1/src/exe/rbdock.cxx#4 $)

>  <Rbt.Library>
libRbt.so (2013.1, Build901 2013/11/27)

>  <Rbt.Parameter_File>
/export/apps/rDock/src/rDock_2013.1_src/data/scripts/dock_solv.prm

>  <Rbt.Receptor>
prm/pocket_docking_5.prm

>  <SCORE>
-15.9666

>  <SCORE.INTER>
-13.4101

>  <SCORE.INTER.CONST>
1

>  <SCORE.INTER.POLAR>
0

>  <SCORE.INTER.ROT>
7

>  <SCORE.INTER.SOLV>
11.7888

>  <SCORE.INTER.VDW>
-21.1364

>  <SCORE.INTER.norm>
-0.515774

>  <SCORE.INTRA>
-2.55651

>  <SCORE.INTRA.DIHEDRAL>
0.572445

>  <SCORE.INTRA.DIHEDRAL.0>
5.78979

>  <SCORE.INTRA.POLAR>
0

>  <SCORE.INTRA.POLAR.0>
0

>  <SCORE.INTRA.REPUL>
0

>  <SCORE.INTRA.REPUL.0>
0

>  <SCORE.INTRA.SOLV>
0.198339

>  <SCORE.INTRA.SOLV.lig_0>
-49.9151

>  <SCORE.INTRA.VDW>
-2.9419

>  <SCORE.INTRA.VDW.0>
-0.211125

>  <SCORE.INTRA.norm>
-0.0983274

>  <SCORE.RESTR>
0

>  <SCORE.RESTR.CAVITY>
0

>  <SCORE.RESTR.norm>
0

>  <SCORE.SYSTEM>
0

>  <SCORE.SYSTEM.CONST>
0

>  <SCORE.SYSTEM.DIHEDRAL>
0

>  <SCORE.SYSTEM.SOLV>
0

>  <SCORE.SYSTEM.norm>
0

>  <SCORE.heavy>
26

>  <SCORE.norm>
-0.614102

>  <RMSD>
4.593

$$$$
ligand
 OpenBabel11021811483D
libRbt.so/2013.1/901 2013/11/27
 26 28  0  0  0  0  0  0  0  0999 V2000
   48.7280   59.5720   28.9027 N   0  0  0  0  0  0  0  0  0  0  0  0
   47.6202   58.7519   29.4008 C   0  0  2  0  0  0  0  0  0  0  0  0
   46.4107   58.6961   28.4650 C   0  0  0  0  0  0  0  0  0  0  0  0
   46.1191   59.7107   27.8313 O   0  0  0  0  0  0  0  0  0  0  0  0
   47.0927   59.1497   30.7854 C   0  0  0  0  0  0  0  0  0  0  0  0
   46.1690   58.2312   31.5662 C   0  0  0  0  0  0  0  0  0  0  0  0
   45.8496   59.0471   33.1473 S   0  0  0  0  0  0  0  0  0  0  0  0
   47.4362   58.3765   33.6990 C   0  0  0  0  0  0  0  0  0  0  0  0
   47.3420   57.0112   34.3886 C   0  0  1  0  0  0  0  0  0  0  0  0
   46.5442   56.0672   33.6651 O   0  0  0  0  0  0  0  0  0  0  0  0
   48.7226   56.3939   34.5585 C   0  0  1  0  0  0  0  0  0  0  0  0
   49.2841   56.7255   35.8091 O   0  0  0  0  0  0  0  0  0  0  0  0
   48.4969   54.8983   34.3789 C   0  0  1  0  0  0  0  0  0  0  0  0
   48.2431   54.2573   35.6127 O   0  0  0  0  0  0  0  0  0  0  0  0
   47.2278   54.8296   33.5525 C   0  0  2  0  0  0  0  0  0  0  0  0
   45.7273   57.6765   28.3088 O   0  0  0  0  0  0  0  0  0  0  0  0
   50.6157   55.2038   29.5525 N   0  0  0  0  0  0  0  0  0  0  0  0
   50.7451   55.7019   30.8244 C   0  0  0  0  0  0  0  0  0  0  0  0
   49.7318   55.5175   31.7415 N   0  0  0  0  0  0  0  0  0  0  0  0
   48.6247   54.8232   31.4241 C   0  0  0  0  0  0  0  0  0  0  0  0
   48.4755   54.3108   30.1466 C   0  0  0  0  0  0  0  0  0  0  0  0
   49.4785   54.5116   29.2192 C   0  0  0  0  0  0  0  0  0  0  0  0
   49.3629   54.0217   28.0001 N   0  0  0  0  0  0  0  0  0  0  0  0
   47.2897   53.6649   30.0838 N   0  0  0  0  0  0  0  0  0  0  0  0
   46.6785   53.7825   31.2896 C   0  0  0  0  0  0  0  0  0  0  0  0
   47.4982   54.4988   32.1341 N   0  0  0  0  0  0  0  0  0  0  0  0
  2  1  1  6  0  0  0
  2  3  1  0  0  0  0
  2  5  1  0  0  0  0
  3  4  1  0  0  0  0
  3 16  1  0  0  0  0
  5  6  1  0  0  0  0
  6  7  1  0  0  0  0
  7  8  1  0  0  0  0
  9  8  1  6  0  0  0
  9 10  1  0  0  0  0
  9 11  1  0  0  0  0
 10 15  1  0  0  0  0
 11 12  1  1  0  0  0
 11 13  1  0  0  0  0
 13 14  1  1  0  0  0
 13 15  1  0  0  0  0
 15 26  1  6  0  0  0
 17 18  2  0  0  0  0
 17 22  1  0  0  0  0
 18 19  1  0  0  0  0
 19 20  2  0  0  0  0
 20 21  1  0  0  0  0
 20 26  1  0  0  0  0
 21 22  2  0  0  0  0
 21 24  1  0  0  0  0
 22 23  1  0  0  0  0
 24 25  2  0  0  0  0
 25 26  1  0  0  0  0
M  END
>  <CHROM.1>
-36.01739843,-166.53016844,177.77902856,-81.79381748,-91.59551310,47.86113600
91.36219236,47.77067543,56.53971988,31.59745401,1.90568355,1.07230730,-1.43006756

>  <Name>
ligand

>  <RI>
0

>  <Rbt.Current_Directory>
/home/itssahil/PROJECTS/Mol_Feturizer/New_Systems/rnas/3GX3

>  <Rbt.Executable>
rbdock ($Id: //depot/dev/client3/rdock/2013.1/src/exe/rbdock.cxx#4 $)

>  <Rbt.Library>
libRbt.so (2013.1, Build901 2013/11/27)

>  <Rbt.Parameter_File>
/export/apps/rDock/src/rDock_2013.1_src/data/scripts/dock_solv.prm

>  <Rbt.Receptor>
prm/pocket_docking_2.prm

>  <SCORE>
288.286

>  <SCORE.INTER>
285.784

>  <SCORE.INTER.CONST>
1

>  <SCORE.INTER.POLAR>
0

>  <SCORE.INTER.ROT>
7

>  <SCORE.INTER.SOLV>
18.8324

>  <SCORE.INTER.VDW>
175.979

>  <SCORE.INTER.norm>
10.9917

>  <SCORE.INTRA>
-2.79474

>  <SCORE.INTRA.DIHEDRAL>
0.247809

>  <SCORE.INTRA.DIHEDRAL.0>
5.78979

>  <SCORE.INTRA.POLAR>
0

>  <SCORE.INTRA.POLAR.0>
0

>  <SCORE.INTRA.REPUL>
0

>  <SCORE.INTRA.REPUL.0>
0

>  <SCORE.INTRA.SOLV>
-0.901745

>  <SCORE.INTRA.SOLV.lig_0>
-49.9151

>  <SCORE.INTRA.VDW>
-2.46777

>  <SCORE.INTRA.VDW.0>
-0.211125

>  <SCORE.INTRA.norm>
-0.10749

>  <SCORE.RESTR>
5.29663

>  <SCORE.RESTR.CAVITY>
5.29663

>  <SCORE.RESTR.norm>
0.203717

>  <SCORE.SYSTEM>
0

>  <SCORE.SYSTEM.CONST>
0

>  <SCORE.SYSTEM.DIHEDRAL>
0

>  <SCORE.SYSTEM.SOLV>
0

>  <SCORE.SYSTEM.norm>
0

>  <SCORE.heavy>
26

>  <SCORE.norm>
11.0879

>  <RMSD>
4.607

$$$$
ligand
 OpenBabel11021811483D
libRbt.so/2013.1/901 2013/11/27
 26 28  0  0  0  0  0  0  0  0999 V2000
   44.6726   60.1491   31.8664 N   0  0  0  0  0  0  0  0  0  0  0  0
   46.0148   59.9920   31.2992 C   0  0  2  0  0  0  0  0  0  0  0  0
   46.0451   59.2730   29.9487 C   0  0  0  0  0  0  0  0  0  0  0  0
   44.9716   58.9629   29.4314 O   0  0  0  0  0  0  0  0  0  0  0  0
   47.0208   59.2735   32.2078 C   0  0  0  0  0  0  0  0  0  0  0  0
   47.2552   57.7776   32.0893 C   0  0  0  0  0  0  0  0  0  0  0  0
   45.6248   57.0131   31.9314 S   0  0  0  0  0  0  0  0  0  0  0  0
   45.9504   56.2268   33.5274 C   0  0  0  0  0  0  0  0  0  0  0  0
   46.7265   54.9084   33.4379 C   0  0  1  0  0  0  0  0  0  0  0  0
   46.2234   54.0246   32.4295 O   0  0  0  0  0  0  0  0  0  0  0  0
   48.1925   55.1636   33.1192 C   0  0  1  0  0  0  0  0  0  0  0  0
   48.9642   55.2674   34.2952 O   0  0  0  0  0  0  0  0  0  0  0  0
   48.6003   53.9927   32.2345 C   0  0  1  0  0  0  0  0  0  0  0  0
   49.1256   52.9230   32.9944 O   0  0  0  0  0  0  0  0  0  0  0  0
   47.2877   53.5313   31.6324 C   0  0  2  0  0  0  0  0  0  0  0  0
   47.0956   59.0054   29.3523 O   0  0  0  0  0  0  0  0  0  0  0  0
   48.6715   57.0189   27.9527 N   0  0  0  0  0  0  0  0  0  0  0  0
   49.0577   56.9743   29.2685 C   0  0  0  0  0  0  0  0  0  0  0  0
   48.5706   55.9836   30.0950 N   0  0  0  0  0  0  0  0  0  0  0  0
   47.7455   55.0307   29.6264 C   0  0  0  0  0  0  0  0  0  0  0  0
   47.3451   55.0567   28.3013 C   0  0  0  0  0  0  0  0  0  0  0  0
   47.8139   56.0593   27.4759 C   0  0  0  0  0  0  0  0  0  0  0  0
   47.4554   56.0964   26.2072 N   0  0  0  0  0  0  0  0  0  0  0  0
   46.5250   54.0043   28.0846 N   0  0  0  0  0  0  0  0  0  0  0  0
   46.3813   53.3309   29.2539 C   0  0  0  0  0  0  0  0  0  0  0  0
   47.1365   53.9567   30.2215 N   0  0  0  0  0  0  0  0  0  0  0  0
  2  1  1  1  0  0  0
  2  3  1  0  0  0  0
  2  5  1  0  0  0  0
  3  4  1  0  0  0  0
  3 16  1  0  0  0  0
  5  6  1  0  0  0  0
  6  7  1  0  0  0  0
  7  8  1  0  0  0  0
  9  8  1  6  0  0  0
  9 10  1  0  0  0  0
  9 11  1  0  0  0  0
 10 15  1  0  0  0  0
 11 12  1  1  0  0  0
 11 13  1  0  0  0  0
 13 14  1  1  0  0  0
 13 15  1  0  0  0  0
 15 26  1  6  0  0  0
 17 18  2  0  0  0  0
 17 22  1  0  0  0  0
 18 19  1  0  0  0  0
 19 20  2  0  0  0  0
 20 21  1  0  0  0  0
 20 26  1  0  0  0  0
 21 22  2  0  0  0  0
 21 24  1  0  0  0  0
 22 23  1  0  0  0  0
 24 25  2  0  0  0  0
 25 26  1  0  0  0  0
M  END
>  <CHROM.1>
3.86875324,94.39586588,-43.88681828,-114.89300322,-85.90951417,-46.18820312
97.03845155,47.09059470,56.24423990,30.82249055,2.56723731,1.21134318,-1.38857680

>  <Name>
ligand

>  <RI>
0

>  <Rbt.Current_Directory>
/home/itssahil/PROJECTS/Mol_Feturizer/New_Systems/rnas/3GX3

>  <Rbt.Executable>
rbdock ($Id: //depot/dev/client3/rdock/2013.1/src/exe/rbdock.cxx#4 $)

>  <Rbt.Library>
libRbt.so (2013.1, Build901 2013/11/27)

>  <Rbt.Parameter_File>
/export/apps/rDock/src/rDock_2013.1_src/data/scripts/dock_solv.prm

>  <Rbt.Receptor>
prm/pocket_docking_2.prm

>  <SCORE>
1.13493

>  <SCORE.INTER>
-2.00391

>  <SCORE.INTER.CONST>
1

>  <SCORE.INTER.POLAR>
0

>  <SCORE.INTER.ROT>
7

>  <SCORE.INTER.SOLV>
15.1175

>  <SCORE.INTER.VDW>
-14.6418

>  <SCORE.INTER.norm>
-0.0770734

>  <SCORE.INTRA>
0.538688

>  <SCORE.INTRA.DIHEDRAL>
5.2813

>  <SCORE.INTRA.DIHEDRAL.0>
5.78979

>  <SCORE.INTRA.POLAR>
0

>  <SCORE.INTRA.POLAR.0>
0

>  <SCORE.INTRA.REPUL>
0

>  <SCORE.INTRA.REPUL.0>
0

>  <SCORE.INTRA.SOLV>
1.12277

>  <SCORE.INTRA.SOLV.lig_0>
-49.9151

>  <SCORE.INTRA.VDW>
-2.66335

>  <SCORE.INTRA.VDW.0>
-0.211125

>  <SCORE.INTRA.norm>
0.0207188

>  <SCORE.RESTR>
2.60015

>  <SCORE.RESTR.CAVITY>
2.60015

>  <SCORE.RESTR.norm>
0.100006

>  <SCORE.SYSTEM>
0

>  <SCORE.SYSTEM.CONST>
0

>  <SCORE.SYSTEM.DIHEDRAL>
0

>  <SCORE.SYSTEM.SOLV>
0

>  <SCORE.SYSTEM.norm>
0

>  <SCORE.heavy>
26

>  <SCORE.norm>
0.0436512

>  <RMSD>
4.638

$$$$
ligand
 OpenBabel11021811483D
libRbt.so/2013.1/901 2013/11/27
 26 28  0  0  0  0  0  0  0  0999 V2000
   49.3582   53.3515   27.3364 N   0  0  0  0  0  0  0  0  0  0  0  0
   49.0230   54.7526   27.6056 C   0  0  2  0  0  0  0  0  0  0  0  0
   49.1844   55.1662   29.0701 C   0  0  0  0  0  0  0  0  0  0  0  0
   48.6529   54.4671   29.9332 O   0  0  0  0  0  0  0  0  0  0  0  0
   47.6110   55.1734   27.1781 C   0  0  0  0  0  0  0  0  0  0  0  0
   47.1418   56.6101   27.3280 C   0  0  0  0  0  0  0  0  0  0  0  0
   46.6571   56.8144   29.0574 S   0  0  0  0  0  0  0  0  0  0  0  0
   47.4877   58.4199   28.9955 C   0  0  0  0  0  0  0  0  0  0  0  0
   47.6790   59.0878   30.3614 C   0  0  1  0  0  0  0  0  0  0  0  0
   46.4452   59.3472   31.0406 O   0  0  0  0  0  0  0  0  0  0  0  0
   48.5203   58.2126   31.2791 C   0  0  1  0  0  0  0  0  0  0  0  0
   49.8894   58.5393   31.1888 O   0  0  0  0  0  0  0  0  0  0  0  0
   47.9377   58.4442   32.6672 C   0  0  1  0  0  0  0  0  0  0  0  0
   48.5989   59.4957   33.3416 O   0  0  0  0  0  0  0  0  0  0  0  0
   46.5189   58.8970   32.3835 C   0  0  2  0  0  0  0  0  0  0  0  0
   49.8345   56.1587   29.4212 O   0  0  0  0  0  0  0  0  0  0  0  0
   45.6646   54.1357   34.4374 N   0  0  0  0  0  0  0  0  0  0  0  0
   46.8414   54.8391   34.3848 C   0  0  0  0  0  0  0  0  0  0  0  0
   46.8748   56.0796   33.7830 N   0  0  0  0  0  0  0  0  0  0  0  0
   45.7612   56.6351   33.2733 C   0  0  0  0  0  0  0  0  0  0  0  0
   44.5633   55.9425   33.3178 C   0  0  0  0  0  0  0  0  0  0  0  0
   44.5303   54.6913   33.9006 C   0  0  0  0  0  0  0  0  0  0  0  0
   43.3975   54.0189   33.9650 N   0  0  0  0  0  0  0  0  0  0  0  0
   43.6084   56.7082   32.7442 N   0  0  0  0  0  0  0  0  0  0  0  0
   44.1873   57.8586   32.3169 C   0  0  0  0  0  0  0  0  0  0  0  0
   45.5260   57.8282   32.6411 N   0  0  0  0  0  0  0  0  0  0  0  0
  2  1  1  1  0  0  0
  2  3  1  0  0  0  0
  2  5  1  0  0  0  0
  3  4  1  0  0  0  0
  3 16  1  0  0  0  0
  5  6  1  0  0  0  0
  6  7  1  0  0  0  0
  7  8  1  0  0  0  0
  9  8  1  6  0  0  0
  9 10  1  0  0  0  0
  9 11  1  0  0  0  0
 10 15  1  0  0  0  0
 11 12  1  1  0  0  0
 11 13  1  0  0  0  0
 13 14  1  6  0  0  0
 13 15  1  0  0  0  0
 15 26  1  6  0  0  0
 17 18  2  0  0  0  0
 17 22  1  0  0  0  0
 18 19  1  0  0  0  0
 19 20  2  0  0  0  0
 20 21  1  0  0  0  0
 20 26  1  0  0  0  0
 21 22  2  0  0  0  0
 21 24  1  0  0  0  0
 22 23  1  0  0  0  0
 24 25  2  0  0  0  0
 25 26  1  0  0  0  0
M  END
>  <CHROM.1>
-50.75641221,-176.91718978,-80.50170491,137.89696486,-168.74391194,-60.33243624
132.65652199,47.03398565,56.64665495,31.11236215,0.47628387,-0.91229813,-2.63367837

>  <Name>
ligand

>  <RI>
0

>  <Rbt.Current_Directory>
/home/itssahil/PROJECTS/Mol_Feturizer/New_Systems/rnas/3GX3

>  <Rbt.Executable>
rbdock ($Id: //depot/dev/client3/rdock/2013.1/src/exe/rbdock.cxx#4 $)

>  <Rbt.Library>
libRbt.so (2013.1, Build901 2013/11/27)

>  <Rbt.Parameter_File>
/export/apps/rDock/src/rDock_2013.1_src/data/scripts/dock_solv.prm

>  <Rbt.Receptor>
prm/pocket_docking_4.prm

>  <SCORE>
-12.6697

>  <SCORE.INTER>
-9.35617

>  <SCORE.INTER.CONST>
1

>  <SCORE.INTER.POLAR>
0

>  <SCORE.INTER.ROT>
7

>  <SCORE.INTER.SOLV>
9.07666

>  <SCORE.INTER.VDW>
-17.5297

>  <SCORE.INTER.norm>
-0.359853

>  <SCORE.INTRA>
-3.38211

>  <SCORE.INTRA.DIHEDRAL>
0.587928

>  <SCORE.INTRA.DIHEDRAL.0>
5.78979

>  <SCORE.INTRA.POLAR>
0

>  <SCORE.INTRA.POLAR.0>
0

>  <SCORE.INTRA.REPUL>
0

>  <SCORE.INTRA.REPUL.0>
0

>  <SCORE.INTRA.SOLV>
-0.552018

>  <SCORE.INTRA.SOLV.lig_0>
-49.9151

>  <SCORE.INTRA.VDW>
-3.40007

>  <SCORE.INTRA.VDW.0>
-0.211125

>  <SCORE.INTRA.norm>
-0.130081

>  <SCORE.RESTR>
0.0685896

>  <SCORE.RESTR.CAVITY>
0.0685896

>  <SCORE.RESTR.norm>
0.00263806

>  <SCORE.SYSTEM>
0

>  <SCORE.SYSTEM.CONST>
0

>  <SCORE.SYSTEM.DIHEDRAL>
0

>  <SCORE.SYSTEM.SOLV>
0

>  <SCORE.SYSTEM.norm>
0

>  <SCORE.heavy>
26

>  <SCORE.norm>
-0.487296

>  <RMSD>
4.673

$$$$
ligand
 OpenBabel11021811483D
libRbt.so/2013.1/901 2013/11/27
 26 28  0  0  0  0  0  0  0  0999 V2000
   48.1626   52.6221   29.4792 N   0  0  0  0  0  0  0  0  0  0  0  0
   47.0548   53.1930   30.2503 C   0  0  2  0  0  0  0  0  0  0  0  0
   46.5135   54.5101   29.6900 C   0  0  0  0  0  0  0  0  0  0  0  0
   46.6239   54.7163   28.4812 O   0  0  0  0  0  0  0  0  0  0  0  0
   47.3562   53.4323   31.7354 C   0  0  0  0  0  0  0  0  0  0  0  0
   48.5616   54.2480   32.1693 C   0  0  0  0  0  0  0  0  0  0  0  0
   48.3080   54.6515   33.9130 S   0  0  0  0  0  0  0  0  0  0  0  0
   49.4760   56.0099   33.6644 C   0  0  0  0  0  0  0  0  0  0  0  0
   48.8512   57.2859   33.0901 C   0  0  1  0  0  0  0  0  0  0  0  0
   49.5471   57.7886   31.9437 O   0  0  0  0  0  0  0  0  0  0  0  0
   47.4101   57.0405   32.6674 C   0  0  1  0  0  0  0  0  0  0  0  0
   46.5092   57.3475   33.7083 O   0  0  0  0  0  0  0  0  0  0  0  0
   47.2207   57.9118   31.4325 C   0  0  1  0  0  0  0  0  0  0  0  0
   46.7270   59.1928   31.7687 O   0  0  0  0  0  0  0  0  0  0  0  0
   48.6306   58.0841   30.9025 C   0  0  2  0  0  0  0  0  0  0  0  0
   45.9603   55.3640   30.3942 O   0  0  0  0  0  0  0  0  0  0  0  0
   47.4320   57.1529   25.8712 N   0  0  0  0  0  0  0  0  0  0  0  0
   46.9104   58.1093   26.7054 C   0  0  0  0  0  0  0  0  0  0  0  0
   47.3406   58.1895   28.0133 N   0  0  0  0  0  0  0  0  0  0  0  0
   48.2945   57.3663   28.4832 C   0  0  0  0  0  0  0  0  0  0  0  0
   48.8349   56.3956   27.6570 C   0  0  0  0  0  0  0  0  0  0  0  0
   48.3916   56.2983   26.3530 C   0  0  0  0  0  0  0  0  0  0  0  0
   48.9013   55.3890   25.5449 N   0  0  0  0  0  0  0  0  0  0  0  0
   49.7605   55.7062   28.3607 N   0  0  0  0  0  0  0  0  0  0  0  0
   49.7950   56.2077   29.6211 C   0  0  0  0  0  0  0  0  0  0  0  0
   48.8898   57.2424   29.7114 N   0  0  0  0  0  0  0  0  0  0  0  0
  2  1  1  6  0  0  0
  2  3  1  0  0  0  0
  2  5  1  0  0  0  0
  3  4  1  0  0  0  0
  3 16  1  0  0  0  0
  5  6  1  0  0  0  0
  6  7  1  0  0  0  0
  7  8  1  0  0  0  0
  9  8  1  6  0  0  0
  9 10  1  0  0  0  0
  9 11  1  0  0  0  0
 10 15  1  0  0  0  0
 11 12  1  1  0  0  0
 11 13  1  0  0  0  0
 13 14  1  1  0  0  0
 13 15  1  0  0  0  0
 15 26  1  6  0  0  0
 17 18  2  0  0  0  0
 17 22  1  0  0  0  0
 18 19  1  0  0  0  0
 19 20  2  0  0  0  0
 20 21  1  0  0  0  0
 20 26  1  0  0  0  0
 21 22  2  0  0  0  0
 21 24  1  0  0  0  0
 22 23  1  0  0  0  0
 24 25  2  0  0  0  0
 25 26  1  0  0  0  0
M  END
>  <CHROM.1>
27.60510814,53.85839807,165.32520012,-158.78603843,83.97199421,-128.80727585
-172.27631205,47.96851549,56.13729927,30.32129939,1.89693080,-1.55318894
-1.16774711

>  <Name>
ligand

>  <RI>
0

>  <Rbt.Current_Directory>
/home/itssahil/PROJECTS/Mol_Feturizer/New_Systems/rnas/3GX3

>  <Rbt.Executable>
rbdock ($Id: //depot/dev/client3/rdock/2013.1/src/exe/rbdock.cxx#4 $)

>  <Rbt.Library>
libRbt.so (2013.1, Build901 2013/11/27)

>  <Rbt.Parameter_File>
/export/apps/rDock/src/rDock_2013.1_src/data/scripts/dock_solv.prm

>  <Rbt.Receptor>
prm/pocket_docking_3.prm

>  <SCORE>
-9.81653

>  <SCORE.INTER>
-8.97407

>  <SCORE.INTER.CONST>
1

>  <SCORE.INTER.POLAR>
0

>  <SCORE.INTER.ROT>
7

>  <SCORE.INTER.SOLV>
10.5357

>  <SCORE.INTER.VDW>
-17.7613

>  <SCORE.INTER.norm>
-0.345157

>  <SCORE.INTRA>
-0.851444

>  <SCORE.INTRA.DIHEDRAL>
4.45032

>  <SCORE.INTRA.DIHEDRAL.0>
5.78979

>  <SCORE.INTRA.POLAR>
0

>  <SCORE.INTRA.POLAR.0>
0

>  <SCORE.INTRA.REPUL>
0

>  <SCORE.INTRA.REPUL.0>
0

>  <SCORE.INTRA.SOLV>
0.537347

>  <SCORE.INTRA.SOLV.lig_0>
-49.9151

>  <SCORE.INTRA.VDW>
-3.34528

>  <SCORE.INTRA.VDW.0>
-0.211125

>  <SCORE.INTRA.norm>
-0.0327478

>  <SCORE.RESTR>
0.00898601

>  <SCORE.RESTR.CAVITY>
0.00898601

>  <SCORE.RESTR.norm>
0.000345616

>  <SCORE.SYSTEM>
0

>  <SCORE.SYSTEM.CONST>
0

>  <SCORE.SYSTEM.DIHEDRAL>
0

>  <SCORE.SYSTEM.SOLV>
0

>  <SCORE.SYSTEM.norm>
0

>  <SCORE.heavy>
26

>  <SCORE.norm>
-0.377559

>  <RMSD>
4.690

$$$$
ligand
 OpenBabel11021811483D
libRbt.so/2013.1/901 2013/11/27
 26 28  0  0  0  0  0  0  0  0999 V2000
   50.1782   52.5520   26.6995 N   0  0  0  0  0  0  0  0  0  0  0  0
   49.3178   53.6858   27.0489 C   0  0  2  0  0  0  0  0  0  0  0  0
   49.7978   55.0307   26.4989 C   0  0  0  0  0  0  0  0  0  0  0  0
   48.9737   55.7602   25.9469 O   0  0  0  0  0  0  0  0  0  0  0  0
   49.0818   53.8793   28.5524 C   0  0  0  0  0  0  0  0  0  0  0  0
   50.2435   54.0906   29.5077 C   0  0  0  0  0  0  0  0  0  0  0  0
   49.5323   54.6968   31.0551 S   0  0  0  0  0  0  0  0  0  0  0  0
   49.4417   56.3191   30.2605 C   0  0  0  0  0  0  0  0  0  0  0  0
   48.5975   57.3496   31.0178 C   0  0  1  0  0  0  0  0  0  0  0  0
   47.3852   56.8043   31.5508 O   0  0  0  0  0  0  0  0  0  0  0  0
   49.3773   57.9349   32.1864 C   0  0  1  0  0  0  0  0  0  0  0  0
   50.0572   59.1127   31.8127 O   0  0  0  0  0  0  0  0  0  0  0  0
   48.3296   58.1635   33.2682 C   0  0  1  0  0  0  0  0  0  0  0  0
   47.7836   59.4653   33.1987 O   0  0  0  0  0  0  0  0  0  0  0  0
   47.2316   57.1818   32.9092 C   0  0  2  0  0  0  0  0  0  0  0  0
   50.9684   55.4191   26.5982 O   0  0  0  0  0  0  0  0  0  0  0  0
   44.3466   53.3649   35.0832 N   0  0  0  0  0  0  0  0  0  0  0  0
   43.9314   54.3745   34.2520 C   0  0  0  0  0  0  0  0  0  0  0  0
   44.8404   55.3038   33.7916 N   0  0  0  0  0  0  0  0  0  0  0  0
   46.1434   55.2207   34.1140 C   0  0  0  0  0  0  0  0  0  0  0  0
   46.5830   54.2085   34.9501 C   0  0  0  0  0  0  0  0  0  0  0  0
   45.6722   53.2886   35.4302 C   0  0  0  0  0  0  0  0  0  0  0  0
   46.0710   52.3089   36.2180 N   0  0  0  0  0  0  0  0  0  0  0  0
   47.9170   54.3466   35.1192 N   0  0  0  0  0  0  0  0  0  0  0  0
   48.3212   55.4409   34.4261 C   0  0  0  0  0  0  0  0  0  0  0  0
   47.2289   55.9937   33.7941 N   0  0  0  0  0  0  0  0  0  0  0  0
  2  1  1  1  0  0  0
  2  3  1  0  0  0  0
  2  5  1  0  0  0  0
  3  4  1  0  0  0  0
  3 16  1  0  0  0  0
  5  6  1  0  0  0  0
  6  7  1  0  0  0  0
  7  8  1  0  0  0  0
  9  8  1  1  0  0  0
  9 10  1  0  0  0  0
  9 11  1  0  0  0  0
 10 15  1  0  0  0  0
 11 12  1  6  0  0  0
 11 13  1  0  0  0  0
 13 14  1  6  0  0  0
 13 15  1  0  0  0  0
 15 26  1  1  0  0  0
 17 18  2  0  0  0  0
 17 22  1  0  0  0  0
 18 19  1  0  0  0  0
 19 20  2  0  0  0  0
 20 21  1  0  0  0  0
 20 26  1  0  0  0  0
 21 22  2  0  0  0  0
 21 24  1  0  0  0  0
 22 23  1  0  0  0  0
 24 25  2  0  0  0  0
 25 26  1  0  0  0  0
M  END
>  <CHROM.1>
133.24108443,58.21748437,165.51651174,-79.52704252,167.74614385,-41.60426183
-85.90841981,48.10986835,55.45677724,31.61452138,0.47560317,-1.02007958,-2.57649823

>  <Name>
ligand

>  <RI>
0

>  <Rbt.Current_Directory>
/home/itssahil/PROJECTS/Mol_Feturizer/New_Systems/rnas/3GX3

>  <Rbt.Executable>
rbdock ($Id: //depot/dev/client3/rdock/2013.1/src/exe/rbdock.cxx#4 $)

>  <Rbt.Library>
libRbt.so (2013.1, Build901 2013/11/27)

>  <Rbt.Parameter_File>
/export/apps/rDock/src/rDock_2013.1_src/data/scripts/dock_solv.prm

>  <Rbt.Receptor>
prm/pocket_docking_8.prm

>  <SCORE>
-11.5556

>  <SCORE.INTER>
-9.15455

>  <SCORE.INTER.CONST>
1

>  <SCORE.INTER.POLAR>
0

>  <SCORE.INTER.ROT>
7

>  <SCORE.INTER.SOLV>
14.7025

>  <SCORE.INTER.VDW>
-19.2705

>  <SCORE.INTER.norm>
-0.352098

>  <SCORE.INTRA>
-2.40101

>  <SCORE.INTRA.DIHEDRAL>
-0.320771

>  <SCORE.INTRA.DIHEDRAL.0>
5.78979

>  <SCORE.INTRA.POLAR>
0

>  <SCORE.INTRA.POLAR.0>
0

>  <SCORE.INTRA.REPUL>
0

>  <SCORE.INTRA.REPUL.0>
0

>  <SCORE.INTRA.SOLV>
-0.316345

>  <SCORE.INTRA.SOLV.lig_0>
-49.9151

>  <SCORE.INTRA.VDW>
-2.08246

>  <SCORE.INTRA.VDW.0>
-0.211125

>  <SCORE.INTRA.norm>
-0.0923467

>  <SCORE.RESTR>
0

>  <SCORE.RESTR.CAVITY>
0

>  <SCORE.RESTR.norm>
0

>  <SCORE.SYSTEM>
0

>  <SCORE.SYSTEM.CONST>
0

>  <SCORE.SYSTEM.DIHEDRAL>
0

>  <SCORE.SYSTEM.SOLV>
0

>  <SCORE.SYSTEM.norm>
0

>  <SCORE.heavy>
26

>  <SCORE.norm>
-0.444445

>  <RMSD>
4.723

$$$$
ligand
 OpenBabel11021811483D
libRbt.so/2013.1/901 2013/11/27
 26 28  0  0  0  0  0  0  0  0999 V2000
   45.0278   57.2497   31.7201 N   0  0  0  0  0  0  0  0  0  0  0  0
   45.3689   58.6750   31.7235 C   0  0  2  0  0  0  0  0  0  0  0  0
   45.4816   59.2966   30.3297 C   0  0  0  0  0  0  0  0  0  0  0  0
   46.0624   58.6560   29.4531 O   0  0  0  0  0  0  0  0  0  0  0  0
   46.6593   59.0294   32.4737 C   0  0  0  0  0  0  0  0  0  0  0  0
   48.0117   58.5462   31.9794 C   0  0  0  0  0  0  0  0  0  0  0  0
   49.1860   58.8464   33.3205 S   0  0  0  0  0  0  0  0  0  0  0  0
   49.5842   57.0844   33.2307 C   0  0  0  0  0  0  0  0  0  0  0  0
   48.4574   56.1553   33.6948 C   0  0  1  0  0  0  0  0  0  0  0  0
   47.3979   56.0319   32.7391 O   0  0  0  0  0  0  0  0  0  0  0  0
   48.9863   54.7535   33.9610 C   0  0  1  0  0  0  0  0  0  0  0  0
   49.3591   54.5920   35.3117 O   0  0  0  0  0  0  0  0  0  0  0  0
   47.8516   53.8302   33.5365 C   0  0  1  0  0  0  0  0  0  0  0  0
   46.9920   53.5293   34.6173 O   0  0  0  0  0  0  0  0  0  0  0  0
   47.0695   54.6662   32.5426 C   0  0  2  0  0  0  0  0  0  0  0  0
   45.0039   60.4020   30.0453 O   0  0  0  0  0  0  0  0  0  0  0  0
   48.9325   56.0968   27.8415 N   0  0  0  0  0  0  0  0  0  0  0  0
   48.8597   56.8447   28.9895 C   0  0  0  0  0  0  0  0  0  0  0  0
   48.3164   56.2979   30.1331 N   0  0  0  0  0  0  0  0  0  0  0  0
   47.8848   55.0244   30.1576 C   0  0  0  0  0  0  0  0  0  0  0  0
   47.9511   54.2524   29.0103 C   0  0  0  0  0  0  0  0  0  0  0  0
   48.4749   54.8030   27.8575 C   0  0  0  0  0  0  0  0  0  0  0  0
   48.5590   54.0819   26.7564 N   0  0  0  0  0  0  0  0  0  0  0  0
   47.4586   53.0261   29.2944 N   0  0  0  0  0  0  0  0  0  0  0  0
   47.0603   53.0193   30.5916 C   0  0  0  0  0  0  0  0  0  0  0  0
   47.3212   54.2552   31.1419 N   0  0  0  0  0  0  0  0  0  0  0  0
  2  1  1  6  0  0  0
  2  3  1  0  0  0  0
  2  5  1  0  0  0  0
  3  4  1  0  0  0  0
  3 16  1  0  0  0  0
  5  6  1  0  0  0  0
  6  7  1  0  0  0  0
  7  8  1  0  0  0  0
  9  8  1  6  0  0  0
  9 10  1  0  0  0  0
  9 11  1  0  0  0  0
 10 15  1  0  0  0  0
 11 12  1  1  0  0  0
 11 13  1  0  0  0  0
 13 14  1  1  0  0  0
 13 15  1  0  0  0  0
 15 26  1  6  0  0  0
 17 18  2  0  0  0  0
 17 22  1  0  0  0  0
 18 19  1  0  0  0  0
 19 20  2  0  0  0  0
 20 21  1  0  0  0  0
 20 26  1  0  0  0  0
 21 22  2  0  0  0  0
 21 24  1  0  0  0  0
 22 23  1  0  0  0  0
 24 25  2  0  0  0  0
 25 26  1  0  0  0  0
M  END
>  <CHROM.1>
-42.66427183,65.61783123,-167.25681114,124.18949105,-68.66648497,75.55000038
4.49116426,47.64903792,56.28769759,31.41138907,1.87094179,-1.25407099,1.09724171

>  <Name>
ligand

>  <RI>
0

>  <Rbt.Current_Directory>
/home/itssahil/PROJECTS/Mol_Feturizer/New_Systems/rnas/3GX3

>  <Rbt.Executable>
rbdock ($Id: //depot/dev/client3/rdock/2013.1/src/exe/rbdock.cxx#4 $)

>  <Rbt.Library>
libRbt.so (2013.1, Build901 2013/11/27)

>  <Rbt.Parameter_File>
/export/apps/rDock/src/rDock_2013.1_src/data/scripts/dock_solv.prm

>  <Rbt.Receptor>
prm/pocket_docking_3.prm

>  <SCORE>
-12.633

>  <SCORE.INTER>
-11.5552

>  <SCORE.INTER.CONST>
1

>  <SCORE.INTER.POLAR>
0

>  <SCORE.INTER.ROT>
7

>  <SCORE.INTER.SOLV>
7.12475

>  <SCORE.INTER.VDW>
-18.3451

>  <SCORE.INTER.norm>
-0.444431

>  <SCORE.INTRA>
-1.07775

>  <SCORE.INTRA.DIHEDRAL>
1.04389

>  <SCORE.INTRA.DIHEDRAL.0>
5.78979

>  <SCORE.INTRA.POLAR>
0

>  <SCORE.INTRA.POLAR.0>
0

>  <SCORE.INTRA.REPUL>
0

>  <SCORE.INTRA.REPUL.0>
0

>  <SCORE.INTRA.SOLV>
2.23127

>  <SCORE.INTRA.SOLV.lig_0>
-49.9151

>  <SCORE.INTRA.VDW>
-2.71533

>  <SCORE.INTRA.VDW.0>
-0.211125

>  <SCORE.INTRA.norm>
-0.041452

>  <SCORE.RESTR>
0

>  <SCORE.RESTR.CAVITY>
0

>  <SCORE.RESTR.norm>
0

>  <SCORE.SYSTEM>
0

>  <SCORE.SYSTEM.CONST>
0

>  <SCORE.SYSTEM.DIHEDRAL>
0

>  <SCORE.SYSTEM.SOLV>
0

>  <SCORE.SYSTEM.norm>
0

>  <SCORE.heavy>
26

>  <SCORE.norm>
-0.485883

>  <RMSD>
4.735

$$$$
ligand
 OpenBabel11021811483D
libRbt.so/2013.1/901 2013/11/27
 26 28  0  0  0  0  0  0  0  0999 V2000
   49.1803   54.9586   25.6783 N   0  0  0  0  0  0  0  0  0  0  0  0
   48.2208   55.1432   26.7706 C   0  0  2  0  0  0  0  0  0  0  0  0
   46.9225   55.8384   26.3546 C   0  0  0  0  0  0  0  0  0  0  0  0
   47.0020   56.8384   25.6407 O   0  0  0  0  0  0  0  0  0  0  0  0
   48.7634   55.9057   27.9862 C   0  0  0  0  0  0  0  0  0  0  0  0
   47.9254   56.0795   29.2409 C   0  0  0  0  0  0  0  0  0  0  0  0
   48.7340   57.3622   30.2250 S   0  0  0  0  0  0  0  0  0  0  0  0
   47.7568   58.5585   29.2840 C   0  0  0  0  0  0  0  0  0  0  0  0
   46.4364   58.9616   29.9492 C   0  0  1  0  0  0  0  0  0  0  0  0
   45.6221   57.8409   30.3123 O   0  0  0  0  0  0  0  0  0  0  0  0
   46.6915   59.7603   31.2192 C   0  0  1  0  0  0  0  0  0  0  0  0
   46.7137   61.1464   30.9595 O   0  0  0  0  0  0  0  0  0  0  0  0
   45.5714   59.3438   32.1636 C   0  0  1  0  0  0  0  0  0  0  0  0
   44.4508   60.1979   32.0523 O   0  0  0  0  0  0  0  0  0  0  0  0
   45.1645   57.9776   31.6477 C   0  0  2  0  0  0  0  0  0  0  0  0
   45.8036   55.4317   26.6916 O   0  0  0  0  0  0  0  0  0  0  0  0
   49.1791   56.2072   34.5401 N   0  0  0  0  0  0  0  0  0  0  0  0
   49.0944   57.3796   33.8324 C   0  0  0  0  0  0  0  0  0  0  0  0
   47.9548   57.6663   33.1107 N   0  0  0  0  0  0  0  0  0  0  0  0
   46.9012   56.8306   33.1140 C   0  0  0  0  0  0  0  0  0  0  0  0
   46.9658   55.6433   33.8231 C   0  0  0  0  0  0  0  0  0  0  0  0
   48.1132   55.3428   34.5298 C   0  0  0  0  0  0  0  0  0  0  0  0
   48.1920   54.2230   35.2223 N   0  0  0  0  0  0  0  0  0  0  0  0
   45.7934   54.9895   33.6647 N   0  0  0  0  0  0  0  0  0  0  0  0
   45.0016   55.7306   32.8491 C   0  0  0  0  0  0  0  0  0  0  0  0
   45.6768   56.8797   32.5003 N   0  0  0  0  0  0  0  0  0  0  0  0
  2  1  1  6  0  0  0
  2  3  1  0  0  0  0
  2  5  1  0  0  0  0
  3  4  1  0  0  0  0
  3 16  1  0  0  0  0
  5  6  1  0  0  0  0
  6  7  1  0  0  0  0
  7  8  1  0  0  0  0
  9  8  1  1  0  0  0
  9 10  1  0  0  0  0
  9 11  1  0  0  0  0
 10 15  1  0  0  0  0
 11 12  1  6  0  0  0
 11 13  1  0  0  0  0
 13 14  1  6  0  0  0
 13 15  1  0  0  0  0
 15 26  1  1  0  0  0
 17 18  2  0  0  0  0
 17 22  1  0  0  0  0
 18 19  1  0  0  0  0
 19 20  2  0  0  0  0
 20 21  1  0  0  0  0
 20 26  1  0  0  0  0
 21 22  2  0  0  0  0
 21 24  1  0  0  0  0
 22 23  1  0  0  0  0
 24 25  2  0  0  0  0
 25 26  1  0  0  0  0
M  END
>  <CHROM.1>
-45.29935567,-175.06968350,-165.67793986,87.59342334,93.81939107,-52.84715416
83.66343110,47.12556957,57.07208732,30.77767489,-1.40849862,-1.07684361,1.62445477

>  <Name>
ligand

>  <RI>
0

>  <Rbt.Current_Directory>
/home/itssahil/PROJECTS/Mol_Feturizer/New_Systems/rnas/3GX3

>  <Rbt.Executable>
rbdock ($Id: //depot/dev/client3/rdock/2013.1/src/exe/rbdock.cxx#4 $)

>  <Rbt.Library>
libRbt.so (2013.1, Build901 2013/11/27)

>  <Rbt.Parameter_File>
/export/apps/rDock/src/rDock_2013.1_src/data/scripts/dock_solv.prm

>  <Rbt.Receptor>
prm/pocket_docking_4.prm

>  <SCORE>
-14.3697

>  <SCORE.INTER>
-10.5997

>  <SCORE.INTER.CONST>
1

>  <SCORE.INTER.POLAR>
0

>  <SCORE.INTER.ROT>
7

>  <SCORE.INTER.SOLV>
13.6457

>  <SCORE.INTER.VDW>
-19.8817

>  <SCORE.INTER.norm>
-0.407681

>  <SCORE.INTRA>
-3.781

>  <SCORE.INTRA.DIHEDRAL>
0.570115

>  <SCORE.INTRA.DIHEDRAL.0>
5.78979

>  <SCORE.INTRA.POLAR>
0

>  <SCORE.INTRA.POLAR.0>
0

>  <SCORE.INTRA.REPUL>
0

>  <SCORE.INTRA.REPUL.0>
0

>  <SCORE.INTRA.SOLV>
-0.612792

>  <SCORE.INTRA.SOLV.lig_0>
-49.9151

>  <SCORE.INTRA.VDW>
-3.75966

>  <SCORE.INTRA.VDW.0>
-0.211125

>  <SCORE.INTRA.norm>
-0.145423

>  <SCORE.RESTR>
0.0109604

>  <SCORE.RESTR.CAVITY>
0.0109604

>  <SCORE.RESTR.norm>
0.000421555

>  <SCORE.SYSTEM>
0

>  <SCORE.SYSTEM.CONST>
0

>  <SCORE.SYSTEM.DIHEDRAL>
0

>  <SCORE.SYSTEM.SOLV>
0

>  <SCORE.SYSTEM.norm>
0

>  <SCORE.heavy>
26

>  <SCORE.norm>
-0.552682

>  <RMSD>
4.741

$$$$
ligand
 OpenBabel11021811483D
libRbt.so/2013.1/901 2013/11/27
 26 28  0  0  0  0  0  0  0  0999 V2000
   46.5915   53.6132   28.5414 N   0  0  0  0  0  0  0  0  0  0  0  0
   46.9624   55.0262   28.4245 C   0  0  2  0  0  0  0  0  0  0  0  0
   46.3045   55.7525   27.2491 C   0  0  0  0  0  0  0  0  0  0  0  0
   45.3839   56.5336   27.4906 O   0  0  0  0  0  0  0  0  0  0  0  0
   48.4698   55.2930   28.3241 C   0  0  0  0  0  0  0  0  0  0  0  0
   49.0199   56.7082   28.3611 C   0  0  0  0  0  0  0  0  0  0  0  0
   48.5259   57.4097   29.9522 S   0  0  0  0  0  0  0  0  0  0  0  0
   47.3217   58.3948   29.0298 C   0  0  0  0  0  0  0  0  0  0  0  0
   46.1077   58.8432   29.8506 C   0  0  1  0  0  0  0  0  0  0  0  0
   45.3487   57.7498   30.3792 O   0  0  0  0  0  0  0  0  0  0  0  0
   46.5393   59.7012   31.0311 C   0  0  1  0  0  0  0  0  0  0  0  0
   46.5289   61.0726   30.7013 O   0  0  0  0  0  0  0  0  0  0  0  0
   45.5602   59.3430   32.1415 C   0  0  1  0  0  0  0  0  0  0  0  0
   44.4374   60.2015   32.1439 O   0  0  0  0  0  0  0  0  0  0  0  0
   45.0816   57.9570   31.7567 C   0  0  2  0  0  0  0  0  0  0  0  0
   46.6665   55.5994   26.0758 O   0  0  0  0  0  0  0  0  0  0  0  0
   49.3571   56.4373   34.4079 N   0  0  0  0  0  0  0  0  0  0  0  0
   49.1653   57.5957   33.6979 C   0  0  0  0  0  0  0  0  0  0  0  0
   47.9695   57.8126   33.0461 N   0  0  0  0  0  0  0  0  0  0  0  0
   46.9651   56.9214   33.1210 C   0  0  0  0  0  0  0  0  0  0  0  0
   47.1379   55.7471   33.8338 C   0  0  0  0  0  0  0  0  0  0  0  0
   48.3413   55.5167   34.4702 C   0  0  0  0  0  0  0  0  0  0  0  0
   48.5234   54.4105   35.1650 N   0  0  0  0  0  0  0  0  0  0  0  0
   45.9953   55.0294   33.7534 N   0  0  0  0  0  0  0  0  0  0  0  0
   45.1156   55.7178   32.9828 C   0  0  0  0  0  0  0  0  0  0  0  0
   45.7045   56.8977   32.5841 N   0  0  0  0  0  0  0  0  0  0  0  0
  2  1  1  6  0  0  0
  2  3  1  0  0  0  0
  2  5  1  0  0  0  0
  3  4  1  0  0  0  0
  3 16  1  0  0  0  0
  5  6  1  0  0  0  0
  6  7  1  0  0  0  0
  7  8  1  0  0  0  0
  9  8  1  1  0  0  0
  9 10  1  0  0  0  0
  9 11  1  0  0  0  0
 10 15  1  0  0  0  0
 11 12  1  6  0  0  0
 11 13  1  0  0  0  0
 13 14  1  6  0  0  0
 13 15  1  0  0  0  0
 15 26  1  1  0  0  0
 17 18  2  0  0  0  0
 17 22  1  0  0  0  0
 18 19  1  0  0  0  0
 19 20  2  0  0  0  0
 20 21  1  0  0  0  0
 20 26  1  0  0  0  0
 21 22  2  0  0  0  0
 21 24  1  0  0  0  0
 22 23  1  0  0  0  0
 24 25  2  0  0  0  0
 25 26  1  0  0  0  0
M  END
>  <CHROM.1>
105.37985181,-172.78660651,60.42370678,-106.36230945,155.08683947,-60.33116116
89.76834734,46.93809244,57.03549051,30.95447041,-1.79037030,-1.14174809,1.30461924

>  <Name>
ligand

>  <RI>
0

>  <Rbt.Current_Directory>
/home/itssahil/PROJECTS/Mol_Feturizer/New_Systems/rnas/3GX3

>  <Rbt.Executable>
rbdock ($Id: //depot/dev/client3/rdock/2013.1/src/exe/rbdock.cxx#4 $)

>  <Rbt.Library>
libRbt.so (2013.1, Build901 2013/11/27)

>  <Rbt.Parameter_File>
/export/apps/rDock/src/rDock_2013.1_src/data/scripts/dock_solv.prm

>  <Rbt.Receptor>
prm/pocket_docking_3.prm

>  <SCORE>
-14.4654

>  <SCORE.INTER>
-10.0624

>  <SCORE.INTER.CONST>
1

>  <SCORE.INTER.POLAR>
0

>  <SCORE.INTER.ROT>
7

>  <SCORE.INTER.SOLV>
13.346

>  <SCORE.INTER.VDW>
-19.4236

>  <SCORE.INTER.norm>
-0.387017

>  <SCORE.INTRA>
-4.40299

>  <SCORE.INTRA.DIHEDRAL>
0.254518

>  <SCORE.INTRA.DIHEDRAL.0>
5.78979

>  <SCORE.INTRA.POLAR>
0

>  <SCORE.INTRA.POLAR.0>
0

>  <SCORE.INTRA.REPUL>
0

>  <SCORE.INTRA.REPUL.0>
0

>  <SCORE.INTRA.SOLV>
-0.414803

>  <SCORE.INTRA.SOLV.lig_0>
-49.9151

>  <SCORE.INTRA.VDW>
-4.32285

>  <SCORE.INTRA.VDW.0>
-0.211125

>  <SCORE.INTRA.norm>
-0.169346

>  <SCORE.RESTR>
0

>  <SCORE.RESTR.CAVITY>
0

>  <SCORE.RESTR.norm>
0

>  <SCORE.SYSTEM>
0

>  <SCORE.SYSTEM.CONST>
0

>  <SCORE.SYSTEM.DIHEDRAL>
0

>  <SCORE.SYSTEM.SOLV>
0

>  <SCORE.SYSTEM.norm>
0

>  <SCORE.heavy>
26

>  <SCORE.norm>
-0.556363

>  <RMSD>
4.744

$$$$
ligand
 OpenBabel11021811483D
libRbt.so/2013.1/901 2013/11/27
 26 28  0  0  0  0  0  0  0  0999 V2000
   45.6821   59.0369   31.0273 N   0  0  0  0  0  0  0  0  0  0  0  0
   46.8178   59.4872   30.2179 C   0  0  2  0  0  0  0  0  0  0  0  0
   47.1756   58.5501   29.0622 C   0  0  0  0  0  0  0  0  0  0  0  0
   46.3107   57.7746   28.6540 O   0  0  0  0  0  0  0  0  0  0  0  0
   48.1118   59.7391   31.0026 C   0  0  0  0  0  0  0  0  0  0  0  0
   48.7367   58.6486   31.8552 C   0  0  0  0  0  0  0  0  0  0  0  0
   47.5550   58.2878   33.1747 S   0  0  0  0  0  0  0  0  0  0  0  0
   48.6392   56.9144   33.6325 C   0  0  0  0  0  0  0  0  0  0  0  0
   47.9026   55.6335   34.0388 C   0  0  1  0  0  0  0  0  0  0  0  0
   46.9373   55.2063   33.0710 O   0  0  0  0  0  0  0  0  0  0  0  0
   48.8813   54.4844   34.2329 C   0  0  1  0  0  0  0  0  0  0  0  0
   49.3032   54.3891   35.5754 O   0  0  0  0  0  0  0  0  0  0  0  0
   48.1245   53.2530   33.7522 C   0  0  1  0  0  0  0  0  0  0  0  0
   47.4324   52.6204   34.8097 O   0  0  0  0  0  0  0  0  0  0  0  0
   47.0921   53.8229   32.7995 C   0  0  2  0  0  0  0  0  0  0  0  0
   48.2855   58.5495   28.5153 O   0  0  0  0  0  0  0  0  0  0  0  0
   50.0976   55.3379   28.7635 N   0  0  0  0  0  0  0  0  0  0  0  0
   50.0513   55.8610   30.0311 C   0  0  0  0  0  0  0  0  0  0  0  0
   49.1760   55.3376   30.9594 N   0  0  0  0  0  0  0  0  0  0  0  0
   48.3848   54.2930   30.6572 C   0  0  0  0  0  0  0  0  0  0  0  0
   48.4176   53.7495   29.3843 C   0  0  0  0  0  0  0  0  0  0  0  0
   49.2774   54.2845   28.4457 C   0  0  0  0  0  0  0  0  0  0  0  0
   49.3341   53.7746   27.2307 N   0  0  0  0  0  0  0  0  0  0  0  0
   47.5376   52.7246   29.3372 N   0  0  0  0  0  0  0  0  0  0  0  0
   46.9333   52.6287   30.5484 C   0  0  0  0  0  0  0  0  0  0  0  0
   47.4518   53.5967   31.3804 N   0  0  0  0  0  0  0  0  0  0  0  0
  2  1  1  1  0  0  0
  2  3  1  0  0  0  0
  2  5  1  0  0  0  0
  3  4  1  0  0  0  0
  3 16  1  0  0  0  0
  5  6  1  0  0  0  0
  6  7  1  0  0  0  0
  7  8  1  0  0  0  0
  9  8  1  6  0  0  0
  9 10  1  0  0  0  0
  9 11  1  0  0  0  0
 10 15  1  0  0  0  0
 11 12  1  1  0  0  0
 11 13  1  0  0  0  0
 13 14  1  1  0  0  0
 13 15  1  0  0  0  0
 15 26  1  6  0  0  0
 17 18  2  0  0  0  0
 17 22  1  0  0  0  0
 18 19  1  0  0  0  0
 19 20  2  0  0  0  0
 20 21  1  0  0  0  0
 20 26  1  0  0  0  0
 21 22  2  0  0  0  0
 21 24  1  0  0  0  0
 22 23  1  0  0  0  0
 24 25  2  0  0  0  0
 25 26  1  0  0  0  0
M  END
>  <CHROM.1>
21.48443577,56.41994889,-64.19268099,172.79066284,-140.12387443,52.30719629
44.80617215,48.02222508,55.84761743,31.37991969,2.00779688,1.39972257,-1.11608818

>  <Name>
ligand

>  <RI>
0

>  <Rbt.Current_Directory>
/home/itssahil/PROJECTS/Mol_Feturizer/New_Systems/rnas/3GX3

>  <Rbt.Executable>
rbdock ($Id: //depot/dev/client3/rdock/2013.1/src/exe/rbdock.cxx#4 $)

>  <Rbt.Library>
libRbt.so (2013.1, Build901 2013/11/27)

>  <Rbt.Parameter_File>
/export/apps/rDock/src/rDock_2013.1_src/data/scripts/dock_solv.prm

>  <Rbt.Receptor>
prm/pocket_docking_2.prm

>  <SCORE>
-12.2858

>  <SCORE.INTER>
-10.6108

>  <SCORE.INTER.CONST>
1

>  <SCORE.INTER.POLAR>
0

>  <SCORE.INTER.ROT>
7

>  <SCORE.INTER.SOLV>
9.65017

>  <SCORE.INTER.VDW>
-18.5573

>  <SCORE.INTER.norm>
-0.408109

>  <SCORE.INTRA>
-3.45958

>  <SCORE.INTRA.DIHEDRAL>
-0.818161

>  <SCORE.INTRA.DIHEDRAL.0>
5.78979

>  <SCORE.INTRA.POLAR>
0

>  <SCORE.INTRA.POLAR.0>
0

>  <SCORE.INTRA.REPUL>
0

>  <SCORE.INTRA.REPUL.0>
0

>  <SCORE.INTRA.SOLV>
1.10769

>  <SCORE.INTRA.SOLV.lig_0>
-49.9151

>  <SCORE.INTRA.VDW>
-3.60434

>  <SCORE.INTRA.VDW.0>
-0.211125

>  <SCORE.INTRA.norm>
-0.133061

>  <SCORE.RESTR>
1.78465

>  <SCORE.RESTR.CAVITY>
1.78465

>  <SCORE.RESTR.norm>
0.0686406

>  <SCORE.SYSTEM>
0

>  <SCORE.SYSTEM.CONST>
0

>  <SCORE.SYSTEM.DIHEDRAL>
0

>  <SCORE.SYSTEM.SOLV>
0

>  <SCORE.SYSTEM.norm>
0

>  <SCORE.heavy>
26

>  <SCORE.norm>
-0.472529

>  <RMSD>
4.745

$$$$
ligand
 OpenBabel11021811483D
libRbt.so/2013.1/901 2013/11/27
 26 28  0  0  0  0  0  0  0  0999 V2000
   48.1375   52.2426   27.4250 N   0  0  0  0  0  0  0  0  0  0  0  0
   48.2662   52.4827   28.8650 C   0  0  2  0  0  0  0  0  0  0  0  0
   46.9781   52.9607   29.5390 C   0  0  0  0  0  0  0  0  0  0  0  0
   46.3062   53.8185   28.9656 O   0  0  0  0  0  0  0  0  0  0  0  0
   49.3684   53.4742   29.2594 C   0  0  0  0  0  0  0  0  0  0  0  0
   49.7476   53.6871   30.7145 C   0  0  0  0  0  0  0  0  0  0  0  0
   48.4518   54.7197   31.4372 S   0  0  0  0  0  0  0  0  0  0  0  0
   49.3689   56.1417   30.7983 C   0  0  0  0  0  0  0  0  0  0  0  0
   48.7453   57.5008   31.1334 C   0  0  1  0  0  0  0  0  0  0  0  0
   47.3431   57.5639   30.8490 O   0  0  0  0  0  0  0  0  0  0  0  0
   48.9181   57.8267   32.6099 C   0  0  1  0  0  0  0  0  0  0  0  0
   50.0934   58.5723   32.8380 O   0  0  0  0  0  0  0  0  0  0  0  0
   47.6476   58.5778   32.9863 C   0  0  1  0  0  0  0  0  0  0  0  0
   47.8023   59.9742   32.8326 O   0  0  0  0  0  0  0  0  0  0  0  0
   46.6409   58.1078   31.9548 C   0  0  2  0  0  0  0  0  0  0  0  0
   46.5792   52.5135   30.6215 O   0  0  0  0  0  0  0  0  0  0  0  0
   45.9909   53.9398   35.0890 N   0  0  0  0  0  0  0  0  0  0  0  0
   47.1510   54.6142   34.8026 C   0  0  0  0  0  0  0  0  0  0  0  0
   47.1274   55.6846   33.9333 N   0  0  0  0  0  0  0  0  0  0  0  0
   45.9757   56.1078   33.3827 C   0  0  0  0  0  0  0  0  0  0  0  0
   44.7940   55.4420   33.6602 C   0  0  0  0  0  0  0  0  0  0  0  0
   44.8169   54.3568   34.5135 C   0  0  0  0  0  0  0  0  0  0  0  0
   43.7010   53.7154   34.8016 N   0  0  0  0  0  0  0  0  0  0  0  0
   43.7933   56.0553   32.9896 N   0  0  0  0  0  0  0  0  0  0  0  0
   44.3264   57.0787   32.2755 C   0  0  0  0  0  0  0  0  0  0  0  0
   45.6830   57.1247   32.5119 N   0  0  0  0  0  0  0  0  0  0  0  0
  2  1  1  6  0  0  0
  2  3  1  0  0  0  0
  2  5  1  0  0  0  0
  3  4  1  0  0  0  0
  3 16  1  0  0  0  0
  5  6  1  0  0  0  0
  6  7  1  0  0  0  0
  7  8  1  0  0  0  0
  9  8  1  1  0  0  0
  9 10  1  0  0  0  0
  9 11  1  0  0  0  0
 10 15  1  0  0  0  0
 11 12  1  6  0  0  0
 11 13  1  0  0  0  0
 13 14  1  6  0  0  0
 13 15  1  0  0  0  0
 15 26  1  1  0  0  0
 17 18  2  0  0  0  0
 17 22  1  0  0  0  0
 18 19  1  0  0  0  0
 19 20  2  0  0  0  0
 20 21  1  0  0  0  0
 20 26  1  0  0  0  0
 21 22  2  0  0  0  0
 21 24  1  0  0  0  0
 22 23  1  0  0  0  0
 24 25  2  0  0  0  0
 25 26  1  0  0  0  0
M  END
>  <CHROM.1>
-43.34715371,-171.80666636,-76.63680831,-84.85449152,-178.65724091,-48.47598473
81.75139069,47.18086740,55.53100174,31.88042754,-1.19962109,0.69827421,0.54750101

>  <Name>
ligand

>  <RI>
0

>  <Rbt.Current_Directory>
/home/itssahil/PROJECTS/Mol_Feturizer/New_Systems/rnas/3GX3

>  <Rbt.Executable>
rbdock ($Id: //depot/dev/client3/rdock/2013.1/src/exe/rbdock.cxx#4 $)

>  <Rbt.Library>
libRbt.so (2013.1, Build901 2013/11/27)

>  <Rbt.Parameter_File>
/export/apps/rDock/src/rDock_2013.1_src/data/scripts/dock_solv.prm

>  <Rbt.Receptor>
prm/pocket_docking_5.prm

>  <SCORE>
-14.6644

>  <SCORE.INTER>
-10.9246

>  <SCORE.INTER.CONST>
1

>  <SCORE.INTER.POLAR>
0

>  <SCORE.INTER.ROT>
7

>  <SCORE.INTER.SOLV>
11.1795

>  <SCORE.INTER.VDW>
-19.2763

>  <SCORE.INTER.norm>
-0.420178

>  <SCORE.INTRA>
-3.73975

>  <SCORE.INTRA.DIHEDRAL>
-0.361281

>  <SCORE.INTRA.DIHEDRAL.0>
5.78979

>  <SCORE.INTRA.POLAR>
0

>  <SCORE.INTRA.POLAR.0>
0

>  <SCORE.INTRA.REPUL>
0

>  <SCORE.INTRA.REPUL.0>
0

>  <SCORE.INTRA.SOLV>
-0.565991

>  <SCORE.INTRA.SOLV.lig_0>
-49.9151

>  <SCORE.INTRA.VDW>
-3.27611

>  <SCORE.INTRA.VDW.0>
-0.211125

>  <SCORE.INTRA.norm>
-0.143836

>  <SCORE.RESTR>
0

>  <SCORE.RESTR.CAVITY>
0

>  <SCORE.RESTR.norm>
0

>  <SCORE.SYSTEM>
0

>  <SCORE.SYSTEM.CONST>
0

>  <SCORE.SYSTEM.DIHEDRAL>
0

>  <SCORE.SYSTEM.SOLV>
0

>  <SCORE.SYSTEM.norm>
0

>  <SCORE.heavy>
26

>  <SCORE.norm>
-0.564015

>  <RMSD>
4.759

$$$$
ligand
 OpenBabel11021811483D
libRbt.so/2013.1/901 2013/11/27
 26 28  0  0  0  0  0  0  0  0999 V2000
   49.7538   55.4174   28.4634 N   0  0  0  0  0  0  0  0  0  0  0  0
   49.2358   56.5377   27.6733 C   0  0  2  0  0  0  0  0  0  0  0  0
   48.6982   57.7004   28.5104 C   0  0  0  0  0  0  0  0  0  0  0  0
   48.4518   58.7627   27.9387 O   0  0  0  0  0  0  0  0  0  0  0  0
   48.1364   56.1674   26.6694 C   0  0  0  0  0  0  0  0  0  0  0  0
   46.7603   55.7293   27.1397 C   0  0  0  0  0  0  0  0  0  0  0  0
   45.8666   57.2357   27.5866 S   0  0  0  0  0  0  0  0  0  0  0  0
   45.3272   56.3546   29.0712 C   0  0  0  0  0  0  0  0  0  0  0  0
   44.6451   57.2389   30.1205 C   0  0  1  0  0  0  0  0  0  0  0  0
   44.1708   56.5049   31.2551 O   0  0  0  0  0  0  0  0  0  0  0  0
   45.6046   58.2989   30.6417 C   0  0  1  0  0  0  0  0  0  0  0  0
   45.4987   59.4962   29.9039 O   0  0  0  0  0  0  0  0  0  0  0  0
   45.2318   58.4627   32.1095 C   0  0  1  0  0  0  0  0  0  0  0  0
   44.2709   59.4829   32.2928 O   0  0  0  0  0  0  0  0  0  0  0  0
   44.5750   57.1412   32.4565 C   0  0  2  0  0  0  0  0  0  0  0  0
   48.4887   57.6134   29.7268 O   0  0  0  0  0  0  0  0  0  0  0  0
   49.4389   56.3670   34.2900 N   0  0  0  0  0  0  0  0  0  0  0  0
   48.9804   57.3959   33.5065 C   0  0  0  0  0  0  0  0  0  0  0  0
   47.6612   57.4194   33.1051 N   0  0  0  0  0  0  0  0  0  0  0  0
   46.7980   56.4659   33.4977 C   0  0  0  0  0  0  0  0  0  0  0  0
   47.2401   55.4201   34.2898 C   0  0  0  0  0  0  0  0  0  0  0  0
   48.5651   55.3816   34.6762 C   0  0  0  0  0  0  0  0  0  0  0  0
   49.0052   54.4013   35.4409 N   0  0  0  0  0  0  0  0  0  0  0  0
   46.1917   54.6047   34.5409 N   0  0  0  0  0  0  0  0  0  0  0  0
   45.1039   55.1036   33.9013 C   0  0  0  0  0  0  0  0  0  0  0  0
   45.4655   56.2625   33.2498 N   0  0  0  0  0  0  0  0  0  0  0  0
  2  1  1  1  0  0  0
  2  3  1  0  0  0  0
  2  5  1  0  0  0  0
  3  4  1  0  0  0  0
  3 16  1  0  0  0  0
  5  6  1  0  0  0  0
  6  7  1  0  0  0  0
  7  8  1  0  0  0  0
  9  8  1  6  0  0  0
  9 10  1  0  0  0  0
  9 11  1  0  0  0  0
 10 15  1  0  0  0  0
 11 12  1  6  0  0  0
 11 13  1  0  0  0  0
 13 14  1  6  0  0  0
 13 15  1  0  0  0  0
 15 26  1  6  0  0  0
 17 18  2  0  0  0  0
 17 22  1  0  0  0  0
 18 19  1  0  0  0  0
 19 20  2  0  0  0  0
 20 21  1  0  0  0  0
 20 26  1  0  0  0  0
 21 22  2  0  0  0  0
 21 24  1  0  0  0  0
 22 23  1  0  0  0  0
 24 25  2  0  0  0  0
 25 26  1  0  0  0  0
M  END
>  <CHROM.1>
168.19446714,68.48126966,79.09561382,-135.32242447,169.30626503,177.14048806
112.20616833,46.81482166,56.87681842,30.98013831,-1.55285492,-0.37987608
1.77473414

>  <Name>
ligand

>  <RI>
0

>  <Rbt.Current_Directory>
/home/itssahil/PROJECTS/Mol_Feturizer/New_Systems/rnas/3GX3

>  <Rbt.Executable>
rbdock ($Id: //depot/dev/client3/rdock/2013.1/src/exe/rbdock.cxx#4 $)

>  <Rbt.Library>
libRbt.so (2013.1, Build901 2013/11/27)

>  <Rbt.Parameter_File>
/export/apps/rDock/src/rDock_2013.1_src/data/scripts/dock_solv.prm

>  <Rbt.Receptor>
prm/pocket_docking_3.prm

>  <SCORE>
-13.2848

>  <SCORE.INTER>
-10.6646

>  <SCORE.INTER.CONST>
1

>  <SCORE.INTER.POLAR>
0

>  <SCORE.INTER.ROT>
7

>  <SCORE.INTER.SOLV>
16.4154

>  <SCORE.INTER.VDW>
-20.8482

>  <SCORE.INTER.norm>
-0.410177

>  <SCORE.INTRA>
-2.62023

>  <SCORE.INTRA.DIHEDRAL>
0.779437

>  <SCORE.INTRA.DIHEDRAL.0>
5.78979

>  <SCORE.INTRA.POLAR>
0

>  <SCORE.INTRA.POLAR.0>
0

>  <SCORE.INTRA.REPUL>
0

>  <SCORE.INTRA.REPUL.0>
0

>  <SCORE.INTRA.SOLV>
0.149363

>  <SCORE.INTRA.SOLV.lig_0>
-49.9151

>  <SCORE.INTRA.VDW>
-3.08463

>  <SCORE.INTRA.VDW.0>
-0.211125

>  <SCORE.INTRA.norm>
-0.100778

>  <SCORE.RESTR>
0

>  <SCORE.RESTR.CAVITY>
0

>  <SCORE.RESTR.norm>
0

>  <SCORE.SYSTEM>
0

>  <SCORE.SYSTEM.CONST>
0

>  <SCORE.SYSTEM.DIHEDRAL>
0

>  <SCORE.SYSTEM.SOLV>
0

>  <SCORE.SYSTEM.norm>
0

>  <SCORE.heavy>
26

>  <SCORE.norm>
-0.510955

>  <RMSD>
4.760

$$$$
ligand
 OpenBabel11021811483D
libRbt.so/2013.1/901 2013/11/27
 26 28  0  0  0  0  0  0  0  0999 V2000
   49.3633   53.5149   26.5755 N   0  0  0  0  0  0  0  0  0  0  0  0
   50.0315   54.8177   26.6391 C   0  0  2  0  0  0  0  0  0  0  0  0
   50.8686   55.0326   27.9020 C   0  0  0  0  0  0  0  0  0  0  0  0
   50.5930   54.3687   28.9016 O   0  0  0  0  0  0  0  0  0  0  0  0
   49.0993   56.0295   26.5124 C   0  0  0  0  0  0  0  0  0  0  0  0
   47.8737   56.1720   27.3980 C   0  0  0  0  0  0  0  0  0  0  0  0
   47.6083   57.9454   27.6263 S   0  0  0  0  0  0  0  0  0  0  0  0
   48.4573   57.7657   29.2132 C   0  0  0  0  0  0  0  0  0  0  0  0
   48.1323   58.8616   30.2338 C   0  0  1  0  0  0  0  0  0  0  0  0
   46.7453   59.2175   30.2575 O   0  0  0  0  0  0  0  0  0  0  0  0
   48.5055   58.4189   31.6412 C   0  0  1  0  0  0  0  0  0  0  0  0
   49.8153   58.8206   31.9765 O   0  0  0  0  0  0  0  0  0  0  0  0
   47.4392   59.0420   32.5327 C   0  0  1  0  0  0  0  0  0  0  0  0
   47.8347   60.3127   33.0087 O   0  0  0  0  0  0  0  0  0  0  0  0
   46.2673   59.2446   31.5925 C   0  0  2  0  0  0  0  0  0  0  0  0
   51.8136   55.8295   27.9553 O   0  0  0  0  0  0  0  0  0  0  0  0
   42.9336   55.8920   29.2982 N   0  0  0  0  0  0  0  0  0  0  0  0
   43.8341   56.7369   28.7001 C   0  0  0  0  0  0  0  0  0  0  0  0
   44.6194   57.5649   29.4746 N   0  0  0  0  0  0  0  0  0  0  0  0
   44.5462   57.5364   30.8171 C   0  0  0  0  0  0  0  0  0  0  0  0
   43.6453   56.6897   31.4402 C   0  0  0  0  0  0  0  0  0  0  0  0
   42.8423   55.8745   30.6674 C   0  0  0  0  0  0  0  0  0  0  0  0
   41.9858   55.0512   31.2402 N   0  0  0  0  0  0  0  0  0  0  0  0
   43.7652   56.8511   32.7768 N   0  0  0  0  0  0  0  0  0  0  0  0
   44.7063   57.8013   33.0064 C   0  0  0  0  0  0  0  0  0  0  0  0
   45.2024   58.2353   31.7965 N   0  0  0  0  0  0  0  0  0  0  0  0
  2  1  1  1  0  0  0
  2  3  1  0  0  0  0
  2  5  1  0  0  0  0
  3  4  1  0  0  0  0
  3 16  1  0  0  0  0
  5  6  1  0  0  0  0
  6  7  1  0  0  0  0
  7  8  1  0  0  0  0
  9  8  1  6  0  0  0
  9 10  1  0  0  0  0
  9 11  1  0  0  0  0
 10 15  1  0  0  0  0
 11 12  1  1  0  0  0
 11 13  1  0  0  0  0
 13 14  1  6  0  0  0
 13 15  1  0  0  0  0
 15 26  1  6  0  0  0
 17 18  2  0  0  0  0
 17 22  1  0  0  0  0
 18 19  1  0  0  0  0
 19 20  2  0  0  0  0
 20 21  1  0  0  0  0
 20 26  1  0  0  0  0
 21 22  2  0  0  0  0
 21 24  1  0  0  0  0
 22 23  1  0  0  0  0
 24 25  2  0  0  0  0
 25 26  1  0  0  0  0
M  END
>  <CHROM.1>
-23.10954716,52.11277629,149.43546643,-98.36279833,-157.51348786,41.38119588
-12.36554068,47.00992248,57.12319405,29.84574337,0.59938457,-0.21522266,-2.30641638

>  <Name>
ligand

>  <RI>
0

>  <Rbt.Current_Directory>
/home/itssahil/PROJECTS/Mol_Feturizer/New_Systems/rnas/3GX3

>  <Rbt.Executable>
rbdock ($Id: //depot/dev/client3/rdock/2013.1/src/exe/rbdock.cxx#4 $)

>  <Rbt.Library>
libRbt.so (2013.1, Build901 2013/11/27)

>  <Rbt.Parameter_File>
/export/apps/rDock/src/rDock_2013.1_src/data/scripts/dock_solv.prm

>  <Rbt.Receptor>
prm/pocket_docking_7.prm

>  <SCORE>
-16.4255

>  <SCORE.INTER>
-15.1747

>  <SCORE.INTER.CONST>
1

>  <SCORE.INTER.POLAR>
0

>  <SCORE.INTER.ROT>
7

>  <SCORE.INTER.SOLV>
10.7984

>  <SCORE.INTER.VDW>
-21.9826

>  <SCORE.INTER.norm>
-0.583643

>  <SCORE.INTRA>
-1.25081

>  <SCORE.INTRA.DIHEDRAL>
3.79407

>  <SCORE.INTRA.DIHEDRAL.0>
5.78979

>  <SCORE.INTRA.POLAR>
0

>  <SCORE.INTRA.POLAR.0>
0

>  <SCORE.INTRA.REPUL>
0

>  <SCORE.INTRA.REPUL.0>
0

>  <SCORE.INTRA.SOLV>
-0.341442

>  <SCORE.INTRA.SOLV.lig_0>
-49.9151

>  <SCORE.INTRA.VDW>
-2.97713

>  <SCORE.INTRA.VDW.0>
-0.211125

>  <SCORE.INTRA.norm>
-0.0481081

>  <SCORE.RESTR>
0

>  <SCORE.RESTR.CAVITY>
0

>  <SCORE.RESTR.norm>
0

>  <SCORE.SYSTEM>
0

>  <SCORE.SYSTEM.CONST>
0

>  <SCORE.SYSTEM.DIHEDRAL>
0

>  <SCORE.SYSTEM.SOLV>
0

>  <SCORE.SYSTEM.norm>
0

>  <SCORE.heavy>
26

>  <SCORE.norm>
-0.631751

>  <RMSD>
4.767

$$$$
ligand
 OpenBabel11021811483D
libRbt.so/2013.1/901 2013/11/27
 26 28  0  0  0  0  0  0  0  0999 V2000
   49.1307   56.3561   27.6163 N   0  0  0  0  0  0  0  0  0  0  0  0
   47.7593   56.8438   27.7873 C   0  0  2  0  0  0  0  0  0  0  0  0
   47.1592   57.4820   26.5326 C   0  0  0  0  0  0  0  0  0  0  0  0
   47.0324   56.7811   25.5282 O   0  0  0  0  0  0  0  0  0  0  0  0
   47.5679   57.8477   28.9315 C   0  0  0  0  0  0  0  0  0  0  0  0
   47.9647   57.4988   30.3554 C   0  0  0  0  0  0  0  0  0  0  0  0
   47.5092   58.9182   31.3779 S   0  0  0  0  0  0  0  0  0  0  0  0
   46.0756   57.9500   31.9056 C   0  0  0  0  0  0  0  0  0  0  0  0
   46.3036   57.1186   33.1725 C   0  0  1  0  0  0  0  0  0  0  0  0
   45.0861   56.7058   33.8036 O   0  0  0  0  0  0  0  0  0  0  0  0
   47.0950   55.8575   32.8576 C   0  0  1  0  0  0  0  0  0  0  0  0
   48.4801   56.0639   33.0254 O   0  0  0  0  0  0  0  0  0  0  0  0
   46.5261   54.8045   33.7997 C   0  0  1  0  0  0  0  0  0  0  0  0
   47.2447   54.7496   35.0156 O   0  0  0  0  0  0  0  0  0  0  0  0
   45.1347   55.3214   34.1079 C   0  0  2  0  0  0  0  0  0  0  0  0
   46.7854   58.6607   26.4903 O   0  0  0  0  0  0  0  0  0  0  0  0
   41.5961   55.4584   30.2249 N   0  0  0  0  0  0  0  0  0  0  0  0
   42.4485   56.4533   30.6325 C   0  0  0  0  0  0  0  0  0  0  0  0
   43.3021   56.2356   31.6936 N   0  0  0  0  0  0  0  0  0  0  0  0
   43.3425   55.0466   32.3206 C   0  0  0  0  0  0  0  0  0  0  0  0
   42.4919   54.0290   31.9235 C   0  0  0  0  0  0  0  0  0  0  0  0
   41.6209   54.2501   30.8752 C   0  0  0  0  0  0  0  0  0  0  0  0
   40.8104   53.2909   30.4723 N   0  0  0  0  0  0  0  0  0  0  0  0
   42.7256   52.9509   32.7047 N   0  0  0  0  0  0  0  0  0  0  0  0
   43.6892   53.2785   33.6022 C   0  0  0  0  0  0  0  0  0  0  0  0
   44.0840   54.5785   33.3739 N   0  0  0  0  0  0  0  0  0  0  0  0
  2  1  1  6  0  0  0
  2  3  1  0  0  0  0
  2  5  1  0  0  0  0
  3  4  1  0  0  0  0
  3 16  1  0  0  0  0
  5  6  1  0  0  0  0
  6  7  1  0  0  0  0
  7  8  1  0  0  0  0
  9  8  1  6  0  0  0
  9 10  1  0  0  0  0
  9 11  1  0  0  0  0
 10 15  1  0  0  0  0
 11 12  1  1  0  0  0
 11 13  1  0  0  0  0
 13 14  1  1  0  0  0
 13 15  1  0  0  0  0
 15 26  1  6  0  0  0
 17 18  2  0  0  0  0
 17 22  1  0  0  0  0
 18 19  1  0  0  0  0
 19 20  2  0  0  0  0
 20 21  1  0  0  0  0
 20 26  1  0  0  0  0
 21 22  2  0  0  0  0
 21 24  1  0  0  0  0
 22 23  1  0  0  0  0
 24 25  2  0  0  0  0
 25 26  1  0  0  0  0
M  END
>  <CHROM.1>
61.66424246,-56.44961018,-177.67082520,102.37487623,91.71555015,161.54580338
13.79794600,45.53534719,56.13073512,31.14908796,0.83282171,-0.46852880,-1.35769049

>  <Name>
ligand

>  <RI>
0

>  <Rbt.Current_Directory>
/home/itssahil/PROJECTS/Mol_Feturizer/New_Systems/rnas/3GX3

>  <Rbt.Executable>
rbdock ($Id: //depot/dev/client3/rdock/2013.1/src/exe/rbdock.cxx#4 $)

>  <Rbt.Library>
libRbt.so (2013.1, Build901 2013/11/27)

>  <Rbt.Parameter_File>
/export/apps/rDock/src/rDock_2013.1_src/data/scripts/dock_solv.prm

>  <Rbt.Receptor>
prm/pocket_docking_8.prm

>  <SCORE>
-12.0265

>  <SCORE.INTER>
-11.2156

>  <SCORE.INTER.CONST>
1

>  <SCORE.INTER.POLAR>
0

>  <SCORE.INTER.ROT>
7

>  <SCORE.INTER.SOLV>
8.50027

>  <SCORE.INTER.VDW>
-18.5772

>  <SCORE.INTER.norm>
-0.43137

>  <SCORE.INTRA>
-0.810918

>  <SCORE.INTRA.DIHEDRAL>
1.42162

>  <SCORE.INTRA.DIHEDRAL.0>
5.78979

>  <SCORE.INTRA.POLAR>
0

>  <SCORE.INTRA.POLAR.0>
0

>  <SCORE.INTRA.REPUL>
0

>  <SCORE.INTRA.REPUL.0>
0

>  <SCORE.INTRA.SOLV>
-0.0960004

>  <SCORE.INTRA.SOLV.lig_0>
-49.9151

>  <SCORE.INTRA.VDW>
-1.47373

>  <SCORE.INTRA.VDW.0>
-0.211125

>  <SCORE.INTRA.norm>
-0.0311891

>  <SCORE.RESTR>
0

>  <SCORE.RESTR.CAVITY>
0

>  <SCORE.RESTR.norm>
0

>  <SCORE.SYSTEM>
0

>  <SCORE.SYSTEM.CONST>
0

>  <SCORE.SYSTEM.DIHEDRAL>
0

>  <SCORE.SYSTEM.SOLV>
0

>  <SCORE.SYSTEM.norm>
0

>  <SCORE.heavy>
26

>  <SCORE.norm>
-0.46256

>  <RMSD>
4.770

$$$$
ligand
 OpenBabel11021811483D
libRbt.so/2013.1/901 2013/11/27
 26 28  0  0  0  0  0  0  0  0999 V2000
   45.5492   56.9049   27.5995 N   0  0  0  0  0  0  0  0  0  0  0  0
   46.1445   58.0537   28.2878 C   0  0  2  0  0  0  0  0  0  0  0  0
   47.6558   57.9433   28.5011 C   0  0  0  0  0  0  0  0  0  0  0  0
   48.2715   57.0885   27.8637 O   0  0  0  0  0  0  0  0  0  0  0  0
   45.5258   58.3814   29.6529 C   0  0  0  0  0  0  0  0  0  0  0  0
   45.3449   57.3062   30.7103 C   0  0  0  0  0  0  0  0  0  0  0  0
   44.8748   58.1580   32.2338 S   0  0  0  0  0  0  0  0  0  0  0  0
   45.7938   56.8741   33.1159 C   0  0  0  0  0  0  0  0  0  0  0  0
   47.2691   57.2069   33.3630 C   0  0  1  0  0  0  0  0  0  0  0  0
   48.1362   56.0776   33.2079 O   0  0  0  0  0  0  0  0  0  0  0  0
   47.7518   58.2784   32.3961 C   0  0  1  0  0  0  0  0  0  0  0  0
   47.6103   59.5693   32.9465 O   0  0  0  0  0  0  0  0  0  0  0  0
   49.1994   57.9052   32.1042 C   0  0  1  0  0  0  0  0  0  0  0  0
   50.0924   58.5439   32.9943 O   0  0  0  0  0  0  0  0  0  0  0  0
   49.2452   56.4174   32.3917 C   0  0  2  0  0  0  0  0  0  0  0  0
   48.2824   58.6818   29.2711 O   0  0  0  0  0  0  0  0  0  0  0  0
   47.0401   52.4506   29.7421 N   0  0  0  0  0  0  0  0  0  0  0  0
   46.7095   52.9294   30.9847 C   0  0  0  0  0  0  0  0  0  0  0  0
   47.4216   53.9772   31.5297 N   0  0  0  0  0  0  0  0  0  0  0  0
   48.4192   54.5685   30.8487 C   0  0  0  0  0  0  0  0  0  0  0  0
   48.7673   54.1015   29.5927 C   0  0  0  0  0  0  0  0  0  0  0  0
   48.0706   53.0389   29.0525 C   0  0  0  0  0  0  0  0  0  0  0  0
   48.3770   52.5858   27.8524 N   0  0  0  0  0  0  0  0  0  0  0  0
   49.7885   54.8550   29.1274 N   0  0  0  0  0  0  0  0  0  0  0  0
   50.1065   55.7709   30.0768 C   0  0  0  0  0  0  0  0  0  0  0  0
   49.2616   55.6059   31.1525 N   0  0  0  0  0  0  0  0  0  0  0  0
  2  1  1  1  0  0  0
  2  3  1  0  0  0  0
  2  5  1  0  0  0  0
  3  4  1  0  0  0  0
  3 16  1  0  0  0  0
  5  6  1  0  0  0  0
  6  7  1  0  0  0  0
  7  8  1  0  0  0  0
  9  8  1  6  0  0  0
  9 10  1  0  0  0  0
  9 11  1  0  0  0  0
 10 15  1  0  0  0  0
 11 12  1  1  0  0  0
 11 13  1  0  0  0  0
 13 14  1  1  0  0  0
 13 15  1  0  0  0  0
 15 26  1  6  0  0  0
 17 18  2  0  0  0  0
 17 22  1  0  0  0  0
 18 19  1  0  0  0  0
 19 20  2  0  0  0  0
 20 21  1  0  0  0  0
 20 26  1  0  0  0  0
 21 22  2  0  0  0  0
 21 24  1  0  0  0  0
 22 23  1  0  0  0  0
 24 25  2  0  0  0  0
 25 26  1  0  0  0  0
M  END
>  <CHROM.1>
14.75014022,50.50251874,170.05128051,-146.39968234,90.68058366,-141.13648532
-5.94897815,47.58175196,56.44836884,30.74296193,1.20010781,0.91807742,-2.25029403

>  <Name>
ligand

>  <RI>
0

>  <Rbt.Current_Directory>
/home/itssahil/PROJECTS/Mol_Feturizer/New_Systems/rnas/3GX3

>  <Rbt.Executable>
rbdock ($Id: //depot/dev/client3/rdock/2013.1/src/exe/rbdock.cxx#4 $)

>  <Rbt.Library>
libRbt.so (2013.1, Build901 2013/11/27)

>  <Rbt.Parameter_File>
/export/apps/rDock/src/rDock_2013.1_src/data/scripts/dock_solv.prm

>  <Rbt.Receptor>
prm/pocket_docking_5.prm

>  <SCORE>
-11.8023

>  <SCORE.INTER>
-10.6737

>  <SCORE.INTER.CONST>
1

>  <SCORE.INTER.POLAR>
0

>  <SCORE.INTER.ROT>
7

>  <SCORE.INTER.SOLV>
12.186

>  <SCORE.INTER.VDW>
-19.4444

>  <SCORE.INTER.norm>
-0.410526

>  <SCORE.INTRA>
-1.12866

>  <SCORE.INTRA.DIHEDRAL>
4.24458

>  <SCORE.INTRA.DIHEDRAL.0>
5.78979

>  <SCORE.INTRA.POLAR>
0

>  <SCORE.INTRA.POLAR.0>
0

>  <SCORE.INTRA.REPUL>
0

>  <SCORE.INTRA.REPUL.0>
0

>  <SCORE.INTRA.SOLV>
0.194713

>  <SCORE.INTRA.SOLV.lig_0>
-49.9151

>  <SCORE.INTRA.VDW>
-3.34831

>  <SCORE.INTRA.VDW.0>
-0.211125

>  <SCORE.INTRA.norm>
-0.0434101

>  <SCORE.RESTR>
0

>  <SCORE.RESTR.CAVITY>
0

>  <SCORE.RESTR.norm>
0

>  <SCORE.SYSTEM>
0

>  <SCORE.SYSTEM.CONST>
0

>  <SCORE.SYSTEM.DIHEDRAL>
0

>  <SCORE.SYSTEM.SOLV>
0

>  <SCORE.SYSTEM.norm>
0

>  <SCORE.heavy>
26

>  <SCORE.norm>
-0.453936

>  <RMSD>
4.776

$$$$
ligand
 OpenBabel11021811483D
libRbt.so/2013.1/901 2013/11/27
 26 28  0  0  0  0  0  0  0  0999 V2000
   48.7818   52.3933   27.5859 N   0  0  0  0  0  0  0  0  0  0  0  0
   50.0755   53.0807   27.5459 C   0  0  2  0  0  0  0  0  0  0  0  0
   51.0983   52.4388   26.6059 C   0  0  0  0  0  0  0  0  0  0  0  0
   51.7128   53.1703   25.8292 O   0  0  0  0  0  0  0  0  0  0  0  0
   50.7639   53.2433   28.9073 C   0  0  0  0  0  0  0  0  0  0  0  0
   50.0834   53.9816   30.0468 C   0  0  0  0  0  0  0  0  0  0  0  0
   49.9178   55.7022   29.5177 S   0  0  0  0  0  0  0  0  0  0  0  0
   49.3279   56.0543   31.1909 C   0  0  0  0  0  0  0  0  0  0  0  0
   48.9608   57.5214   31.4380 C   0  0  1  0  0  0  0  0  0  0  0  0
   47.8532   57.9671   30.6471 O   0  0  0  0  0  0  0  0  0  0  0  0
   48.5902   57.7487   32.8964 C   0  0  1  0  0  0  0  0  0  0  0  0
   49.7107   58.1442   33.6563 O   0  0  0  0  0  0  0  0  0  0  0  0
   47.4922   58.8034   32.8514 C   0  0  1  0  0  0  0  0  0  0  0  0
   48.0198   60.1103   32.9566 O   0  0  0  0  0  0  0  0  0  0  0  0
   46.9119   58.6496   31.4593 C   0  0  2  0  0  0  0  0  0  0  0  0
   51.3422   51.2257   26.6043 O   0  0  0  0  0  0  0  0  0  0  0  0
   44.2591   54.3563   29.9935 N   0  0  0  0  0  0  0  0  0  0  0  0
   45.5757   54.6628   29.7580 C   0  0  0  0  0  0  0  0  0  0  0  0
   46.0950   55.8578   30.2098 N   0  0  0  0  0  0  0  0  0  0  0  0
   45.3417   56.7215   30.9134 C   0  0  0  0  0  0  0  0  0  0  0  0
   44.0114   56.4303   31.1633 C   0  0  0  0  0  0  0  0  0  0  0  0
   43.4821   55.2444   30.6943 C   0  0  0  0  0  0  0  0  0  0  0  0
   42.2207   54.9410   30.9314 N   0  0  0  0  0  0  0  0  0  0  0  0
   43.4810   57.4474   31.8784 N   0  0  0  0  0  0  0  0  0  0  0  0
   44.4450   58.3846   32.0617 C   0  0  0  0  0  0  0  0  0  0  0  0
   45.6085   57.9457   31.4686 N   0  0  0  0  0  0  0  0  0  0  0  0
  2  1  1  1  0  0  0
  2  3  1  0  0  0  0
  2  5  1  0  0  0  0
  3  4  1  0  0  0  0
  3 16  1  0  0  0  0
  5  6  1  0  0  0  0
  6  7  1  0  0  0  0
  7  8  1  0  0  0  0
  9  8  1  1  0  0  0
  9 10  1  0  0  0  0
  9 11  1  0  0  0  0
 10 15  1  0  0  0  0
 11 12  1  1  0  0  0
 11 13  1  0  0  0  0
 13 14  1  6  0  0  0
 13 15  1  0  0  0  0
 15 26  1  1  0  0  0
 17 18  2  0  0  0  0
 17 22  1  0  0  0  0
 18 19  1  0  0  0  0
 19 20  2  0  0  0  0
 20 21  1  0  0  0  0
 20 26  1  0  0  0  0
 21 22  2  0  0  0  0
 21 24  1  0  0  0  0
 22 23  1  0  0  0  0
 24 25  2  0  0  0  0
 25 26  1  0  0  0  0
M  END
>  <CHROM.1>
132.46878257,-58.51061053,-65.03184012,-173.22780810,-179.69288087,64.43628604
7.15682508,47.72872563,55.84387997,30.28135494,0.89734676,-0.08888183,-2.45926673

>  <Name>
ligand

>  <RI>
0

>  <Rbt.Current_Directory>
/home/itssahil/PROJECTS/Mol_Feturizer/New_Systems/rnas/3GX3

>  <Rbt.Executable>
rbdock ($Id: //depot/dev/client3/rdock/2013.1/src/exe/rbdock.cxx#4 $)

>  <Rbt.Library>
libRbt.so (2013.1, Build901 2013/11/27)

>  <Rbt.Parameter_File>
/export/apps/rDock/src/rDock_2013.1_src/data/scripts/dock_solv.prm

>  <Rbt.Receptor>
prm/pocket_docking_6.prm

>  <SCORE>
-14.4095

>  <SCORE.INTER>
-10.0283

>  <SCORE.INTER.CONST>
1

>  <SCORE.INTER.POLAR>
0

>  <SCORE.INTER.ROT>
7

>  <SCORE.INTER.SOLV>
9.34117

>  <SCORE.INTER.VDW>
-18.0659

>  <SCORE.INTER.norm>
-0.385704

>  <SCORE.INTRA>
-4.38885

>  <SCORE.INTRA.DIHEDRAL>
-2.76369

>  <SCORE.INTRA.DIHEDRAL.0>
5.78979

>  <SCORE.INTRA.POLAR>
0

>  <SCORE.INTRA.POLAR.0>
0

>  <SCORE.INTRA.REPUL>
0

>  <SCORE.INTRA.REPUL.0>
0

>  <SCORE.INTRA.SOLV>
0.0304411

>  <SCORE.INTRA.SOLV.lig_0>
-49.9151

>  <SCORE.INTRA.VDW>
-3.02222

>  <SCORE.INTRA.VDW.0>
-0.211125

>  <SCORE.INTRA.norm>
-0.168802

>  <SCORE.RESTR>
0.00763164

>  <SCORE.RESTR.CAVITY>
0.00763164

>  <SCORE.RESTR.norm>
0.000293525

>  <SCORE.SYSTEM>
0

>  <SCORE.SYSTEM.CONST>
0

>  <SCORE.SYSTEM.DIHEDRAL>
0

>  <SCORE.SYSTEM.SOLV>
0

>  <SCORE.SYSTEM.norm>
0

>  <SCORE.heavy>
26

>  <SCORE.norm>
-0.554212

>  <RMSD>
4.779

$$$$
ligand
 OpenBabel11021811483D
libRbt.so/2013.1/901 2013/11/27
 26 28  0  0  0  0  0  0  0  0999 V2000
   45.2609   54.3016   29.6401 N   0  0  0  0  0  0  0  0  0  0  0  0
   45.5040   54.4648   28.2041 C   0  0  2  0  0  0  0  0  0  0  0  0
   45.9728   53.1905   27.4983 C   0  0  0  0  0  0  0  0  0  0  0  0
   46.5048   52.3122   28.1777 O   0  0  0  0  0  0  0  0  0  0  0  0
   46.5047   55.5688   27.8389 C   0  0  0  0  0  0  0  0  0  0  0  0
   46.2111   57.0266   28.1476 C   0  0  0  0  0  0  0  0  0  0  0  0
   47.6931   57.9565   27.6927 S   0  0  0  0  0  0  0  0  0  0  0  0
   48.3138   57.5823   29.3498 C   0  0  0  0  0  0  0  0  0  0  0  0
   48.0632   58.6846   30.3845 C   0  0  1  0  0  0  0  0  0  0  0  0
   46.6727   58.9161   30.6370 O   0  0  0  0  0  0  0  0  0  0  0  0
   48.7082   58.3330   31.7173 C   0  0  1  0  0  0  0  0  0  0  0  0
   50.0119   58.8627   31.8136 O   0  0  0  0  0  0  0  0  0  0  0  0
   47.7532   58.8935   32.7632 C   0  0  1  0  0  0  0  0  0  0  0  0
   48.1013   60.2122   33.1339 O   0  0  0  0  0  0  0  0  0  0  0  0
   46.4259   58.9535   32.0332 C   0  0  2  0  0  0  0  0  0  0  0  0
   45.8271   53.0014   26.2842 O   0  0  0  0  0  0  0  0  0  0  0  0
   45.9727   54.3156   34.4627 N   0  0  0  0  0  0  0  0  0  0  0  0
   47.1052   55.0656   34.2688 C   0  0  0  0  0  0  0  0  0  0  0  0
   47.0297   56.2607   33.5847 N   0  0  0  0  0  0  0  0  0  0  0  0
   45.8537   56.7285   33.1302 C   0  0  0  0  0  0  0  0  0  0  0  0
   44.6990   55.9878   33.3171 C   0  0  0  0  0  0  0  0  0  0  0  0
   44.7739   54.7806   33.9830 C   0  0  0  0  0  0  0  0  0  0  0  0
   43.6847   54.0644   34.1832 N   0  0  0  0  0  0  0  0  0  0  0  0
   43.6654   56.6676   32.7724 N   0  0  0  0  0  0  0  0  0  0  0  0
   44.1512   57.8098   32.2240 C   0  0  0  0  0  0  0  0  0  0  0  0
   45.5108   57.8622   32.4407 N   0  0  0  0  0  0  0  0  0  0  0  0
  2  1  1  1  0  0  0
  2  3  1  0  0  0  0
  2  5  1  0  0  0  0
  3  4  1  0  0  0  0
  3 16  1  0  0  0  0
  5  6  1  0  0  0  0
  6  7  1  0  0  0  0
  7  8  1  0  0  0  0
  9  8  1  6  0  0  0
  9 10  1  0  0  0  0
  9 11  1  0  0  0  0
 10 15  1  0  0  0  0
 11 12  1  6  0  0  0
 11 13  1  0  0  0  0
 13 14  1  6  0  0  0
 13 15  1  0  0  0  0
 15 26  1  1  0  0  0
 17 18  2  0  0  0  0
 17 22  1  0  0  0  0
 18 19  1  0  0  0  0
 19 20  2  0  0  0  0
 20 21  1  0  0  0  0
 20 26  1  0  0  0  0
 21 22  2  0  0  0  0
 21 24  1  0  0  0  0
 22 23  1  0  0  0  0
 24 25  2  0  0  0  0
 25 26  1  0  0  0  0
M  END
>  <CHROM.1>
-22.69281746,-63.87516502,175.09973204,-86.23046220,-95.62055843,63.89485443
106.78942648,46.49297028,56.54063542,30.90658583,1.68799132,-0.99126625,-2.00175115

>  <Name>
ligand

>  <RI>
0

>  <Rbt.Current_Directory>
/home/itssahil/PROJECTS/Mol_Feturizer/New_Systems/rnas/3GX3

>  <Rbt.Executable>
rbdock ($Id: //depot/dev/client3/rdock/2013.1/src/exe/rbdock.cxx#4 $)

>  <Rbt.Library>
libRbt.so (2013.1, Build901 2013/11/27)

>  <Rbt.Parameter_File>
/export/apps/rDock/src/rDock_2013.1_src/data/scripts/dock_solv.prm

>  <Rbt.Receptor>
prm/pocket_docking_7.prm

>  <SCORE>
-15.5677

>  <SCORE.INTER>
-13.343

>  <SCORE.INTER.CONST>
1

>  <SCORE.INTER.POLAR>
0

>  <SCORE.INTER.ROT>
7

>  <SCORE.INTER.SOLV>
12.4788

>  <SCORE.INTER.VDW>
-21.3216

>  <SCORE.INTER.norm>
-0.513193

>  <SCORE.INTRA>
-2.22464

>  <SCORE.INTRA.DIHEDRAL>
-0.187875

>  <SCORE.INTRA.DIHEDRAL.0>
5.78979

>  <SCORE.INTRA.POLAR>
0

>  <SCORE.INTRA.POLAR.0>
0

>  <SCORE.INTRA.REPUL>
0

>  <SCORE.INTRA.REPUL.0>
0

>  <SCORE.INTRA.SOLV>
-0.261757

>  <SCORE.INTRA.SOLV.lig_0>
-49.9151

>  <SCORE.INTRA.VDW>
-1.99983

>  <SCORE.INTRA.VDW.0>
-0.211125

>  <SCORE.INTRA.norm>
-0.0855632

>  <SCORE.RESTR>
0

>  <SCORE.RESTR.CAVITY>
0

>  <SCORE.RESTR.norm>
0

>  <SCORE.SYSTEM>
0

>  <SCORE.SYSTEM.CONST>
0

>  <SCORE.SYSTEM.DIHEDRAL>
0

>  <SCORE.SYSTEM.SOLV>
0

>  <SCORE.SYSTEM.norm>
0

>  <SCORE.heavy>
26

>  <SCORE.norm>
-0.598756

>  <RMSD>
4.801

$$$$
ligand
 OpenBabel11021811483D
libRbt.so/2013.1/901 2013/11/27
 26 28  0  0  0  0  0  0  0  0999 V2000
   49.9377   52.1745   28.3222 N   0  0  0  0  0  0  0  0  0  0  0  0
   49.8144   53.5512   28.8094 C   0  0  2  0  0  0  0  0  0  0  0  0
   50.9607   54.4719   28.3851 C   0  0  0  0  0  0  0  0  0  0  0  0
   50.7141   55.6663   28.2154 O   0  0  0  0  0  0  0  0  0  0  0  0
   49.6740   53.6886   30.3309 C   0  0  0  0  0  0  0  0  0  0  0  0
   49.3860   55.0344   30.9734 C   0  0  0  0  0  0  0  0  0  0  0  0
   47.8006   55.5924   30.3080 S   0  0  0  0  0  0  0  0  0  0  0  0
   48.6594   57.1008   29.7997 C   0  0  0  0  0  0  0  0  0  0  0  0
   48.2610   58.3533   30.5875 C   0  0  1  0  0  0  0  0  0  0  0  0
   46.8442   58.5528   30.6519 O   0  0  0  0  0  0  0  0  0  0  0  0
   48.7680   58.2759   32.0203 C   0  0  1  0  0  0  0  0  0  0  0  0
   50.0351   58.8816   32.1510 O   0  0  0  0  0  0  0  0  0  0  0  0
   47.6866   58.9611   32.8456 C   0  0  1  0  0  0  0  0  0  0  0  0
   47.9482   60.3408   33.0054 O   0  0  0  0  0  0  0  0  0  0  0  0
   46.4456   58.8223   31.9860 C   0  0  2  0  0  0  0  0  0  0  0  0
   52.1199   54.0715   28.2208 O   0  0  0  0  0  0  0  0  0  0  0  0
   46.0242   54.2603   34.5605 N   0  0  0  0  0  0  0  0  0  0  0  0
   47.1630   54.9653   34.2628 C   0  0  0  0  0  0  0  0  0  0  0  0
   47.0756   56.1463   33.5560 N   0  0  0  0  0  0  0  0  0  0  0  0
   45.8846   56.6446   33.1794 C   0  0  0  0  0  0  0  0  0  0  0  0
   44.7235   55.9494   33.4716 C   0  0  0  0  0  0  0  0  0  0  0  0
   44.8086   54.7559   34.1606 C   0  0  0  0  0  0  0  0  0  0  0  0
   43.7144   54.0833   34.4603 N   0  0  0  0  0  0  0  0  0  0  0  0
   43.6747   56.6524   32.9889 N   0  0  0  0  0  0  0  0  0  0  0  0
   44.1552   57.7639   32.3765 C   0  0  0  0  0  0  0  0  0  0  0  0
   45.5283   57.7735   32.4889 N   0  0  0  0  0  0  0  0  0  0  0  0
  2  1  1  1  0  0  0
  2  3  1  0  0  0  0
  2  5  1  0  0  0  0
  3  4  1  0  0  0  0
  3 16  1  0  0  0  0
  5  6  1  0  0  0  0
  6  7  1  0  0  0  0
  7  8  1  0  0  0  0
  9  8  1  6  0  0  0
  9 10  1  0  0  0  0
  9 11  1  0  0  0  0
 10 15  1  0  0  0  0
 11 12  1  6  0  0  0
 11 13  1  0  0  0  0
 13 14  1  6  0  0  0
 13 15  1  0  0  0  0
 15 26  1  1  0  0  0
 17 18  2  0  0  0  0
 17 22  1  0  0  0  0
 18 19  1  0  0  0  0
 19 20  2  0  0  0  0
 20 21  1  0  0  0  0
 20 26  1  0  0  0  0
 21 22  2  0  0  0  0
 21 24  1  0  0  0  0
 22 23  1  0  0  0  0
 24 25  2  0  0  0  0
 25 26  1  0  0  0  0
M  END
>  <CHROM.1>
148.92598486,-173.27973133,60.54647318,-124.76084890,-110.21681244,-50.76155047
92.39608568,47.70315798,56.25076073,31.49787675,0.41726596,-0.68511489,-3.00426260

>  <Name>
ligand

>  <RI>
0

>  <Rbt.Current_Directory>
/home/itssahil/PROJECTS/Mol_Feturizer/New_Systems/rnas/3GX3

>  <Rbt.Executable>
rbdock ($Id: //depot/dev/client3/rdock/2013.1/src/exe/rbdock.cxx#4 $)

>  <Rbt.Library>
libRbt.so (2013.1, Build901 2013/11/27)

>  <Rbt.Parameter_File>
/export/apps/rDock/src/rDock_2013.1_src/data/scripts/dock_solv.prm

>  <Rbt.Receptor>
prm/pocket_docking_8.prm

>  <SCORE>
-15.2993

>  <SCORE.INTER>
-11.9459

>  <SCORE.INTER.CONST>
1

>  <SCORE.INTER.POLAR>
0

>  <SCORE.INTER.ROT>
7

>  <SCORE.INTER.SOLV>
13.6527

>  <SCORE.INTER.VDW>
-20.7815

>  <SCORE.INTER.norm>
-0.459457

>  <SCORE.INTRA>
-3.35337

>  <SCORE.INTRA.DIHEDRAL>
2.10034

>  <SCORE.INTRA.DIHEDRAL.0>
5.78979

>  <SCORE.INTRA.POLAR>
0

>  <SCORE.INTRA.POLAR.0>
0

>  <SCORE.INTRA.REPUL>
0

>  <SCORE.INTRA.REPUL.0>
0

>  <SCORE.INTRA.SOLV>
-0.513819

>  <SCORE.INTRA.SOLV.lig_0>
-49.9151

>  <SCORE.INTRA.VDW>
-4.14663

>  <SCORE.INTRA.VDW.0>
-0.211125

>  <SCORE.INTRA.norm>
-0.128976

>  <SCORE.RESTR>
0

>  <SCORE.RESTR.CAVITY>
0

>  <SCORE.RESTR.norm>
0

>  <SCORE.SYSTEM>
0

>  <SCORE.SYSTEM.CONST>
0

>  <SCORE.SYSTEM.DIHEDRAL>
0

>  <SCORE.SYSTEM.SOLV>
0

>  <SCORE.SYSTEM.norm>
0

>  <SCORE.heavy>
26

>  <SCORE.norm>
-0.588433

>  <RMSD>
4.804

$$$$
ligand
 OpenBabel11021811483D
libRbt.so/2013.1/901 2013/11/27
 26 28  0  0  0  0  0  0  0  0999 V2000
   48.1285   55.0860   27.9849 N   0  0  0  0  0  0  0  0  0  0  0  0
   47.4747   55.1974   26.6780 C   0  0  2  0  0  0  0  0  0  0  0  0
   47.9739   54.1910   25.6389 C   0  0  0  0  0  0  0  0  0  0  0  0
   47.9529   54.5218   24.4530 O   0  0  0  0  0  0  0  0  0  0  0  0
   47.5587   56.5849   26.0290 C   0  0  0  0  0  0  0  0  0  0  0  0
   47.0654   57.8227   26.7579 C   0  0  0  0  0  0  0  0  0  0  0  0
   48.2834   58.1807   28.0447 S   0  0  0  0  0  0  0  0  0  0  0  0
   46.8818   58.4404   29.1580 C   0  0  0  0  0  0  0  0  0  0  0  0
   47.2632   58.9698   30.5445 C   0  0  1  0  0  0  0  0  0  0  0  0
   46.1435   59.0942   31.4288 O   0  0  0  0  0  0  0  0  0  0  0  0
   48.2668   58.0463   31.2196 C   0  0  1  0  0  0  0  0  0  0  0  0
   49.5931   58.4490   30.9584 O   0  0  0  0  0  0  0  0  0  0  0  0
   47.9023   58.1014   32.6975 C   0  0  1  0  0  0  0  0  0  0  0  0
   48.6261   59.1080   33.3761 O   0  0  0  0  0  0  0  0  0  0  0  0
   46.4424   58.5097   32.6860 C   0  0  2  0  0  0  0  0  0  0  0  0
   48.4082   53.0723   25.9400 O   0  0  0  0  0  0  0  0  0  0  0  0
   46.0065   53.6881   34.7305 N   0  0  0  0  0  0  0  0  0  0  0  0
   47.1275   54.4740   34.6403 C   0  0  0  0  0  0  0  0  0  0  0  0
   47.0500   55.7171   34.0480 N   0  0  0  0  0  0  0  0  0  0  0  0
   45.8814   56.1945   33.5844 C   0  0  0  0  0  0  0  0  0  0  0  0
   44.7383   55.4179   33.6674 C   0  0  0  0  0  0  0  0  0  0  0  0
   44.8162   54.1643   34.2407 C   0  0  0  0  0  0  0  0  0  0  0  0
   43.7373   53.4123   34.3414 N   0  0  0  0  0  0  0  0  0  0  0  0
   43.7105   56.1166   33.1359 N   0  0  0  0  0  0  0  0  0  0  0  0
   44.1897   57.3079   32.6971 C   0  0  0  0  0  0  0  0  0  0  0  0
   45.5384   57.3713   32.9713 N   0  0  0  0  0  0  0  0  0  0  0  0
  2  1  1  1  0  0  0
  2  3  1  0  0  0  0
  2  5  1  0  0  0  0
  3  4  1  0  0  0  0
  3 16  1  0  0  0  0
  5  6  1  0  0  0  0
  6  7  1  0  0  0  0
  7  8  1  0  0  0  0
  9  8  1  6  0  0  0
  9 10  1  0  0  0  0
  9 11  1  0  0  0  0
 10 15  1  0  0  0  0
 11 12  1  1  0  0  0
 11 13  1  0  0  0  0
 13 14  1  1  0  0  0
 13 15  1  0  0  0  0
 15 26  1  6  0  0  0
 17 18  2  0  0  0  0
 17 22  1  0  0  0  0
 18 19  1  0  0  0  0
 19 20  2  0  0  0  0
 20 21  1  0  0  0  0
 20 26  1  0  0  0  0
 21 22  2  0  0  0  0
 21 24  1  0  0  0  0
 22 23  1  0  0  0  0
 24 25  2  0  0  0  0
 25 26  1  0  0  0  0
M  END
>  <CHROM.1>
-149.56784266,-55.60139280,73.60224629,-135.25523070,-173.51958216,-176.67878815
141.77660841,46.92912611,56.54649101,30.60612378,0.82460363,-1.12037735,-2.28318530

>  <Name>
ligand

>  <RI>
0

>  <Rbt.Current_Directory>
/home/itssahil/PROJECTS/Mol_Feturizer/New_Systems/rnas/3GX3

>  <Rbt.Executable>
rbdock ($Id: //depot/dev/client3/rdock/2013.1/src/exe/rbdock.cxx#4 $)

>  <Rbt.Library>
libRbt.so (2013.1, Build901 2013/11/27)

>  <Rbt.Parameter_File>
/export/apps/rDock/src/rDock_2013.1_src/data/scripts/dock_solv.prm

>  <Rbt.Receptor>
prm/pocket_docking_4.prm

>  <SCORE>
-12.2699

>  <SCORE.INTER>
-12.5484

>  <SCORE.INTER.CONST>
1

>  <SCORE.INTER.POLAR>
0

>  <SCORE.INTER.ROT>
7

>  <SCORE.INTER.SOLV>
11.1451

>  <SCORE.INTER.VDW>
-20.3473

>  <SCORE.INTER.norm>
-0.482631

>  <SCORE.INTRA>
0.278489

>  <SCORE.INTRA.DIHEDRAL>
-0.117918

>  <SCORE.INTRA.DIHEDRAL.0>
5.78979

>  <SCORE.INTRA.POLAR>
0

>  <SCORE.INTRA.POLAR.0>
0

>  <SCORE.INTRA.REPUL>
0

>  <SCORE.INTRA.REPUL.0>
0

>  <SCORE.INTRA.SOLV>
1.69837

>  <SCORE.INTRA.SOLV.lig_0>
-49.9151

>  <SCORE.INTRA.VDW>
-0.511735

>  <SCORE.INTRA.VDW.0>
-0.211125

>  <SCORE.INTRA.norm>
0.0107111

>  <SCORE.RESTR>
0

>  <SCORE.RESTR.CAVITY>
0

>  <SCORE.RESTR.norm>
0

>  <SCORE.SYSTEM>
0

>  <SCORE.SYSTEM.CONST>
0

>  <SCORE.SYSTEM.DIHEDRAL>
0

>  <SCORE.SYSTEM.SOLV>
0

>  <SCORE.SYSTEM.norm>
0

>  <SCORE.heavy>
26

>  <SCORE.norm>
-0.47192

>  <RMSD>
4.808

$$$$
ligand
 OpenBabel11021811483D
libRbt.so/2013.1/901 2013/11/27
 26 28  0  0  0  0  0  0  0  0999 V2000
   48.0199   55.2319   24.7415 N   0  0  0  0  0  0  0  0  0  0  0  0
   47.8907   55.6121   26.1510 C   0  0  2  0  0  0  0  0  0  0  0  0
   46.7752   56.6221   26.4288 C   0  0  0  0  0  0  0  0  0  0  0  0
   45.8228   56.2603   27.1203 O   0  0  0  0  0  0  0  0  0  0  0  0
   49.1678   56.1739   26.7889 C   0  0  0  0  0  0  0  0  0  0  0  0
   49.2658   56.3889   28.2892 C   0  0  0  0  0  0  0  0  0  0  0  0
   48.2778   57.8557   28.6635 S   0  0  0  0  0  0  0  0  0  0  0  0
   47.2180   56.7674   29.6452 C   0  0  0  0  0  0  0  0  0  0  0  0
   45.9991   57.4596   30.2645 C   0  0  1  0  0  0  0  0  0  0  0  0
   45.0697   56.5440   30.8554 O   0  0  0  0  0  0  0  0  0  0  0  0
   46.4246   58.4322   31.3549 C   0  0  1  0  0  0  0  0  0  0  0  0
   46.6091   59.7326   30.8410 O   0  0  0  0  0  0  0  0  0  0  0  0
   45.3148   58.3492   32.3949 C   0  0  1  0  0  0  0  0  0  0  0  0
   44.3081   59.3133   32.1615 O   0  0  0  0  0  0  0  0  0  0  0  0
   44.7085   56.9804   32.1556 C   0  0  2  0  0  0  0  0  0  0  0  0
   46.7975   57.7835   26.0025 O   0  0  0  0  0  0  0  0  0  0  0  0
   48.6937   55.0159   34.9622 N   0  0  0  0  0  0  0  0  0  0  0  0
   48.7295   56.0099   34.0171 C   0  0  0  0  0  0  0  0  0  0  0  0
   47.5720   56.3816   33.3660 N   0  0  0  0  0  0  0  0  0  0  0  0
   46.3919   55.8103   33.6651 C   0  0  0  0  0  0  0  0  0  0  0  0
   46.3340   54.8066   34.6170 C   0  0  0  0  0  0  0  0  0  0  0  0
   47.4943   54.4169   35.2559 C   0  0  0  0  0  0  0  0  0  0  0  0
   47.4605   53.4714   36.1748 N   0  0  0  0  0  0  0  0  0  0  0  0
   45.0493   54.4016   34.7297 N   0  0  0  0  0  0  0  0  0  0  0  0
   44.3016   55.1136   33.8492 C   0  0  0  0  0  0  0  0  0  0  0  0
   45.1230   55.9952   33.1813 N   0  0  0  0  0  0  0  0  0  0  0  0
  2  1  1  6  0  0  0
  2  3  1  0  0  0  0
  2  5  1  0  0  0  0
  3  4  1  0  0  0  0
  3 16  1  0  0  0  0
  5  6  1  0  0  0  0
  6  7  1  0  0  0  0
  7  8  1  0  0  0  0
  9  8  1  1  0  0  0
  9 10  1  0  0  0  0
  9 11  1  0  0  0  0
 10 15  1  0  0  0  0
 11 12  1  6  0  0  0
 11 13  1  0  0  0  0
 13 14  1  6  0  0  0
 13 15  1  0  0  0  0
 15 26  1  1  0  0  0
 17 18  2  0  0  0  0
 17 22  1  0  0  0  0
 18 19  1  0  0  0  0
 19 20  2  0  0  0  0
 20 21  1  0  0  0  0
 20 26  1  0  0  0  0
 21 22  2  0  0  0  0
 21 24  1  0  0  0  0
 22 23  1  0  0  0  0
 24 25  2  0  0  0  0
 25 26  1  0  0  0  0
M  END
>  <CHROM.1>
114.90042673,-169.42982625,-74.57333890,116.62677045,-177.15181031,170.72374764
77.19044980,46.78255454,56.54749460,30.85130600,-1.35886064,-0.78753176,1.90177346

>  <Name>
ligand

>  <RI>
0

>  <Rbt.Current_Directory>
/home/itssahil/PROJECTS/Mol_Feturizer/New_Systems/rnas/3GX3

>  <Rbt.Executable>
rbdock ($Id: //depot/dev/client3/rdock/2013.1/src/exe/rbdock.cxx#4 $)

>  <Rbt.Library>
libRbt.so (2013.1, Build901 2013/11/27)

>  <Rbt.Parameter_File>
/export/apps/rDock/src/rDock_2013.1_src/data/scripts/dock_solv.prm

>  <Rbt.Receptor>
prm/pocket_docking_5.prm

>  <SCORE>
-13.0693

>  <SCORE.INTER>
-10.2029

>  <SCORE.INTER.CONST>
1

>  <SCORE.INTER.POLAR>
0

>  <SCORE.INTER.ROT>
7

>  <SCORE.INTER.SOLV>
13.4926

>  <SCORE.INTER.VDW>
-19.5661

>  <SCORE.INTER.norm>
-0.392421

>  <SCORE.INTRA>
-2.86639

>  <SCORE.INTRA.DIHEDRAL>
0.912426

>  <SCORE.INTRA.DIHEDRAL.0>
5.78979

>  <SCORE.INTRA.POLAR>
0

>  <SCORE.INTRA.POLAR.0>
0

>  <SCORE.INTRA.REPUL>
0

>  <SCORE.INTRA.REPUL.0>
0

>  <SCORE.INTRA.SOLV>
-0.707232

>  <SCORE.INTRA.SOLV.lig_0>
-49.9151

>  <SCORE.INTRA.VDW>
-2.96899

>  <SCORE.INTRA.VDW.0>
-0.211125

>  <SCORE.INTRA.norm>
-0.110246

>  <SCORE.RESTR>
0

>  <SCORE.RESTR.CAVITY>
0

>  <SCORE.RESTR.norm>
0

>  <SCORE.SYSTEM>
0

>  <SCORE.SYSTEM.CONST>
0

>  <SCORE.SYSTEM.DIHEDRAL>
0

>  <SCORE.SYSTEM.SOLV>
0

>  <SCORE.SYSTEM.norm>
0

>  <SCORE.heavy>
26

>  <SCORE.norm>
-0.502666

>  <RMSD>
4.811

$$$$
ligand
 OpenBabel11021811483D
libRbt.so/2013.1/901 2013/11/27
 26 28  0  0  0  0  0  0  0  0999 V2000
   49.0861   54.3722   32.0149 N   0  0  0  0  0  0  0  0  0  0  0  0
   49.1995   53.6399   30.7505 C   0  0  2  0  0  0  0  0  0  0  0  0
   50.1014   54.3135   29.7139 C   0  0  0  0  0  0  0  0  0  0  0  0
   50.8529   53.6014   29.0474 O   0  0  0  0  0  0  0  0  0  0  0  0
   47.8656   53.3431   30.0531 C   0  0  0  0  0  0  0  0  0  0  0  0
   46.9167   54.4640   29.6662 C   0  0  0  0  0  0  0  0  0  0  0  0
   45.9262   54.8280   31.1339 S   0  0  0  0  0  0  0  0  0  0  0  0
   45.0401   56.0303   30.1139 C   0  0  0  0  0  0  0  0  0  0  0  0
   45.2965   57.4932   30.4914 C   0  0  1  0  0  0  0  0  0  0  0  0
   45.4107   57.7000   31.9040 O   0  0  0  0  0  0  0  0  0  0  0  0
   46.5856   57.9977   29.8592 C   0  0  1  0  0  0  0  0  0  0  0  0
   46.3422   58.6065   28.6104 O   0  0  0  0  0  0  0  0  0  0  0  0
   47.1678   58.9550   30.8910 C   0  0  1  0  0  0  0  0  0  0  0  0
   46.7379   60.2833   30.6711 O   0  0  0  0  0  0  0  0  0  0  0  0
   46.5577   58.4815   32.1955 C   0  0  2  0  0  0  0  0  0  0  0  0
   50.0963   55.5337   29.5090 O   0  0  0  0  0  0  0  0  0  0  0  0
   47.3954   54.1509   35.0524 N   0  0  0  0  0  0  0  0  0  0  0  0
   46.2514   54.5259   34.3942 C   0  0  0  0  0  0  0  0  0  0  0  0
   46.2148   55.7196   33.7044 N   0  0  0  0  0  0  0  0  0  0  0  0
   47.2971   56.5146   33.6328 C   0  0  0  0  0  0  0  0  0  0  0  0
   48.4617   56.1535   34.2886 C   0  0  0  0  0  0  0  0  0  0  0  0
   48.4957   54.9693   34.9978 C   0  0  0  0  0  0  0  0  0  0  0  0
   49.5984   54.5997   35.6198 N   0  0  0  0  0  0  0  0  0  0  0  0
   49.3894   57.1108   34.0649 N   0  0  0  0  0  0  0  0  0  0  0  0
   48.8233   58.0797   33.3019 C   0  0  0  0  0  0  0  0  0  0  0  0
   47.5225   57.7214   33.0237 N   0  0  0  0  0  0  0  0  0  0  0  0
  2  1  1  1  0  0  0
  2  3  1  0  0  0  0
  2  5  1  0  0  0  0
  3  4  1  0  0  0  0
  3 16  1  0  0  0  0
  5  6  1  0  0  0  0
  6  7  1  0  0  0  0
  7  8  1  0  0  0  0
  9  8  1  1  0  0  0
  9 10  1  0  0  0  0
  9 11  1  0  0  0  0
 10 15  1  0  0  0  0
 11 12  1  6  0  0  0
 11 13  1  0  0  0  0
 13 14  1  6  0  0  0
 13 15  1  0  0  0  0
 15 26  1  6  0  0  0
 17 18  2  0  0  0  0
 17 22  1  0  0  0  0
 18 19  1  0  0  0  0
 19 20  2  0  0  0  0
 20 21  1  0  0  0  0
 20 26  1  0  0  0  0
 21 22  2  0  0  0  0
 21 24  1  0  0  0  0
 22 23  1  0  0  0  0
 24 25  2  0  0  0  0
 25 26  1  0  0  0  0
M  END
>  <CHROM.1>
139.31209414,57.69319623,-84.52404737,-177.25817164,-110.84959319,-37.66417584
-10.09889370,47.55355525,56.08318130,31.75161886,-0.54232659,0.97663348,-1.58868100

>  <Name>
ligand

>  <RI>
0

>  <Rbt.Current_Directory>
/home/itssahil/PROJECTS/Mol_Feturizer/New_Systems/rnas/3GX3

>  <Rbt.Executable>
rbdock ($Id: //depot/dev/client3/rdock/2013.1/src/exe/rbdock.cxx#4 $)

>  <Rbt.Library>
libRbt.so (2013.1, Build901 2013/11/27)

>  <Rbt.Parameter_File>
/export/apps/rDock/src/rDock_2013.1_src/data/scripts/dock_solv.prm

>  <Rbt.Receptor>
prm/pocket_docking_2.prm

>  <SCORE>
-4.10916

>  <SCORE.INTER>
-5.06206

>  <SCORE.INTER.CONST>
1

>  <SCORE.INTER.POLAR>
0

>  <SCORE.INTER.ROT>
7

>  <SCORE.INTER.SOLV>
17.8145

>  <SCORE.INTER.VDW>
-17.5796

>  <SCORE.INTER.norm>
-0.194695

>  <SCORE.INTRA>
-0.735283

>  <SCORE.INTRA.DIHEDRAL>
2.91905

>  <SCORE.INTRA.DIHEDRAL.0>
5.78979

>  <SCORE.INTRA.POLAR>
0

>  <SCORE.INTRA.POLAR.0>
0

>  <SCORE.INTRA.REPUL>
0

>  <SCORE.INTRA.REPUL.0>
0

>  <SCORE.INTRA.SOLV>
4.5694

>  <SCORE.INTRA.SOLV.lig_0>
-49.9151

>  <SCORE.INTRA.VDW>
-4.47951

>  <SCORE.INTRA.VDW.0>
-0.211125

>  <SCORE.INTRA.norm>
-0.0282801

>  <SCORE.RESTR>
1.68818

>  <SCORE.RESTR.CAVITY>
1.68818

>  <SCORE.RESTR.norm>
0.0649302

>  <SCORE.SYSTEM>
0

>  <SCORE.SYSTEM.CONST>
0

>  <SCORE.SYSTEM.DIHEDRAL>
0

>  <SCORE.SYSTEM.SOLV>
0

>  <SCORE.SYSTEM.norm>
0

>  <SCORE.heavy>
26

>  <SCORE.norm>
-0.158045

>  <RMSD>
4.822

$$$$
ligand
 OpenBabel11021811483D
libRbt.so/2013.1/901 2013/11/27
 26 28  0  0  0  0  0  0  0  0999 V2000
   45.9321   59.5160   31.8009 N   0  0  0  0  0  0  0  0  0  0  0  0
   46.9425   59.5957   30.7424 C   0  0  2  0  0  0  0  0  0  0  0  0
   46.8273   58.4993   29.6811 C   0  0  0  0  0  0  0  0  0  0  0  0
   46.0891   57.5415   29.9130 O   0  0  0  0  0  0  0  0  0  0  0  0
   48.3958   59.5875   31.2337 C   0  0  0  0  0  0  0  0  0  0  0  0
   49.0396   58.3153   31.7568 C   0  0  0  0  0  0  0  0  0  0  0  0
   49.2419   58.5374   33.5393 S   0  0  0  0  0  0  0  0  0  0  0  0
   49.5223   56.7527   33.6278 C   0  0  0  0  0  0  0  0  0  0  0  0
   48.2718   55.9301   33.9561 C   0  0  1  0  0  0  0  0  0  0  0  0
   47.3683   55.8113   32.8513 O   0  0  0  0  0  0  0  0  0  0  0  0
   48.6485   54.5181   34.3806 C   0  0  1  0  0  0  0  0  0  0  0  0
   48.7930   54.4231   35.7804 O   0  0  0  0  0  0  0  0  0  0  0  0
   47.5293   53.6429   33.8315 C   0  0  1  0  0  0  0  0  0  0  0  0
   46.4919   53.4695   34.7756 O   0  0  0  0  0  0  0  0  0  0  0  0
   46.9753   54.4593   32.6805 C   0  0  2  0  0  0  0  0  0  0  0  0
   47.4295   58.5423   28.6010 O   0  0  0  0  0  0  0  0  0  0  0  0
   50.3297   54.9992   28.6712 N   0  0  0  0  0  0  0  0  0  0  0  0
   50.2345   55.7624   29.8074 C   0  0  0  0  0  0  0  0  0  0  0  0
   49.2684   55.4762   30.7491 N   0  0  0  0  0  0  0  0  0  0  0  0
   48.4329   54.4340   30.5933 C   0  0  0  0  0  0  0  0  0  0  0  0
   48.5137   53.6504   29.4548 C   0  0  0  0  0  0  0  0  0  0  0  0
   49.4657   53.9467   28.4997 C   0  0  0  0  0  0  0  0  0  0  0  0
   49.5687   53.2061   27.4132 N   0  0  0  0  0  0  0  0  0  0  0  0
   47.5744   52.6820   29.5381 N   0  0  0  0  0  0  0  0  0  0  0  0
   46.8873   52.8562   30.6952 C   0  0  0  0  0  0  0  0  0  0  0  0
   47.4117   53.9412   31.3631 N   0  0  0  0  0  0  0  0  0  0  0  0
  2  1  1  1  0  0  0
  2  3  1  0  0  0  0
  2  5  1  0  0  0  0
  3  4  1  0  0  0  0
  3 16  1  0  0  0  0
  5  6  1  0  0  0  0
  6  7  1  0  0  0  0
  7  8  1  0  0  0  0
  9  8  1  6  0  0  0
  9 10  1  0  0  0  0
  9 11  1  0  0  0  0
 10 15  1  0  0  0  0
 11 12  1  1  0  0  0
 11 13  1  0  0  0  0
 13 14  1  1  0  0  0
 13 15  1  0  0  0  0
 15 26  1  6  0  0  0
 17 18  2  0  0  0  0
 17 22  1  0  0  0  0
 18 19  1  0  0  0  0
 19 20  2  0  0  0  0
 20 21  1  0  0  0  0
 20 26  1  0  0  0  0
 21 22  2  0  0  0  0
 21 24  1  0  0  0  0
 22 23  1  0  0  0  0
 24 25  2  0  0  0  0
 25 26  1  0  0  0  0
M  END
>  <CHROM.1>
-12.47880697,73.56779637,-109.52818148,165.05334428,-94.85327955,74.98694411
22.44064845,48.15015947,55.94225582,31.54067594,-2.75905966,-1.46536329,2.32407538

>  <Name>
ligand

>  <RI>
0

>  <Rbt.Current_Directory>
/home/itssahil/PROJECTS/Mol_Feturizer/New_Systems/rnas/3GX3

>  <Rbt.Executable>
rbdock ($Id: //depot/dev/client3/rdock/2013.1/src/exe/rbdock.cxx#4 $)

>  <Rbt.Library>
libRbt.so (2013.1, Build901 2013/11/27)

>  <Rbt.Parameter_File>
/export/apps/rDock/src/rDock_2013.1_src/data/scripts/dock_solv.prm

>  <Rbt.Receptor>
prm/pocket_docking_3.prm

>  <SCORE>
-16.346

>  <SCORE.INTER>
-15.0104

>  <SCORE.INTER.CONST>
1

>  <SCORE.INTER.POLAR>
0

>  <SCORE.INTER.ROT>
7

>  <SCORE.INTER.SOLV>
9.60466

>  <SCORE.INTER.VDW>
-21.4752

>  <SCORE.INTER.norm>
-0.577324

>  <SCORE.INTRA>
-1.33561

>  <SCORE.INTRA.DIHEDRAL>
5.35858

>  <SCORE.INTRA.DIHEDRAL.0>
5.78979

>  <SCORE.INTRA.POLAR>
0

>  <SCORE.INTRA.POLAR.0>
0

>  <SCORE.INTRA.REPUL>
0

>  <SCORE.INTRA.REPUL.0>
0

>  <SCORE.INTRA.SOLV>
0.291556

>  <SCORE.INTRA.SOLV.lig_0>
-49.9151

>  <SCORE.INTRA.VDW>
-4.16068

>  <SCORE.INTRA.VDW.0>
-0.211125

>  <SCORE.INTRA.norm>
-0.0513694

>  <SCORE.RESTR>
0

>  <SCORE.RESTR.CAVITY>
0

>  <SCORE.RESTR.norm>
0

>  <SCORE.SYSTEM>
0

>  <SCORE.SYSTEM.CONST>
0

>  <SCORE.SYSTEM.DIHEDRAL>
0

>  <SCORE.SYSTEM.SOLV>
0

>  <SCORE.SYSTEM.norm>
0

>  <SCORE.heavy>
26

>  <SCORE.norm>
-0.628693

>  <RMSD>
4.829

$$$$
ligand
 OpenBabel11021811483D
libRbt.so/2013.1/901 2013/11/27
 26 28  0  0  0  0  0  0  0  0999 V2000
   50.4898   53.7587   26.3840 N   0  0  0  0  0  0  0  0  0  0  0  0
   50.9022   54.7076   27.4219 C   0  0  2  0  0  0  0  0  0  0  0  0
   50.8453   54.1458   28.8442 C   0  0  0  0  0  0  0  0  0  0  0  0
   51.6053   53.2216   29.1346 O   0  0  0  0  0  0  0  0  0  0  0  0
   50.1247   56.0300   27.4350 C   0  0  0  0  0  0  0  0  0  0  0  0
   48.6070   56.0468   27.4906 C   0  0  0  0  0  0  0  0  0  0  0  0
   48.1222   57.7656   27.7702 S   0  0  0  0  0  0  0  0  0  0  0  0
   48.4955   57.4810   29.5170 C   0  0  0  0  0  0  0  0  0  0  0  0
   48.1488   58.6551   30.4388 C   0  0  1  0  0  0  0  0  0  0  0  0
   46.7390   58.8569   30.5898 O   0  0  0  0  0  0  0  0  0  0  0  0
   48.7220   58.4376   31.8316 C   0  0  1  0  0  0  0  0  0  0  0  0
   50.0005   59.0196   31.9584 O   0  0  0  0  0  0  0  0  0  0  0  0
   47.6885   59.0479   32.7694 C   0  0  1  0  0  0  0  0  0  0  0  0
   47.9728   60.4043   33.0472 O   0  0  0  0  0  0  0  0  0  0  0  0
   46.4068   59.0003   31.9612 C   0  0  2  0  0  0  0  0  0  0  0  0
   50.0829   54.5884   29.7124 O   0  0  0  0  0  0  0  0  0  0  0  0
   46.0249   54.3653   34.4085 N   0  0  0  0  0  0  0  0  0  0  0  0
   47.1530   55.1087   34.1690 C   0  0  0  0  0  0  0  0  0  0  0  0
   47.0570   56.3042   33.4881 N   0  0  0  0  0  0  0  0  0  0  0  0
   45.8663   56.7787   33.0810 C   0  0  0  0  0  0  0  0  0  0  0  0
   44.7159   56.0447   33.3144 C   0  0  0  0  0  0  0  0  0  0  0  0
   44.8105   54.8371   33.9772 C   0  0  0  0  0  0  0  0  0  0  0  0
   43.7261   54.1272   34.2212 N   0  0  0  0  0  0  0  0  0  0  0  0
   43.6651   56.7303   32.8114 N   0  0  0  0  0  0  0  0  0  0  0  0
   44.1351   57.8697   32.2436 C   0  0  0  0  0  0  0  0  0  0  0  0
   45.5025   57.9143   32.4055 N   0  0  0  0  0  0  0  0  0  0  0  0
  2  1  1  6  0  0  0
  2  3  1  0  0  0  0
  2  5  1  0  0  0  0
  3  4  1  0  0  0  0
  3 16  1  0  0  0  0
  5  6  1  0  0  0  0
  6  7  1  0  0  0  0
  7  8  1  0  0  0  0
  9  8  1  6  0  0  0
  9 10  1  0  0  0  0
  9 11  1  0  0  0  0
 10 15  1  0  0  0  0
 11 12  1  6  0  0  0
 11 13  1  0  0  0  0
 13 14  1  6  0  0  0
 13 15  1  0  0  0  0
 15 26  1  1  0  0  0
 17 18  2  0  0  0  0
 17 22  1  0  0  0  0
 18 19  1  0  0  0  0
 19 20  2  0  0  0  0
 20 21  1  0  0  0  0
 20 26  1  0  0  0  0
 21 22  2  0  0  0  0
 21 24  1  0  0  0  0
 22 23  1  0  0  0  0
 24 25  2  0  0  0  0
 25 26  1  0  0  0  0
M  END
>  <CHROM.1>
65.08857254,53.14584354,170.64741495,-80.57445443,-174.75789951,69.97722811
99.02066839,47.70307338,56.66688620,30.95672973,0.15476493,-0.85559971,3.07872395

>  <Name>
ligand

>  <RI>
0

>  <Rbt.Current_Directory>
/home/itssahil/PROJECTS/Mol_Feturizer/New_Systems/rnas/3GX3

>  <Rbt.Executable>
rbdock ($Id: //depot/dev/client3/rdock/2013.1/src/exe/rbdock.cxx#4 $)

>  <Rbt.Library>
libRbt.so (2013.1, Build901 2013/11/27)

>  <Rbt.Parameter_File>
/export/apps/rDock/src/rDock_2013.1_src/data/scripts/dock_solv.prm

>  <Rbt.Receptor>
prm/pocket_docking_6.prm

>  <SCORE>
-18.1186

>  <SCORE.INTER>
-16.5707

>  <SCORE.INTER.CONST>
1

>  <SCORE.INTER.POLAR>
0

>  <SCORE.INTER.ROT>
7

>  <SCORE.INTER.SOLV>
11.6801

>  <SCORE.INTER.VDW>
-23.2072

>  <SCORE.INTER.norm>
-0.637335

>  <SCORE.INTRA>
-1.5532

>  <SCORE.INTRA.DIHEDRAL>
-1.3743

>  <SCORE.INTRA.DIHEDRAL.0>
5.78979

>  <SCORE.INTRA.POLAR>
0

>  <SCORE.INTRA.POLAR.0>
0

>  <SCORE.INTRA.REPUL>
0

>  <SCORE.INTRA.REPUL.0>
0

>  <SCORE.INTRA.SOLV>
-0.514826

>  <SCORE.INTRA.SOLV.lig_0>
-49.9151

>  <SCORE.INTRA.VDW>
-0.608633

>  <SCORE.INTRA.VDW.0>
-0.211125

>  <SCORE.INTRA.norm>
-0.0597384

>  <SCORE.RESTR>
0.00529501

>  <SCORE.RESTR.CAVITY>
0.00529501

>  <SCORE.RESTR.norm>
0.000203654

>  <SCORE.SYSTEM>
0

>  <SCORE.SYSTEM.CONST>
0

>  <SCORE.SYSTEM.DIHEDRAL>
0

>  <SCORE.SYSTEM.SOLV>
0

>  <SCORE.SYSTEM.norm>
0

>  <SCORE.heavy>
26

>  <SCORE.norm>
-0.69687

>  <RMSD>
4.862

$$$$
ligand
 OpenBabel11021811483D
libRbt.so/2013.1/901 2013/11/27
 26 28  0  0  0  0  0  0  0  0999 V2000
   49.2476   54.8092   25.5091 N   0  0  0  0  0  0  0  0  0  0  0  0
   49.9989   55.3007   26.6675 C   0  0  2  0  0  0  0  0  0  0  0  0
   51.5165   55.1508   26.5408 C   0  0  0  0  0  0  0  0  0  0  0  0
   52.2280   55.7301   27.3619 O   0  0  0  0  0  0  0  0  0  0  0  0
   49.6009   54.6735   28.0099 C   0  0  0  0  0  0  0  0  0  0  0  0
   50.0596   55.2792   29.3250 C   0  0  0  0  0  0  0  0  0  0  0  0
   49.3828   54.2341   30.6355 S   0  0  0  0  0  0  0  0  0  0  0  0
   49.7415   55.5972   31.7690 C   0  0  0  0  0  0  0  0  0  0  0  0
   48.8505   56.8296   31.5805 C   0  0  1  0  0  0  0  0  0  0  0  0
   47.4916   56.5014   31.2693 O   0  0  0  0  0  0  0  0  0  0  0  0
   48.8283   57.6800   32.8423 C   0  0  1  0  0  0  0  0  0  0  0  0
   49.8209   58.6814   32.8053 O   0  0  0  0  0  0  0  0  0  0  0  0
   47.4127   58.2391   32.9012 C   0  0  1  0  0  0  0  0  0  0  0  0
   47.3201   59.4933   32.2563 O   0  0  0  0  0  0  0  0  0  0  0  0
   46.6058   57.2426   32.0924 C   0  0  2  0  0  0  0  0  0  0  0  0
   52.0539   54.4646   25.6626 O   0  0  0  0  0  0  0  0  0  0  0  0
   46.6739   53.6620   35.9385 N   0  0  0  0  0  0  0  0  0  0  0  0
   47.7374   54.3097   35.3623 C   0  0  0  0  0  0  0  0  0  0  0  0
   47.5221   55.2127   34.3424 N   0  0  0  0  0  0  0  0  0  0  0  0
   46.2782   55.5012   33.9204 C   0  0  0  0  0  0  0  0  0  0  0  0
   45.1914   54.8599   34.4899 C   0  0  0  0  0  0  0  0  0  0  0  0
   45.4045   53.9395   35.4968 C   0  0  0  0  0  0  0  0  0  0  0  0
   44.3829   53.3258   36.0620 N   0  0  0  0  0  0  0  0  0  0  0  0
   44.0677   55.3192   33.8954 N   0  0  0  0  0  0  0  0  0  0  0  0
   44.4280   56.2186   32.9453 C   0  0  0  0  0  0  0  0  0  0  0  0
   45.8000   56.3436   32.9509 N   0  0  0  0  0  0  0  0  0  0  0  0
  2  1  1  6  0  0  0
  2  3  1  0  0  0  0
  2  5  1  0  0  0  0
  3  4  1  0  0  0  0
  3 16  1  0  0  0  0
  5  6  1  0  0  0  0
  6  7  1  0  0  0  0
  7  8  1  0  0  0  0
  9  8  1  1  0  0  0
  9 10  1  0  0  0  0
  9 11  1  0  0  0  0
 10 15  1  0  0  0  0
 11 12  1  6  0  0  0
 11 13  1  0  0  0  0
 13 14  1  6  0  0  0
 13 15  1  0  0  0  0
 15 26  1  1  0  0  0
 17 18  2  0  0  0  0
 17 22  1  0  0  0  0
 18 19  1  0  0  0  0
 19 20  2  0  0  0  0
 20 21  1  0  0  0  0
 20 26  1  0  0  0  0
 21 22  2  0  0  0  0
 21 24  1  0  0  0  0
 22 23  1  0  0  0  0
 24 25  2  0  0  0  0
 25 26  1  0  0  0  0
M  END
>  <CHROM.1>
168.36216337,-166.55920135,-179.65430935,-163.70721953,69.82802232,37.92188688
62.96798420,48.13603073,55.68269029,31.50229605,0.24260554,-0.95717872,-2.86113896

>  <Name>
ligand

>  <RI>
0

>  <Rbt.Current_Directory>
/home/itssahil/PROJECTS/Mol_Feturizer/New_Systems/rnas/3GX3

>  <Rbt.Executable>
rbdock ($Id: //depot/dev/client3/rdock/2013.1/src/exe/rbdock.cxx#4 $)

>  <Rbt.Library>
libRbt.so (2013.1, Build901 2013/11/27)

>  <Rbt.Parameter_File>
/export/apps/rDock/src/rDock_2013.1_src/data/scripts/dock_solv.prm

>  <Rbt.Receptor>
prm/pocket_docking_8.prm

>  <SCORE>
-14.1464

>  <SCORE.INTER>
-11.3691

>  <SCORE.INTER.CONST>
1

>  <SCORE.INTER.POLAR>
0

>  <SCORE.INTER.ROT>
7

>  <SCORE.INTER.SOLV>
10.4138

>  <SCORE.INTER.VDW>
-19.3173

>  <SCORE.INTER.norm>
-0.437271

>  <SCORE.INTRA>
-2.77738

>  <SCORE.INTRA.DIHEDRAL>
-0.233159

>  <SCORE.INTRA.DIHEDRAL.0>
5.78979

>  <SCORE.INTRA.POLAR>
0

>  <SCORE.INTRA.POLAR.0>
0

>  <SCORE.INTRA.REPUL>
0

>  <SCORE.INTRA.REPUL.0>
0

>  <SCORE.INTRA.SOLV>
-0.931142

>  <SCORE.INTRA.SOLV.lig_0>
-49.9151

>  <SCORE.INTRA.VDW>
-2.19523

>  <SCORE.INTRA.VDW.0>
-0.211125

>  <SCORE.INTRA.norm>
-0.106822

>  <SCORE.RESTR>
0

>  <SCORE.RESTR.CAVITY>
0

>  <SCORE.RESTR.norm>
0

>  <SCORE.SYSTEM>
0

>  <SCORE.SYSTEM.CONST>
0

>  <SCORE.SYSTEM.DIHEDRAL>
0

>  <SCORE.SYSTEM.SOLV>
0

>  <SCORE.SYSTEM.norm>
0

>  <SCORE.heavy>
26

>  <SCORE.norm>
-0.544094

>  <RMSD>
4.864

$$$$
ligand
 OpenBabel11021811483D
libRbt.so/2013.1/901 2013/11/27
 26 28  0  0  0  0  0  0  0  0999 V2000
   50.6109   53.8118   26.1834 N   0  0  0  0  0  0  0  0  0  0  0  0
   51.0389   54.6336   27.3189 C   0  0  2  0  0  0  0  0  0  0  0  0
   51.0100   53.9072   28.6654 C   0  0  0  0  0  0  0  0  0  0  0  0
   52.0316   53.3277   29.0350 O   0  0  0  0  0  0  0  0  0  0  0  0
   50.2571   55.9408   27.5023 C   0  0  0  0  0  0  0  0  0  0  0  0
   48.7393   55.9455   27.5574 C   0  0  0  0  0  0  0  0  0  0  0  0
   48.2415   57.6576   27.8551 S   0  0  0  0  0  0  0  0  0  0  0  0
   48.5502   57.3364   29.6081 C   0  0  0  0  0  0  0  0  0  0  0  0
   48.2199   58.5108   30.5355 C   0  0  1  0  0  0  0  0  0  0  0  0
   46.8132   58.7370   30.6807 O   0  0  0  0  0  0  0  0  0  0  0  0
   48.7819   58.2744   31.9298 C   0  0  1  0  0  0  0  0  0  0  0  0
   50.0700   58.8324   32.0667 O   0  0  0  0  0  0  0  0  0  0  0  0
   47.7548   58.8974   32.8662 C   0  0  1  0  0  0  0  0  0  0  0  0
   48.0620   60.2466   33.1539 O   0  0  0  0  0  0  0  0  0  0  0  0
   46.4766   58.8779   32.0512 C   0  0  2  0  0  0  0  0  0  0  0  0
   50.0142   53.8904   29.3997 O   0  0  0  0  0  0  0  0  0  0  0  0
   45.9874   54.2726   34.5353 N   0  0  0  0  0  0  0  0  0  0  0  0
   47.1286   55.0022   34.3161 C   0  0  0  0  0  0  0  0  0  0  0  0
   47.0615   56.1915   33.6209 N   0  0  0  0  0  0  0  0  0  0  0  0
   45.8861   56.6735   33.1798 C   0  0  0  0  0  0  0  0  0  0  0  0
   44.7228   55.9535   33.3923 C   0  0  0  0  0  0  0  0  0  0  0  0
   44.7888   54.7520   34.0694 C   0  0  0  0  0  0  0  0  0  0  0  0
   43.6915   54.0556   34.2937 N   0  0  0  0  0  0  0  0  0  0  0  0
   43.6918   56.6443   32.8566 N   0  0  0  0  0  0  0  0  0  0  0  0
   44.1872   57.7729   32.2890 C   0  0  0  0  0  0  0  0  0  0  0  0
   45.5506   57.8056   32.4841 N   0  0  0  0  0  0  0  0  0  0  0  0
  2  1  1  6  0  0  0
  2  3  1  0  0  0  0
  2  5  1  0  0  0  0
  3  4  1  0  0  0  0
  3 16  1  0  0  0  0
  5  6  1  0  0  0  0
  6  7  1  0  0  0  0
  7  8  1  0  0  0  0
  9  8  1  6  0  0  0
  9 10  1  0  0  0  0
  9 11  1  0  0  0  0
 10 15  1  0  0  0  0
 11 12  1  6  0  0  0
 11 13  1  0  0  0  0
 13 14  1  6  0  0  0
 13 15  1  0  0  0  0
 15 26  1  1  0  0  0
 17 18  2  0  0  0  0
 17 22  1  0  0  0  0
 18 19  1  0  0  0  0
 19 20  2  0  0  0  0
 20 21  1  0  0  0  0
 20 26  1  0  0  0  0
 21 22  2  0  0  0  0
 21 24  1  0  0  0  0
 22 23  1  0  0  0  0
 24 25  2  0  0  0  0
 25 26  1  0  0  0  0
M  END
>  <CHROM.1>
91.24721782,51.86135485,177.49223006,-82.79090406,-177.07984701,71.86079365
100.55280772,47.77548025,56.53862317,30.99608704,0.17774175,-0.85129063,3.10798190

>  <Name>
ligand

>  <RI>
0

>  <Rbt.Current_Directory>
/home/itssahil/PROJECTS/Mol_Feturizer/New_Systems/rnas/3GX3

>  <Rbt.Executable>
rbdock ($Id: //depot/dev/client3/rdock/2013.1/src/exe/rbdock.cxx#4 $)

>  <Rbt.Library>
libRbt.so (2013.1, Build901 2013/11/27)

>  <Rbt.Parameter_File>
/export/apps/rDock/src/rDock_2013.1_src/data/scripts/dock_solv.prm

>  <Rbt.Receptor>
prm/pocket_docking_5.prm

>  <SCORE>
-18.6877

>  <SCORE.INTER>
-16.6269

>  <SCORE.INTER.CONST>
1

>  <SCORE.INTER.POLAR>
0

>  <SCORE.INTER.ROT>
7

>  <SCORE.INTER.SOLV>
11.6433

>  <SCORE.INTER.VDW>
-23.2324

>  <SCORE.INTER.norm>
-0.639498

>  <SCORE.INTRA>
-2.06071

>  <SCORE.INTRA.DIHEDRAL>
-1.34151

>  <SCORE.INTRA.DIHEDRAL.0>
5.78979

>  <SCORE.INTRA.POLAR>
0

>  <SCORE.INTRA.POLAR.0>
0

>  <SCORE.INTRA.REPUL>
0

>  <SCORE.INTRA.REPUL.0>
0

>  <SCORE.INTRA.SOLV>
-0.52754

>  <SCORE.INTRA.SOLV.lig_0>
-49.9151

>  <SCORE.INTRA.VDW>
-1.12619

>  <SCORE.INTRA.VDW.0>
-0.211125

>  <SCORE.INTRA.norm>
-0.0792582

>  <SCORE.RESTR>
0

>  <SCORE.RESTR.CAVITY>
0

>  <SCORE.RESTR.norm>
0

>  <SCORE.SYSTEM>
0

>  <SCORE.SYSTEM.CONST>
0

>  <SCORE.SYSTEM.DIHEDRAL>
0

>  <SCORE.SYSTEM.SOLV>
0

>  <SCORE.SYSTEM.norm>
0

>  <SCORE.heavy>
26

>  <SCORE.norm>
-0.718756

>  <RMSD>
4.879

$$$$
ligand
 OpenBabel11021811483D
libRbt.so/2013.1/901 2013/11/27
 26 28  0  0  0  0  0  0  0  0999 V2000
   48.2711   53.9050   25.5375 N   0  0  0  0  0  0  0  0  0  0  0  0
   47.7775   55.0410   24.7541 C   0  0  2  0  0  0  0  0  0  0  0  0
   48.7706   55.5650   23.7144 C   0  0  0  0  0  0  0  0  0  0  0  0
   49.9684   55.5568   23.9993 O   0  0  0  0  0  0  0  0  0  0  0  0
   47.3230   56.2494   25.5829 C   0  0  0  0  0  0  0  0  0  0  0  0
   48.1820   56.7947   26.7105 C   0  0  0  0  0  0  0  0  0  0  0  0
   47.3131   58.2376   27.3665 S   0  0  0  0  0  0  0  0  0  0  0  0
   48.1528   57.9049   28.9336 C   0  0  0  0  0  0  0  0  0  0  0  0
   47.8965   58.9501   30.0245 C   0  0  1  0  0  0  0  0  0  0  0  0
   46.5118   59.2849   30.1713 O   0  0  0  0  0  0  0  0  0  0  0  0
   48.3826   58.4510   31.3775 C   0  0  1  0  0  0  0  0  0  0  0  0
   49.7101   58.8559   31.6286 O   0  0  0  0  0  0  0  0  0  0  0  0
   47.3823   59.0190   32.3759 C   0  0  1  0  0  0  0  0  0  0  0  0
   47.8000   60.2730   32.8767 O   0  0  0  0  0  0  0  0  0  0  0  0
   46.1387   59.2464   31.5391 C   0  0  2  0  0  0  0  0  0  0  0  0
   48.4234   55.9798   22.6016 O   0  0  0  0  0  0  0  0  0  0  0  0
   42.8652   55.7589   29.3621 N   0  0  0  0  0  0  0  0  0  0  0  0
   43.7351   56.6141   28.7340 C   0  0  0  0  0  0  0  0  0  0  0  0
   44.5082   57.4788   29.4800 N   0  0  0  0  0  0  0  0  0  0  0  0
   44.4534   57.4773   30.8237 C   0  0  0  0  0  0  0  0  0  0  0  0
   43.5836   56.6209   31.4768 C   0  0  0  0  0  0  0  0  0  0  0  0
   42.7924   55.7685   30.7326 C   0  0  0  0  0  0  0  0  0  0  0  0
   41.9656   54.9355   31.3343 N   0  0  0  0  0  0  0  0  0  0  0  0
   43.7167   56.8141   32.8080 N   0  0  0  0  0  0  0  0  0  0  0  0
   44.6353   57.7934   33.0045 C   0  0  0  0  0  0  0  0  0  0  0  0
   45.1037   58.2141   31.7790 N   0  0  0  0  0  0  0  0  0  0  0  0
  2  1  1  1  0  0  0
  2  3  1  0  0  0  0
  2  5  1  0  0  0  0
  3  4  1  0  0  0  0
  3 16  1  0  0  0  0
  5  6  1  0  0  0  0
  6  7  1  0  0  0  0
  7  8  1  0  0  0  0
  9  8  1  6  0  0  0
  9 10  1  0  0  0  0
  9 11  1  0  0  0  0
 10 15  1  0  0  0  0
 11 12  1  1  0  0  0
 11 13  1  0  0  0  0
 13 14  1  6  0  0  0
 13 15  1  0  0  0  0
 15 26  1  6  0  0  0
 17 18  2  0  0  0  0
 17 22  1  0  0  0  0
 18 19  1  0  0  0  0
 19 20  2  0  0  0  0
 20 21  1  0  0  0  0
 20 26  1  0  0  0  0
 21 22  2  0  0  0  0
 21 24  1  0  0  0  0
 22 23  1  0  0  0  0
 24 25  2  0  0  0  0
 25 26  1  0  0  0  0
M  END
>  <CHROM.1>
-36.08442355,47.29971071,177.81421234,153.34433745,175.50307377,47.42085750
-7.03133890,46.50153934,57.26102736,29.04063903,1.09401493,-0.45831992,-2.06549372

>  <Name>
ligand

>  <RI>
0

>  <Rbt.Current_Directory>
/home/itssahil/PROJECTS/Mol_Feturizer/New_Systems/rnas/3GX3

>  <Rbt.Executable>
rbdock ($Id: //depot/dev/client3/rdock/2013.1/src/exe/rbdock.cxx#4 $)

>  <Rbt.Library>
libRbt.so (2013.1, Build901 2013/11/27)

>  <Rbt.Parameter_File>
/export/apps/rDock/src/rDock_2013.1_src/data/scripts/dock_solv.prm

>  <Rbt.Receptor>
prm/pocket_docking_7.prm

>  <SCORE>
-20.7081

>  <SCORE.INTER>
-17.3288

>  <SCORE.INTER.CONST>
1

>  <SCORE.INTER.POLAR>
0

>  <SCORE.INTER.ROT>
7

>  <SCORE.INTER.SOLV>
12.2813

>  <SCORE.INTER.VDW>
-23.913

>  <SCORE.INTER.norm>
-0.666494

>  <SCORE.INTRA>
-3.37922

>  <SCORE.INTRA.DIHEDRAL>
-0.701203

>  <SCORE.INTRA.DIHEDRAL.0>
5.78979

>  <SCORE.INTRA.POLAR>
0

>  <SCORE.INTRA.POLAR.0>
0

>  <SCORE.INTRA.REPUL>
0

>  <SCORE.INTRA.REPUL.0>
0

>  <SCORE.INTRA.SOLV>
-0.367857

>  <SCORE.INTRA.SOLV.lig_0>
-49.9151

>  <SCORE.INTRA.VDW>
-2.84469

>  <SCORE.INTRA.VDW.0>
-0.211125

>  <SCORE.INTRA.norm>
-0.12997

>  <SCORE.RESTR>
0

>  <SCORE.RESTR.CAVITY>
0

>  <SCORE.RESTR.norm>
0

>  <SCORE.SYSTEM>
0

>  <SCORE.SYSTEM.CONST>
0

>  <SCORE.SYSTEM.DIHEDRAL>
0

>  <SCORE.SYSTEM.SOLV>
0

>  <SCORE.SYSTEM.norm>
0

>  <SCORE.heavy>
26

>  <SCORE.norm>
-0.796464

>  <RMSD>
4.880

$$$$
ligand
 OpenBabel11021811483D
libRbt.so/2013.1/901 2013/11/27
 26 28  0  0  0  0  0  0  0  0999 V2000
   46.1096   58.8250   30.1254 N   0  0  0  0  0  0  0  0  0  0  0  0
   47.5001   58.7835   29.6645 C   0  0  2  0  0  0  0  0  0  0  0  0
   47.6850   58.1494   28.2841 C   0  0  0  0  0  0  0  0  0  0  0  0
   46.6921   58.0167   27.5680 O   0  0  0  0  0  0  0  0  0  0  0  0
   48.4751   58.0745   30.6134 C   0  0  0  0  0  0  0  0  0  0  0  0
   48.2280   56.6468   31.0683 C   0  0  0  0  0  0  0  0  0  0  0  0
   49.6286   56.1919   32.1166 S   0  0  0  0  0  0  0  0  0  0  0  0
   48.6419   56.7763   33.5152 C   0  0  0  0  0  0  0  0  0  0  0  0
   47.6541   55.7441   34.0694 C   0  0  1  0  0  0  0  0  0  0  0  0
   46.5764   55.4552   33.1715 O   0  0  0  0  0  0  0  0  0  0  0  0
   48.3564   54.4267   34.3649 C   0  0  1  0  0  0  0  0  0  0  0  0
   48.8036   54.3706   35.7014 O   0  0  0  0  0  0  0  0  0  0  0  0
   47.3217   53.3595   34.0323 C   0  0  1  0  0  0  0  0  0  0  0  0
   46.5513   53.0092   35.1643 O   0  0  0  0  0  0  0  0  0  0  0  0
   46.4039   54.0532   33.0450 C   0  0  2  0  0  0  0  0  0  0  0  0
   48.7853   57.7804   27.8550 O   0  0  0  0  0  0  0  0  0  0  0  0
   49.9765   52.5900   29.4794 N   0  0  0  0  0  0  0  0  0  0  0  0
   50.1825   52.9688   30.7819 C   0  0  0  0  0  0  0  0  0  0  0  0
   49.1117   53.3404   31.5675 N   0  0  0  0  0  0  0  0  0  0  0  0
   47.8546   53.3054   31.0911 C   0  0  0  0  0  0  0  0  0  0  0  0
   47.6251   52.9244   29.7800 C   0  0  0  0  0  0  0  0  0  0  0  0
   48.6967   52.5720   28.9839 C   0  0  0  0  0  0  0  0  0  0  0  0
   48.5002   52.1940   27.7357 N   0  0  0  0  0  0  0  0  0  0  0  0
   46.2941   52.9746   29.5498 N   0  0  0  0  0  0  0  0  0  0  0  0
   45.6838   53.4040   30.6831 C   0  0  0  0  0  0  0  0  0  0  0  0
   46.6419   53.6119   31.6511 N   0  0  0  0  0  0  0  0  0  0  0  0
  2  1  1  1  0  0  0
  2  3  1  0  0  0  0
  2  5  1  0  0  0  0
  3  4  1  0  0  0  0
  3 16  1  0  0  0  0
  5  6  1  0  0  0  0
  6  7  1  0  0  0  0
  7  8  1  0  0  0  0
  9  8  1  6  0  0  0
  9 10  1  0  0  0  0
  9 11  1  0  0  0  0
 10 15  1  0  0  0  0
 11 12  1  1  0  0  0
 11 13  1  0  0  0  0
 13 14  1  1  0  0  0
 13 15  1  0  0  0  0
 15 26  1  6  0  0  0
 17 18  2  0  0  0  0
 17 22  1  0  0  0  0
 18 19  1  0  0  0  0
 19 20  2  0  0  0  0
 20 21  1  0  0  0  0
 20 26  1  0  0  0  0
 21 22  2  0  0  0  0
 21 24  1  0  0  0  0
 22 23  1  0  0  0  0
 24 25  2  0  0  0  0
 25 26  1  0  0  0  0
M  END
>  <CHROM.1>
16.10607531,55.51930731,178.15664518,91.94347741,83.85758377,-68.80381624
85.18708660,47.92335757,55.09202280,31.29605520,1.61317764,1.49439373,-1.00147291

>  <Name>
ligand

>  <RI>
0

>  <Rbt.Current_Directory>
/home/itssahil/PROJECTS/Mol_Feturizer/New_Systems/rnas/3GX3

>  <Rbt.Executable>
rbdock ($Id: //depot/dev/client3/rdock/2013.1/src/exe/rbdock.cxx#4 $)

>  <Rbt.Library>
libRbt.so (2013.1, Build901 2013/11/27)

>  <Rbt.Parameter_File>
/export/apps/rDock/src/rDock_2013.1_src/data/scripts/dock_solv.prm

>  <Rbt.Receptor>
prm/pocket_docking_4.prm

>  <SCORE>
-14.2287

>  <SCORE.INTER>
-11.0053

>  <SCORE.INTER.CONST>
1

>  <SCORE.INTER.POLAR>
0

>  <SCORE.INTER.ROT>
7

>  <SCORE.INTER.SOLV>
11.1247

>  <SCORE.INTER.VDW>
-19.3117

>  <SCORE.INTER.norm>
-0.423279

>  <SCORE.INTRA>
-3.22481

>  <SCORE.INTRA.DIHEDRAL>
-0.424725

>  <SCORE.INTRA.DIHEDRAL.0>
5.78979

>  <SCORE.INTRA.POLAR>
0

>  <SCORE.INTRA.POLAR.0>
0

>  <SCORE.INTRA.REPUL>
0

>  <SCORE.INTRA.REPUL.0>
0

>  <SCORE.INTRA.SOLV>
0.0782785

>  <SCORE.INTRA.SOLV.lig_0>
-49.9151

>  <SCORE.INTRA.VDW>
-3.05159

>  <SCORE.INTRA.VDW.0>
-0.211125

>  <SCORE.INTRA.norm>
-0.124031

>  <SCORE.RESTR>
0.00139421

>  <SCORE.RESTR.CAVITY>
0.00139421

>  <SCORE.RESTR.norm>
5.36235e-05

>  <SCORE.SYSTEM>
0

>  <SCORE.SYSTEM.CONST>
0

>  <SCORE.SYSTEM.DIHEDRAL>
0

>  <SCORE.SYSTEM.SOLV>
0

>  <SCORE.SYSTEM.norm>
0

>  <SCORE.heavy>
26

>  <SCORE.norm>
-0.547257

>  <RMSD>
4.882

$$$$
ligand
 OpenBabel11021811483D
libRbt.so/2013.1/901 2013/11/27
 26 28  0  0  0  0  0  0  0  0999 V2000
   45.5715   57.9577   29.9552 N   0  0  0  0  0  0  0  0  0  0  0  0
   46.8164   58.6698   29.6533 C   0  0  2  0  0  0  0  0  0  0  0  0
   47.6665   58.0131   28.5635 C   0  0  0  0  0  0  0  0  0  0  0  0
   48.2691   58.7443   27.7772 O   0  0  0  0  0  0  0  0  0  0  0  0
   47.7383   58.8999   30.8578 C   0  0  0  0  0  0  0  0  0  0  0  0
   48.3389   57.7315   31.6200 C   0  0  0  0  0  0  0  0  0  0  0  0
   49.1317   58.4286   33.0874 S   0  0  0  0  0  0  0  0  0  0  0  0
   49.5681   56.7311   33.5341 C   0  0  0  0  0  0  0  0  0  0  0  0
   48.4528   55.9556   34.2434 C   0  0  1  0  0  0  0  0  0  0  0  0
   47.2709   55.8119   33.4475 O   0  0  0  0  0  0  0  0  0  0  0  0
   48.9177   54.5543   34.6123 C   0  0  1  0  0  0  0  0  0  0  0  0
   49.4534   54.5166   35.9165 O   0  0  0  0  0  0  0  0  0  0  0  0
   47.6781   53.6848   34.4467 C   0  0  1  0  0  0  0  0  0  0  0  0
   46.9502   53.5791   35.6536 O   0  0  0  0  0  0  0  0  0  0  0  0
   46.8294   54.4641   33.4615 C   0  0  2  0  0  0  0  0  0  0  0  0
   47.7844   56.7867   28.4497 O   0  0  0  0  0  0  0  0  0  0  0  0
   49.8574   52.9588   29.4388 N   0  0  0  0  0  0  0  0  0  0  0  0
   50.2445   53.5198   30.6296 C   0  0  0  0  0  0  0  0  0  0  0  0
   49.2944   53.8691   31.5662 N   0  0  0  0  0  0  0  0  0  0  0  0
   47.9874   53.6373   31.3504 C   0  0  0  0  0  0  0  0  0  0  0  0
   47.5762   53.0705   30.1561 C   0  0  0  0  0  0  0  0  0  0  0  0
   48.5227   52.7388   29.2071 C   0  0  0  0  0  0  0  0  0  0  0  0
   48.1546   52.1866   28.0674 N   0  0  0  0  0  0  0  0  0  0  0  0
   46.2306   52.9458   30.1861 N   0  0  0  0  0  0  0  0  0  0  0  0
   45.7847   53.4464   31.3659 C   0  0  0  0  0  0  0  0  0  0  0  0
   46.8666   53.8783   32.1014 N   0  0  0  0  0  0  0  0  0  0  0  0
  2  1  1  1  0  0  0
  2  3  1  0  0  0  0
  2  5  1  0  0  0  0
  3  4  1  0  0  0  0
  3 16  1  0  0  0  0
  5  6  1  0  0  0  0
  6  7  1  0  0  0  0
  7  8  1  0  0  0  0
  9  8  1  6  0  0  0
  9 10  1  0  0  0  0
  9 11  1  0  0  0  0
 10 15  1  0  0  0  0
 11 12  1  1  0  0  0
 11 13  1  0  0  0  0
 13 14  1  1  0  0  0
 13 15  1  0  0  0  0
 15 26  1  6  0  0  0
 17 18  2  0  0  0  0
 17 22  1  0  0  0  0
 18 19  1  0  0  0  0
 19 20  2  0  0  0  0
 20 21  1  0  0  0  0
 20 26  1  0  0  0  0
 21 22  2  0  0  0  0
 21 24  1  0  0  0  0
 22 23  1  0  0  0  0
 24 25  2  0  0  0  0
 25 26  1  0  0  0  0
M  END
>  <CHROM.1>
143.00665857,62.47836959,-171.45082115,178.89734179,-82.69534758,61.03353534
65.98457243,48.01873052,55.46545764,31.62694938,-2.42104904,1.47178703,2.97032516

>  <Name>
ligand

>  <RI>
0

>  <Rbt.Current_Directory>
/home/itssahil/PROJECTS/Mol_Feturizer/New_Systems/rnas/3GX3

>  <Rbt.Executable>
rbdock ($Id: //depot/dev/client3/rdock/2013.1/src/exe/rbdock.cxx#4 $)

>  <Rbt.Library>
libRbt.so (2013.1, Build901 2013/11/27)

>  <Rbt.Parameter_File>
/export/apps/rDock/src/rDock_2013.1_src/data/scripts/dock_solv.prm

>  <Rbt.Receptor>
prm/pocket_docking_3.prm

>  <SCORE>
-18.7371

>  <SCORE.INTER>
-14.3541

>  <SCORE.INTER.CONST>
1

>  <SCORE.INTER.POLAR>
0

>  <SCORE.INTER.ROT>
7

>  <SCORE.INTER.SOLV>
11.9127

>  <SCORE.INTER.VDW>
-21.807

>  <SCORE.INTER.norm>
-0.552081

>  <SCORE.INTRA>
-4.38305

>  <SCORE.INTRA.DIHEDRAL>
-1.94473

>  <SCORE.INTRA.DIHEDRAL.0>
5.78979

>  <SCORE.INTRA.POLAR>
0

>  <SCORE.INTRA.POLAR.0>
0

>  <SCORE.INTRA.REPUL>
0

>  <SCORE.INTRA.REPUL.0>
0

>  <SCORE.INTRA.SOLV>
-0.372495

>  <SCORE.INTRA.SOLV.lig_0>
-49.9151

>  <SCORE.INTRA.VDW>
-3.22443

>  <SCORE.INTRA.VDW.0>
-0.211125

>  <SCORE.INTRA.norm>
-0.168579

>  <SCORE.RESTR>
0

>  <SCORE.RESTR.CAVITY>
0

>  <SCORE.RESTR.norm>
0

>  <SCORE.SYSTEM>
0

>  <SCORE.SYSTEM.CONST>
0

>  <SCORE.SYSTEM.DIHEDRAL>
0

>  <SCORE.SYSTEM.SOLV>
0

>  <SCORE.SYSTEM.norm>
0

>  <SCORE.heavy>
26

>  <SCORE.norm>
-0.720659

>  <RMSD>
4.884

$$$$
ligand
 OpenBabel11021811483D
libRbt.so/2013.1/901 2013/11/27
 26 28  0  0  0  0  0  0  0  0999 V2000
   47.3978   53.6249   25.7261 N   0  0  0  0  0  0  0  0  0  0  0  0
   47.3167   55.0719   25.5083 C   0  0  2  0  0  0  0  0  0  0  0  0
   48.1182   55.5711   24.3041 C   0  0  0  0  0  0  0  0  0  0  0  0
   47.4980   55.9501   23.3102 O   0  0  0  0  0  0  0  0  0  0  0  0
   47.7359   55.9310   26.7082 C   0  0  0  0  0  0  0  0  0  0  0  0
   47.4746   57.4270   26.7309 C   0  0  0  0  0  0  0  0  0  0  0  0
   48.5090   58.1092   28.0471 S   0  0  0  0  0  0  0  0  0  0  0  0
   46.9833   58.3316   28.9927 C   0  0  0  0  0  0  0  0  0  0  0  0
   47.1893   58.8803   30.4086 C   0  0  1  0  0  0  0  0  0  0  0  0
   45.9647   59.0525   31.1310 O   0  0  0  0  0  0  0  0  0  0  0  0
   48.0661   57.9457   31.2294 C   0  0  1  0  0  0  0  0  0  0  0  0
   49.4264   58.3083   31.1429 O   0  0  0  0  0  0  0  0  0  0  0  0
   47.5075   58.0416   32.6432 C   0  0  1  0  0  0  0  0  0  0  0  0
   48.1617   59.0433   33.3956 O   0  0  0  0  0  0  0  0  0  0  0  0
   46.0747   58.4872   32.4271 C   0  0  2  0  0  0  0  0  0  0  0  0
   49.3544   55.6230   24.2933 O   0  0  0  0  0  0  0  0  0  0  0  0
   45.1763   53.7909   34.6079 N   0  0  0  0  0  0  0  0  0  0  0  0
   46.3140   54.5549   34.6754 C   0  0  0  0  0  0  0  0  0  0  0  0
   46.3700   55.7647   34.0158 N   0  0  0  0  0  0  0  0  0  0  0  0
   45.3116   56.2327   33.3307 C   0  0  0  0  0  0  0  0  0  0  0  0
   44.1537   55.4779   33.2517 C   0  0  0  0  0  0  0  0  0  0  0  0
   44.1011   54.2564   33.8932 C   0  0  0  0  0  0  0  0  0  0  0  0
   43.0039   53.5264   33.8416 N   0  0  0  0  0  0  0  0  0  0  0  0
   43.2509   56.1610   32.5132 N   0  0  0  0  0  0  0  0  0  0  0  0
   43.8270   57.3197   32.1047 C   0  0  0  0  0  0  0  0  0  0  0  0
   45.1084   57.3789   32.6074 N   0  0  0  0  0  0  0  0  0  0  0  0
  2  1  1  1  0  0  0
  2  3  1  0  0  0  0
  2  5  1  0  0  0  0
  3  4  1  0  0  0  0
  3 16  1  0  0  0  0
  5  6  1  0  0  0  0
  6  7  1  0  0  0  0
  7  8  1  0  0  0  0
  9  8  1  6  0  0  0
  9 10  1  0  0  0  0
  9 11  1  0  0  0  0
 10 15  1  0  0  0  0
 11 12  1  1  0  0  0
 11 13  1  0  0  0  0
 13 14  1  1  0  0  0
 13 15  1  0  0  0  0
 15 26  1  6  0  0  0
 17 18  2  0  0  0  0
 17 22  1  0  0  0  0
 18 19  1  0  0  0  0
 19 20  2  0  0  0  0
 20 21  1  0  0  0  0
 20 26  1  0  0  0  0
 21 22  2  0  0  0  0
 21 24  1  0  0  0  0
 22 23  1  0  0  0  0
 24 25  2  0  0  0  0
 25 26  1  0  0  0  0
M  END
>  <CHROM.1>
108.73425103,-168.93690400,-164.30156440,-107.62508806,177.06524264,179.70357809
144.82667266,46.68202023,56.65287787,30.20718926,0.97024970,-0.92690547,-2.04954760

>  <Name>
ligand

>  <RI>
0

>  <Rbt.Current_Directory>
/home/itssahil/PROJECTS/Mol_Feturizer/New_Systems/rnas/3GX3

>  <Rbt.Executable>
rbdock ($Id: //depot/dev/client3/rdock/2013.1/src/exe/rbdock.cxx#4 $)

>  <Rbt.Library>
libRbt.so (2013.1, Build901 2013/11/27)

>  <Rbt.Parameter_File>
/export/apps/rDock/src/rDock_2013.1_src/data/scripts/dock_solv.prm

>  <Rbt.Receptor>
prm/pocket_docking_5.prm

>  <SCORE>
-15.8987

>  <SCORE.INTER>
-13.9611

>  <SCORE.INTER.CONST>
1

>  <SCORE.INTER.POLAR>
0

>  <SCORE.INTER.ROT>
7

>  <SCORE.INTER.SOLV>
10.2558

>  <SCORE.INTER.VDW>
-20.9927

>  <SCORE.INTER.norm>
-0.536967

>  <SCORE.INTRA>
-1.93756

>  <SCORE.INTRA.DIHEDRAL>
0.460678

>  <SCORE.INTRA.DIHEDRAL.0>
5.78979

>  <SCORE.INTRA.POLAR>
0

>  <SCORE.INTRA.POLAR.0>
0

>  <SCORE.INTRA.REPUL>
0

>  <SCORE.INTRA.REPUL.0>
0

>  <SCORE.INTRA.SOLV>
-0.950445

>  <SCORE.INTRA.SOLV.lig_0>
-49.9151

>  <SCORE.INTRA.VDW>
-1.69268

>  <SCORE.INTRA.VDW.0>
-0.211125

>  <SCORE.INTRA.norm>
-0.0745215

>  <SCORE.RESTR>
0

>  <SCORE.RESTR.CAVITY>
0

>  <SCORE.RESTR.norm>
0

>  <SCORE.SYSTEM>
0

>  <SCORE.SYSTEM.CONST>
0

>  <SCORE.SYSTEM.DIHEDRAL>
0

>  <SCORE.SYSTEM.SOLV>
0

>  <SCORE.SYSTEM.norm>
0

>  <SCORE.heavy>
26

>  <SCORE.norm>
-0.611488

>  <RMSD>
4.887

$$$$
ligand
 OpenBabel11021811483D
libRbt.so/2013.1/901 2013/11/27
 26 28  0  0  0  0  0  0  0  0999 V2000
   50.6528   54.5017   28.7506 N   0  0  0  0  0  0  0  0  0  0  0  0
   49.1877   54.5078   28.7864 C   0  0  2  0  0  0  0  0  0  0  0  0
   48.5543   53.1148   28.7860 C   0  0  0  0  0  0  0  0  0  0  0  0
   47.5841   52.9175   29.5180 O   0  0  0  0  0  0  0  0  0  0  0  0
   48.5165   55.3015   27.6581 C   0  0  0  0  0  0  0  0  0  0  0  0
   48.5287   56.8202   27.6531 C   0  0  0  0  0  0  0  0  0  0  0  0
   48.1672   57.3424   29.3456 S   0  0  0  0  0  0  0  0  0  0  0  0
   46.5289   57.8152   28.7424 C   0  0  0  0  0  0  0  0  0  0  0  0
   45.4982   58.0762   29.8460 C   0  0  1  0  0  0  0  0  0  0  0  0
   45.4250   57.0207   30.8112 O   0  0  0  0  0  0  0  0  0  0  0  0
   45.8280   59.3541   30.6037 C   0  0  1  0  0  0  0  0  0  0  0  0
   45.1667   60.4682   30.0459 O   0  0  0  0  0  0  0  0  0  0  0  0
   45.4107   59.0650   32.0398 C   0  0  1  0  0  0  0  0  0  0  0  0
   44.0770   59.4629   32.2856 O   0  0  0  0  0  0  0  0  0  0  0  0
   45.4652   57.5524   32.1254 C   0  0  2  0  0  0  0  0  0  0  0  0
   48.9647   52.1892   28.0747 O   0  0  0  0  0  0  0  0  0  0  0  0
   47.7024   53.5465   34.6877 N   0  0  0  0  0  0  0  0  0  0  0  0
   46.4567   53.5984   34.1150 C   0  0  0  0  0  0  0  0  0  0  0  0
   46.0324   54.7552   33.4955 N   0  0  0  0  0  0  0  0  0  0  0  0
   46.8339   55.8316   33.4088 C   0  0  0  0  0  0  0  0  0  0  0  0
   48.0953   55.7990   33.9787 C   0  0  0  0  0  0  0  0  0  0  0  0
   48.5156   54.6498   34.6183 C   0  0  0  0  0  0  0  0  0  0  0  0
   49.7179   54.5924   35.1575 N   0  0  0  0  0  0  0  0  0  0  0  0
   48.6921   56.9915   33.7579 N   0  0  0  0  0  0  0  0  0  0  0  0
   47.8212   57.7828   33.0820 C   0  0  0  0  0  0  0  0  0  0  0  0
   46.6617   57.0738   32.8560 N   0  0  0  0  0  0  0  0  0  0  0  0
  2  1  1  6  0  0  0
  2  3  1  0  0  0  0
  2  5  1  0  0  0  0
  3  4  1  0  0  0  0
  3 16  1  0  0  0  0
  5  6  1  0  0  0  0
  6  7  1  0  0  0  0
  7  8  1  0  0  0  0
  9  8  1  6  0  0  0
  9 10  1  0  0  0  0
  9 11  1  0  0  0  0
 10 15  1  0  0  0  0
 11 12  1  6  0  0  0
 11 13  1  0  0  0  0
 13 14  1  6  0  0  0
 13 15  1  0  0  0  0
 15 26  1  6  0  0  0
 17 18  2  0  0  0  0
 17 22  1  0  0  0  0
 18 19  1  0  0  0  0
 19 20  2  0  0  0  0
 20 21  1  0  0  0  0
 20 26  1  0  0  0  0
 21 22  2  0  0  0  0
 21 24  1  0  0  0  0
 22 23  1  0  0  0  0
 24 25  2  0  0  0  0
 25 26  1  0  0  0  0
M  END
>  <CHROM.1>
139.13269792,-73.41810466,-43.22443545,-106.44496989,165.71160566,-50.33152522
-76.50609402,47.32466624,56.23500649,31.14487574,0.20138216,1.00973399,-1.31497316

>  <Name>
ligand

>  <RI>
0

>  <Rbt.Current_Directory>
/home/itssahil/PROJECTS/Mol_Feturizer/New_Systems/rnas/3GX3

>  <Rbt.Executable>
rbdock ($Id: //depot/dev/client3/rdock/2013.1/src/exe/rbdock.cxx#4 $)

>  <Rbt.Library>
libRbt.so (2013.1, Build901 2013/11/27)

>  <Rbt.Parameter_File>
/export/apps/rDock/src/rDock_2013.1_src/data/scripts/dock_solv.prm

>  <Rbt.Receptor>
prm/pocket_docking_2.prm

>  <SCORE>
-5.07511

>  <SCORE.INTER>
-4.23795

>  <SCORE.INTER.CONST>
1

>  <SCORE.INTER.POLAR>
0

>  <SCORE.INTER.ROT>
7

>  <SCORE.INTER.SOLV>
19.4695

>  <SCORE.INTER.VDW>
-17.5818

>  <SCORE.INTER.norm>
-0.162998

>  <SCORE.INTRA>
-1.67164

>  <SCORE.INTRA.DIHEDRAL>
1.42366

>  <SCORE.INTRA.DIHEDRAL.0>
5.78979

>  <SCORE.INTRA.POLAR>
0

>  <SCORE.INTRA.POLAR.0>
0

>  <SCORE.INTRA.REPUL>
0

>  <SCORE.INTRA.REPUL.0>
0

>  <SCORE.INTRA.SOLV>
0.289966

>  <SCORE.INTRA.SOLV.lig_0>
-49.9151

>  <SCORE.INTRA.VDW>
-2.52845

>  <SCORE.INTRA.VDW.0>
-0.211125

>  <SCORE.INTRA.norm>
-0.0642938

>  <SCORE.RESTR>
0.834483

>  <SCORE.RESTR.CAVITY>
0.834483

>  <SCORE.RESTR.norm>
0.0320955

>  <SCORE.SYSTEM>
0

>  <SCORE.SYSTEM.CONST>
0

>  <SCORE.SYSTEM.DIHEDRAL>
0

>  <SCORE.SYSTEM.SOLV>
0

>  <SCORE.SYSTEM.norm>
0

>  <SCORE.heavy>
26

>  <SCORE.norm>
-0.195197

>  <RMSD>
4.902

$$$$
ligand
 OpenBabel11021811483D
libRbt.so/2013.1/901 2013/11/27
 26 28  0  0  0  0  0  0  0  0999 V2000
   47.6098   54.1518   25.7822 N   0  0  0  0  0  0  0  0  0  0  0  0
   47.6197   55.4810   25.1650 C   0  0  2  0  0  0  0  0  0  0  0  0
   48.4626   55.5752   23.8913 C   0  0  0  0  0  0  0  0  0  0  0  0
   49.6681   55.3380   23.9736 O   0  0  0  0  0  0  0  0  0  0  0  0
   48.0784   56.6186   26.0866 C   0  0  0  0  0  0  0  0  0  0  0  0
   47.2618   57.0204   27.3025 C   0  0  0  0  0  0  0  0  0  0  0  0
   48.1922   58.3260   28.1375 S   0  0  0  0  0  0  0  0  0  0  0  0
   46.8724   58.3364   29.3741 C   0  0  0  0  0  0  0  0  0  0  0  0
   47.3502   58.5829   30.8092 C   0  0  1  0  0  0  0  0  0  0  0  0
   46.2757   58.7494   31.7412 O   0  0  0  0  0  0  0  0  0  0  0  0
   48.1973   57.4199   31.3051 C   0  0  1  0  0  0  0  0  0  0  0  0
   49.5685   57.6406   31.0593 O   0  0  0  0  0  0  0  0  0  0  0  0
   47.8629   57.3087   32.7870 C   0  0  1  0  0  0  0  0  0  0  0  0
   48.7485   58.0729   33.5803 O   0  0  0  0  0  0  0  0  0  0  0  0
   46.4890   57.9417   32.8873 C   0  0  2  0  0  0  0  0  0  0  0  0
   47.9839   55.8634   22.7874 O   0  0  0  0  0  0  0  0  0  0  0  0
   45.1398   53.2564   34.8483 N   0  0  0  0  0  0  0  0  0  0  0  0
   46.3527   53.8930   34.9280 C   0  0  0  0  0  0  0  0  0  0  0  0
   46.5241   55.1234   34.3291 N   0  0  0  0  0  0  0  0  0  0  0  0
   45.5089   55.7346   33.6932 C   0  0  0  0  0  0  0  0  0  0  0  0
   44.2767   55.1099   33.6031 C   0  0  0  0  0  0  0  0  0  0  0  0
   44.1071   53.8684   34.1831 C   0  0  0  0  0  0  0  0  0  0  0  0
   42.9384   53.2605   34.1201 N   0  0  0  0  0  0  0  0  0  0  0  0
   43.4379   55.9214   32.9211 N   0  0  0  0  0  0  0  0  0  0  0  0
   44.1256   57.0336   32.5584 C   0  0  0  0  0  0  0  0  0  0  0  0
   45.4147   56.9323   33.0337 N   0  0  0  0  0  0  0  0  0  0  0  0
  2  1  1  1  0  0  0
  2  3  1  0  0  0  0
  2  5  1  0  0  0  0
  3  4  1  0  0  0  0
  3 16  1  0  0  0  0
  5  6  1  0  0  0  0
  6  7  1  0  0  0  0
  7  8  1  0  0  0  0
  9  8  1  6  0  0  0
  9 10  1  0  0  0  0
  9 11  1  0  0  0  0
 10 15  1  0  0  0  0
 11 12  1  1  0  0  0
 11 13  1  0  0  0  0
 13 14  1  1  0  0  0
 13 15  1  0  0  0  0
 15 26  1  6  0  0  0
 17 18  2  0  0  0  0
 17 22  1  0  0  0  0
 18 19  1  0  0  0  0
 19 20  2  0  0  0  0
 20 21  1  0  0  0  0
 20 26  1  0  0  0  0
 21 22  2  0  0  0  0
 21 24  1  0  0  0  0
 22 23  1  0  0  0  0
 24 25  2  0  0  0  0
 25 26  1  0  0  0  0
M  END
>  <CHROM.1>
-61.01499659,-65.78830828,177.32572598,-178.68069198,143.65959395,172.78135978
155.54886229,46.84194540,56.39470314,30.35303782,0.99060671,-0.92922412,-1.96682740

>  <Name>
ligand

>  <RI>
0

>  <Rbt.Current_Directory>
/home/itssahil/PROJECTS/Mol_Feturizer/New_Systems/rnas/3GX3

>  <Rbt.Executable>
rbdock ($Id: //depot/dev/client3/rdock/2013.1/src/exe/rbdock.cxx#4 $)

>  <Rbt.Library>
libRbt.so (2013.1, Build901 2013/11/27)

>  <Rbt.Parameter_File>
/export/apps/rDock/src/rDock_2013.1_src/data/scripts/dock_solv.prm

>  <Rbt.Receptor>
prm/pocket_docking_6.prm

>  <SCORE>
-17.4311

>  <SCORE.INTER>
-14.6604

>  <SCORE.INTER.CONST>
1

>  <SCORE.INTER.POLAR>
0

>  <SCORE.INTER.ROT>
7

>  <SCORE.INTER.SOLV>
9.75293

>  <SCORE.INTER.VDW>
-21.2912

>  <SCORE.INTER.norm>
-0.563862

>  <SCORE.INTRA>
-2.77072

>  <SCORE.INTRA.DIHEDRAL>
-1.0712

>  <SCORE.INTRA.DIHEDRAL.0>
5.78979

>  <SCORE.INTRA.POLAR>
0

>  <SCORE.INTRA.POLAR.0>
0

>  <SCORE.INTRA.REPUL>
0

>  <SCORE.INTRA.REPUL.0>
0

>  <SCORE.INTRA.SOLV>
-0.382521

>  <SCORE.INTRA.SOLV.lig_0>
-49.9151

>  <SCORE.INTRA.VDW>
-2.04386

>  <SCORE.INTRA.VDW.0>
-0.211125

>  <SCORE.INTRA.norm>
-0.106566

>  <SCORE.RESTR>
0

>  <SCORE.RESTR.CAVITY>
0

>  <SCORE.RESTR.norm>
0

>  <SCORE.SYSTEM>
0

>  <SCORE.SYSTEM.CONST>
0

>  <SCORE.SYSTEM.DIHEDRAL>
0

>  <SCORE.SYSTEM.SOLV>
0

>  <SCORE.SYSTEM.norm>
0

>  <SCORE.heavy>
26

>  <SCORE.norm>
-0.670428

>  <RMSD>
4.903

$$$$
ligand
 OpenBabel11021811483D
libRbt.so/2013.1/901 2013/11/27
 26 28  0  0  0  0  0  0  0  0999 V2000
   47.0322   54.7370   26.8575 N   0  0  0  0  0  0  0  0  0  0  0  0
   47.3198   55.8263   25.9202 C   0  0  2  0  0  0  0  0  0  0  0  0
   48.3775   55.4859   24.8680 C   0  0  0  0  0  0  0  0  0  0  0  0
   49.3709   54.8529   25.2264 O   0  0  0  0  0  0  0  0  0  0  0  0
   47.7521   57.1451   26.5743 C   0  0  0  0  0  0  0  0  0  0  0  0
   48.8651   57.1802   27.6071 C   0  0  0  0  0  0  0  0  0  0  0  0
   48.1170   56.7111   29.1845 S   0  0  0  0  0  0  0  0  0  0  0  0
   47.9631   58.4812   29.5227 C   0  0  0  0  0  0  0  0  0  0  0  0
   46.5898   58.9085   30.0518 C   0  0  1  0  0  0  0  0  0  0  0  0
   45.7430   57.8018   30.3824 O   0  0  0  0  0  0  0  0  0  0  0  0
   46.7330   59.7542   31.3088 C   0  0  1  0  0  0  0  0  0  0  0  0
   46.7823   61.1297   31.0006 O   0  0  0  0  0  0  0  0  0  0  0  0
   45.5318   59.3730   32.1644 C   0  0  1  0  0  0  0  0  0  0  0  0
   44.4281   60.2219   31.9217 O   0  0  0  0  0  0  0  0  0  0  0  0
   45.1685   57.9882   31.6656 C   0  0  2  0  0  0  0  0  0  0  0  0
   48.2695   55.8054   23.6775 O   0  0  0  0  0  0  0  0  0  0  0  0
   49.1172   56.0244   34.5238 N   0  0  0  0  0  0  0  0  0  0  0  0
   49.1277   57.1243   33.7036 C   0  0  0  0  0  0  0  0  0  0  0  0
   47.9874   57.4782   33.0132 N   0  0  0  0  0  0  0  0  0  0  0  0
   46.8450   56.7831   33.1551 C   0  0  0  0  0  0  0  0  0  0  0  0
   46.8129   55.6711   33.9792 C   0  0  0  0  0  0  0  0  0  0  0  0
   47.9583   55.3011   34.6557 C   0  0  0  0  0  0  0  0  0  0  0  0
   47.9471   54.2526   35.4556 N   0  0  0  0  0  0  0  0  0  0  0  0
   45.5641   55.1547   33.9475 N   0  0  0  0  0  0  0  0  0  0  0  0
   44.8164   55.9054   33.0997 C   0  0  0  0  0  0  0  0  0  0  0  0
   45.5994   56.9233   32.6008 N   0  0  0  0  0  0  0  0  0  0  0  0
  2  1  1  1  0  0  0
  2  3  1  0  0  0  0
  2  5  1  0  0  0  0
  3  4  1  0  0  0  0
  3 16  1  0  0  0  0
  5  6  1  0  0  0  0
  6  7  1  0  0  0  0
  7  8  1  0  0  0  0
  9  8  1  1  0  0  0
  9 10  1  0  0  0  0
  9 11  1  0  0  0  0
 10 15  1  0  0  0  0
 11 12  1  6  0  0  0
 11 13  1  0  0  0  0
 13 14  1  6  0  0  0
 13 15  1  0  0  0  0
 15 26  1  1  0  0  0
 17 18  2  0  0  0  0
 17 22  1  0  0  0  0
 18 19  1  0  0  0  0
 19 20  2  0  0  0  0
 20 21  1  0  0  0  0
 20 26  1  0  0  0  0
 21 22  2  0  0  0  0
 21 24  1  0  0  0  0
 22 23  1  0  0  0  0
 24 25  2  0  0  0  0
 25 26  1  0  0  0  0
M  END
>  <CHROM.1>
-41.37909087,50.73240334,-81.99286208,-96.19120515,133.24571232,9.26780740
72.29239776,47.19360154,57.02494993,30.44416012,-1.16443071,-1.10874435,1.82759042

>  <Name>
ligand

>  <RI>
0

>  <Rbt.Current_Directory>
/home/itssahil/PROJECTS/Mol_Feturizer/New_Systems/rnas/3GX3

>  <Rbt.Executable>
rbdock ($Id: //depot/dev/client3/rdock/2013.1/src/exe/rbdock.cxx#4 $)

>  <Rbt.Library>
libRbt.so (2013.1, Build901 2013/11/27)

>  <Rbt.Parameter_File>
/export/apps/rDock/src/rDock_2013.1_src/data/scripts/dock_solv.prm

>  <Rbt.Receptor>
prm/pocket_docking_6.prm

>  <SCORE>
-12.0136

>  <SCORE.INTER>
-13.0869

>  <SCORE.INTER.CONST>
1

>  <SCORE.INTER.POLAR>
0

>  <SCORE.INTER.ROT>
7

>  <SCORE.INTER.SOLV>
13.5743

>  <SCORE.INTER.VDW>
-21.5161

>  <SCORE.INTER.norm>
-0.503344

>  <SCORE.INTRA>
1.07332

>  <SCORE.INTRA.DIHEDRAL>
7.74329

>  <SCORE.INTRA.DIHEDRAL.0>
5.78979

>  <SCORE.INTRA.POLAR>
0

>  <SCORE.INTRA.POLAR.0>
0

>  <SCORE.INTRA.REPUL>
0

>  <SCORE.INTRA.REPUL.0>
0

>  <SCORE.INTRA.SOLV>
0.842529

>  <SCORE.INTRA.SOLV.lig_0>
-49.9151

>  <SCORE.INTRA.VDW>
-3.21958

>  <SCORE.INTRA.VDW.0>
-0.211125

>  <SCORE.INTRA.norm>
0.0412816

>  <SCORE.RESTR>
0

>  <SCORE.RESTR.CAVITY>
0

>  <SCORE.RESTR.norm>
0

>  <SCORE.SYSTEM>
0

>  <SCORE.SYSTEM.CONST>
0

>  <SCORE.SYSTEM.DIHEDRAL>
0

>  <SCORE.SYSTEM.SOLV>
0

>  <SCORE.SYSTEM.norm>
0

>  <SCORE.heavy>
26

>  <SCORE.norm>
-0.462062

>  <RMSD>
4.919

$$$$
ligand
 OpenBabel11021811483D
libRbt.so/2013.1/901 2013/11/27
 26 28  0  0  0  0  0  0  0  0999 V2000
   48.2951   52.6361   27.9565 N   0  0  0  0  0  0  0  0  0  0  0  0
   49.6908   53.0823   27.9818 C   0  0  2  0  0  0  0  0  0  0  0  0
   50.6454   52.2036   27.1704 C   0  0  0  0  0  0  0  0  0  0  0  0
   51.6302   52.7355   26.6573 O   0  0  0  0  0  0  0  0  0  0  0  0
   50.2995   53.2233   29.3830 C   0  0  0  0  0  0  0  0  0  0  0  0
   49.7469   54.2263   30.3807 C   0  0  0  0  0  0  0  0  0  0  0  0
   50.0179   55.8644   29.6658 S   0  0  0  0  0  0  0  0  0  0  0  0
   48.2442   56.1426   29.8850 C   0  0  0  0  0  0  0  0  0  0  0  0
   47.8929   57.4291   30.6399 C   0  0  1  0  0  0  0  0  0  0  0  0
   46.4835   57.6715   30.7166 O   0  0  0  0  0  0  0  0  0  0  0  0
   48.4174   57.3797   32.0676 C   0  0  1  0  0  0  0  0  0  0  0  0
   49.7030   57.9519   32.1634 O   0  0  0  0  0  0  0  0  0  0  0  0
   47.3676   58.1203   32.8858 C   0  0  1  0  0  0  0  0  0  0  0  0
   47.6708   59.4960   33.0005 O   0  0  0  0  0  0  0  0  0  0  0  0
   46.1113   57.9922   32.0471 C   0  0  2  0  0  0  0  0  0  0  0  0
   50.4775   50.9867   27.0218 O   0  0  0  0  0  0  0  0  0  0  0  0
   41.6863   55.2698   31.2554 N   0  0  0  0  0  0  0  0  0  0  0  0
   42.2685   56.2018   30.4337 C   0  0  0  0  0  0  0  0  0  0  0  0
   43.4320   56.8312   30.8237 N   0  0  0  0  0  0  0  0  0  0  0  0
   44.0330   56.5229   31.9866 C   0  0  0  0  0  0  0  0  0  0  0  0
   43.4627   55.5840   32.8292 C   0  0  0  0  0  0  0  0  0  0  0  0
   42.2865   54.9671   32.4519 C   0  0  0  0  0  0  0  0  0  0  0  0
   41.7322   54.0606   33.2333 N   0  0  0  0  0  0  0  0  0  0  0  0
   44.2505   55.4583   33.9204 N   0  0  0  0  0  0  0  0  0  0  0  0
   45.2923   56.3184   33.7925 C   0  0  0  0  0  0  0  0  0  0  0  0
   45.1713   56.9859   32.5934 N   0  0  0  0  0  0  0  0  0  0  0  0
  2  1  1  1  0  0  0
  2  3  1  0  0  0  0
  2  5  1  0  0  0  0
  3  4  1  0  0  0  0
  3 16  1  0  0  0  0
  5  6  1  0  0  0  0
  6  7  1  0  0  0  0
  7  8  1  0  0  0  0
  9  8  1  1  0  0  0
  9 10  1  0  0  0  0
  9 11  1  0  0  0  0
 10 15  1  0  0  0  0
 11 12  1  6  0  0  0
 11 13  1  0  0  0  0
 13 14  1  6  0  0  0
 13 15  1  0  0  0  0
 15 26  1  1  0  0  0
 17 18  2  0  0  0  0
 17 22  1  0  0  0  0
 18 19  1  0  0  0  0
 19 20  2  0  0  0  0
 20 21  1  0  0  0  0
 20 26  1  0  0  0  0
 21 22  2  0  0  0  0
 21 24  1  0  0  0  0
 22 23  1  0  0  0  0
 24 25  2  0  0  0  0
 25 26  1  0  0  0  0
M  END
>  <CHROM.1>
149.46058032,-63.06891654,-63.59684353,125.34421631,127.59583380,175.85820829
-49.63650830,47.05411642,55.60115082,30.77688539,0.63038655,-0.27297702,-2.54336139

>  <Name>
ligand

>  <RI>
0

>  <Rbt.Current_Directory>
/home/itssahil/PROJECTS/Mol_Feturizer/New_Systems/rnas/3GX3

>  <Rbt.Executable>
rbdock ($Id: //depot/dev/client3/rdock/2013.1/src/exe/rbdock.cxx#4 $)

>  <Rbt.Library>
libRbt.so (2013.1, Build901 2013/11/27)

>  <Rbt.Parameter_File>
/export/apps/rDock/src/rDock_2013.1_src/data/scripts/dock_solv.prm

>  <Rbt.Receptor>
prm/pocket_docking_6.prm

>  <SCORE>
-12.2324

>  <SCORE.INTER>
-11.1569

>  <SCORE.INTER.CONST>
1

>  <SCORE.INTER.POLAR>
0

>  <SCORE.INTER.ROT>
7

>  <SCORE.INTER.SOLV>
8.63167

>  <SCORE.INTER.VDW>
-18.5818

>  <SCORE.INTER.norm>
-0.42911

>  <SCORE.INTRA>
-1.08644

>  <SCORE.INTRA.DIHEDRAL>
1.83684

>  <SCORE.INTRA.DIHEDRAL.0>
5.78979

>  <SCORE.INTRA.POLAR>
0

>  <SCORE.INTRA.POLAR.0>
0

>  <SCORE.INTRA.REPUL>
0

>  <SCORE.INTRA.REPUL.0>
0

>  <SCORE.INTRA.SOLV>
0.709528

>  <SCORE.INTRA.SOLV.lig_0>
-49.9151

>  <SCORE.INTRA.VDW>
-2.35963

>  <SCORE.INTRA.VDW.0>
-0.211125

>  <SCORE.INTRA.norm>
-0.0417863

>  <SCORE.RESTR>
0.0109234

>  <SCORE.RESTR.CAVITY>
0.0109234

>  <SCORE.RESTR.norm>
0.00042013

>  <SCORE.SYSTEM>
0

>  <SCORE.SYSTEM.CONST>
0

>  <SCORE.SYSTEM.DIHEDRAL>
0

>  <SCORE.SYSTEM.SOLV>
0

>  <SCORE.SYSTEM.norm>
0

>  <SCORE.heavy>
26

>  <SCORE.norm>
-0.470477

>  <RMSD>
4.923

$$$$
ligand
 OpenBabel11021811483D
libRbt.so/2013.1/901 2013/11/27
 26 28  0  0  0  0  0  0  0  0999 V2000
   48.5871   53.1935   28.5365 N   0  0  0  0  0  0  0  0  0  0  0  0
   48.3881   54.6307   28.7432 C   0  0  2  0  0  0  0  0  0  0  0  0
   46.9339   55.0323   28.9995 C   0  0  0  0  0  0  0  0  0  0  0  0
   46.6440   55.4908   30.1049 O   0  0  0  0  0  0  0  0  0  0  0  0
   48.9024   55.5248   27.6075 C   0  0  0  0  0  0  0  0  0  0  0  0
   49.0574   57.0235   27.7983 C   0  0  0  0  0  0  0  0  0  0  0  0
   47.4043   57.7360   27.6332 S   0  0  0  0  0  0  0  0  0  0  0  0
   47.6320   58.3960   29.3017 C   0  0  0  0  0  0  0  0  0  0  0  0
   46.3635   58.9830   29.9298 C   0  0  1  0  0  0  0  0  0  0  0  0
   45.4193   57.9846   30.3332 O   0  0  0  0  0  0  0  0  0  0  0  0
   46.7014   59.8052   31.1651 C   0  0  1  0  0  0  0  0  0  0  0  0
   46.8896   61.1652   30.8422 O   0  0  0  0  0  0  0  0  0  0  0  0
   45.5324   59.5689   32.1125 C   0  0  1  0  0  0  0  0  0  0  0  0
   44.5218   60.5430   31.9470 O   0  0  0  0  0  0  0  0  0  0  0  0
   44.9706   58.2373   31.6547 C   0  0  2  0  0  0  0  0  0  0  0  0
   46.0465   54.9297   28.1433 O   0  0  0  0  0  0  0  0  0  0  0  0
   48.8723   55.7885   34.1842 N   0  0  0  0  0  0  0  0  0  0  0  0
   48.9511   56.8756   33.3508 C   0  0  0  0  0  0  0  0  0  0  0  0
   47.8090   57.3717   32.7578 N   0  0  0  0  0  0  0  0  0  0  0  0
   46.6040   56.8301   33.0088 C   0  0  0  0  0  0  0  0  0  0  0  0
   46.5026   55.7338   33.8482 C   0  0  0  0  0  0  0  0  0  0  0  0
   47.6465   55.2211   34.4271 C   0  0  0  0  0  0  0  0  0  0  0  0
   47.5718   54.1850   35.2397 N   0  0  0  0  0  0  0  0  0  0  0  0
   45.2001   55.3827   33.9331 N   0  0  0  0  0  0  0  0  0  0  0  0
   44.4827   56.2212   33.1433 C   0  0  0  0  0  0  0  0  0  0  0  0
   45.3425   57.1282   32.5636 N   0  0  0  0  0  0  0  0  0  0  0  0
  2  1  1  6  0  0  0
  2  3  1  0  0  0  0
  2  5  1  0  0  0  0
  3  4  1  0  0  0  0
  3 16  1  0  0  0  0
  5  6  1  0  0  0  0
  6  7  1  0  0  0  0
  7  8  1  0  0  0  0
  9  8  1  1  0  0  0
  9 10  1  0  0  0  0
  9 11  1  0  0  0  0
 10 15  1  0  0  0  0
 11 12  1  6  0  0  0
 11 13  1  0  0  0  0
 13 14  1  6  0  0  0
 13 15  1  0  0  0  0
 15 26  1  1  0  0  0
 17 18  2  0  0  0  0
 17 22  1  0  0  0  0
 18 19  1  0  0  0  0
 19 20  2  0  0  0  0
 20 21  1  0  0  0  0
 20 26  1  0  0  0  0
 21 22  2  0  0  0  0
 21 24  1  0  0  0  0
 22 23  1  0  0  0  0
 24 25  2  0  0  0  0
 25 26  1  0  0  0  0
M  END
>  <CHROM.1>
114.25007660,-166.11899501,-79.05339114,121.81244746,-169.41733996,73.28837331
71.36123077,46.89047796,56.96592557,30.96283548,-0.96824924,-1.15625583,2.06150178

>  <Name>
ligand

>  <RI>
0

>  <Rbt.Current_Directory>
/home/itssahil/PROJECTS/Mol_Feturizer/New_Systems/rnas/3GX3

>  <Rbt.Executable>
rbdock ($Id: //depot/dev/client3/rdock/2013.1/src/exe/rbdock.cxx#4 $)

>  <Rbt.Library>
libRbt.so (2013.1, Build901 2013/11/27)

>  <Rbt.Parameter_File>
/export/apps/rDock/src/rDock_2013.1_src/data/scripts/dock_solv.prm

>  <Rbt.Receptor>
prm/pocket_docking_3.prm

>  <SCORE>
-14.0733

>  <SCORE.INTER>
-9.99718

>  <SCORE.INTER.CONST>
1

>  <SCORE.INTER.POLAR>
0

>  <SCORE.INTER.ROT>
7

>  <SCORE.INTER.SOLV>
12.3996

>  <SCORE.INTER.VDW>
-19.0646

>  <SCORE.INTER.norm>
-0.384507

>  <SCORE.INTRA>
-4.07614

>  <SCORE.INTRA.DIHEDRAL>
2.16134

>  <SCORE.INTRA.DIHEDRAL.0>
5.78979

>  <SCORE.INTRA.POLAR>
0

>  <SCORE.INTRA.POLAR.0>
0

>  <SCORE.INTRA.REPUL>
0

>  <SCORE.INTRA.REPUL.0>
0

>  <SCORE.INTRA.SOLV>
-0.815404

>  <SCORE.INTRA.SOLV.lig_0>
-49.9151

>  <SCORE.INTRA.VDW>
-4.7491

>  <SCORE.INTRA.VDW.0>
-0.211125

>  <SCORE.INTRA.norm>
-0.156775

>  <SCORE.RESTR>
0

>  <SCORE.RESTR.CAVITY>
0

>  <SCORE.RESTR.norm>
0

>  <SCORE.SYSTEM>
0

>  <SCORE.SYSTEM.CONST>
0

>  <SCORE.SYSTEM.DIHEDRAL>
0

>  <SCORE.SYSTEM.SOLV>
0

>  <SCORE.SYSTEM.norm>
0

>  <SCORE.heavy>
26

>  <SCORE.norm>
-0.541282

>  <RMSD>
4.926

$$$$
ligand
 OpenBabel11021811483D
libRbt.so/2013.1/901 2013/11/27
 26 28  0  0  0  0  0  0  0  0999 V2000
   47.8749   53.5736   28.8161 N   0  0  0  0  0  0  0  0  0  0  0  0
   49.2695   53.2001   29.0677 C   0  0  2  0  0  0  0  0  0  0  0  0
   49.6698   53.2276   30.5445 C   0  0  0  0  0  0  0  0  0  0  0  0
   50.6083   52.5169   30.9053 O   0  0  0  0  0  0  0  0  0  0  0  0
   50.3095   54.0351   28.3097 C   0  0  0  0  0  0  0  0  0  0  0  0
   50.6313   55.4581   28.7318 C   0  0  0  0  0  0  0  0  0  0  0  0
   49.0935   56.3971   28.5864 S   0  0  0  0  0  0  0  0  0  0  0  0
   49.2590   56.7483   30.3529 C   0  0  0  0  0  0  0  0  0  0  0  0
   48.5610   58.0329   30.8120 C   0  0  1  0  0  0  0  0  0  0  0  0
   47.1325   57.9538   30.7457 O   0  0  0  0  0  0  0  0  0  0  0  0
   48.9250   58.3619   32.2526 C   0  0  1  0  0  0  0  0  0  0  0  0
   50.0405   59.2226   32.3176 O   0  0  0  0  0  0  0  0  0  0  0  0
   47.6585   58.9748   32.8360 C   0  0  1  0  0  0  0  0  0  0  0  0
   47.6467   60.3811   32.6948 O   0  0  0  0  0  0  0  0  0  0  0  0
   46.5577   58.4127   31.9583 C   0  0  2  0  0  0  0  0  0  0  0  0
   49.1031   53.9405   31.3821 O   0  0  0  0  0  0  0  0  0  0  0  0
   46.8340   54.0789   34.9180 N   0  0  0  0  0  0  0  0  0  0  0  0
   47.8641   54.8584   34.4555 C   0  0  0  0  0  0  0  0  0  0  0  0
   47.5942   55.9583   33.6684 N   0  0  0  0  0  0  0  0  0  0  0  0
   46.3299   56.3069   33.3709 C   0  0  0  0  0  0  0  0  0  0  0  0
   45.2763   55.5346   33.8293 C   0  0  0  0  0  0  0  0  0  0  0  0
   45.5435   54.4205   34.5999 C   0  0  0  0  0  0  0  0  0  0  0  0
   44.5546   53.6774   35.0575 N   0  0  0  0  0  0  0  0  0  0  0  0
   44.1225   56.0901   33.3963 N   0  0  0  0  0  0  0  0  0  0  0  0
   44.4309   57.1828   32.6532 C   0  0  0  0  0  0  0  0  0  0  0  0
   45.8004   57.3313   32.6303 N   0  0  0  0  0  0  0  0  0  0  0  0
  2  1  1  1  0  0  0
  2  3  1  0  0  0  0
  2  5  1  0  0  0  0
  3  4  1  0  0  0  0
  3 16  1  0  0  0  0
  5  6  1  0  0  0  0
  6  7  1  0  0  0  0
  7  8  1  0  0  0  0
  9  8  1  1  0  0  0
  9 10  1  0  0  0  0
  9 11  1  0  0  0  0
 10 15  1  0  0  0  0
 11 12  1  6  0  0  0
 11 13  1  0  0  0  0
 13 14  1  6  0  0  0
 13 15  1  0  0  0  0
 15 26  1  1  0  0  0
 17 18  2  0  0  0  0
 17 22  1  0  0  0  0
 18 19  1  0  0  0  0
 19 20  2  0  0  0  0
 20 21  1  0  0  0  0
 20 26  1  0  0  0  0
 21 22  2  0  0  0  0
 21 24  1  0  0  0  0
 22 23  1  0  0  0  0
 24 25  2  0  0  0  0
 25 26  1  0  0  0  0
M  END
>  <CHROM.1>
155.07434214,74.52924945,-60.77301665,120.68528392,154.70707075,68.23088389
78.53428399,47.84893063,56.04109585,31.67747547,0.28699246,-0.85455682,3.12964734

>  <Name>
ligand

>  <RI>
0

>  <Rbt.Current_Directory>
/home/itssahil/PROJECTS/Mol_Feturizer/New_Systems/rnas/3GX3

>  <Rbt.Executable>
rbdock ($Id: //depot/dev/client3/rdock/2013.1/src/exe/rbdock.cxx#4 $)

>  <Rbt.Library>
libRbt.so (2013.1, Build901 2013/11/27)

>  <Rbt.Parameter_File>
/export/apps/rDock/src/rDock_2013.1_src/data/scripts/dock_solv.prm

>  <Rbt.Receptor>
prm/pocket_docking_6.prm

>  <SCORE>
-15.7651

>  <SCORE.INTER>
-13.5764

>  <SCORE.INTER.CONST>
1

>  <SCORE.INTER.POLAR>
0

>  <SCORE.INTER.ROT>
7

>  <SCORE.INTER.SOLV>
11.3969

>  <SCORE.INTER.VDW>
-21.1166

>  <SCORE.INTER.norm>
-0.52217

>  <SCORE.INTRA>
-2.19699

>  <SCORE.INTRA.DIHEDRAL>
1.29686

>  <SCORE.INTRA.DIHEDRAL.0>
5.78979

>  <SCORE.INTRA.POLAR>
0

>  <SCORE.INTRA.POLAR.0>
0

>  <SCORE.INTRA.REPUL>
0

>  <SCORE.INTRA.REPUL.0>
0

>  <SCORE.INTRA.SOLV>
1.29532

>  <SCORE.INTRA.SOLV.lig_0>
-49.9151

>  <SCORE.INTRA.VDW>
-3.49308

>  <SCORE.INTRA.VDW.0>
-0.211125

>  <SCORE.INTRA.norm>
-0.0844996

>  <SCORE.RESTR>
0.00828573

>  <SCORE.RESTR.CAVITY>
0.00828573

>  <SCORE.RESTR.norm>
0.000318682

>  <SCORE.SYSTEM>
0

>  <SCORE.SYSTEM.CONST>
0

>  <SCORE.SYSTEM.DIHEDRAL>
0

>  <SCORE.SYSTEM.SOLV>
0

>  <SCORE.SYSTEM.norm>
0

>  <SCORE.heavy>
26

>  <SCORE.norm>
-0.606351

>  <RMSD>
4.938

$$$$
ligand
 OpenBabel11021811483D
libRbt.so/2013.1/901 2013/11/27
 26 28  0  0  0  0  0  0  0  0999 V2000
   46.6152   53.8926   26.1732 N   0  0  0  0  0  0  0  0  0  0  0  0
   47.4033   54.1103   27.3894 C   0  0  2  0  0  0  0  0  0  0  0  0
   47.7825   52.8258   28.1297 C   0  0  0  0  0  0  0  0  0  0  0  0
   48.8991   52.7600   28.6445 O   0  0  0  0  0  0  0  0  0  0  0  0
   46.7561   55.0432   28.4212 C   0  0  0  0  0  0  0  0  0  0  0  0
   46.4640   56.4963   28.0899 C   0  0  0  0  0  0  0  0  0  0  0  0
   48.0457   57.2497   27.6447 S   0  0  0  0  0  0  0  0  0  0  0  0
   48.3791   57.3572   29.4191 C   0  0  0  0  0  0  0  0  0  0  0  0
   47.7999   58.6025   30.0987 C   0  0  1  0  0  0  0  0  0  0  0  0
   46.3689   58.5994   30.1575 O   0  0  0  0  0  0  0  0  0  0  0  0
   48.3068   58.7245   31.5284 C   0  0  1  0  0  0  0  0  0  0  0  0
   49.4720   59.5165   31.5953 O   0  0  0  0  0  0  0  0  0  0  0  0
   47.1339   59.3150   32.3003 C   0  0  1  0  0  0  0  0  0  0  0  0
   47.1919   60.7267   32.3376 O   0  0  0  0  0  0  0  0  0  0  0  0
   45.9298   58.9235   31.4666 C   0  0  2  0  0  0  0  0  0  0  0  0
   47.0136   51.8631   28.2441 O   0  0  0  0  0  0  0  0  0  0  0  0
   46.1623   54.5959   34.4391 N   0  0  0  0  0  0  0  0  0  0  0  0
   47.1878   55.4307   34.0729 C   0  0  0  0  0  0  0  0  0  0  0  0
   46.9335   56.5187   33.2644 N   0  0  0  0  0  0  0  0  0  0  0  0
   45.6851   56.8019   32.8524 C   0  0  0  0  0  0  0  0  0  0  0  0
   44.6361   55.9731   33.2123 C   0  0  0  0  0  0  0  0  0  0  0  0
   44.8901   54.8709   34.0042 C   0  0  0  0  0  0  0  0  0  0  0  0
   43.9040   54.0748   34.3693 N   0  0  0  0  0  0  0  0  0  0  0  0
   43.4992   56.4694   32.6755 N   0  0  0  0  0  0  0  0  0  0  0  0
   43.8161   57.5804   31.9638 C   0  0  0  0  0  0  0  0  0  0  0  0
   45.1723   57.8007   32.0664 N   0  0  0  0  0  0  0  0  0  0  0  0
  2  1  1  6  0  0  0
  2  3  1  0  0  0  0
  2  5  1  0  0  0  0
  3  4  1  0  0  0  0
  3 16  1  0  0  0  0
  5  6  1  0  0  0  0
  6  7  1  0  0  0  0
  7  8  1  0  0  0  0
  9  8  1  1  0  0  0
  9 10  1  0  0  0  0
  9 11  1  0  0  0  0
 10 15  1  0  0  0  0
 11 12  1  6  0  0  0
 11 13  1  0  0  0  0
 13 14  1  6  0  0  0
 13 15  1  0  0  0  0
 15 26  1  1  0  0  0
 17 18  2  0  0  0  0
 17 22  1  0  0  0  0
 18 19  1  0  0  0  0
 19 20  2  0  0  0  0
 20 21  1  0  0  0  0
 20 26  1  0  0  0  0
 21 22  2  0  0  0  0
 21 24  1  0  0  0  0
 22 23  1  0  0  0  0
 24 25  2  0  0  0  0
 25 26  1  0  0  0  0
M  END
>  <CHROM.1>
141.94943509,-62.38239225,-58.58254817,-79.35691623,-85.05873000,68.47276854
92.59584466,46.71592551,56.44423927,30.72520825,1.02032202,-1.05550529,-2.61814167

>  <Name>
ligand

>  <RI>
0

>  <Rbt.Current_Directory>
/home/itssahil/PROJECTS/Mol_Feturizer/New_Systems/rnas/3GX3

>  <Rbt.Executable>
rbdock ($Id: //depot/dev/client3/rdock/2013.1/src/exe/rbdock.cxx#4 $)

>  <Rbt.Library>
libRbt.so (2013.1, Build901 2013/11/27)

>  <Rbt.Parameter_File>
/export/apps/rDock/src/rDock_2013.1_src/data/scripts/dock_solv.prm

>  <Rbt.Receptor>
prm/pocket_docking_4.prm

>  <SCORE>
-12.5048

>  <SCORE.INTER>
-10.2121

>  <SCORE.INTER.CONST>
1

>  <SCORE.INTER.POLAR>
0

>  <SCORE.INTER.ROT>
7

>  <SCORE.INTER.SOLV>
12.1746

>  <SCORE.INTER.VDW>
-19.1329

>  <SCORE.INTER.norm>
-0.392773

>  <SCORE.INTRA>
-2.29526

>  <SCORE.INTRA.DIHEDRAL>
-1.20203

>  <SCORE.INTRA.DIHEDRAL.0>
5.78979

>  <SCORE.INTRA.POLAR>
0

>  <SCORE.INTRA.POLAR.0>
0

>  <SCORE.INTRA.REPUL>
0

>  <SCORE.INTRA.REPUL.0>
0

>  <SCORE.INTRA.SOLV>
0.21464

>  <SCORE.INTRA.SOLV.lig_0>
-49.9151

>  <SCORE.INTRA.VDW>
-1.80156

>  <SCORE.INTRA.VDW.0>
-0.211125

>  <SCORE.INTRA.norm>
-0.0882791

>  <SCORE.RESTR>
0.00254688

>  <SCORE.RESTR.CAVITY>
0.00254688

>  <SCORE.RESTR.norm>
9.79568e-05

>  <SCORE.SYSTEM>
0

>  <SCORE.SYSTEM.CONST>
0

>  <SCORE.SYSTEM.DIHEDRAL>
0

>  <SCORE.SYSTEM.SOLV>
0

>  <SCORE.SYSTEM.norm>
0

>  <SCORE.heavy>
26

>  <SCORE.norm>
-0.480954

>  <RMSD>
4.939

$$$$
ligand
 OpenBabel11021811483D
libRbt.so/2013.1/901 2013/11/27
 26 28  0  0  0  0  0  0  0  0999 V2000
   45.9645   60.9873   31.8597 N   0  0  0  0  0  0  0  0  0  0  0  0
   46.0486   59.6033   31.3853 C   0  0  2  0  0  0  0  0  0  0  0  0
   45.1708   58.6193   32.1619 C   0  0  0  0  0  0  0  0  0  0  0  0
   43.9496   58.6974   32.0254 O   0  0  0  0  0  0  0  0  0  0  0  0
   47.4643   59.0126   31.3614 C   0  0  0  0  0  0  0  0  0  0  0  0
   48.3383   59.0206   32.6034 C   0  0  0  0  0  0  0  0  0  0  0  0
   49.5565   57.7035   32.3827 S   0  0  0  0  0  0  0  0  0  0  0  0
   49.1466   57.1805   34.0649 C   0  0  0  0  0  0  0  0  0  0  0  0
   48.2661   55.9287   34.1428 C   0  0  1  0  0  0  0  0  0  0  0  0
   47.7050   55.5538   32.8796 O   0  0  0  0  0  0  0  0  0  0  0  0
   49.0637   54.7362   34.6504 C   0  0  1  0  0  0  0  0  0  0  0  0
   48.9634   54.6089   36.0515 O   0  0  0  0  0  0  0  0  0  0  0  0
   48.4896   53.5439   33.8962 C   0  0  1  0  0  0  0  0  0  0  0  0
   47.4369   52.9311   34.6130 O   0  0  0  0  0  0  0  0  0  0  0  0
   47.8972   54.1679   32.6479 C   0  0  2  0  0  0  0  0  0  0  0  0
   45.6348   57.7453   32.9047 O   0  0  0  0  0  0  0  0  0  0  0  0
   49.0941   55.7597   27.7846 N   0  0  0  0  0  0  0  0  0  0  0  0
   48.1548   56.2772   28.6405 C   0  0  0  0  0  0  0  0  0  0  0  0
   47.9692   55.7085   29.8831 N   0  0  0  0  0  0  0  0  0  0  0  0
   48.7201   54.6703   30.2917 C   0  0  0  0  0  0  0  0  0  0  0  0
   49.6745   54.1345   29.4438 C   0  0  0  0  0  0  0  0  0  0  0  0
   49.8487   54.6878   28.1909 C   0  0  0  0  0  0  0  0  0  0  0  0
   50.7605   54.2012   27.3715 N   0  0  0  0  0  0  0  0  0  0  0  0
   50.2838   53.1110   30.0829 N   0  0  0  0  0  0  0  0  0  0  0  0
   49.7140   52.9762   31.3070 C   0  0  0  0  0  0  0  0  0  0  0  0
   48.7410   53.9408   31.4517 N   0  0  0  0  0  0  0  0  0  0  0  0
  2  1  1  1  0  0  0
  2  3  1  0  0  0  0
  2  5  1  0  0  0  0
  3  4  1  0  0  0  0
  3 16  1  0  0  0  0
  5  6  1  0  0  0  0
  6  7  1  0  0  0  0
  7  8  1  0  0  0  0
  9  8  1  6  0  0  0
  9 10  1  0  0  0  0
  9 11  1  0  0  0  0
 10 15  1  0  0  0  0
 11 12  1  1  0  0  0
 11 13  1  0  0  0  0
 13 14  1  1  0  0  0
 13 15  1  0  0  0  0
 15 26  1  6  0  0  0
 17 18  2  0  0  0  0
 17 22  1  0  0  0  0
 18 19  1  0  0  0  0
 19 20  2  0  0  0  0
 20 21  1  0  0  0  0
 20 26  1  0  0  0  0
 21 22  2  0  0  0  0
 21 24  1  0  0  0  0
 22 23  1  0  0  0  0
 24 25  2  0  0  0  0
 25 26  1  0  0  0  0
M  END
>  <CHROM.1>
70.05212572,54.19177080,157.31724335,-132.31433674,104.31501274,-11.84337075
-37.40663984,48.17595070,56.09144759,31.81382946,3.08677836,-1.02381088,1.93848732

>  <Name>
ligand

>  <RI>
0

>  <Rbt.Current_Directory>
/home/itssahil/PROJECTS/Mol_Feturizer/New_Systems/rnas/3GX3

>  <Rbt.Executable>
rbdock ($Id: //depot/dev/client3/rdock/2013.1/src/exe/rbdock.cxx#4 $)

>  <Rbt.Library>
libRbt.so (2013.1, Build901 2013/11/27)

>  <Rbt.Parameter_File>
/export/apps/rDock/src/rDock_2013.1_src/data/scripts/dock_solv.prm

>  <Rbt.Receptor>
prm/pocket_docking_2.prm

>  <SCORE>
-11.6933

>  <SCORE.INTER>
-13.4154

>  <SCORE.INTER.CONST>
1

>  <SCORE.INTER.POLAR>
0

>  <SCORE.INTER.ROT>
7

>  <SCORE.INTER.SOLV>
14.7401

>  <SCORE.INTER.VDW>
-22.1236

>  <SCORE.INTER.norm>
-0.515976

>  <SCORE.INTRA>
0.998418

>  <SCORE.INTRA.DIHEDRAL>
7.91935

>  <SCORE.INTRA.DIHEDRAL.0>
5.78979

>  <SCORE.INTRA.POLAR>
0

>  <SCORE.INTRA.POLAR.0>
0

>  <SCORE.INTRA.REPUL>
0

>  <SCORE.INTRA.REPUL.0>
0

>  <SCORE.INTRA.SOLV>
-0.11633

>  <SCORE.INTRA.SOLV.lig_0>
-49.9151

>  <SCORE.INTRA.VDW>
-2.90309

>  <SCORE.INTRA.VDW.0>
-0.211125

>  <SCORE.INTRA.norm>
0.0384007

>  <SCORE.RESTR>
0.723643

>  <SCORE.RESTR.CAVITY>
0.723643

>  <SCORE.RESTR.norm>
0.0278324

>  <SCORE.SYSTEM>
0

>  <SCORE.SYSTEM.CONST>
0

>  <SCORE.SYSTEM.DIHEDRAL>
0

>  <SCORE.SYSTEM.SOLV>
0

>  <SCORE.SYSTEM.norm>
0

>  <SCORE.heavy>
26

>  <SCORE.norm>
-0.449743

>  <RMSD>
4.945

$$$$
ligand
 OpenBabel11021811483D
libRbt.so/2013.1/901 2013/11/27
 26 28  0  0  0  0  0  0  0  0999 V2000
   47.8031   53.7985   29.0681 N   0  0  0  0  0  0  0  0  0  0  0  0
   49.1853   53.3170   29.1408 C   0  0  2  0  0  0  0  0  0  0  0  0
   49.7761   53.3161   30.5525 C   0  0  0  0  0  0  0  0  0  0  0  0
   50.8318   52.7109   30.7400 O   0  0  0  0  0  0  0  0  0  0  0  0
   50.1791   54.0661   28.2437 C   0  0  0  0  0  0  0  0  0  0  0  0
   50.5473   55.5135   28.5193 C   0  0  0  0  0  0  0  0  0  0  0  0
   49.0080   56.4583   28.4444 S   0  0  0  0  0  0  0  0  0  0  0  0
   49.1984   56.7172   30.2243 C   0  0  0  0  0  0  0  0  0  0  0  0
   48.5244   57.9866   30.7560 C   0  0  1  0  0  0  0  0  0  0  0  0
   47.0962   57.8905   30.8019 O   0  0  0  0  0  0  0  0  0  0  0  0
   48.9980   58.3006   32.1677 C   0  0  1  0  0  0  0  0  0  0  0  0
   50.1052   59.1742   32.1566 O   0  0  0  0  0  0  0  0  0  0  0  0
   47.7750   58.8896   32.8586 C   0  0  1  0  0  0  0  0  0  0  0  0
   47.7359   60.2973   32.7392 O   0  0  0  0  0  0  0  0  0  0  0  0
   46.6143   58.3257   32.0628 C   0  0  2  0  0  0  0  0  0  0  0  0
   49.2482   53.9063   31.5032 O   0  0  0  0  0  0  0  0  0  0  0  0
   47.1616   54.1078   35.1496 N   0  0  0  0  0  0  0  0  0  0  0  0
   48.1420   54.9278   34.6506 C   0  0  0  0  0  0  0  0  0  0  0  0
   47.8033   55.9862   33.8338 N   0  0  0  0  0  0  0  0  0  0  0  0
   46.5185   56.2556   33.5417 C   0  0  0  0  0  0  0  0  0  0  0  0
   45.5141   55.4413   34.0367 C   0  0  0  0  0  0  0  0  0  0  0  0
   45.8508   54.3681   34.8375 C   0  0  0  0  0  0  0  0  0  0  0  0
   44.9094   53.5866   35.3300 N   0  0  0  0  0  0  0  0  0  0  0  0
   44.3269   55.9190   33.6015 N   0  0  0  0  0  0  0  0  0  0  0  0
   44.5663   57.0033   32.8216 C   0  0  0  0  0  0  0  0  0  0  0  0
   45.9252   57.2259   32.7770 N   0  0  0  0  0  0  0  0  0  0  0  0
  2  1  1  1  0  0  0
  2  3  1  0  0  0  0
  2  5  1  0  0  0  0
  3  4  1  0  0  0  0
  3 16  1  0  0  0  0
  5  6  1  0  0  0  0
  6  7  1  0  0  0  0
  7  8  1  0  0  0  0
  9  8  1  1  0  0  0
  9 10  1  0  0  0  0
  9 11  1  0  0  0  0
 10 15  1  0  0  0  0
 11 12  1  6  0  0  0
 11 13  1  0  0  0  0
 13 14  1  6  0  0  0
 13 15  1  0  0  0  0
 15 26  1  1  0  0  0
 17 18  2  0  0  0  0
 17 22  1  0  0  0  0
 18 19  1  0  0  0  0
 19 20  2  0  0  0  0
 20 21  1  0  0  0  0
 20 26  1  0  0  0  0
 21 22  2  0  0  0  0
 21 24  1  0  0  0  0
 22 23  1  0  0  0  0
 24 25  2  0  0  0  0
 25 26  1  0  0  0  0
M  END
>  <CHROM.1>
167.23762881,67.82621939,-59.32558225,111.85243566,153.86868442,72.89973414
83.80109316,47.93941223,56.03102167,31.72685019,0.14180546,-0.92317165,3.05826388

>  <Name>
ligand

>  <RI>
0

>  <Rbt.Current_Directory>
/home/itssahil/PROJECTS/Mol_Feturizer/New_Systems/rnas/3GX3

>  <Rbt.Executable>
rbdock ($Id: //depot/dev/client3/rdock/2013.1/src/exe/rbdock.cxx#4 $)

>  <Rbt.Library>
libRbt.so (2013.1, Build901 2013/11/27)

>  <Rbt.Parameter_File>
/export/apps/rDock/src/rDock_2013.1_src/data/scripts/dock_solv.prm

>  <Rbt.Receptor>
prm/pocket_docking_5.prm

>  <SCORE>
-15.7467

>  <SCORE.INTER>
-13.8669

>  <SCORE.INTER.CONST>
1

>  <SCORE.INTER.POLAR>
0

>  <SCORE.INTER.ROT>
7

>  <SCORE.INTER.SOLV>
11.6114

>  <SCORE.INTER.VDW>
-21.3817

>  <SCORE.INTER.norm>
-0.533341

>  <SCORE.INTRA>
-1.87986

>  <SCORE.INTRA.DIHEDRAL>
1.08054

>  <SCORE.INTRA.DIHEDRAL.0>
5.78979

>  <SCORE.INTRA.POLAR>
0

>  <SCORE.INTRA.POLAR.0>
0

>  <SCORE.INTRA.REPUL>
0

>  <SCORE.INTRA.REPUL.0>
0

>  <SCORE.INTRA.SOLV>
1.65428

>  <SCORE.INTRA.SOLV.lig_0>
-49.9151

>  <SCORE.INTRA.VDW>
-3.24727

>  <SCORE.INTRA.VDW.0>
-0.211125

>  <SCORE.INTRA.norm>
-0.0723022

>  <SCORE.RESTR>
0

>  <SCORE.RESTR.CAVITY>
0

>  <SCORE.RESTR.norm>
0

>  <SCORE.SYSTEM>
0

>  <SCORE.SYSTEM.CONST>
0

>  <SCORE.SYSTEM.DIHEDRAL>
0

>  <SCORE.SYSTEM.SOLV>
0

>  <SCORE.SYSTEM.norm>
0

>  <SCORE.heavy>
26

>  <SCORE.norm>
-0.605643

>  <RMSD>
4.954

$$$$
ligand
 OpenBabel11021811483D
libRbt.so/2013.1/901 2013/11/27
 26 28  0  0  0  0  0  0  0  0999 V2000
   46.0106   57.8052   32.0295 N   0  0  0  0  0  0  0  0  0  0  0  0
   46.6298   58.9596   31.3724 C   0  0  2  0  0  0  0  0  0  0  0  0
   45.7722   60.2269   31.3910 C   0  0  0  0  0  0  0  0  0  0  0  0
   44.5824   60.1189   31.6891 O   0  0  0  0  0  0  0  0  0  0  0  0
   47.0473   58.7269   29.9146 C   0  0  0  0  0  0  0  0  0  0  0  0
   46.0551   58.2092   28.8879 C   0  0  0  0  0  0  0  0  0  0  0  0
   46.9325   58.1536   27.3084 S   0  0  0  0  0  0  0  0  0  0  0  0
   47.3264   56.4329   27.7029 C   0  0  0  0  0  0  0  0  0  0  0  0
   48.8132   56.1662   27.9609 C   0  0  1  0  0  0  0  0  0  0  0  0
   49.2999   56.7906   29.1544 O   0  0  0  0  0  0  0  0  0  0  0  0
   49.0804   54.6740   28.0950 C   0  0  1  0  0  0  0  0  0  0  0  0
   49.4327   54.1010   26.8553 O   0  0  0  0  0  0  0  0  0  0  0  0
   50.1862   54.5763   29.1379 C   0  0  1  0  0  0  0  0  0  0  0  0
   51.4676   54.5813   28.5415 O   0  0  0  0  0  0  0  0  0  0  0  0
   50.0395   55.8610   29.9293 C   0  0  2  0  0  0  0  0  0  0  0  0
   46.2249   61.3495   31.1349 O   0  0  0  0  0  0  0  0  0  0  0  0
   46.2234   53.3938   32.5689 N   0  0  0  0  0  0  0  0  0  0  0  0
   46.4999   53.3383   31.2261 C   0  0  0  0  0  0  0  0  0  0  0  0
   47.5421   54.0778   30.7075 N   0  0  0  0  0  0  0  0  0  0  0  0
   48.3226   54.8315   31.5020 C   0  0  0  0  0  0  0  0  0  0  0  0
   48.0614   54.8998   32.8599 C   0  0  0  0  0  0  0  0  0  0  0  0
   47.0057   54.1774   33.3797 C   0  0  0  0  0  0  0  0  0  0  0  0
   46.7463   54.2179   34.6722 N   0  0  0  0  0  0  0  0  0  0  0  0
   48.9768   55.7161   33.4281 N   0  0  0  0  0  0  0  0  0  0  0  0
   49.7936   56.1828   32.4501 C   0  0  0  0  0  0  0  0  0  0  0  0
   49.3998   55.6394   31.2469 N   0  0  0  0  0  0  0  0  0  0  0  0
  2  1  1  6  0  0  0
  2  3  1  0  0  0  0
  2  5  1  0  0  0  0
  3  4  1  0  0  0  0
  3 16  1  0  0  0  0
  5  6  1  0  0  0  0
  6  7  1  0  0  0  0
  7  8  1  0  0  0  0
  9  8  1  1  0  0  0
  9 10  1  0  0  0  0
  9 11  1  0  0  0  0
 10 15  1  0  0  0  0
 11 12  1  6  0  0  0
 11 13  1  0  0  0  0
 13 14  1  6  0  0  0
 13 15  1  0  0  0  0
 15 26  1  1  0  0  0
 17 18  2  0  0  0  0
 17 22  1  0  0  0  0
 18 19  1  0  0  0  0
 19 20  2  0  0  0  0
 20 21  1  0  0  0  0
 20 26  1  0  0  0  0
 21 22  2  0  0  0  0
 21 24  1  0  0  0  0
 22 23  1  0  0  0  0
 24 25  2  0  0  0  0
 25 26  1  0  0  0  0
M  END
>  <CHROM.1>
-14.25071228,53.75887800,177.52711201,93.01485521,-112.78811815,67.36521327
79.66833770,47.78589189,56.42152875,30.36275293,2.75255388,0.96090135,-0.96739675

>  <Name>
ligand

>  <RI>
0

>  <Rbt.Current_Directory>
/home/itssahil/PROJECTS/Mol_Feturizer/New_Systems/rnas/3GX3

>  <Rbt.Executable>
rbdock ($Id: //depot/dev/client3/rdock/2013.1/src/exe/rbdock.cxx#4 $)

>  <Rbt.Library>
libRbt.so (2013.1, Build901 2013/11/27)

>  <Rbt.Parameter_File>
/export/apps/rDock/src/rDock_2013.1_src/data/scripts/dock_solv.prm

>  <Rbt.Receptor>
prm/pocket_docking_3.prm

>  <SCORE>
-12.9367

>  <SCORE.INTER>
-9.84618

>  <SCORE.INTER.CONST>
1

>  <SCORE.INTER.POLAR>
0

>  <SCORE.INTER.ROT>
7

>  <SCORE.INTER.SOLV>
10.7605

>  <SCORE.INTER.VDW>
-18.4176

>  <SCORE.INTER.norm>
-0.378699

>  <SCORE.INTRA>
-3.09049

>  <SCORE.INTRA.DIHEDRAL>
1.17513

>  <SCORE.INTRA.DIHEDRAL.0>
5.78979

>  <SCORE.INTRA.POLAR>
0

>  <SCORE.INTRA.POLAR.0>
0

>  <SCORE.INTRA.REPUL>
0

>  <SCORE.INTRA.REPUL.0>
0

>  <SCORE.INTRA.SOLV>
0.155344

>  <SCORE.INTRA.SOLV.lig_0>
-49.9151

>  <SCORE.INTRA.VDW>
-3.75573

>  <SCORE.INTRA.VDW.0>
-0.211125

>  <SCORE.INTRA.norm>
-0.118865

>  <SCORE.RESTR>
0

>  <SCORE.RESTR.CAVITY>
0

>  <SCORE.RESTR.norm>
0

>  <SCORE.SYSTEM>
0

>  <SCORE.SYSTEM.CONST>
0

>  <SCORE.SYSTEM.DIHEDRAL>
0

>  <SCORE.SYSTEM.SOLV>
0

>  <SCORE.SYSTEM.norm>
0

>  <SCORE.heavy>
26

>  <SCORE.norm>
-0.497564

>  <RMSD>
4.956

$$$$
ligand
 OpenBabel11021811483D
libRbt.so/2013.1/901 2013/11/27
 26 28  0  0  0  0  0  0  0  0999 V2000
   50.4347   53.2202   28.1695 N   0  0  0  0  0  0  0  0  0  0  0  0
   49.6688   54.4415   28.4334 C   0  0  2  0  0  0  0  0  0  0  0  0
   50.4133   55.7347   28.0939 C   0  0  0  0  0  0  0  0  0  0  0  0
   51.5898   55.8364   28.4426 O   0  0  0  0  0  0  0  0  0  0  0  0
   49.1593   54.5870   29.8731 C   0  0  0  0  0  0  0  0  0  0  0  0
   48.1854   55.6888   30.2527 C   0  0  0  0  0  0  0  0  0  0  0  0
   49.1847   57.1344   30.6759 S   0  0  0  0  0  0  0  0  0  0  0  0
   48.1725   58.0548   29.4928 C   0  0  0  0  0  0  0  0  0  0  0  0
   46.8532   58.5848   30.0647 C   0  0  1  0  0  0  0  0  0  0  0  0
   45.9140   57.5480   30.3715 O   0  0  0  0  0  0  0  0  0  0  0  0
   47.0944   59.3651   31.3488 C   0  0  1  0  0  0  0  0  0  0  0  0
   47.2646   60.7412   31.0903 O   0  0  0  0  0  0  0  0  0  0  0  0
   45.8777   59.0624   32.2138 C   0  0  1  0  0  0  0  0  0  0  0  0
   44.8527   60.0170   32.0246 O   0  0  0  0  0  0  0  0  0  0  0  0
   45.3805   57.7366   31.6719 C   0  0  2  0  0  0  0  0  0  0  0  0
   49.8901   56.6697   27.4751 O   0  0  0  0  0  0  0  0  0  0  0  0
   48.9990   55.6224   34.8428 N   0  0  0  0  0  0  0  0  0  0  0  0
   49.0734   56.7931   34.1311 C   0  0  0  0  0  0  0  0  0  0  0  0
   48.0192   57.1790   33.3300 N   0  0  0  0  0  0  0  0  0  0  0  0
   46.8954   56.4439   33.2581 C   0  0  0  0  0  0  0  0  0  0  0  0
   46.7996   55.2603   33.9698 C   0  0  0  0  0  0  0  0  0  0  0  0
   47.8613   54.8598   34.7564 C   0  0  0  0  0  0  0  0  0  0  0  0
   47.7869   53.7421   35.4526 N   0  0  0  0  0  0  0  0  0  0  0  0
   45.5860   54.7163   33.7281 N   0  0  0  0  0  0  0  0  0  0  0  0
   44.9259   55.5220   32.8583 C   0  0  0  0  0  0  0  0  0  0  0  0
   45.7274   56.6017   32.5586 N   0  0  0  0  0  0  0  0  0  0  0  0
  2  1  1  1  0  0  0
  2  3  1  0  0  0  0
  2  5  1  0  0  0  0
  3  4  1  0  0  0  0
  3 16  1  0  0  0  0
  5  6  1  0  0  0  0
  6  7  1  0  0  0  0
  7  8  1  0  0  0  0
  9  8  1  1  0  0  0
  9 10  1  0  0  0  0
  9 11  1  0  0  0  0
 10 15  1  0  0  0  0
 11 12  1  6  0  0  0
 11 13  1  0  0  0  0
 13 14  1  6  0  0  0
 13 15  1  0  0  0  0
 15 26  1  1  0  0  0
 17 18  2  0  0  0  0
 17 22  1  0  0  0  0
 18 19  1  0  0  0  0
 19 20  2  0  0  0  0
 20 21  1  0  0  0  0
 20 26  1  0  0  0  0
 21 22  2  0  0  0  0
 21 24  1  0  0  0  0
 22 23  1  0  0  0  0
 24 25  2  0  0  0  0
 25 26  1  0  0  0  0
M  END
>  <CHROM.1>
-44.56392368,-171.00621609,-87.57205512,127.32267313,84.37976592,-68.65980609
83.82625134,47.84029343,56.66103675,31.36847050,-0.43401211,-0.84915981,2.30300039

>  <Name>
ligand

>  <RI>
0

>  <Rbt.Current_Directory>
/home/itssahil/PROJECTS/Mol_Feturizer/New_Systems/rnas/3GX3

>  <Rbt.Executable>
rbdock ($Id: //depot/dev/client3/rdock/2013.1/src/exe/rbdock.cxx#4 $)

>  <Rbt.Library>
libRbt.so (2013.1, Build901 2013/11/27)

>  <Rbt.Parameter_File>
/export/apps/rDock/src/rDock_2013.1_src/data/scripts/dock_solv.prm

>  <Rbt.Receptor>
prm/pocket_docking_4.prm

>  <SCORE>
-13.7449

>  <SCORE.INTER>
-10.6318

>  <SCORE.INTER.CONST>
1

>  <SCORE.INTER.POLAR>
0

>  <SCORE.INTER.ROT>
7

>  <SCORE.INTER.SOLV>
12.3661

>  <SCORE.INTER.VDW>
-19.4766

>  <SCORE.INTER.norm>
-0.408917

>  <SCORE.INTRA>
-3.11759

>  <SCORE.INTRA.DIHEDRAL>
3.1991

>  <SCORE.INTRA.DIHEDRAL.0>
5.78979

>  <SCORE.INTRA.POLAR>
0

>  <SCORE.INTRA.POLAR.0>
0

>  <SCORE.INTRA.REPUL>
0

>  <SCORE.INTRA.REPUL.0>
0

>  <SCORE.INTRA.SOLV>
-0.40243

>  <SCORE.INTRA.SOLV.lig_0>
-49.9151

>  <SCORE.INTRA.VDW>
-4.51592

>  <SCORE.INTRA.VDW.0>
-0.211125

>  <SCORE.INTRA.norm>
-0.119907

>  <SCORE.RESTR>
0.0045694

>  <SCORE.RESTR.CAVITY>
0.0045694

>  <SCORE.RESTR.norm>
0.000175746

>  <SCORE.SYSTEM>
0

>  <SCORE.SYSTEM.CONST>
0

>  <SCORE.SYSTEM.DIHEDRAL>
0

>  <SCORE.SYSTEM.SOLV>
0

>  <SCORE.SYSTEM.norm>
0

>  <SCORE.heavy>
26

>  <SCORE.norm>
-0.528648

>  <RMSD>
4.957

$$$$
ligand
 OpenBabel11021811483D
libRbt.so/2013.1/901 2013/11/27
 26 28  0  0  0  0  0  0  0  0999 V2000
   49.0998   52.0737   26.6428 N   0  0  0  0  0  0  0  0  0  0  0  0
   49.7589   52.9992   27.5684 C   0  0  2  0  0  0  0  0  0  0  0  0
   51.2858   52.8979   27.5761 C   0  0  0  0  0  0  0  0  0  0  0  0
   51.8145   52.0380   26.8710 O   0  0  0  0  0  0  0  0  0  0  0  0
   49.2991   52.8910   29.0280 C   0  0  0  0  0  0  0  0  0  0  0  0
   49.7561   53.8964   30.0707 C   0  0  0  0  0  0  0  0  0  0  0  0
   49.3664   55.5336   29.4110 S   0  0  0  0  0  0  0  0  0  0  0  0
   49.4551   56.1307   31.1160 C   0  0  0  0  0  0  0  0  0  0  0  0
   48.8541   57.5237   31.3319 C   0  0  1  0  0  0  0  0  0  0  0  0
   47.4831   57.6157   30.9284 O   0  0  0  0  0  0  0  0  0  0  0  0
   48.9164   57.9187   32.8003 C   0  0  1  0  0  0  0  0  0  0  0  0
   50.0945   58.6382   33.0899 O   0  0  0  0  0  0  0  0  0  0  0  0
   47.6464   58.7270   33.0325 C   0  0  1  0  0  0  0  0  0  0  0  0
   47.8621   60.1083   32.8253 O   0  0  0  0  0  0  0  0  0  0  0  0
   46.7120   58.2365   31.9440 C   0  0  2  0  0  0  0  0  0  0  0  0
   52.0066   53.6485   28.2454 O   0  0  0  0  0  0  0  0  0  0  0  0
   45.7390   53.9535   34.8296 N   0  0  0  0  0  0  0  0  0  0  0  0
   46.9512   54.5338   34.5532 C   0  0  0  0  0  0  0  0  0  0  0  0
   47.0100   55.6557   33.7532 N   0  0  0  0  0  0  0  0  0  0  0  0
   45.8918   56.2192   33.2627 C   0  0  0  0  0  0  0  0  0  0  0  0
   44.6586   55.6501   33.5314 C   0  0  0  0  0  0  0  0  0  0  0  0
   44.5974   54.5145   34.3144 C   0  0  0  0  0  0  0  0  0  0  0  0
   43.4323   53.9628   34.5933 N   0  0  0  0  0  0  0  0  0  0  0  0
   43.7061   56.3962   32.9288 N   0  0  0  0  0  0  0  0  0  0  0  0
   44.3180   57.4094   32.2651 C   0  0  0  0  0  0  0  0  0  0  0  0
   45.6777   57.3132   32.4655 N   0  0  0  0  0  0  0  0  0  0  0  0
  2  1  1  6  0  0  0
  2  3  1  0  0  0  0
  2  5  1  0  0  0  0
  3  4  1  0  0  0  0
  3 16  1  0  0  0  0
  5  6  1  0  0  0  0
  6  7  1  0  0  0  0
  7  8  1  0  0  0  0
  9  8  1  1  0  0  0
  9 10  1  0  0  0  0
  9 11  1  0  0  0  0
 10 15  1  0  0  0  0
 11 12  1  6  0  0  0
 11 13  1  0  0  0  0
 13 14  1  6  0  0  0
 13 15  1  0  0  0  0
 15 26  1  1  0  0  0
 17 18  2  0  0  0  0
 17 22  1  0  0  0  0
 18 19  1  0  0  0  0
 19 20  2  0  0  0  0
 20 21  1  0  0  0  0
 20 26  1  0  0  0  0
 21 22  2  0  0  0  0
 21 24  1  0  0  0  0
 22 23  1  0  0  0  0
 24 25  2  0  0  0  0
 25 26  1  0  0  0  0
M  END
>  <CHROM.1>
-2.94846146,-172.14479100,53.08587648,159.42189974,-165.34625552,57.10609899
72.11630854,47.91837975,55.64428648,31.33668174,0.71931178,-0.64335702,-2.71708772

>  <Name>
ligand

>  <RI>
0

>  <Rbt.Current_Directory>
/home/itssahil/PROJECTS/Mol_Feturizer/New_Systems/rnas/3GX3

>  <Rbt.Executable>
rbdock ($Id: //depot/dev/client3/rdock/2013.1/src/exe/rbdock.cxx#4 $)

>  <Rbt.Library>
libRbt.so (2013.1, Build901 2013/11/27)

>  <Rbt.Parameter_File>
/export/apps/rDock/src/rDock_2013.1_src/data/scripts/dock_solv.prm

>  <Rbt.Receptor>
prm/pocket_docking_7.prm

>  <SCORE>
-16.6761

>  <SCORE.INTER>
-13.0892

>  <SCORE.INTER.CONST>
1

>  <SCORE.INTER.POLAR>
0

>  <SCORE.INTER.ROT>
7

>  <SCORE.INTER.SOLV>
11.2727

>  <SCORE.INTER.VDW>
-20.7504

>  <SCORE.INTER.norm>
-0.50343

>  <SCORE.INTRA>
-3.58687

>  <SCORE.INTRA.DIHEDRAL>
-1.56236

>  <SCORE.INTRA.DIHEDRAL.0>
5.78979

>  <SCORE.INTRA.POLAR>
0

>  <SCORE.INTRA.POLAR.0>
0

>  <SCORE.INTRA.REPUL>
0

>  <SCORE.INTRA.REPUL.0>
0

>  <SCORE.INTRA.SOLV>
-0.77941

>  <SCORE.INTRA.SOLV.lig_0>
-49.9151

>  <SCORE.INTRA.VDW>
-2.41599

>  <SCORE.INTRA.VDW.0>
-0.211125

>  <SCORE.INTRA.norm>
-0.137957

>  <SCORE.RESTR>
0

>  <SCORE.RESTR.CAVITY>
0

>  <SCORE.RESTR.norm>
0

>  <SCORE.SYSTEM>
0

>  <SCORE.SYSTEM.CONST>
0

>  <SCORE.SYSTEM.DIHEDRAL>
0

>  <SCORE.SYSTEM.SOLV>
0

>  <SCORE.SYSTEM.norm>
0

>  <SCORE.heavy>
26

>  <SCORE.norm>
-0.641387

>  <RMSD>
4.960

$$$$
ligand
 OpenBabel11021811483D
libRbt.so/2013.1/901 2013/11/27
 26 28  0  0  0  0  0  0  0  0999 V2000
   48.5129   53.9004   27.3756 N   0  0  0  0  0  0  0  0  0  0  0  0
   49.2756   55.0199   26.8162 C   0  0  2  0  0  0  0  0  0  0  0  0
   50.1404   55.7623   27.8374 C   0  0  0  0  0  0  0  0  0  0  0  0
   51.1970   56.2618   27.4499 O   0  0  0  0  0  0  0  0  0  0  0  0
   48.4336   56.0791   26.0933 C   0  0  0  0  0  0  0  0  0  0  0  0
   47.3054   56.8043   26.8059 C   0  0  0  0  0  0  0  0  0  0  0  0
   48.0810   58.0540   27.8568 S   0  0  0  0  0  0  0  0  0  0  0  0
   46.6077   57.9455   28.9003 C   0  0  0  0  0  0  0  0  0  0  0  0
   46.6002   58.9126   30.0890 C   0  0  1  0  0  0  0  0  0  0  0  0
   45.4358   58.7852   30.9130 O   0  0  0  0  0  0  0  0  0  0  0  0
   47.8095   58.6807   30.9834 C   0  0  1  0  0  0  0  0  0  0  0  0
   48.8886   59.5108   30.6150 O   0  0  0  0  0  0  0  0  0  0  0  0
   47.2989   58.9493   32.3931 C   0  0  1  0  0  0  0  0  0  0  0  0
   47.4904   60.2982   32.7689 O   0  0  0  0  0  0  0  0  0  0  0  0
   45.8065   58.7082   32.2798 C   0  0  2  0  0  0  0  0  0  0  0  0
   49.8171   55.8931   29.0245 O   0  0  0  0  0  0  0  0  0  0  0  0
   47.3807   54.3818   34.8140 N   0  0  0  0  0  0  0  0  0  0  0  0
   48.1402   55.4462   34.3984 C   0  0  0  0  0  0  0  0  0  0  0  0
   47.5466   56.4932   33.7249 N   0  0  0  0  0  0  0  0  0  0  0  0
   46.2216   56.5103   33.4956 C   0  0  0  0  0  0  0  0  0  0  0  0
   45.4373   55.4467   33.9084 C   0  0  0  0  0  0  0  0  0  0  0  0
   46.0312   54.3868   34.5643 C   0  0  0  0  0  0  0  0  0  0  0  0
   45.3013   53.3689   34.9774 N   0  0  0  0  0  0  0  0  0  0  0  0
   44.1565   55.7033   33.5606 N   0  0  0  0  0  0  0  0  0  0  0  0
   44.1235   56.8962   32.9145 C   0  0  0  0  0  0  0  0  0  0  0  0
   45.4007   57.4108   32.8684 N   0  0  0  0  0  0  0  0  0  0  0  0
  2  1  1  1  0  0  0
  2  3  1  0  0  0  0
  2  5  1  0  0  0  0
  3  4  1  0  0  0  0
  3 16  1  0  0  0  0
  5  6  1  0  0  0  0
  6  7  1  0  0  0  0
  7  8  1  0  0  0  0
  9  8  1  6  0  0  0
  9 10  1  0  0  0  0
  9 11  1  0  0  0  0
 10 15  1  0  0  0  0
 11 12  1  6  0  0  0
 11 13  1  0  0  0  0
 13 14  1  6  0  0  0
 13 15  1  0  0  0  0
 15 26  1  6  0  0  0
 17 18  2  0  0  0  0
 17 22  1  0  0  0  0
 18 19  1  0  0  0  0
 19 20  2  0  0  0  0
 20 21  1  0  0  0  0
 20 26  1  0  0  0  0
 21 22  2  0  0  0  0
 21 24  1  0  0  0  0
 22 23  1  0  0  0  0
 24 25  2  0  0  0  0
 25 26  1  0  0  0  0
M  END
>  <CHROM.1>
148.15586094,57.38221620,77.41921767,-154.35432414,-177.46110147,-178.76338301
124.01876955,47.33937917,56.86902280,30.82638182,-0.42412437,-1.08119687
2.74747034

>  <Name>
ligand

>  <RI>
0

>  <Rbt.Current_Directory>
/home/itssahil/PROJECTS/Mol_Feturizer/New_Systems/rnas/3GX3

>  <Rbt.Executable>
rbdock ($Id: //depot/dev/client3/rdock/2013.1/src/exe/rbdock.cxx#4 $)

>  <Rbt.Library>
libRbt.so (2013.1, Build901 2013/11/27)

>  <Rbt.Parameter_File>
/export/apps/rDock/src/rDock_2013.1_src/data/scripts/dock_solv.prm

>  <Rbt.Receptor>
prm/pocket_docking_4.prm

>  <SCORE>
-17.4007

>  <SCORE.INTER>
-14.6409

>  <SCORE.INTER.CONST>
1

>  <SCORE.INTER.POLAR>
0

>  <SCORE.INTER.ROT>
7

>  <SCORE.INTER.SOLV>
12.2356

>  <SCORE.INTER.VDW>
-22.1058

>  <SCORE.INTER.norm>
-0.56311

>  <SCORE.INTRA>
-2.75985

>  <SCORE.INTRA.DIHEDRAL>
-0.961113

>  <SCORE.INTRA.DIHEDRAL.0>
5.78979

>  <SCORE.INTRA.POLAR>
0

>  <SCORE.INTRA.POLAR.0>
0

>  <SCORE.INTRA.REPUL>
0

>  <SCORE.INTRA.REPUL.0>
0

>  <SCORE.INTRA.SOLV>
0.155553

>  <SCORE.INTRA.SOLV.lig_0>
-49.9151

>  <SCORE.INTRA.VDW>
-2.35707

>  <SCORE.INTRA.VDW.0>
-0.211125

>  <SCORE.INTRA.norm>
-0.106148

>  <SCORE.RESTR>
0

>  <SCORE.RESTR.CAVITY>
0

>  <SCORE.RESTR.norm>
0

>  <SCORE.SYSTEM>
0

>  <SCORE.SYSTEM.CONST>
0

>  <SCORE.SYSTEM.DIHEDRAL>
0

>  <SCORE.SYSTEM.SOLV>
0

>  <SCORE.SYSTEM.norm>
0

>  <SCORE.heavy>
26

>  <SCORE.norm>
-0.669258

>  <RMSD>
4.961

$$$$
ligand
 OpenBabel11021811483D
libRbt.so/2013.1/901 2013/11/27
 26 28  0  0  0  0  0  0  0  0999 V2000
   45.2171   53.2020   27.8354 N   0  0  0  0  0  0  0  0  0  0  0  0
   46.6553   52.9852   27.6555 C   0  0  2  0  0  0  0  0  0  0  0  0
   47.2895   52.0757   28.7103 C   0  0  0  0  0  0  0  0  0  0  0  0
   46.6296   51.8006   29.7127 O   0  0  0  0  0  0  0  0  0  0  0  0
   47.5010   54.2642   27.6053 C   0  0  0  0  0  0  0  0  0  0  0  0
   47.5620   55.2110   28.7913 C   0  0  0  0  0  0  0  0  0  0  0  0
   48.6240   56.5873   28.2958 S   0  0  0  0  0  0  0  0  0  0  0  0
   48.9857   56.8092   30.0540 C   0  0  0  0  0  0  0  0  0  0  0  0
   48.3952   58.0837   30.6667 C   0  0  1  0  0  0  0  0  0  0  0  0
   46.9643   58.0717   30.7243 O   0  0  0  0  0  0  0  0  0  0  0  0
   48.8992   58.2847   32.0885 C   0  0  1  0  0  0  0  0  0  0  0  0
   50.0577   59.0888   32.1148 O   0  0  0  0  0  0  0  0  0  0  0  0
   47.7205   58.9051   32.8273 C   0  0  1  0  0  0  0  0  0  0  0  0
   47.7667   60.3173   32.7904 O   0  0  0  0  0  0  0  0  0  0  0  0
   46.5207   58.4604   32.0142 C   0  0  2  0  0  0  0  0  0  0  0  0
   48.4242   51.5969   28.5914 O   0  0  0  0  0  0  0  0  0  0  0  0
   46.8077   54.2123   35.0946 N   0  0  0  0  0  0  0  0  0  0  0  0
   47.8294   55.0232   34.6690 C   0  0  0  0  0  0  0  0  0  0  0  0
   47.5593   56.0921   33.8405 N   0  0  0  0  0  0  0  0  0  0  0  0
   46.3004   56.3806   33.4658 C   0  0  0  0  0  0  0  0  0  0  0  0
   45.2551   55.5757   33.8857 C   0  0  0  0  0  0  0  0  0  0  0  0
   45.5240   54.4921   34.6981 C   0  0  0  0  0  0  0  0  0  0  0  0
   44.5421   53.7192   35.1200 N   0  0  0  0  0  0  0  0  0  0  0  0
   44.1056   56.0722   33.3765 N   0  0  0  0  0  0  0  0  0  0  0  0
   44.4102   57.1593   32.6235 C   0  0  0  0  0  0  0  0  0  0  0  0
   45.7717   57.3643   32.6715 N   0  0  0  0  0  0  0  0  0  0  0  0
  2  1  1  1  0  0  0
  2  3  1  0  0  0  0
  2  5  1  0  0  0  0
  3  4  1  0  0  0  0
  3 16  1  0  0  0  0
  5  6  1  0  0  0  0
  6  7  1  0  0  0  0
  7  8  1  0  0  0  0
  9  8  1  1  0  0  0
  9 10  1  0  0  0  0
  9 11  1  0  0  0  0
 10 15  1  0  0  0  0
 11 12  1  6  0  0  0
 11 13  1  0  0  0  0
 13 14  1  6  0  0  0
 13 15  1  0  0  0  0
 15 26  1  1  0  0  0
 17 18  2  0  0  0  0
 17 22  1  0  0  0  0
 18 19  1  0  0  0  0
 19 20  2  0  0  0  0
 20 21  1  0  0  0  0
 20 26  1  0  0  0  0
 21 22  2  0  0  0  0
 21 24  1  0  0  0  0
 22 23  1  0  0  0  0
 24 25  2  0  0  0  0
 25 26  1  0  0  0  0
M  END
>  <CHROM.1>
-12.11036733,61.85572131,-178.65857614,-153.86265200,-110.62558051,67.16393684
89.75928789,47.09880791,55.88783869,31.31873709,1.44677371,-1.03040965,-2.36912491

>  <Name>
ligand

>  <RI>
0

>  <Rbt.Current_Directory>
/home/itssahil/PROJECTS/Mol_Feturizer/New_Systems/rnas/3GX3

>  <Rbt.Executable>
rbdock ($Id: //depot/dev/client3/rdock/2013.1/src/exe/rbdock.cxx#4 $)

>  <Rbt.Library>
libRbt.so (2013.1, Build901 2013/11/27)

>  <Rbt.Parameter_File>
/export/apps/rDock/src/rDock_2013.1_src/data/scripts/dock_solv.prm

>  <Rbt.Receptor>
prm/pocket_docking_5.prm

>  <SCORE>
-14.1111

>  <SCORE.INTER>
-11.5396

>  <SCORE.INTER.CONST>
1

>  <SCORE.INTER.POLAR>
0

>  <SCORE.INTER.ROT>
7

>  <SCORE.INTER.SOLV>
12.5887

>  <SCORE.INTER.VDW>
-20.156

>  <SCORE.INTER.norm>
-0.443832

>  <SCORE.INTRA>
-2.57147

>  <SCORE.INTRA.DIHEDRAL>
0.503989

>  <SCORE.INTRA.DIHEDRAL.0>
5.78979

>  <SCORE.INTRA.POLAR>
0

>  <SCORE.INTRA.POLAR.0>
0

>  <SCORE.INTRA.REPUL>
0

>  <SCORE.INTRA.REPUL.0>
0

>  <SCORE.INTRA.SOLV>
-0.457396

>  <SCORE.INTRA.SOLV.lig_0>
-49.9151

>  <SCORE.INTRA.VDW>
-2.59477

>  <SCORE.INTRA.VDW.0>
-0.211125

>  <SCORE.INTRA.norm>
-0.0989028

>  <SCORE.RESTR>
0

>  <SCORE.RESTR.CAVITY>
0

>  <SCORE.RESTR.norm>
0

>  <SCORE.SYSTEM>
0

>  <SCORE.SYSTEM.CONST>
0

>  <SCORE.SYSTEM.DIHEDRAL>
0

>  <SCORE.SYSTEM.SOLV>
0

>  <SCORE.SYSTEM.norm>
0

>  <SCORE.heavy>
26

>  <SCORE.norm>
-0.542735

>  <RMSD>
4.961

$$$$
ligand
 OpenBabel11021811483D
libRbt.so/2013.1/901 2013/11/27
 26 28  0  0  0  0  0  0  0  0999 V2000
   48.9081   53.7847   27.7926 N   0  0  0  0  0  0  0  0  0  0  0  0
   49.6345   54.8757   27.1370 C   0  0  2  0  0  0  0  0  0  0  0  0
   50.4704   55.7341   28.0889 C   0  0  0  0  0  0  0  0  0  0  0  0
   51.5321   56.1980   27.6722 O   0  0  0  0  0  0  0  0  0  0  0  0
   48.7597   55.8379   26.3231 C   0  0  0  0  0  0  0  0  0  0  0  0
   47.5652   56.5340   26.9519 C   0  0  0  0  0  0  0  0  0  0  0  0
   48.2231   57.9200   27.9078 S   0  0  0  0  0  0  0  0  0  0  0  0
   46.7156   57.8188   28.9021 C   0  0  0  0  0  0  0  0  0  0  0  0
   46.6459   58.8288   30.0525 C   0  0  1  0  0  0  0  0  0  0  0  0
   45.4551   58.7075   30.8387 O   0  0  0  0  0  0  0  0  0  0  0  0
   47.8262   58.6556   30.9974 C   0  0  1  0  0  0  0  0  0  0  0  0
   48.9014   59.4941   30.6365 O   0  0  0  0  0  0  0  0  0  0  0  0
   47.2596   58.9654   32.3769 C   0  0  1  0  0  0  0  0  0  0  0  0
   47.4107   60.3311   32.7082 O   0  0  0  0  0  0  0  0  0  0  0  0
   45.7773   58.6890   32.2198 C   0  0  2  0  0  0  0  0  0  0  0  0
   50.1189   55.9916   29.2470 O   0  0  0  0  0  0  0  0  0  0  0  0
   47.3789   54.3993   34.7988 N   0  0  0  0  0  0  0  0  0  0  0  0
   48.1362   55.4499   34.3456 C   0  0  0  0  0  0  0  0  0  0  0  0
   47.5346   56.4884   33.6662 N   0  0  0  0  0  0  0  0  0  0  0  0
   46.2048   56.5112   33.4673 C   0  0  0  0  0  0  0  0  0  0  0  0
   45.4227   55.4616   33.9182 C   0  0  0  0  0  0  0  0  0  0  0  0
   46.0240   54.4098   34.5802 C   0  0  0  0  0  0  0  0  0  0  0  0
   45.2966   53.4054   35.0292 N   0  0  0  0  0  0  0  0  0  0  0  0
   44.1360   55.7213   33.5951 N   0  0  0  0  0  0  0  0  0  0  0  0
   44.0966   56.9020   32.9274 C   0  0  0  0  0  0  0  0  0  0  0  0
   45.3760   57.4060   32.8421 N   0  0  0  0  0  0  0  0  0  0  0  0
  2  1  1  1  0  0  0
  2  3  1  0  0  0  0
  2  5  1  0  0  0  0
  3  4  1  0  0  0  0
  3 16  1  0  0  0  0
  5  6  1  0  0  0  0
  6  7  1  0  0  0  0
  7  8  1  0  0  0  0
  9  8  1  6  0  0  0
  9 10  1  0  0  0  0
  9 11  1  0  0  0  0
 10 15  1  0  0  0  0
 11 12  1  6  0  0  0
 11 13  1  0  0  0  0
 13 14  1  6  0  0  0
 13 15  1  0  0  0  0
 15 26  1  6  0  0  0
 17 18  2  0  0  0  0
 17 22  1  0  0  0  0
 18 19  1  0  0  0  0
 19 20  2  0  0  0  0
 20 21  1  0  0  0  0
 20 26  1  0  0  0  0
 21 22  2  0  0  0  0
 21 24  1  0  0  0  0
 22 23  1  0  0  0  0
 24 25  2  0  0  0  0
 25 26  1  0  0  0  0
M  END
>  <CHROM.1>
145.89037773,54.44909958,79.19989982,-155.80727690,178.63959342,-178.79264498
120.13136031,47.43552962,56.82235116,30.88841168,-0.44728483,-1.00466248
2.68193569

>  <Name>
ligand

>  <RI>
0

>  <Rbt.Current_Directory>
/home/itssahil/PROJECTS/Mol_Feturizer/New_Systems/rnas/3GX3

>  <Rbt.Executable>
rbdock ($Id: //depot/dev/client3/rdock/2013.1/src/exe/rbdock.cxx#4 $)

>  <Rbt.Library>
libRbt.so (2013.1, Build901 2013/11/27)

>  <Rbt.Parameter_File>
/export/apps/rDock/src/rDock_2013.1_src/data/scripts/dock_solv.prm

>  <Rbt.Receptor>
prm/pocket_docking_4.prm

>  <SCORE>
-17.363

>  <SCORE.INTER>
-14.597

>  <SCORE.INTER.CONST>
1

>  <SCORE.INTER.POLAR>
0

>  <SCORE.INTER.ROT>
7

>  <SCORE.INTER.SOLV>
11.8753

>  <SCORE.INTER.VDW>
-21.9564

>  <SCORE.INTER.norm>
-0.561424

>  <SCORE.INTRA>
-2.76595

>  <SCORE.INTRA.DIHEDRAL>
-0.735002

>  <SCORE.INTRA.DIHEDRAL.0>
5.78979

>  <SCORE.INTRA.POLAR>
0

>  <SCORE.INTRA.POLAR.0>
0

>  <SCORE.INTRA.REPUL>
0

>  <SCORE.INTRA.REPUL.0>
0

>  <SCORE.INTRA.SOLV>
0.174358

>  <SCORE.INTRA.SOLV.lig_0>
-49.9151

>  <SCORE.INTRA.VDW>
-2.48563

>  <SCORE.INTRA.VDW.0>
-0.211125

>  <SCORE.INTRA.norm>
-0.106383

>  <SCORE.RESTR>
0

>  <SCORE.RESTR.CAVITY>
0

>  <SCORE.RESTR.norm>
0

>  <SCORE.SYSTEM>
0

>  <SCORE.SYSTEM.CONST>
0

>  <SCORE.SYSTEM.DIHEDRAL>
0

>  <SCORE.SYSTEM.SOLV>
0

>  <SCORE.SYSTEM.norm>
0

>  <SCORE.heavy>
26

>  <SCORE.norm>
-0.667807

>  <RMSD>
4.967

$$$$
ligand
 OpenBabel11021811483D
libRbt.so/2013.1/901 2013/11/27
 26 28  0  0  0  0  0  0  0  0999 V2000
   49.6699   53.6384   27.8244 N   0  0  0  0  0  0  0  0  0  0  0  0
   50.2455   54.8263   27.1876 C   0  0  2  0  0  0  0  0  0  0  0  0
   51.0110   55.7427   28.1447 C   0  0  0  0  0  0  0  0  0  0  0  0
   50.5836   55.8713   29.2922 O   0  0  0  0  0  0  0  0  0  0  0  0
   49.2401   55.7086   26.4364 C   0  0  0  0  0  0  0  0  0  0  0  0
   48.0161   56.2731   27.1363 C   0  0  0  0  0  0  0  0  0  0  0  0
   48.5812   57.7041   28.0852 S   0  0  0  0  0  0  0  0  0  0  0  0
   47.0056   57.6135   28.9688 C   0  0  0  0  0  0  0  0  0  0  0  0
   46.8183   58.6904   30.0428 C   0  0  1  0  0  0  0  0  0  0  0  0
   45.5795   58.5713   30.7515 O   0  0  0  0  0  0  0  0  0  0  0  0
   47.9337   58.6247   31.0759 C   0  0  1  0  0  0  0  0  0  0  0  0
   49.0013   59.4812   30.7356 O   0  0  0  0  0  0  0  0  0  0  0  0
   47.2596   58.9978   32.3899 C   0  0  1  0  0  0  0  0  0  0  0  0
   47.3380   60.3866   32.6403 O   0  0  0  0  0  0  0  0  0  0  0  0
   45.8030   58.6528   32.1497 C   0  0  2  0  0  0  0  0  0  0  0  0
   52.0425   56.3439   27.8198 O   0  0  0  0  0  0  0  0  0  0  0  0
   47.4254   54.4350   34.8322 N   0  0  0  0  0  0  0  0  0  0  0  0
   48.1818   55.4607   34.3238 C   0  0  0  0  0  0  0  0  0  0  0  0
   47.5739   56.4824   33.6249 N   0  0  0  0  0  0  0  0  0  0  0  0
   46.2396   56.5140   33.4598 C   0  0  0  0  0  0  0  0  0  0  0  0
   45.4583   55.4895   33.9666 C   0  0  0  0  0  0  0  0  0  0  0  0
   46.0655   54.4539   34.6486 C   0  0  0  0  0  0  0  0  0  0  0  0
   45.3393   53.4740   35.1505 N   0  0  0  0  0  0  0  0  0  0  0  0
   44.1665   55.7531   33.6682 N   0  0  0  0  0  0  0  0  0  0  0  0
   44.1223   56.9107   32.9616 C   0  0  0  0  0  0  0  0  0  0  0  0
   45.4044   57.3965   32.8259 N   0  0  0  0  0  0  0  0  0  0  0  0
  2  1  1  1  0  0  0
  2  3  1  0  0  0  0
  2  5  1  0  0  0  0
  3  4  1  0  0  0  0
  3 16  1  0  0  0  0
  5  6  1  0  0  0  0
  6  7  1  0  0  0  0
  7  8  1  0  0  0  0
  9  8  1  6  0  0  0
  9 10  1  0  0  0  0
  9 11  1  0  0  0  0
 10 15  1  0  0  0  0
 11 12  1  6  0  0  0
 11 13  1  0  0  0  0
 13 14  1  6  0  0  0
 13 15  1  0  0  0  0
 15 26  1  1  0  0  0
 17 18  2  0  0  0  0
 17 22  1  0  0  0  0
 18 19  1  0  0  0  0
 19 20  2  0  0  0  0
 20 21  1  0  0  0  0
 20 26  1  0  0  0  0
 21 22  2  0  0  0  0
 21 24  1  0  0  0  0
 22 23  1  0  0  0  0
 24 25  2  0  0  0  0
 25 26  1  0  0  0  0
M  END
>  <CHROM.1>
-36.05822609,56.09816691,79.23828370,-164.92171413,-179.56712421,-178.32160829
113.70286699,47.65015860,56.77337604,30.93838589,-0.40661277,-0.92890103
2.66018278

>  <Name>
ligand

>  <RI>
0

>  <Rbt.Current_Directory>
/home/itssahil/PROJECTS/Mol_Feturizer/New_Systems/rnas/3GX3

>  <Rbt.Executable>
rbdock ($Id: //depot/dev/client3/rdock/2013.1/src/exe/rbdock.cxx#4 $)

>  <Rbt.Library>
libRbt.so (2013.1, Build901 2013/11/27)

>  <Rbt.Parameter_File>
/export/apps/rDock/src/rDock_2013.1_src/data/scripts/dock_solv.prm

>  <Rbt.Receptor>
prm/pocket_docking_4.prm

>  <SCORE>
-17.5102

>  <SCORE.INTER>
-14.6361

>  <SCORE.INTER.CONST>
1

>  <SCORE.INTER.POLAR>
0

>  <SCORE.INTER.ROT>
7

>  <SCORE.INTER.SOLV>
11.8901

>  <SCORE.INTER.VDW>
-21.9874

>  <SCORE.INTER.norm>
-0.562926

>  <SCORE.INTRA>
-2.87409

>  <SCORE.INTRA.DIHEDRAL>
-1.20929

>  <SCORE.INTRA.DIHEDRAL.0>
5.78979

>  <SCORE.INTRA.POLAR>
0

>  <SCORE.INTRA.POLAR.0>
0

>  <SCORE.INTRA.REPUL>
0

>  <SCORE.INTRA.REPUL.0>
0

>  <SCORE.INTRA.SOLV>
0.173357

>  <SCORE.INTRA.SOLV.lig_0>
-49.9151

>  <SCORE.INTRA.VDW>
-2.35612

>  <SCORE.INTRA.VDW.0>
-0.211125

>  <SCORE.INTRA.norm>
-0.110542

>  <SCORE.RESTR>
0

>  <SCORE.RESTR.CAVITY>
0

>  <SCORE.RESTR.norm>
0

>  <SCORE.SYSTEM>
0

>  <SCORE.SYSTEM.CONST>
0

>  <SCORE.SYSTEM.DIHEDRAL>
0

>  <SCORE.SYSTEM.SOLV>
0

>  <SCORE.SYSTEM.norm>
0

>  <SCORE.heavy>
26

>  <SCORE.norm>
-0.673468

>  <RMSD>
4.987

$$$$
ligand
 OpenBabel11021811483D
libRbt.so/2013.1/901 2013/11/27
 26 28  0  0  0  0  0  0  0  0999 V2000
   47.5931   54.0086   25.1995 N   0  0  0  0  0  0  0  0  0  0  0  0
   47.7672   55.3922   24.7488 C   0  0  2  0  0  0  0  0  0  0  0  0
   48.6874   55.5460   23.5358 C   0  0  0  0  0  0  0  0  0  0  0  0
   49.8617   55.1933   23.6491 O   0  0  0  0  0  0  0  0  0  0  0  0
   48.2797   56.3622   25.8212 C   0  0  0  0  0  0  0  0  0  0  0  0
   47.3714   56.8486   26.9371 C   0  0  0  0  0  0  0  0  0  0  0  0
   48.3636   57.9623   27.9583 S   0  0  0  0  0  0  0  0  0  0  0  0
   46.9026   58.1361   29.0103 C   0  0  0  0  0  0  0  0  0  0  0  0
   47.1600   58.8552   30.3388 C   0  0  1  0  0  0  0  0  0  0  0  0
   45.9820   58.9986   31.1405 O   0  0  0  0  0  0  0  0  0  0  0  0
   48.1818   58.0986   31.1751 C   0  0  1  0  0  0  0  0  0  0  0  0
   49.4905   58.5674   30.9364 O   0  0  0  0  0  0  0  0  0  0  0  0
   47.7238   58.3020   32.6135 C   0  0  1  0  0  0  0  0  0  0  0  0
   48.3326   59.4350   33.1994 O   0  0  0  0  0  0  0  0  0  0  0  0
   46.2425   58.5932   32.4744 C   0  0  2  0  0  0  0  0  0  0  0  0
   48.2995   55.9934   22.4494 O   0  0  0  0  0  0  0  0  0  0  0  0
   46.1067   53.8704   34.7755 N   0  0  0  0  0  0  0  0  0  0  0  0
   47.1854   54.7008   34.6041 C   0  0  0  0  0  0  0  0  0  0  0  0
   47.0286   55.9063   33.9528 N   0  0  0  0  0  0  0  0  0  0  0  0
   45.8233   56.3051   33.5092 C   0  0  0  0  0  0  0  0  0  0  0  0
   44.7219   55.4827   33.6738 C   0  0  0  0  0  0  0  0  0  0  0  0
   44.8789   54.2656   34.3066 C   0  0  0  0  0  0  0  0  0  0  0  0
   43.8410   53.4717   34.4852 N   0  0  0  0  0  0  0  0  0  0  0  0
   43.6443   56.1051   33.1460 N   0  0  0  0  0  0  0  0  0  0  0  0
   44.0511   57.2924   32.6299 C   0  0  0  0  0  0  0  0  0  0  0  0
   45.4039   57.4313   32.8503 N   0  0  0  0  0  0  0  0  0  0  0  0
  2  1  1  1  0  0  0
  2  3  1  0  0  0  0
  2  5  1  0  0  0  0
  3  4  1  0  0  0  0
  3 16  1  0  0  0  0
  5  6  1  0  0  0  0
  6  7  1  0  0  0  0
  7  8  1  0  0  0  0
  9  8  1  6  0  0  0
  9 10  1  0  0  0  0
  9 11  1  0  0  0  0
 10 15  1  0  0  0  0
 11 12  1  1  0  0  0
 11 13  1  0  0  0  0
 13 14  1  6  0  0  0
 13 15  1  0  0  0  0
 15 26  1  6  0  0  0
 17 18  2  0  0  0  0
 17 22  1  0  0  0  0
 18 19  1  0  0  0  0
 19 20  2  0  0  0  0
 20 21  1  0  0  0  0
 20 26  1  0  0  0  0
 21 22  2  0  0  0  0
 21 24  1  0  0  0  0
 22 23  1  0  0  0  0
 24 25  2  0  0  0  0
 25 26  1  0  0  0  0
M  END
>  <CHROM.1>
-61.88299394,-74.13944797,-179.81190978,-178.45125096,169.59033202,178.99805087
134.89576851,47.01780183,56.69091554,30.12718994,0.93653919,-1.04909622,-2.14979364

>  <Name>
ligand

>  <RI>
0

>  <Rbt.Current_Directory>
/home/itssahil/PROJECTS/Mol_Feturizer/New_Systems/rnas/3GX3

>  <Rbt.Executable>
rbdock ($Id: //depot/dev/client3/rdock/2013.1/src/exe/rbdock.cxx#4 $)

>  <Rbt.Library>
libRbt.so (2013.1, Build901 2013/11/27)

>  <Rbt.Parameter_File>
/export/apps/rDock/src/rDock_2013.1_src/data/scripts/dock_solv.prm

>  <Rbt.Receptor>
prm/pocket_docking_8.prm

>  <SCORE>
-18.1186

>  <SCORE.INTER>
-15.1922

>  <SCORE.INTER.CONST>
1

>  <SCORE.INTER.POLAR>
0

>  <SCORE.INTER.ROT>
7

>  <SCORE.INTER.SOLV>
12.2504

>  <SCORE.INTER.VDW>
-22.4782

>  <SCORE.INTER.norm>
-0.584314

>  <SCORE.INTRA>
-2.92646

>  <SCORE.INTRA.DIHEDRAL>
-2.05974

>  <SCORE.INTRA.DIHEDRAL.0>
5.78979

>  <SCORE.INTRA.POLAR>
0

>  <SCORE.INTRA.POLAR.0>
0

>  <SCORE.INTRA.REPUL>
0

>  <SCORE.INTRA.REPUL.0>
0

>  <SCORE.INTRA.SOLV>
-0.446244

>  <SCORE.INTRA.SOLV.lig_0>
-49.9151

>  <SCORE.INTRA.VDW>
-1.67346

>  <SCORE.INTRA.VDW.0>
-0.211125

>  <SCORE.INTRA.norm>
-0.112556

>  <SCORE.RESTR>
0

>  <SCORE.RESTR.CAVITY>
0

>  <SCORE.RESTR.norm>
0

>  <SCORE.SYSTEM>
0

>  <SCORE.SYSTEM.CONST>
0

>  <SCORE.SYSTEM.DIHEDRAL>
0

>  <SCORE.SYSTEM.SOLV>
0

>  <SCORE.SYSTEM.norm>
0

>  <SCORE.heavy>
26

>  <SCORE.norm>
-0.69687

>  <RMSD>
4.987

$$$$
ligand
 OpenBabel11021811483D
libRbt.so/2013.1/901 2013/11/27
 26 28  0  0  0  0  0  0  0  0999 V2000
   47.7600   54.8704   28.2084 N   0  0  0  0  0  0  0  0  0  0  0  0
   47.0657   54.9112   26.9184 C   0  0  2  0  0  0  0  0  0  0  0  0
   47.2430   53.6498   26.0702 C   0  0  0  0  0  0  0  0  0  0  0  0
   46.2632   53.2143   25.4650 O   0  0  0  0  0  0  0  0  0  0  0  0
   47.4317   56.1030   26.0243 C   0  0  0  0  0  0  0  0  0  0  0  0
   47.0438   57.5201   26.4089 C   0  0  0  0  0  0  0  0  0  0  0  0
   48.0245   57.9431   27.8674 S   0  0  0  0  0  0  0  0  0  0  0  0
   46.4731   57.9065   28.7965 C   0  0  0  0  0  0  0  0  0  0  0  0
   46.4324   58.8544   29.9999 C   0  0  1  0  0  0  0  0  0  0  0  0
   45.1847   58.8220   30.7021 O   0  0  0  0  0  0  0  0  0  0  0  0
   47.5207   58.5022   31.0037 C   0  0  1  0  0  0  0  0  0  0  0  0
   48.7006   59.2362   30.7620 O   0  0  0  0  0  0  0  0  0  0  0  0
   46.8973   58.7973   32.3618 C   0  0  1  0  0  0  0  0  0  0  0  0
   47.1691   60.1183   32.7846 O   0  0  0  0  0  0  0  0  0  0  0  0
   45.4083   58.6937   32.0967 C   0  0  2  0  0  0  0  0  0  0  0  0
   48.3259   53.0622   25.9565 O   0  0  0  0  0  0  0  0  0  0  0  0
   41.9142   54.8474   31.3124 N   0  0  0  0  0  0  0  0  0  0  0  0
   42.1532   55.9498   30.5312 C   0  0  0  0  0  0  0  0  0  0  0  0
   43.1077   56.8691   30.9130 N   0  0  0  0  0  0  0  0  0  0  0  0
   43.8408   56.6889   32.0259 C   0  0  0  0  0  0  0  0  0  0  0  0
   43.6164   55.5822   32.8269 C   0  0  0  0  0  0  0  0  0  0  0  0
   42.6469   54.6704   32.4592 C   0  0  0  0  0  0  0  0  0  0  0  0
   42.4248   53.6026   33.2009 N   0  0  0  0  0  0  0  0  0  0  0  0
   44.4711   55.6344   33.8727 N   0  0  0  0  0  0  0  0  0  0  0  0
   45.2118   56.7656   33.7588 C   0  0  0  0  0  0  0  0  0  0  0  0
   44.8321   57.4306   32.6135 N   0  0  0  0  0  0  0  0  0  0  0  0
  2  1  1  1  0  0  0
  2  3  1  0  0  0  0
  2  5  1  0  0  0  0
  3  4  1  0  0  0  0
  3 16  1  0  0  0  0
  5  6  1  0  0  0  0
  6  7  1  0  0  0  0
  7  8  1  0  0  0  0
  9  8  1  6  0  0  0
  9 10  1  0  0  0  0
  9 11  1  0  0  0  0
 10 15  1  0  0  0  0
 11 12  1  6  0  0  0
 11 13  1  0  0  0  0
 13 14  1  6  0  0  0
 13 15  1  0  0  0  0
 15 26  1  6  0  0  0
 17 18  2  0  0  0  0
 17 22  1  0  0  0  0
 18 19  1  0  0  0  0
 19 20  2  0  0  0  0
 20 21  1  0  0  0  0
 20 26  1  0  0  0  0
 21 22  2  0  0  0  0
 21 24  1  0  0  0  0
 22 23  1  0  0  0  0
 24 25  2  0  0  0  0
 25 26  1  0  0  0  0
M  END
>  <CHROM.1>
138.93588830,-67.78357732,68.14654329,-111.19391874,-149.95880779,178.94613771
-21.39814789,45.84899600,56.63753822,30.01128161,0.85983575,-0.74744648,-2.32327030

>  <Name>
ligand

>  <RI>
0

>  <Rbt.Current_Directory>
/home/itssahil/PROJECTS/Mol_Feturizer/New_Systems/rnas/3GX3

>  <Rbt.Executable>
rbdock ($Id: //depot/dev/client3/rdock/2013.1/src/exe/rbdock.cxx#4 $)

>  <Rbt.Library>
libRbt.so (2013.1, Build901 2013/11/27)

>  <Rbt.Parameter_File>
/export/apps/rDock/src/rDock_2013.1_src/data/scripts/dock_solv.prm

>  <Rbt.Receptor>
prm/pocket_docking_8.prm

>  <SCORE>
-14.2941

>  <SCORE.INTER>
-13.192

>  <SCORE.INTER.CONST>
1

>  <SCORE.INTER.POLAR>
0

>  <SCORE.INTER.ROT>
7

>  <SCORE.INTER.SOLV>
9.96828

>  <SCORE.INTER.VDW>
-20.3841

>  <SCORE.INTER.norm>
-0.507384

>  <SCORE.INTRA>
-1.10211

>  <SCORE.INTRA.DIHEDRAL>
1.02966

>  <SCORE.INTRA.DIHEDRAL.0>
5.78979

>  <SCORE.INTRA.POLAR>
0

>  <SCORE.INTRA.POLAR.0>
0

>  <SCORE.INTRA.REPUL>
0

>  <SCORE.INTRA.REPUL.0>
0

>  <SCORE.INTRA.SOLV>
1.82454

>  <SCORE.INTRA.SOLV.lig_0>
-49.9151

>  <SCORE.INTRA.VDW>
-2.52921

>  <SCORE.INTRA.VDW.0>
-0.211125

>  <SCORE.INTRA.norm>
-0.0423889

>  <SCORE.RESTR>
0

>  <SCORE.RESTR.CAVITY>
0

>  <SCORE.RESTR.norm>
0

>  <SCORE.SYSTEM>
0

>  <SCORE.SYSTEM.CONST>
0

>  <SCORE.SYSTEM.DIHEDRAL>
0

>  <SCORE.SYSTEM.SOLV>
0

>  <SCORE.SYSTEM.norm>
0

>  <SCORE.heavy>
26

>  <SCORE.norm>
-0.549773

>  <RMSD>
4.988

$$$$
ligand
 OpenBabel11021811483D
libRbt.so/2013.1/901 2013/11/27
 26 28  0  0  0  0  0  0  0  0999 V2000
   48.7490   52.3921   27.5821 N   0  0  0  0  0  0  0  0  0  0  0  0
   50.0783   53.0087   27.5535 C   0  0  2  0  0  0  0  0  0  0  0  0
   51.0925   52.2730   26.6749 C   0  0  0  0  0  0  0  0  0  0  0  0
   51.8435   52.9450   25.9674 O   0  0  0  0  0  0  0  0  0  0  0  0
   50.7340   53.1958   28.9278 C   0  0  0  0  0  0  0  0  0  0  0  0
   50.0285   53.9577   30.0361 C   0  0  0  0  0  0  0  0  0  0  0  0
   49.8283   55.6545   29.4460 S   0  0  0  0  0  0  0  0  0  0  0  0
   49.4867   56.1047   31.1642 C   0  0  0  0  0  0  0  0  0  0  0  0
   48.9001   57.5085   31.3471 C   0  0  1  0  0  0  0  0  0  0  0  0
   47.5414   57.6143   30.9066 O   0  0  0  0  0  0  0  0  0  0  0  0
   48.9297   57.9211   32.8116 C   0  0  1  0  0  0  0  0  0  0  0  0
   50.1098   58.6279   33.1232 O   0  0  0  0  0  0  0  0  0  0  0  0
   47.6656   58.7497   33.0004 C   0  0  1  0  0  0  0  0  0  0  0  0
   47.9062   60.1253   32.7820 O   0  0  0  0  0  0  0  0  0  0  0  0
   46.7531   58.2585   31.8940 C   0  0  2  0  0  0  0  0  0  0  0  0
   51.1982   51.0404   26.6571 O   0  0  0  0  0  0  0  0  0  0  0  0
   45.6540   53.9736   34.7311 N   0  0  0  0  0  0  0  0  0  0  0  0
   46.8821   54.5262   34.4685 C   0  0  0  0  0  0  0  0  0  0  0  0
   46.9743   55.6539   33.6799 N   0  0  0  0  0  0  0  0  0  0  0  0
   45.8739   56.2497   33.1874 C   0  0  0  0  0  0  0  0  0  0  0  0
   44.6251   55.7089   33.4422 C   0  0  0  0  0  0  0  0  0  0  0  0
   44.5302   54.5678   34.2137 C   0  0  0  0  0  0  0  0  0  0  0  0
   43.3499   54.0425   34.4794 N   0  0  0  0  0  0  0  0  0  0  0  0
   43.6956   56.4842   32.8405 N   0  0  0  0  0  0  0  0  0  0  0  0
   44.3370   57.4881   32.1909 C   0  0  0  0  0  0  0  0  0  0  0  0
   45.6925   57.3563   32.3995 N   0  0  0  0  0  0  0  0  0  0  0  0
  2  1  1  1  0  0  0
  2  3  1  0  0  0  0
  2  5  1  0  0  0  0
  3  4  1  0  0  0  0
  3 16  1  0  0  0  0
  5  6  1  0  0  0  0
  6  7  1  0  0  0  0
  7  8  1  0  0  0  0
  9  8  1  1  0  0  0
  9 10  1  0  0  0  0
  9 11  1  0  0  0  0
 10 15  1  0  0  0  0
 11 12  1  6  0  0  0
 11 13  1  0  0  0  0
 13 14  1  6  0  0  0
 13 15  1  0  0  0  0
 15 26  1  1  0  0  0
 17 18  2  0  0  0  0
 17 22  1  0  0  0  0
 18 19  1  0  0  0  0
 19 20  2  0  0  0  0
 20 21  1  0  0  0  0
 20 26  1  0  0  0  0
 21 22  2  0  0  0  0
 21 24  1  0  0  0  0
 22 23  1  0  0  0  0
 24 25  2  0  0  0  0
 25 26  1  0  0  0  0
M  END
>  <CHROM.1>
138.30924107,-55.29584250,-63.06078431,-164.30128001,-167.17607731,72.06380688
70.32242934,47.97772474,55.60373293,31.20263757,0.76031300,-0.64904544,-2.70431588

>  <Name>
ligand

>  <RI>
0

>  <Rbt.Current_Directory>
/home/itssahil/PROJECTS/Mol_Feturizer/New_Systems/rnas/3GX3

>  <Rbt.Executable>
rbdock ($Id: //depot/dev/client3/rdock/2013.1/src/exe/rbdock.cxx#4 $)

>  <Rbt.Library>
libRbt.so (2013.1, Build901 2013/11/27)

>  <Rbt.Parameter_File>
/export/apps/rDock/src/rDock_2013.1_src/data/scripts/dock_solv.prm

>  <Rbt.Receptor>
prm/pocket_docking_7.prm

>  <SCORE>
-17.9706

>  <SCORE.INTER>
-14.2105

>  <SCORE.INTER.CONST>
1

>  <SCORE.INTER.POLAR>
0

>  <SCORE.INTER.ROT>
7

>  <SCORE.INTER.SOLV>
11.4784

>  <SCORE.INTER.VDW>
-21.5665

>  <SCORE.INTER.norm>
-0.546559

>  <SCORE.INTRA>
-3.76985

>  <SCORE.INTRA.DIHEDRAL>
-1.72174

>  <SCORE.INTRA.DIHEDRAL.0>
5.78979

>  <SCORE.INTRA.POLAR>
0

>  <SCORE.INTRA.POLAR.0>
0

>  <SCORE.INTRA.REPUL>
0

>  <SCORE.INTRA.REPUL.0>
0

>  <SCORE.INTRA.SOLV>
0.0983445

>  <SCORE.INTRA.SOLV.lig_0>
-49.9151

>  <SCORE.INTRA.VDW>
-2.95815

>  <SCORE.INTRA.VDW.0>
-0.211125

>  <SCORE.INTRA.norm>
-0.144994

>  <SCORE.RESTR>
0.0098157

>  <SCORE.RESTR.CAVITY>
0.0098157

>  <SCORE.RESTR.norm>
0.000377527

>  <SCORE.SYSTEM>
0

>  <SCORE.SYSTEM.CONST>
0

>  <SCORE.SYSTEM.DIHEDRAL>
0

>  <SCORE.SYSTEM.SOLV>
0

>  <SCORE.SYSTEM.norm>
0

>  <SCORE.heavy>
26

>  <SCORE.norm>
-0.691176

>  <RMSD>
4.990

$$$$
ligand
 OpenBabel11021811483D
libRbt.so/2013.1/901 2013/11/27
 26 28  0  0  0  0  0  0  0  0999 V2000
   46.9083   55.5387   28.7724 N   0  0  0  0  0  0  0  0  0  0  0  0
   46.5191   56.7892   28.1147 C   0  0  2  0  0  0  0  0  0  0  0  0
   47.4642   57.2298   26.9947 C   0  0  0  0  0  0  0  0  0  0  0  0
   46.9792   57.4842   25.8919 O   0  0  0  0  0  0  0  0  0  0  0  0
   46.3540   57.9903   29.0549 C   0  0  0  0  0  0  0  0  0  0  0  0
   45.1261   58.1323   29.9374 C   0  0  0  0  0  0  0  0  0  0  0  0
   45.5067   59.4243   31.1430 S   0  0  0  0  0  0  0  0  0  0  0  0
   45.8516   58.0895   32.3138 C   0  0  0  0  0  0  0  0  0  0  0  0
   47.2358   58.1614   32.9673 C   0  0  1  0  0  0  0  0  0  0  0  0
   47.6405   56.9267   33.5697 O   0  0  0  0  0  0  0  0  0  0  0  0
   48.2995   58.5302   31.9435 C   0  0  1  0  0  0  0  0  0  0  0  0
   48.5070   59.9245   31.8966 O   0  0  0  0  0  0  0  0  0  0  0  0
   49.5350   57.7534   32.3797 C   0  0  1  0  0  0  0  0  0  0  0  0
   50.3487   58.5136   33.2500 O   0  0  0  0  0  0  0  0  0  0  0  0
   48.9621   56.5967   33.1748 C   0  0  2  0  0  0  0  0  0  0  0  0
   48.6848   57.3542   27.1543 O   0  0  0  0  0  0  0  0  0  0  0  0
   49.9803   54.2859   28.5659 N   0  0  0  0  0  0  0  0  0  0  0  0
   50.0799   55.6155   28.8896 C   0  0  0  0  0  0  0  0  0  0  0  0
   49.7485   56.0409   30.1589 N   0  0  0  0  0  0  0  0  0  0  0  0
   49.3602   55.1681   31.1054 C   0  0  0  0  0  0  0  0  0  0  0  0
   49.2548   53.8220   30.7997 C   0  0  0  0  0  0  0  0  0  0  0  0
   49.5654   53.3950   29.5239 C   0  0  0  0  0  0  0  0  0  0  0  0
   49.4840   52.1155   29.2141 N   0  0  0  0  0  0  0  0  0  0  0  0
   48.8483   53.1650   31.9088 N   0  0  0  0  0  0  0  0  0  0  0  0
   48.6715   54.0751   32.8997 C   0  0  0  0  0  0  0  0  0  0  0  0
   48.9881   55.3252   32.4150 N   0  0  0  0  0  0  0  0  0  0  0  0
  2  1  1  1  0  0  0
  2  3  1  0  0  0  0
  2  5  1  0  0  0  0
  3  4  1  0  0  0  0
  3 16  1  0  0  0  0
  5  6  1  0  0  0  0
  6  7  1  0  0  0  0
  7  8  1  0  0  0  0
  9  8  1  6  0  0  0
  9 10  1  0  0  0  0
  9 11  1  0  0  0  0
 10 15  1  0  0  0  0
 11 12  1  1  0  0  0
 11 13  1  0  0  0  0
 13 14  1  1  0  0  0
 13 15  1  0  0  0  0
 15 26  1  6  0  0  0
 17 18  2  0  0  0  0
 17 22  1  0  0  0  0
 18 19  1  0  0  0  0
 19 20  2  0  0  0  0
 20 21  1  0  0  0  0
 20 26  1  0  0  0  0
 21 22  2  0  0  0  0
 21 24  1  0  0  0  0
 22 23  1  0  0  0  0
 24 25  2  0  0  0  0
 25 26  1  0  0  0  0
M  END
>  <CHROM.1>
127.48229880,-76.30460187,166.64378753,-100.15201342,125.75450295,-162.80445945
116.29270438,48.07603004,56.66137279,30.56461844,0.71132363,0.97634123,-1.95305430

>  <Name>
ligand

>  <RI>
0

>  <Rbt.Current_Directory>
/home/itssahil/PROJECTS/Mol_Feturizer/New_Systems/rnas/3GX3

>  <Rbt.Executable>
rbdock ($Id: //depot/dev/client3/rdock/2013.1/src/exe/rbdock.cxx#4 $)

>  <Rbt.Library>
libRbt.so (2013.1, Build901 2013/11/27)

>  <Rbt.Parameter_File>
/export/apps/rDock/src/rDock_2013.1_src/data/scripts/dock_solv.prm

>  <Rbt.Receptor>
prm/pocket_docking_2.prm

>  <SCORE>
-10.8959

>  <SCORE.INTER>
-10.4954

>  <SCORE.INTER.CONST>
1

>  <SCORE.INTER.POLAR>
0

>  <SCORE.INTER.ROT>
7

>  <SCORE.INTER.SOLV>
13.5275

>  <SCORE.INTER.VDW>
-19.7727

>  <SCORE.INTER.norm>
-0.403668

>  <SCORE.INTRA>
-0.597577

>  <SCORE.INTRA.DIHEDRAL>
3.82888

>  <SCORE.INTRA.DIHEDRAL.0>
5.78979

>  <SCORE.INTRA.POLAR>
0

>  <SCORE.INTRA.POLAR.0>
0

>  <SCORE.INTRA.REPUL>
0

>  <SCORE.INTRA.REPUL.0>
0

>  <SCORE.INTRA.SOLV>
2.23314

>  <SCORE.INTRA.SOLV.lig_0>
-49.9151

>  <SCORE.INTRA.VDW>
-3.62859

>  <SCORE.INTRA.VDW.0>
-0.211125

>  <SCORE.INTRA.norm>
-0.0229837

>  <SCORE.RESTR>
0.197022

>  <SCORE.RESTR.CAVITY>
0.197022

>  <SCORE.RESTR.norm>
0.00757779

>  <SCORE.SYSTEM>
0

>  <SCORE.SYSTEM.CONST>
0

>  <SCORE.SYSTEM.DIHEDRAL>
0

>  <SCORE.SYSTEM.SOLV>
0

>  <SCORE.SYSTEM.norm>
0

>  <SCORE.heavy>
26

>  <SCORE.norm>
-0.419074

>  <RMSD>
4.995

$$$$
ligand
 OpenBabel11021811483D
libRbt.so/2013.1/901 2013/11/27
 26 28  0  0  0  0  0  0  0  0999 V2000
   47.9373   54.9543   24.2569 N   0  0  0  0  0  0  0  0  0  0  0  0
   48.4147   54.6674   25.6125 C   0  0  2  0  0  0  0  0  0  0  0  0
   47.5253   53.7027   26.4000 C   0  0  0  0  0  0  0  0  0  0  0  0
   46.3049   53.8512   26.3325 O   0  0  0  0  0  0  0  0  0  0  0  0
   48.6251   55.9018   26.4989 C   0  0  0  0  0  0  0  0  0  0  0  0
   47.4570   56.7826   26.9067 C   0  0  0  0  0  0  0  0  0  0  0  0
   48.1515   58.1395   27.8784 S   0  0  0  0  0  0  0  0  0  0  0  0
   46.6511   58.0530   28.8847 C   0  0  0  0  0  0  0  0  0  0  0  0
   46.6692   58.9485   30.1281 C   0  0  1  0  0  0  0  0  0  0  0  0
   45.4514   58.8952   30.8798 O   0  0  0  0  0  0  0  0  0  0  0  0
   47.7949   58.5452   31.0695 C   0  0  1  0  0  0  0  0  0  0  0  0
   48.9705   59.2800   30.8101 O   0  0  0  0  0  0  0  0  0  0  0  0
   47.2312   58.7862   32.4639 C   0  0  1  0  0  0  0  0  0  0  0  0
   47.5325   60.0857   32.9309 O   0  0  0  0  0  0  0  0  0  0  0  0
   45.7315   58.7054   32.2571 C   0  0  2  0  0  0  0  0  0  0  0  0
   47.9781   52.7771   27.0850 O   0  0  0  0  0  0  0  0  0  0  0  0
   46.6917   54.1648   34.7227 N   0  0  0  0  0  0  0  0  0  0  0  0
   47.5725   55.1755   34.4311 C   0  0  0  0  0  0  0  0  0  0  0  0
   47.1352   56.2949   33.7545 N   0  0  0  0  0  0  0  0  0  0  0  0
   45.8449   56.4343   33.4022 C   0  0  0  0  0  0  0  0  0  0  0  0
   44.9398   55.4266   33.6887 C   0  0  0  0  0  0  0  0  0  0  0  0
   45.3781   54.2951   34.3472 C   0  0  0  0  0  0  0  0  0  0  0  0
   44.5307   53.3281   34.6412 N   0  0  0  0  0  0  0  0  0  0  0  0
   43.7245   55.8053   33.2339 N   0  0  0  0  0  0  0  0  0  0  0  0
   43.8523   57.0208   32.6443 C   0  0  0  0  0  0  0  0  0  0  0  0
   45.1656   57.4255   32.7432 N   0  0  0  0  0  0  0  0  0  0  0  0
  2  1  1  6  0  0  0
  2  3  1  0  0  0  0
  2  5  1  0  0  0  0
  3  4  1  0  0  0  0
  3 16  1  0  0  0  0
  5  6  1  0  0  0  0
  6  7  1  0  0  0  0
  7  8  1  0  0  0  0
  9  8  1  6  0  0  0
  9 10  1  0  0  0  0
  9 11  1  0  0  0  0
 10 15  1  0  0  0  0
 11 12  1  6  0  0  0
 11 13  1  0  0  0  0
 13 14  1  6  0  0  0
 13 15  1  0  0  0  0
 15 26  1  6  0  0  0
 17 18  2  0  0  0  0
 17 22  1  0  0  0  0
 18 19  1  0  0  0  0
 19 20  2  0  0  0  0
 20 21  1  0  0  0  0
 20 26  1  0  0  0  0
 21 22  2  0  0  0  0
 21 24  1  0  0  0  0
 22 23  1  0  0  0  0
 24 25  2  0  0  0  0
 25 26  1  0  0  0  0
M  END
>  <CHROM.1>
-42.73781242,64.58227045,-177.79851173,-144.10668846,173.04279132,177.94340923
126.67341829,46.77036037,56.55174953,30.47565788,0.70946967,-1.20307574,-2.52760608

>  <Name>
ligand

>  <RI>
0

>  <Rbt.Current_Directory>
/home/itssahil/PROJECTS/Mol_Feturizer/New_Systems/rnas/3GX3

>  <Rbt.Executable>
rbdock ($Id: //depot/dev/client3/rdock/2013.1/src/exe/rbdock.cxx#4 $)

>  <Rbt.Library>
libRbt.so (2013.1, Build901 2013/11/27)

>  <Rbt.Parameter_File>
/export/apps/rDock/src/rDock_2013.1_src/data/scripts/dock_solv.prm

>  <Rbt.Receptor>
prm/pocket_docking_7.prm

>  <SCORE>
-14.3975

>  <SCORE.INTER>
-11.7721

>  <SCORE.INTER.CONST>
1

>  <SCORE.INTER.POLAR>
0

>  <SCORE.INTER.ROT>
7

>  <SCORE.INTER.SOLV>
13.8333

>  <SCORE.INTER.VDW>
-20.7258

>  <SCORE.INTER.norm>
-0.452772

>  <SCORE.INTRA>
-2.62553

>  <SCORE.INTRA.DIHEDRAL>
-1.23069

>  <SCORE.INTRA.DIHEDRAL.0>
5.78979

>  <SCORE.INTRA.POLAR>
0

>  <SCORE.INTRA.POLAR.0>
0

>  <SCORE.INTRA.REPUL>
0

>  <SCORE.INTRA.REPUL.0>
0

>  <SCORE.INTRA.SOLV>
-0.383618

>  <SCORE.INTRA.SOLV.lig_0>
-49.9151

>  <SCORE.INTRA.VDW>
-1.81837

>  <SCORE.INTRA.VDW.0>
-0.211125

>  <SCORE.INTRA.norm>
-0.100982

>  <SCORE.RESTR>
8.21304e-05

>  <SCORE.RESTR.CAVITY>
8.21304e-05

>  <SCORE.RESTR.norm>
3.15886e-06

>  <SCORE.SYSTEM>
0

>  <SCORE.SYSTEM.CONST>
0

>  <SCORE.SYSTEM.DIHEDRAL>
0

>  <SCORE.SYSTEM.SOLV>
0

>  <SCORE.SYSTEM.norm>
0

>  <SCORE.heavy>
26

>  <SCORE.norm>
-0.55375

>  <RMSD>
4.997

$$$$
ligand
 OpenBabel11021811483D
libRbt.so/2013.1/901 2013/11/27
 26 28  0  0  0  0  0  0  0  0999 V2000
   45.9629   59.7551   31.8708 N   0  0  0  0  0  0  0  0  0  0  0  0
   46.4732   59.2033   30.6127 C   0  0  2  0  0  0  0  0  0  0  0  0
   45.9131   57.8237   30.2597 C   0  0  0  0  0  0  0  0  0  0  0  0
   45.7283   57.5583   29.0716 O   0  0  0  0  0  0  0  0  0  0  0  0
   48.0012   59.0983   30.5251 C   0  0  0  0  0  0  0  0  0  0  0  0
   48.7767   58.1656   31.4391 C   0  0  0  0  0  0  0  0  0  0  0  0
   48.5738   58.8053   33.1176 S   0  0  0  0  0  0  0  0  0  0  0  0
   49.3472   57.2727   33.6869 C   0  0  0  0  0  0  0  0  0  0  0  0
   48.3612   56.1389   33.9880 C   0  0  1  0  0  0  0  0  0  0  0  0
   47.5876   55.7461   32.8486 O   0  0  0  0  0  0  0  0  0  0  0  0
   49.0948   54.8997   34.4802 C   0  0  1  0  0  0  0  0  0  0  0  0
   49.1850   54.8803   35.8877 O   0  0  0  0  0  0  0  0  0  0  0  0
   48.2964   53.7330   33.9133 C   0  0  1  0  0  0  0  0  0  0  0  0
   47.3000   53.2957   34.8152 O   0  0  0  0  0  0  0  0  0  0  0  0
   47.5985   54.3347   32.7095 C   0  0  2  0  0  0  0  0  0  0  0  0
   45.6540   56.9646   31.1116 O   0  0  0  0  0  0  0  0  0  0  0  0
   46.9329   51.9818   28.0578 N   0  0  0  0  0  0  0  0  0  0  0  0
   46.0125   52.1572   29.0601 C   0  0  0  0  0  0  0  0  0  0  0  0
   46.3810   52.7894   30.2291 N   0  0  0  0  0  0  0  0  0  0  0  0
   47.6245   53.2736   30.3954 C   0  0  0  0  0  0  0  0  0  0  0  0
   48.5676   53.1086   29.3954 C   0  0  0  0  0  0  0  0  0  0  0  0
   48.2084   52.4574   28.2320 C   0  0  0  0  0  0  0  0  0  0  0  0
   49.0872   52.2999   27.2613 N   0  0  0  0  0  0  0  0  0  0  0  0
   49.7244   53.6757   29.8046 N   0  0  0  0  0  0  0  0  0  0  0  0
   49.5347   54.1722   31.0531 C   0  0  0  0  0  0  0  0  0  0  0  0
   48.2324   53.9313   31.4328 N   0  0  0  0  0  0  0  0  0  0  0  0
  2  1  1  1  0  0  0
  2  3  1  0  0  0  0
  2  5  1  0  0  0  0
  3  4  1  0  0  0  0
  3 16  1  0  0  0  0
  5  6  1  0  0  0  0
  6  7  1  0  0  0  0
  7  8  1  0  0  0  0
  9  8  1  6  0  0  0
  9 10  1  0  0  0  0
  9 11  1  0  0  0  0
 10 15  1  0  0  0  0
 11 12  1  1  0  0  0
 11 13  1  0  0  0  0
 13 14  1  1  0  0  0
 13 15  1  0  0  0  0
 15 26  1  6  0  0  0
 17 18  2  0  0  0  0
 17 22  1  0  0  0  0
 18 19  1  0  0  0  0
 19 20  2  0  0  0  0
 20 21  1  0  0  0  0
 20 26  1  0  0  0  0
 21 22  2  0  0  0  0
 21 24  1  0  0  0  0
 22 23  1  0  0  0  0
 24 25  2  0  0  0  0
 25 26  1  0  0  0  0
M  END
>  <CHROM.1>
145.62841676,65.23769601,-65.86566567,170.42129165,-90.99884307,60.49508773
-116.51478866,47.79747252,55.51110041,31.50616649,1.55659422,-1.22258932
0.57392578

>  <Name>
ligand

>  <RI>
0

>  <Rbt.Current_Directory>
/home/itssahil/PROJECTS/Mol_Feturizer/New_Systems/rnas/3GX3

>  <Rbt.Executable>
rbdock ($Id: //depot/dev/client3/rdock/2013.1/src/exe/rbdock.cxx#4 $)

>  <Rbt.Library>
libRbt.so (2013.1, Build901 2013/11/27)

>  <Rbt.Parameter_File>
/export/apps/rDock/src/rDock_2013.1_src/data/scripts/dock_solv.prm

>  <Rbt.Receptor>
prm/pocket_docking_4.prm

>  <SCORE>
-19.3862

>  <SCORE.INTER>
-15.6867

>  <SCORE.INTER.CONST>
1

>  <SCORE.INTER.POLAR>
0

>  <SCORE.INTER.ROT>
7

>  <SCORE.INTER.SOLV>
11.371

>  <SCORE.INTER.VDW>
-22.5148

>  <SCORE.INTER.norm>
-0.603333

>  <SCORE.INTRA>
-3.69957

>  <SCORE.INTRA.DIHEDRAL>
-1.38538

>  <SCORE.INTRA.DIHEDRAL.0>
5.78979

>  <SCORE.INTRA.POLAR>
0

>  <SCORE.INTRA.POLAR.0>
0

>  <SCORE.INTRA.REPUL>
0

>  <SCORE.INTRA.REPUL.0>
0

>  <SCORE.INTRA.SOLV>
1.01783

>  <SCORE.INTRA.SOLV.lig_0>
-49.9151

>  <SCORE.INTRA.VDW>
-3.5158

>  <SCORE.INTRA.VDW.0>
-0.211125

>  <SCORE.INTRA.norm>
-0.142291

>  <SCORE.RESTR>
0

>  <SCORE.RESTR.CAVITY>
0

>  <SCORE.RESTR.norm>
0

>  <SCORE.SYSTEM>
0

>  <SCORE.SYSTEM.CONST>
0

>  <SCORE.SYSTEM.DIHEDRAL>
0

>  <SCORE.SYSTEM.SOLV>
0

>  <SCORE.SYSTEM.norm>
0

>  <SCORE.heavy>
26

>  <SCORE.norm>
-0.745625

>  <RMSD>
4.999

$$$$
ligand
 OpenBabel11021811483D
libRbt.so/2013.1/901 2013/11/27
 26 28  0  0  0  0  0  0  0  0999 V2000
   49.4617   53.8517   27.3469 N   0  0  0  0  0  0  0  0  0  0  0  0
   49.9861   55.1783   27.0110 C   0  0  2  0  0  0  0  0  0  0  0  0
   50.9300   55.7648   28.0631 C   0  0  0  0  0  0  0  0  0  0  0  0
   50.5364   55.8238   29.2283 O   0  0  0  0  0  0  0  0  0  0  0  0
   48.9186   56.2433   26.7287 C   0  0  0  0  0  0  0  0  0  0  0  0
   47.8371   56.5588   27.7474 C   0  0  0  0  0  0  0  0  0  0  0  0
   47.0185   58.0662   27.1772 S   0  0  0  0  0  0  0  0  0  0  0  0
   45.8796   57.8525   28.5660 C   0  0  0  0  0  0  0  0  0  0  0  0
   46.2464   58.6588   29.8164 C   0  0  1  0  0  0  0  0  0  0  0  0
   45.1618   58.7887   30.7426 O   0  0  0  0  0  0  0  0  0  0  0  0
   47.3984   58.0037   30.5646 C   0  0  1  0  0  0  0  0  0  0  0  0
   48.6425   58.5230   30.1502 O   0  0  0  0  0  0  0  0  0  0  0  0
   47.0974   58.2663   32.0345 C   0  0  1  0  0  0  0  0  0  0  0  0
   47.7044   59.4601   32.4860 O   0  0  0  0  0  0  0  0  0  0  0  0
   45.5959   58.4742   32.0557 C   0  0  2  0  0  0  0  0  0  0  0  0
   52.0696   56.1658   27.7959 O   0  0  0  0  0  0  0  0  0  0  0  0
   41.7572   54.9781   31.2436 N   0  0  0  0  0  0  0  0  0  0  0  0
   42.1388   56.0223   30.4395 C   0  0  0  0  0  0  0  0  0  0  0  0
   43.1674   56.8526   30.8326 N   0  0  0  0  0  0  0  0  0  0  0  0
   43.8340   56.6380   31.9807 C   0  0  0  0  0  0  0  0  0  0  0  0
   43.4656   55.5888   32.8055 C   0  0  0  0  0  0  0  0  0  0  0  0
   42.4224   54.7680   32.4255 C   0  0  0  0  0  0  0  0  0  0  0  0
   42.0626   53.7551   33.1898 N   0  0  0  0  0  0  0  0  0  0  0  0
   44.2798   55.5906   33.8845 N   0  0  0  0  0  0  0  0  0  0  0  0
   45.1370   56.6359   33.7670 C   0  0  0  0  0  0  0  0  0  0  0  0
   44.8728   57.2953   32.5865 N   0  0  0  0  0  0  0  0  0  0  0  0
  2  1  1  1  0  0  0
  2  3  1  0  0  0  0
  2  5  1  0  0  0  0
  3  4  1  0  0  0  0
  3 16  1  0  0  0  0
  5  6  1  0  0  0  0
  6  7  1  0  0  0  0
  7  8  1  0  0  0  0
  9  8  1  6  0  0  0
  9 10  1  0  0  0  0
  9 11  1  0  0  0  0
 10 15  1  0  0  0  0
 11 12  1  6  0  0  0
 11 13  1  0  0  0  0
 13 14  1  6  0  0  0
 13 15  1  0  0  0  0
 15 26  1  6  0  0  0
 17 18  2  0  0  0  0
 17 22  1  0  0  0  0
 18 19  1  0  0  0  0
 19 20  2  0  0  0  0
 20 21  1  0  0  0  0
 20 26  1  0  0  0  0
 21 22  2  0  0  0  0
 21 24  1  0  0  0  0
 22 23  1  0  0  0  0
 24 25  2  0  0  0  0
 25 26  1  0  0  0  0
M  END
>  <CHROM.1>
-53.22801191,55.65433933,168.76806627,175.67545436,96.06151569,162.87853114
-5.60630962,46.43489298,56.79098704,30.20985978,0.34826829,-0.52071955,-2.42712224

>  <Name>
ligand

>  <RI>
0

>  <Rbt.Current_Directory>
/home/itssahil/PROJECTS/Mol_Feturizer/New_Systems/rnas/3GX3

>  <Rbt.Executable>
rbdock ($Id: //depot/dev/client3/rdock/2013.1/src/exe/rbdock.cxx#4 $)

>  <Rbt.Library>
libRbt.so (2013.1, Build901 2013/11/27)

>  <Rbt.Parameter_File>
/export/apps/rDock/src/rDock_2013.1_src/data/scripts/dock_solv.prm

>  <Rbt.Receptor>
prm/pocket_docking_7.prm

>  <SCORE>
-17.0296

>  <SCORE.INTER>
-14.3121

>  <SCORE.INTER.CONST>
1

>  <SCORE.INTER.POLAR>
0

>  <SCORE.INTER.ROT>
7

>  <SCORE.INTER.SOLV>
8.71071

>  <SCORE.INTER.VDW>
-20.7117

>  <SCORE.INTER.norm>
-0.550467

>  <SCORE.INTRA>
-2.71743

>  <SCORE.INTRA.DIHEDRAL>
0.196927

>  <SCORE.INTRA.DIHEDRAL.0>
5.78979

>  <SCORE.INTRA.POLAR>
0

>  <SCORE.INTRA.POLAR.0>
0

>  <SCORE.INTRA.REPUL>
0

>  <SCORE.INTRA.REPUL.0>
0

>  <SCORE.INTRA.SOLV>
-0.0193019

>  <SCORE.INTRA.SOLV.lig_0>
-49.9151

>  <SCORE.INTRA.VDW>
-2.80624

>  <SCORE.INTRA.VDW.0>
-0.211125

>  <SCORE.INTRA.norm>
-0.104517

>  <SCORE.RESTR>
0

>  <SCORE.RESTR.CAVITY>
0

>  <SCORE.RESTR.norm>
0

>  <SCORE.SYSTEM>
0

>  <SCORE.SYSTEM.CONST>
0

>  <SCORE.SYSTEM.DIHEDRAL>
0

>  <SCORE.SYSTEM.SOLV>
0

>  <SCORE.SYSTEM.norm>
0

>  <SCORE.heavy>
26

>  <SCORE.norm>
-0.654983

>  <RMSD>
5.009

$$$$
ligand
 OpenBabel11021811483D
libRbt.so/2013.1/901 2013/11/27
 26 28  0  0  0  0  0  0  0  0999 V2000
   48.9103   55.2316   35.8096 N   0  0  0  0  0  0  0  0  0  0  0  0
   49.1265   55.4167   34.3720 C   0  0  2  0  0  0  0  0  0  0  0  0
   48.8546   56.8381   33.8745 C   0  0  0  0  0  0  0  0  0  0  0  0
   47.6882   57.1612   33.6481 O   0  0  0  0  0  0  0  0  0  0  0  0
   48.3248   54.4693   33.4701 C   0  0  0  0  0  0  0  0  0  0  0  0
   48.4564   54.5274   31.9582 C   0  0  0  0  0  0  0  0  0  0  0  0
   46.8085   54.8960   31.3129 S   0  0  0  0  0  0  0  0  0  0  0  0
   47.2627   53.9056   29.8692 C   0  0  0  0  0  0  0  0  0  0  0  0
   47.7185   54.7244   28.6567 C   0  0  1  0  0  0  0  0  0  0  0  0
   46.7178   55.6307   28.1790 O   0  0  0  0  0  0  0  0  0  0  0  0
   48.9491   55.5535   28.9949 C   0  0  1  0  0  0  0  0  0  0  0  0
   50.1375   54.8620   28.6805 O   0  0  0  0  0  0  0  0  0  0  0  0
   48.7737   56.8397   28.1980 C   0  0  1  0  0  0  0  0  0  0  0  0
   49.3875   56.7541   26.9277 O   0  0  0  0  0  0  0  0  0  0  0  0
   47.2751   56.9200   27.9829 C   0  0  2  0  0  0  0  0  0  0  0  0
   49.7504   57.6747   33.7054 O   0  0  0  0  0  0  0  0  0  0  0  0
   47.8828   60.1380   32.0931 N   0  0  0  0  0  0  0  0  0  0  0  0
   48.8054   59.2891   31.5355 C   0  0  0  0  0  0  0  0  0  0  0  0
   48.4528   58.5006   30.4603 N   0  0  0  0  0  0  0  0  0  0  0  0
   47.2237   58.5722   29.9192 C   0  0  0  0  0  0  0  0  0  0  0  0
   46.2788   59.4237   30.4658 C   0  0  0  0  0  0  0  0  0  0  0  0
   46.6215   60.1992   31.5555 C   0  0  0  0  0  0  0  0  0  0  0  0
   45.7410   61.0264   32.0847 N   0  0  0  0  0  0  0  0  0  0  0  0
   45.1383   59.3087   29.7494 N   0  0  0  0  0  0  0  0  0  0  0  0
   45.3394   58.3826   28.7781 C   0  0  0  0  0  0  0  0  0  0  0  0
   46.6329   57.9174   28.8702 N   0  0  0  0  0  0  0  0  0  0  0  0
  2  1  1  1  0  0  0
  2  3  1  0  0  0  0
  2  5  1  0  0  0  0
  3  4  1  0  0  0  0
  3 16  1  0  0  0  0
  5  6  1  0  0  0  0
  6  7  1  0  0  0  0
  7  8  1  0  0  0  0
  9  8  1  1  0  0  0
  9 10  1  0  0  0  0
  9 11  1  0  0  0  0
 10 15  1  0  0  0  0
 11 12  1  6  0  0  0
 11 13  1  0  0  0  0
 13 14  1  6  0  0  0
 13 15  1  0  0  0  0
 15 26  1  1  0  0  0
 17 18  2  0  0  0  0
 17 22  1  0  0  0  0
 18 19  1  0  0  0  0
 19 20  2  0  0  0  0
 20 21  1  0  0  0  0
 20 26  1  0  0  0  0
 21 22  2  0  0  0  0
 21 24  1  0  0  0  0
 22 23  1  0  0  0  0
 24 25  2  0  0  0  0
 25 26  1  0  0  0  0
M  END
>  <CHROM.1>
-81.43794610,-179.18310427,-120.24541912,-147.93082331,-99.06145841,-59.96895917
112.29551612,47.76905405,56.92126498,30.83094510,-0.99859175,1.19028866,-1.95916643

>  <Name>
ligand

>  <RI>
0

>  <Rbt.Current_Directory>
/home/itssahil/PROJECTS/Mol_Feturizer/New_Systems/rnas/3GX3

>  <Rbt.Executable>
rbdock ($Id: //depot/dev/client3/rdock/2013.1/src/exe/rbdock.cxx#4 $)

>  <Rbt.Library>
libRbt.so (2013.1, Build901 2013/11/27)

>  <Rbt.Parameter_File>
/export/apps/rDock/src/rDock_2013.1_src/data/scripts/dock_solv.prm

>  <Rbt.Receptor>
prm/pocket_docking_2.prm

>  <SCORE>
-6.15816

>  <SCORE.INTER>
-6.77618

>  <SCORE.INTER.CONST>
1

>  <SCORE.INTER.POLAR>
0

>  <SCORE.INTER.ROT>
7

>  <SCORE.INTER.SOLV>
21.253

>  <SCORE.INTER.VDW>
-19.8685

>  <SCORE.INTER.norm>
-0.260622

>  <SCORE.INTRA>
-0.964294

>  <SCORE.INTRA.DIHEDRAL>
5.61515

>  <SCORE.INTRA.DIHEDRAL.0>
5.78979

>  <SCORE.INTRA.POLAR>
0

>  <SCORE.INTRA.POLAR.0>
0

>  <SCORE.INTRA.REPUL>
0

>  <SCORE.INTRA.REPUL.0>
0

>  <SCORE.INTRA.SOLV>
-0.631439

>  <SCORE.INTRA.SOLV.lig_0>
-49.9151

>  <SCORE.INTRA.VDW>
-3.45615

>  <SCORE.INTRA.VDW.0>
-0.211125

>  <SCORE.INTRA.norm>
-0.0370882

>  <SCORE.RESTR>
1.58232

>  <SCORE.RESTR.CAVITY>
1.58232

>  <SCORE.RESTR.norm>
0.0608583

>  <SCORE.SYSTEM>
0

>  <SCORE.SYSTEM.CONST>
0

>  <SCORE.SYSTEM.DIHEDRAL>
0

>  <SCORE.SYSTEM.SOLV>
0

>  <SCORE.SYSTEM.norm>
0

>  <SCORE.heavy>
26

>  <SCORE.norm>
-0.236852

>  <RMSD>
5.017

$$$$
ligand
 OpenBabel11021811483D
libRbt.so/2013.1/901 2013/11/27
 26 28  0  0  0  0  0  0  0  0999 V2000
   49.8583   52.6532   26.3199 N   0  0  0  0  0  0  0  0  0  0  0  0
   50.1633   53.8223   27.1494 C   0  0  2  0  0  0  0  0  0  0  0  0
   50.8392   53.4878   28.4809 C   0  0  0  0  0  0  0  0  0  0  0  0
   52.0102   53.8333   28.6409 O   0  0  0  0  0  0  0  0  0  0  0  0
   48.9597   54.7164   27.4744 C   0  0  0  0  0  0  0  0  0  0  0  0
   49.1434   56.0622   28.1539 C   0  0  0  0  0  0  0  0  0  0  0  0
   47.4865   56.7365   28.4143 S   0  0  0  0  0  0  0  0  0  0  0  0
   48.2937   58.3193   28.7531 C   0  0  0  0  0  0  0  0  0  0  0  0
   47.9124   58.9506   30.0964 C   0  0  1  0  0  0  0  0  0  0  0  0
   46.4984   59.0990   30.2692 O   0  0  0  0  0  0  0  0  0  0  0  0
   48.4191   58.1047   31.2556 C   0  0  1  0  0  0  0  0  0  0  0  0
   49.6942   58.5295   31.6835 O   0  0  0  0  0  0  0  0  0  0  0  0
   47.3473   58.2462   32.3286 C   0  0  1  0  0  0  0  0  0  0  0  0
   47.6273   59.3170   33.2075 O   0  0  0  0  0  0  0  0  0  0  0  0
   46.1041   58.6081   31.5401 C   0  0  2  0  0  0  0  0  0  0  0  0
   50.2575   52.9017   29.4024 O   0  0  0  0  0  0  0  0  0  0  0  0
   43.8988   54.4664   33.9066 N   0  0  0  0  0  0  0  0  0  0  0  0
   44.8073   55.3553   34.4233 C   0  0  0  0  0  0  0  0  0  0  0  0
   45.2919   56.3789   33.6362 N   0  0  0  0  0  0  0  0  0  0  0  0
   44.8626   56.5474   32.3729 C   0  0  0  0  0  0  0  0  0  0  0  0
   43.9448   55.6624   31.8333 C   0  0  0  0  0  0  0  0  0  0  0  0
   43.4733   54.6237   32.6113 C   0  0  0  0  0  0  0  0  0  0  0  0
   42.5893   53.7761   32.1218 N   0  0  0  0  0  0  0  0  0  0  0  0
   43.6814   56.0450   30.5639 N   0  0  0  0  0  0  0  0  0  0  0  0
   44.4347   57.1388   30.2858 C   0  0  0  0  0  0  0  0  0  0  0  0
   45.1731   57.4641   31.4026 N   0  0  0  0  0  0  0  0  0  0  0  0
  2  1  1  1  0  0  0
  2  3  1  0  0  0  0
  2  5  1  0  0  0  0
  3  4  1  0  0  0  0
  3 16  1  0  0  0  0
  5  6  1  0  0  0  0
  6  7  1  0  0  0  0
  7  8  1  0  0  0  0
  9  8  1  6  0  0  0
  9 10  1  0  0  0  0
  9 11  1  0  0  0  0
 10 15  1  0  0  0  0
 11 12  1  1  0  0  0
 11 13  1  0  0  0  0
 13 14  1  1  0  0  0
 13 15  1  0  0  0  0
 15 26  1  6  0  0  0
 17 18  2  0  0  0  0
 17 22  1  0  0  0  0
 18 19  1  0  0  0  0
 19 20  2  0  0  0  0
 20 21  1  0  0  0  0
 20 26  1  0  0  0  0
 21 22  2  0  0  0  0
 21 24  1  0  0  0  0
 22 23  1  0  0  0  0
 24 25  2  0  0  0  0
 25 26  1  0  0  0  0
M  END
>  <CHROM.1>
112.04038775,-171.28015567,-177.43371603,-166.03494390,-125.74468852,-54.12491888
162.34275714,47.14960223,56.23244664,30.49030112,0.47075872,-0.58535558,-2.80652572

>  <Name>
ligand

>  <RI>
0

>  <Rbt.Current_Directory>
/home/itssahil/PROJECTS/Mol_Feturizer/New_Systems/rnas/3GX3

>  <Rbt.Executable>
rbdock ($Id: //depot/dev/client3/rdock/2013.1/src/exe/rbdock.cxx#4 $)

>  <Rbt.Library>
libRbt.so (2013.1, Build901 2013/11/27)

>  <Rbt.Parameter_File>
/export/apps/rDock/src/rDock_2013.1_src/data/scripts/dock_solv.prm

>  <Rbt.Receptor>
prm/pocket_docking_7.prm

>  <SCORE>
-12.0819

>  <SCORE.INTER>
-8.95972

>  <SCORE.INTER.CONST>
1

>  <SCORE.INTER.POLAR>
0

>  <SCORE.INTER.ROT>
7

>  <SCORE.INTER.SOLV>
7.66687

>  <SCORE.INTER.VDW>
-16.7954

>  <SCORE.INTER.norm>
-0.344605

>  <SCORE.INTRA>
-3.13779

>  <SCORE.INTRA.DIHEDRAL>
0.051134

>  <SCORE.INTRA.DIHEDRAL.0>
5.78979

>  <SCORE.INTRA.POLAR>
0

>  <SCORE.INTRA.POLAR.0>
0

>  <SCORE.INTRA.REPUL>
0

>  <SCORE.INTRA.REPUL.0>
0

>  <SCORE.INTRA.SOLV>
-0.844281

>  <SCORE.INTRA.SOLV.lig_0>
-49.9151

>  <SCORE.INTRA.VDW>
-2.74122

>  <SCORE.INTRA.VDW.0>
-0.211125

>  <SCORE.INTRA.norm>
-0.120684

>  <SCORE.RESTR>
0.015645

>  <SCORE.RESTR.CAVITY>
0.015645

>  <SCORE.RESTR.norm>
0.00060173

>  <SCORE.SYSTEM>
0

>  <SCORE.SYSTEM.CONST>
0

>  <SCORE.SYSTEM.DIHEDRAL>
0

>  <SCORE.SYSTEM.SOLV>
0

>  <SCORE.SYSTEM.norm>
0

>  <SCORE.heavy>
26

>  <SCORE.norm>
-0.464687

>  <RMSD>
5.018

$$$$
ligand
 OpenBabel11021811483D
libRbt.so/2013.1/901 2013/11/27
 26 28  0  0  0  0  0  0  0  0999 V2000
   47.9827   54.7182   23.9468 N   0  0  0  0  0  0  0  0  0  0  0  0
   48.1298   54.6719   25.4042 C   0  0  2  0  0  0  0  0  0  0  0  0
   47.0431   53.8660   26.1193 C   0  0  0  0  0  0  0  0  0  0  0  0
   47.3837   52.8686   26.7560 O   0  0  0  0  0  0  0  0  0  0  0  0
   48.1920   56.0419   26.0918 C   0  0  0  0  0  0  0  0  0  0  0  0
   48.4533   56.1596   27.5833 C   0  0  0  0  0  0  0  0  0  0  0  0
   48.4846   57.9270   27.9614 S   0  0  0  0  0  0  0  0  0  0  0  0
   46.9263   57.6636   28.8410 C   0  0  0  0  0  0  0  0  0  0  0  0
   46.5683   58.7681   29.8411 C   0  0  1  0  0  0  0  0  0  0  0  0
   45.2434   58.6426   30.3703 O   0  0  0  0  0  0  0  0  0  0  0  0
   47.5259   58.7589   31.0238 C   0  0  1  0  0  0  0  0  0  0  0  0
   48.6156   59.6286   30.8101 O   0  0  0  0  0  0  0  0  0  0  0  0
   46.6647   59.1565   32.2155 C   0  0  1  0  0  0  0  0  0  0  0  0
   46.6816   60.5537   32.4282 O   0  0  0  0  0  0  0  0  0  0  0  0
   45.2637   58.7716   31.7826 C   0  0  2  0  0  0  0  0  0  0  0  0
   45.8468   54.1812   26.0965 O   0  0  0  0  0  0  0  0  0  0  0  0
   41.9136   54.7277   31.5794 N   0  0  0  0  0  0  0  0  0  0  0  0
   42.0327   55.7766   30.7029 C   0  0  0  0  0  0  0  0  0  0  0  0
   42.9682   56.7632   30.9343 N   0  0  0  0  0  0  0  0  0  0  0  0
   43.7976   56.7007   31.9910 C   0  0  0  0  0  0  0  0  0  0  0  0
   43.6948   55.6497   32.8863 C   0  0  0  0  0  0  0  0  0  0  0  0
   42.7453   54.6711   32.6696 C   0  0  0  0  0  0  0  0  0  0  0  0
   42.6380   53.6544   33.5029 N   0  0  0  0  0  0  0  0  0  0  0  0
   44.6284   55.8190   33.8491 N   0  0  0  0  0  0  0  0  0  0  0  0
   45.2999   56.9695   33.5908 C   0  0  0  0  0  0  0  0  0  0  0  0
   44.7954   57.5278   32.4368 N   0  0  0  0  0  0  0  0  0  0  0  0
  2  1  1  6  0  0  0
  2  3  1  0  0  0  0
  2  5  1  0  0  0  0
  3  4  1  0  0  0  0
  3 16  1  0  0  0  0
  5  6  1  0  0  0  0
  6  7  1  0  0  0  0
  7  8  1  0  0  0  0
  9  8  1  6  0  0  0
  9 10  1  0  0  0  0
  9 11  1  0  0  0  0
 10 15  1  0  0  0  0
 11 12  1  6  0  0  0
 11 13  1  0  0  0  0
 13 14  1  6  0  0  0
 13 15  1  0  0  0  0
 15 26  1  1  0  0  0
 17 18  2  0  0  0  0
 17 22  1  0  0  0  0
 18 19  1  0  0  0  0
 19 20  2  0  0  0  0
 20 21  1  0  0  0  0
 20 26  1  0  0  0  0
 21 22  2  0  0  0  0
 21 24  1  0  0  0  0
 22 23  1  0  0  0  0
 24 25  2  0  0  0  0
 25 26  1  0  0  0  0
M  END
>  <CHROM.1>
117.72238871,-175.10642401,178.63437221,110.41216057,161.13396307,171.00609904
-36.74764988,45.94759329,56.65614752,29.89251892,0.82711129,-0.73990114,-2.33297782

>  <Name>
ligand

>  <RI>
0

>  <Rbt.Current_Directory>
/home/itssahil/PROJECTS/Mol_Feturizer/New_Systems/rnas/3GX3

>  <Rbt.Executable>
rbdock ($Id: //depot/dev/client3/rdock/2013.1/src/exe/rbdock.cxx#4 $)

>  <Rbt.Library>
libRbt.so (2013.1, Build901 2013/11/27)

>  <Rbt.Parameter_File>
/export/apps/rDock/src/rDock_2013.1_src/data/scripts/dock_solv.prm

>  <Rbt.Receptor>
prm/pocket_docking_7.prm

>  <SCORE>
-14.1984

>  <SCORE.INTER>
-11.8643

>  <SCORE.INTER.CONST>
1

>  <SCORE.INTER.POLAR>
0

>  <SCORE.INTER.ROT>
7

>  <SCORE.INTER.SOLV>
11.1858

>  <SCORE.INTER.VDW>
-19.9048

>  <SCORE.INTER.norm>
-0.456318

>  <SCORE.INTRA>
-2.3341

>  <SCORE.INTRA.DIHEDRAL>
0.233642

>  <SCORE.INTRA.DIHEDRAL.0>
5.78979

>  <SCORE.INTRA.POLAR>
0

>  <SCORE.INTRA.POLAR.0>
0

>  <SCORE.INTRA.REPUL>
0

>  <SCORE.INTRA.REPUL.0>
0

>  <SCORE.INTRA.SOLV>
-0.971377

>  <SCORE.INTRA.SOLV.lig_0>
-49.9151

>  <SCORE.INTRA.VDW>
-1.96523

>  <SCORE.INTRA.VDW.0>
-0.211125

>  <SCORE.INTRA.norm>
-0.089773

>  <SCORE.RESTR>
0

>  <SCORE.RESTR.CAVITY>
0

>  <SCORE.RESTR.norm>
0

>  <SCORE.SYSTEM>
0

>  <SCORE.SYSTEM.CONST>
0

>  <SCORE.SYSTEM.DIHEDRAL>
0

>  <SCORE.SYSTEM.SOLV>
0

>  <SCORE.SYSTEM.norm>
0

>  <SCORE.heavy>
26

>  <SCORE.norm>
-0.546091

>  <RMSD>
5.018

$$$$
ligand
 OpenBabel11021811483D
libRbt.so/2013.1/901 2013/11/27
 26 28  0  0  0  0  0  0  0  0999 V2000
   48.9847   54.7083   28.1167 N   0  0  0  0  0  0  0  0  0  0  0  0
   48.0229   54.2402   29.1185 C   0  0  2  0  0  0  0  0  0  0  0  0
   47.5773   52.7883   28.9303 C   0  0  0  0  0  0  0  0  0  0  0  0
   46.7955   52.3094   29.7522 O   0  0  0  0  0  0  0  0  0  0  0  0
   46.7475   55.0849   29.2350 C   0  0  0  0  0  0  0  0  0  0  0  0
   45.9284   55.4416   28.0069 C   0  0  0  0  0  0  0  0  0  0  0  0
   46.5648   57.0234   27.4066 S   0  0  0  0  0  0  0  0  0  0  0  0
   45.4879   57.8063   28.6309 C   0  0  0  0  0  0  0  0  0  0  0  0
   46.2149   58.7229   29.6207 C   0  0  1  0  0  0  0  0  0  0  0  0
   45.5435   58.8388   30.8804 O   0  0  0  0  0  0  0  0  0  0  0  0
   47.6178   58.2070   29.9065 C   0  0  1  0  0  0  0  0  0  0  0  0
   48.5656   58.7845   29.0361 O   0  0  0  0  0  0  0  0  0  0  0  0
   47.8597   58.5497   31.3708 C   0  0  1  0  0  0  0  0  0  0  0  0
   48.4765   59.8131   31.5157 O   0  0  0  0  0  0  0  0  0  0  0  0
   46.4605   58.6496   31.9457 C   0  0  2  0  0  0  0  0  0  0  0  0
   47.9558   52.0855   27.9849 O   0  0  0  0  0  0  0  0  0  0  0  0
   48.2325   54.5151   34.6630 N   0  0  0  0  0  0  0  0  0  0  0  0
   48.9599   55.4626   33.9880 C   0  0  0  0  0  0  0  0  0  0  0  0
   48.3113   56.4736   33.3105 N   0  0  0  0  0  0  0  0  0  0  0  0
   46.9702   56.5723   33.3265 C   0  0  0  0  0  0  0  0  0  0  0  0
   46.2179   55.6274   34.0032 C   0  0  0  0  0  0  0  0  0  0  0  0
   46.8628   54.6015   34.6651 C   0  0  0  0  0  0  0  0  0  0  0  0
   46.1666   53.6974   35.3265 N   0  0  0  0  0  0  0  0  0  0  0  0
   44.9117   55.9467   33.8660 N   0  0  0  0  0  0  0  0  0  0  0  0
   44.8261   57.0600   33.0950 C   0  0  0  0  0  0  0  0  0  0  0  0
   46.0990   57.4617   32.7536 N   0  0  0  0  0  0  0  0  0  0  0  0
  2  1  1  6  0  0  0
  2  3  1  0  0  0  0
  2  5  1  0  0  0  0
  3  4  1  0  0  0  0
  3 16  1  0  0  0  0
  5  6  1  0  0  0  0
  6  7  1  0  0  0  0
  7  8  1  0  0  0  0
  9  8  1  6  0  0  0
  9 10  1  0  0  0  0
  9 11  1  0  0  0  0
 10 15  1  0  0  0  0
 11 12  1  6  0  0  0
 11 13  1  0  0  0  0
 13 14  1  6  0  0  0
 13 15  1  0  0  0  0
 15 26  1  6  0  0  0
 17 18  2  0  0  0  0
 17 22  1  0  0  0  0
 18 19  1  0  0  0  0
 19 20  2  0  0  0  0
 20 21  1  0  0  0  0
 20 26  1  0  0  0  0
 21 22  2  0  0  0  0
 21 24  1  0  0  0  0
 22 23  1  0  0  0  0
 24 25  2  0  0  0  0
 25 26  1  0  0  0  0
M  END
>  <CHROM.1>
178.17314306,50.73787700,-91.20440059,-83.47368792,123.29145559,-153.14273009
142.81993936,47.00483056,56.22449563,30.90623064,-0.99708508,-1.45753584
2.13197479

>  <Name>
ligand

>  <RI>
0

>  <Rbt.Current_Directory>
/home/itssahil/PROJECTS/Mol_Feturizer/New_Systems/rnas/3GX3

>  <Rbt.Executable>
rbdock ($Id: //depot/dev/client3/rdock/2013.1/src/exe/rbdock.cxx#4 $)

>  <Rbt.Library>
libRbt.so (2013.1, Build901 2013/11/27)

>  <Rbt.Parameter_File>
/export/apps/rDock/src/rDock_2013.1_src/data/scripts/dock_solv.prm

>  <Rbt.Receptor>
prm/pocket_docking_3.prm

>  <SCORE>
-6.5041

>  <SCORE.INTER>
-8.72373

>  <SCORE.INTER.CONST>
1

>  <SCORE.INTER.POLAR>
0

>  <SCORE.INTER.ROT>
7

>  <SCORE.INTER.SOLV>
11.1963

>  <SCORE.INTER.VDW>
-17.8146

>  <SCORE.INTER.norm>
-0.335528

>  <SCORE.INTRA>
2.21963

>  <SCORE.INTRA.DIHEDRAL>
5.64568

>  <SCORE.INTRA.DIHEDRAL.0>
5.78979

>  <SCORE.INTRA.POLAR>
0

>  <SCORE.INTRA.POLAR.0>
0

>  <SCORE.INTRA.REPUL>
0

>  <SCORE.INTRA.REPUL.0>
0

>  <SCORE.INTRA.SOLV>
1.33803

>  <SCORE.INTRA.SOLV.lig_0>
-49.9151

>  <SCORE.INTRA.VDW>
-1.27222

>  <SCORE.INTRA.VDW.0>
-0.211125

>  <SCORE.INTRA.norm>
0.0853706

>  <SCORE.RESTR>
0

>  <SCORE.RESTR.CAVITY>
0

>  <SCORE.RESTR.norm>
0

>  <SCORE.SYSTEM>
0

>  <SCORE.SYSTEM.CONST>
0

>  <SCORE.SYSTEM.DIHEDRAL>
0

>  <SCORE.SYSTEM.SOLV>
0

>  <SCORE.SYSTEM.norm>
0

>  <SCORE.heavy>
26

>  <SCORE.norm>
-0.250158

>  <RMSD>
5.028

$$$$
ligand
 OpenBabel11021811483D
libRbt.so/2013.1/901 2013/11/27
 26 28  0  0  0  0  0  0  0  0999 V2000
   48.8067   53.6984   29.3482 N   0  0  0  0  0  0  0  0  0  0  0  0
   49.5441   54.9577   29.2126 C   0  0  2  0  0  0  0  0  0  0  0  0
   50.9196   54.8120   28.5580 C   0  0  0  0  0  0  0  0  0  0  0  0
   51.4173   55.8041   28.0249 O   0  0  0  0  0  0  0  0  0  0  0  0
   49.7547   55.7281   30.5225 C   0  0  0  0  0  0  0  0  0  0  0  0
   48.5782   56.3031   31.2918 C   0  0  0  0  0  0  0  0  0  0  0  0
   49.2704   57.1516   32.7301 S   0  0  0  0  0  0  0  0  0  0  0  0
   47.5654   57.5265   33.2031 C   0  0  0  0  0  0  0  0  0  0  0  0
   46.9691   58.7534   32.5051 C   0  0  1  0  0  0  0  0  0  0  0  0
   47.7709   59.2298   31.4183 O   0  0  0  0  0  0  0  0  0  0  0  0
   45.5911   58.4391   31.9410 C   0  0  1  0  0  0  0  0  0  0  0  0
   44.5726   58.7593   32.8627 O   0  0  0  0  0  0  0  0  0  0  0  0
   45.5120   59.2485   30.6531 C   0  0  1  0  0  0  0  0  0  0  0  0
   44.9458   60.5247   30.8731 O   0  0  0  0  0  0  0  0  0  0  0  0
   46.9656   59.4471   30.2712 C   0  0  2  0  0  0  0  0  0  0  0  0
   51.5543   53.7499   28.5550 O   0  0  0  0  0  0  0  0  0  0  0  0
   45.5330   55.6057   26.9835 N   0  0  0  0  0  0  0  0  0  0  0  0
   44.7905   56.1957   27.9751 C   0  0  0  0  0  0  0  0  0  0  0  0
   45.3492   57.1858   28.7558 N   0  0  0  0  0  0  0  0  0  0  0  0
   46.6058   57.6142   28.5414 C   0  0  0  0  0  0  0  0  0  0  0  0
   47.3711   57.0330   27.5447 C   0  0  0  0  0  0  0  0  0  0  0  0
   46.8224   56.0268   26.7748 C   0  0  0  0  0  0  0  0  0  0  0  0
   47.5292   55.4676   25.8118 N   0  0  0  0  0  0  0  0  0  0  0  0
   48.5824   57.6329   27.5351 N   0  0  0  0  0  0  0  0  0  0  0  0
   48.6028   58.5629   28.5230 C   0  0  0  0  0  0  0  0  0  0  0  0
   47.3792   58.5639   29.1562 N   0  0  0  0  0  0  0  0  0  0  0  0
  2  1  1  1  0  0  0
  2  3  1  0  0  0  0
  2  5  1  0  0  0  0
  3  4  1  0  0  0  0
  3 16  1  0  0  0  0
  5  6  1  0  0  0  0
  6  7  1  0  0  0  0
  7  8  1  0  0  0  0
  9  8  1  6  0  0  0
  9 10  1  0  0  0  0
  9 11  1  0  0  0  0
 10 15  1  0  0  0  0
 11 12  1  1  0  0  0
 11 13  1  0  0  0  0
 13 14  1  1  0  0  0
 13 15  1  0  0  0  0
 15 26  1  6  0  0  0
 17 18  2  0  0  0  0
 17 22  1  0  0  0  0
 18 19  1  0  0  0  0
 19 20  2  0  0  0  0
 20 21  1  0  0  0  0
 20 26  1  0  0  0  0
 21 22  2  0  0  0  0
 21 24  1  0  0  0  0
 22 23  1  0  0  0  0
 24 25  2  0  0  0  0
 25 26  1  0  0  0  0
M  END
>  <CHROM.1>
157.37106223,-64.93732995,-178.70618693,-178.51108354,-82.88040085,11.35681736
118.99053380,47.73035448,57.09289245,29.80383919,-0.85001674,-0.53569684
1.16316949

>  <Name>
ligand

>  <RI>
0

>  <Rbt.Current_Directory>
/home/itssahil/PROJECTS/Mol_Feturizer/New_Systems/rnas/3GX3

>  <Rbt.Executable>
rbdock ($Id: //depot/dev/client3/rdock/2013.1/src/exe/rbdock.cxx#4 $)

>  <Rbt.Library>
libRbt.so (2013.1, Build901 2013/11/27)

>  <Rbt.Parameter_File>
/export/apps/rDock/src/rDock_2013.1_src/data/scripts/dock_solv.prm

>  <Rbt.Receptor>
prm/pocket_docking_3.prm

>  <SCORE>
-15.6242

>  <SCORE.INTER>
-13.2048

>  <SCORE.INTER.CONST>
1

>  <SCORE.INTER.POLAR>
0

>  <SCORE.INTER.ROT>
7

>  <SCORE.INTER.SOLV>
11.5473

>  <SCORE.INTER.VDW>
-20.9189

>  <SCORE.INTER.norm>
-0.507875

>  <SCORE.INTRA>
-2.41944

>  <SCORE.INTRA.DIHEDRAL>
2.71186

>  <SCORE.INTRA.DIHEDRAL.0>
5.78979

>  <SCORE.INTRA.POLAR>
0

>  <SCORE.INTRA.POLAR.0>
0

>  <SCORE.INTRA.REPUL>
0

>  <SCORE.INTRA.REPUL.0>
0

>  <SCORE.INTRA.SOLV>
0.844273

>  <SCORE.INTRA.SOLV.lig_0>
-49.9151

>  <SCORE.INTRA.VDW>
-4.19751

>  <SCORE.INTRA.VDW.0>
-0.211125

>  <SCORE.INTRA.norm>
-0.0930555

>  <SCORE.RESTR>
0

>  <SCORE.RESTR.CAVITY>
0

>  <SCORE.RESTR.norm>
0

>  <SCORE.SYSTEM>
0

>  <SCORE.SYSTEM.CONST>
0

>  <SCORE.SYSTEM.DIHEDRAL>
0

>  <SCORE.SYSTEM.SOLV>
0

>  <SCORE.SYSTEM.norm>
0

>  <SCORE.heavy>
26

>  <SCORE.norm>
-0.60093

>  <RMSD>
5.059

$$$$
ligand
 OpenBabel11021811483D
libRbt.so/2013.1/901 2013/11/27
 26 28  0  0  0  0  0  0  0  0999 V2000
   45.3648   61.2683   31.8326 N   0  0  0  0  0  0  0  0  0  0  0  0
   45.6842   60.0127   31.1476 C   0  0  2  0  0  0  0  0  0  0  0  0
   44.8994   58.8022   31.6580 C   0  0  0  0  0  0  0  0  0  0  0  0
   44.7736   57.8333   30.9086 O   0  0  0  0  0  0  0  0  0  0  0  0
   47.1678   59.6224   31.1710 C   0  0  0  0  0  0  0  0  0  0  0  0
   47.9220   59.4854   32.4821 C   0  0  0  0  0  0  0  0  0  0  0  0
   49.4415   58.5804   32.1084 S   0  0  0  0  0  0  0  0  0  0  0  0
   49.3330   57.9073   33.7837 C   0  0  0  0  0  0  0  0  0  0  0  0
   48.4049   56.6957   33.9212 C   0  0  1  0  0  0  0  0  0  0  0  0
   47.4060   56.6307   32.8970 O   0  0  0  0  0  0  0  0  0  0  0  0
   49.1964   55.3974   33.8582 C   0  0  1  0  0  0  0  0  0  0  0  0
   49.5723   54.9611   35.1457 O   0  0  0  0  0  0  0  0  0  0  0  0
   48.2734   54.4221   33.1391 C   0  0  1  0  0  0  0  0  0  0  0  0
   47.4734   53.6939   34.0487 O   0  0  0  0  0  0  0  0  0  0  0  0
   47.3572   55.3275   32.3396 C   0  0  2  0  0  0  0  0  0  0  0  0
   44.4021   58.7513   32.7898 O   0  0  0  0  0  0  0  0  0  0  0  0
   50.5678   53.5091   28.5974 N   0  0  0  0  0  0  0  0  0  0  0  0
   50.5823   53.2262   29.9399 C   0  0  0  0  0  0  0  0  0  0  0  0
   49.6617   53.8198   30.7778 N   0  0  0  0  0  0  0  0  0  0  0  0
   48.7190   54.6502   30.2979 C   0  0  0  0  0  0  0  0  0  0  0  0
   48.6861   54.9474   28.9461 C   0  0  0  0  0  0  0  0  0  0  0  0
   49.6194   54.3715   28.1072 C   0  0  0  0  0  0  0  0  0  0  0  0
   49.5989   54.6308   26.8142 N   0  0  0  0  0  0  0  0  0  0  0  0
   47.6583   55.7965   28.7227 N   0  0  0  0  0  0  0  0  0  0  0  0
   47.0595   56.0593   29.9117 C   0  0  0  0  0  0  0  0  0  0  0  0
   47.7073   55.3515   30.9004 N   0  0  0  0  0  0  0  0  0  0  0  0
  2  1  1  1  0  0  0
  2  3  1  0  0  0  0
  2  5  1  0  0  0  0
  3  4  1  0  0  0  0
  3 16  1  0  0  0  0
  5  6  1  0  0  0  0
  6  7  1  0  0  0  0
  7  8  1  0  0  0  0
  9  8  1  6  0  0  0
  9 10  1  0  0  0  0
  9 11  1  0  0  0  0
 10 15  1  0  0  0  0
 11 12  1  1  0  0  0
 11 13  1  0  0  0  0
 13 14  1  1  0  0  0
 13 15  1  0  0  0  0
 15 26  1  6  0  0  0
 17 18  2  0  0  0  0
 17 22  1  0  0  0  0
 18 19  1  0  0  0  0
 19 20  2  0  0  0  0
 20 21  1  0  0  0  0
 20 26  1  0  0  0  0
 21 22  2  0  0  0  0
 21 24  1  0  0  0  0
 22 23  1  0  0  0  0
 24 25  2  0  0  0  0
 25 26  1  0  0  0  0
M  END
>  <CHROM.1>
157.48713428,55.88038201,164.26547168,-148.84094358,83.12783811,-23.60511099
122.58867545,47.97526841,56.51459954,31.50642720,2.67363020,-0.97031344,1.46695525

>  <Name>
ligand

>  <RI>
0

>  <Rbt.Current_Directory>
/home/itssahil/PROJECTS/Mol_Feturizer/New_Systems/rnas/3GX3

>  <Rbt.Executable>
rbdock ($Id: //depot/dev/client3/rdock/2013.1/src/exe/rbdock.cxx#4 $)

>  <Rbt.Library>
libRbt.so (2013.1, Build901 2013/11/27)

>  <Rbt.Parameter_File>
/export/apps/rDock/src/rDock_2013.1_src/data/scripts/dock_solv.prm

>  <Rbt.Receptor>
prm/pocket_docking_3.prm

>  <SCORE>
-15.8059

>  <SCORE.INTER>
-14.0845

>  <SCORE.INTER.CONST>
1

>  <SCORE.INTER.POLAR>
0

>  <SCORE.INTER.ROT>
7

>  <SCORE.INTER.SOLV>
14.1631

>  <SCORE.INTER.VDW>
-22.3774

>  <SCORE.INTER.norm>
-0.541712

>  <SCORE.INTRA>
-1.72135

>  <SCORE.INTRA.DIHEDRAL>
3.51133

>  <SCORE.INTRA.DIHEDRAL.0>
5.78979

>  <SCORE.INTRA.POLAR>
0

>  <SCORE.INTRA.POLAR.0>
0

>  <SCORE.INTRA.REPUL>
0

>  <SCORE.INTRA.REPUL.0>
0

>  <SCORE.INTRA.SOLV>
-0.0573797

>  <SCORE.INTRA.SOLV.lig_0>
-49.9151

>  <SCORE.INTRA.VDW>
-3.44832

>  <SCORE.INTRA.VDW.0>
-0.211125

>  <SCORE.INTRA.norm>
-0.0662056

>  <SCORE.RESTR>
0

>  <SCORE.RESTR.CAVITY>
0

>  <SCORE.RESTR.norm>
0

>  <SCORE.SYSTEM>
0

>  <SCORE.SYSTEM.CONST>
0

>  <SCORE.SYSTEM.DIHEDRAL>
0

>  <SCORE.SYSTEM.SOLV>
0

>  <SCORE.SYSTEM.norm>
0

>  <SCORE.heavy>
26

>  <SCORE.norm>
-0.607918

>  <RMSD>
5.059

$$$$
ligand
 OpenBabel11021811483D
libRbt.so/2013.1/901 2013/11/27
 26 28  0  0  0  0  0  0  0  0999 V2000
   47.8197   53.9350   25.3413 N   0  0  0  0  0  0  0  0  0  0  0  0
   47.7639   55.2939   24.7954 C   0  0  2  0  0  0  0  0  0  0  0  0
   48.6141   55.5012   23.5400 C   0  0  0  0  0  0  0  0  0  0  0  0
   49.7962   55.1584   23.5758 O   0  0  0  0  0  0  0  0  0  0  0  0
   48.1502   56.4036   25.7818 C   0  0  0  0  0  0  0  0  0  0  0  0
   47.2621   56.7442   26.9659 C   0  0  0  0  0  0  0  0  0  0  0  0
   48.0869   58.0825   27.8584 S   0  0  0  0  0  0  0  0  0  0  0  0
   46.6628   58.0807   28.9734 C   0  0  0  0  0  0  0  0  0  0  0  0
   46.8620   58.8932   30.2574 C   0  0  1  0  0  0  0  0  0  0  0  0
   45.7010   58.9181   31.0955 O   0  0  0  0  0  0  0  0  0  0  0  0
   48.0021   58.3222   31.0881 C   0  0  1  0  0  0  0  0  0  0  0  0
   49.2275   58.9487   30.7795 O   0  0  0  0  0  0  0  0  0  0  0  0
   47.5658   58.5344   32.5320 C   0  0  1  0  0  0  0  0  0  0  0  0
   48.0342   59.7663   33.0427 O   0  0  0  0  0  0  0  0  0  0  0  0
   46.0552   58.6182   32.4356 C   0  0  2  0  0  0  0  0  0  0  0  0
   48.1624   55.9821   22.4932 O   0  0  0  0  0  0  0  0  0  0  0  0
   46.6554   53.9882   34.8483 N   0  0  0  0  0  0  0  0  0  0  0  0
   47.6097   54.9380   34.5838 C   0  0  0  0  0  0  0  0  0  0  0  0
   47.2627   56.0945   33.9174 N   0  0  0  0  0  0  0  0  0  0  0  0
   45.9908   56.3296   33.5490 C   0  0  0  0  0  0  0  0  0  0  0  0
   45.0127   55.3847   33.8081 C   0  0  0  0  0  0  0  0  0  0  0  0
   45.3601   54.2162   34.4563 C   0  0  0  0  0  0  0  0  0  0  0  0
   44.4423   53.3078   34.7242 N   0  0  0  0  0  0  0  0  0  0  0  0
   43.8341   55.8546   33.3418 N   0  0  0  0  0  0  0  0  0  0  0  0
   44.0563   57.0658   32.7718 C   0  0  0  0  0  0  0  0  0  0  0  0
   45.3931   57.3752   32.8950 N   0  0  0  0  0  0  0  0  0  0  0  0
  2  1  1  1  0  0  0
  2  3  1  0  0  0  0
  2  5  1  0  0  0  0
  3  4  1  0  0  0  0
  3 16  1  0  0  0  0
  5  6  1  0  0  0  0
  6  7  1  0  0  0  0
  7  8  1  0  0  0  0
  9  8  1  6  0  0  0
  9 10  1  0  0  0  0
  9 11  1  0  0  0  0
 10 15  1  0  0  0  0
 11 12  1  1  0  0  0
 11 13  1  0  0  0  0
 13 14  1  6  0  0  0
 13 15  1  0  0  0  0
 15 26  1  6  0  0  0
 17 18  2  0  0  0  0
 17 22  1  0  0  0  0
 18 19  1  0  0  0  0
 19 20  2  0  0  0  0
 20 21  1  0  0  0  0
 20 26  1  0  0  0  0
 21 22  2  0  0  0  0
 21 24  1  0  0  0  0
 22 23  1  0  0  0  0
 24 25  2  0  0  0  0
 25 26  1  0  0  0  0
M  END
>  <CHROM.1>
-51.64978385,-69.03298812,179.68498110,177.80395255,167.79646742,177.64976210
132.56734070,47.01132787,56.72241085,30.13091179,0.78379575,-1.18619820,-2.33653880

>  <Name>
ligand

>  <RI>
0

>  <Rbt.Current_Directory>
/home/itssahil/PROJECTS/Mol_Feturizer/New_Systems/rnas/3GX3

>  <Rbt.Executable>
rbdock ($Id: //depot/dev/client3/rdock/2013.1/src/exe/rbdock.cxx#4 $)

>  <Rbt.Library>
libRbt.so (2013.1, Build901 2013/11/27)

>  <Rbt.Parameter_File>
/export/apps/rDock/src/rDock_2013.1_src/data/scripts/dock_solv.prm

>  <Rbt.Receptor>
prm/pocket_docking_6.prm

>  <SCORE>
-18.4018

>  <SCORE.INTER>
-15.2309

>  <SCORE.INTER.CONST>
1

>  <SCORE.INTER.POLAR>
0

>  <SCORE.INTER.ROT>
7

>  <SCORE.INTER.SOLV>
12.8686

>  <SCORE.INTER.VDW>
-22.7101

>  <SCORE.INTER.norm>
-0.585805

>  <SCORE.INTRA>
-3.17091

>  <SCORE.INTRA.DIHEDRAL>
-2.39265

>  <SCORE.INTRA.DIHEDRAL.0>
5.78979

>  <SCORE.INTRA.POLAR>
0

>  <SCORE.INTRA.POLAR.0>
0

>  <SCORE.INTRA.REPUL>
0

>  <SCORE.INTRA.REPUL.0>
0

>  <SCORE.INTRA.SOLV>
-0.408875

>  <SCORE.INTRA.SOLV.lig_0>
-49.9151

>  <SCORE.INTRA.VDW>
-1.77015

>  <SCORE.INTRA.VDW.0>
-0.211125

>  <SCORE.INTRA.norm>
-0.121958

>  <SCORE.RESTR>
0

>  <SCORE.RESTR.CAVITY>
0

>  <SCORE.RESTR.norm>
0

>  <SCORE.SYSTEM>
0

>  <SCORE.SYSTEM.CONST>
0

>  <SCORE.SYSTEM.DIHEDRAL>
0

>  <SCORE.SYSTEM.SOLV>
0

>  <SCORE.SYSTEM.norm>
0

>  <SCORE.heavy>
26

>  <SCORE.norm>
-0.707763

>  <RMSD>
5.063

$$$$
ligand
 OpenBabel11021811483D
libRbt.so/2013.1/901 2013/11/27
 26 28  0  0  0  0  0  0  0  0999 V2000
   48.9709   52.9693   28.9246 N   0  0  0  0  0  0  0  0  0  0  0  0
   49.2651   54.3658   29.2578 C   0  0  2  0  0  0  0  0  0  0  0  0
   48.9652   54.7409   30.7107 C   0  0  0  0  0  0  0  0  0  0  0  0
   49.8645   55.2568   31.3750 O   0  0  0  0  0  0  0  0  0  0  0  0
   48.5587   55.4037   28.3760 C   0  0  0  0  0  0  0  0  0  0  0  0
   49.0029   56.8560   28.3653 C   0  0  0  0  0  0  0  0  0  0  0  0
   48.4732   57.5668   29.9406 S   0  0  0  0  0  0  0  0  0  0  0  0
   47.1597   58.3925   29.0109 C   0  0  0  0  0  0  0  0  0  0  0  0
   45.9702   58.8481   29.8629 C   0  0  1  0  0  0  0  0  0  0  0  0
   45.2275   57.7594   30.4235 O   0  0  0  0  0  0  0  0  0  0  0  0
   46.4358   59.7168   31.0224 C   0  0  1  0  0  0  0  0  0  0  0  0
   46.4151   61.0851   30.6808 O   0  0  0  0  0  0  0  0  0  0  0  0
   45.4899   59.3685   32.1644 C   0  0  1  0  0  0  0  0  0  0  0  0
   44.3672   60.2267   32.1920 O   0  0  0  0  0  0  0  0  0  0  0  0
   45.0009   57.9789   31.8062 C   0  0  2  0  0  0  0  0  0  0  0  0
   47.8601   54.5619   31.2375 O   0  0  0  0  0  0  0  0  0  0  0  0
   49.3604   56.4741   34.3258 N   0  0  0  0  0  0  0  0  0  0  0  0
   49.1482   57.6245   33.6087 C   0  0  0  0  0  0  0  0  0  0  0  0
   47.9312   57.8384   32.9962 N   0  0  0  0  0  0  0  0  0  0  0  0
   46.9269   56.9523   33.1170 C   0  0  0  0  0  0  0  0  0  0  0  0
   47.1200   55.7861   33.8377 C   0  0  0  0  0  0  0  0  0  0  0  0
   48.3440   55.5585   34.4348 C   0  0  0  0  0  0  0  0  0  0  0  0
   48.5460   54.4601   35.1364 N   0  0  0  0  0  0  0  0  0  0  0  0
   45.9726   55.0722   33.8059 N   0  0  0  0  0  0  0  0  0  0  0  0
   45.0692   55.7547   33.0580 C   0  0  0  0  0  0  0  0  0  0  0  0
   45.6482   56.9273   32.6245 N   0  0  0  0  0  0  0  0  0  0  0  0
  2  1  1  6  0  0  0
  2  3  1  0  0  0  0
  2  5  1  0  0  0  0
  3  4  1  0  0  0  0
  3 16  1  0  0  0  0
  5  6  1  0  0  0  0
  6  7  1  0  0  0  0
  7  8  1  0  0  0  0
  9  8  1  1  0  0  0
  9 10  1  0  0  0  0
  9 11  1  0  0  0  0
 10 15  1  0  0  0  0
 11 12  1  6  0  0  0
 11 13  1  0  0  0  0
 13 14  1  6  0  0  0
 13 15  1  0  0  0  0
 15 26  1  1  0  0  0
 17 18  2  0  0  0  0
 17 22  1  0  0  0  0
 18 19  1  0  0  0  0
 19 20  2  0  0  0  0
 20 21  1  0  0  0  0
 20 26  1  0  0  0  0
 21 22  2  0  0  0  0
 21 24  1  0  0  0  0
 22 23  1  0  0  0  0
 24 25  2  0  0  0  0
 25 26  1  0  0  0  0
M  END
>  <CHROM.1>
126.21036508,-165.15397319,-72.52287635,-104.73820728,159.57988386,-66.42692128
89.33316971,47.39215229,56.89745289,31.49603535,-0.25602936,0.93925390,-1.20101199

>  <Name>
ligand

>  <RI>
0

>  <Rbt.Current_Directory>
/home/itssahil/PROJECTS/Mol_Feturizer/New_Systems/rnas/3GX3

>  <Rbt.Executable>
rbdock ($Id: //depot/dev/client3/rdock/2013.1/src/exe/rbdock.cxx#4 $)

>  <Rbt.Library>
libRbt.so (2013.1, Build901 2013/11/27)

>  <Rbt.Parameter_File>
/export/apps/rDock/src/rDock_2013.1_src/data/scripts/dock_solv.prm

>  <Rbt.Receptor>
prm/pocket_docking_3.prm

>  <SCORE>
-14.7365

>  <SCORE.INTER>
-9.65835

>  <SCORE.INTER.CONST>
1

>  <SCORE.INTER.POLAR>
0

>  <SCORE.INTER.ROT>
7

>  <SCORE.INTER.SOLV>
14.106

>  <SCORE.INTER.VDW>
-19.4076

>  <SCORE.INTER.norm>
-0.371475

>  <SCORE.INTRA>
-5.07813

>  <SCORE.INTRA.DIHEDRAL>
1.19102

>  <SCORE.INTRA.DIHEDRAL.0>
5.78979

>  <SCORE.INTRA.POLAR>
0

>  <SCORE.INTRA.POLAR.0>
0

>  <SCORE.INTRA.REPUL>
0

>  <SCORE.INTRA.REPUL.0>
0

>  <SCORE.INTRA.SOLV>
-0.523975

>  <SCORE.INTRA.SOLV.lig_0>
-49.9151

>  <SCORE.INTRA.VDW>
-5.41166

>  <SCORE.INTRA.VDW.0>
-0.211125

>  <SCORE.INTRA.norm>
-0.195313

>  <SCORE.RESTR>
0

>  <SCORE.RESTR.CAVITY>
0

>  <SCORE.RESTR.norm>
0

>  <SCORE.SYSTEM>
0

>  <SCORE.SYSTEM.CONST>
0

>  <SCORE.SYSTEM.DIHEDRAL>
0

>  <SCORE.SYSTEM.SOLV>
0

>  <SCORE.SYSTEM.norm>
0

>  <SCORE.heavy>
26

>  <SCORE.norm>
-0.566788

>  <RMSD>
5.080

$$$$
ligand
 OpenBabel11021811483D
libRbt.so/2013.1/901 2013/11/27
 26 28  0  0  0  0  0  0  0  0999 V2000
   49.4767   54.2604   29.8621 N   0  0  0  0  0  0  0  0  0  0  0  0
   49.8387   54.6570   28.4985 C   0  0  2  0  0  0  0  0  0  0  0  0
   51.3438   54.6526   28.2224 C   0  0  0  0  0  0  0  0  0  0  0  0
   51.9663   53.6073   28.4122 O   0  0  0  0  0  0  0  0  0  0  0  0
   49.3109   56.0300   28.0627 C   0  0  0  0  0  0  0  0  0  0  0  0
   47.8223   56.3308   28.0527 C   0  0  0  0  0  0  0  0  0  0  0  0
   47.6549   58.0824   27.6386 S   0  0  0  0  0  0  0  0  0  0  0  0
   46.2925   58.1296   28.8273 C   0  0  0  0  0  0  0  0  0  0  0  0
   46.5660   58.9815   30.0714 C   0  0  1  0  0  0  0  0  0  0  0  0
   45.4859   58.9702   31.0118 O   0  0  0  0  0  0  0  0  0  0  0  0
   47.8040   58.4866   30.8052 C   0  0  1  0  0  0  0  0  0  0  0  0
   48.9632   59.1642   30.3732 O   0  0  0  0  0  0  0  0  0  0  0  0
   47.4903   58.7121   32.2785 C   0  0  1  0  0  0  0  0  0  0  0  0
   47.9402   59.9771   32.7199 O   0  0  0  0  0  0  0  0  0  0  0  0
   45.9748   58.7202   32.3194 C   0  0  2  0  0  0  0  0  0  0  0  0
   51.9543   55.6448   27.8054 O   0  0  0  0  0  0  0  0  0  0  0  0
   47.0051   54.2376   34.8617 N   0  0  0  0  0  0  0  0  0  0  0  0
   47.8800   55.2334   34.5076 C   0  0  0  0  0  0  0  0  0  0  0  0
   47.4228   56.3383   33.8204 N   0  0  0  0  0  0  0  0  0  0  0  0
   46.1199   56.4788   33.5180 C   0  0  0  0  0  0  0  0  0  0  0  0
   45.2205   55.4861   33.8679 C   0  0  0  0  0  0  0  0  0  0  0  0
   45.6780   54.3685   34.5374 C   0  0  0  0  0  0  0  0  0  0  0  0
   44.8368   53.4163   34.8913 N   0  0  0  0  0  0  0  0  0  0  0  0
   43.9901   55.8625   33.4539 N   0  0  0  0  0  0  0  0  0  0  0  0
   44.1018   57.0613   32.8278 C   0  0  0  0  0  0  0  0  0  0  0  0
   45.4207   57.4579   32.8619 N   0  0  0  0  0  0  0  0  0  0  0  0
  2  1  1  1  0  0  0
  2  3  1  0  0  0  0
  2  5  1  0  0  0  0
  3  4  1  0  0  0  0
  3 16  1  0  0  0  0
  5  6  1  0  0  0  0
  6  7  1  0  0  0  0
  7  8  1  0  0  0  0
  9  8  1  6  0  0  0
  9 10  1  0  0  0  0
  9 11  1  0  0  0  0
 10 15  1  0  0  0  0
 11 12  1  6  0  0  0
 11 13  1  0  0  0  0
 13 14  1  6  0  0  0
 13 15  1  0  0  0  0
 15 26  1  6  0  0  0
 17 18  2  0  0  0  0
 17 22  1  0  0  0  0
 18 19  1  0  0  0  0
 19 20  2  0  0  0  0
 20 21  1  0  0  0  0
 20 26  1  0  0  0  0
 21 22  2  0  0  0  0
 21 24  1  0  0  0  0
 22 23  1  0  0  0  0
 24 25  2  0  0  0  0
 25 26  1  0  0  0  0
M  END
>  <CHROM.1>
56.67713039,-58.99447347,174.57865057,-142.05675195,113.27002843,-178.34619587
134.90016062,47.52486678,56.66410936,31.05732619,-0.49028484,-0.79229961
2.46220694

>  <Name>
ligand

>  <RI>
0

>  <Rbt.Current_Directory>
/home/itssahil/PROJECTS/Mol_Feturizer/New_Systems/rnas/3GX3

>  <Rbt.Executable>
rbdock ($Id: //depot/dev/client3/rdock/2013.1/src/exe/rbdock.cxx#4 $)

>  <Rbt.Library>
libRbt.so (2013.1, Build901 2013/11/27)

>  <Rbt.Parameter_File>
/export/apps/rDock/src/rDock_2013.1_src/data/scripts/dock_solv.prm

>  <Rbt.Receptor>
prm/pocket_docking_4.prm

>  <SCORE>
-15.7169

>  <SCORE.INTER>
-15.0273

>  <SCORE.INTER.CONST>
1

>  <SCORE.INTER.POLAR>
0

>  <SCORE.INTER.ROT>
7

>  <SCORE.INTER.SOLV>
12.8257

>  <SCORE.INTER.VDW>
-22.5601

>  <SCORE.INTER.norm>
-0.577973

>  <SCORE.INTRA>
-0.689582

>  <SCORE.INTRA.DIHEDRAL>
1.11522

>  <SCORE.INTRA.DIHEDRAL.0>
5.78979

>  <SCORE.INTRA.POLAR>
0

>  <SCORE.INTRA.POLAR.0>
0

>  <SCORE.INTRA.REPUL>
0

>  <SCORE.INTRA.REPUL.0>
0

>  <SCORE.INTRA.SOLV>
-0.121

>  <SCORE.INTRA.SOLV.lig_0>
-49.9151

>  <SCORE.INTRA.VDW>
-1.18669

>  <SCORE.INTRA.VDW.0>
-0.211125

>  <SCORE.INTRA.norm>
-0.0265224

>  <SCORE.RESTR>
0

>  <SCORE.RESTR.CAVITY>
0

>  <SCORE.RESTR.norm>
0

>  <SCORE.SYSTEM>
0

>  <SCORE.SYSTEM.CONST>
0

>  <SCORE.SYSTEM.DIHEDRAL>
0

>  <SCORE.SYSTEM.SOLV>
0

>  <SCORE.SYSTEM.norm>
0

>  <SCORE.heavy>
26

>  <SCORE.norm>
-0.604495

>  <RMSD>
5.096

$$$$
ligand
 OpenBabel11021811483D
libRbt.so/2013.1/901 2013/11/27
 26 28  0  0  0  0  0  0  0  0999 V2000
   50.9549   53.2597   25.4409 N   0  0  0  0  0  0  0  0  0  0  0  0
   51.0942   54.0097   26.6922 C   0  0  2  0  0  0  0  0  0  0  0  0
   51.0713   53.1399   27.9510 C   0  0  0  0  0  0  0  0  0  0  0  0
   50.2735   52.2030   27.9954 O   0  0  0  0  0  0  0  0  0  0  0  0
   50.0557   55.1196   26.9001 C   0  0  0  0  0  0  0  0  0  0  0  0
   50.0351   55.9455   28.1745 C   0  0  0  0  0  0  0  0  0  0  0  0
   48.7012   57.1506   27.9841 S   0  0  0  0  0  0  0  0  0  0  0  0
   48.7384   57.3253   29.7839 C   0  0  0  0  0  0  0  0  0  0  0  0
   48.0444   58.5850   30.3130 C   0  0  1  0  0  0  0  0  0  0  0  0
   46.6162   58.5205   30.2281 O   0  0  0  0  0  0  0  0  0  0  0  0
   48.3960   58.8237   31.7743 C   0  0  1  0  0  0  0  0  0  0  0  0
   49.5166   59.6707   31.9021 O   0  0  0  0  0  0  0  0  0  0  0  0
   47.1278   59.4096   32.3814 C   0  0  1  0  0  0  0  0  0  0  0  0
   47.1270   60.8218   32.3253 O   0  0  0  0  0  0  0  0  0  0  0  0
   46.0322   58.9096   31.4606 C   0  0  2  0  0  0  0  0  0  0  0  0
   51.8260   53.3287   28.9132 O   0  0  0  0  0  0  0  0  0  0  0  0
   46.2039   54.5977   34.4599 N   0  0  0  0  0  0  0  0  0  0  0  0
   47.2388   55.4236   34.1000 C   0  0  0  0  0  0  0  0  0  0  0  0
   47.0005   56.5085   33.2827 N   0  0  0  0  0  0  0  0  0  0  0  0
   45.7585   56.7977   32.8557 C   0  0  0  0  0  0  0  0  0  0  0  0
   44.7002   55.9779   33.2090 C   0  0  0  0  0  0  0  0  0  0  0  0
   44.9382   54.8787   34.0098 C   0  0  0  0  0  0  0  0  0  0  0  0
   43.9430   54.0911   34.3688 N   0  0  0  0  0  0  0  0  0  0  0  0
   43.5724   56.4786   32.6572 N   0  0  0  0  0  0  0  0  0  0  0  0
   43.9044   57.5834   31.9426 C   0  0  0  0  0  0  0  0  0  0  0  0
   45.2608   57.7953   32.0586 N   0  0  0  0  0  0  0  0  0  0  0  0
  2  1  1  6  0  0  0
  2  3  1  0  0  0  0
  2  5  1  0  0  0  0
  3  4  1  0  0  0  0
  3 16  1  0  0  0  0
  5  6  1  0  0  0  0
  6  7  1  0  0  0  0
  7  8  1  0  0  0  0
  9  8  1  1  0  0  0
  9 10  1  0  0  0  0
  9 11  1  0  0  0  0
 10 15  1  0  0  0  0
 11 12  1  6  0  0  0
 11 13  1  0  0  0  0
 13 14  1  6  0  0  0
 13 15  1  0  0  0  0
 15 26  1  1  0  0  0
 17 18  2  0  0  0  0
 17 22  1  0  0  0  0
 18 19  1  0  0  0  0
 19 20  2  0  0  0  0
 20 21  1  0  0  0  0
 20 26  1  0  0  0  0
 21 22  2  0  0  0  0
 21 24  1  0  0  0  0
 22 23  1  0  0  0  0
 24 25  2  0  0  0  0
 25 26  1  0  0  0  0
M  END
>  <CHROM.1>
-40.25743039,177.45153256,178.49367212,160.61904906,162.88956038,72.83766572
85.66828688,47.74756585,56.45199477,30.69274625,0.35908114,-0.84051893,3.12704402

>  <Name>
ligand

>  <RI>
0

>  <Rbt.Current_Directory>
/home/itssahil/PROJECTS/Mol_Feturizer/New_Systems/rnas/3GX3

>  <Rbt.Executable>
rbdock ($Id: //depot/dev/client3/rdock/2013.1/src/exe/rbdock.cxx#4 $)

>  <Rbt.Library>
libRbt.so (2013.1, Build901 2013/11/27)

>  <Rbt.Parameter_File>
/export/apps/rDock/src/rDock_2013.1_src/data/scripts/dock_solv.prm

>  <Rbt.Receptor>
prm/pocket_docking_5.prm

>  <SCORE>
-18.0489

>  <SCORE.INTER>
-14.555

>  <SCORE.INTER.CONST>
1

>  <SCORE.INTER.POLAR>
0

>  <SCORE.INTER.ROT>
7

>  <SCORE.INTER.SOLV>
11.8464

>  <SCORE.INTER.VDW>
-21.9188

>  <SCORE.INTER.norm>
-0.559808

>  <SCORE.INTRA>
-3.49386

>  <SCORE.INTRA.DIHEDRAL>
-1.27426

>  <SCORE.INTRA.DIHEDRAL.0>
5.78979

>  <SCORE.INTRA.POLAR>
0

>  <SCORE.INTRA.POLAR.0>
0

>  <SCORE.INTRA.REPUL>
0

>  <SCORE.INTRA.REPUL.0>
0

>  <SCORE.INTRA.SOLV>
-1.12964

>  <SCORE.INTRA.SOLV.lig_0>
-49.9151

>  <SCORE.INTRA.VDW>
-2.2919

>  <SCORE.INTRA.VDW.0>
-0.211125

>  <SCORE.INTRA.norm>
-0.134379

>  <SCORE.RESTR>
0

>  <SCORE.RESTR.CAVITY>
0

>  <SCORE.RESTR.norm>
0

>  <SCORE.SYSTEM>
0

>  <SCORE.SYSTEM.CONST>
0

>  <SCORE.SYSTEM.DIHEDRAL>
0

>  <SCORE.SYSTEM.SOLV>
0

>  <SCORE.SYSTEM.norm>
0

>  <SCORE.heavy>
26

>  <SCORE.norm>
-0.694187

>  <RMSD>
5.101

$$$$
ligand
 OpenBabel11021811483D
libRbt.so/2013.1/901 2013/11/27
 26 28  0  0  0  0  0  0  0  0999 V2000
   49.5115   53.5039   28.0676 N   0  0  0  0  0  0  0  0  0  0  0  0
   49.7421   54.5342   29.0840 C   0  0  2  0  0  0  0  0  0  0  0  0
   48.9685   54.3154   30.3860 C   0  0  0  0  0  0  0  0  0  0  0  0
   49.5077   54.6413   31.4439 O   0  0  0  0  0  0  0  0  0  0  0  0
   49.4484   55.9694   28.6283 C   0  0  0  0  0  0  0  0  0  0  0  0
   48.0341   56.4128   28.2966 C   0  0  0  0  0  0  0  0  0  0  0  0
   48.1402   58.1530   27.8189 S   0  0  0  0  0  0  0  0  0  0  0  0
   48.0611   58.5380   29.5844 C   0  0  0  0  0  0  0  0  0  0  0  0
   46.6661   58.9251   30.0869 C   0  0  1  0  0  0  0  0  0  0  0  0
   45.8359   57.7942   30.3750 O   0  0  0  0  0  0  0  0  0  0  0  0
   46.7595   59.7490   31.3629 C   0  0  1  0  0  0  0  0  0  0  0  0
   46.7861   61.1310   31.0822 O   0  0  0  0  0  0  0  0  0  0  0  0
   45.5462   59.3254   32.1806 C   0  0  1  0  0  0  0  0  0  0  0  0
   44.4305   60.1549   31.9265 O   0  0  0  0  0  0  0  0  0  0  0  0
   45.2259   57.9431   31.6467 C   0  0  2  0  0  0  0  0  0  0  0  0
   47.8259   53.8416   30.4184 O   0  0  0  0  0  0  0  0  0  0  0  0
   49.1513   55.9982   34.5495 N   0  0  0  0  0  0  0  0  0  0  0  0
   49.1587   57.1122   33.7486 C   0  0  0  0  0  0  0  0  0  0  0  0
   48.0263   57.4584   33.0417 N   0  0  0  0  0  0  0  0  0  0  0  0
   46.8936   56.7413   33.1487 C   0  0  0  0  0  0  0  0  0  0  0  0
   46.8648   55.6147   33.9529 C   0  0  0  0  0  0  0  0  0  0  0  0
   48.0029   55.2528   34.6458 C   0  0  0  0  0  0  0  0  0  0  0  0
   47.9944   54.1905   35.4273 N   0  0  0  0  0  0  0  0  0  0  0  0
   45.6262   55.0775   33.8873 N   0  0  0  0  0  0  0  0  0  0  0  0
   44.8823   55.8299   33.0376 C   0  0  0  0  0  0  0  0  0  0  0  0
   45.6570   56.8696   32.5720 N   0  0  0  0  0  0  0  0  0  0  0  0
  2  1  1  6  0  0  0
  2  3  1  0  0  0  0
  2  5  1  0  0  0  0
  3  4  1  0  0  0  0
  3 16  1  0  0  0  0
  5  6  1  0  0  0  0
  6  7  1  0  0  0  0
  7  8  1  0  0  0  0
  9  8  1  1  0  0  0
  9 10  1  0  0  0  0
  9 11  1  0  0  0  0
 10 15  1  0  0  0  0
 11 12  1  6  0  0  0
 11 13  1  0  0  0  0
 13 14  1  6  0  0  0
 13 15  1  0  0  0  0
 15 26  1  1  0  0  0
 17 18  2  0  0  0  0
 17 22  1  0  0  0  0
 18 19  1  0  0  0  0
 19 20  2  0  0  0  0
 20 21  1  0  0  0  0
 20 26  1  0  0  0  0
 21 22  2  0  0  0  0
 21 24  1  0  0  0  0
 22 23  1  0  0  0  0
 24 25  2  0  0  0  0
 25 26  1  0  0  0  0
M  END
>  <CHROM.1>
144.82903606,66.43887606,179.74491662,-84.33247801,-97.97602578,82.48839969
71.89474279,47.44094190,56.83424433,31.31832057,-0.77590672,-0.98009976,2.10999732

>  <Name>
ligand

>  <RI>
0

>  <Rbt.Current_Directory>
/home/itssahil/PROJECTS/Mol_Feturizer/New_Systems/rnas/3GX3

>  <Rbt.Executable>
rbdock ($Id: //depot/dev/client3/rdock/2013.1/src/exe/rbdock.cxx#4 $)

>  <Rbt.Library>
libRbt.so (2013.1, Build901 2013/11/27)

>  <Rbt.Parameter_File>
/export/apps/rDock/src/rDock_2013.1_src/data/scripts/dock_solv.prm

>  <Rbt.Receptor>
prm/pocket_docking_4.prm

>  <SCORE>
-16.0659

>  <SCORE.INTER>
-12.8518

>  <SCORE.INTER.CONST>
1

>  <SCORE.INTER.POLAR>
0

>  <SCORE.INTER.ROT>
7

>  <SCORE.INTER.SOLV>
12.6621

>  <SCORE.INTER.VDW>
-21.0552

>  <SCORE.INTER.norm>
-0.494299

>  <SCORE.INTRA>
-3.21411

>  <SCORE.INTRA.DIHEDRAL>
1.31765

>  <SCORE.INTRA.DIHEDRAL.0>
5.78979

>  <SCORE.INTRA.POLAR>
0

>  <SCORE.INTRA.POLAR.0>
0

>  <SCORE.INTRA.REPUL>
0

>  <SCORE.INTRA.REPUL.0>
0

>  <SCORE.INTRA.SOLV>
-0.500482

>  <SCORE.INTRA.SOLV.lig_0>
-49.9151

>  <SCORE.INTRA.VDW>
-3.62269

>  <SCORE.INTRA.VDW.0>
-0.211125

>  <SCORE.INTRA.norm>
-0.12362

>  <SCORE.RESTR>
0

>  <SCORE.RESTR.CAVITY>
0

>  <SCORE.RESTR.norm>
0

>  <SCORE.SYSTEM>
0

>  <SCORE.SYSTEM.CONST>
0

>  <SCORE.SYSTEM.DIHEDRAL>
0

>  <SCORE.SYSTEM.SOLV>
0

>  <SCORE.SYSTEM.norm>
0

>  <SCORE.heavy>
26

>  <SCORE.norm>
-0.617918

>  <RMSD>
5.103

$$$$
ligand
 OpenBabel11021811483D
libRbt.so/2013.1/901 2013/11/27
 26 28  0  0  0  0  0  0  0  0999 V2000
   45.6122   60.9396   31.0164 N   0  0  0  0  0  0  0  0  0  0  0  0
   46.1583   59.6183   31.3386 C   0  0  2  0  0  0  0  0  0  0  0  0
   45.1686   58.6838   32.0379 C   0  0  0  0  0  0  0  0  0  0  0  0
   45.6176   57.7112   32.6450 O   0  0  0  0  0  0  0  0  0  0  0  0
   47.4324   59.6359   32.1930 C   0  0  0  0  0  0  0  0  0  0  0  0
   48.3839   58.4522   32.2063 C   0  0  0  0  0  0  0  0  0  0  0  0
   49.3590   58.5941   33.7218 S   0  0  0  0  0  0  0  0  0  0  0  0
   49.6249   56.8093   33.5979 C   0  0  0  0  0  0  0  0  0  0  0  0
   48.4008   55.9597   33.9559 C   0  0  1  0  0  0  0  0  0  0  0  0
   47.4506   55.8611   32.8889 O   0  0  0  0  0  0  0  0  0  0  0  0
   48.8141   54.5411   34.3204 C   0  0  1  0  0  0  0  0  0  0  0  0
   49.0220   54.4066   35.7089 O   0  0  0  0  0  0  0  0  0  0  0  0
   47.6828   53.6670   33.7948 C   0  0  1  0  0  0  0  0  0  0  0  0
   46.6907   53.4509   34.7780 O   0  0  0  0  0  0  0  0  0  0  0  0
   47.0677   54.5093   32.6947 C   0  0  2  0  0  0  0  0  0  0  0  0
   43.9456   58.8718   32.0309 O   0  0  0  0  0  0  0  0  0  0  0  0
   50.1128   55.3198   28.4888 N   0  0  0  0  0  0  0  0  0  0  0  0
   50.0406   56.0619   29.6406 C   0  0  0  0  0  0  0  0  0  0  0  0
   49.1585   55.7005   30.6373 N   0  0  0  0  0  0  0  0  0  0  0  0
   48.3859   54.6062   30.5188 C   0  0  0  0  0  0  0  0  0  0  0  0
   48.4450   53.8428   29.3653 C   0  0  0  0  0  0  0  0  0  0  0  0
   49.3115   54.2135   28.3562 C   0  0  0  0  0  0  0  0  0  0  0  0
   49.3931   53.4940   27.2539 N   0  0  0  0  0  0  0  0  0  0  0  0
   47.5795   52.8124   29.4930 N   0  0  0  0  0  0  0  0  0  0  0  0
   46.9585   52.9267   30.6941 C   0  0  0  0  0  0  0  0  0  0  0  0
   47.4516   54.0369   31.3441 N   0  0  0  0  0  0  0  0  0  0  0  0
  2  1  1  1  0  0  0
  2  3  1  0  0  0  0
  2  5  1  0  0  0  0
  3  4  1  0  0  0  0
  3 16  1  0  0  0  0
  5  6  1  0  0  0  0
  6  7  1  0  0  0  0
  7  8  1  0  0  0  0
  9  8  1  6  0  0  0
  9 10  1  0  0  0  0
  9 11  1  0  0  0  0
 10 15  1  0  0  0  0
 11 12  1  1  0  0  0
 11 13  1  0  0  0  0
 13 14  1  1  0  0  0
 13 15  1  0  0  0  0
 15 26  1  6  0  0  0
 17 18  2  0  0  0  0
 17 22  1  0  0  0  0
 18 19  1  0  0  0  0
 19 20  2  0  0  0  0
 20 21  1  0  0  0  0
 20 26  1  0  0  0  0
 21 22  2  0  0  0  0
 21 24  1  0  0  0  0
 22 23  1  0  0  0  0
 24 25  2  0  0  0  0
 25 26  1  0  0  0  0
M  END
>  <CHROM.1>
-161.57572991,-158.06439981,-159.48904748,156.26604687,-73.67221087,80.25921742
19.03031273,47.85353623,56.11382790,31.89855538,2.87659320,-1.22767895,1.76854636

>  <Name>
ligand

>  <RI>
0

>  <Rbt.Current_Directory>
/home/itssahil/PROJECTS/Mol_Feturizer/New_Systems/rnas/3GX3

>  <Rbt.Executable>
rbdock ($Id: //depot/dev/client3/rdock/2013.1/src/exe/rbdock.cxx#4 $)

>  <Rbt.Library>
libRbt.so (2013.1, Build901 2013/11/27)

>  <Rbt.Parameter_File>
/export/apps/rDock/src/rDock_2013.1_src/data/scripts/dock_solv.prm

>  <Rbt.Receptor>
prm/pocket_docking_2.prm

>  <SCORE>
-14.5514

>  <SCORE.INTER>
-14.0617

>  <SCORE.INTER.CONST>
1

>  <SCORE.INTER.POLAR>
0

>  <SCORE.INTER.ROT>
7

>  <SCORE.INTER.SOLV>
13.1459

>  <SCORE.INTER.VDW>
-22.0231

>  <SCORE.INTER.norm>
-0.540835

>  <SCORE.INTRA>
-0.924292

>  <SCORE.INTRA.DIHEDRAL>
2.475

>  <SCORE.INTRA.DIHEDRAL.0>
5.78979

>  <SCORE.INTRA.POLAR>
0

>  <SCORE.INTRA.POLAR.0>
0

>  <SCORE.INTRA.REPUL>
0

>  <SCORE.INTRA.REPUL.0>
0

>  <SCORE.INTRA.SOLV>
-0.811045

>  <SCORE.INTRA.SOLV.lig_0>
-49.9151

>  <SCORE.INTRA.VDW>
-1.75627

>  <SCORE.INTRA.VDW.0>
-0.211125

>  <SCORE.INTRA.norm>
-0.0355497

>  <SCORE.RESTR>
0.434653

>  <SCORE.RESTR.CAVITY>
0.434653

>  <SCORE.RESTR.norm>
0.0167174

>  <SCORE.SYSTEM>
0

>  <SCORE.SYSTEM.CONST>
0

>  <SCORE.SYSTEM.DIHEDRAL>
0

>  <SCORE.SYSTEM.SOLV>
0

>  <SCORE.SYSTEM.norm>
0

>  <SCORE.heavy>
26

>  <SCORE.norm>
-0.559667

>  <RMSD>
5.105

$$$$
ligand
 OpenBabel11021811483D
libRbt.so/2013.1/901 2013/11/27
 26 28  0  0  0  0  0  0  0  0999 V2000
   50.8153   53.5940   29.6081 N   0  0  0  0  0  0  0  0  0  0  0  0
   49.5995   52.8702   29.9902 C   0  0  2  0  0  0  0  0  0  0  0  0
   48.7447   52.4107   28.8070 C   0  0  0  0  0  0  0  0  0  0  0  0
   48.8056   53.0569   27.7607 O   0  0  0  0  0  0  0  0  0  0  0  0
   48.6675   53.6295   30.9434 C   0  0  0  0  0  0  0  0  0  0  0  0
   48.0890   54.9812   30.5630 C   0  0  0  0  0  0  0  0  0  0  0  0
   49.3926   56.1987   30.8561 S   0  0  0  0  0  0  0  0  0  0  0  0
   48.5551   57.2397   29.6369 C   0  0  0  0  0  0  0  0  0  0  0  0
   47.4249   58.1020   30.2092 C   0  0  1  0  0  0  0  0  0  0  0  0
   46.2842   57.3387   30.6182 O   0  0  0  0  0  0  0  0  0  0  0  0
   47.9018   58.8820   31.4259 C   0  0  1  0  0  0  0  0  0  0  0  0
   48.3775   60.1595   31.0639 O   0  0  0  0  0  0  0  0  0  0  0  0
   46.6897   58.9311   32.3470 C   0  0  1  0  0  0  0  0  0  0  0  0
   45.9094   60.0876   32.1210 O   0  0  0  0  0  0  0  0  0  0  0  0
   45.8710   57.7296   31.9174 C   0  0  2  0  0  0  0  0  0  0  0  0
   48.0113   51.4153   28.8532 O   0  0  0  0  0  0  0  0  0  0  0  0
   49.0357   55.0244   35.1243 N   0  0  0  0  0  0  0  0  0  0  0  0
   49.3490   56.0975   34.3287 C   0  0  0  0  0  0  0  0  0  0  0  0
   48.3789   56.6702   33.5333 N   0  0  0  0  0  0  0  0  0  0  0  0
   47.1125   56.2180   33.5469 C   0  0  0  0  0  0  0  0  0  0  0  0
   46.7754   55.1374   34.3440 C   0  0  0  0  0  0  0  0  0  0  0  0
   47.7487   54.5479   35.1259 C   0  0  0  0  0  0  0  0  0  0  0  0
   47.4471   53.5251   35.9021 N   0  0  0  0  0  0  0  0  0  0  0  0
   45.4586   54.8811   34.1775 N   0  0  0  0  0  0  0  0  0  0  0  0
   44.9662   55.7635   33.2719 C   0  0  0  0  0  0  0  0  0  0  0  0
   45.9832   56.6028   32.8725 N   0  0  0  0  0  0  0  0  0  0  0  0
  2  1  1  6  0  0  0
  2  3  1  0  0  0  0
  2  5  1  0  0  0  0
  3  4  1  0  0  0  0
  3 16  1  0  0  0  0
  5  6  1  0  0  0  0
  6  7  1  0  0  0  0
  7  8  1  0  0  0  0
  9  8  1  1  0  0  0
  9 10  1  0  0  0  0
  9 11  1  0  0  0  0
 10 15  1  0  0  0  0
 11 12  1  6  0  0  0
 11 13  1  0  0  0  0
 13 14  1  6  0  0  0
 13 15  1  0  0  0  0
 15 26  1  1  0  0  0
 17 18  2  0  0  0  0
 17 22  1  0  0  0  0
 18 19  1  0  0  0  0
 19 20  2  0  0  0  0
 20 21  1  0  0  0  0
 20 26  1  0  0  0  0
 21 22  2  0  0  0  0
 21 24  1  0  0  0  0
 22 23  1  0  0  0  0
 24 25  2  0  0  0  0
 25 26  1  0  0  0  0
M  END
>  <CHROM.1>
-27.19746234,58.43832031,-79.41836705,155.81111672,85.62571717,-69.46841668
83.92562871,47.83086469,55.85114354,31.75128663,-0.26032761,1.20314862,-0.68609121

>  <Name>
ligand

>  <RI>
0

>  <Rbt.Current_Directory>
/home/itssahil/PROJECTS/Mol_Feturizer/New_Systems/rnas/3GX3

>  <Rbt.Executable>
rbdock ($Id: //depot/dev/client3/rdock/2013.1/src/exe/rbdock.cxx#4 $)

>  <Rbt.Library>
libRbt.so (2013.1, Build901 2013/11/27)

>  <Rbt.Parameter_File>
/export/apps/rDock/src/rDock_2013.1_src/data/scripts/dock_solv.prm

>  <Rbt.Receptor>
prm/pocket_docking_4.prm

>  <SCORE>
-13.5116

>  <SCORE.INTER>
-9.89118

>  <SCORE.INTER.CONST>
1

>  <SCORE.INTER.POLAR>
0

>  <SCORE.INTER.ROT>
7

>  <SCORE.INTER.SOLV>
15.2544

>  <SCORE.INTER.VDW>
-19.9456

>  <SCORE.INTER.norm>
-0.38043

>  <SCORE.INTRA>
-3.62545

>  <SCORE.INTRA.DIHEDRAL>
0.507671

>  <SCORE.INTRA.DIHEDRAL.0>
5.78979

>  <SCORE.INTRA.POLAR>
0

>  <SCORE.INTRA.POLAR.0>
0

>  <SCORE.INTRA.REPUL>
0

>  <SCORE.INTRA.REPUL.0>
0

>  <SCORE.INTRA.SOLV>
1.42559

>  <SCORE.INTRA.SOLV.lig_0>
-49.9151

>  <SCORE.INTRA.VDW>
-4.59208

>  <SCORE.INTRA.VDW.0>
-0.211125

>  <SCORE.INTRA.norm>
-0.13944

>  <SCORE.RESTR>
0.00501244

>  <SCORE.RESTR.CAVITY>
0.00501244

>  <SCORE.RESTR.norm>
0.000192786

>  <SCORE.SYSTEM>
0

>  <SCORE.SYSTEM.CONST>
0

>  <SCORE.SYSTEM.DIHEDRAL>
0

>  <SCORE.SYSTEM.SOLV>
0

>  <SCORE.SYSTEM.norm>
0

>  <SCORE.heavy>
26

>  <SCORE.norm>
-0.519677

>  <RMSD>
5.106

$$$$
ligand
 OpenBabel11021811483D
libRbt.so/2013.1/901 2013/11/27
 26 28  0  0  0  0  0  0  0  0999 V2000
   49.2687   52.4859   28.6879 N   0  0  0  0  0  0  0  0  0  0  0  0
   49.5711   53.8305   29.1863 C   0  0  2  0  0  0  0  0  0  0  0  0
   50.8933   54.4067   28.6747 C   0  0  0  0  0  0  0  0  0  0  0  0
   50.9531   55.6166   28.4543 O   0  0  0  0  0  0  0  0  0  0  0  0
   49.5896   53.9649   30.7144 C   0  0  0  0  0  0  0  0  0  0  0  0
   49.6855   55.3263   31.3808 C   0  0  0  0  0  0  0  0  0  0  0  0
   48.1159   56.1650   31.0639 S   0  0  0  0  0  0  0  0  0  0  0  0
   49.0524   57.7121   31.0934 C   0  0  0  0  0  0  0  0  0  0  0  0
   48.2032   58.9712   30.8885 C   0  0  1  0  0  0  0  0  0  0  0  0
   47.3234   58.8815   29.7621 O   0  0  0  0  0  0  0  0  0  0  0  0
   47.3396   59.2467   32.1109 C   0  0  1  0  0  0  0  0  0  0  0  0
   47.9881   60.1144   33.0140 O   0  0  0  0  0  0  0  0  0  0  0  0
   46.0491   59.8244   31.5442 C   0  0  1  0  0  0  0  0  0  0  0  0
   46.0979   61.2350   31.4693 O   0  0  0  0  0  0  0  0  0  0  0  0
   46.0142   59.2871   30.1271 C   0  0  2  0  0  0  0  0  0  0  0  0
   51.9018   53.7144   28.4886 O   0  0  0  0  0  0  0  0  0  0  0  0
   43.1689   55.6055   32.5700 N   0  0  0  0  0  0  0  0  0  0  0  0
   44.0287   56.5204   33.1234 C   0  0  0  0  0  0  0  0  0  0  0  0
   44.7077   57.4046   32.3116 N   0  0  0  0  0  0  0  0  0  0  0  0
   44.5170   57.4132   30.9804 C   0  0  0  0  0  0  0  0  0  0  0  0
   43.6524   56.4993   30.4024 C   0  0  0  0  0  0  0  0  0  0  0  0
   42.9868   55.5984   31.2097 C   0  0  0  0  0  0  0  0  0  0  0  0
   42.1491   54.7271   30.6818 N   0  0  0  0  0  0  0  0  0  0  0  0
   43.6394   56.7122   29.0676 N   0  0  0  0  0  0  0  0  0  0  0  0
   44.4983   57.7259   28.7917 C   0  0  0  0  0  0  0  0  0  0  0  0
   45.0500   58.1732   29.9722 N   0  0  0  0  0  0  0  0  0  0  0  0
  2  1  1  1  0  0  0
  2  3  1  0  0  0  0
  2  5  1  0  0  0  0
  3  4  1  0  0  0  0
  3 16  1  0  0  0  0
  5  6  1  0  0  0  0
  6  7  1  0  0  0  0
  7  8  1  0  0  0  0
  9  8  1  1  0  0  0
  9 10  1  0  0  0  0
  9 11  1  0  0  0  0
 10 15  1  0  0  0  0
 11 12  1  1  0  0  0
 11 13  1  0  0  0  0
 13 14  1  6  0  0  0
 13 15  1  0  0  0  0
 15 26  1  1  0  0  0
 17 18  2  0  0  0  0
 17 22  1  0  0  0  0
 18 19  1  0  0  0  0
 19 20  2  0  0  0  0
 20 21  1  0  0  0  0
 20 26  1  0  0  0  0
 21 22  2  0  0  0  0
 21 24  1  0  0  0  0
 22 23  1  0  0  0  0
 24 25  2  0  0  0  0
 25 26  1  0  0  0  0
M  END
>  <CHROM.1>
144.81492203,-170.98550896,69.23152244,-149.21326307,-178.81354809,-49.12394875
103.61263696,46.95098090,56.80750479,30.61911908,0.56160842,-0.14582369,-2.84440665

>  <Name>
ligand

>  <RI>
0

>  <Rbt.Current_Directory>
/home/itssahil/PROJECTS/Mol_Feturizer/New_Systems/rnas/3GX3

>  <Rbt.Executable>
rbdock ($Id: //depot/dev/client3/rdock/2013.1/src/exe/rbdock.cxx#4 $)

>  <Rbt.Library>
libRbt.so (2013.1, Build901 2013/11/27)

>  <Rbt.Parameter_File>
/export/apps/rDock/src/rDock_2013.1_src/data/scripts/dock_solv.prm

>  <Rbt.Receptor>
prm/pocket_docking_6.prm

>  <SCORE>
-15.8913

>  <SCORE.INTER>
-11.9114

>  <SCORE.INTER.CONST>
1

>  <SCORE.INTER.POLAR>
0

>  <SCORE.INTER.ROT>
7

>  <SCORE.INTER.SOLV>
12.1994

>  <SCORE.INTER.VDW>
-20.2741

>  <SCORE.INTER.norm>
-0.458132

>  <SCORE.INTRA>
-3.97985

>  <SCORE.INTRA.DIHEDRAL>
-0.711863

>  <SCORE.INTRA.DIHEDRAL.0>
5.78979

>  <SCORE.INTRA.POLAR>
0

>  <SCORE.INTRA.POLAR.0>
0

>  <SCORE.INTRA.REPUL>
0

>  <SCORE.INTRA.REPUL.0>
0

>  <SCORE.INTRA.SOLV>
-0.728765

>  <SCORE.INTRA.SOLV.lig_0>
-49.9151

>  <SCORE.INTRA.VDW>
-3.25954

>  <SCORE.INTRA.VDW.0>
-0.211125

>  <SCORE.INTRA.norm>
-0.153071

>  <SCORE.RESTR>
0

>  <SCORE.RESTR.CAVITY>
0

>  <SCORE.RESTR.norm>
0

>  <SCORE.SYSTEM>
0

>  <SCORE.SYSTEM.CONST>
0

>  <SCORE.SYSTEM.DIHEDRAL>
0

>  <SCORE.SYSTEM.SOLV>
0

>  <SCORE.SYSTEM.norm>
0

>  <SCORE.heavy>
26

>  <SCORE.norm>
-0.611203

>  <RMSD>
5.110

$$$$
ligand
 OpenBabel11021811483D
libRbt.so/2013.1/901 2013/11/27
 26 28  0  0  0  0  0  0  0  0999 V2000
   47.7738   53.9643   25.1403 N   0  0  0  0  0  0  0  0  0  0  0  0
   47.8488   55.3590   24.6965 C   0  0  2  0  0  0  0  0  0  0  0  0
   48.8194   55.5974   23.5377 C   0  0  0  0  0  0  0  0  0  0  0  0
   50.0066   55.3183   23.7074 O   0  0  0  0  0  0  0  0  0  0  0  0
   48.2105   56.3683   25.7939 C   0  0  0  0  0  0  0  0  0  0  0  0
   47.2159   56.7334   26.8820 C   0  0  0  0  0  0  0  0  0  0  0  0
   47.9818   58.0483   27.8578 S   0  0  0  0  0  0  0  0  0  0  0  0
   46.5707   57.8998   28.9794 C   0  0  0  0  0  0  0  0  0  0  0  0
   46.6426   58.8070   30.2123 C   0  0  1  0  0  0  0  0  0  0  0  0
   45.4744   58.7319   31.0374 O   0  0  0  0  0  0  0  0  0  0  0  0
   47.8329   58.4395   31.0863 C   0  0  1  0  0  0  0  0  0  0  0  0
   48.9724   59.1996   30.7499 O   0  0  0  0  0  0  0  0  0  0  0  0
   47.3494   58.6799   32.5106 C   0  0  1  0  0  0  0  0  0  0  0  0
   47.6470   59.9905   32.9481 O   0  0  0  0  0  0  0  0  0  0  0  0
   45.8424   58.5615   32.3965 C   0  0  2  0  0  0  0  0  0  0  0  0
   48.4607   56.0422   22.4402 O   0  0  0  0  0  0  0  0  0  0  0  0
   47.0479   54.0988   34.8962 N   0  0  0  0  0  0  0  0  0  0  0  0
   47.8829   55.1318   34.5525 C   0  0  0  0  0  0  0  0  0  0  0  0
   47.3826   56.2243   33.8756 N   0  0  0  0  0  0  0  0  0  0  0  0
   46.0754   56.3162   33.5735 C   0  0  0  0  0  0  0  0  0  0  0  0
   45.2158   55.2854   33.9131 C   0  0  0  0  0  0  0  0  0  0  0  0
   45.7168   54.1803   34.5721 C   0  0  0  0  0  0  0  0  0  0  0  0
   44.9138   53.1922   34.9161 N   0  0  0  0  0  0  0  0  0  0  0  0
   43.9716   55.6169   33.5016 N   0  0  0  0  0  0  0  0  0  0  0  0
   44.0361   56.8250   32.8872 C   0  0  0  0  0  0  0  0  0  0  0  0
   45.3383   57.2732   32.9262 N   0  0  0  0  0  0  0  0  0  0  0  0
  2  1  1  1  0  0  0
  2  3  1  0  0  0  0
  2  5  1  0  0  0  0
  3  4  1  0  0  0  0
  3 16  1  0  0  0  0
  5  6  1  0  0  0  0
  6  7  1  0  0  0  0
  7  8  1  0  0  0  0
  9  8  1  6  0  0  0
  9 10  1  0  0  0  0
  9 11  1  0  0  0  0
 10 15  1  0  0  0  0
 11 12  1  6  0  0  0
 11 13  1  0  0  0  0
 13 14  1  6  0  0  0
 13 15  1  0  0  0  0
 15 26  1  6  0  0  0
 17 18  2  0  0  0  0
 17 22  1  0  0  0  0
 18 19  1  0  0  0  0
 19 20  2  0  0  0  0
 20 21  1  0  0  0  0
 20 26  1  0  0  0  0
 21 22  2  0  0  0  0
 21 24  1  0  0  0  0
 22 23  1  0  0  0  0
 24 25  2  0  0  0  0
 25 26  1  0  0  0  0
M  END
>  <CHROM.1>
-60.03876018,-72.05052964,-174.85932221,-173.57531674,177.03698413,176.23524342
128.04677860,47.03203291,56.72900995,30.13429231,0.55414678,-1.25610840,-2.57533734

>  <Name>
ligand

>  <RI>
0

>  <Rbt.Current_Directory>
/home/itssahil/PROJECTS/Mol_Feturizer/New_Systems/rnas/3GX3

>  <Rbt.Executable>
rbdock ($Id: //depot/dev/client3/rdock/2013.1/src/exe/rbdock.cxx#4 $)

>  <Rbt.Library>
libRbt.so (2013.1, Build901 2013/11/27)

>  <Rbt.Parameter_File>
/export/apps/rDock/src/rDock_2013.1_src/data/scripts/dock_solv.prm

>  <Rbt.Receptor>
prm/pocket_docking_7.prm

>  <SCORE>
-18.6671

>  <SCORE.INTER>
-15.6507

>  <SCORE.INTER.CONST>
1

>  <SCORE.INTER.POLAR>
0

>  <SCORE.INTER.ROT>
7

>  <SCORE.INTER.SOLV>
13.7303

>  <SCORE.INTER.VDW>
-23.2772

>  <SCORE.INTER.norm>
-0.601951

>  <SCORE.INTRA>
-3.01635

>  <SCORE.INTRA.DIHEDRAL>
-2.18907

>  <SCORE.INTRA.DIHEDRAL.0>
5.78979

>  <SCORE.INTRA.POLAR>
0

>  <SCORE.INTRA.POLAR.0>
0

>  <SCORE.INTRA.REPUL>
0

>  <SCORE.INTRA.REPUL.0>
0

>  <SCORE.INTRA.SOLV>
-0.44369

>  <SCORE.INTRA.SOLV.lig_0>
-49.9151

>  <SCORE.INTRA.VDW>
-1.69997

>  <SCORE.INTRA.VDW.0>
-0.211125

>  <SCORE.INTRA.norm>
-0.116014

>  <SCORE.RESTR>
0

>  <SCORE.RESTR.CAVITY>
0

>  <SCORE.RESTR.norm>
0

>  <SCORE.SYSTEM>
0

>  <SCORE.SYSTEM.CONST>
0

>  <SCORE.SYSTEM.DIHEDRAL>
0

>  <SCORE.SYSTEM.SOLV>
0

>  <SCORE.SYSTEM.norm>
0

>  <SCORE.heavy>
26

>  <SCORE.norm>
-0.717965

>  <RMSD>
5.128

$$$$
ligand
 OpenBabel11021811483D
libRbt.so/2013.1/901 2013/11/27
 26 28  0  0  0  0  0  0  0  0999 V2000
   47.8441   53.9778   25.1021 N   0  0  0  0  0  0  0  0  0  0  0  0
   47.8643   55.3763   24.6645 C   0  0  2  0  0  0  0  0  0  0  0  0
   48.8045   55.6526   23.4892 C   0  0  0  0  0  0  0  0  0  0  0  0
   49.9922   55.3519   23.6122 O   0  0  0  0  0  0  0  0  0  0  0  0
   48.2124   56.3920   25.7603 C   0  0  0  0  0  0  0  0  0  0  0  0
   47.2321   56.7083   26.8764 C   0  0  0  0  0  0  0  0  0  0  0  0
   47.9950   58.0055   27.8778 S   0  0  0  0  0  0  0  0  0  0  0  0
   46.5600   57.8662   28.9700 C   0  0  0  0  0  0  0  0  0  0  0  0
   46.5993   58.7931   30.1896 C   0  0  1  0  0  0  0  0  0  0  0  0
   45.4265   58.7014   31.0064 O   0  0  0  0  0  0  0  0  0  0  0  0
   47.7909   58.4680   31.0787 C   0  0  1  0  0  0  0  0  0  0  0  0
   48.9142   59.2509   30.7401 O   0  0  0  0  0  0  0  0  0  0  0  0
   47.2897   58.7176   32.4953 C   0  0  1  0  0  0  0  0  0  0  0  0
   47.5513   60.0415   32.9154 O   0  0  0  0  0  0  0  0  0  0  0  0
   45.7870   58.5604   32.3708 C   0  0  2  0  0  0  0  0  0  0  0  0
   48.4207   56.1486   22.4226 O   0  0  0  0  0  0  0  0  0  0  0  0
   47.0951   54.1346   34.8845 N   0  0  0  0  0  0  0  0  0  0  0  0
   47.9092   55.1781   34.5229 C   0  0  0  0  0  0  0  0  0  0  0  0
   47.3830   56.2579   33.8453 N   0  0  0  0  0  0  0  0  0  0  0  0
   46.0707   56.3271   33.5598 C   0  0  0  0  0  0  0  0  0  0  0  0
   45.2319   55.2854   33.9175 C   0  0  0  0  0  0  0  0  0  0  0  0
   45.7588   54.1930   34.5773 C   0  0  0  0  0  0  0  0  0  0  0  0
   44.9760   53.1948   34.9385 N   0  0  0  0  0  0  0  0  0  0  0  0
   43.9774   55.5945   33.5201 N   0  0  0  0  0  0  0  0  0  0  0  0
   44.0149   56.7992   32.8968 C   0  0  0  0  0  0  0  0  0  0  0  0
   45.3103   57.2680   32.9157 N   0  0  0  0  0  0  0  0  0  0  0  0
  2  1  1  1  0  0  0
  2  3  1  0  0  0  0
  2  5  1  0  0  0  0
  3  4  1  0  0  0  0
  3 16  1  0  0  0  0
  5  6  1  0  0  0  0
  6  7  1  0  0  0  0
  7  8  1  0  0  0  0
  9  8  1  6  0  0  0
  9 10  1  0  0  0  0
  9 11  1  0  0  0  0
 10 15  1  0  0  0  0
 11 12  1  6  0  0  0
 11 13  1  0  0  0  0
 13 14  1  6  0  0  0
 13 15  1  0  0  0  0
 15 26  1  6  0  0  0
 17 18  2  0  0  0  0
 17 22  1  0  0  0  0
 18 19  1  0  0  0  0
 19 20  2  0  0  0  0
 20 21  1  0  0  0  0
 20 26  1  0  0  0  0
 21 22  2  0  0  0  0
 21 24  1  0  0  0  0
 22 23  1  0  0  0  0
 24 25  2  0  0  0  0
 25 26  1  0  0  0  0
M  END
>  <CHROM.1>
-56.56339569,-71.44055257,-176.84852003,-176.56345848,178.77226030,177.57795567
126.64672880,47.02338540,56.74078917,30.11849580,0.50861843,-1.26526987,-2.62187746

>  <Name>
ligand

>  <RI>
0

>  <Rbt.Current_Directory>
/home/itssahil/PROJECTS/Mol_Feturizer/New_Systems/rnas/3GX3

>  <Rbt.Executable>
rbdock ($Id: //depot/dev/client3/rdock/2013.1/src/exe/rbdock.cxx#4 $)

>  <Rbt.Library>
libRbt.so (2013.1, Build901 2013/11/27)

>  <Rbt.Parameter_File>
/export/apps/rDock/src/rDock_2013.1_src/data/scripts/dock_solv.prm

>  <Rbt.Receptor>
prm/pocket_docking_7.prm

>  <SCORE>
-18.6466

>  <SCORE.INTER>
-15.5258

>  <SCORE.INTER.CONST>
1

>  <SCORE.INTER.POLAR>
0

>  <SCORE.INTER.ROT>
7

>  <SCORE.INTER.SOLV>
13.7737

>  <SCORE.INTER.VDW>
-23.2085

>  <SCORE.INTER.norm>
-0.597147

>  <SCORE.INTRA>
-3.12883

>  <SCORE.INTRA.DIHEDRAL>
-2.38521

>  <SCORE.INTRA.DIHEDRAL.0>
5.78979

>  <SCORE.INTRA.POLAR>
0

>  <SCORE.INTRA.POLAR.0>
0

>  <SCORE.INTRA.REPUL>
0

>  <SCORE.INTRA.REPUL.0>
0

>  <SCORE.INTRA.SOLV>
-0.433793

>  <SCORE.INTRA.SOLV.lig_0>
-49.9151

>  <SCORE.INTRA.VDW>
-1.71933

>  <SCORE.INTRA.VDW.0>
-0.211125

>  <SCORE.INTRA.norm>
-0.12034

>  <SCORE.RESTR>
0.00805074

>  <SCORE.RESTR.CAVITY>
0.00805074

>  <SCORE.RESTR.norm>
0.000309644

>  <SCORE.SYSTEM>
0

>  <SCORE.SYSTEM.CONST>
0

>  <SCORE.SYSTEM.DIHEDRAL>
0

>  <SCORE.SYSTEM.SOLV>
0

>  <SCORE.SYSTEM.norm>
0

>  <SCORE.heavy>
26

>  <SCORE.norm>
-0.717178

>  <RMSD>
5.135

$$$$
ligand
 OpenBabel11021811483D
libRbt.so/2013.1/901 2013/11/27
 26 28  0  0  0  0  0  0  0  0999 V2000
   49.6476   54.4993   30.5981 N   0  0  0  0  0  0  0  0  0  0  0  0
   49.7124   54.2294   29.1590 C   0  0  2  0  0  0  0  0  0  0  0  0
   51.1275   54.2619   28.5776 C   0  0  0  0  0  0  0  0  0  0  0  0
   51.7228   53.1932   28.4377 O   0  0  0  0  0  0  0  0  0  0  0  0
   48.8528   55.1548   28.2882 C   0  0  0  0  0  0  0  0  0  0  0  0
   48.9994   56.6644   28.3662 C   0  0  0  0  0  0  0  0  0  0  0  0
   48.3681   57.1588   29.9863 S   0  0  0  0  0  0  0  0  0  0  0  0
   47.3630   58.3805   29.1096 C   0  0  0  0  0  0  0  0  0  0  0  0
   46.1777   58.9223   29.9158 C   0  0  1  0  0  0  0  0  0  0  0  0
   45.3311   57.8915   30.4370 O   0  0  0  0  0  0  0  0  0  0  0  0
   46.6603   59.7473   31.1001 C   0  0  1  0  0  0  0  0  0  0  0  0
   46.7588   61.1147   30.7685 O   0  0  0  0  0  0  0  0  0  0  0  0
   45.6440   59.4675   32.1997 C   0  0  1  0  0  0  0  0  0  0  0  0
   44.5903   60.4095   32.1880 O   0  0  0  0  0  0  0  0  0  0  0  0
   45.0651   58.1214   31.8110 C   0  0  2  0  0  0  0  0  0  0  0  0
   51.6887   55.3088   28.2311 O   0  0  0  0  0  0  0  0  0  0  0  0
   49.2320   56.2055   34.3770 N   0  0  0  0  0  0  0  0  0  0  0  0
   49.1443   57.3619   33.6437 C   0  0  0  0  0  0  0  0  0  0  0  0
   47.9591   57.6929   33.0209 N   0  0  0  0  0  0  0  0  0  0  0  0
   46.8674   56.9178   33.1470 C   0  0  0  0  0  0  0  0  0  0  0  0
   46.9346   55.7477   33.8839 C   0  0  0  0  0  0  0  0  0  0  0  0
   48.1253   55.4021   34.4915 C   0  0  0  0  0  0  0  0  0  0  0  0
   48.2085   54.2982   35.2085 N   0  0  0  0  0  0  0  0  0  0  0  0
   45.7193   55.1567   33.8542 N   0  0  0  0  0  0  0  0  0  0  0  0
   44.8955   55.9192   33.0919 C   0  0  0  0  0  0  0  0  0  0  0  0
   45.5955   57.0193   32.6469 N   0  0  0  0  0  0  0  0  0  0  0  0
  2  1  1  1  0  0  0
  2  3  1  0  0  0  0
  2  5  1  0  0  0  0
  3  4  1  0  0  0  0
  3 16  1  0  0  0  0
  5  6  1  0  0  0  0
  6  7  1  0  0  0  0
  7  8  1  0  0  0  0
  9  8  1  1  0  0  0
  9 10  1  0  0  0  0
  9 11  1  0  0  0  0
 10 15  1  0  0  0  0
 11 12  1  6  0  0  0
 11 13  1  0  0  0  0
 13 14  1  6  0  0  0
 13 15  1  0  0  0  0
 15 26  1  1  0  0  0
 17 18  2  0  0  0  0
 17 22  1  0  0  0  0
 18 19  1  0  0  0  0
 19 20  2  0  0  0  0
 20 21  1  0  0  0  0
 20 26  1  0  0  0  0
 21 22  2  0  0  0  0
 21 24  1  0  0  0  0
 22 23  1  0  0  0  0
 24 25  2  0  0  0  0
 25 26  1  0  0  0  0
M  END
>  <CHROM.1>
97.09218583,54.87248135,-68.95846405,-129.47775171,161.35569455,-53.54702386
86.53105508,47.75686604,56.82790386,31.26246236,-0.13783173,-0.81900349,2.10559515

>  <Name>
ligand

>  <RI>
0

>  <Rbt.Current_Directory>
/home/itssahil/PROJECTS/Mol_Feturizer/New_Systems/rnas/3GX3

>  <Rbt.Executable>
rbdock ($Id: //depot/dev/client3/rdock/2013.1/src/exe/rbdock.cxx#4 $)

>  <Rbt.Library>
libRbt.so (2013.1, Build901 2013/11/27)

>  <Rbt.Parameter_File>
/export/apps/rDock/src/rDock_2013.1_src/data/scripts/dock_solv.prm

>  <Rbt.Receptor>
prm/pocket_docking_3.prm

>  <SCORE>
-14.4742

>  <SCORE.INTER>
-11.7577

>  <SCORE.INTER.CONST>
1

>  <SCORE.INTER.POLAR>
0

>  <SCORE.INTER.ROT>
7

>  <SCORE.INTER.SOLV>
15.3989

>  <SCORE.INTER.VDW>
-21.2381

>  <SCORE.INTER.norm>
-0.452221

>  <SCORE.INTRA>
-2.71953

>  <SCORE.INTRA.DIHEDRAL>
0.446192

>  <SCORE.INTRA.DIHEDRAL.0>
5.78979

>  <SCORE.INTRA.POLAR>
0

>  <SCORE.INTRA.POLAR.0>
0

>  <SCORE.INTRA.REPUL>
0

>  <SCORE.INTRA.REPUL.0>
0

>  <SCORE.INTRA.SOLV>
1.10874

>  <SCORE.INTRA.SOLV.lig_0>
-49.9151

>  <SCORE.INTRA.VDW>
-3.497

>  <SCORE.INTRA.VDW.0>
-0.211125

>  <SCORE.INTRA.norm>
-0.104597

>  <SCORE.RESTR>
0.00310039

>  <SCORE.RESTR.CAVITY>
0.00310039

>  <SCORE.RESTR.norm>
0.000119246

>  <SCORE.SYSTEM>
0

>  <SCORE.SYSTEM.CONST>
0

>  <SCORE.SYSTEM.DIHEDRAL>
0

>  <SCORE.SYSTEM.SOLV>
0

>  <SCORE.SYSTEM.norm>
0

>  <SCORE.heavy>
26

>  <SCORE.norm>
-0.556699

>  <RMSD>
5.136

$$$$
ligand
 OpenBabel11021811483D
libRbt.so/2013.1/901 2013/11/27
 26 28  0  0  0  0  0  0  0  0999 V2000
   49.3374   53.7485   25.5239 N   0  0  0  0  0  0  0  0  0  0  0  0
   47.9492   53.8688   25.9779 C   0  0  2  0  0  0  0  0  0  0  0  0
   46.9247   53.2242   25.0414 C   0  0  0  0  0  0  0  0  0  0  0  0
   47.2291   53.0822   23.8568 O   0  0  0  0  0  0  0  0  0  0  0  0
   47.4748   55.3050   26.2345 C   0  0  0  0  0  0  0  0  0  0  0  0
   48.0129   56.1114   27.4036 C   0  0  0  0  0  0  0  0  0  0  0  0
   47.1354   57.6917   27.3847 S   0  0  0  0  0  0  0  0  0  0  0  0
   47.7182   57.9206   29.0815 C   0  0  0  0  0  0  0  0  0  0  0  0
   46.9786   59.0109   29.8642 C   0  0  1  0  0  0  0  0  0  0  0  0
   45.6221   58.6662   30.1678 O   0  0  0  0  0  0  0  0  0  0  0  0
   47.6755   59.2953   31.1869 C   0  0  1  0  0  0  0  0  0  0  0  0
   48.6085   60.3455   31.0614 O   0  0  0  0  0  0  0  0  0  0  0  0
   46.5427   59.6105   32.1552 C   0  0  1  0  0  0  0  0  0  0  0  0
   46.2630   60.9953   32.1975 O   0  0  0  0  0  0  0  0  0  0  0  0
   45.3458   58.9158   31.5363 C   0  0  2  0  0  0  0  0  0  0  0  0
   45.8168   52.8295   25.4256 O   0  0  0  0  0  0  0  0  0  0  0  0
   47.0950   54.9306   34.4819 N   0  0  0  0  0  0  0  0  0  0  0  0
   47.8083   55.9848   33.9696 C   0  0  0  0  0  0  0  0  0  0  0  0
   47.1731   56.9334   33.1958 N   0  0  0  0  0  0  0  0  0  0  0  0
   45.8509   56.8662   32.9596 C   0  0  0  0  0  0  0  0  0  0  0  0
   45.1129   55.8114   33.4689 C   0  0  0  0  0  0  0  0  0  0  0  0
   45.7491   54.8482   34.2264 C   0  0  0  0  0  0  0  0  0  0  0  0
   45.0633   53.8414   34.7318 N   0  0  0  0  0  0  0  0  0  0  0  0
   43.8249   55.9731   33.0919 N   0  0  0  0  0  0  0  0  0  0  0  0
   43.7427   57.0957   32.3341 C   0  0  0  0  0  0  0  0  0  0  0  0
   44.9950   57.6630   32.2449 N   0  0  0  0  0  0  0  0  0  0  0  0
  2  1  1  6  0  0  0
  2  3  1  0  0  0  0
  2  5  1  0  0  0  0
  3  4  1  0  0  0  0
  3 16  1  0  0  0  0
  5  6  1  0  0  0  0
  6  7  1  0  0  0  0
  7  8  1  0  0  0  0
  9  8  1  1  0  0  0
  9 10  1  0  0  0  0
  9 11  1  0  0  0  0
 10 15  1  0  0  0  0
 11 12  1  6  0  0  0
 11 13  1  0  0  0  0
 13 14  1  6  0  0  0
 13 15  1  0  0  0  0
 15 26  1  1  0  0  0
 17 18  2  0  0  0  0
 17 22  1  0  0  0  0
 18 19  1  0  0  0  0
 19 20  2  0  0  0  0
 20 21  1  0  0  0  0
 20 26  1  0  0  0  0
 21 22  2  0  0  0  0
 21 24  1  0  0  0  0
 22 23  1  0  0  0  0
 24 25  2  0  0  0  0
 25 26  1  0  0  0  0
M  END
>  <CHROM.1>
-23.92201696,-69.55577332,-177.09320700,163.81038025,-164.03084115,69.00151748
95.06403815,46.62779833,56.63992422,30.09795539,0.96126355,-1.25601318,-2.55202526

>  <Name>
ligand

>  <RI>
0

>  <Rbt.Current_Directory>
/home/itssahil/PROJECTS/Mol_Feturizer/New_Systems/rnas/3GX3

>  <Rbt.Executable>
rbdock ($Id: //depot/dev/client3/rdock/2013.1/src/exe/rbdock.cxx#4 $)

>  <Rbt.Library>
libRbt.so (2013.1, Build901 2013/11/27)

>  <Rbt.Parameter_File>
/export/apps/rDock/src/rDock_2013.1_src/data/scripts/dock_solv.prm

>  <Rbt.Receptor>
prm/pocket_docking_7.prm

>  <SCORE>
-14.6076

>  <SCORE.INTER>
-11.298

>  <SCORE.INTER.CONST>
1

>  <SCORE.INTER.POLAR>
0

>  <SCORE.INTER.ROT>
7

>  <SCORE.INTER.SOLV>
12.2406

>  <SCORE.INTER.VDW>
-19.8789

>  <SCORE.INTER.norm>
-0.434538

>  <SCORE.INTRA>
-3.31345

>  <SCORE.INTRA.DIHEDRAL>
-1.40755

>  <SCORE.INTRA.DIHEDRAL.0>
5.78979

>  <SCORE.INTRA.POLAR>
0

>  <SCORE.INTRA.POLAR.0>
0

>  <SCORE.INTRA.REPUL>
0

>  <SCORE.INTRA.REPUL.0>
0

>  <SCORE.INTRA.SOLV>
-0.587684

>  <SCORE.INTRA.SOLV.lig_0>
-49.9151

>  <SCORE.INTRA.VDW>
-2.31583

>  <SCORE.INTRA.VDW.0>
-0.211125

>  <SCORE.INTRA.norm>
-0.12744

>  <SCORE.RESTR>
0.00380587

>  <SCORE.RESTR.CAVITY>
0.00380587

>  <SCORE.RESTR.norm>
0.00014638

>  <SCORE.SYSTEM>
0

>  <SCORE.SYSTEM.CONST>
0

>  <SCORE.SYSTEM.DIHEDRAL>
0

>  <SCORE.SYSTEM.SOLV>
0

>  <SCORE.SYSTEM.norm>
0

>  <SCORE.heavy>
26

>  <SCORE.norm>
-0.561832

>  <RMSD>
5.144

$$$$
ligand
 OpenBabel11021811483D
libRbt.so/2013.1/901 2013/11/27
 26 28  0  0  0  0  0  0  0  0999 V2000
   50.2762   53.9289   25.6283 N   0  0  0  0  0  0  0  0  0  0  0  0
   50.3401   55.1642   26.4142 C   0  0  2  0  0  0  0  0  0  0  0  0
   51.1629   55.0485   27.6993 C   0  0  0  0  0  0  0  0  0  0  0  0
   51.1436   53.9778   28.3070 O   0  0  0  0  0  0  0  0  0  0  0  0
   48.9786   55.7503   26.8096 C   0  0  0  0  0  0  0  0  0  0  0  0
   48.8821   57.0099   27.6527 C   0  0  0  0  0  0  0  0  0  0  0  0
   47.1533   57.5350   27.5957 S   0  0  0  0  0  0  0  0  0  0  0  0
   47.4737   58.4117   29.1450 C   0  0  0  0  0  0  0  0  0  0  0  0
   46.2130   58.8617   29.8911 C   0  0  1  0  0  0  0  0  0  0  0  0
   45.4384   57.7700   30.4002 O   0  0  0  0  0  0  0  0  0  0  0  0
   46.5719   59.7473   31.0755 C   0  0  1  0  0  0  0  0  0  0  0  0
   46.5647   61.1118   30.7185 O   0  0  0  0  0  0  0  0  0  0  0  0
   45.5388   59.3992   32.1393 C   0  0  1  0  0  0  0  0  0  0  0  0
   44.4085   60.2445   32.0650 O   0  0  0  0  0  0  0  0  0  0  0  0
   45.0961   58.0005   31.7571 C   0  0  2  0  0  0  0  0  0  0  0  0
   51.8534   55.9749   28.1419 O   0  0  0  0  0  0  0  0  0  0  0  0
   49.4330   56.2773   34.1737 N   0  0  0  0  0  0  0  0  0  0  0  0
   49.2925   57.3740   33.3613 C   0  0  0  0  0  0  0  0  0  0  0  0
   48.0668   57.6591   32.7969 N   0  0  0  0  0  0  0  0  0  0  0  0
   46.9883   56.8988   33.0561 C   0  0  0  0  0  0  0  0  0  0  0  0
   47.1086   55.7888   33.8747 C   0  0  0  0  0  0  0  0  0  0  0  0
   48.3388   55.4879   34.4247 C   0  0  0  0  0  0  0  0  0  0  0  0
   48.4735   54.4423   35.2172 N   0  0  0  0  0  0  0  0  0  0  0  0
   45.8957   55.2002   33.9733 N   0  0  0  0  0  0  0  0  0  0  0  0
   45.0199   55.9040   33.2123 C   0  0  0  0  0  0  0  0  0  0  0  0
   45.6851   56.9647   32.6373 N   0  0  0  0  0  0  0  0  0  0  0  0
  2  1  1  1  0  0  0
  2  3  1  0  0  0  0
  2  5  1  0  0  0  0
  3  4  1  0  0  0  0
  3 16  1  0  0  0  0
  5  6  1  0  0  0  0
  6  7  1  0  0  0  0
  7  8  1  0  0  0  0
  9  8  1  1  0  0  0
  9 10  1  0  0  0  0
  9 11  1  0  0  0  0
 10 15  1  0  0  0  0
 11 12  1  6  0  0  0
 11 13  1  0  0  0  0
 13 14  1  6  0  0  0
 13 15  1  0  0  0  0
 15 26  1  1  0  0  0
 17 18  2  0  0  0  0
 17 22  1  0  0  0  0
 18 19  1  0  0  0  0
 19 20  2  0  0  0  0
 20 21  1  0  0  0  0
 20 26  1  0  0  0  0
 21 22  2  0  0  0  0
 21 24  1  0  0  0  0
 22 23  1  0  0  0  0
 24 25  2  0  0  0  0
 25 26  1  0  0  0  0
M  END
>  <CHROM.1>
-34.53893610,178.54939392,168.59537179,157.12309423,-165.40862256,67.23669784
77.87320525,47.72671758,56.98327441,30.62286914,-0.73560435,-0.79013881,1.87836195

>  <Name>
ligand

>  <RI>
0

>  <Rbt.Current_Directory>
/home/itssahil/PROJECTS/Mol_Feturizer/New_Systems/rnas/3GX3

>  <Rbt.Executable>
rbdock ($Id: //depot/dev/client3/rdock/2013.1/src/exe/rbdock.cxx#4 $)

>  <Rbt.Library>
libRbt.so (2013.1, Build901 2013/11/27)

>  <Rbt.Parameter_File>
/export/apps/rDock/src/rDock_2013.1_src/data/scripts/dock_solv.prm

>  <Rbt.Receptor>
prm/pocket_docking_5.prm

>  <SCORE>
-18.0286

>  <SCORE.INTER>
-14.4861

>  <SCORE.INTER.CONST>
1

>  <SCORE.INTER.POLAR>
0

>  <SCORE.INTER.ROT>
7

>  <SCORE.INTER.SOLV>
14.2239

>  <SCORE.INTER.VDW>
-22.6654

>  <SCORE.INTER.norm>
-0.557156

>  <SCORE.INTRA>
-3.54256

>  <SCORE.INTRA.DIHEDRAL>
-1.13776

>  <SCORE.INTRA.DIHEDRAL.0>
5.78979

>  <SCORE.INTRA.POLAR>
0

>  <SCORE.INTRA.POLAR.0>
0

>  <SCORE.INTRA.REPUL>
0

>  <SCORE.INTRA.REPUL.0>
0

>  <SCORE.INTRA.SOLV>
-1.09882

>  <SCORE.INTRA.SOLV.lig_0>
-49.9151

>  <SCORE.INTRA.VDW>
-2.42427

>  <SCORE.INTRA.VDW.0>
-0.211125

>  <SCORE.INTRA.norm>
-0.136252

>  <SCORE.RESTR>
0

>  <SCORE.RESTR.CAVITY>
0

>  <SCORE.RESTR.norm>
0

>  <SCORE.SYSTEM>
0

>  <SCORE.SYSTEM.CONST>
0

>  <SCORE.SYSTEM.DIHEDRAL>
0

>  <SCORE.SYSTEM.SOLV>
0

>  <SCORE.SYSTEM.norm>
0

>  <SCORE.heavy>
26

>  <SCORE.norm>
-0.693409

>  <RMSD>
5.149

$$$$
ligand
 OpenBabel11021811483D
libRbt.so/2013.1/901 2013/11/27
 26 28  0  0  0  0  0  0  0  0999 V2000
   46.2498   58.7703   29.3193 N   0  0  0  0  0  0  0  0  0  0  0  0
   46.2057   58.8070   30.7837 C   0  0  2  0  0  0  0  0  0  0  0  0
   46.4136   60.1996   31.3831 C   0  0  0  0  0  0  0  0  0  0  0  0
   45.4807   60.7101   32.0037 O   0  0  0  0  0  0  0  0  0  0  0  0
   47.1972   57.8691   31.4843 C   0  0  0  0  0  0  0  0  0  0  0  0
   48.6954   58.1006   31.3909 C   0  0  0  0  0  0  0  0  0  0  0  0
   49.4844   56.5222   31.7829 S   0  0  0  0  0  0  0  0  0  0  0  0
   49.1880   56.9210   33.5220 C   0  0  0  0  0  0  0  0  0  0  0  0
   48.2617   55.9398   34.2485 C   0  0  1  0  0  0  0  0  0  0  0  0
   47.0473   55.6774   33.5362 O   0  0  0  0  0  0  0  0  0  0  0  0
   48.9529   54.6013   34.4641 C   0  0  1  0  0  0  0  0  0  0  0  0
   49.6010   54.5527   35.7159 O   0  0  0  0  0  0  0  0  0  0  0  0
   47.8407   53.5702   34.3230 C   0  0  1  0  0  0  0  0  0  0  0  0
   47.2442   53.2726   35.5693 O   0  0  0  0  0  0  0  0  0  0  0  0
   46.8060   54.2812   33.4732 C   0  0  2  0  0  0  0  0  0  0  0  0
   47.4776   60.8232   31.2832 O   0  0  0  0  0  0  0  0  0  0  0  0
   49.7210   52.5989   29.4371 N   0  0  0  0  0  0  0  0  0  0  0  0
   50.1415   52.9923   30.6825 C   0  0  0  0  0  0  0  0  0  0  0  0
   49.2212   53.4245   31.6142 N   0  0  0  0  0  0  0  0  0  0  0  0
   47.9051   53.4353   31.3383 C   0  0  0  0  0  0  0  0  0  0  0  0
   47.4600   53.0405   30.0881 C   0  0  0  0  0  0  0  0  0  0  0  0
   48.3803   52.6272   29.1454 C   0  0  0  0  0  0  0  0  0  0  0  0
   47.9776   52.2351   27.9522 N   0  0  0  0  0  0  0  0  0  0  0  0
   46.1125   53.1440   30.0647 N   0  0  0  0  0  0  0  0  0  0  0  0
   45.7029   53.6204   31.2675 C   0  0  0  0  0  0  0  0  0  0  0  0
   46.8071   53.8043   32.0707 N   0  0  0  0  0  0  0  0  0  0  0  0
  2  1  1  6  0  0  0
  2  3  1  0  0  0  0
  2  5  1  0  0  0  0
  3  4  1  0  0  0  0
  3 16  1  0  0  0  0
  5  6  1  0  0  0  0
  6  7  1  0  0  0  0
  7  8  1  0  0  0  0
  9  8  1  6  0  0  0
  9 10  1  0  0  0  0
  9 11  1  0  0  0  0
 10 15  1  0  0  0  0
 11 12  1  1  0  0  0
 11 13  1  0  0  0  0
 13 14  1  1  0  0  0
 13 15  1  0  0  0  0
 15 26  1  6  0  0  0
 17 18  2  0  0  0  0
 17 22  1  0  0  0  0
 18 19  1  0  0  0  0
 19 20  2  0  0  0  0
 20 21  1  0  0  0  0
 20 26  1  0  0  0  0
 21 22  2  0  0  0  0
 21 24  1  0  0  0  0
 22 23  1  0  0  0  0
 24 25  2  0  0  0  0
 25 26  1  0  0  0  0
M  END
>  <CHROM.1>
115.27615480,66.87572548,-159.32644742,-79.68670153,117.59354795,-49.56838307
85.39382285,47.83068197,55.57352729,31.90513119,2.52048340,-1.31506104,0.93552556

>  <Name>
ligand

>  <RI>
0

>  <Rbt.Current_Directory>
/home/itssahil/PROJECTS/Mol_Feturizer/New_Systems/rnas/3GX3

>  <Rbt.Executable>
rbdock ($Id: //depot/dev/client3/rdock/2013.1/src/exe/rbdock.cxx#4 $)

>  <Rbt.Library>
libRbt.so (2013.1, Build901 2013/11/27)

>  <Rbt.Parameter_File>
/export/apps/rDock/src/rDock_2013.1_src/data/scripts/dock_solv.prm

>  <Rbt.Receptor>
prm/pocket_docking_3.prm

>  <SCORE>
-15.4601

>  <SCORE.INTER>
-13.3316

>  <SCORE.INTER.CONST>
1

>  <SCORE.INTER.POLAR>
0

>  <SCORE.INTER.ROT>
7

>  <SCORE.INTER.SOLV>
13.1483

>  <SCORE.INTER.VDW>
-21.5372

>  <SCORE.INTER.norm>
-0.512754

>  <SCORE.INTRA>
-2.13845

>  <SCORE.INTRA.DIHEDRAL>
2.05345

>  <SCORE.INTRA.DIHEDRAL.0>
5.78979

>  <SCORE.INTRA.POLAR>
0

>  <SCORE.INTRA.POLAR.0>
0

>  <SCORE.INTRA.REPUL>
0

>  <SCORE.INTRA.REPUL.0>
0

>  <SCORE.INTRA.SOLV>
-0.0552353

>  <SCORE.INTRA.SOLV.lig_0>
-49.9151

>  <SCORE.INTRA.VDW>
-3.13756

>  <SCORE.INTRA.VDW.0>
-0.211125

>  <SCORE.INTRA.norm>
-0.0822483

>  <SCORE.RESTR>
0.00999733

>  <SCORE.RESTR.CAVITY>
0.00999733

>  <SCORE.RESTR.norm>
0.000384513

>  <SCORE.SYSTEM>
0

>  <SCORE.SYSTEM.CONST>
0

>  <SCORE.SYSTEM.DIHEDRAL>
0

>  <SCORE.SYSTEM.SOLV>
0

>  <SCORE.SYSTEM.norm>
0

>  <SCORE.heavy>
26

>  <SCORE.norm>
-0.594617

>  <RMSD>
5.157

$$$$
ligand
 OpenBabel11021811483D
libRbt.so/2013.1/901 2013/11/27
 26 28  0  0  0  0  0  0  0  0999 V2000
   51.3196   54.2813   26.4704 N   0  0  0  0  0  0  0  0  0  0  0  0
   51.2086   54.5851   27.8998 C   0  0  2  0  0  0  0  0  0  0  0  0
   50.5765   53.4669   28.7317 C   0  0  0  0  0  0  0  0  0  0  0  0
   49.5899   52.8894   28.2745 O   0  0  0  0  0  0  0  0  0  0  0  0
   50.4417   55.8722   28.2298 C   0  0  0  0  0  0  0  0  0  0  0  0
   49.0676   56.1391   27.6405 C   0  0  0  0  0  0  0  0  0  0  0  0
   48.5482   57.7559   28.2603 S   0  0  0  0  0  0  0  0  0  0  0  0
   47.3722   56.8646   29.3064 C   0  0  0  0  0  0  0  0  0  0  0  0
   46.3953   57.7644   30.0709 C   0  0  1  0  0  0  0  0  0  0  0  0
   45.3709   57.0331   30.7540 O   0  0  0  0  0  0  0  0  0  0  0  0
   47.1274   58.5930   31.1166 C   0  0  1  0  0  0  0  0  0  0  0  0
   47.5139   59.8475   30.6006 O   0  0  0  0  0  0  0  0  0  0  0  0
   46.1461   58.6971   32.2768 C   0  0  1  0  0  0  0  0  0  0  0  0
   45.3364   59.8509   32.1732 O   0  0  0  0  0  0  0  0  0  0  0  0
   45.2520   57.4867   32.0925 C   0  0  2  0  0  0  0  0  0  0  0  0
   51.0216   53.1118   29.8303 O   0  0  0  0  0  0  0  0  0  0  0  0
   49.0000   55.0977   34.8966 N   0  0  0  0  0  0  0  0  0  0  0  0
   49.1289   56.1601   34.0380 C   0  0  0  0  0  0  0  0  0  0  0  0
   48.0228   56.6431   33.3707 N   0  0  0  0  0  0  0  0  0  0  0  0
   46.8033   56.1132   33.5719 C   0  0  0  0  0  0  0  0  0  0  0  0
   46.6516   55.0418   34.4355 C   0  0  0  0  0  0  0  0  0  0  0  0
   47.7601   54.5419   35.0893 C   0  0  0  0  0  0  0  0  0  0  0  0
   47.6368   53.5297   35.9259 N   0  0  0  0  0  0  0  0  0  0  0  0
   45.3446   54.6979   34.4602 N   0  0  0  0  0  0  0  0  0  0  0  0
   44.6748   55.5159   33.6096 C   0  0  0  0  0  0  0  0  0  0  0  0
   45.5691   56.4029   33.0513 N   0  0  0  0  0  0  0  0  0  0  0  0
  2  1  1  6  0  0  0
  2  3  1  0  0  0  0
  2  5  1  0  0  0  0
  3  4  1  0  0  0  0
  3 16  1  0  0  0  0
  5  6  1  0  0  0  0
  6  7  1  0  0  0  0
  7  8  1  0  0  0  0
  9  8  1  1  0  0  0
  9 10  1  0  0  0  0
  9 11  1  0  0  0  0
 10 15  1  0  0  0  0
 11 12  1  6  0  0  0
 11 13  1  0  0  0  0
 13 14  1  6  0  0  0
 13 15  1  0  0  0  0
 15 26  1  1  0  0  0
 17 18  2  0  0  0  0
 17 22  1  0  0  0  0
 18 19  1  0  0  0  0
 19 20  2  0  0  0  0
 20 21  1  0  0  0  0
 20 26  1  0  0  0  0
 21 22  2  0  0  0  0
 21 24  1  0  0  0  0
 22 23  1  0  0  0  0
 24 25  2  0  0  0  0
 25 26  1  0  0  0  0
M  END
>  <CHROM.1>
-42.57992984,50.77693363,-179.09390664,-107.82699409,-173.05036267,172.48438354
90.19357282,47.85221603,56.18170968,31.16212597,-0.60198477,-0.85489450,2.17637116

>  <Name>
ligand

>  <RI>
0

>  <Rbt.Current_Directory>
/home/itssahil/PROJECTS/Mol_Feturizer/New_Systems/rnas/3GX3

>  <Rbt.Executable>
rbdock ($Id: //depot/dev/client3/rdock/2013.1/src/exe/rbdock.cxx#4 $)

>  <Rbt.Library>
libRbt.so (2013.1, Build901 2013/11/27)

>  <Rbt.Parameter_File>
/export/apps/rDock/src/rDock_2013.1_src/data/scripts/dock_solv.prm

>  <Rbt.Receptor>
prm/pocket_docking_6.prm

>  <SCORE>
-15.1887

>  <SCORE.INTER>
-12.3929

>  <SCORE.INTER.CONST>
1

>  <SCORE.INTER.POLAR>
0

>  <SCORE.INTER.ROT>
7

>  <SCORE.INTER.SOLV>
12.8763

>  <SCORE.INTER.VDW>
-20.8207

>  <SCORE.INTER.norm>
-0.476648

>  <SCORE.INTRA>
-2.79582

>  <SCORE.INTRA.DIHEDRAL>
-0.108554

>  <SCORE.INTRA.DIHEDRAL.0>
5.78979

>  <SCORE.INTRA.POLAR>
0

>  <SCORE.INTRA.POLAR.0>
0

>  <SCORE.INTRA.REPUL>
0

>  <SCORE.INTRA.REPUL.0>
0

>  <SCORE.INTRA.SOLV>
-0.287893

>  <SCORE.INTRA.SOLV.lig_0>
-49.9151

>  <SCORE.INTRA.VDW>
-2.5976

>  <SCORE.INTRA.VDW.0>
-0.211125

>  <SCORE.INTRA.norm>
-0.107532

>  <SCORE.RESTR>
0

>  <SCORE.RESTR.CAVITY>
0

>  <SCORE.RESTR.norm>
0

>  <SCORE.SYSTEM>
0

>  <SCORE.SYSTEM.CONST>
0

>  <SCORE.SYSTEM.DIHEDRAL>
0

>  <SCORE.SYSTEM.SOLV>
0

>  <SCORE.SYSTEM.norm>
0

>  <SCORE.heavy>
26

>  <SCORE.norm>
-0.58418

>  <RMSD>
5.169

$$$$
ligand
 OpenBabel11021811483D
libRbt.so/2013.1/901 2013/11/27
 26 28  0  0  0  0  0  0  0  0999 V2000
   47.7345   53.8728   25.0138 N   0  0  0  0  0  0  0  0  0  0  0  0
   47.7912   55.2570   24.5356 C   0  0  2  0  0  0  0  0  0  0  0  0
   48.7807   55.4854   23.3908 C   0  0  0  0  0  0  0  0  0  0  0  0
   48.3945   56.1161   22.4063 O   0  0  0  0  0  0  0  0  0  0  0  0
   48.1102   56.3011   25.6135 C   0  0  0  0  0  0  0  0  0  0  0  0
   47.1321   56.5905   26.7387 C   0  0  0  0  0  0  0  0  0  0  0  0
   47.8483   57.9376   27.7082 S   0  0  0  0  0  0  0  0  0  0  0  0
   46.3590   57.8581   28.7315 C   0  0  0  0  0  0  0  0  0  0  0  0
   46.3684   58.8016   29.9389 C   0  0  1  0  0  0  0  0  0  0  0  0
   45.1415   58.7856   30.6774 O   0  0  0  0  0  0  0  0  0  0  0  0
   47.4801   58.4287   30.9090 C   0  0  1  0  0  0  0  0  0  0  0  0
   48.6637   59.1453   30.6352 O   0  0  0  0  0  0  0  0  0  0  0  0
   46.9016   58.7277   32.2859 C   0  0  1  0  0  0  0  0  0  0  0  0
   47.2062   60.0426   32.7053 O   0  0  0  0  0  0  0  0  0  0  0  0
   45.4040   58.6482   32.0644 C   0  0  2  0  0  0  0  0  0  0  0  0
   49.9486   55.0780   23.4195 O   0  0  0  0  0  0  0  0  0  0  0  0
   41.8418   54.8493   31.3594 N   0  0  0  0  0  0  0  0  0  0  0  0
   42.0766   55.9496   30.5741 C   0  0  0  0  0  0  0  0  0  0  0  0
   43.0520   56.8558   30.9339 N   0  0  0  0  0  0  0  0  0  0  0  0
   43.8090   56.6642   32.0288 C   0  0  0  0  0  0  0  0  0  0  0  0
   43.5892   55.5594   32.8337 C   0  0  0  0  0  0  0  0  0  0  0  0
   42.5993   54.6610   32.4882 C   0  0  0  0  0  0  0  0  0  0  0  0
   42.3809   53.5951   33.2337 N   0  0  0  0  0  0  0  0  0  0  0  0
   44.4693   55.5988   33.8588 N   0  0  0  0  0  0  0  0  0  0  0  0
   45.2219   56.7204   33.7285 C   0  0  0  0  0  0  0  0  0  0  0  0
   44.8238   57.3920   32.5934 N   0  0  0  0  0  0  0  0  0  0  0  0
  2  1  1  1  0  0  0
  2  3  1  0  0  0  0
  2  5  1  0  0  0  0
  3  4  1  0  0  0  0
  3 16  1  0  0  0  0
  5  6  1  0  0  0  0
  6  7  1  0  0  0  0
  7  8  1  0  0  0  0
  9  8  1  6  0  0  0
  9 10  1  0  0  0  0
  9 11  1  0  0  0  0
 10 15  1  0  0  0  0
 11 12  1  6  0  0  0
 11 13  1  0  0  0  0
 13 14  1  6  0  0  0
 13 15  1  0  0  0  0
 15 26  1  6  0  0  0
 17 18  2  0  0  0  0
 17 22  1  0  0  0  0
 18 19  1  0  0  0  0
 19 20  2  0  0  0  0
 20 21  1  0  0  0  0
 20 26  1  0  0  0  0
 21 22  2  0  0  0  0
 21 24  1  0  0  0  0
 22 23  1  0  0  0  0
 24 25  2  0  0  0  0
 25 26  1  0  0  0  0
M  END
>  <CHROM.1>
132.09143331,-66.92948770,-176.57688405,178.31618423,176.04887528,175.92252113
-21.02612771,46.07398926,56.82728037,29.45124521,0.87606032,-0.72318890,-2.15423489

>  <Name>
ligand

>  <RI>
0

>  <Rbt.Current_Directory>
/home/itssahil/PROJECTS/Mol_Feturizer/New_Systems/rnas/3GX3

>  <Rbt.Executable>
rbdock ($Id: //depot/dev/client3/rdock/2013.1/src/exe/rbdock.cxx#4 $)

>  <Rbt.Library>
libRbt.so (2013.1, Build901 2013/11/27)

>  <Rbt.Parameter_File>
/export/apps/rDock/src/rDock_2013.1_src/data/scripts/dock_solv.prm

>  <Rbt.Receptor>
prm/pocket_docking_6.prm

>  <SCORE>
-19.2783

>  <SCORE.INTER>
-15.5333

>  <SCORE.INTER.CONST>
1

>  <SCORE.INTER.POLAR>
0

>  <SCORE.INTER.ROT>
7

>  <SCORE.INTER.SOLV>
11.0313

>  <SCORE.INTER.VDW>
-22.2993

>  <SCORE.INTER.norm>
-0.597433

>  <SCORE.INTRA>
-3.74582

>  <SCORE.INTRA.DIHEDRAL>
-2.60631

>  <SCORE.INTRA.DIHEDRAL.0>
5.78979

>  <SCORE.INTRA.POLAR>
0

>  <SCORE.INTRA.POLAR.0>
0

>  <SCORE.INTRA.REPUL>
0

>  <SCORE.INTRA.REPUL.0>
0

>  <SCORE.INTRA.SOLV>
-0.400374

>  <SCORE.INTRA.SOLV.lig_0>
-49.9151

>  <SCORE.INTRA.VDW>
-2.24248

>  <SCORE.INTRA.VDW.0>
-0.211125

>  <SCORE.INTRA.norm>
-0.14407

>  <SCORE.RESTR>
0.000727074

>  <SCORE.RESTR.CAVITY>
0.000727074

>  <SCORE.RESTR.norm>
2.79644e-05

>  <SCORE.SYSTEM>
0

>  <SCORE.SYSTEM.CONST>
0

>  <SCORE.SYSTEM.DIHEDRAL>
0

>  <SCORE.SYSTEM.SOLV>
0

>  <SCORE.SYSTEM.norm>
0

>  <SCORE.heavy>
26

>  <SCORE.norm>
-0.741475

>  <RMSD>
5.175

$$$$
ligand
 OpenBabel11021811483D
libRbt.so/2013.1/901 2013/11/27
 26 28  0  0  0  0  0  0  0  0999 V2000
   50.4125   53.7568   25.7953 N   0  0  0  0  0  0  0  0  0  0  0  0
   50.4771   55.0573   26.4677 C   0  0  2  0  0  0  0  0  0  0  0  0
   51.3719   55.0782   27.7090 C   0  0  0  0  0  0  0  0  0  0  0  0
   51.4338   54.0594   28.3977 O   0  0  0  0  0  0  0  0  0  0  0  0
   49.1200   55.6360   26.8885 C   0  0  0  0  0  0  0  0  0  0  0  0
   49.0316   56.9124   27.7068 C   0  0  0  0  0  0  0  0  0  0  0  0
   47.2929   57.4071   27.7005 S   0  0  0  0  0  0  0  0  0  0  0  0
   47.6451   58.2969   29.2354 C   0  0  0  0  0  0  0  0  0  0  0  0
   46.4051   58.8471   29.9480 C   0  0  1  0  0  0  0  0  0  0  0  0
   45.5148   57.8222   30.4040 O   0  0  0  0  0  0  0  0  0  0  0  0
   46.8007   59.6708   31.1649 C   0  0  1  0  0  0  0  0  0  0  0  0
   46.9328   61.0371   30.8405 O   0  0  0  0  0  0  0  0  0  0  0  0
   45.7016   59.3989   32.1838 C   0  0  1  0  0  0  0  0  0  0  0  0
   44.6578   60.3472   32.0907 O   0  0  0  0  0  0  0  0  0  0  0  0
   45.1458   58.0557   31.7533 C   0  0  2  0  0  0  0  0  0  0  0  0
   52.0424   56.0645   28.0386 O   0  0  0  0  0  0  0  0  0  0  0  0
   49.1521   56.0214   34.4789 N   0  0  0  0  0  0  0  0  0  0  0  0
   49.1357   57.1629   33.7178 C   0  0  0  0  0  0  0  0  0  0  0  0
   47.9838   57.5303   33.0543 N   0  0  0  0  0  0  0  0  0  0  0  0
   46.8559   56.8067   33.1666 C   0  0  0  0  0  0  0  0  0  0  0  0
   46.8511   55.6526   33.9312 C   0  0  0  0  0  0  0  0  0  0  0  0
   48.0083   55.2699   34.5799 C   0  0  0  0  0  0  0  0  0  0  0  0
   48.0230   54.1807   35.3236 N   0  0  0  0  0  0  0  0  0  0  0  0
   45.6122   55.1144   33.8802 N   0  0  0  0  0  0  0  0  0  0  0  0
   44.8440   55.8939   33.0779 C   0  0  0  0  0  0  0  0  0  0  0  0
   45.6039   56.9516   32.6284 N   0  0  0  0  0  0  0  0  0  0  0  0
  2  1  1  1  0  0  0
  2  3  1  0  0  0  0
  2  5  1  0  0  0  0
  3  4  1  0  0  0  0
  3 16  1  0  0  0  0
  5  6  1  0  0  0  0
  6  7  1  0  0  0  0
  7  8  1  0  0  0  0
  9  8  1  1  0  0  0
  9 10  1  0  0  0  0
  9 11  1  0  0  0  0
 10 15  1  0  0  0  0
 11 12  1  6  0  0  0
 11 13  1  0  0  0  0
 13 14  1  6  0  0  0
 13 15  1  0  0  0  0
 15 26  1  1  0  0  0
 17 18  2  0  0  0  0
 17 22  1  0  0  0  0
 18 19  1  0  0  0  0
 19 20  2  0  0  0  0
 20 21  1  0  0  0  0
 20 26  1  0  0  0  0
 21 22  2  0  0  0  0
 21 24  1  0  0  0  0
 22 23  1  0  0  0  0
 24 25  2  0  0  0  0
 25 26  1  0  0  0  0
M  END
>  <CHROM.1>
-33.72439994,174.34509968,169.13448961,156.07974821,-171.05977932,64.06295024
82.78903254,47.76671341,56.91124290,30.69953556,-0.67557860,-0.81364108,1.97845230

>  <Name>
ligand

>  <RI>
0

>  <Rbt.Current_Directory>
/home/itssahil/PROJECTS/Mol_Feturizer/New_Systems/rnas/3GX3

>  <Rbt.Executable>
rbdock ($Id: //depot/dev/client3/rdock/2013.1/src/exe/rbdock.cxx#4 $)

>  <Rbt.Library>
libRbt.so (2013.1, Build901 2013/11/27)

>  <Rbt.Parameter_File>
/export/apps/rDock/src/rDock_2013.1_src/data/scripts/dock_solv.prm

>  <Rbt.Receptor>
prm/pocket_docking_6.prm

>  <SCORE>
-18.6375

>  <SCORE.INTER>
-15.1607

>  <SCORE.INTER.CONST>
1

>  <SCORE.INTER.POLAR>
0

>  <SCORE.INTER.ROT>
7

>  <SCORE.INTER.SOLV>
12.9253

>  <SCORE.INTER.VDW>
-22.6822

>  <SCORE.INTER.norm>
-0.583104

>  <SCORE.INTRA>
-3.48048

>  <SCORE.INTRA.DIHEDRAL>
-1.31605

>  <SCORE.INTRA.DIHEDRAL.0>
5.78979

>  <SCORE.INTRA.POLAR>
0

>  <SCORE.INTRA.POLAR.0>
0

>  <SCORE.INTRA.REPUL>
0

>  <SCORE.INTRA.REPUL.0>
0

>  <SCORE.INTRA.SOLV>
-1.09805

>  <SCORE.INTRA.SOLV.lig_0>
-49.9151

>  <SCORE.INTRA.VDW>
-2.27343

>  <SCORE.INTRA.VDW.0>
-0.211125

>  <SCORE.INTRA.norm>
-0.133865

>  <SCORE.RESTR>
0.0036715

>  <SCORE.RESTR.CAVITY>
0.0036715

>  <SCORE.RESTR.norm>
0.000141211

>  <SCORE.SYSTEM>
0

>  <SCORE.SYSTEM.CONST>
0

>  <SCORE.SYSTEM.DIHEDRAL>
0

>  <SCORE.SYSTEM.SOLV>
0

>  <SCORE.SYSTEM.norm>
0

>  <SCORE.heavy>
26

>  <SCORE.norm>
-0.716827

>  <RMSD>
5.178

$$$$
ligand
 OpenBabel11021811483D
libRbt.so/2013.1/901 2013/11/27
 26 28  0  0  0  0  0  0  0  0999 V2000
   49.6269   54.3461   26.6825 N   0  0  0  0  0  0  0  0  0  0  0  0
   50.2375   55.4264   27.4623 C   0  0  2  0  0  0  0  0  0  0  0  0
   51.7115   55.1978   27.8041 C   0  0  0  0  0  0  0  0  0  0  0  0
   52.0354   54.1097   28.2806 O   0  0  0  0  0  0  0  0  0  0  0  0
   49.5223   55.7579   28.7784 C   0  0  0  0  0  0  0  0  0  0  0  0
   48.1275   56.3588   28.7831 C   0  0  0  0  0  0  0  0  0  0  0  0
   48.2725   57.9994   28.0381 S   0  0  0  0  0  0  0  0  0  0  0  0
   48.1190   58.6631   29.7136 C   0  0  0  0  0  0  0  0  0  0  0  0
   46.6861   59.0155   30.1271 C   0  0  1  0  0  0  0  0  0  0  0  0
   45.8704   57.8644   30.3731 O   0  0  0  0  0  0  0  0  0  0  0  0
   46.6794   59.8497   31.3999 C   0  0  1  0  0  0  0  0  0  0  0  0
   46.6863   61.2301   31.1103 O   0  0  0  0  0  0  0  0  0  0  0  0
   45.4302   59.3985   32.1455 C   0  0  1  0  0  0  0  0  0  0  0  0
   44.3104   60.1958   31.8173 O   0  0  0  0  0  0  0  0  0  0  0  0
   45.1801   58.0047   31.6041 C   0  0  2  0  0  0  0  0  0  0  0  0
   52.5873   56.0499   27.6093 O   0  0  0  0  0  0  0  0  0  0  0  0
   49.1353   55.8291   34.2949 N   0  0  0  0  0  0  0  0  0  0  0  0
   49.1829   56.8854   33.4205 C   0  0  0  0  0  0  0  0  0  0  0  0
   48.0319   57.3076   32.7889 N   0  0  0  0  0  0  0  0  0  0  0  0
   46.8468   56.7241   33.0406 C   0  0  0  0  0  0  0  0  0  0  0  0
   46.7770   55.6578   33.9210 C   0  0  0  0  0  0  0  0  0  0  0  0
   47.9308   55.2185   34.5392 C   0  0  0  0  0  0  0  0  0  0  0  0
   47.8855   54.2125   35.3908 N   0  0  0  0  0  0  0  0  0  0  0  0
   45.4894   55.2536   33.9974 N   0  0  0  0  0  0  0  0  0  0  0  0
   44.7515   56.0286   33.1629 C   0  0  0  0  0  0  0  0  0  0  0  0
   45.5823   56.9491   32.5624 N   0  0  0  0  0  0  0  0  0  0  0  0
  2  1  1  1  0  0  0
  2  3  1  0  0  0  0
  2  5  1  0  0  0  0
  3  4  1  0  0  0  0
  3 16  1  0  0  0  0
  5  6  1  0  0  0  0
  6  7  1  0  0  0  0
  7  8  1  0  0  0  0
  9  8  1  1  0  0  0
  9 10  1  0  0  0  0
  9 11  1  0  0  0  0
 10 15  1  0  0  0  0
 11 12  1  6  0  0  0
 11 13  1  0  0  0  0
 13 14  1  6  0  0  0
 13 15  1  0  0  0  0
 15 26  1  1  0  0  0
 17 18  2  0  0  0  0
 17 22  1  0  0  0  0
 18 19  1  0  0  0  0
 19 20  2  0  0  0  0
 20 21  1  0  0  0  0
 20 26  1  0  0  0  0
 21 22  2  0  0  0  0
 21 24  1  0  0  0  0
 22 23  1  0  0  0  0
 24 25  2  0  0  0  0
 25 26  1  0  0  0  0
M  END
>  <CHROM.1>
-48.82673901,-66.71935897,-65.42051812,-104.62896903,-92.86596453,72.57683595
60.02570396,47.84266961,56.99548496,30.88603558,-0.45712326,-0.76849643,2.15606444

>  <Name>
ligand

>  <RI>
0

>  <Rbt.Current_Directory>
/home/itssahil/PROJECTS/Mol_Feturizer/New_Systems/rnas/3GX3

>  <Rbt.Executable>
rbdock ($Id: //depot/dev/client3/rdock/2013.1/src/exe/rbdock.cxx#4 $)

>  <Rbt.Library>
libRbt.so (2013.1, Build901 2013/11/27)

>  <Rbt.Parameter_File>
/export/apps/rDock/src/rDock_2013.1_src/data/scripts/dock_solv.prm

>  <Rbt.Receptor>
prm/pocket_docking_4.prm

>  <SCORE>
-18.5091

>  <SCORE.INTER>
-15.7764

>  <SCORE.INTER.CONST>
1

>  <SCORE.INTER.POLAR>
0

>  <SCORE.INTER.ROT>
7

>  <SCORE.INTER.SOLV>
13.2557

>  <SCORE.INTER.VDW>
-23.2028

>  <SCORE.INTER.norm>
-0.606786

>  <SCORE.INTRA>
-2.73262

>  <SCORE.INTRA.DIHEDRAL>
1.30184

>  <SCORE.INTRA.DIHEDRAL.0>
5.78979

>  <SCORE.INTRA.POLAR>
0

>  <SCORE.INTRA.POLAR.0>
0

>  <SCORE.INTRA.REPUL>
0

>  <SCORE.INTRA.REPUL.0>
0

>  <SCORE.INTRA.SOLV>
0.00163372

>  <SCORE.INTRA.SOLV.lig_0>
-49.9151

>  <SCORE.INTRA.VDW>
-3.38435

>  <SCORE.INTRA.VDW.0>
-0.211125

>  <SCORE.INTRA.norm>
-0.105101

>  <SCORE.RESTR>
0

>  <SCORE.RESTR.CAVITY>
0

>  <SCORE.RESTR.norm>
0

>  <SCORE.SYSTEM>
0

>  <SCORE.SYSTEM.CONST>
0

>  <SCORE.SYSTEM.DIHEDRAL>
0

>  <SCORE.SYSTEM.SOLV>
0

>  <SCORE.SYSTEM.norm>
0

>  <SCORE.heavy>
26

>  <SCORE.norm>
-0.711887

>  <RMSD>
5.180

$$$$
ligand
 OpenBabel11021811483D
libRbt.so/2013.1/901 2013/11/27
 26 28  0  0  0  0  0  0  0  0999 V2000
   50.6945   52.7574   30.5908 N   0  0  0  0  0  0  0  0  0  0  0  0
   49.5023   53.1112   29.8154 C   0  0  2  0  0  0  0  0  0  0  0  0
   48.9890   51.9912   28.9077 C   0  0  0  0  0  0  0  0  0  0  0  0
   47.7867   51.7269   28.9342 O   0  0  0  0  0  0  0  0  0  0  0  0
   49.6484   54.3618   28.9389 C   0  0  0  0  0  0  0  0  0  0  0  0
   50.0274   55.7027   29.5430 C   0  0  0  0  0  0  0  0  0  0  0  0
   48.6970   56.1467   30.6834 S   0  0  0  0  0  0  0  0  0  0  0  0
   48.3394   57.5263   29.5698 C   0  0  0  0  0  0  0  0  0  0  0  0
   47.4296   58.6046   30.1682 C   0  0  1  0  0  0  0  0  0  0  0  0
   46.0862   58.1556   30.3802 O   0  0  0  0  0  0  0  0  0  0  0  0
   47.9617   59.0767   31.5134 C   0  0  1  0  0  0  0  0  0  0  0  0
   48.8039   60.1988   31.3684 O   0  0  0  0  0  0  0  0  0  0  0  0
   46.7138   59.3648   32.3379 C   0  0  1  0  0  0  0  0  0  0  0  0
   46.3072   60.7129   32.2150 O   0  0  0  0  0  0  0  0  0  0  0  0
   45.6526   58.5006   31.6857 C   0  0  2  0  0  0  0  0  0  0  0  0
   49.7245   51.3547   28.1429 O   0  0  0  0  0  0  0  0  0  0  0  0
   47.5639   54.7439   34.8246 N   0  0  0  0  0  0  0  0  0  0  0  0
   48.2411   55.7764   34.2262 C   0  0  0  0  0  0  0  0  0  0  0  0
   47.5655   56.6619   33.4129 N   0  0  0  0  0  0  0  0  0  0  0  0
   46.2388   56.5555   33.2202 C   0  0  0  0  0  0  0  0  0  0  0  0
   45.5368   55.5218   33.8164 C   0  0  0  0  0  0  0  0  0  0  0  0
   46.2133   54.6207   34.6143 C   0  0  0  0  0  0  0  0  0  0  0  0
   45.5624   53.6356   35.2020 N   0  0  0  0  0  0  0  0  0  0  0  0
   44.2357   55.6354   33.4677 N   0  0  0  0  0  0  0  0  0  0  0  0
   44.1097   56.7058   32.6433 C   0  0  0  0  0  0  0  0  0  0  0  0
   45.3473   57.2892   32.4819 N   0  0  0  0  0  0  0  0  0  0  0  0
  2  1  1  6  0  0  0
  2  3  1  0  0  0  0
  2  5  1  0  0  0  0
  3  4  1  0  0  0  0
  3 16  1  0  0  0  0
  5  6  1  0  0  0  0
  6  7  1  0  0  0  0
  7  8  1  0  0  0  0
  9  8  1  1  0  0  0
  9 10  1  0  0  0  0
  9 11  1  0  0  0  0
 10 15  1  0  0  0  0
 11 12  1  6  0  0  0
 11 13  1  0  0  0  0
 13 14  1  6  0  0  0
 13 15  1  0  0  0  0
 15 26  1  1  0  0  0
 17 18  2  0  0  0  0
 17 22  1  0  0  0  0
 18 19  1  0  0  0  0
 19 20  2  0  0  0  0
 20 21  1  0  0  0  0
 20 26  1  0  0  0  0
 21 22  2  0  0  0  0
 21 24  1  0  0  0  0
 22 23  1  0  0  0  0
 24 25  2  0  0  0  0
 25 26  1  0  0  0  0
M  END
>  <CHROM.1>
131.95870457,-57.43983695,-62.66782531,-114.37248003,-165.25737639,-68.41373187
86.48404690,47.51964476,56.03772568,31.52472031,0.76380558,-0.92237245,2.97549533

>  <Name>
ligand

>  <RI>
0

>  <Rbt.Current_Directory>
/home/itssahil/PROJECTS/Mol_Feturizer/New_Systems/rnas/3GX3

>  <Rbt.Executable>
rbdock ($Id: //depot/dev/client3/rdock/2013.1/src/exe/rbdock.cxx#4 $)

>  <Rbt.Library>
libRbt.so (2013.1, Build901 2013/11/27)

>  <Rbt.Parameter_File>
/export/apps/rDock/src/rDock_2013.1_src/data/scripts/dock_solv.prm

>  <Rbt.Receptor>
prm/pocket_docking_4.prm

>  <SCORE>
-13.325

>  <SCORE.INTER>
-10.1501

>  <SCORE.INTER.CONST>
1

>  <SCORE.INTER.POLAR>
0

>  <SCORE.INTER.ROT>
7

>  <SCORE.INTER.SOLV>
18.2212

>  <SCORE.INTER.VDW>
-21.1072

>  <SCORE.INTER.norm>
-0.390389

>  <SCORE.INTRA>
-3.1754

>  <SCORE.INTRA.DIHEDRAL>
0.0402047

>  <SCORE.INTRA.DIHEDRAL.0>
5.78979

>  <SCORE.INTRA.POLAR>
0

>  <SCORE.INTRA.POLAR.0>
0

>  <SCORE.INTRA.REPUL>
0

>  <SCORE.INTRA.REPUL.0>
0

>  <SCORE.INTRA.SOLV>
0.424544

>  <SCORE.INTRA.SOLV.lig_0>
-49.9151

>  <SCORE.INTRA.VDW>
-3.40777

>  <SCORE.INTRA.VDW.0>
-0.211125

>  <SCORE.INTRA.norm>
-0.122131

>  <SCORE.RESTR>
0.000500226

>  <SCORE.RESTR.CAVITY>
0.000500226

>  <SCORE.RESTR.norm>
1.92395e-05

>  <SCORE.SYSTEM>
0

>  <SCORE.SYSTEM.CONST>
0

>  <SCORE.SYSTEM.DIHEDRAL>
0

>  <SCORE.SYSTEM.SOLV>
0

>  <SCORE.SYSTEM.norm>
0

>  <SCORE.heavy>
26

>  <SCORE.norm>
-0.512501

>  <RMSD>
5.183

$$$$
ligand
 OpenBabel11021811483D
libRbt.so/2013.1/901 2013/11/27
 26 28  0  0  0  0  0  0  0  0999 V2000
   50.3551   53.8176   25.7781 N   0  0  0  0  0  0  0  0  0  0  0  0
   50.4780   55.0860   26.5020 C   0  0  2  0  0  0  0  0  0  0  0  0
   51.3688   55.0158   27.7443 C   0  0  0  0  0  0  0  0  0  0  0  0
   52.0592   55.9972   28.0204 O   0  0  0  0  0  0  0  0  0  0  0  0
   49.1479   55.7101   26.9436 C   0  0  0  0  0  0  0  0  0  0  0  0
   49.1156   56.9824   27.7724 C   0  0  0  0  0  0  0  0  0  0  0  0
   47.4287   57.6229   27.6646 S   0  0  0  0  0  0  0  0  0  0  0  0
   47.7277   58.3971   29.2717 C   0  0  0  0  0  0  0  0  0  0  0  0
   46.4675   58.9257   29.9649 C   0  0  1  0  0  0  0  0  0  0  0  0
   45.5751   57.8865   30.3830 O   0  0  0  0  0  0  0  0  0  0  0  0
   46.8288   59.7315   31.2044 C   0  0  1  0  0  0  0  0  0  0  0  0
   46.9575   61.1040   30.9062 O   0  0  0  0  0  0  0  0  0  0  0  0
   45.7090   59.4339   32.1931 C   0  0  1  0  0  0  0  0  0  0  0  0
   44.6601   60.3758   32.0922 O   0  0  0  0  0  0  0  0  0  0  0  0
   45.1737   58.0941   31.7273 C   0  0  2  0  0  0  0  0  0  0  0  0
   51.4126   54.0262   28.4857 O   0  0  0  0  0  0  0  0  0  0  0  0
   49.1430   56.0264   34.4817 N   0  0  0  0  0  0  0  0  0  0  0  0
   49.1362   57.1780   33.7359 C   0  0  0  0  0  0  0  0  0  0  0  0
   47.9936   57.5535   33.0611 N   0  0  0  0  0  0  0  0  0  0  0  0
   46.8648   56.8275   33.1477 C   0  0  0  0  0  0  0  0  0  0  0  0
   46.8503   55.6631   33.8965 C   0  0  0  0  0  0  0  0  0  0  0  0
   47.9986   55.2726   34.5563 C   0  0  0  0  0  0  0  0  0  0  0  0
   48.0038   54.1735   35.2854 N   0  0  0  0  0  0  0  0  0  0  0  0
   45.6128   55.1248   33.8207 N   0  0  0  0  0  0  0  0  0  0  0  0
   44.8553   55.9145   33.0182 C   0  0  0  0  0  0  0  0  0  0  0  0
   45.6204   56.9787   32.5938 N   0  0  0  0  0  0  0  0  0  0  0  0
  2  1  1  1  0  0  0
  2  3  1  0  0  0  0
  2  5  1  0  0  0  0
  3  4  1  0  0  0  0
  3 16  1  0  0  0  0
  5  6  1  0  0  0  0
  6  7  1  0  0  0  0
  7  8  1  0  0  0  0
  9  8  1  1  0  0  0
  9 10  1  0  0  0  0
  9 11  1  0  0  0  0
 10 15  1  0  0  0  0
 11 12  1  6  0  0  0
 11 13  1  0  0  0  0
 13 14  1  6  0  0  0
 13 15  1  0  0  0  0
 15 26  1  1  0  0  0
 17 18  2  0  0  0  0
 17 22  1  0  0  0  0
 18 19  1  0  0  0  0
 19 20  2  0  0  0  0
 20 21  1  0  0  0  0
 20 26  1  0  0  0  0
 21 22  2  0  0  0  0
 21 24  1  0  0  0  0
 22 23  1  0  0  0  0
 24 25  2  0  0  0  0
 25 26  1  0  0  0  0
M  END
>  <CHROM.1>
144.43034335,176.44766372,164.01390661,153.36251868,-167.00201170,67.71822953
82.12656402,47.79154766,56.95439740,30.70194512,-0.64944346,-0.82635301,2.00668190

>  <Name>
ligand

>  <RI>
0

>  <Rbt.Current_Directory>
/home/itssahil/PROJECTS/Mol_Feturizer/New_Systems/rnas/3GX3

>  <Rbt.Executable>
rbdock ($Id: //depot/dev/client3/rdock/2013.1/src/exe/rbdock.cxx#4 $)

>  <Rbt.Library>
libRbt.so (2013.1, Build901 2013/11/27)

>  <Rbt.Parameter_File>
/export/apps/rDock/src/rDock_2013.1_src/data/scripts/dock_solv.prm

>  <Rbt.Receptor>
prm/pocket_docking_6.prm

>  <SCORE>
-18.7529

>  <SCORE.INTER>
-15.5802

>  <SCORE.INTER.CONST>
1

>  <SCORE.INTER.POLAR>
0

>  <SCORE.INTER.ROT>
7

>  <SCORE.INTER.SOLV>
13.1341

>  <SCORE.INTER.VDW>
-23.0315

>  <SCORE.INTER.norm>
-0.599237

>  <SCORE.INTRA>
-3.17269

>  <SCORE.INTRA.DIHEDRAL>
-0.517592

>  <SCORE.INTRA.DIHEDRAL.0>
5.78979

>  <SCORE.INTRA.POLAR>
0

>  <SCORE.INTRA.POLAR.0>
0

>  <SCORE.INTRA.REPUL>
0

>  <SCORE.INTRA.REPUL.0>
0

>  <SCORE.INTRA.SOLV>
-1.13453

>  <SCORE.INTRA.SOLV.lig_0>
-49.9151

>  <SCORE.INTRA.VDW>
-2.34663

>  <SCORE.INTRA.VDW.0>
-0.211125

>  <SCORE.INTRA.norm>
-0.122026

>  <SCORE.RESTR>
0

>  <SCORE.RESTR.CAVITY>
0

>  <SCORE.RESTR.norm>
0

>  <SCORE.SYSTEM>
0

>  <SCORE.SYSTEM.CONST>
0

>  <SCORE.SYSTEM.DIHEDRAL>
0

>  <SCORE.SYSTEM.SOLV>
0

>  <SCORE.SYSTEM.norm>
0

>  <SCORE.heavy>
26

>  <SCORE.norm>
-0.721264

>  <RMSD>
5.187

$$$$
ligand
 OpenBabel11021811483D
libRbt.so/2013.1/901 2013/11/27
 26 28  0  0  0  0  0  0  0  0999 V2000
   45.7529   57.9919   32.0470 N   0  0  0  0  0  0  0  0  0  0  0  0
   46.3635   58.7902   30.9804 C   0  0  2  0  0  0  0  0  0  0  0  0
   46.6085   60.2538   31.3537 C   0  0  0  0  0  0  0  0  0  0  0  0
   47.7628   60.6056   31.5984 O   0  0  0  0  0  0  0  0  0  0  0  0
   45.5938   58.7929   29.6533 C   0  0  0  0  0  0  0  0  0  0  0  0
   45.8176   57.7076   28.6147 C   0  0  0  0  0  0  0  0  0  0  0  0
   47.0448   58.3522   27.4545 S   0  0  0  0  0  0  0  0  0  0  0  0
   48.3013   57.7901   28.6278 C   0  0  0  0  0  0  0  0  0  0  0  0
   49.0298   56.5080   28.2108 C   0  0  1  0  0  0  0  0  0  0  0  0
   50.0007   56.0732   29.1695 O   0  0  0  0  0  0  0  0  0  0  0  0
   48.0452   55.3635   28.0195 C   0  0  1  0  0  0  0  0  0  0  0  0
   47.6128   55.2753   26.6798 O   0  0  0  0  0  0  0  0  0  0  0  0
   48.8008   54.1273   28.4895 C   0  0  1  0  0  0  0  0  0  0  0  0
   49.4824   53.4963   27.4242 O   0  0  0  0  0  0  0  0  0  0  0  0
   49.8426   54.6893   29.4366 C   0  0  2  0  0  0  0  0  0  0  0  0
   45.7031   61.0957   31.4053 O   0  0  0  0  0  0  0  0  0  0  0  0
   49.0117   56.8838   34.1389 N   0  0  0  0  0  0  0  0  0  0  0  0
   49.3625   57.5001   32.9643 C   0  0  0  0  0  0  0  0  0  0  0  0
   49.5565   56.7481   31.8246 N   0  0  0  0  0  0  0  0  0  0  0  0
   49.3732   55.4159   31.8311 C   0  0  0  0  0  0  0  0  0  0  0  0
   49.0174   54.7752   33.0056 C   0  0  0  0  0  0  0  0  0  0  0  0
   48.8429   55.5219   34.1538 C   0  0  0  0  0  0  0  0  0  0  0  0
   48.4920   54.9339   35.2810 N   0  0  0  0  0  0  0  0  0  0  0  0
   48.8988   53.4533   32.7493 N   0  0  0  0  0  0  0  0  0  0  0  0
   49.1976   53.2465   31.4419 C   0  0  0  0  0  0  0  0  0  0  0  0
   49.4927   54.4587   30.8575 N   0  0  0  0  0  0  0  0  0  0  0  0
  2  1  1  1  0  0  0
  2  3  1  0  0  0  0
  2  5  1  0  0  0  0
  3  4  1  0  0  0  0
  3 16  1  0  0  0  0
  5  6  1  0  0  0  0
  6  7  1  0  0  0  0
  7  8  1  0  0  0  0
  9  8  1  1  0  0  0
  9 10  1  0  0  0  0
  9 11  1  0  0  0  0
 10 15  1  0  0  0  0
 11 12  1  6  0  0  0
 11 13  1  0  0  0  0
 13 14  1  6  0  0  0
 13 15  1  0  0  0  0
 15 26  1  1  0  0  0
 17 18  2  0  0  0  0
 17 22  1  0  0  0  0
 18 19  1  0  0  0  0
 19 20  2  0  0  0  0
 20 21  1  0  0  0  0
 20 26  1  0  0  0  0
 21 22  2  0  0  0  0
 21 24  1  0  0  0  0
 22 23  1  0  0  0  0
 24 25  2  0  0  0  0
 25 26  1  0  0  0  0
M  END
>  <CHROM.1>
104.99505833,-86.47499671,-94.78809284,83.80111008,104.14366638,-178.91028615
-2.18949021,48.11480171,56.66266248,30.44181124,2.95434688,1.07437004,-1.76619416

>  <Name>
ligand

>  <RI>
0

>  <Rbt.Current_Directory>
/home/itssahil/PROJECTS/Mol_Feturizer/New_Systems/rnas/3GX3

>  <Rbt.Executable>
rbdock ($Id: //depot/dev/client3/rdock/2013.1/src/exe/rbdock.cxx#4 $)

>  <Rbt.Library>
libRbt.so (2013.1, Build901 2013/11/27)

>  <Rbt.Parameter_File>
/export/apps/rDock/src/rDock_2013.1_src/data/scripts/dock_solv.prm

>  <Rbt.Receptor>
prm/pocket_docking_2.prm

>  <SCORE>
-10.8561

>  <SCORE.INTER>
-11.52

>  <SCORE.INTER.CONST>
1

>  <SCORE.INTER.POLAR>
0

>  <SCORE.INTER.ROT>
7

>  <SCORE.INTER.SOLV>
14.0395

>  <SCORE.INTER.VDW>
-20.6265

>  <SCORE.INTER.norm>
-0.443077

>  <SCORE.INTRA>
0.190049

>  <SCORE.INTRA.DIHEDRAL>
5.65859

>  <SCORE.INTRA.DIHEDRAL.0>
5.78979

>  <SCORE.INTRA.POLAR>
0

>  <SCORE.INTRA.POLAR.0>
0

>  <SCORE.INTRA.REPUL>
0

>  <SCORE.INTRA.REPUL.0>
0

>  <SCORE.INTRA.SOLV>
0.225341

>  <SCORE.INTRA.SOLV.lig_0>
-49.9151

>  <SCORE.INTRA.VDW>
-2.75191

>  <SCORE.INTRA.VDW.0>
-0.211125

>  <SCORE.INTRA.norm>
0.00730958

>  <SCORE.RESTR>
0.47385

>  <SCORE.RESTR.CAVITY>
0.47385

>  <SCORE.RESTR.norm>
0.018225

>  <SCORE.SYSTEM>
0

>  <SCORE.SYSTEM.CONST>
0

>  <SCORE.SYSTEM.DIHEDRAL>
0

>  <SCORE.SYSTEM.SOLV>
0

>  <SCORE.SYSTEM.norm>
0

>  <SCORE.heavy>
26

>  <SCORE.norm>
-0.417543

>  <RMSD>
5.193

$$$$
ligand
 OpenBabel11021811483D
libRbt.so/2013.1/901 2013/11/27
 26 28  0  0  0  0  0  0  0  0999 V2000
   48.2344   53.1425   26.6858 N   0  0  0  0  0  0  0  0  0  0  0  0
   46.8870   53.7167   26.6345 C   0  0  2  0  0  0  0  0  0  0  0  0
   46.0041   53.1471   25.5219 C   0  0  0  0  0  0  0  0  0  0  0  0
   46.5322   52.8734   24.4438 O   0  0  0  0  0  0  0  0  0  0  0  0
   46.8397   55.2444   26.5011 C   0  0  0  0  0  0  0  0  0  0  0  0
   47.5577   56.1409   27.4948 C   0  0  0  0  0  0  0  0  0  0  0  0
   47.1932   57.8430   27.0076 S   0  0  0  0  0  0  0  0  0  0  0  0
   45.9051   57.8238   28.2772 C   0  0  0  0  0  0  0  0  0  0  0  0
   46.3465   58.3774   29.6363 C   0  0  1  0  0  0  0  0  0  0  0  0
   45.2566   58.5859   30.5418 O   0  0  0  0  0  0  0  0  0  0  0  0
   47.3197   57.4266   30.3181 C   0  0  1  0  0  0  0  0  0  0  0  0
   48.6574   57.7538   30.0131 O   0  0  0  0  0  0  0  0  0  0  0  0
   46.9952   57.5469   31.8015 C   0  0  1  0  0  0  0  0  0  0  0  0
   47.7844   58.5371   32.4294 O   0  0  0  0  0  0  0  0  0  0  0  0
   45.5573   58.0273   31.8103 C   0  0  2  0  0  0  0  0  0  0  0  0
   44.7929   52.9380   25.6647 O   0  0  0  0  0  0  0  0  0  0  0  0
   44.6457   53.8021   34.7993 N   0  0  0  0  0  0  0  0  0  0  0  0
   45.7632   54.5977   34.7718 C   0  0  0  0  0  0  0  0  0  0  0  0
   45.8277   55.6627   33.8979 N   0  0  0  0  0  0  0  0  0  0  0  0
   44.7955   55.9623   33.0897 C   0  0  0  0  0  0  0  0  0  0  0  0
   43.6581   55.1730   33.1033 C   0  0  0  0  0  0  0  0  0  0  0  0
   43.5982   54.0933   33.9618 C   0  0  0  0  0  0  0  0  0  0  0  0
   42.5196   53.3351   34.0003 N   0  0  0  0  0  0  0  0  0  0  0  0
   42.7796   55.6783   32.2089 N   0  0  0  0  0  0  0  0  0  0  0  0
   43.3521   56.7555   31.6145 C   0  0  0  0  0  0  0  0  0  0  0  0
   44.6056   56.9454   32.1539 N   0  0  0  0  0  0  0  0  0  0  0  0
  2  1  1  6  0  0  0
  2  3  1  0  0  0  0
  2  5  1  0  0  0  0
  3  4  1  0  0  0  0
  3 16  1  0  0  0  0
  5  6  1  0  0  0  0
  6  7  1  0  0  0  0
  7  8  1  0  0  0  0
  9  8  1  6  0  0  0
  9 10  1  0  0  0  0
  9 11  1  0  0  0  0
 10 15  1  0  0  0  0
 11 12  1  1  0  0  0
 11 13  1  0  0  0  0
 13 14  1  6  0  0  0
 13 15  1  0  0  0  0
 15 26  1  6  0  0  0
 17 18  2  0  0  0  0
 17 22  1  0  0  0  0
 18 19  1  0  0  0  0
 19 20  2  0  0  0  0
 20 21  1  0  0  0  0
 20 26  1  0  0  0  0
 21 22  2  0  0  0  0
 21 24  1  0  0  0  0
 22 23  1  0  0  0  0
 24 25  2  0  0  0  0
 25 26  1  0  0  0  0
M  END
>  <CHROM.1>
-36.76124042,-55.13911689,-177.92994445,97.93664535,94.16482670,168.91955177
160.82126441,45.86636870,55.93057506,30.06715140,0.99252723,-1.00867544,-2.18693160

>  <Name>
ligand

>  <RI>
0

>  <Rbt.Current_Directory>
/home/itssahil/PROJECTS/Mol_Feturizer/New_Systems/rnas/3GX3

>  <Rbt.Executable>
rbdock ($Id: //depot/dev/client3/rdock/2013.1/src/exe/rbdock.cxx#4 $)

>  <Rbt.Library>
libRbt.so (2013.1, Build901 2013/11/27)

>  <Rbt.Parameter_File>
/export/apps/rDock/src/rDock_2013.1_src/data/scripts/dock_solv.prm

>  <Rbt.Receptor>
prm/pocket_docking_6.prm

>  <SCORE>
-11.3308

>  <SCORE.INTER>
-9.78508

>  <SCORE.INTER.CONST>
1

>  <SCORE.INTER.POLAR>
0

>  <SCORE.INTER.ROT>
7

>  <SCORE.INTER.SOLV>
7.16806

>  <SCORE.INTER.VDW>
-17.1794

>  <SCORE.INTER.norm>
-0.376349

>  <SCORE.INTRA>
-1.54575

>  <SCORE.INTRA.DIHEDRAL>
0.672734

>  <SCORE.INTRA.DIHEDRAL.0>
5.78979

>  <SCORE.INTRA.POLAR>
0

>  <SCORE.INTRA.POLAR.0>
0

>  <SCORE.INTRA.REPUL>
0

>  <SCORE.INTRA.REPUL.0>
0

>  <SCORE.INTRA.SOLV>
-0.105287

>  <SCORE.INTRA.SOLV.lig_0>
-49.9151

>  <SCORE.INTRA.VDW>
-1.82947

>  <SCORE.INTRA.VDW.0>
-0.211125

>  <SCORE.INTRA.norm>
-0.0594518

>  <SCORE.RESTR>
0

>  <SCORE.RESTR.CAVITY>
0

>  <SCORE.RESTR.norm>
0

>  <SCORE.SYSTEM>
0

>  <SCORE.SYSTEM.CONST>
0

>  <SCORE.SYSTEM.DIHEDRAL>
0

>  <SCORE.SYSTEM.SOLV>
0

>  <SCORE.SYSTEM.norm>
0

>  <SCORE.heavy>
26

>  <SCORE.norm>
-0.435801

>  <RMSD>
5.197

$$$$
ligand
 OpenBabel11021811483D
libRbt.so/2013.1/901 2013/11/27
 26 28  0  0  0  0  0  0  0  0999 V2000
   47.9516   53.8195   25.0296 N   0  0  0  0  0  0  0  0  0  0  0  0
   47.8295   55.2025   24.5603 C   0  0  2  0  0  0  0  0  0  0  0  0
   48.7005   55.5323   23.3460 C   0  0  0  0  0  0  0  0  0  0  0  0
   49.8947   55.2357   23.3899 O   0  0  0  0  0  0  0  0  0  0  0  0
   48.1206   56.2731   25.6199 C   0  0  0  0  0  0  0  0  0  0  0  0
   47.1547   56.5268   26.7642 C   0  0  0  0  0  0  0  0  0  0  0  0
   47.8419   57.8972   27.7221 S   0  0  0  0  0  0  0  0  0  0  0  0
   46.3433   57.8108   28.7311 C   0  0  0  0  0  0  0  0  0  0  0  0
   46.3141   58.7917   29.9080 C   0  0  1  0  0  0  0  0  0  0  0  0
   45.0756   58.7739   30.6271 O   0  0  0  0  0  0  0  0  0  0  0  0
   47.4168   58.4721   30.9069 C   0  0  1  0  0  0  0  0  0  0  0  0
   48.5902   59.2037   30.6294 O   0  0  0  0  0  0  0  0  0  0  0  0
   46.8098   58.8024   32.2643 C   0  0  1  0  0  0  0  0  0  0  0  0
   47.0812   60.1357   32.6466 O   0  0  0  0  0  0  0  0  0  0  0  0
   45.3179   58.6855   32.0217 C   0  0  2  0  0  0  0  0  0  0  0  0
   48.2545   56.0677   22.3236 O   0  0  0  0  0  0  0  0  0  0  0  0
   41.8930   54.7571   31.3466 N   0  0  0  0  0  0  0  0  0  0  0  0
   42.1257   55.8313   30.5254 C   0  0  0  0  0  0  0  0  0  0  0  0
   43.0611   56.7798   30.8823 N   0  0  0  0  0  0  0  0  0  0  0  0
   43.7819   56.6552   32.0108 C   0  0  0  0  0  0  0  0  0  0  0  0
   43.5635   55.5777   32.8523 C   0  0  0  0  0  0  0  0  0  0  0  0
   42.6129   54.6370   32.5089 C   0  0  0  0  0  0  0  0  0  0  0  0
   42.3971   53.5961   33.2895 N   0  0  0  0  0  0  0  0  0  0  0  0
   44.4034   55.6846   33.9060 N   0  0  0  0  0  0  0  0  0  0  0  0
   45.1284   56.8219   33.7566 C   0  0  0  0  0  0  0  0  0  0  0  0
   44.7540   57.4350   32.5810 N   0  0  0  0  0  0  0  0  0  0  0  0
  2  1  1  1  0  0  0
  2  3  1  0  0  0  0
  2  5  1  0  0  0  0
  3  4  1  0  0  0  0
  3 16  1  0  0  0  0
  5  6  1  0  0  0  0
  6  7  1  0  0  0  0
  7  8  1  0  0  0  0
  9  8  1  6  0  0  0
  9 10  1  0  0  0  0
  9 11  1  0  0  0  0
 10 15  1  0  0  0  0
 11 12  1  6  0  0  0
 11 13  1  0  0  0  0
 13 14  1  6  0  0  0
 13 15  1  0  0  0  0
 15 26  1  6  0  0  0
 17 18  2  0  0  0  0
 17 22  1  0  0  0  0
 18 19  1  0  0  0  0
 19 20  2  0  0  0  0
 20 21  1  0  0  0  0
 20 26  1  0  0  0  0
 21 22  2  0  0  0  0
 21 24  1  0  0  0  0
 22 23  1  0  0  0  0
 24 25  2  0  0  0  0
 25 26  1  0  0  0  0
M  END
>  <CHROM.1>
-50.35724015,-71.35621945,-177.67063920,176.06281935,177.28343816,175.47729216
-19.63956253,46.04628548,56.82947913,29.44155489,0.86772701,-0.73797454,-2.17121189

>  <Name>
ligand

>  <RI>
0

>  <Rbt.Current_Directory>
/home/itssahil/PROJECTS/Mol_Feturizer/New_Systems/rnas/3GX3

>  <Rbt.Executable>
rbdock ($Id: //depot/dev/client3/rdock/2013.1/src/exe/rbdock.cxx#4 $)

>  <Rbt.Library>
libRbt.so (2013.1, Build901 2013/11/27)

>  <Rbt.Parameter_File>
/export/apps/rDock/src/rDock_2013.1_src/data/scripts/dock_solv.prm

>  <Rbt.Receptor>
prm/pocket_docking_7.prm

>  <SCORE>
-19.3258

>  <SCORE.INTER>
-15.7772

>  <SCORE.INTER.CONST>
1

>  <SCORE.INTER.POLAR>
0

>  <SCORE.INTER.ROT>
7

>  <SCORE.INTER.SOLV>
10.776

>  <SCORE.INTER.VDW>
-22.3768

>  <SCORE.INTER.norm>
-0.606814

>  <SCORE.INTRA>
-3.54865

>  <SCORE.INTRA.DIHEDRAL>
-2.27511

>  <SCORE.INTRA.DIHEDRAL.0>
5.78979

>  <SCORE.INTRA.POLAR>
0

>  <SCORE.INTRA.POLAR.0>
0

>  <SCORE.INTRA.REPUL>
0

>  <SCORE.INTRA.REPUL.0>
0

>  <SCORE.INTRA.SOLV>
-0.408017

>  <SCORE.INTRA.SOLV.lig_0>
-49.9151

>  <SCORE.INTRA.VDW>
-2.20708

>  <SCORE.INTRA.VDW.0>
-0.211125

>  <SCORE.INTRA.norm>
-0.136486

>  <SCORE.RESTR>
0

>  <SCORE.RESTR.CAVITY>
0

>  <SCORE.RESTR.norm>
0

>  <SCORE.SYSTEM>
0

>  <SCORE.SYSTEM.CONST>
0

>  <SCORE.SYSTEM.DIHEDRAL>
0

>  <SCORE.SYSTEM.SOLV>
0

>  <SCORE.SYSTEM.norm>
0

>  <SCORE.heavy>
26

>  <SCORE.norm>
-0.743301

>  <RMSD>
5.198

$$$$
ligand
 OpenBabel11021811483D
libRbt.so/2013.1/901 2013/11/27
 26 28  0  0  0  0  0  0  0  0999 V2000
   48.4466   52.9509   28.4479 N   0  0  0  0  0  0  0  0  0  0  0  0
   49.6548   53.7665   28.2968 C   0  0  2  0  0  0  0  0  0  0  0  0
   50.7932   53.3833   29.2450 C   0  0  0  0  0  0  0  0  0  0  0  0
   51.9423   53.3827   28.8028 O   0  0  0  0  0  0  0  0  0  0  0  0
   49.4385   55.2776   28.4500 C   0  0  0  0  0  0  0  0  0  0  0  0
   48.5280   56.0393   27.5027 C   0  0  0  0  0  0  0  0  0  0  0  0
   48.6073   57.7757   27.9992 S   0  0  0  0  0  0  0  0  0  0  0  0
   47.2112   57.4219   29.0933 C   0  0  0  0  0  0  0  0  0  0  0  0
   46.9014   58.5309   30.1045 C   0  0  1  0  0  0  0  0  0  0  0  0
   45.6318   58.3700   30.7474 O   0  0  0  0  0  0  0  0  0  0  0  0
   47.9563   58.5746   31.2005 C   0  0  1  0  0  0  0  0  0  0  0  0
   48.9925   59.4768   30.8815 O   0  0  0  0  0  0  0  0  0  0  0  0
   47.1865   58.9636   32.4560 C   0  0  1  0  0  0  0  0  0  0  0  0
   47.1724   60.3640   32.6463 O   0  0  0  0  0  0  0  0  0  0  0  0
   45.7681   58.5241   32.1507 C   0  0  2  0  0  0  0  0  0  0  0  0
   50.6095   53.0904   30.4331 O   0  0  0  0  0  0  0  0  0  0  0  0
   47.4967   54.4215   34.9433 N   0  0  0  0  0  0  0  0  0  0  0  0
   48.2269   55.4518   34.4069 C   0  0  0  0  0  0  0  0  0  0  0  0
   47.5933   56.4390   33.6816 N   0  0  0  0  0  0  0  0  0  0  0  0
   46.2587   56.4326   33.5169 C   0  0  0  0  0  0  0  0  0  0  0  0
   45.5034   55.4028   34.0516 C   0  0  0  0  0  0  0  0  0  0  0  0
   46.1367   54.4013   34.7605 C   0  0  0  0  0  0  0  0  0  0  0  0
   45.4355   53.4172   35.2890 N   0  0  0  0  0  0  0  0  0  0  0  0
   44.2054   55.6258   33.7476 N   0  0  0  0  0  0  0  0  0  0  0  0
   44.1319   56.7626   33.0104 C   0  0  0  0  0  0  0  0  0  0  0  0
   45.4013   57.2767   32.8606 N   0  0  0  0  0  0  0  0  0  0  0  0
  2  1  1  1  0  0  0
  2  3  1  0  0  0  0
  2  5  1  0  0  0  0
  3  4  1  0  0  0  0
  3 16  1  0  0  0  0
  5  6  1  0  0  0  0
  6  7  1  0  0  0  0
  7  8  1  0  0  0  0
  9  8  1  6  0  0  0
  9 10  1  0  0  0  0
  9 11  1  0  0  0  0
 10 15  1  0  0  0  0
 11 12  1  6  0  0  0
 11 13  1  0  0  0  0
 13 14  1  6  0  0  0
 13 15  1  0  0  0  0
 15 26  1  1  0  0  0
 17 18  2  0  0  0  0
 17 22  1  0  0  0  0
 18 19  1  0  0  0  0
 19 20  2  0  0  0  0
 20 21  1  0  0  0  0
 20 26  1  0  0  0  0
 21 22  2  0  0  0  0
 21 24  1  0  0  0  0
 22 23  1  0  0  0  0
 24 25  2  0  0  0  0
 25 26  1  0  0  0  0
M  END
>  <CHROM.1>
139.63179318,-61.67770451,-178.01907625,-90.18677739,168.41547065,166.84313969
109.76982572,47.61943750,56.31658224,31.25525009,-0.20457368,-0.92484980
2.57544481

>  <Name>
ligand

>  <RI>
0

>  <Rbt.Current_Directory>
/home/itssahil/PROJECTS/Mol_Feturizer/New_Systems/rnas/3GX3

>  <Rbt.Executable>
rbdock ($Id: //depot/dev/client3/rdock/2013.1/src/exe/rbdock.cxx#4 $)

>  <Rbt.Library>
libRbt.so (2013.1, Build901 2013/11/27)

>  <Rbt.Parameter_File>
/export/apps/rDock/src/rDock_2013.1_src/data/scripts/dock_solv.prm

>  <Rbt.Receptor>
prm/pocket_docking_5.prm

>  <SCORE>
-16.4097

>  <SCORE.INTER>
-13.9234

>  <SCORE.INTER.CONST>
1

>  <SCORE.INTER.POLAR>
0

>  <SCORE.INTER.ROT>
7

>  <SCORE.INTER.SOLV>
12.2199

>  <SCORE.INTER.VDW>
-21.6222

>  <SCORE.INTER.norm>
-0.535516

>  <SCORE.INTRA>
-2.49936

>  <SCORE.INTRA.DIHEDRAL>
-0.911494

>  <SCORE.INTRA.DIHEDRAL.0>
5.78979

>  <SCORE.INTRA.POLAR>
0

>  <SCORE.INTRA.POLAR.0>
0

>  <SCORE.INTRA.REPUL>
0

>  <SCORE.INTRA.REPUL.0>
0

>  <SCORE.INTRA.SOLV>
-0.386607

>  <SCORE.INTRA.SOLV.lig_0>
-49.9151

>  <SCORE.INTRA.VDW>
-1.8503

>  <SCORE.INTRA.VDW.0>
-0.211125

>  <SCORE.INTRA.norm>
-0.096129

>  <SCORE.RESTR>
0.0130402

>  <SCORE.RESTR.CAVITY>
0.0130402

>  <SCORE.RESTR.norm>
0.000501544

>  <SCORE.SYSTEM>
0

>  <SCORE.SYSTEM.CONST>
0

>  <SCORE.SYSTEM.DIHEDRAL>
0

>  <SCORE.SYSTEM.SOLV>
0

>  <SCORE.SYSTEM.norm>
0

>  <SCORE.heavy>
26

>  <SCORE.norm>
-0.631144

>  <RMSD>
5.199

$$$$
ligand
 OpenBabel11021811483D
libRbt.so/2013.1/901 2013/11/27
 26 28  0  0  0  0  0  0  0  0999 V2000
   49.8265   53.6551   26.3579 N   0  0  0  0  0  0  0  0  0  0  0  0
   50.0564   54.9369   27.0301 C   0  0  2  0  0  0  0  0  0  0  0  0
   51.3622   55.0032   27.8252 C   0  0  0  0  0  0  0  0  0  0  0  0
   51.7917   53.9629   28.3246 O   0  0  0  0  0  0  0  0  0  0  0  0
   48.9352   55.3797   27.9791 C   0  0  0  0  0  0  0  0  0  0  0  0
   48.8447   56.8139   28.4706 C   0  0  0  0  0  0  0  0  0  0  0  0
   47.6722   56.8123   29.8465 S   0  0  0  0  0  0  0  0  0  0  0  0
   46.9232   58.2681   29.0777 C   0  0  0  0  0  0  0  0  0  0  0  0
   45.7730   58.8871   29.8791 C   0  0  1  0  0  0  0  0  0  0  0  0
   44.8691   57.9132   30.4134 O   0  0  0  0  0  0  0  0  0  0  0  0
   46.3050   59.6963   31.0530 C   0  0  1  0  0  0  0  0  0  0  0  0
   46.4820   61.0517   30.7054 O   0  0  0  0  0  0  0  0  0  0  0  0
   45.2764   59.4887   32.1571 C   0  0  1  0  0  0  0  0  0  0  0  0
   44.2791   60.4900   32.1360 O   0  0  0  0  0  0  0  0  0  0  0  0
   44.6196   58.1740   31.7850 C   0  0  2  0  0  0  0  0  0  0  0  0
   52.0072   56.0486   27.9737 O   0  0  0  0  0  0  0  0  0  0  0  0
   48.7084   55.9691   34.2423 N   0  0  0  0  0  0  0  0  0  0  0  0
   48.6907   57.1083   33.4777 C   0  0  0  0  0  0  0  0  0  0  0  0
   47.5137   57.5253   32.8923 N   0  0  0  0  0  0  0  0  0  0  0  0
   46.3650   56.8532   33.0852 C   0  0  0  0  0  0  0  0  0  0  0  0
   46.3611   55.7023   33.8548 C   0  0  0  0  0  0  0  0  0  0  0  0
   47.5417   55.2698   34.4252 C   0  0  0  0  0  0  0  0  0  0  0  0
   47.5587   54.1830   35.1722 N   0  0  0  0  0  0  0  0  0  0  0  0
   45.0988   55.2201   33.8914 N   0  0  0  0  0  0  0  0  0  0  0  0
   44.3131   56.0312   33.1390 C   0  0  0  0  0  0  0  0  0  0  0  0
   45.0868   57.0527   32.6329 N   0  0  0  0  0  0  0  0  0  0  0  0
  2  1  1  1  0  0  0
  2  3  1  0  0  0  0
  2  5  1  0  0  0  0
  3  4  1  0  0  0  0
  3 16  1  0  0  0  0
  5  6  1  0  0  0  0
  6  7  1  0  0  0  0
  7  8  1  0  0  0  0
  9  8  1  1  0  0  0
  9 10  1  0  0  0  0
  9 11  1  0  0  0  0
 10 15  1  0  0  0  0
 11 12  1  6  0  0  0
 11 13  1  0  0  0  0
 13 14  1  6  0  0  0
 13 15  1  0  0  0  0
 15 26  1  1  0  0  0
 17 18  2  0  0  0  0
 17 22  1  0  0  0  0
 18 19  1  0  0  0  0
 19 20  2  0  0  0  0
 20 21  1  0  0  0  0
 20 26  1  0  0  0  0
 21 22  2  0  0  0  0
 21 24  1  0  0  0  0
 22 23  1  0  0  0  0
 24 25  2  0  0  0  0
 25 26  1  0  0  0  0
M  END
>  <CHROM.1>
-30.66666407,-164.23436834,-166.33558689,-133.83133765,-176.69542169,-43.43497594
83.54156578,47.43279404,56.86239315,30.93939268,0.36610553,0.78860792,-1.01226503

>  <Name>
ligand

>  <RI>
0

>  <Rbt.Current_Directory>
/home/itssahil/PROJECTS/Mol_Feturizer/New_Systems/rnas/3GX3

>  <Rbt.Executable>
rbdock ($Id: //depot/dev/client3/rdock/2013.1/src/exe/rbdock.cxx#4 $)

>  <Rbt.Library>
libRbt.so (2013.1, Build901 2013/11/27)

>  <Rbt.Parameter_File>
/export/apps/rDock/src/rDock_2013.1_src/data/scripts/dock_solv.prm

>  <Rbt.Receptor>
prm/pocket_docking_6.prm

>  <SCORE>
-15.0978

>  <SCORE.INTER>
-11.87

>  <SCORE.INTER.CONST>
1

>  <SCORE.INTER.POLAR>
0

>  <SCORE.INTER.ROT>
7

>  <SCORE.INTER.SOLV>
11.9401

>  <SCORE.INTER.VDW>
-20.1601

>  <SCORE.INTER.norm>
-0.45654

>  <SCORE.INTRA>
-3.22781

>  <SCORE.INTRA.DIHEDRAL>
1.65855

>  <SCORE.INTRA.DIHEDRAL.0>
5.78979

>  <SCORE.INTRA.POLAR>
0

>  <SCORE.INTRA.POLAR.0>
0

>  <SCORE.INTRA.REPUL>
0

>  <SCORE.INTRA.REPUL.0>
0

>  <SCORE.INTRA.SOLV>
-0.774494

>  <SCORE.INTRA.SOLV.lig_0>
-49.9151

>  <SCORE.INTRA.VDW>
-3.66983

>  <SCORE.INTRA.VDW.0>
-0.211125

>  <SCORE.INTRA.norm>
-0.124146

>  <SCORE.RESTR>
0

>  <SCORE.RESTR.CAVITY>
0

>  <SCORE.RESTR.norm>
0

>  <SCORE.SYSTEM>
0

>  <SCORE.SYSTEM.CONST>
0

>  <SCORE.SYSTEM.DIHEDRAL>
0

>  <SCORE.SYSTEM.SOLV>
0

>  <SCORE.SYSTEM.norm>
0

>  <SCORE.heavy>
26

>  <SCORE.norm>
-0.580686

>  <RMSD>
5.201

$$$$
ligand
 OpenBabel11021811483D
libRbt.so/2013.1/901 2013/11/27
 26 28  0  0  0  0  0  0  0  0999 V2000
   45.3171   58.1749   31.5283 N   0  0  0  0  0  0  0  0  0  0  0  0
   46.1211   59.3358   31.9205 C   0  0  2  0  0  0  0  0  0  0  0  0
   45.4450   60.6839   31.6613 C   0  0  0  0  0  0  0  0  0  0  0  0
   46.0919   61.7092   31.8764 O   0  0  0  0  0  0  0  0  0  0  0  0
   47.5125   59.4056   31.2780 C   0  0  0  0  0  0  0  0  0  0  0  0
   48.5868   58.3885   31.6216 C   0  0  0  0  0  0  0  0  0  0  0  0
   49.0395   58.6826   33.3468 S   0  0  0  0  0  0  0  0  0  0  0  0
   49.5017   56.9354   33.4179 C   0  0  0  0  0  0  0  0  0  0  0  0
   48.3967   56.0079   33.9348 C   0  0  1  0  0  0  0  0  0  0  0  0
   47.3680   55.7627   32.9690 O   0  0  0  0  0  0  0  0  0  0  0  0
   48.9679   54.6551   34.3342 C   0  0  1  0  0  0  0  0  0  0  0  0
   49.3102   54.6248   35.7022 O   0  0  0  0  0  0  0  0  0  0  0  0
   47.8784   53.6566   33.9653 C   0  0  1  0  0  0  0  0  0  0  0  0
   47.0017   53.4176   35.0479 O   0  0  0  0  0  0  0  0  0  0  0  0
   47.0937   54.3737   32.8845 C   0  0  2  0  0  0  0  0  0  0  0  0
   44.2884   60.7853   31.2336 O   0  0  0  0  0  0  0  0  0  0  0  0
   50.1277   54.8165   28.6164 N   0  0  0  0  0  0  0  0  0  0  0  0
   50.1601   55.5692   29.7631 C   0  0  0  0  0  0  0  0  0  0  0  0
   49.2631   55.3137   30.7790 N   0  0  0  0  0  0  0  0  0  0  0  0
   48.3723   54.3107   30.6838 C   0  0  0  0  0  0  0  0  0  0  0  0
   48.3244   53.5384   29.5358 C   0  0  0  0  0  0  0  0  0  0  0  0
   49.2069   53.8047   28.5079 C   0  0  0  0  0  0  0  0  0  0  0  0
   49.1873   53.0737   27.4103 N   0  0  0  0  0  0  0  0  0  0  0  0
   47.3531   52.6107   29.6881 N   0  0  0  0  0  0  0  0  0  0  0  0
   46.7719   52.8005   30.8995 C   0  0  0  0  0  0  0  0  0  0  0  0
   47.3970   53.8534   31.5311 N   0  0  0  0  0  0  0  0  0  0  0  0
  2  1  1  6  0  0  0
  2  3  1  0  0  0  0
  2  5  1  0  0  0  0
  3  4  1  0  0  0  0
  3 16  1  0  0  0  0
  5  6  1  0  0  0  0
  6  7  1  0  0  0  0
  7  8  1  0  0  0  0
  9  8  1  6  0  0  0
  9 10  1  0  0  0  0
  9 11  1  0  0  0  0
 10 15  1  0  0  0  0
 11 12  1  1  0  0  0
 11 13  1  0  0  0  0
 13 14  1  1  0  0  0
 13 15  1  0  0  0  0
 15 26  1  6  0  0  0
 17 18  2  0  0  0  0
 17 22  1  0  0  0  0
 18 19  1  0  0  0  0
 19 20  2  0  0  0  0
 20 21  1  0  0  0  0
 20 26  1  0  0  0  0
 21 22  2  0  0  0  0
 21 24  1  0  0  0  0
 22 23  1  0  0  0  0
 24 25  2  0  0  0  0
 25 26  1  0  0  0  0
M  END
>  <CHROM.1>
-175.01757910,-67.31881303,-67.67935548,152.91872274,-94.15235480,75.62823647
31.52281804,47.87498959,56.20703227,31.84732723,2.92802661,-1.25637740,1.55249496

>  <Name>
ligand

>  <RI>
0

>  <Rbt.Current_Directory>
/home/itssahil/PROJECTS/Mol_Feturizer/New_Systems/rnas/3GX3

>  <Rbt.Executable>
rbdock ($Id: //depot/dev/client3/rdock/2013.1/src/exe/rbdock.cxx#4 $)

>  <Rbt.Library>
libRbt.so (2013.1, Build901 2013/11/27)

>  <Rbt.Parameter_File>
/export/apps/rDock/src/rDock_2013.1_src/data/scripts/dock_solv.prm

>  <Rbt.Receptor>
prm/pocket_docking_5.prm

>  <SCORE>
-21.6393

>  <SCORE.INTER>
-19.0443

>  <SCORE.INTER.CONST>
1

>  <SCORE.INTER.POLAR>
0

>  <SCORE.INTER.ROT>
7

>  <SCORE.INTER.SOLV>
8.71378

>  <SCORE.INTER.VDW>
-23.8675

>  <SCORE.INTER.norm>
-0.732473

>  <SCORE.INTRA>
-2.62352

>  <SCORE.INTRA.DIHEDRAL>
0.737998

>  <SCORE.INTRA.DIHEDRAL.0>
5.78979

>  <SCORE.INTRA.POLAR>
0

>  <SCORE.INTRA.POLAR.0>
0

>  <SCORE.INTRA.REPUL>
0

>  <SCORE.INTRA.REPUL.0>
0

>  <SCORE.INTRA.SOLV>
0.838381

>  <SCORE.INTRA.SOLV.lig_0>
-49.9151

>  <SCORE.INTRA.VDW>
-3.41171

>  <SCORE.INTRA.VDW.0>
-0.211125

>  <SCORE.INTRA.norm>
-0.100905

>  <SCORE.RESTR>
0.028496

>  <SCORE.RESTR.CAVITY>
0.028496

>  <SCORE.RESTR.norm>
0.001096

>  <SCORE.SYSTEM>
0

>  <SCORE.SYSTEM.CONST>
0

>  <SCORE.SYSTEM.DIHEDRAL>
0

>  <SCORE.SYSTEM.SOLV>
0

>  <SCORE.SYSTEM.norm>
0

>  <SCORE.heavy>
26

>  <SCORE.norm>
-0.832282

>  <RMSD>
5.212

$$$$
ligand
 OpenBabel11021811483D
libRbt.so/2013.1/901 2013/11/27
 26 28  0  0  0  0  0  0  0  0999 V2000
   47.1646   60.6770   31.1348 N   0  0  0  0  0  0  0  0  0  0  0  0
   47.0773   59.2747   30.7180 C   0  0  2  0  0  0  0  0  0  0  0  0
   46.0941   58.4363   31.5379 C   0  0  0  0  0  0  0  0  0  0  0  0
   45.4238   59.0052   32.4000 O   0  0  0  0  0  0  0  0  0  0  0  0
   48.4113   58.5170   30.7137 C   0  0  0  0  0  0  0  0  0  0  0  0
   49.4584   58.7669   31.7851 C   0  0  0  0  0  0  0  0  0  0  0  0
   48.6102   58.6256   33.3752 S   0  0  0  0  0  0  0  0  0  0  0  0
   49.2132   56.9213   33.4311 C   0  0  0  0  0  0  0  0  0  0  0  0
   48.2794   55.9418   34.1502 C   0  0  1  0  0  0  0  0  0  0  0  0
   47.0898   55.6484   33.4087 O   0  0  0  0  0  0  0  0  0  0  0  0
   48.9819   54.6176   34.4126 C   0  0  1  0  0  0  0  0  0  0  0  0
   49.5938   54.6027   35.6833 O   0  0  0  0  0  0  0  0  0  0  0  0
   47.8881   53.5685   34.2602 C   0  0  1  0  0  0  0  0  0  0  0  0
   47.2597   53.2872   35.4945 O   0  0  0  0  0  0  0  0  0  0  0  0
   46.8692   54.2481   33.3668 C   0  0  2  0  0  0  0  0  0  0  0  0
   45.9354   57.2220   31.3617 O   0  0  0  0  0  0  0  0  0  0  0  0
   49.9352   52.7132   29.3841 N   0  0  0  0  0  0  0  0  0  0  0  0
   50.3149   53.1639   30.6232 C   0  0  0  0  0  0  0  0  0  0  0  0
   49.3570   53.5427   31.5403 N   0  0  0  0  0  0  0  0  0  0  0  0
   48.0461   53.4457   31.2567 C   0  0  0  0  0  0  0  0  0  0  0  0
   47.6421   52.9917   30.0127 C   0  0  0  0  0  0  0  0  0  0  0  0
   48.5985   52.6316   29.0842 C   0  0  0  0  0  0  0  0  0  0  0  0
   48.2361   52.1848   27.8974 N   0  0  0  0  0  0  0  0  0  0  0  0
   46.2908   52.9901   29.9793 N   0  0  0  0  0  0  0  0  0  0  0  0
   45.8368   53.4581   31.1693 C   0  0  0  0  0  0  0  0  0  0  0  0
   46.9175   53.7437   31.9748 N   0  0  0  0  0  0  0  0  0  0  0  0
  2  1  1  1  0  0  0
  2  3  1  0  0  0  0
  2  5  1  0  0  0  0
  3  4  1  0  0  0  0
  3 16  1  0  0  0  0
  5  6  1  0  0  0  0
  6  7  1  0  0  0  0
  7  8  1  0  0  0  0
  9  8  1  6  0  0  0
  9 10  1  0  0  0  0
  9 11  1  0  0  0  0
 10 15  1  0  0  0  0
 11 12  1  1  0  0  0
 11 13  1  0  0  0  0
 13 14  1  1  0  0  0
 13 15  1  0  0  0  0
 15 26  1  6  0  0  0
 17 18  2  0  0  0  0
 17 22  1  0  0  0  0
 18 19  1  0  0  0  0
 19 20  2  0  0  0  0
 20 21  1  0  0  0  0
 20 26  1  0  0  0  0
 21 22  2  0  0  0  0
 21 24  1  0  0  0  0
 22 23  1  0  0  0  0
 24 25  2  0  0  0  0
 25 26  1  0  0  0  0
M  END
>  <CHROM.1>
3.95687175,37.42375406,50.83568816,96.74638257,-148.08147146,71.68449318
81.51676087,47.88509076,55.60602676,32.06767816,2.19754921,-1.37211546,0.86640509

>  <Name>
ligand

>  <RI>
0

>  <Rbt.Current_Directory>
/home/itssahil/PROJECTS/Mol_Feturizer/New_Systems/rnas/3GX3

>  <Rbt.Executable>
rbdock ($Id: //depot/dev/client3/rdock/2013.1/src/exe/rbdock.cxx#4 $)

>  <Rbt.Library>
libRbt.so (2013.1, Build901 2013/11/27)

>  <Rbt.Parameter_File>
/export/apps/rDock/src/rDock_2013.1_src/data/scripts/dock_solv.prm

>  <Rbt.Receptor>
prm/pocket_docking_3.prm

>  <SCORE>
-16.8086

>  <SCORE.INTER>
-15.0541

>  <SCORE.INTER.CONST>
1

>  <SCORE.INTER.POLAR>
0

>  <SCORE.INTER.ROT>
7

>  <SCORE.INTER.SOLV>
16.4365

>  <SCORE.INTER.VDW>
-23.7816

>  <SCORE.INTER.norm>
-0.579003

>  <SCORE.INTRA>
-1.75712

>  <SCORE.INTRA.DIHEDRAL>
2.57234

>  <SCORE.INTRA.DIHEDRAL.0>
5.78979

>  <SCORE.INTRA.POLAR>
0

>  <SCORE.INTRA.POLAR.0>
0

>  <SCORE.INTRA.REPUL>
0

>  <SCORE.INTRA.REPUL.0>
0

>  <SCORE.INTRA.SOLV>
0.921538

>  <SCORE.INTRA.SOLV.lig_0>
-49.9151

>  <SCORE.INTRA.VDW>
-3.50406

>  <SCORE.INTRA.VDW.0>
-0.211125

>  <SCORE.INTRA.norm>
-0.0675816

>  <SCORE.RESTR>
0.00262005

>  <SCORE.RESTR.CAVITY>
0.00262005

>  <SCORE.RESTR.norm>
0.000100771

>  <SCORE.SYSTEM>
0

>  <SCORE.SYSTEM.CONST>
0

>  <SCORE.SYSTEM.DIHEDRAL>
0

>  <SCORE.SYSTEM.SOLV>
0

>  <SCORE.SYSTEM.norm>
0

>  <SCORE.heavy>
26

>  <SCORE.norm>
-0.646484

>  <RMSD>
5.219

$$$$
ligand
 OpenBabel11021811483D
libRbt.so/2013.1/901 2013/11/27
 26 28  0  0  0  0  0  0  0  0999 V2000
   50.3681   54.8906   25.9421 N   0  0  0  0  0  0  0  0  0  0  0  0
   48.9792   54.9377   25.4766 C   0  0  2  0  0  0  0  0  0  0  0  0
   48.8182   54.7685   23.9643 C   0  0  0  0  0  0  0  0  0  0  0  0
   47.9889   53.9552   23.5557 O   0  0  0  0  0  0  0  0  0  0  0  0
   48.2092   56.2061   25.8664 C   0  0  0  0  0  0  0  0  0  0  0  0
   48.1417   56.6697   27.3111 C   0  0  0  0  0  0  0  0  0  0  0  0
   47.0203   58.0870   27.3439 S   0  0  0  0  0  0  0  0  0  0  0  0
   47.2888   58.1299   29.1320 C   0  0  0  0  0  0  0  0  0  0  0  0
   46.2743   58.9791   29.9053 C   0  0  1  0  0  0  0  0  0  0  0  0
   45.0988   58.2519   30.2801 O   0  0  0  0  0  0  0  0  0  0  0  0
   46.8897   59.5263   31.1850 C   0  0  1  0  0  0  0  0  0  0  0  0
   47.4513   60.8038   30.9804 O   0  0  0  0  0  0  0  0  0  0  0  0
   45.7445   59.5273   32.1893 C   0  0  1  0  0  0  0  0  0  0  0  0
   45.0548   60.7610   32.1926 O   0  0  0  0  0  0  0  0  0  0  0  0
   44.8004   58.4713   31.6492 C   0  0  2  0  0  0  0  0  0  0  0  0
   49.4717   55.4211   23.1409 O   0  0  0  0  0  0  0  0  0  0  0  0
   47.8466   55.2373   34.4564 N   0  0  0  0  0  0  0  0  0  0  0  0
   48.1953   56.4152   33.8451 C   0  0  0  0  0  0  0  0  0  0  0  0
   47.2531   57.1239   33.1297 N   0  0  0  0  0  0  0  0  0  0  0  0
   45.9795   56.6999   33.0468 C   0  0  0  0  0  0  0  0  0  0  0  0
   45.6068   55.5148   33.6578 C   0  0  0  0  0  0  0  0  0  0  0  0
   46.5523   54.7915   34.3573 C   0  0  0  0  0  0  0  0  0  0  0  0
   46.2165   53.6662   34.9576 N   0  0  0  0  0  0  0  0  0  0  0  0
   44.2904   55.3133   33.4266 N   0  0  0  0  0  0  0  0  0  0  0  0
   43.8331   56.3358   32.6606 C   0  0  0  0  0  0  0  0  0  0  0  0
   44.8724   57.2071   32.4181 N   0  0  0  0  0  0  0  0  0  0  0  0
  2  1  1  6  0  0  0
  2  3  1  0  0  0  0
  2  5  1  0  0  0  0
  3  4  1  0  0  0  0
  3 16  1  0  0  0  0
  5  6  1  0  0  0  0
  6  7  1  0  0  0  0
  7  8  1  0  0  0  0
  9  8  1  1  0  0  0
  9 10  1  0  0  0  0
  9 11  1  0  0  0  0
 10 15  1  0  0  0  0
 11 12  1  6  0  0  0
 11 13  1  0  0  0  0
 13 14  1  6  0  0  0
 13 15  1  0  0  0  0
 15 26  1  1  0  0  0
 17 18  2  0  0  0  0
 17 22  1  0  0  0  0
 18 19  1  0  0  0  0
 19 20  2  0  0  0  0
 20 21  1  0  0  0  0
 20 26  1  0  0  0  0
 21 22  2  0  0  0  0
 21 24  1  0  0  0  0
 22 23  1  0  0  0  0
 24 25  2  0  0  0  0
 25 26  1  0  0  0  0
M  END
>  <CHROM.1>
131.12445014,-52.95694139,-174.65882873,178.27406333,-164.83832027,87.38229936
90.20767093,46.88348432,56.93654890,29.98369916,-0.52850815,-1.19741846,2.41406524

>  <Name>
ligand

>  <RI>
0

>  <Rbt.Current_Directory>
/home/itssahil/PROJECTS/Mol_Feturizer/New_Systems/rnas/3GX3

>  <Rbt.Executable>
rbdock ($Id: //depot/dev/client3/rdock/2013.1/src/exe/rbdock.cxx#4 $)

>  <Rbt.Library>
libRbt.so (2013.1, Build901 2013/11/27)

>  <Rbt.Parameter_File>
/export/apps/rDock/src/rDock_2013.1_src/data/scripts/dock_solv.prm

>  <Rbt.Receptor>
prm/pocket_docking_8.prm

>  <SCORE>
-15.1967

>  <SCORE.INTER>
-12.4491

>  <SCORE.INTER.CONST>
1

>  <SCORE.INTER.POLAR>
0

>  <SCORE.INTER.ROT>
7

>  <SCORE.INTER.SOLV>
13.794

>  <SCORE.INTER.VDW>
-21.1641

>  <SCORE.INTER.norm>
-0.478812

>  <SCORE.INTRA>
-2.74761

>  <SCORE.INTRA.DIHEDRAL>
-0.0337184

>  <SCORE.INTRA.DIHEDRAL.0>
5.78979

>  <SCORE.INTRA.POLAR>
0

>  <SCORE.INTRA.POLAR.0>
0

>  <SCORE.INTRA.REPUL>
0

>  <SCORE.INTRA.REPUL.0>
0

>  <SCORE.INTRA.SOLV>
-0.544469

>  <SCORE.INTRA.SOLV.lig_0>
-49.9151

>  <SCORE.INTRA.VDW>
-2.45852

>  <SCORE.INTRA.VDW.0>
-0.211125

>  <SCORE.INTRA.norm>
-0.105677

>  <SCORE.RESTR>
0

>  <SCORE.RESTR.CAVITY>
0

>  <SCORE.RESTR.norm>
0

>  <SCORE.SYSTEM>
0

>  <SCORE.SYSTEM.CONST>
0

>  <SCORE.SYSTEM.DIHEDRAL>
0

>  <SCORE.SYSTEM.SOLV>
0

>  <SCORE.SYSTEM.norm>
0

>  <SCORE.heavy>
26

>  <SCORE.norm>
-0.58449

>  <RMSD>
5.227

$$$$
ligand
 OpenBabel11021811483D
libRbt.so/2013.1/901 2013/11/27
 26 28  0  0  0  0  0  0  0  0999 V2000
   45.5134   52.6940   25.8561 N   0  0  0  0  0  0  0  0  0  0  0  0
   45.6633   53.2413   27.2073 C   0  0  2  0  0  0  0  0  0  0  0  0
   45.7650   54.7674   27.2585 C   0  0  0  0  0  0  0  0  0  0  0  0
   46.3846   55.3387   26.3609 O   0  0  0  0  0  0  0  0  0  0  0  0
   46.8554   52.6897   28.0000 C   0  0  0  0  0  0  0  0  0  0  0  0
   46.6682   52.0937   29.3843 C   0  0  0  0  0  0  0  0  0  0  0  0
   45.9654   53.4013   30.4157 S   0  0  0  0  0  0  0  0  0  0  0  0
   47.6650   53.9491   30.7032 C   0  0  0  0  0  0  0  0  0  0  0  0
   47.9656   54.3496   32.1515 C   0  0  1  0  0  0  0  0  0  0  0  0
   47.0196   55.2818   32.6873 O   0  0  0  0  0  0  0  0  0  0  0  0
   47.9590   53.1308   33.0628 C   0  0  1  0  0  0  0  0  0  0  0  0
   49.2505   52.5793   33.1936 O   0  0  0  0  0  0  0  0  0  0  0  0
   47.3877   53.6415   34.3792 C   0  0  1  0  0  0  0  0  0  0  0  0
   48.4067   54.0813   35.2544 O   0  0  0  0  0  0  0  0  0  0  0  0
   46.5780   54.8546   33.9656 C   0  0  2  0  0  0  0  0  0  0  0  0
   45.2418   55.4470   28.1503 O   0  0  0  0  0  0  0  0  0  0  0  0
   42.5064   52.8392   36.6071 N   0  0  0  0  0  0  0  0  0  0  0  0
   43.8238   52.8902   36.9873 C   0  0  0  0  0  0  0  0  0  0  0  0
   44.7618   53.4475   36.1437 N   0  0  0  0  0  0  0  0  0  0  0  0
   44.4047   53.9787   34.9610 C   0  0  0  0  0  0  0  0  0  0  0  0
   43.0803   53.9389   34.5596 C   0  0  0  0  0  0  0  0  0  0  0  0
   42.1415   53.3627   35.3922 C   0  0  0  0  0  0  0  0  0  0  0  0
   40.8723   53.3249   35.0354 N   0  0  0  0  0  0  0  0  0  0  0  0
   42.9858   54.5294   33.3474 N   0  0  0  0  0  0  0  0  0  0  0  0
   44.2291   54.9176   32.9669 C   0  0  0  0  0  0  0  0  0  0  0  0
   45.1217   54.5834   33.9618 N   0  0  0  0  0  0  0  0  0  0  0  0
  2  1  1  6  0  0  0
  2  3  1  0  0  0  0
  2  5  1  0  0  0  0
  3  4  1  0  0  0  0
  3 16  1  0  0  0  0
  5  6  1  0  0  0  0
  6  7  1  0  0  0  0
  7  8  1  0  0  0  0
  9  8  1  6  0  0  0
  9 10  1  0  0  0  0
  9 11  1  0  0  0  0
 10 15  1  0  0  0  0
 11 12  1  1  0  0  0
 11 13  1  0  0  0  0
 13 14  1  1  0  0  0
 13 15  1  0  0  0  0
 15 26  1  6  0  0  0
 17 18  2  0  0  0  0
 17 22  1  0  0  0  0
 18 19  1  0  0  0  0
 19 20  2  0  0  0  0
 20 21  1  0  0  0  0
 20 26  1  0  0  0  0
 21 22  2  0  0  0  0
 21 24  1  0  0  0  0
 22 23  1  0  0  0  0
 24 25  2  0  0  0  0
 25 26  1  0  0  0  0
M  END
>  <CHROM.1>
-37.16095213,-126.65167280,-59.71335596,-85.56571869,-137.95258661,-50.95137344
170.01961885,45.64439288,53.81496054,32.06804635,1.29094211,0.01788386,-1.53490853

>  <Name>
ligand

>  <RI>
0

>  <Rbt.Current_Directory>
/home/itssahil/PROJECTS/Mol_Feturizer/New_Systems/rnas/3GX3

>  <Rbt.Executable>
rbdock ($Id: //depot/dev/client3/rdock/2013.1/src/exe/rbdock.cxx#4 $)

>  <Rbt.Library>
libRbt.so (2013.1, Build901 2013/11/27)

>  <Rbt.Parameter_File>
/export/apps/rDock/src/rDock_2013.1_src/data/scripts/dock_solv.prm

>  <Rbt.Receptor>
prm/pocket_docking_8.prm

>  <SCORE>
-8.7025

>  <SCORE.INTER>
-8.24489

>  <SCORE.INTER.CONST>
1

>  <SCORE.INTER.POLAR>
0

>  <SCORE.INTER.ROT>
7

>  <SCORE.INTER.SOLV>
10.5542

>  <SCORE.INTER.VDW>
-17.2813

>  <SCORE.INTER.norm>
-0.317111

>  <SCORE.INTRA>
-0.457609

>  <SCORE.INTRA.DIHEDRAL>
5.48791

>  <SCORE.INTRA.DIHEDRAL.0>
5.78979

>  <SCORE.INTRA.POLAR>
0

>  <SCORE.INTRA.POLAR.0>
0

>  <SCORE.INTRA.REPUL>
0

>  <SCORE.INTRA.REPUL.0>
0

>  <SCORE.INTRA.SOLV>
-0.541803

>  <SCORE.INTRA.SOLV.lig_0>
-49.9151

>  <SCORE.INTRA.VDW>
-2.93066

>  <SCORE.INTRA.VDW.0>
-0.211125

>  <SCORE.INTRA.norm>
-0.0176004

>  <SCORE.RESTR>
0

>  <SCORE.RESTR.CAVITY>
0

>  <SCORE.RESTR.norm>
0

>  <SCORE.SYSTEM>
0

>  <SCORE.SYSTEM.CONST>
0

>  <SCORE.SYSTEM.DIHEDRAL>
0

>  <SCORE.SYSTEM.SOLV>
0

>  <SCORE.SYSTEM.norm>
0

>  <SCORE.heavy>
26

>  <SCORE.norm>
-0.334711

>  <RMSD>
5.227

$$$$
ligand
 OpenBabel11021811483D
libRbt.so/2013.1/901 2013/11/27
 26 28  0  0  0  0  0  0  0  0999 V2000
   45.2239   58.1468   31.5432 N   0  0  0  0  0  0  0  0  0  0  0  0
   46.0683   59.2790   31.9342 C   0  0  2  0  0  0  0  0  0  0  0  0
   45.4210   60.6487   31.7178 C   0  0  0  0  0  0  0  0  0  0  0  0
   46.1044   61.6527   31.9204 O   0  0  0  0  0  0  0  0  0  0  0  0
   47.4433   59.3251   31.2552 C   0  0  0  0  0  0  0  0  0  0  0  0
   48.5266   58.3212   31.6091 C   0  0  0  0  0  0  0  0  0  0  0  0
   48.9982   58.6568   33.3216 S   0  0  0  0  0  0  0  0  0  0  0  0
   49.4836   56.9174   33.4226 C   0  0  0  0  0  0  0  0  0  0  0  0
   48.3994   55.9879   33.9783 C   0  0  1  0  0  0  0  0  0  0  0  0
   47.3405   55.7359   33.0474 O   0  0  0  0  0  0  0  0  0  0  0  0
   48.9881   54.6384   34.3632 C   0  0  1  0  0  0  0  0  0  0  0  0
   49.3751   54.6138   35.7193 O   0  0  0  0  0  0  0  0  0  0  0  0
   47.8907   53.6349   34.0333 C   0  0  1  0  0  0  0  0  0  0  0  0
   47.0507   53.3966   35.1447 O   0  0  0  0  0  0  0  0  0  0  0  0
   47.0685   54.3458   32.9764 C   0  0  2  0  0  0  0  0  0  0  0  0
   44.2522   60.7879   31.3365 O   0  0  0  0  0  0  0  0  0  0  0  0
   50.0844   54.6550   28.6838 N   0  0  0  0  0  0  0  0  0  0  0  0
   50.1703   55.3936   29.8370 C   0  0  0  0  0  0  0  0  0  0  0  0
   49.2692   55.1801   30.8589 N   0  0  0  0  0  0  0  0  0  0  0  0
   48.3215   54.2308   30.7632 C   0  0  0  0  0  0  0  0  0  0  0  0
   48.2191   53.4735   29.6087 C   0  0  0  0  0  0  0  0  0  0  0  0
   49.1061   53.6988   28.5748 C   0  0  0  0  0  0  0  0  0  0  0  0
   49.0346   52.9807   27.4708 N   0  0  0  0  0  0  0  0  0  0  0  0
   47.1975   52.6017   29.7618 N   0  0  0  0  0  0  0  0  0  0  0  0
   46.6391   52.8127   30.9804 C   0  0  0  0  0  0  0  0  0  0  0  0
   47.3292   53.8219   31.6155 N   0  0  0  0  0  0  0  0  0  0  0  0
  2  1  1  6  0  0  0
  2  3  1  0  0  0  0
  2  5  1  0  0  0  0
  3  4  1  0  0  0  0
  3 16  1  0  0  0  0
  5  6  1  0  0  0  0
  6  7  1  0  0  0  0
  7  8  1  0  0  0  0
  9  8  1  6  0  0  0
  9 10  1  0  0  0  0
  9 11  1  0  0  0  0
 10 15  1  0  0  0  0
 11 12  1  1  0  0  0
 11 13  1  0  0  0  0
 13 14  1  1  0  0  0
 13 15  1  0  0  0  0
 15 26  1  6  0  0  0
 17 18  2  0  0  0  0
 17 22  1  0  0  0  0
 18 19  1  0  0  0  0
 19 20  2  0  0  0  0
 20 21  1  0  0  0  0
 20 26  1  0  0  0  0
 21 22  2  0  0  0  0
 21 24  1  0  0  0  0
 22 23  1  0  0  0  0
 24 25  2  0  0  0  0
 25 26  1  0  0  0  0
M  END
>  <CHROM.1>
-174.28095071,-70.81929772,-66.56251376,153.39328244,-94.37440453,74.14640720
35.32868260,47.83532336,56.15743550,31.89501849,2.84439030,-1.24985412,1.45757846

>  <Name>
ligand

>  <RI>
0

>  <Rbt.Current_Directory>
/home/itssahil/PROJECTS/Mol_Feturizer/New_Systems/rnas/3GX3

>  <Rbt.Executable>
rbdock ($Id: //depot/dev/client3/rdock/2013.1/src/exe/rbdock.cxx#4 $)

>  <Rbt.Library>
libRbt.so (2013.1, Build901 2013/11/27)

>  <Rbt.Parameter_File>
/export/apps/rDock/src/rDock_2013.1_src/data/scripts/dock_solv.prm

>  <Rbt.Receptor>
prm/pocket_docking_5.prm

>  <SCORE>
-21.5303

>  <SCORE.INTER>
-18.8341

>  <SCORE.INTER.CONST>
1

>  <SCORE.INTER.POLAR>
0

>  <SCORE.INTER.ROT>
7

>  <SCORE.INTER.SOLV>
8.96407

>  <SCORE.INTER.VDW>
-23.8108

>  <SCORE.INTER.norm>
-0.724389

>  <SCORE.INTRA>
-2.69779

>  <SCORE.INTRA.DIHEDRAL>
0.765207

>  <SCORE.INTRA.DIHEDRAL.0>
5.78979

>  <SCORE.INTRA.POLAR>
0

>  <SCORE.INTRA.POLAR.0>
0

>  <SCORE.INTRA.REPUL>
0

>  <SCORE.INTRA.REPUL.0>
0

>  <SCORE.INTRA.SOLV>
0.664675

>  <SCORE.INTRA.SOLV.lig_0>
-49.9151

>  <SCORE.INTRA.VDW>
-3.41273

>  <SCORE.INTRA.VDW.0>
-0.211125

>  <SCORE.INTRA.norm>
-0.103761

>  <SCORE.RESTR>
0.00156802

>  <SCORE.RESTR.CAVITY>
0.00156802

>  <SCORE.RESTR.norm>
6.03086e-05

>  <SCORE.SYSTEM>
0

>  <SCORE.SYSTEM.CONST>
0

>  <SCORE.SYSTEM.DIHEDRAL>
0

>  <SCORE.SYSTEM.SOLV>
0

>  <SCORE.SYSTEM.norm>
0

>  <SCORE.heavy>
26

>  <SCORE.norm>
-0.82809

>  <RMSD>
5.230

$$$$
ligand
 OpenBabel11021811483D
libRbt.so/2013.1/901 2013/11/27
 26 28  0  0  0  0  0  0  0  0999 V2000
   45.4189   55.2297   30.1850 N   0  0  0  0  0  0  0  0  0  0  0  0
   44.0080   55.0114   29.8538 C   0  0  2  0  0  0  0  0  0  0  0  0
   43.3052   56.2360   29.2637 C   0  0  0  0  0  0  0  0  0  0  0  0
   44.0004   57.1160   28.7555 O   0  0  0  0  0  0  0  0  0  0  0  0
   43.1392   54.5186   31.0183 C   0  0  0  0  0  0  0  0  0  0  0  0
   42.7290   55.4550   32.1415 C   0  0  0  0  0  0  0  0  0  0  0  0
   44.2512   55.9410   32.9867 S   0  0  0  0  0  0  0  0  0  0  0  0
   44.1835   57.4660   32.0167 C   0  0  0  0  0  0  0  0  0  0  0  0
   45.2151   58.5232   32.4247 C   0  0  1  0  0  0  0  0  0  0  0  0
   46.4970   57.9684   32.7410 O   0  0  0  0  0  0  0  0  0  0  0  0
   45.4276   59.5327   31.3059 C   0  0  1  0  0  0  0  0  0  0  0  0
   44.5748   60.6469   31.4496 O   0  0  0  0  0  0  0  0  0  0  0  0
   46.9052   59.8921   31.3915 C   0  0  1  0  0  0  0  0  0  0  0  0
   47.1213   61.0169   32.2196 O   0  0  0  0  0  0  0  0  0  0  0  0
   47.5222   58.6885   32.0762 C   0  0  2  0  0  0  0  0  0  0  0  0
   42.0753   56.3706   29.2630 O   0  0  0  0  0  0  0  0  0  0  0  0
   48.2383   57.3401   27.0476 N   0  0  0  0  0  0  0  0  0  0  0  0
   47.3744   58.2740   27.5616 C   0  0  0  0  0  0  0  0  0  0  0  0
   47.3137   58.4780   28.9242 N   0  0  0  0  0  0  0  0  0  0  0  0
   48.1153   57.8006   29.7650 C   0  0  0  0  0  0  0  0  0  0  0  0
   48.9952   56.8552   29.2663 C   0  0  0  0  0  0  0  0  0  0  0  0
   49.0439   56.6329   27.9045 C   0  0  0  0  0  0  0  0  0  0  0  0
   49.8833   55.7458   27.4065 N   0  0  0  0  0  0  0  0  0  0  0  0
   49.6769   56.3203   30.3038 N   0  0  0  0  0  0  0  0  0  0  0  0
   49.2252   56.8929   31.4481 C   0  0  0  0  0  0  0  0  0  0  0  0
   48.2549   57.8172   31.1283 N   0  0  0  0  0  0  0  0  0  0  0  0
  2  1  1  1  0  0  0
  2  3  1  0  0  0  0
  2  5  1  0  0  0  0
  3  4  1  0  0  0  0
  3 16  1  0  0  0  0
  5  6  1  0  0  0  0
  6  7  1  0  0  0  0
  7  8  1  0  0  0  0
  9  8  1  6  0  0  0
  9 10  1  0  0  0  0
  9 11  1  0  0  0  0
 10 15  1  0  0  0  0
 11 12  1  1  0  0  0
 11 13  1  0  0  0  0
 13 14  1  1  0  0  0
 13 15  1  0  0  0  0
 15 26  1  6  0  0  0
 17 18  2  0  0  0  0
 17 22  1  0  0  0  0
 18 19  1  0  0  0  0
 19 20  2  0  0  0  0
 20 21  1  0  0  0  0
 20 26  1  0  0  0  0
 21 22  2  0  0  0  0
 21 24  1  0  0  0  0
 22 23  1  0  0  0  0
 24 25  2  0  0  0  0
 25 26  1  0  0  0  0
M  END
>  <CHROM.1>
21.10100232,73.80661411,-64.37878485,98.95767475,171.85755832,39.93076450
103.35644864,46.07634925,57.33540274,30.54189011,3.00422508,0.42475767,0.78507322

>  <Name>
ligand

>  <RI>
0

>  <Rbt.Current_Directory>
/home/itssahil/PROJECTS/Mol_Feturizer/New_Systems/rnas/3GX3

>  <Rbt.Executable>
rbdock ($Id: //depot/dev/client3/rdock/2013.1/src/exe/rbdock.cxx#4 $)

>  <Rbt.Library>
libRbt.so (2013.1, Build901 2013/11/27)

>  <Rbt.Parameter_File>
/export/apps/rDock/src/rDock_2013.1_src/data/scripts/dock_solv.prm

>  <Rbt.Receptor>
prm/pocket_docking_8.prm

>  <SCORE>
-15.3851

>  <SCORE.INTER>
-14.6842

>  <SCORE.INTER.CONST>
1

>  <SCORE.INTER.POLAR>
0

>  <SCORE.INTER.ROT>
7

>  <SCORE.INTER.SOLV>
12.5146

>  <SCORE.INTER.VDW>
-22.2276

>  <SCORE.INTER.norm>
-0.564777

>  <SCORE.INTRA>
-0.700861

>  <SCORE.INTRA.DIHEDRAL>
0.934895

>  <SCORE.INTRA.DIHEDRAL.0>
5.78979

>  <SCORE.INTRA.POLAR>
0

>  <SCORE.INTRA.POLAR.0>
0

>  <SCORE.INTRA.REPUL>
0

>  <SCORE.INTRA.REPUL.0>
0

>  <SCORE.INTRA.SOLV>
2.77538

>  <SCORE.INTRA.SOLV.lig_0>
-49.9151

>  <SCORE.INTRA.VDW>
-2.556

>  <SCORE.INTRA.VDW.0>
-0.211125

>  <SCORE.INTRA.norm>
-0.0269562

>  <SCORE.RESTR>
0

>  <SCORE.RESTR.CAVITY>
0

>  <SCORE.RESTR.norm>
0

>  <SCORE.SYSTEM>
0

>  <SCORE.SYSTEM.CONST>
0

>  <SCORE.SYSTEM.DIHEDRAL>
0

>  <SCORE.SYSTEM.SOLV>
0

>  <SCORE.SYSTEM.norm>
0

>  <SCORE.heavy>
26

>  <SCORE.norm>
-0.591733

>  <RMSD>
5.243

$$$$
ligand
 OpenBabel11021811483D
libRbt.so/2013.1/901 2013/11/27
 26 28  0  0  0  0  0  0  0  0999 V2000
   48.6186   53.8179   30.5009 N   0  0  0  0  0  0  0  0  0  0  0  0
   49.3473   54.2026   29.2889 C   0  0  2  0  0  0  0  0  0  0  0  0
   50.8128   53.7626   29.2715 C   0  0  0  0  0  0  0  0  0  0  0  0
   51.2040   53.0099   30.1640 O   0  0  0  0  0  0  0  0  0  0  0  0
   49.3303   55.7038   28.9730 C   0  0  0  0  0  0  0  0  0  0  0  0
   48.0210   56.4562   28.8110 C   0  0  0  0  0  0  0  0  0  0  0  0
   48.4454   58.0953   28.1779 S   0  0  0  0  0  0  0  0  0  0  0  0
   48.2113   58.6975   29.8672 C   0  0  0  0  0  0  0  0  0  0  0  0
   46.7557   59.0049   30.2346 C   0  0  1  0  0  0  0  0  0  0  0  0
   45.9602   57.8287   30.4213 O   0  0  0  0  0  0  0  0  0  0  0  0
   46.6808   59.8061   31.5262 C   0  0  1  0  0  0  0  0  0  0  0  0
   46.6641   61.1932   31.2710 O   0  0  0  0  0  0  0  0  0  0  0  0
   45.4162   59.3064   32.2128 C   0  0  1  0  0  0  0  0  0  0  0  0
   44.2899   60.0847   31.8619 O   0  0  0  0  0  0  0  0  0  0  0  0
   45.2213   57.9212   31.6283 C   0  0  2  0  0  0  0  0  0  0  0  0
   51.6116   54.1175   28.3958 O   0  0  0  0  0  0  0  0  0  0  0  0
   49.1239   55.7803   34.4219 N   0  0  0  0  0  0  0  0  0  0  0  0
   49.1774   56.8602   33.5772 C   0  0  0  0  0  0  0  0  0  0  0  0
   48.0415   57.2685   32.9102 N   0  0  0  0  0  0  0  0  0  0  0  0
   46.8636   56.6474   33.0985 C   0  0  0  0  0  0  0  0  0  0  0  0
   46.7880   55.5567   33.9480 C   0  0  0  0  0  0  0  0  0  0  0  0
   47.9277   55.1318   34.6013 C   0  0  0  0  0  0  0  0  0  0  0  0
   47.8761   54.1027   35.4246 N   0  0  0  0  0  0  0  0  0  0  0  0
   45.5099   55.1168   33.9616 N   0  0  0  0  0  0  0  0  0  0  0  0
   44.7851   55.8938   33.1178 C   0  0  0  0  0  0  0  0  0  0  0  0
   45.6136   56.8516   32.5752 N   0  0  0  0  0  0  0  0  0  0  0  0
  2  1  1  1  0  0  0
  2  3  1  0  0  0  0
  2  5  1  0  0  0  0
  3  4  1  0  0  0  0
  3 16  1  0  0  0  0
  5  6  1  0  0  0  0
  6  7  1  0  0  0  0
  7  8  1  0  0  0  0
  9  8  1  1  0  0  0
  9 10  1  0  0  0  0
  9 11  1  0  0  0  0
 10 15  1  0  0  0  0
 11 12  1  6  0  0  0
 11 13  1  0  0  0  0
 13 14  1  6  0  0  0
 13 15  1  0  0  0  0
 15 26  1  1  0  0  0
 17 18  2  0  0  0  0
 17 22  1  0  0  0  0
 18 19  1  0  0  0  0
 19 20  2  0  0  0  0
 20 21  1  0  0  0  0
 20 26  1  0  0  0  0
 21 22  2  0  0  0  0
 21 24  1  0  0  0  0
 22 23  1  0  0  0  0
 24 25  2  0  0  0  0
 25 26  1  0  0  0  0
M  END
>  <CHROM.1>
8.46398896,-56.55681142,-170.59033759,-101.61235931,-83.54539775,73.12782461
60.24821310,47.68406173,56.72372138,31.31867846,0.10328328,-0.84150012,2.22278165

>  <Name>
ligand

>  <RI>
0

>  <Rbt.Current_Directory>
/home/itssahil/PROJECTS/Mol_Feturizer/New_Systems/rnas/3GX3

>  <Rbt.Executable>
rbdock ($Id: //depot/dev/client3/rdock/2013.1/src/exe/rbdock.cxx#4 $)

>  <Rbt.Library>
libRbt.so (2013.1, Build901 2013/11/27)

>  <Rbt.Parameter_File>
/export/apps/rDock/src/rDock_2013.1_src/data/scripts/dock_solv.prm

>  <Rbt.Receptor>
prm/pocket_docking_4.prm

>  <SCORE>
-17.1157

>  <SCORE.INTER>
-14.4912

>  <SCORE.INTER.CONST>
1

>  <SCORE.INTER.POLAR>
0

>  <SCORE.INTER.ROT>
7

>  <SCORE.INTER.SOLV>
13.5804

>  <SCORE.INTER.VDW>
-22.4542

>  <SCORE.INTER.norm>
-0.557352

>  <SCORE.INTRA>
-2.62456

>  <SCORE.INTRA.DIHEDRAL>
0.658679

>  <SCORE.INTRA.DIHEDRAL.0>
5.78979

>  <SCORE.INTRA.POLAR>
0

>  <SCORE.INTRA.POLAR.0>
0

>  <SCORE.INTRA.REPUL>
0

>  <SCORE.INTRA.REPUL.0>
0

>  <SCORE.INTRA.SOLV>
-0.326995

>  <SCORE.INTRA.SOLV.lig_0>
-49.9151

>  <SCORE.INTRA.VDW>
-2.79041

>  <SCORE.INTRA.VDW.0>
-0.211125

>  <SCORE.INTRA.norm>
-0.100945

>  <SCORE.RESTR>
0

>  <SCORE.RESTR.CAVITY>
0

>  <SCORE.RESTR.norm>
0

>  <SCORE.SYSTEM>
0

>  <SCORE.SYSTEM.CONST>
0

>  <SCORE.SYSTEM.DIHEDRAL>
0

>  <SCORE.SYSTEM.SOLV>
0

>  <SCORE.SYSTEM.norm>
0

>  <SCORE.heavy>
26

>  <SCORE.norm>
-0.658297

>  <RMSD>
5.264

$$$$
ligand
 OpenBabel11021811483D
libRbt.so/2013.1/901 2013/11/27
 26 28  0  0  0  0  0  0  0  0999 V2000
   44.4773   60.5105   31.9403 N   0  0  0  0  0  0  0  0  0  0  0  0
   45.5563   60.3108   30.9689 C   0  0  2  0  0  0  0  0  0  0  0  0
   45.5800   58.9184   30.3347 C   0  0  0  0  0  0  0  0  0  0  0  0
   45.0559   57.9903   30.9511 O   0  0  0  0  0  0  0  0  0  0  0  0
   46.9681   60.5784   31.5064 C   0  0  0  0  0  0  0  0  0  0  0  0
   47.6041   59.6570   32.5326 C   0  0  0  0  0  0  0  0  0  0  0  0
   48.4045   58.3286   31.6039 S   0  0  0  0  0  0  0  0  0  0  0  0
   48.3453   57.3619   33.1315 C   0  0  0  0  0  0  0  0  0  0  0  0
   48.9763   55.9694   33.0253 C   0  0  1  0  0  0  0  0  0  0  0  0
   49.1135   55.3139   34.2912 O   0  0  0  0  0  0  0  0  0  0  0  0
   48.1369   55.0607   32.1389 C   0  0  1  0  0  0  0  0  0  0  0  0
   48.5729   55.1042   30.7982 O   0  0  0  0  0  0  0  0  0  0  0  0
   48.2719   53.6810   32.7700 C   0  0  1  0  0  0  0  0  0  0  0  0
   49.3469   52.9541   32.2098 O   0  0  0  0  0  0  0  0  0  0  0  0
   48.6221   53.9858   34.2132 C   0  0  2  0  0  0  0  0  0  0  0  0
   46.0875   58.6910   29.2294 O   0  0  0  0  0  0  0  0  0  0  0  0
   43.4786   52.9766   34.5915 N   0  0  0  0  0  0  0  0  0  0  0  0
   44.2385   53.0996   33.4558 C   0  0  0  0  0  0  0  0  0  0  0  0
   45.5835   53.3877   33.5562 N   0  0  0  0  0  0  0  0  0  0  0  0
   46.1791   53.5170   34.7549 C   0  0  0  0  0  0  0  0  0  0  0  0
   45.4304   53.3949   35.9130 C   0  0  0  0  0  0  0  0  0  0  0  0
   44.0793   53.1274   35.8162 C   0  0  0  0  0  0  0  0  0  0  0  0
   43.3492   52.9949   36.9066 N   0  0  0  0  0  0  0  0  0  0  0  0
   46.2535   53.5677   36.9712 N   0  0  0  0  0  0  0  0  0  0  0  0
   47.5009   53.8212   36.5011 C   0  0  0  0  0  0  0  0  0  0  0  0
   47.4703   53.7907   35.1240 N   0  0  0  0  0  0  0  0  0  0  0  0
  2  1  1  1  0  0  0
  2  3  1  0  0  0  0
  2  5  1  0  0  0  0
  3  4  1  0  0  0  0
  3 16  1  0  0  0  0
  5  6  1  0  0  0  0
  6  7  1  0  0  0  0
  7  8  1  0  0  0  0
  9  8  1  1  0  0  0
  9 10  1  0  0  0  0
  9 11  1  0  0  0  0
 10 15  1  0  0  0  0
 11 12  1  6  0  0  0
 11 13  1  0  0  0  0
 13 14  1  6  0  0  0
 13 15  1  0  0  0  0
 15 26  1  1  0  0  0
 17 18  2  0  0  0  0
 17 22  1  0  0  0  0
 18 19  1  0  0  0  0
 19 20  2  0  0  0  0
 20 21  1  0  0  0  0
 20 26  1  0  0  0  0
 21 22  2  0  0  0  0
 21 24  1  0  0  0  0
 22 23  1  0  0  0  0
 24 25  2  0  0  0  0
 25 26  1  0  0  0  0
M  END
>  <CHROM.1>
-23.75160369,69.29490970,86.69311993,-159.55397284,-178.35817649,170.38085216
114.81992236,46.77264157,55.87417853,33.12114437,1.45139048,0.27581528,-0.58248192

>  <Name>
ligand

>  <RI>
0

>  <Rbt.Current_Directory>
/home/itssahil/PROJECTS/Mol_Feturizer/New_Systems/rnas/3GX3

>  <Rbt.Executable>
rbdock ($Id: //depot/dev/client3/rdock/2013.1/src/exe/rbdock.cxx#4 $)

>  <Rbt.Library>
libRbt.so (2013.1, Build901 2013/11/27)

>  <Rbt.Parameter_File>
/export/apps/rDock/src/rDock_2013.1_src/data/scripts/dock_solv.prm

>  <Rbt.Receptor>
prm/pocket_docking_7.prm

>  <SCORE>
-18.5945

>  <SCORE.INTER>
-16.2246

>  <SCORE.INTER.CONST>
1

>  <SCORE.INTER.POLAR>
0

>  <SCORE.INTER.ROT>
7

>  <SCORE.INTER.SOLV>
16.9395

>  <SCORE.INTER.VDW>
-24.7296

>  <SCORE.INTER.norm>
-0.624022

>  <SCORE.INTRA>
-2.38343

>  <SCORE.INTRA.DIHEDRAL>
0.596682

>  <SCORE.INTRA.DIHEDRAL.0>
5.78979

>  <SCORE.INTRA.POLAR>
0

>  <SCORE.INTRA.POLAR.0>
0

>  <SCORE.INTRA.REPUL>
0

>  <SCORE.INTRA.REPUL.0>
0

>  <SCORE.INTRA.SOLV>
-0.176045

>  <SCORE.INTRA.SOLV.lig_0>
-49.9151

>  <SCORE.INTRA.VDW>
-2.59375

>  <SCORE.INTRA.VDW.0>
-0.211125

>  <SCORE.INTRA.norm>
-0.0916704

>  <SCORE.RESTR>
0.0135416

>  <SCORE.RESTR.CAVITY>
0.0135416

>  <SCORE.RESTR.norm>
0.00052083

>  <SCORE.SYSTEM>
0

>  <SCORE.SYSTEM.CONST>
0

>  <SCORE.SYSTEM.DIHEDRAL>
0

>  <SCORE.SYSTEM.SOLV>
0

>  <SCORE.SYSTEM.norm>
0

>  <SCORE.heavy>
26

>  <SCORE.norm>
-0.715171

>  <RMSD>
5.273

$$$$
ligand
 OpenBabel11021811483D
libRbt.so/2013.1/901 2013/11/27
 26 28  0  0  0  0  0  0  0  0999 V2000
   49.1221   53.2739   27.9215 N   0  0  0  0  0  0  0  0  0  0  0  0
   49.7464   54.5607   27.6018 C   0  0  2  0  0  0  0  0  0  0  0  0
   51.2758   54.5238   27.5631 C   0  0  0  0  0  0  0  0  0  0  0  0
   51.8536   55.2373   26.7427 O   0  0  0  0  0  0  0  0  0  0  0  0
   49.3532   55.7184   28.5285 C   0  0  0  0  0  0  0  0  0  0  0  0
   49.8924   55.8062   29.9456 C   0  0  0  0  0  0  0  0  0  0  0  0
   49.3507   54.3054   30.7952 S   0  0  0  0  0  0  0  0  0  0  0  0
   48.8829   55.3766   32.1754 C   0  0  0  0  0  0  0  0  0  0  0  0
   47.7021   56.3084   31.8827 C   0  0  1  0  0  0  0  0  0  0  0  0
   46.4731   55.6086   31.6573 O   0  0  0  0  0  0  0  0  0  0  0  0
   47.4667   57.2651   33.0426 C   0  0  1  0  0  0  0  0  0  0  0  0
   48.1657   58.4765   32.8603 O   0  0  0  0  0  0  0  0  0  0  0  0
   45.9549   57.4450   33.0884 C   0  0  1  0  0  0  0  0  0  0  0  0
   45.5373   58.5498   32.3122 O   0  0  0  0  0  0  0  0  0  0  0  0
   45.4296   56.1878   32.4236 C   0  0  2  0  0  0  0  0  0  0  0  0
   51.9514   53.8225   28.3265 O   0  0  0  0  0  0  0  0  0  0  0  0
   41.1756   53.6135   34.1249 N   0  0  0  0  0  0  0  0  0  0  0  0
   41.2658   54.5196   33.0985 C   0  0  0  0  0  0  0  0  0  0  0  0
   42.4773   55.1113   32.8082 N   0  0  0  0  0  0  0  0  0  0  0  0
   43.5895   54.7902   33.4925 C   0  0  0  0  0  0  0  0  0  0  0  0
   43.5201   53.8769   34.5307 C   0  0  0  0  0  0  0  0  0  0  0  0
   42.3049   53.2982   34.8381 C   0  0  0  0  0  0  0  0  0  0  0  0
   42.2180   52.4164   35.8151 N   0  0  0  0  0  0  0  0  0  0  0  0
   44.7588   53.7314   35.0520 N   0  0  0  0  0  0  0  0  0  0  0  0
   45.6016   54.5544   34.3784 C   0  0  0  0  0  0  0  0  0  0  0  0
   44.8886   55.2179   33.4040 N   0  0  0  0  0  0  0  0  0  0  0  0
  2  1  1  1  0  0  0
  2  3  1  0  0  0  0
  2  5  1  0  0  0  0
  3  4  1  0  0  0  0
  3 16  1  0  0  0  0
  5  6  1  0  0  0  0
  6  7  1  0  0  0  0
  7  8  1  0  0  0  0
  9  8  1  1  0  0  0
  9 10  1  0  0  0  0
  9 11  1  0  0  0  0
 10 15  1  0  0  0  0
 11 12  1  6  0  0  0
 11 13  1  0  0  0  0
 13 14  1  6  0  0  0
 13 15  1  0  0  0  0
 15 26  1  1  0  0  0
 17 18  2  0  0  0  0
 17 22  1  0  0  0  0
 18 19  1  0  0  0  0
 19 20  2  0  0  0  0
 20 21  1  0  0  0  0
 20 26  1  0  0  0  0
 21 22  2  0  0  0  0
 21 24  1  0  0  0  0
 22 23  1  0  0  0  0
 24 25  2  0  0  0  0
 25 26  1  0  0  0  0
M  END
>  <CHROM.1>
145.23724757,73.60656095,-59.84675129,-134.43839988,67.98494835,65.22714464
-121.44049715,46.78511080,55.14221418,31.73855619,0.19020621,-0.62296366
-2.73424715

>  <Name>
ligand

>  <RI>
0

>  <Rbt.Current_Directory>
/home/itssahil/PROJECTS/Mol_Feturizer/New_Systems/rnas/3GX3

>  <Rbt.Executable>
rbdock ($Id: //depot/dev/client3/rdock/2013.1/src/exe/rbdock.cxx#4 $)

>  <Rbt.Library>
libRbt.so (2013.1, Build901 2013/11/27)

>  <Rbt.Parameter_File>
/export/apps/rDock/src/rDock_2013.1_src/data/scripts/dock_solv.prm

>  <Rbt.Receptor>
prm/pocket_docking_8.prm

>  <SCORE>
-11.2975

>  <SCORE.INTER>
-9.58113

>  <SCORE.INTER.CONST>
1

>  <SCORE.INTER.POLAR>
0

>  <SCORE.INTER.ROT>
7

>  <SCORE.INTER.SOLV>
4.46346

>  <SCORE.INTER.VDW>
-16.1419

>  <SCORE.INTER.norm>
-0.368505

>  <SCORE.INTRA>
-1.72097

>  <SCORE.INTRA.DIHEDRAL>
-0.0970561

>  <SCORE.INTRA.DIHEDRAL.0>
5.78979

>  <SCORE.INTRA.POLAR>
0

>  <SCORE.INTRA.POLAR.0>
0

>  <SCORE.INTRA.REPUL>
0

>  <SCORE.INTRA.REPUL.0>
0

>  <SCORE.INTRA.SOLV>
0.779468

>  <SCORE.INTRA.SOLV.lig_0>
-49.9151

>  <SCORE.INTRA.VDW>
-2.06217

>  <SCORE.INTRA.VDW.0>
-0.211125

>  <SCORE.INTRA.norm>
-0.0661911

>  <SCORE.RESTR>
0.0046278

>  <SCORE.RESTR.CAVITY>
0.0046278

>  <SCORE.RESTR.norm>
0.000177992

>  <SCORE.SYSTEM>
0

>  <SCORE.SYSTEM.CONST>
0

>  <SCORE.SYSTEM.DIHEDRAL>
0

>  <SCORE.SYSTEM.SOLV>
0

>  <SCORE.SYSTEM.norm>
0

>  <SCORE.heavy>
26

>  <SCORE.norm>
-0.434518

>  <RMSD>
5.275

$$$$
ligand
 OpenBabel11021811483D
libRbt.so/2013.1/901 2013/11/27
 26 28  0  0  0  0  0  0  0  0999 V2000
   44.7944   60.7928   30.8174 N   0  0  0  0  0  0  0  0  0  0  0  0
   45.4610   59.6938   31.5215 C   0  0  2  0  0  0  0  0  0  0  0  0
   46.9031   59.9962   31.9345 C   0  0  0  0  0  0  0  0  0  0  0  0
   47.3453   59.4480   32.9445 O   0  0  0  0  0  0  0  0  0  0  0  0
   45.4863   58.3606   30.7628 C   0  0  0  0  0  0  0  0  0  0  0  0
   46.3312   58.1857   29.5129 C   0  0  0  0  0  0  0  0  0  0  0  0
   48.0370   57.9721   30.0718 S   0  0  0  0  0  0  0  0  0  0  0  0
   48.4658   57.7040   28.3352 C   0  0  0  0  0  0  0  0  0  0  0  0
   49.3583   56.4839   28.0837 C   0  0  1  0  0  0  0  0  0  0  0  0
   50.1894   56.1524   29.2020 O   0  0  0  0  0  0  0  0  0  0  0  0
   48.5185   55.2542   27.7696 C   0  0  1  0  0  0  0  0  0  0  0  0
   48.3236   55.1055   26.3806 O   0  0  0  0  0  0  0  0  0  0  0  0
   49.2863   54.0973   28.3957 C   0  0  1  0  0  0  0  0  0  0  0  0
   50.1859   53.5104   27.4770 O   0  0  0  0  0  0  0  0  0  0  0  0
   50.1055   54.7647   29.4828 C   0  0  2  0  0  0  0  0  0  0  0  0
   47.6426   60.7520   31.2920 O   0  0  0  0  0  0  0  0  0  0  0  0
   48.9914   56.8571   34.1731 N   0  0  0  0  0  0  0  0  0  0  0  0
   49.5756   57.4636   33.0899 C   0  0  0  0  0  0  0  0  0  0  0  0
   49.8072   56.7401   31.9388 N   0  0  0  0  0  0  0  0  0  0  0  0
   49.4372   55.4509   31.8417 C   0  0  0  0  0  0  0  0  0  0  0  0
   48.8447   54.8209   32.9228 C   0  0  0  0  0  0  0  0  0  0  0  0
   48.6304   55.5360   34.0843 C   0  0  0  0  0  0  0  0  0  0  0  0
   48.0563   54.9593   35.1222 N   0  0  0  0  0  0  0  0  0  0  0  0
   48.5738   53.5434   32.5738 N   0  0  0  0  0  0  0  0  0  0  0  0
   49.0074   53.3501   31.3026 C   0  0  0  0  0  0  0  0  0  0  0  0
   49.5450   54.5287   30.8336 N   0  0  0  0  0  0  0  0  0  0  0  0
  2  1  1  6  0  0  0
  2  3  1  0  0  0  0
  2  5  1  0  0  0  0
  3  4  1  0  0  0  0
  3 16  1  0  0  0  0
  5  6  1  0  0  0  0
  6  7  1  0  0  0  0
  7  8  1  0  0  0  0
  9  8  1  1  0  0  0
  9 10  1  0  0  0  0
  9 11  1  0  0  0  0
 10 15  1  0  0  0  0
 11 12  1  6  0  0  0
 11 13  1  0  0  0  0
 13 14  1  6  0  0  0
 13 15  1  0  0  0  0
 15 26  1  1  0  0  0
 17 18  2  0  0  0  0
 17 22  1  0  0  0  0
 18 19  1  0  0  0  0
 19 20  2  0  0  0  0
 20 21  1  0  0  0  0
 20 26  1  0  0  0  0
 21 22  2  0  0  0  0
 21 24  1  0  0  0  0
 22 23  1  0  0  0  0
 24 25  2  0  0  0  0
 25 26  1  0  0  0  0
M  END
>  <CHROM.1>
150.19744675,69.36824719,77.23996653,175.93314484,-132.64967587,-27.70814254
-16.37851791,48.32283093,56.69681263,30.73684071,2.68181184,-1.06272074,1.58119148

>  <Name>
ligand

>  <RI>
0

>  <Rbt.Current_Directory>
/home/itssahil/PROJECTS/Mol_Feturizer/New_Systems/rnas/3GX3

>  <Rbt.Executable>
rbdock ($Id: //depot/dev/client3/rdock/2013.1/src/exe/rbdock.cxx#4 $)

>  <Rbt.Library>
libRbt.so (2013.1, Build901 2013/11/27)

>  <Rbt.Parameter_File>
/export/apps/rDock/src/rDock_2013.1_src/data/scripts/dock_solv.prm

>  <Rbt.Receptor>
prm/pocket_docking_3.prm

>  <SCORE>
-12.93

>  <SCORE.INTER>
-11.0673

>  <SCORE.INTER.CONST>
1

>  <SCORE.INTER.POLAR>
0

>  <SCORE.INTER.ROT>
7

>  <SCORE.INTER.SOLV>
17.0421

>  <SCORE.INTER.VDW>
-21.3256

>  <SCORE.INTER.norm>
-0.425667

>  <SCORE.INTRA>
-1.86265

>  <SCORE.INTRA.DIHEDRAL>
3.50237

>  <SCORE.INTRA.DIHEDRAL.0>
5.78979

>  <SCORE.INTRA.POLAR>
0

>  <SCORE.INTRA.POLAR.0>
0

>  <SCORE.INTRA.REPUL>
0

>  <SCORE.INTRA.REPUL.0>
0

>  <SCORE.INTRA.SOLV>
0.103715

>  <SCORE.INTRA.SOLV.lig_0>
-49.9151

>  <SCORE.INTRA.VDW>
-3.66569

>  <SCORE.INTRA.VDW.0>
-0.211125

>  <SCORE.INTRA.norm>
-0.0716402

>  <SCORE.RESTR>
0

>  <SCORE.RESTR.CAVITY>
0

>  <SCORE.RESTR.norm>
0

>  <SCORE.SYSTEM>
0

>  <SCORE.SYSTEM.CONST>
0

>  <SCORE.SYSTEM.DIHEDRAL>
0

>  <SCORE.SYSTEM.SOLV>
0

>  <SCORE.SYSTEM.norm>
0

>  <SCORE.heavy>
26

>  <SCORE.norm>
-0.497307

>  <RMSD>
5.281

$$$$
ligand
 OpenBabel11021811483D
libRbt.so/2013.1/901 2013/11/27
 26 28  0  0  0  0  0  0  0  0999 V2000
   47.7737   58.6199   27.7240 N   0  0  0  0  0  0  0  0  0  0  0  0
   47.4973   57.6522   28.7893 C   0  0  2  0  0  0  0  0  0  0  0  0
   46.0657   57.7034   29.3276 C   0  0  0  0  0  0  0  0  0  0  0  0
   45.5217   58.8034   29.4278 O   0  0  0  0  0  0  0  0  0  0  0  0
   48.4317   57.7417   30.0028 C   0  0  0  0  0  0  0  0  0  0  0  0
   48.4774   58.9897   30.8670 C   0  0  0  0  0  0  0  0  0  0  0  0
   49.5113   58.5885   32.2944 S   0  0  0  0  0  0  0  0  0  0  0  0
   47.9771   58.1956   33.1680 C   0  0  0  0  0  0  0  0  0  0  0  0
   47.3415   56.8610   32.7638 C   0  0  1  0  0  0  0  0  0  0  0  0
   48.0998   55.7230   33.1890 O   0  0  0  0  0  0  0  0  0  0  0  0
   45.9494   56.7209   33.3626 C   0  0  1  0  0  0  0  0  0  0  0  0
   44.9586   57.1936   32.4771 O   0  0  0  0  0  0  0  0  0  0  0  0
   45.8162   55.2363   33.6759 C   0  0  1  0  0  0  0  0  0  0  0  0
   45.2412   54.5253   32.5982 O   0  0  0  0  0  0  0  0  0  0  0  0
   47.2534   54.7755   33.8194 C   0  0  2  0  0  0  0  0  0  0  0  0
   45.4316   56.6911   29.6503 O   0  0  0  0  0  0  0  0  0  0  0  0
   45.7636   53.0324   38.5481 N   0  0  0  0  0  0  0  0  0  0  0  0
   45.0380   53.0545   37.3838 C   0  0  0  0  0  0  0  0  0  0  0  0
   45.5974   53.5725   36.2346 N   0  0  0  0  0  0  0  0  0  0  0  0
   46.8625   54.0283   36.2215 C   0  0  0  0  0  0  0  0  0  0  0  0
   47.6122   54.0132   37.3854 C   0  0  0  0  0  0  0  0  0  0  0  0
   47.0485   53.5149   38.5430 C   0  0  0  0  0  0  0  0  0  0  0  0
   47.7485   53.4795   39.6602 N   0  0  0  0  0  0  0  0  0  0  0  0
   48.8344   54.5208   37.1100 N   0  0  0  0  0  0  0  0  0  0  0  0
   48.8598   54.8784   35.8012 C   0  0  0  0  0  0  0  0  0  0  0  0
   47.6407   54.5759   35.2353 N   0  0  0  0  0  0  0  0  0  0  0  0
  2  1  1  6  0  0  0
  2  3  1  0  0  0  0
  2  5  1  0  0  0  0
  3  4  1  0  0  0  0
  3 16  1  0  0  0  0
  5  6  1  0  0  0  0
  6  7  1  0  0  0  0
  7  8  1  0  0  0  0
  9  8  1  1  0  0  0
  9 10  1  0  0  0  0
  9 11  1  0  0  0  0
 10 15  1  0  0  0  0
 11 12  1  6  0  0  0
 11 13  1  0  0  0  0
 13 14  1  6  0  0  0
 13 15  1  0  0  0  0
 15 26  1  1  0  0  0
 17 18  2  0  0  0  0
 17 22  1  0  0  0  0
 18 19  1  0  0  0  0
 19 20  2  0  0  0  0
 20 21  1  0  0  0  0
 20 26  1  0  0  0  0
 21 22  2  0  0  0  0
 21 24  1  0  0  0  0
 22 23  1  0  0  0  0
 24 25  2  0  0  0  0
 25 26  1  0  0  0  0
M  END
>  <CHROM.1>
-37.15394657,63.02106386,172.10789224,-95.18942257,75.39507558,69.26796882
161.55979626,47.10939076,56.06054836,33.48745892,-1.52677419,0.45675377,2.07680367

>  <Name>
ligand

>  <RI>
0

>  <Rbt.Current_Directory>
/home/itssahil/PROJECTS/Mol_Feturizer/New_Systems/rnas/3GX3

>  <Rbt.Executable>
rbdock ($Id: //depot/dev/client3/rdock/2013.1/src/exe/rbdock.cxx#4 $)

>  <Rbt.Library>
libRbt.so (2013.1, Build901 2013/11/27)

>  <Rbt.Parameter_File>
/export/apps/rDock/src/rDock_2013.1_src/data/scripts/dock_solv.prm

>  <Rbt.Receptor>
prm/pocket_docking_7.prm

>  <SCORE>
-19.5817

>  <SCORE.INTER>
-16.5534

>  <SCORE.INTER.CONST>
1

>  <SCORE.INTER.POLAR>
0

>  <SCORE.INTER.ROT>
7

>  <SCORE.INTER.SOLV>
15.8433

>  <SCORE.INTER.VDW>
-24.5834

>  <SCORE.INTER.norm>
-0.636671

>  <SCORE.INTRA>
-3.02826

>  <SCORE.INTRA.DIHEDRAL>
-0.540804

>  <SCORE.INTRA.DIHEDRAL.0>
5.78979

>  <SCORE.INTRA.POLAR>
0

>  <SCORE.INTRA.POLAR.0>
0

>  <SCORE.INTRA.REPUL>
0

>  <SCORE.INTRA.REPUL.0>
0

>  <SCORE.INTRA.SOLV>
-0.0650776

>  <SCORE.INTRA.SOLV.lig_0>
-49.9151

>  <SCORE.INTRA.VDW>
-2.72532

>  <SCORE.INTRA.VDW.0>
-0.211125

>  <SCORE.INTRA.norm>
-0.116472

>  <SCORE.RESTR>
0

>  <SCORE.RESTR.CAVITY>
0

>  <SCORE.RESTR.norm>
0

>  <SCORE.SYSTEM>
0

>  <SCORE.SYSTEM.CONST>
0

>  <SCORE.SYSTEM.DIHEDRAL>
0

>  <SCORE.SYSTEM.SOLV>
0

>  <SCORE.SYSTEM.norm>
0

>  <SCORE.heavy>
26

>  <SCORE.norm>
-0.753142

>  <RMSD>
5.295

$$$$
ligand
 OpenBabel11021811483D
libRbt.so/2013.1/901 2013/11/27
 26 28  0  0  0  0  0  0  0  0999 V2000
   44.9615   60.4554   30.1287 N   0  0  0  0  0  0  0  0  0  0  0  0
   45.8533   59.6435   30.9613 C   0  0  2  0  0  0  0  0  0  0  0  0
   45.1356   58.5872   31.8046 C   0  0  0  0  0  0  0  0  0  0  0  0
   45.3129   57.4014   31.5245 O   0  0  0  0  0  0  0  0  0  0  0  0
   46.7499   60.4411   31.9171 C   0  0  0  0  0  0  0  0  0  0  0  0
   47.7853   59.7463   32.7843 C   0  0  0  0  0  0  0  0  0  0  0  0
   49.1092   59.2125   31.6753 S   0  0  0  0  0  0  0  0  0  0  0  0
   49.3655   57.8286   32.8113 C   0  0  0  0  0  0  0  0  0  0  0  0
   49.3042   56.4469   32.1513 C   0  0  1  0  0  0  0  0  0  0  0  0
   49.6298   55.3783   33.0475 O   0  0  0  0  0  0  0  0  0  0  0  0
   47.9101   56.1675   31.6086 C   0  0  1  0  0  0  0  0  0  0  0  0
   47.7956   56.5592   30.2585 O   0  0  0  0  0  0  0  0  0  0  0  0
   47.7112   54.6721   31.8191 C   0  0  1  0  0  0  0  0  0  0  0  0
   48.1177   53.9275   30.6886 O   0  0  0  0  0  0  0  0  0  0  0  0
   48.6619   54.3458   32.9540 C   0  0  2  0  0  0  0  0  0  0  0  0
   44.4013   58.8730   32.7586 O   0  0  0  0  0  0  0  0  0  0  0  0
   44.1650   52.9915   35.3123 N   0  0  0  0  0  0  0  0  0  0  0  0
   44.4347   53.0510   33.9683 C   0  0  0  0  0  0  0  0  0  0  0  0
   45.6813   53.4503   33.5341 N   0  0  0  0  0  0  0  0  0  0  0  0
   46.6583   53.7514   34.4077 C   0  0  0  0  0  0  0  0  0  0  0  0
   46.4071   53.6959   35.7681 C   0  0  0  0  0  0  0  0  0  0  0  0
   45.1539   53.3170   36.2065 C   0  0  0  0  0  0  0  0  0  0  0  0
   44.8962   53.2453   37.4980 N   0  0  0  0  0  0  0  0  0  0  0  0
   47.5375   54.0426   36.4233 N   0  0  0  0  0  0  0  0  0  0  0  0
   48.4878   54.3396   35.5012 C   0  0  0  0  0  0  0  0  0  0  0  0
   47.9557   54.1609   34.2430 N   0  0  0  0  0  0  0  0  0  0  0  0
  2  1  1  1  0  0  0
  2  3  1  0  0  0  0
  2  5  1  0  0  0  0
  3  4  1  0  0  0  0
  3 16  1  0  0  0  0
  5  6  1  0  0  0  0
  6  7  1  0  0  0  0
  7  8  1  0  0  0  0
  9  8  1  1  0  0  0
  9 10  1  0  0  0  0
  9 11  1  0  0  0  0
 10 15  1  0  0  0  0
 11 12  1  6  0  0  0
 11 13  1  0  0  0  0
 13 14  1  6  0  0  0
 13 15  1  0  0  0  0
 15 26  1  1  0  0  0
 17 18  2  0  0  0  0
 17 22  1  0  0  0  0
 18 19  1  0  0  0  0
 19 20  2  0  0  0  0
 20 21  1  0  0  0  0
 20 26  1  0  0  0  0
 21 22  2  0  0  0  0
 21 24  1  0  0  0  0
 22 23  1  0  0  0  0
 24 25  2  0  0  0  0
 25 26  1  0  0  0  0
M  END
>  <CHROM.1>
111.78695971,-176.33610327,71.95393356,-149.05223254,125.21227530,174.66388502
148.80675994,47.01655948,56.20226425,33.00380615,1.42138371,0.28879265,-0.55512002

>  <Name>
ligand

>  <RI>
0

>  <Rbt.Current_Directory>
/home/itssahil/PROJECTS/Mol_Feturizer/New_Systems/rnas/3GX3

>  <Rbt.Executable>
rbdock ($Id: //depot/dev/client3/rdock/2013.1/src/exe/rbdock.cxx#4 $)

>  <Rbt.Library>
libRbt.so (2013.1, Build901 2013/11/27)

>  <Rbt.Parameter_File>
/export/apps/rDock/src/rDock_2013.1_src/data/scripts/dock_solv.prm

>  <Rbt.Receptor>
prm/pocket_docking_5.prm

>  <SCORE>
-16.9446

>  <SCORE.INTER>
-14.256

>  <SCORE.INTER.CONST>
1

>  <SCORE.INTER.POLAR>
0

>  <SCORE.INTER.ROT>
7

>  <SCORE.INTER.SOLV>
17.3578

>  <SCORE.INTER.VDW>
-23.5566

>  <SCORE.INTER.norm>
-0.548308

>  <SCORE.INTRA>
-2.69194

>  <SCORE.INTRA.DIHEDRAL>
1.2689

>  <SCORE.INTRA.DIHEDRAL.0>
5.78979

>  <SCORE.INTRA.POLAR>
0

>  <SCORE.INTRA.POLAR.0>
0

>  <SCORE.INTRA.REPUL>
0

>  <SCORE.INTRA.REPUL.0>
0

>  <SCORE.INTRA.SOLV>
-0.465233

>  <SCORE.INTRA.SOLV.lig_0>
-49.9151

>  <SCORE.INTRA.VDW>
-3.09377

>  <SCORE.INTRA.VDW.0>
-0.211125

>  <SCORE.INTRA.norm>
-0.103536

>  <SCORE.RESTR>
0.00337276

>  <SCORE.RESTR.CAVITY>
0.00337276

>  <SCORE.RESTR.norm>
0.000129722

>  <SCORE.SYSTEM>
0

>  <SCORE.SYSTEM.CONST>
0

>  <SCORE.SYSTEM.DIHEDRAL>
0

>  <SCORE.SYSTEM.SOLV>
0

>  <SCORE.SYSTEM.norm>
0

>  <SCORE.heavy>
26

>  <SCORE.norm>
-0.651715

>  <RMSD>
5.301

$$$$
ligand
 OpenBabel11021811483D
libRbt.so/2013.1/901 2013/11/27
 26 28  0  0  0  0  0  0  0  0999 V2000
   49.5205   53.3377   27.3553 N   0  0  0  0  0  0  0  0  0  0  0  0
   50.3030   54.5137   26.9647 C   0  0  2  0  0  0  0  0  0  0  0  0
   51.5886   54.7082   27.7716 C   0  0  0  0  0  0  0  0  0  0  0  0
   51.9387   53.8061   28.5330 O   0  0  0  0  0  0  0  0  0  0  0  0
   49.5406   55.8440   27.0161 C   0  0  0  0  0  0  0  0  0  0  0  0
   49.0018   56.3889   28.3274 C   0  0  0  0  0  0  0  0  0  0  0  0
   48.1291   57.9205   27.9273 S   0  0  0  0  0  0  0  0  0  0  0  0
   47.9938   58.1907   29.7106 C   0  0  0  0  0  0  0  0  0  0  0  0
   46.7657   59.0017   30.1376 C   0  0  1  0  0  0  0  0  0  0  0  0
   45.5681   58.2193   30.2049 O   0  0  0  0  0  0  0  0  0  0  0  0
   46.9757   59.6188   31.5127 C   0  0  1  0  0  0  0  0  0  0  0  0
   47.5110   60.9201   31.4164 O   0  0  0  0  0  0  0  0  0  0  0  0
   45.5982   59.5825   32.1618 C   0  0  1  0  0  0  0  0  0  0  0  0
   44.8772   60.7743   31.9224 O   0  0  0  0  0  0  0  0  0  0  0  0
   44.8918   58.4595   31.4282 C   0  0  2  0  0  0  0  0  0  0  0  0
   52.2936   55.7210   27.6804 O   0  0  0  0  0  0  0  0  0  0  0  0
   47.4787   55.0702   34.5005 N   0  0  0  0  0  0  0  0  0  0  0  0
   47.9655   56.1881   33.8713 C   0  0  0  0  0  0  0  0  0  0  0  0
   47.1306   56.9520   33.0830 N   0  0  0  0  0  0  0  0  0  0  0  0
   45.8293   56.6420   32.9446 C   0  0  0  0  0  0  0  0  0  0  0  0
   45.3180   55.5190   33.5725 C   0  0  0  0  0  0  0  0  0  0  0  0
   46.1557   54.7399   34.3456 C   0  0  0  0  0  0  0  0  0  0  0  0
   45.6871   53.6726   34.9628 N   0  0  0  0  0  0  0  0  0  0  0  0
   44.0022   55.4289   33.2766 N   0  0  0  0  0  0  0  0  0  0  0  0
   43.6811   56.4593   32.4540 C   0  0  0  0  0  0  0  0  0  0  0  0
   44.8074   57.2235   32.2405 N   0  0  0  0  0  0  0  0  0  0  0  0
  2  1  1  1  0  0  0
  2  3  1  0  0  0  0
  2  5  1  0  0  0  0
  3  4  1  0  0  0  0
  3 16  1  0  0  0  0
  5  6  1  0  0  0  0
  6  7  1  0  0  0  0
  7  8  1  0  0  0  0
  9  8  1  1  0  0  0
  9 10  1  0  0  0  0
  9 11  1  0  0  0  0
 10 15  1  0  0  0  0
 11 12  1  6  0  0  0
 11 13  1  0  0  0  0
 13 14  1  6  0  0  0
 13 15  1  0  0  0  0
 15 26  1  1  0  0  0
 17 18  2  0  0  0  0
 17 22  1  0  0  0  0
 18 19  1  0  0  0  0
 19 20  2  0  0  0  0
 20 21  1  0  0  0  0
 20 26  1  0  0  0  0
 21 22  2  0  0  0  0
 21 24  1  0  0  0  0
 22 23  1  0  0  0  0
 24 25  2  0  0  0  0
 25 26  1  0  0  0  0
M  END
>  <CHROM.1>
8.96695776,63.27841718,-177.84958303,-171.65878401,-151.21621027,80.66149309
74.79330471,47.42094256,56.82788988,30.75835267,-0.15819973,-0.82348339,2.57102606

>  <Name>
ligand

>  <RI>
0

>  <Rbt.Current_Directory>
/home/itssahil/PROJECTS/Mol_Feturizer/New_Systems/rnas/3GX3

>  <Rbt.Executable>
rbdock ($Id: //depot/dev/client3/rdock/2013.1/src/exe/rbdock.cxx#4 $)

>  <Rbt.Library>
libRbt.so (2013.1, Build901 2013/11/27)

>  <Rbt.Parameter_File>
/export/apps/rDock/src/rDock_2013.1_src/data/scripts/dock_solv.prm

>  <Rbt.Receptor>
prm/pocket_docking_4.prm

>  <SCORE>
-17.7768

>  <SCORE.INTER>
-15.0025

>  <SCORE.INTER.CONST>
1

>  <SCORE.INTER.POLAR>
0

>  <SCORE.INTER.ROT>
7

>  <SCORE.INTER.SOLV>
11.9563

>  <SCORE.INTER.VDW>
-22.2538

>  <SCORE.INTER.norm>
-0.577021

>  <SCORE.INTRA>
-2.77421

>  <SCORE.INTRA.DIHEDRAL>
-0.274398

>  <SCORE.INTRA.DIHEDRAL.0>
5.78979

>  <SCORE.INTRA.POLAR>
0

>  <SCORE.INTRA.POLAR.0>
0

>  <SCORE.INTRA.REPUL>
0

>  <SCORE.INTRA.REPUL.0>
0

>  <SCORE.INTRA.SOLV>
-0.543408

>  <SCORE.INTRA.SOLV.lig_0>
-49.9151

>  <SCORE.INTRA.VDW>
-2.36531

>  <SCORE.INTRA.VDW.0>
-0.211125

>  <SCORE.INTRA.norm>
-0.1067

>  <SCORE.RESTR>
0

>  <SCORE.RESTR.CAVITY>
0

>  <SCORE.RESTR.norm>
0

>  <SCORE.SYSTEM>
0

>  <SCORE.SYSTEM.CONST>
0

>  <SCORE.SYSTEM.DIHEDRAL>
0

>  <SCORE.SYSTEM.SOLV>
0

>  <SCORE.SYSTEM.norm>
0

>  <SCORE.heavy>
26

>  <SCORE.norm>
-0.683722

>  <RMSD>
5.303

$$$$
ligand
 OpenBabel11021811483D
libRbt.so/2013.1/901 2013/11/27
 26 28  0  0  0  0  0  0  0  0999 V2000
   46.1609   58.4610   30.2107 N   0  0  0  0  0  0  0  0  0  0  0  0
   45.8599   59.0945   31.4976 C   0  0  2  0  0  0  0  0  0  0  0  0
   45.6380   60.6064   31.4160 C   0  0  0  0  0  0  0  0  0  0  0  0
   46.4879   61.2882   30.8426 O   0  0  0  0  0  0  0  0  0  0  0  0
   46.9050   58.8573   32.5953 C   0  0  0  0  0  0  0  0  0  0  0  0
   48.3877   59.0339   32.3177 C   0  0  0  0  0  0  0  0  0  0  0  0
   48.9835   57.4500   31.6821 S   0  0  0  0  0  0  0  0  0  0  0  0
   49.2942   56.9908   33.4038 C   0  0  0  0  0  0  0  0  0  0  0  0
   48.2825   55.9991   33.9879 C   0  0  1  0  0  0  0  0  0  0  0  0
   47.1450   55.7898   33.1432 O   0  0  0  0  0  0  0  0  0  0  0  0
   48.9269   54.6396   34.2166 C   0  0  1  0  0  0  0  0  0  0  0  0
   49.4401   54.5272   35.5255 O   0  0  0  0  0  0  0  0  0  0  0  0
   47.8199   53.6371   33.9172 C   0  0  1  0  0  0  0  0  0  0  0  0
   47.0922   53.3005   35.0812 O   0  0  0  0  0  0  0  0  0  0  0  0
   46.8903   54.4024   32.9960 C   0  0  2  0  0  0  0  0  0  0  0  0
   44.6398   61.1663   31.8863 O   0  0  0  0  0  0  0  0  0  0  0  0
   50.1768   52.7838   29.2280 N   0  0  0  0  0  0  0  0  0  0  0  0
   50.4702   53.1111   30.5278 C   0  0  0  0  0  0  0  0  0  0  0  0
   49.4671   53.5372   31.3728 N   0  0  0  0  0  0  0  0  0  0  0  0
   48.1901   53.6058   30.9570 C   0  0  0  0  0  0  0  0  0  0  0  0
   47.8727   53.2783   29.6497 C   0  0  0  0  0  0  0  0  0  0  0  0
   48.8775   52.8715   28.7946 C   0  0  0  0  0  0  0  0  0  0  0  0
   48.5961   52.5428   27.5487 N   0  0  0  0  0  0  0  0  0  0  0  0
   46.5397   53.4304   29.4854 N   0  0  0  0  0  0  0  0  0  0  0  0
   46.0157   53.8715   30.6568 C   0  0  0  0  0  0  0  0  0  0  0  0
   47.0303   53.9833   31.5820 N   0  0  0  0  0  0  0  0  0  0  0  0
  2  1  1  6  0  0  0
  2  3  1  0  0  0  0
  2  5  1  0  0  0  0
  3  4  1  0  0  0  0
  3 16  1  0  0  0  0
  5  6  1  0  0  0  0
  6  7  1  0  0  0  0
  7  8  1  0  0  0  0
  9  8  1  6  0  0  0
  9 10  1  0  0  0  0
  9 11  1  0  0  0  0
 10 15  1  0  0  0  0
 11 12  1  1  0  0  0
 11 13  1  0  0  0  0
 13 14  1  1  0  0  0
 13 15  1  0  0  0  0
 15 26  1  6  0  0  0
 17 18  2  0  0  0  0
 17 22  1  0  0  0  0
 18 19  1  0  0  0  0
 19 20  2  0  0  0  0
 20 21  1  0  0  0  0
 20 26  1  0  0  0  0
 21 22  2  0  0  0  0
 21 24  1  0  0  0  0
 22 23  1  0  0  0  0
 24 25  2  0  0  0  0
 25 26  1  0  0  0  0
M  END
>  <CHROM.1>
-51.11452071,47.12385991,-87.32551514,-88.80296573,105.20664481,-10.08677728
86.33708036,47.77642608,55.86540670,31.77594526,2.70840289,-1.21689086,1.24339277

>  <Name>
ligand

>  <RI>
0

>  <Rbt.Current_Directory>
/home/itssahil/PROJECTS/Mol_Feturizer/New_Systems/rnas/3GX3

>  <Rbt.Executable>
rbdock ($Id: //depot/dev/client3/rdock/2013.1/src/exe/rbdock.cxx#4 $)

>  <Rbt.Library>
libRbt.so (2013.1, Build901 2013/11/27)

>  <Rbt.Parameter_File>
/export/apps/rDock/src/rDock_2013.1_src/data/scripts/dock_solv.prm

>  <Rbt.Receptor>
prm/pocket_docking_5.prm

>  <SCORE>
-15.9712

>  <SCORE.INTER>
-17.427

>  <SCORE.INTER.CONST>
1

>  <SCORE.INTER.POLAR>
0

>  <SCORE.INTER.ROT>
7

>  <SCORE.INTER.SOLV>
8.93792

>  <SCORE.INTER.VDW>
-22.864

>  <SCORE.INTER.norm>
-0.67027

>  <SCORE.INTRA>
1.45583

>  <SCORE.INTRA.DIHEDRAL>
8.20679

>  <SCORE.INTRA.DIHEDRAL.0>
5.78979

>  <SCORE.INTRA.POLAR>
0

>  <SCORE.INTRA.POLAR.0>
0

>  <SCORE.INTRA.REPUL>
0

>  <SCORE.INTRA.REPUL.0>
0

>  <SCORE.INTRA.SOLV>
1.15288

>  <SCORE.INTRA.SOLV.lig_0>
-49.9151

>  <SCORE.INTRA.VDW>
-3.22401

>  <SCORE.INTRA.VDW.0>
-0.211125

>  <SCORE.INTRA.norm>
0.0559935

>  <SCORE.RESTR>
0

>  <SCORE.RESTR.CAVITY>
0

>  <SCORE.RESTR.norm>
0

>  <SCORE.SYSTEM>
0

>  <SCORE.SYSTEM.CONST>
0

>  <SCORE.SYSTEM.DIHEDRAL>
0

>  <SCORE.SYSTEM.SOLV>
0

>  <SCORE.SYSTEM.norm>
0

>  <SCORE.heavy>
26

>  <SCORE.norm>
-0.614277

>  <RMSD>
5.310

$$$$
ligand
 OpenBabel11021811483D
libRbt.so/2013.1/901 2013/11/27
 26 28  0  0  0  0  0  0  0  0999 V2000
   45.4164   53.4424   27.7155 N   0  0  0  0  0  0  0  0  0  0  0  0
   46.8544   53.2546   27.5043 C   0  0  2  0  0  0  0  0  0  0  0  0
   47.5149   52.2970   28.4985 C   0  0  0  0  0  0  0  0  0  0  0  0
   48.5595   51.7392   28.1614 O   0  0  0  0  0  0  0  0  0  0  0  0
   47.6833   54.5456   27.5130 C   0  0  0  0  0  0  0  0  0  0  0  0
   47.6758   55.4741   28.7149 C   0  0  0  0  0  0  0  0  0  0  0  0
   48.6900   56.9019   28.2672 S   0  0  0  0  0  0  0  0  0  0  0  0
   48.3850   57.5161   29.9408 C   0  0  0  0  0  0  0  0  0  0  0  0
   47.3016   58.5960   30.0321 C   0  0  1  0  0  0  0  0  0  0  0  0
   45.9731   58.0744   29.9125 O   0  0  0  0  0  0  0  0  0  0  0  0
   47.3773   59.3278   31.3643 C   0  0  1  0  0  0  0  0  0  0  0  0
   48.1875   60.4787   31.2737 O   0  0  0  0  0  0  0  0  0  0  0  0
   45.9274   59.6397   31.7116 C   0  0  1  0  0  0  0  0  0  0  0  0
   45.5366   60.9089   31.2279 O   0  0  0  0  0  0  0  0  0  0  0  0
   45.1471   58.5916   30.9429 C   0  0  2  0  0  0  0  0  0  0  0  0
   47.0539   52.0729   29.6246 O   0  0  0  0  0  0  0  0  0  0  0  0
   41.4956   54.8785   31.6480 N   0  0  0  0  0  0  0  0  0  0  0  0
   41.6115   55.7693   30.6110 C   0  0  0  0  0  0  0  0  0  0  0  0
   42.6366   56.6920   30.6084 N   0  0  0  0  0  0  0  0  0  0  0  0
   43.5541   56.7146   31.5914 C   0  0  0  0  0  0  0  0  0  0  0  0
   43.4559   55.8229   32.6460 C   0  0  0  0  0  0  0  0  0  0  0  0
   42.4189   54.9116   32.6629 C   0  0  0  0  0  0  0  0  0  0  0  0
   42.3131   54.0449   33.6514 N   0  0  0  0  0  0  0  0  0  0  0  0
   44.4855   56.0504   33.4918 N   0  0  0  0  0  0  0  0  0  0  0  0
   45.2153   57.0846   33.0027 C   0  0  0  0  0  0  0  0  0  0  0  0
   44.6489   57.5066   31.8199 N   0  0  0  0  0  0  0  0  0  0  0  0
  2  1  1  1  0  0  0
  2  3  1  0  0  0  0
  2  5  1  0  0  0  0
  3  4  1  0  0  0  0
  3 16  1  0  0  0  0
  5  6  1  0  0  0  0
  6  7  1  0  0  0  0
  7  8  1  0  0  0  0
  9  8  1  1  0  0  0
  9 10  1  0  0  0  0
  9 11  1  0  0  0  0
 10 15  1  0  0  0  0
 11 12  1  6  0  0  0
 11 13  1  0  0  0  0
 13 14  1  6  0  0  0
 13 15  1  0  0  0  0
 15 26  1  1  0  0  0
 17 18  2  0  0  0  0
 17 22  1  0  0  0  0
 18 19  1  0  0  0  0
 19 20  2  0  0  0  0
 20 21  1  0  0  0  0
 20 26  1  0  0  0  0
 21 22  2  0  0  0  0
 21 24  1  0  0  0  0
 22 23  1  0  0  0  0
 24 25  2  0  0  0  0
 25 26  1  0  0  0  0
M  END
>  <CHROM.1>
156.32676033,57.71109166,-176.58209653,-177.62233933,-100.66418730,75.63757930
-83.93149052,45.81000875,56.29051207,30.39311173,0.87744854,-0.56776328,-2.79694230

>  <Name>
ligand

>  <RI>
0

>  <Rbt.Current_Directory>
/home/itssahil/PROJECTS/Mol_Feturizer/New_Systems/rnas/3GX3

>  <Rbt.Executable>
rbdock ($Id: //depot/dev/client3/rdock/2013.1/src/exe/rbdock.cxx#4 $)

>  <Rbt.Library>
libRbt.so (2013.1, Build901 2013/11/27)

>  <Rbt.Parameter_File>
/export/apps/rDock/src/rDock_2013.1_src/data/scripts/dock_solv.prm

>  <Rbt.Receptor>
prm/pocket_docking_7.prm

>  <SCORE>
-13.6131

>  <SCORE.INTER>
-11.0116

>  <SCORE.INTER.CONST>
1

>  <SCORE.INTER.POLAR>
0

>  <SCORE.INTER.ROT>
7

>  <SCORE.INTER.SOLV>
10.8085

>  <SCORE.INTER.VDW>
-19.2106

>  <SCORE.INTER.norm>
-0.423524

>  <SCORE.INTRA>
-2.60149

>  <SCORE.INTRA.DIHEDRAL>
-0.297914

>  <SCORE.INTRA.DIHEDRAL.0>
5.78979

>  <SCORE.INTRA.POLAR>
0

>  <SCORE.INTRA.POLAR.0>
0

>  <SCORE.INTRA.REPUL>
0

>  <SCORE.INTRA.REPUL.0>
0

>  <SCORE.INTRA.SOLV>
-0.499051

>  <SCORE.INTRA.SOLV.lig_0>
-49.9151

>  <SCORE.INTRA.VDW>
-2.20301

>  <SCORE.INTRA.VDW.0>
-0.211125

>  <SCORE.INTRA.norm>
-0.100057

>  <SCORE.RESTR>
0

>  <SCORE.RESTR.CAVITY>
0

>  <SCORE.RESTR.norm>
0

>  <SCORE.SYSTEM>
0

>  <SCORE.SYSTEM.CONST>
0

>  <SCORE.SYSTEM.DIHEDRAL>
0

>  <SCORE.SYSTEM.SOLV>
0

>  <SCORE.SYSTEM.norm>
0

>  <SCORE.heavy>
26

>  <SCORE.norm>
-0.523581

>  <RMSD>
5.311

$$$$
ligand
 OpenBabel11021811483D
libRbt.so/2013.1/901 2013/11/27
 26 28  0  0  0  0  0  0  0  0999 V2000
   44.3697   59.1773   32.0860 N   0  0  0  0  0  0  0  0  0  0  0  0
   45.8331   59.1742   32.0075 C   0  0  2  0  0  0  0  0  0  0  0  0
   46.4427   60.5185   31.6038 C   0  0  0  0  0  0  0  0  0  0  0  0
   45.7151   61.5117   31.6102 O   0  0  0  0  0  0  0  0  0  0  0  0
   46.4283   58.1166   31.0689 C   0  0  0  0  0  0  0  0  0  0  0  0
   46.0401   56.6532   31.1900 C   0  0  0  0  0  0  0  0  0  0  0  0
   47.2847   55.7143   30.2752 S   0  0  0  0  0  0  0  0  0  0  0  0
   46.9021   54.3298   31.3743 C   0  0  0  0  0  0  0  0  0  0  0  0
   47.3906   54.5108   32.8155 C   0  0  1  0  0  0  0  0  0  0  0  0
   46.4571   55.2131   33.6440 O   0  0  0  0  0  0  0  0  0  0  0  0
   47.6478   53.1628   33.4734 C   0  0  1  0  0  0  0  0  0  0  0  0
   48.9907   52.7615   33.3162 O   0  0  0  0  0  0  0  0  0  0  0  0
   47.2480   53.3660   34.9291 C   0  0  1  0  0  0  0  0  0  0  0  0
   48.3467   53.7725   35.7198 O   0  0  0  0  0  0  0  0  0  0  0  0
   46.2693   54.5222   34.8682 C   0  0  2  0  0  0  0  0  0  0  0  0
   47.6317   60.6503   31.2875 O   0  0  0  0  0  0  0  0  0  0  0  0
   41.4133   54.6519   32.8630 N   0  0  0  0  0  0  0  0  0  0  0  0
   42.5455   55.2633   32.3865 C   0  0  0  0  0  0  0  0  0  0  0  0
   43.7379   55.1278   33.0659 N   0  0  0  0  0  0  0  0  0  0  0  0
   43.8238   54.3737   34.1760 C   0  0  0  0  0  0  0  0  0  0  0  0
   42.6934   53.7470   34.6723 C   0  0  0  0  0  0  0  0  0  0  0  0
   41.4931   53.8975   34.0067 C   0  0  0  0  0  0  0  0  0  0  0  0
   40.4063   53.2995   34.4547 N   0  0  0  0  0  0  0  0  0  0  0  0
   43.0415   53.0609   35.7837 N   0  0  0  0  0  0  0  0  0  0  0  0
   44.3638   53.2642   36.0107 C   0  0  0  0  0  0  0  0  0  0  0  0
   44.8642   54.0772   35.0174 N   0  0  0  0  0  0  0  0  0  0  0  0
  2  1  1  6  0  0  0
  2  3  1  0  0  0  0
  2  5  1  0  0  0  0
  3  4  1  0  0  0  0
  3 16  1  0  0  0  0
  5  6  1  0  0  0  0
  6  7  1  0  0  0  0
  7  8  1  0  0  0  0
  9  8  1  6  0  0  0
  9 10  1  0  0  0  0
  9 11  1  0  0  0  0
 10 15  1  0  0  0  0
 11 12  1  1  0  0  0
 11 13  1  0  0  0  0
 13 14  1  1  0  0  0
 13 15  1  0  0  0  0
 15 26  1  6  0  0  0
 17 18  2  0  0  0  0
 17 22  1  0  0  0  0
 18 19  1  0  0  0  0
 19 20  2  0  0  0  0
 20 21  1  0  0  0  0
 20 26  1  0  0  0  0
 21 22  2  0  0  0  0
 21 24  1  0  0  0  0
 22 23  1  0  0  0  0
 24 25  2  0  0  0  0
 25 26  1  0  0  0  0
M  END
>  <CHROM.1>
12.33289023,-52.28072263,-163.69446361,153.37948889,-71.07751258,86.64376664
-5.69506584,45.47122738,55.59628950,33.05072001,1.18419097,0.15255175,-0.46619838

>  <Name>
ligand

>  <RI>
0

>  <Rbt.Current_Directory>
/home/itssahil/PROJECTS/Mol_Feturizer/New_Systems/rnas/3GX3

>  <Rbt.Executable>
rbdock ($Id: //depot/dev/client3/rdock/2013.1/src/exe/rbdock.cxx#4 $)

>  <Rbt.Library>
libRbt.so (2013.1, Build901 2013/11/27)

>  <Rbt.Parameter_File>
/export/apps/rDock/src/rDock_2013.1_src/data/scripts/dock_solv.prm

>  <Rbt.Receptor>
prm/pocket_docking_7.prm

>  <SCORE>
-10.2114

>  <SCORE.INTER>
-9.07651

>  <SCORE.INTER.CONST>
1

>  <SCORE.INTER.POLAR>
0

>  <SCORE.INTER.ROT>
7

>  <SCORE.INTER.SOLV>
12.1364

>  <SCORE.INTER.VDW>
-18.3631

>  <SCORE.INTER.norm>
-0.349097

>  <SCORE.INTRA>
-1.13817

>  <SCORE.INTRA.DIHEDRAL>
1.52677

>  <SCORE.INTRA.DIHEDRAL.0>
5.78979

>  <SCORE.INTRA.POLAR>
0

>  <SCORE.INTRA.POLAR.0>
0

>  <SCORE.INTRA.REPUL>
0

>  <SCORE.INTRA.REPUL.0>
0

>  <SCORE.INTRA.SOLV>
-0.291813

>  <SCORE.INTRA.SOLV.lig_0>
-49.9151

>  <SCORE.INTRA.VDW>
-1.75564

>  <SCORE.INTRA.VDW.0>
-0.211125

>  <SCORE.INTRA.norm>
-0.0437756

>  <SCORE.RESTR>
0.00324378

>  <SCORE.RESTR.CAVITY>
0.00324378

>  <SCORE.RESTR.norm>
0.000124761

>  <SCORE.SYSTEM>
0

>  <SCORE.SYSTEM.CONST>
0

>  <SCORE.SYSTEM.DIHEDRAL>
0

>  <SCORE.SYSTEM.SOLV>
0

>  <SCORE.SYSTEM.norm>
0

>  <SCORE.heavy>
26

>  <SCORE.norm>
-0.392747

>  <RMSD>
5.317

$$$$
ligand
 OpenBabel11021811483D
libRbt.so/2013.1/901 2013/11/27
 26 28  0  0  0  0  0  0  0  0999 V2000
   49.9731   53.4517   26.9937 N   0  0  0  0  0  0  0  0  0  0  0  0
   50.1229   54.7481   27.6606 C   0  0  2  0  0  0  0  0  0  0  0  0
   51.4617   55.4399   27.3941 C   0  0  0  0  0  0  0  0  0  0  0  0
   52.0636   55.1605   26.3570 O   0  0  0  0  0  0  0  0  0  0  0  0
   49.9333   54.7182   29.1827 C   0  0  0  0  0  0  0  0  0  0  0  0
   49.6076   55.9834   29.9573 C   0  0  0  0  0  0  0  0  0  0  0  0
   49.5215   55.5107   31.7000 S   0  0  0  0  0  0  0  0  0  0  0  0
   48.8304   57.1538   32.0071 C   0  0  0  0  0  0  0  0  0  0  0  0
   47.3382   57.2844   31.6836 C   0  0  1  0  0  0  0  0  0  0  0  0
   46.6426   56.0330   31.7130 O   0  0  0  0  0  0  0  0  0  0  0  0
   46.6469   58.2048   32.6791 C   0  0  1  0  0  0  0  0  0  0  0  0
   46.6245   59.5375   32.2178 O   0  0  0  0  0  0  0  0  0  0  0  0
   45.2573   57.6055   32.8519 C   0  0  1  0  0  0  0  0  0  0  0  0
   44.3305   58.1673   31.9447 O   0  0  0  0  0  0  0  0  0  0  0  0
   45.4509   56.1503   32.4731 C   0  0  2  0  0  0  0  0  0  0  0  0
   51.9537   56.2732   28.1652 O   0  0  0  0  0  0  0  0  0  0  0  0
   48.3990   54.1207   36.3211 N   0  0  0  0  0  0  0  0  0  0  0  0
   48.7815   54.9783   35.3207 C   0  0  0  0  0  0  0  0  0  0  0  0
   47.8612   55.3922   34.3806 N   0  0  0  0  0  0  0  0  0  0  0  0
   46.5770   54.9981   34.4443 C   0  0  0  0  0  0  0  0  0  0  0  0
   46.1704   54.1344   35.4470 C   0  0  0  0  0  0  0  0  0  0  0  0
   47.0937   53.7009   36.3776 C   0  0  0  0  0  0  0  0  0  0  0  0
   46.7256   52.8876   37.3486 N   0  0  0  0  0  0  0  0  0  0  0  0
   44.8498   53.8926   35.2898 N   0  0  0  0  0  0  0  0  0  0  0  0
   44.4230   54.5675   34.1926 C   0  0  0  0  0  0  0  0  0  0  0  0
   45.4862   55.2614   33.6576 N   0  0  0  0  0  0  0  0  0  0  0  0
  2  1  1  1  0  0  0
  2  3  1  0  0  0  0
  2  5  1  0  0  0  0
  3  4  1  0  0  0  0
  3 16  1  0  0  0  0
  5  6  1  0  0  0  0
  6  7  1  0  0  0  0
  7  8  1  0  0  0  0
  9  8  1  1  0  0  0
  9 10  1  0  0  0  0
  9 11  1  0  0  0  0
 10 15  1  0  0  0  0
 11 12  1  6  0  0  0
 11 13  1  0  0  0  0
 13 14  1  6  0  0  0
 13 15  1  0  0  0  0
 15 26  1  1  0  0  0
 17 18  2  0  0  0  0
 17 22  1  0  0  0  0
 18 19  1  0  0  0  0
 19 20  2  0  0  0  0
 20 21  1  0  0  0  0
 20 26  1  0  0  0  0
 21 22  2  0  0  0  0
 21 24  1  0  0  0  0
 22 23  1  0  0  0  0
 24 25  2  0  0  0  0
 25 26  1  0  0  0  0
M  END
>  <CHROM.1>
25.22748908,-159.91733987,-178.30850194,-169.41685281,80.09425005,23.42321865
38.27683035,47.89500714,55.63970808,32.09685227,-0.76617444,-0.69609084,2.20701513

>  <Name>
ligand

>  <RI>
0

>  <Rbt.Current_Directory>
/home/itssahil/PROJECTS/Mol_Feturizer/New_Systems/rnas/3GX3

>  <Rbt.Executable>
rbdock ($Id: //depot/dev/client3/rdock/2013.1/src/exe/rbdock.cxx#4 $)

>  <Rbt.Library>
libRbt.so (2013.1, Build901 2013/11/27)

>  <Rbt.Parameter_File>
/export/apps/rDock/src/rDock_2013.1_src/data/scripts/dock_solv.prm

>  <Rbt.Receptor>
prm/pocket_docking_7.prm

>  <SCORE>
-14.0003

>  <SCORE.INTER>
-12.7133

>  <SCORE.INTER.CONST>
1

>  <SCORE.INTER.POLAR>
0

>  <SCORE.INTER.ROT>
7

>  <SCORE.INTER.SOLV>
11.4488

>  <SCORE.INTER.VDW>
-20.5585

>  <SCORE.INTER.norm>
-0.488973

>  <SCORE.INTRA>
-1.28991

>  <SCORE.INTRA.DIHEDRAL>
2.61275

>  <SCORE.INTRA.DIHEDRAL.0>
5.78979

>  <SCORE.INTRA.POLAR>
0

>  <SCORE.INTRA.POLAR.0>
0

>  <SCORE.INTRA.REPUL>
0

>  <SCORE.INTRA.REPUL.0>
0

>  <SCORE.INTRA.SOLV>
-0.792288

>  <SCORE.INTRA.SOLV.lig_0>
-49.9151

>  <SCORE.INTRA.VDW>
-2.20014

>  <SCORE.INTRA.VDW.0>
-0.211125

>  <SCORE.INTRA.norm>
-0.0496118

>  <SCORE.RESTR>
0.00292761

>  <SCORE.RESTR.CAVITY>
0.00292761

>  <SCORE.RESTR.norm>
0.0001126

>  <SCORE.SYSTEM>
0

>  <SCORE.SYSTEM.CONST>
0

>  <SCORE.SYSTEM.DIHEDRAL>
0

>  <SCORE.SYSTEM.SOLV>
0

>  <SCORE.SYSTEM.norm>
0

>  <SCORE.heavy>
26

>  <SCORE.norm>
-0.538473

>  <RMSD>
5.317

$$$$
ligand
 OpenBabel11021811483D
libRbt.so/2013.1/901 2013/11/27
 26 28  0  0  0  0  0  0  0  0999 V2000
   45.9795   58.8954   29.9078 N   0  0  0  0  0  0  0  0  0  0  0  0
   46.9209   58.8646   31.0306 C   0  0  2  0  0  0  0  0  0  0  0  0
   46.7710   60.0331   32.0073 C   0  0  0  0  0  0  0  0  0  0  0  0
   45.8214   60.8015   31.8525 O   0  0  0  0  0  0  0  0  0  0  0  0
   48.4012   58.8058   30.6320 C   0  0  0  0  0  0  0  0  0  0  0  0
   49.4671   58.3957   31.6332 C   0  0  0  0  0  0  0  0  0  0  0  0
   49.3381   56.6018   31.8149 S   0  0  0  0  0  0  0  0  0  0  0  0
   48.5185   56.9222   33.3951 C   0  0  0  0  0  0  0  0  0  0  0  0
   47.7895   55.7116   33.9879 C   0  0  1  0  0  0  0  0  0  0  0  0
   46.7032   55.2530   33.1750 O   0  0  0  0  0  0  0  0  0  0  0  0
   48.7428   54.5387   34.1650 C   0  0  1  0  0  0  0  0  0  0  0  0
   49.3149   54.5308   35.4542 O   0  0  0  0  0  0  0  0  0  0  0  0
   47.8920   53.3084   33.8778 C   0  0  1  0  0  0  0  0  0  0  0  0
   47.3061   52.7927   35.0561 O   0  0  0  0  0  0  0  0  0  0  0  0
   46.7762   53.8470   33.0041 C   0  0  2  0  0  0  0  0  0  0  0  0
   47.5505   60.2278   32.9483 O   0  0  0  0  0  0  0  0  0  0  0  0
   50.2208   52.8814   29.1543 N   0  0  0  0  0  0  0  0  0  0  0  0
   50.4781   53.2172   30.4596 C   0  0  0  0  0  0  0  0  0  0  0  0
   49.4329   53.4531   31.3278 N   0  0  0  0  0  0  0  0  0  0  0  0
   48.1551   53.3253   30.9285 C   0  0  0  0  0  0  0  0  0  0  0  0
   47.8741   52.9856   29.6161 C   0  0  0  0  0  0  0  0  0  0  0  0
   48.9178   52.7694   28.7384 C   0  0  0  0  0  0  0  0  0  0  0  0
   48.6734   52.4327   27.4868 N   0  0  0  0  0  0  0  0  0  0  0  0
   46.5316   52.9245   29.4712 N   0  0  0  0  0  0  0  0  0  0  0  0
   45.9618   53.2439   30.6606 C   0  0  0  0  0  0  0  0  0  0  0  0
   46.9597   53.4937   31.5772 N   0  0  0  0  0  0  0  0  0  0  0  0
  2  1  1  6  0  0  0
  2  3  1  0  0  0  0
  2  5  1  0  0  0  0
  3  4  1  0  0  0  0
  3 16  1  0  0  0  0
  5  6  1  0  0  0  0
  6  7  1  0  0  0  0
  7  8  1  0  0  0  0
  9  8  1  6  0  0  0
  9 10  1  0  0  0  0
  9 11  1  0  0  0  0
 10 15  1  0  0  0  0
 11 12  1  1  0  0  0
 11 13  1  0  0  0  0
 13 14  1  1  0  0  0
 13 15  1  0  0  0  0
 15 26  1  6  0  0  0
 17 18  2  0  0  0  0
 17 22  1  0  0  0  0
 18 19  1  0  0  0  0
 19 20  2  0  0  0  0
 20 21  1  0  0  0  0
 20 26  1  0  0  0  0
 21 22  2  0  0  0  0
 21 24  1  0  0  0  0
 22 23  1  0  0  0  0
 24 25  2  0  0  0  0
 25 26  1  0  0  0  0
M  END
>  <CHROM.1>
6.95346007,-163.30479064,75.64472942,-103.64531186,165.42287325,-63.60700178
90.82706845,47.99500110,55.52618564,31.74882974,3.06210243,-1.40156895,1.69143791

>  <Name>
ligand

>  <RI>
0

>  <Rbt.Current_Directory>
/home/itssahil/PROJECTS/Mol_Feturizer/New_Systems/rnas/3GX3

>  <Rbt.Executable>
rbdock ($Id: //depot/dev/client3/rdock/2013.1/src/exe/rbdock.cxx#4 $)

>  <Rbt.Library>
libRbt.so (2013.1, Build901 2013/11/27)

>  <Rbt.Parameter_File>
/export/apps/rDock/src/rDock_2013.1_src/data/scripts/dock_solv.prm

>  <Rbt.Receptor>
prm/pocket_docking_5.prm

>  <SCORE>
-18.183

>  <SCORE.INTER>
-15.287

>  <SCORE.INTER.CONST>
1

>  <SCORE.INTER.POLAR>
0

>  <SCORE.INTER.ROT>
7

>  <SCORE.INTER.SOLV>
11.1471

>  <SCORE.INTER.VDW>
-22.1737

>  <SCORE.INTER.norm>
-0.587962

>  <SCORE.INTRA>
-2.89602

>  <SCORE.INTRA.DIHEDRAL>
1.24307

>  <SCORE.INTRA.DIHEDRAL.0>
5.78979

>  <SCORE.INTRA.POLAR>
0

>  <SCORE.INTRA.POLAR.0>
0

>  <SCORE.INTRA.REPUL>
0

>  <SCORE.INTRA.REPUL.0>
0

>  <SCORE.INTRA.SOLV>
-0.509509

>  <SCORE.INTRA.SOLV.lig_0>
-49.9151

>  <SCORE.INTRA.VDW>
-3.26279

>  <SCORE.INTRA.VDW.0>
-0.211125

>  <SCORE.INTRA.norm>
-0.111385

>  <SCORE.RESTR>
0

>  <SCORE.RESTR.CAVITY>
0

>  <SCORE.RESTR.norm>
0

>  <SCORE.SYSTEM>
0

>  <SCORE.SYSTEM.CONST>
0

>  <SCORE.SYSTEM.DIHEDRAL>
0

>  <SCORE.SYSTEM.SOLV>
0

>  <SCORE.SYSTEM.norm>
0

>  <SCORE.heavy>
26

>  <SCORE.norm>
-0.699347

>  <RMSD>
5.324

$$$$
ligand
 OpenBabel11021811483D
libRbt.so/2013.1/901 2013/11/27
 26 28  0  0  0  0  0  0  0  0999 V2000
   49.2267   52.6329   28.9039 N   0  0  0  0  0  0  0  0  0  0  0  0
   49.3610   53.2567   30.2232 C   0  0  2  0  0  0  0  0  0  0  0  0
   48.0590   53.3150   31.0252 C   0  0  0  0  0  0  0  0  0  0  0  0
   47.0012   53.1025   30.4319 O   0  0  0  0  0  0  0  0  0  0  0  0
   49.9394   54.6776   30.2110 C   0  0  0  0  0  0  0  0  0  0  0  0
   49.2526   55.7972   29.4485 C   0  0  0  0  0  0  0  0  0  0  0  0
   47.8246   56.2931   30.4397 S   0  0  0  0  0  0  0  0  0  0  0  0
   47.7691   57.7908   29.4272 C   0  0  0  0  0  0  0  0  0  0  0  0
   46.8324   58.8809   29.9587 C   0  0  1  0  0  0  0  0  0  0  0  0
   45.4733   58.4465   30.0820 O   0  0  0  0  0  0  0  0  0  0  0  0
   47.2781   59.3542   31.3346 C   0  0  1  0  0  0  0  0  0  0  0  0
   48.1396   60.4671   31.2418 O   0  0  0  0  0  0  0  0  0  0  0  0
   45.9807   59.6588   32.0723 C   0  0  1  0  0  0  0  0  0  0  0  0
   45.5973   61.0103   31.9169 O   0  0  0  0  0  0  0  0  0  0  0  0
   44.9568   58.8021   31.3541 C   0  0  2  0  0  0  0  0  0  0  0  0
   48.0266   53.5508   32.2394 O   0  0  0  0  0  0  0  0  0  0  0  0
   41.8325   54.5869   31.6519 N   0  0  0  0  0  0  0  0  0  0  0  0
   41.8563   55.5596   30.6845 C   0  0  0  0  0  0  0  0  0  0  0  0
   42.7439   56.6101   30.7873 N   0  0  0  0  0  0  0  0  0  0  0  0
   43.6188   56.6839   31.8060 C   0  0  0  0  0  0  0  0  0  0  0  0
   43.6122   55.7115   32.7916 C   0  0  0  0  0  0  0  0  0  0  0  0
   42.7107   54.6695   32.7033 C   0  0  0  0  0  0  0  0  0  0  0  0
   42.6951   53.7256   33.6243 N   0  0  0  0  0  0  0  0  0  0  0  0
   44.5740   56.0130   33.6922 N   0  0  0  0  0  0  0  0  0  0  0  0
   45.1689   57.1699   33.3059 C   0  0  0  0  0  0  0  0  0  0  0  0
   44.5863   57.5977   32.1330 N   0  0  0  0  0  0  0  0  0  0  0  0
  2  1  1  6  0  0  0
  2  3  1  0  0  0  0
  2  5  1  0  0  0  0
  3  4  1  0  0  0  0
  3 16  1  0  0  0  0
  5  6  1  0  0  0  0
  6  7  1  0  0  0  0
  7  8  1  0  0  0  0
  9  8  1  1  0  0  0
  9 10  1  0  0  0  0
  9 11  1  0  0  0  0
 10 15  1  0  0  0  0
 11 12  1  6  0  0  0
 11 13  1  0  0  0  0
 13 14  1  6  0  0  0
 13 15  1  0  0  0  0
 15 26  1  1  0  0  0
 17 18  2  0  0  0  0
 17 22  1  0  0  0  0
 18 19  1  0  0  0  0
 19 20  2  0  0  0  0
 20 21  1  0  0  0  0
 20 26  1  0  0  0  0
 21 22  2  0  0  0  0
 21 24  1  0  0  0  0
 22 23  1  0  0  0  0
 24 25  2  0  0  0  0
 25 26  1  0  0  0  0
M  END
>  <CHROM.1>
-14.24084881,59.23005823,76.27284897,164.20608593,-168.63669044,-58.80996212
-63.35785628,46.08723163,56.38765745,31.22376604,0.47518227,-0.35450766,-3.13514674

>  <Name>
ligand

>  <RI>
0

>  <Rbt.Current_Directory>
/home/itssahil/PROJECTS/Mol_Feturizer/New_Systems/rnas/3GX3

>  <Rbt.Executable>
rbdock ($Id: //depot/dev/client3/rdock/2013.1/src/exe/rbdock.cxx#4 $)

>  <Rbt.Library>
libRbt.so (2013.1, Build901 2013/11/27)

>  <Rbt.Parameter_File>
/export/apps/rDock/src/rDock_2013.1_src/data/scripts/dock_solv.prm

>  <Rbt.Receptor>
prm/pocket_docking_7.prm

>  <SCORE>
-14.0567

>  <SCORE.INTER>
-10.7007

>  <SCORE.INTER.CONST>
1

>  <SCORE.INTER.POLAR>
0

>  <SCORE.INTER.ROT>
7

>  <SCORE.INTER.SOLV>
10.9242

>  <SCORE.INTER.VDW>
-19.0418

>  <SCORE.INTER.norm>
-0.411564

>  <SCORE.INTRA>
-3.35605

>  <SCORE.INTRA.DIHEDRAL>
-1.41854

>  <SCORE.INTRA.DIHEDRAL.0>
5.78979

>  <SCORE.INTRA.POLAR>
0

>  <SCORE.INTRA.POLAR.0>
0

>  <SCORE.INTRA.REPUL>
0

>  <SCORE.INTRA.REPUL.0>
0

>  <SCORE.INTRA.SOLV>
0.207229

>  <SCORE.INTRA.SOLV.lig_0>
-49.9151

>  <SCORE.INTRA.VDW>
-2.75039

>  <SCORE.INTRA.VDW.0>
-0.211125

>  <SCORE.INTRA.norm>
-0.129079

>  <SCORE.RESTR>
0

>  <SCORE.RESTR.CAVITY>
0

>  <SCORE.RESTR.norm>
0

>  <SCORE.SYSTEM>
0

>  <SCORE.SYSTEM.CONST>
0

>  <SCORE.SYSTEM.DIHEDRAL>
0

>  <SCORE.SYSTEM.SOLV>
0

>  <SCORE.SYSTEM.norm>
0

>  <SCORE.heavy>
26

>  <SCORE.norm>
-0.540643

>  <RMSD>
5.338

$$$$
ligand
 OpenBabel11021811483D
libRbt.so/2013.1/901 2013/11/27
 26 28  0  0  0  0  0  0  0  0999 V2000
   46.5379   59.2628   30.8897 N   0  0  0  0  0  0  0  0  0  0  0  0
   45.1558   59.6351   31.2042 C   0  0  2  0  0  0  0  0  0  0  0  0
   44.9791   61.0967   31.6216 C   0  0  0  0  0  0  0  0  0  0  0  0
   45.9752   61.8203   31.6394 O   0  0  0  0  0  0  0  0  0  0  0  0
   44.4861   58.7796   32.2874 C   0  0  0  0  0  0  0  0  0  0  0  0
   44.0998   57.3356   32.0187 C   0  0  0  0  0  0  0  0  0  0  0  0
   45.6421   56.4344   31.7411 S   0  0  0  0  0  0  0  0  0  0  0  0
   44.7779   54.9685   32.3540 C   0  0  0  0  0  0  0  0  0  0  0  0
   45.7006   53.8478   32.8451 C   0  0  1  0  0  0  0  0  0  0  0  0
   46.5171   53.2934   31.8073 O   0  0  0  0  0  0  0  0  0  0  0  0
   46.6388   54.3554   33.9305 C   0  0  1  0  0  0  0  0  0  0  0  0
   46.0954   54.1530   35.2162 O   0  0  0  0  0  0  0  0  0  0  0  0
   47.9371   53.5928   33.7002 C   0  0  1  0  0  0  0  0  0  0  0  0
   47.9815   52.3987   34.4550 O   0  0  0  0  0  0  0  0  0  0  0  0
   47.8670   53.2111   32.2347 C   0  0  2  0  0  0  0  0  0  0  0  0
   43.8822   61.5818   31.9255 O   0  0  0  0  0  0  0  0  0  0  0  0
   50.8019   53.4745   27.8833 N   0  0  0  0  0  0  0  0  0  0  0  0
   50.0908   52.4043   28.3644 C   0  0  0  0  0  0  0  0  0  0  0  0
   49.3879   52.5206   29.5452 N   0  0  0  0  0  0  0  0  0  0  0  0
   49.3552   53.6815   30.2233 C   0  0  0  0  0  0  0  0  0  0  0  0
   50.0646   54.7738   29.7539 C   0  0  0  0  0  0  0  0  0  0  0  0
   50.7868   54.6550   28.5831 C   0  0  0  0  0  0  0  0  0  0  0  0
   51.4598   55.6863   28.1110 N   0  0  0  0  0  0  0  0  0  0  0  0
   49.8716   55.8043   30.6071 N   0  0  0  0  0  0  0  0  0  0  0  0
   49.0748   55.3742   31.6178 C   0  0  0  0  0  0  0  0  0  0  0  0
   48.7440   54.0561   31.3914 N   0  0  0  0  0  0  0  0  0  0  0  0
  2  1  1  1  0  0  0
  2  3  1  0  0  0  0
  2  5  1  0  0  0  0
  3  4  1  0  0  0  0
  3 16  1  0  0  0  0
  5  6  1  0  0  0  0
  6  7  1  0  0  0  0
  7  8  1  0  0  0  0
  9  8  1  6  0  0  0
  9 10  1  0  0  0  0
  9 11  1  0  0  0  0
 10 15  1  0  0  0  0
 11 12  1  1  0  0  0
 11 13  1  0  0  0  0
 13 14  1  1  0  0  0
 13 15  1  0  0  0  0
 15 26  1  6  0  0  0
 17 18  2  0  0  0  0
 17 22  1  0  0  0  0
 18 19  1  0  0  0  0
 19 20  2  0  0  0  0
 20 21  1  0  0  0  0
 20 26  1  0  0  0  0
 21 22  2  0  0  0  0
 21 24  1  0  0  0  0
 22 23  1  0  0  0  0
 24 25  2  0  0  0  0
 25 26  1  0  0  0  0
M  END
>  <CHROM.1>
1.00768724,-70.65246563,64.80361081,152.35190333,-159.60457854,-63.96760211
-87.75823142,47.29341483,55.78258112,31.46808941,-2.49482196,-0.74722410
2.67391334

>  <Name>
ligand

>  <RI>
0

>  <Rbt.Current_Directory>
/home/itssahil/PROJECTS/Mol_Feturizer/New_Systems/rnas/3GX3

>  <Rbt.Executable>
rbdock ($Id: //depot/dev/client3/rdock/2013.1/src/exe/rbdock.cxx#4 $)

>  <Rbt.Library>
libRbt.so (2013.1, Build901 2013/11/27)

>  <Rbt.Parameter_File>
/export/apps/rDock/src/rDock_2013.1_src/data/scripts/dock_solv.prm

>  <Rbt.Receptor>
prm/pocket_docking_5.prm

>  <SCORE>
-14.7219

>  <SCORE.INTER>
-12.3894

>  <SCORE.INTER.CONST>
1

>  <SCORE.INTER.POLAR>
0

>  <SCORE.INTER.ROT>
7

>  <SCORE.INTER.SOLV>
17.2299

>  <SCORE.INTER.VDW>
-22.2696

>  <SCORE.INTER.norm>
-0.476517

>  <SCORE.INTRA>
-2.33373

>  <SCORE.INTRA.DIHEDRAL>
-0.74722

>  <SCORE.INTRA.DIHEDRAL.0>
5.78979

>  <SCORE.INTRA.POLAR>
0

>  <SCORE.INTRA.POLAR.0>
0

>  <SCORE.INTRA.REPUL>
0

>  <SCORE.INTRA.REPUL.0>
0

>  <SCORE.INTRA.SOLV>
0.912411

>  <SCORE.INTRA.SOLV.lig_0>
-49.9151

>  <SCORE.INTRA.VDW>
-2.41632

>  <SCORE.INTRA.VDW.0>
-0.211125

>  <SCORE.INTRA.norm>
-0.0897587

>  <SCORE.RESTR>
0.00128815

>  <SCORE.RESTR.CAVITY>
0.00128815

>  <SCORE.RESTR.norm>
4.95441e-05

>  <SCORE.SYSTEM>
0

>  <SCORE.SYSTEM.CONST>
0

>  <SCORE.SYSTEM.DIHEDRAL>
0

>  <SCORE.SYSTEM.SOLV>
0

>  <SCORE.SYSTEM.norm>
0

>  <SCORE.heavy>
26

>  <SCORE.norm>
-0.566226

>  <RMSD>
5.344

$$$$
ligand
 OpenBabel11021811483D
libRbt.so/2013.1/901 2013/11/27
 26 28  0  0  0  0  0  0  0  0999 V2000
   44.8436   58.4056   32.0251 N   0  0  0  0  0  0  0  0  0  0  0  0
   46.1848   58.9959   32.0017 C   0  0  2  0  0  0  0  0  0  0  0  0
   46.2617   60.3510   31.2949 C   0  0  0  0  0  0  0  0  0  0  0  0
   47.2645   61.0430   31.4729 O   0  0  0  0  0  0  0  0  0  0  0  0
   47.2712   58.1085   31.3805 C   0  0  0  0  0  0  0  0  0  0  0  0
   48.7438   58.4445   31.5394 C   0  0  0  0  0  0  0  0  0  0  0  0
   49.0560   58.5578   33.3163 S   0  0  0  0  0  0  0  0  0  0  0  0
   49.4247   56.7879   33.2621 C   0  0  0  0  0  0  0  0  0  0  0  0
   48.3467   55.8963   33.8878 C   0  0  1  0  0  0  0  0  0  0  0  0
   47.2133   55.6980   33.0350 O   0  0  0  0  0  0  0  0  0  0  0  0
   48.9062   54.5199   34.2168 C   0  0  1  0  0  0  0  0  0  0  0  0
   49.3897   54.4640   35.5406 O   0  0  0  0  0  0  0  0  0  0  0  0
   47.7474   53.5653   33.9596 C   0  0  1  0  0  0  0  0  0  0  0  0
   46.9817   53.3480   35.1276 O   0  0  0  0  0  0  0  0  0  0  0  0
   46.8802   54.3208   32.9721 C   0  0  2  0  0  0  0  0  0  0  0  0
   45.3708   60.7707   30.5457 O   0  0  0  0  0  0  0  0  0  0  0  0
   50.2025   52.9686   29.1313 N   0  0  0  0  0  0  0  0  0  0  0  0
   50.4997   53.4634   30.3760 C   0  0  0  0  0  0  0  0  0  0  0  0
   49.4818   53.7810   31.2507 N   0  0  0  0  0  0  0  0  0  0  0  0
   48.1936   53.5813   30.9203 C   0  0  0  0  0  0  0  0  0  0  0  0
   47.8726   53.0813   29.6698 C   0  0  0  0  0  0  0  0  0  0  0  0
   48.8880   52.7820   28.7834 C   0  0  0  0  0  0  0  0  0  0  0  0
   48.6058   52.2931   27.5915 N   0  0  0  0  0  0  0  0  0  0  0  0
   46.5275   52.9771   29.5865 N   0  0  0  0  0  0  0  0  0  0  0  0
   45.9946   53.4255   30.7511 C   0  0  0  0  0  0  0  0  0  0  0  0
   47.0192   53.8028   31.5912 N   0  0  0  0  0  0  0  0  0  0  0  0
  2  1  1  6  0  0  0
  2  3  1  0  0  0  0
  2  5  1  0  0  0  0
  3  4  1  0  0  0  0
  3 16  1  0  0  0  0
  5  6  1  0  0  0  0
  6  7  1  0  0  0  0
  7  8  1  0  0  0  0
  9  8  1  6  0  0  0
  9 10  1  0  0  0  0
  9 11  1  0  0  0  0
 10 15  1  0  0  0  0
 11 12  1  1  0  0  0
 11 13  1  0  0  0  0
 13 14  1  1  0  0  0
 13 15  1  0  0  0  0
 15 26  1  6  0  0  0
 17 18  2  0  0  0  0
 17 22  1  0  0  0  0
 18 19  1  0  0  0  0
 19 20  2  0  0  0  0
 20 21  1  0  0  0  0
 20 26  1  0  0  0  0
 21 22  2  0  0  0  0
 21 24  1  0  0  0  0
 22 23  1  0  0  0  0
 24 25  2  0  0  0  0
 25 26  1  0  0  0  0
M  END
>  <CHROM.1>
164.76206981,-167.13859345,56.04224228,89.63066714,-107.03977854,78.20863023
71.73013338,47.85724071,55.81389386,31.87679972,2.39801024,-1.26950947,1.00630509

>  <Name>
ligand

>  <RI>
0

>  <Rbt.Current_Directory>
/home/itssahil/PROJECTS/Mol_Feturizer/New_Systems/rnas/3GX3

>  <Rbt.Executable>
rbdock ($Id: //depot/dev/client3/rdock/2013.1/src/exe/rbdock.cxx#4 $)

>  <Rbt.Library>
libRbt.so (2013.1, Build901 2013/11/27)

>  <Rbt.Parameter_File>
/export/apps/rDock/src/rDock_2013.1_src/data/scripts/dock_solv.prm

>  <Rbt.Receptor>
prm/pocket_docking_4.prm

>  <SCORE>
-19.9315

>  <SCORE.INTER>
-18.0057

>  <SCORE.INTER.CONST>
1

>  <SCORE.INTER.POLAR>
0

>  <SCORE.INTER.ROT>
7

>  <SCORE.INTER.SOLV>
12.0356

>  <SCORE.INTER.VDW>
-24.2824

>  <SCORE.INTER.norm>
-0.692528

>  <SCORE.INTRA>
-1.9316

>  <SCORE.INTRA.DIHEDRAL>
2.06668

>  <SCORE.INTRA.DIHEDRAL.0>
5.78979

>  <SCORE.INTRA.POLAR>
0

>  <SCORE.INTRA.POLAR.0>
0

>  <SCORE.INTRA.REPUL>
0

>  <SCORE.INTRA.REPUL.0>
0

>  <SCORE.INTRA.SOLV>
-0.103161

>  <SCORE.INTRA.SOLV.lig_0>
-49.9151

>  <SCORE.INTRA.VDW>
-2.91336

>  <SCORE.INTRA.VDW.0>
-0.211125

>  <SCORE.INTRA.norm>
-0.0742922

>  <SCORE.RESTR>
0.00582175

>  <SCORE.RESTR.CAVITY>
0.00582175

>  <SCORE.RESTR.norm>
0.000223913

>  <SCORE.SYSTEM>
0

>  <SCORE.SYSTEM.CONST>
0

>  <SCORE.SYSTEM.DIHEDRAL>
0

>  <SCORE.SYSTEM.SOLV>
0

>  <SCORE.SYSTEM.norm>
0

>  <SCORE.heavy>
26

>  <SCORE.norm>
-0.766596

>  <RMSD>
5.356

$$$$
ligand
 OpenBabel11021811483D
libRbt.so/2013.1/901 2013/11/27
 26 28  0  0  0  0  0  0  0  0999 V2000
   49.1076   53.5762   29.4544 N   0  0  0  0  0  0  0  0  0  0  0  0
   49.6719   54.8784   29.0890 C   0  0  2  0  0  0  0  0  0  0  0  0
   51.1029   54.8135   28.5506 C   0  0  0  0  0  0  0  0  0  0  0  0
   51.5738   55.8245   28.0290 O   0  0  0  0  0  0  0  0  0  0  0  0
   49.6667   55.9236   30.2121 C   0  0  0  0  0  0  0  0  0  0  0  0
   48.3738   56.3346   30.8947 C   0  0  0  0  0  0  0  0  0  0  0  0
   48.7943   57.6842   32.0214 S   0  0  0  0  0  0  0  0  0  0  0  0
   48.3994   58.8085   30.6607 C   0  0  0  0  0  0  0  0  0  0  0  0
   46.9263   59.2248   30.5896 C   0  0  1  0  0  0  0  0  0  0  0  0
   46.0301   58.1131   30.4804 O   0  0  0  0  0  0  0  0  0  0  0  0
   46.5233   60.0047   31.8328 C   0  0  1  0  0  0  0  0  0  0  0  0
   46.6827   61.3932   31.6432 O   0  0  0  0  0  0  0  0  0  0  0  0
   45.0787   59.5952   32.0888 C   0  0  1  0  0  0  0  0  0  0  0  0
   44.1683   60.4682   31.4511 O   0  0  0  0  0  0  0  0  0  0  0  0
   44.9708   58.2416   31.4147 C   0  0  2  0  0  0  0  0  0  0  0  0
   51.8064   53.7987   28.6304 O   0  0  0  0  0  0  0  0  0  0  0  0
   42.4172   54.0418   33.2745 N   0  0  0  0  0  0  0  0  0  0  0  0
   42.0261   54.9014   32.2790 C   0  0  0  0  0  0  0  0  0  0  0  0
   42.8294   55.9693   31.9378 N   0  0  0  0  0  0  0  0  0  0  0  0
   44.0150   56.1680   32.5407 C   0  0  0  0  0  0  0  0  0  0  0  0
   44.4287   55.3111   33.5463 C   0  0  0  0  0  0  0  0  0  0  0  0
   43.6175   54.2530   33.9054 C   0  0  0  0  0  0  0  0  0  0  0  0
   43.9974   53.4171   34.8522 N   0  0  0  0  0  0  0  0  0  0  0  0
   45.6385   55.7242   33.9855 N   0  0  0  0  0  0  0  0  0  0  0  0
   45.9827   56.8393   33.2931 C   0  0  0  0  0  0  0  0  0  0  0  0
   44.9832   57.1260   32.3893 N   0  0  0  0  0  0  0  0  0  0  0  0
  2  1  1  1  0  0  0
  2  3  1  0  0  0  0
  2  5  1  0  0  0  0
  3  4  1  0  0  0  0
  3 16  1  0  0  0  0
  5  6  1  0  0  0  0
  6  7  1  0  0  0  0
  7  8  1  0  0  0  0
  9  8  1  1  0  0  0
  9 10  1  0  0  0  0
  9 11  1  0  0  0  0
 10 15  1  0  0  0  0
 11 12  1  6  0  0  0
 11 13  1  0  0  0  0
 13 14  1  6  0  0  0
 13 15  1  0  0  0  0
 15 26  1  1  0  0  0
 17 18  2  0  0  0  0
 17 22  1  0  0  0  0
 18 19  1  0  0  0  0
 19 20  2  0  0  0  0
 20 21  1  0  0  0  0
 20 26  1  0  0  0  0
 21 22  2  0  0  0  0
 21 24  1  0  0  0  0
 22 23  1  0  0  0  0
 24 25  2  0  0  0  0
 25 26  1  0  0  0  0
M  END
>  <CHROM.1>
168.87526454,-57.51908453,-174.54566040,91.90022572,88.31543095,-57.33496080
-115.55939900,46.68478940,56.73372468,31.46743775,0.06664411,-0.50827787
3.07996316

>  <Name>
ligand

>  <RI>
0

>  <Rbt.Current_Directory>
/home/itssahil/PROJECTS/Mol_Feturizer/New_Systems/rnas/3GX3

>  <Rbt.Executable>
rbdock ($Id: //depot/dev/client3/rdock/2013.1/src/exe/rbdock.cxx#4 $)

>  <Rbt.Library>
libRbt.so (2013.1, Build901 2013/11/27)

>  <Rbt.Parameter_File>
/export/apps/rDock/src/rDock_2013.1_src/data/scripts/dock_solv.prm

>  <Rbt.Receptor>
prm/pocket_docking_5.prm

>  <SCORE>
-16.8759

>  <SCORE.INTER>
-14.0359

>  <SCORE.INTER.CONST>
1

>  <SCORE.INTER.POLAR>
0

>  <SCORE.INTER.ROT>
7

>  <SCORE.INTER.SOLV>
11.7832

>  <SCORE.INTER.VDW>
-21.5517

>  <SCORE.INTER.norm>
-0.539843

>  <SCORE.INTRA>
-2.83996

>  <SCORE.INTRA.DIHEDRAL>
-0.438464

>  <SCORE.INTRA.DIHEDRAL.0>
5.78979

>  <SCORE.INTRA.POLAR>
0

>  <SCORE.INTRA.POLAR.0>
0

>  <SCORE.INTRA.REPUL>
0

>  <SCORE.INTRA.REPUL.0>
0

>  <SCORE.INTRA.SOLV>
-0.112455

>  <SCORE.INTRA.SOLV.lig_0>
-49.9151

>  <SCORE.INTRA.VDW>
-2.5645

>  <SCORE.INTRA.VDW.0>
-0.211125

>  <SCORE.INTRA.norm>
-0.109229

>  <SCORE.RESTR>
0

>  <SCORE.RESTR.CAVITY>
0

>  <SCORE.RESTR.norm>
0

>  <SCORE.SYSTEM>
0

>  <SCORE.SYSTEM.CONST>
0

>  <SCORE.SYSTEM.DIHEDRAL>
0

>  <SCORE.SYSTEM.SOLV>
0

>  <SCORE.SYSTEM.norm>
0

>  <SCORE.heavy>
26

>  <SCORE.norm>
-0.649072

>  <RMSD>
5.359

$$$$
ligand
 OpenBabel11021811483D
libRbt.so/2013.1/901 2013/11/27
 26 28  0  0  0  0  0  0  0  0999 V2000
   45.6203   61.4138   31.5401 N   0  0  0  0  0  0  0  0  0  0  0  0
   46.2286   60.0930   31.3575 C   0  0  2  0  0  0  0  0  0  0  0  0
   45.2617   58.9239   31.5575 C   0  0  0  0  0  0  0  0  0  0  0  0
   44.4173   59.0142   32.4490 O   0  0  0  0  0  0  0  0  0  0  0  0
   47.4504   59.8157   32.2430 C   0  0  0  0  0  0  0  0  0  0  0  0
   48.1999   58.4978   32.1546 C   0  0  0  0  0  0  0  0  0  0  0  0
   49.4182   58.5091   33.4900 S   0  0  0  0  0  0  0  0  0  0  0  0
   49.5218   56.7163   33.2746 C   0  0  0  0  0  0  0  0  0  0  0  0
   48.3896   55.9308   33.9449 C   0  0  1  0  0  0  0  0  0  0  0  0
   47.2358   55.7802   33.1100 O   0  0  0  0  0  0  0  0  0  0  0  0
   48.8525   54.5321   34.3259 C   0  0  1  0  0  0  0  0  0  0  0  0
   49.3451   54.4952   35.6471 O   0  0  0  0  0  0  0  0  0  0  0  0
   47.6256   53.6538   34.1175 C   0  0  1  0  0  0  0  0  0  0  0  0
   46.8590   53.5397   35.2993 O   0  0  0  0  0  0  0  0  0  0  0  0
   46.8041   54.4292   33.1065 C   0  0  2  0  0  0  0  0  0  0  0  0
   45.2838   57.9050   30.8558 O   0  0  0  0  0  0  0  0  0  0  0  0
   49.9783   52.8979   29.2080 N   0  0  0  0  0  0  0  0  0  0  0  0
   50.3223   53.4505   30.4159 C   0  0  0  0  0  0  0  0  0  0  0  0
   49.3384   53.8089   31.3133 N   0  0  0  0  0  0  0  0  0  0  0  0
   48.0388   53.5941   31.0425 C   0  0  0  0  0  0  0  0  0  0  0  0
   47.6707   53.0361   29.8301 C   0  0  0  0  0  0  0  0  0  0  0  0
   48.6517   52.6954   28.9203 C   0  0  0  0  0  0  0  0  0  0  0  0
   48.3246   52.1512   27.7643 N   0  0  0  0  0  0  0  0  0  0  0  0
   46.3236   52.9283   29.8037 N   0  0  0  0  0  0  0  0  0  0  0  0
   45.8351   53.4309   30.9657 C   0  0  0  0  0  0  0  0  0  0  0  0
   46.8908   53.8470   31.7471 N   0  0  0  0  0  0  0  0  0  0  0  0
  2  1  1  1  0  0  0
  2  3  1  0  0  0  0
  2  5  1  0  0  0  0
  3  4  1  0  0  0  0
  3 16  1  0  0  0  0
  5  6  1  0  0  0  0
  6  7  1  0  0  0  0
  7  8  1  0  0  0  0
  9  8  1  6  0  0  0
  9 10  1  0  0  0  0
  9 11  1  0  0  0  0
 10 15  1  0  0  0  0
 11 12  1  1  0  0  0
 11 13  1  0  0  0  0
 13 14  1  1  0  0  0
 13 15  1  0  0  0  0
 15 26  1  6  0  0  0
 17 18  2  0  0  0  0
 17 22  1  0  0  0  0
 18 19  1  0  0  0  0
 19 20  2  0  0  0  0
 20 21  1  0  0  0  0
 20 26  1  0  0  0  0
 21 22  2  0  0  0  0
 21 24  1  0  0  0  0
 22 23  1  0  0  0  0
 24 25  2  0  0  0  0
 25 26  1  0  0  0  0
M  END
>  <CHROM.1>
-37.91332490,-179.16821213,-173.15343018,162.14269013,-80.17786499,87.56466114
67.22974633,47.67182174,55.77920704,32.04820514,2.10705142,-1.07264698,0.75250061

>  <Name>
ligand

>  <RI>
0

>  <Rbt.Current_Directory>
/home/itssahil/PROJECTS/Mol_Feturizer/New_Systems/rnas/3GX3

>  <Rbt.Executable>
rbdock ($Id: //depot/dev/client3/rdock/2013.1/src/exe/rbdock.cxx#4 $)

>  <Rbt.Library>
libRbt.so (2013.1, Build901 2013/11/27)

>  <Rbt.Parameter_File>
/export/apps/rDock/src/rDock_2013.1_src/data/scripts/dock_solv.prm

>  <Rbt.Receptor>
prm/pocket_docking_4.prm

>  <SCORE>
-21.0939

>  <SCORE.INTER>
-17.9391

>  <SCORE.INTER.CONST>
1

>  <SCORE.INTER.POLAR>
0

>  <SCORE.INTER.ROT>
7

>  <SCORE.INTER.SOLV>
17.207

>  <SCORE.INTER.VDW>
-25.9617

>  <SCORE.INTER.norm>
-0.689965

>  <SCORE.INTRA>
-3.1548

>  <SCORE.INTRA.DIHEDRAL>
0.638462

>  <SCORE.INTRA.DIHEDRAL.0>
5.78979

>  <SCORE.INTRA.POLAR>
0

>  <SCORE.INTRA.POLAR.0>
0

>  <SCORE.INTRA.REPUL>
0

>  <SCORE.INTRA.REPUL.0>
0

>  <SCORE.INTRA.SOLV>
-0.965313

>  <SCORE.INTRA.SOLV.lig_0>
-49.9151

>  <SCORE.INTRA.VDW>
-2.99138

>  <SCORE.INTRA.VDW.0>
-0.211125

>  <SCORE.INTRA.norm>
-0.121339

>  <SCORE.RESTR>
0

>  <SCORE.RESTR.CAVITY>
0

>  <SCORE.RESTR.norm>
0

>  <SCORE.SYSTEM>
0

>  <SCORE.SYSTEM.CONST>
0

>  <SCORE.SYSTEM.DIHEDRAL>
0

>  <SCORE.SYSTEM.SOLV>
0

>  <SCORE.SYSTEM.norm>
0

>  <SCORE.heavy>
26

>  <SCORE.norm>
-0.811303

>  <RMSD>
5.370

$$$$
ligand
 OpenBabel11021811483D
libRbt.so/2013.1/901 2013/11/27
 26 28  0  0  0  0  0  0  0  0999 V2000
   39.0389   53.5080   29.6465 N   0  0  0  0  0  0  0  0  0  0  0  0
   39.7960   54.1163   30.7440 C   0  0  2  0  0  0  0  0  0  0  0  0
   40.9081   55.0641   30.2894 C   0  0  0  0  0  0  0  0  0  0  0  0
   41.2905   55.9307   31.0760 O   0  0  0  0  0  0  0  0  0  0  0  0
   40.4333   53.1194   31.7205 C   0  0  0  0  0  0  0  0  0  0  0  0
   40.9807   53.5763   33.0615 C   0  0  0  0  0  0  0  0  0  0  0  0
   42.4642   52.5916   33.3732 S   0  0  0  0  0  0  0  0  0  0  0  0
   43.3456   53.7717   32.3235 C   0  0  0  0  0  0  0  0  0  0  0  0
   44.8384   53.9107   32.6409 C   0  0  1  0  0  0  0  0  0  0  0  0
   45.5083   54.8576   31.8009 O   0  0  0  0  0  0  0  0  0  0  0  0
   45.0464   54.3619   34.0794 C   0  0  1  0  0  0  0  0  0  0  0  0
   45.2037   53.2606   34.9464 O   0  0  0  0  0  0  0  0  0  0  0  0
   46.2737   55.2623   34.0233 C   0  0  1  0  0  0  0  0  0  0  0  0
   47.4640   54.5367   34.2560 O   0  0  0  0  0  0  0  0  0  0  0  0
   46.2964   55.7389   32.5843 C   0  0  2  0  0  0  0  0  0  0  0  0
   41.4452   54.9869   29.1774 O   0  0  0  0  0  0  0  0  0  0  0  0
   47.5938   60.6821   31.3598 N   0  0  0  0  0  0  0  0  0  0  0  0
   48.3994   59.5715   31.3747 C   0  0  0  0  0  0  0  0  0  0  0  0
   47.8787   58.3492   31.7447 N   0  0  0  0  0  0  0  0  0  0  0  0
   46.5784   58.2142   32.0601 C   0  0  0  0  0  0  0  0  0  0  0  0
   45.7483   59.3221   32.0495 C   0  0  0  0  0  0  0  0  0  0  0  0
   46.2706   60.5515   31.7001 C   0  0  0  0  0  0  0  0  0  0  0  0
   45.4953   61.6181   31.6713 N   0  0  0  0  0  0  0  0  0  0  0  0
   44.5052   58.9249   32.4019 N   0  0  0  0  0  0  0  0  0  0  0  0
   44.5426   57.5929   32.6584 C   0  0  0  0  0  0  0  0  0  0  0  0
   45.8255   57.1368   32.4480 N   0  0  0  0  0  0  0  0  0  0  0  0
  2  1  1  6  0  0  0
  2  3  1  0  0  0  0
  2  5  1  0  0  0  0
  3  4  1  0  0  0  0
  3 16  1  0  0  0  0
  5  6  1  0  0  0  0
  6  7  1  0  0  0  0
  7  8  1  0  0  0  0
  9  8  1  6  0  0  0
  9 10  1  0  0  0  0
  9 11  1  0  0  0  0
 10 15  1  0  0  0  0
 11 12  1  1  0  0  0
 11 13  1  0  0  0  0
 13 14  1  6  0  0  0
 13 15  1  0  0  0  0
 15 26  1  1  0  0  0
 17 18  2  0  0  0  0
 17 22  1  0  0  0  0
 18 19  1  0  0  0  0
 19 20  2  0  0  0  0
 20 21  1  0  0  0  0
 20 26  1  0  0  0  0
 21 22  2  0  0  0  0
 21 24  1  0  0  0  0
 22 23  1  0  0  0  0
 24 25  2  0  0  0  0
 25 26  1  0  0  0  0
M  END
>  <CHROM.1>
156.52079283,-166.34108231,-143.25626427,82.51429085,152.83026761,-179.60207703
-124.40473138,44.22199582,55.91285517,32.19184776,2.47721258,0.46651946,2.67903441

>  <Name>
ligand

>  <RI>
0

>  <Rbt.Current_Directory>
/home/itssahil/PROJECTS/Mol_Feturizer/New_Systems/rnas/3GX3

>  <Rbt.Executable>
rbdock ($Id: //depot/dev/client3/rdock/2013.1/src/exe/rbdock.cxx#4 $)

>  <Rbt.Library>
libRbt.so (2013.1, Build901 2013/11/27)

>  <Rbt.Parameter_File>
/export/apps/rDock/src/rDock_2013.1_src/data/scripts/dock_solv.prm

>  <Rbt.Receptor>
prm/pocket_docking_8.prm

>  <SCORE>
-10.4528

>  <SCORE.INTER>
-9.47901

>  <SCORE.INTER.CONST>
1

>  <SCORE.INTER.POLAR>
0

>  <SCORE.INTER.ROT>
7

>  <SCORE.INTER.SOLV>
14.9691

>  <SCORE.INTER.VDW>
-19.5757

>  <SCORE.INTER.norm>
-0.364577

>  <SCORE.INTRA>
-0.973828

>  <SCORE.INTRA.DIHEDRAL>
3.11953

>  <SCORE.INTRA.DIHEDRAL.0>
5.78979

>  <SCORE.INTRA.POLAR>
0

>  <SCORE.INTRA.POLAR.0>
0

>  <SCORE.INTRA.REPUL>
0

>  <SCORE.INTRA.REPUL.0>
0

>  <SCORE.INTRA.SOLV>
-0.933351

>  <SCORE.INTRA.SOLV.lig_0>
-49.9151

>  <SCORE.INTRA.VDW>
-2.06692

>  <SCORE.INTRA.VDW.0>
-0.211125

>  <SCORE.INTRA.norm>
-0.0374549

>  <SCORE.RESTR>
0

>  <SCORE.RESTR.CAVITY>
0

>  <SCORE.RESTR.norm>
0

>  <SCORE.SYSTEM>
0

>  <SCORE.SYSTEM.CONST>
0

>  <SCORE.SYSTEM.DIHEDRAL>
0

>  <SCORE.SYSTEM.SOLV>
0

>  <SCORE.SYSTEM.norm>
0

>  <SCORE.heavy>
26

>  <SCORE.norm>
-0.402032

>  <RMSD>
5.375

$$$$
ligand
 OpenBabel11021811483D
libRbt.so/2013.1/901 2013/11/27
 26 28  0  0  0  0  0  0  0  0999 V2000
   44.4783   60.8933   31.1648 N   0  0  0  0  0  0  0  0  0  0  0  0
   45.5762   59.9226   31.1803 C   0  0  2  0  0  0  0  0  0  0  0  0
   45.1882   58.5451   31.7221 C   0  0  0  0  0  0  0  0  0  0  0  0
   45.4837   57.5538   31.0542 O   0  0  0  0  0  0  0  0  0  0  0  0
   46.8235   60.3692   31.9540 C   0  0  0  0  0  0  0  0  0  0  0  0
   48.0909   59.5325   31.9485 C   0  0  0  0  0  0  0  0  0  0  0  0
   47.7950   58.1445   33.0682 S   0  0  0  0  0  0  0  0  0  0  0  0
   49.5497   57.7489   32.8792 C   0  0  0  0  0  0  0  0  0  0  0  0
   49.8339   56.2906   32.5037 C   0  0  1  0  0  0  0  0  0  0  0  0
   49.3447   55.3533   33.4697 O   0  0  0  0  0  0  0  0  0  0  0  0
   49.1883   55.9389   31.1713 C   0  0  1  0  0  0  0  0  0  0  0  0
   50.0796   56.1444   30.0976 O   0  0  0  0  0  0  0  0  0  0  0  0
   48.7598   54.4855   31.3265 C   0  0  1  0  0  0  0  0  0  0  0  0
   49.7643   53.5954   30.8835 O   0  0  0  0  0  0  0  0  0  0  0  0
   48.6213   54.3167   32.8267 C   0  0  2  0  0  0  0  0  0  0  0  0
   44.6069   58.3863   32.8028 O   0  0  0  0  0  0  0  0  0  0  0  0
   45.1144   52.3795   36.2278 N   0  0  0  0  0  0  0  0  0  0  0  0
   46.4553   52.1021   36.1403 C   0  0  0  0  0  0  0  0  0  0  0  0
   47.2186   52.7002   35.1596 N   0  0  0  0  0  0  0  0  0  0  0  0
   46.6797   53.5845   34.3017 C   0  0  0  0  0  0  0  0  0  0  0  0
   45.3289   53.8795   34.3744 C   0  0  0  0  0  0  0  0  0  0  0  0
   44.5570   53.2667   35.3414 C   0  0  0  0  0  0  0  0  0  0  0  0
   43.2707   53.5421   35.4367 N   0  0  0  0  0  0  0  0  0  0  0  0
   45.0392   54.7836   33.4122 N   0  0  0  0  0  0  0  0  0  0  0  0
   46.1763   55.0443   32.7192 C   0  0  0  0  0  0  0  0  0  0  0  0
   47.2055   54.3070   33.2626 N   0  0  0  0  0  0  0  0  0  0  0  0
  2  1  1  1  0  0  0
  2  3  1  0  0  0  0
  2  5  1  0  0  0  0
  3  4  1  0  0  0  0
  3 16  1  0  0  0  0
  5  6  1  0  0  0  0
  6  7  1  0  0  0  0
  7  8  1  0  0  0  0
  9  8  1  1  0  0  0
  9 10  1  0  0  0  0
  9 11  1  0  0  0  0
 10 15  1  0  0  0  0
 11 12  1  6  0  0  0
 11 13  1  0  0  0  0
 13 14  1  1  0  0  0
 13 15  1  0  0  0  0
 15 26  1  6  0  0  0
 17 18  2  0  0  0  0
 17 22  1  0  0  0  0
 18 19  1  0  0  0  0
 19 20  2  0  0  0  0
 20 21  1  0  0  0  0
 20 26  1  0  0  0  0
 21 22  2  0  0  0  0
 21 24  1  0  0  0  0
 22 23  1  0  0  0  0
 24 25  2  0  0  0  0
 25 26  1  0  0  0  0
M  END
>  <CHROM.1>
129.71429557,-174.03794883,-76.55272209,-171.32013478,-128.95398441,-59.73166920
-91.86353557,47.01721709,56.03853930,32.88968020,1.42920230,0.40211215,-0.44083728

>  <Name>
ligand

>  <RI>
0

>  <Rbt.Current_Directory>
/home/itssahil/PROJECTS/Mol_Feturizer/New_Systems/rnas/3GX3

>  <Rbt.Executable>
rbdock ($Id: //depot/dev/client3/rdock/2013.1/src/exe/rbdock.cxx#4 $)

>  <Rbt.Library>
libRbt.so (2013.1, Build901 2013/11/27)

>  <Rbt.Parameter_File>
/export/apps/rDock/src/rDock_2013.1_src/data/scripts/dock_solv.prm

>  <Rbt.Receptor>
prm/pocket_docking_5.prm

>  <SCORE>
-19.4566

>  <SCORE.INTER>
-15.7788

>  <SCORE.INTER.CONST>
1

>  <SCORE.INTER.POLAR>
0

>  <SCORE.INTER.ROT>
7

>  <SCORE.INTER.SOLV>
18.5279

>  <SCORE.INTER.VDW>
-24.9618

>  <SCORE.INTER.norm>
-0.606877

>  <SCORE.INTRA>
-3.67783

>  <SCORE.INTRA.DIHEDRAL>
0.442434

>  <SCORE.INTRA.DIHEDRAL.0>
5.78979

>  <SCORE.INTRA.POLAR>
0

>  <SCORE.INTRA.POLAR.0>
0

>  <SCORE.INTRA.REPUL>
0

>  <SCORE.INTRA.REPUL.0>
0

>  <SCORE.INTRA.SOLV>
-0.653173

>  <SCORE.INTRA.SOLV.lig_0>
-49.9151

>  <SCORE.INTRA.VDW>
-3.57246

>  <SCORE.INTRA.VDW.0>
-0.211125

>  <SCORE.INTRA.norm>
-0.141455

>  <SCORE.RESTR>
0

>  <SCORE.RESTR.CAVITY>
0

>  <SCORE.RESTR.norm>
0

>  <SCORE.SYSTEM>
0

>  <SCORE.SYSTEM.CONST>
0

>  <SCORE.SYSTEM.DIHEDRAL>
0

>  <SCORE.SYSTEM.SOLV>
0

>  <SCORE.SYSTEM.norm>
0

>  <SCORE.heavy>
26

>  <SCORE.norm>
-0.748331

>  <RMSD>
5.393

$$$$
ligand
 OpenBabel11021811483D
libRbt.so/2013.1/901 2013/11/27
 26 28  0  0  0  0  0  0  0  0999 V2000
   47.6146   54.2826   32.0157 N   0  0  0  0  0  0  0  0  0  0  0  0
   48.5894   55.0753   31.2612 C   0  0  2  0  0  0  0  0  0  0  0  0
   49.7082   54.2505   30.6212 C   0  0  0  0  0  0  0  0  0  0  0  0
   50.3471   54.7559   29.6978 O   0  0  0  0  0  0  0  0  0  0  0  0
   49.2655   56.1983   32.0584 C   0  0  0  0  0  0  0  0  0  0  0  0
   48.4642   57.3724   32.5932 C   0  0  0  0  0  0  0  0  0  0  0  0
   47.9147   58.3175   31.1536 S   0  0  0  0  0  0  0  0  0  0  0  0
   46.6231   58.9994   32.2205 C   0  0  0  0  0  0  0  0  0  0  0  0
   45.2550   58.3258   32.0696 C   0  0  1  0  0  0  0  0  0  0  0  0
   44.8444   58.1812   30.7052 O   0  0  0  0  0  0  0  0  0  0  0  0
   45.2663   56.9335   32.6839 C   0  0  1  0  0  0  0  0  0  0  0  0
   44.8433   56.9614   34.0292 O   0  0  0  0  0  0  0  0  0  0  0  0
   44.3527   56.1116   31.7839 C   0  0  1  0  0  0  0  0  0  0  0  0
   43.0174   56.1222   32.2471 O   0  0  0  0  0  0  0  0  0  0  0  0
   44.3907   56.8590   30.4655 C   0  0  2  0  0  0  0  0  0  0  0  0
   50.0050   53.1106   31.0000 O   0  0  0  0  0  0  0  0  0  0  0  0
   47.7737   57.4592   26.4889 N   0  0  0  0  0  0  0  0  0  0  0  0
   47.1423   58.4329   27.2209 C   0  0  0  0  0  0  0  0  0  0  0  0
   46.2651   58.0786   28.2245 N   0  0  0  0  0  0  0  0  0  0  0  0
   46.0401   56.7878   28.5275 C   0  0  0  0  0  0  0  0  0  0  0  0
   46.6687   55.7901   27.8020 C   0  0  0  0  0  0  0  0  0  0  0  0
   47.5314   56.1407   26.7825 C   0  0  0  0  0  0  0  0  0  0  0  0
   48.1504   55.2069   26.0866 N   0  0  0  0  0  0  0  0  0  0  0  0
   46.2774   54.5945   28.2965 N   0  0  0  0  0  0  0  0  0  0  0  0
   45.3953   54.8201   29.3027 C   0  0  0  0  0  0  0  0  0  0  0  0
   45.2395   56.1800   29.4591 N   0  0  0  0  0  0  0  0  0  0  0  0
  2  1  1  1  0  0  0
  2  3  1  0  0  0  0
  2  5  1  0  0  0  0
  3  4  1  0  0  0  0
  3 16  1  0  0  0  0
  5  6  1  0  0  0  0
  6  7  1  0  0  0  0
  7  8  1  0  0  0  0
  9  8  1  6  0  0  0
  9 10  1  0  0  0  0
  9 11  1  0  0  0  0
 10 15  1  0  0  0  0
 11 12  1  1  0  0  0
 11 13  1  0  0  0  0
 13 14  1  1  0  0  0
 13 15  1  0  0  0  0
 15 26  1  6  0  0  0
 17 18  2  0  0  0  0
 17 22  1  0  0  0  0
 18 19  1  0  0  0  0
 19 20  2  0  0  0  0
 20 21  1  0  0  0  0
 20 26  1  0  0  0  0
 21 22  2  0  0  0  0
 21 24  1  0  0  0  0
 22 23  1  0  0  0  0
 24 25  2  0  0  0  0
 25 26  1  0  0  0  0
M  END
>  <CHROM.1>
160.85423028,-64.71834902,-67.68157325,158.67078063,-99.04911104,-48.14376344
-21.65854077,46.86295647,56.44606092,30.30571085,-2.32595829,0.53268100,-1.53403859

>  <Name>
ligand

>  <RI>
0

>  <Rbt.Current_Directory>
/home/itssahil/PROJECTS/Mol_Feturizer/New_Systems/rnas/3GX3

>  <Rbt.Executable>
rbdock ($Id: //depot/dev/client3/rdock/2013.1/src/exe/rbdock.cxx#4 $)

>  <Rbt.Library>
libRbt.so (2013.1, Build901 2013/11/27)

>  <Rbt.Parameter_File>
/export/apps/rDock/src/rDock_2013.1_src/data/scripts/dock_solv.prm

>  <Rbt.Receptor>
prm/pocket_docking_8.prm

>  <SCORE>
-13.4369

>  <SCORE.INTER>
-9.42459

>  <SCORE.INTER.CONST>
1

>  <SCORE.INTER.POLAR>
0

>  <SCORE.INTER.ROT>
7

>  <SCORE.INTER.SOLV>
7.6609

>  <SCORE.INTER.VDW>
-17.1034

>  <SCORE.INTER.norm>
-0.362484

>  <SCORE.INTRA>
-4.01234

>  <SCORE.INTRA.DIHEDRAL>
0.277124

>  <SCORE.INTRA.DIHEDRAL.0>
5.78979

>  <SCORE.INTRA.POLAR>
0

>  <SCORE.INTRA.POLAR.0>
0

>  <SCORE.INTRA.REPUL>
0

>  <SCORE.INTRA.REPUL.0>
0

>  <SCORE.INTRA.SOLV>
2.12442

>  <SCORE.INTRA.SOLV.lig_0>
-49.9151

>  <SCORE.INTRA.VDW>
-5.21311

>  <SCORE.INTRA.VDW.0>
-0.211125

>  <SCORE.INTRA.norm>
-0.154321

>  <SCORE.RESTR>
0

>  <SCORE.RESTR.CAVITY>
0

>  <SCORE.RESTR.norm>
0

>  <SCORE.SYSTEM>
0

>  <SCORE.SYSTEM.CONST>
0

>  <SCORE.SYSTEM.DIHEDRAL>
0

>  <SCORE.SYSTEM.SOLV>
0

>  <SCORE.SYSTEM.norm>
0

>  <SCORE.heavy>
26

>  <SCORE.norm>
-0.516805

>  <RMSD>
5.398

$$$$
ligand
 OpenBabel11021811483D
libRbt.so/2013.1/901 2013/11/27
 26 28  0  0  0  0  0  0  0  0999 V2000
   45.9559   55.2145   27.9787 N   0  0  0  0  0  0  0  0  0  0  0  0
   46.1949   56.6518   27.8208 C   0  0  2  0  0  0  0  0  0  0  0  0
   47.0303   57.0177   26.5920 C   0  0  0  0  0  0  0  0  0  0  0  0
   46.8203   58.1027   26.0489 O   0  0  0  0  0  0  0  0  0  0  0  0
   46.8551   57.3338   29.0261 C   0  0  0  0  0  0  0  0  0  0  0  0
   46.1516   57.4031   30.3703 C   0  0  0  0  0  0  0  0  0  0  0  0
   47.4000   57.9031   31.5782 S   0  0  0  0  0  0  0  0  0  0  0  0
   46.2501   57.3326   32.8524 C   0  0  0  0  0  0  0  0  0  0  0  0
   46.0359   55.8155   32.8797 C   0  0  1  0  0  0  0  0  0  0  0  0
   47.2015   55.0881   33.2839 O   0  0  0  0  0  0  0  0  0  0  0  0
   44.9189   55.4435   33.8439 C   0  0  1  0  0  0  0  0  0  0  0  0
   43.6735   55.3723   33.1857 O   0  0  0  0  0  0  0  0  0  0  0  0
   45.3586   54.1139   34.4430 C   0  0  1  0  0  0  0  0  0  0  0  0
   44.8577   53.0180   33.7043 O   0  0  0  0  0  0  0  0  0  0  0  0
   46.8654   54.1333   34.2773 C   0  0  2  0  0  0  0  0  0  0  0  0
   47.9117   56.2802   26.1336 O   0  0  0  0  0  0  0  0  0  0  0  0
   46.8567   53.5340   39.4983 N   0  0  0  0  0  0  0  0  0  0  0  0
   45.9319   53.0837   38.5903 C   0  0  0  0  0  0  0  0  0  0  0  0
   46.0960   53.3569   37.2485 N   0  0  0  0  0  0  0  0  0  0  0  0
   47.1710   54.0308   36.8027 C   0  0  0  0  0  0  0  0  0  0  0  0
   48.1167   54.4923   37.7024 C   0  0  0  0  0  0  0  0  0  0  0  0
   47.9450   54.2391   39.0488 C   0  0  0  0  0  0  0  0  0  0  0  0
   48.8397   54.6586   39.9223 N   0  0  0  0  0  0  0  0  0  0  0  0
   49.0850   55.1325   37.0099 N   0  0  0  0  0  0  0  0  0  0  0  0
   48.7541   55.1048   35.6942 C   0  0  0  0  0  0  0  0  0  0  0  0
   47.5669   54.4209   35.5500 N   0  0  0  0  0  0  0  0  0  0  0  0
  2  1  1  1  0  0  0
  2  3  1  0  0  0  0
  2  5  1  0  0  0  0
  3  4  1  0  0  0  0
  3 16  1  0  0  0  0
  5  6  1  0  0  0  0
  6  7  1  0  0  0  0
  7  8  1  0  0  0  0
  9  8  1  1  0  0  0
  9 10  1  0  0  0  0
  9 11  1  0  0  0  0
 10 15  1  0  0  0  0
 11 12  1  6  0  0  0
 11 13  1  0  0  0  0
 13 14  1  6  0  0  0
 13 15  1  0  0  0  0
 15 26  1  1  0  0  0
 17 18  2  0  0  0  0
 17 22  1  0  0  0  0
 18 19  1  0  0  0  0
 19 20  2  0  0  0  0
 20 21  1  0  0  0  0
 20 26  1  0  0  0  0
 21 22  2  0  0  0  0
 21 24  1  0  0  0  0
 22 23  1  0  0  0  0
 24 25  2  0  0  0  0
 25 26  1  0  0  0  0
M  END
>  <CHROM.1>
149.14790701,-63.72452855,166.49779642,-163.82877545,68.34072229,67.40917525
156.19196444,46.76448087,55.47187390,33.26965536,1.63492721,-0.56485901,-1.25030183

>  <Name>
ligand

>  <RI>
0

>  <Rbt.Current_Directory>
/home/itssahil/PROJECTS/Mol_Feturizer/New_Systems/rnas/3GX3

>  <Rbt.Executable>
rbdock ($Id: //depot/dev/client3/rdock/2013.1/src/exe/rbdock.cxx#4 $)

>  <Rbt.Library>
libRbt.so (2013.1, Build901 2013/11/27)

>  <Rbt.Parameter_File>
/export/apps/rDock/src/rDock_2013.1_src/data/scripts/dock_solv.prm

>  <Rbt.Receptor>
prm/pocket_docking_6.prm

>  <SCORE>
-16.3064

>  <SCORE.INTER>
-13.66

>  <SCORE.INTER.CONST>
1

>  <SCORE.INTER.POLAR>
0

>  <SCORE.INTER.ROT>
7

>  <SCORE.INTER.SOLV>
14.218

>  <SCORE.INTER.VDW>
-22.1127

>  <SCORE.INTER.norm>
-0.525384

>  <SCORE.INTRA>
-2.64909

>  <SCORE.INTRA.DIHEDRAL>
-1.6098

>  <SCORE.INTRA.DIHEDRAL.0>
5.78979

>  <SCORE.INTRA.POLAR>
0

>  <SCORE.INTRA.POLAR.0>
0

>  <SCORE.INTRA.REPUL>
0

>  <SCORE.INTRA.REPUL.0>
0

>  <SCORE.INTRA.SOLV>
-0.476033

>  <SCORE.INTRA.SOLV.lig_0>
-49.9151

>  <SCORE.INTRA.VDW>
-1.60618

>  <SCORE.INTRA.VDW.0>
-0.211125

>  <SCORE.INTRA.norm>
-0.101888

>  <SCORE.RESTR>
0.00266065

>  <SCORE.RESTR.CAVITY>
0.00266065

>  <SCORE.RESTR.norm>
0.000102333

>  <SCORE.SYSTEM>
0

>  <SCORE.SYSTEM.CONST>
0

>  <SCORE.SYSTEM.DIHEDRAL>
0

>  <SCORE.SYSTEM.SOLV>
0

>  <SCORE.SYSTEM.norm>
0

>  <SCORE.heavy>
26

>  <SCORE.norm>
-0.62717

>  <RMSD>
5.419

$$$$
ligand
 OpenBabel11021811483D
libRbt.so/2013.1/901 2013/11/27
 26 28  0  0  0  0  0  0  0  0999 V2000
   46.9596   52.5819   35.6006 N   0  0  0  0  0  0  0  0  0  0  0  0
   47.7491   53.3584   34.6406 C   0  0  2  0  0  0  0  0  0  0  0  0
   48.4790   54.5564   35.2520 C   0  0  0  0  0  0  0  0  0  0  0  0
   48.1174   54.9533   36.3601 O   0  0  0  0  0  0  0  0  0  0  0  0
   46.9629   53.8859   33.4334 C   0  0  0  0  0  0  0  0  0  0  0  0
   47.6728   54.3061   32.1582 C   0  0  0  0  0  0  0  0  0  0  0  0
   46.3875   54.5458   30.9099 S   0  0  0  0  0  0  0  0  0  0  0  0
   47.4327   53.5796   29.7939 C   0  0  0  0  0  0  0  0  0  0  0  0
   48.1589   54.4085   28.7291 C   0  0  1  0  0  0  0  0  0  0  0  0
   47.3196   55.3878   28.1065 O   0  0  0  0  0  0  0  0  0  0  0  0
   49.3412   55.1514   29.3344 C   0  0  1  0  0  0  0  0  0  0  0  0
   50.5304   54.4009   29.2262 O   0  0  0  0  0  0  0  0  0  0  0  0
   49.3923   56.4708   28.5751 C   0  0  1  0  0  0  0  0  0  0  0  0
   50.2373   56.3899   27.4450 O   0  0  0  0  0  0  0  0  0  0  0  0
   47.9710   56.6472   28.0779 C   0  0  2  0  0  0  0  0  0  0  0  0
   49.4203   55.1295   34.6894 O   0  0  0  0  0  0  0  0  0  0  0  0
   48.0934   59.9984   32.1242 N   0  0  0  0  0  0  0  0  0  0  0  0
   49.0867   59.1592   31.6863 C   0  0  0  0  0  0  0  0  0  0  0  0
   48.8607   58.3306   30.6072 N   0  0  0  0  0  0  0  0  0  0  0  0
   47.6894   58.3528   29.9469 C   0  0  0  0  0  0  0  0  0  0  0  0
   46.6749   59.1936   30.3718 C   0  0  0  0  0  0  0  0  0  0  0  0
   46.8899   60.0094   31.4648 C   0  0  0  0  0  0  0  0  0  0  0  0
   45.9417   60.8272   31.8793 N   0  0  0  0  0  0  0  0  0  0  0  0
   45.6134   59.0267   29.5517 N   0  0  0  0  0  0  0  0  0  0  0  0
   45.9314   58.0787   28.6343 C   0  0  0  0  0  0  0  0  0  0  0  0
   47.2206   57.6519   28.8665 N   0  0  0  0  0  0  0  0  0  0  0  0
  2  1  1  1  0  0  0
  2  3  1  0  0  0  0
  2  5  1  0  0  0  0
  3  4  1  0  0  0  0
  3 16  1  0  0  0  0
  5  6  1  0  0  0  0
  6  7  1  0  0  0  0
  7  8  1  0  0  0  0
  9  8  1  1  0  0  0
  9 10  1  0  0  0  0
  9 11  1  0  0  0  0
 10 15  1  0  0  0  0
 11 12  1  6  0  0  0
 11 13  1  0  0  0  0
 13 14  1  6  0  0  0
 13 15  1  0  0  0  0
 15 26  1  1  0  0  0
 17 18  2  0  0  0  0
 17 22  1  0  0  0  0
 18 19  1  0  0  0  0
 19 20  2  0  0  0  0
 20 21  1  0  0  0  0
 20 26  1  0  0  0  0
 21 22  2  0  0  0  0
 21 24  1  0  0  0  0
 22 23  1  0  0  0  0
 24 25  2  0  0  0  0
 25 26  1  0  0  0  0
M  END
>  <CHROM.1>
-16.67391408,-160.20888129,169.22600577,-133.27200788,-105.15146804,-44.30879954
120.59904053,47.81834690,56.23674309,31.06251351,-1.48574470,1.32073632,-1.01944584

>  <Name>
ligand

>  <RI>
0

>  <Rbt.Current_Directory>
/home/itssahil/PROJECTS/Mol_Feturizer/New_Systems/rnas/3GX3

>  <Rbt.Executable>
rbdock ($Id: //depot/dev/client3/rdock/2013.1/src/exe/rbdock.cxx#4 $)

>  <Rbt.Library>
libRbt.so (2013.1, Build901 2013/11/27)

>  <Rbt.Parameter_File>
/export/apps/rDock/src/rDock_2013.1_src/data/scripts/dock_solv.prm

>  <Rbt.Receptor>
prm/pocket_docking_3.prm

>  <SCORE>
-9.47047

>  <SCORE.INTER>
-8.28567

>  <SCORE.INTER.CONST>
1

>  <SCORE.INTER.POLAR>
0

>  <SCORE.INTER.ROT>
7

>  <SCORE.INTER.SOLV>
18.6535

>  <SCORE.INTER.VDW>
-20.0083

>  <SCORE.INTER.norm>
-0.31868

>  <SCORE.INTRA>
-1.18541

>  <SCORE.INTRA.DIHEDRAL>
3.78816

>  <SCORE.INTRA.DIHEDRAL.0>
5.78979

>  <SCORE.INTRA.POLAR>
0

>  <SCORE.INTRA.POLAR.0>
0

>  <SCORE.INTRA.REPUL>
0

>  <SCORE.INTRA.REPUL.0>
0

>  <SCORE.INTRA.SOLV>
-0.756187

>  <SCORE.INTRA.SOLV.lig_0>
-49.9151

>  <SCORE.INTRA.VDW>
-2.7014

>  <SCORE.INTRA.VDW.0>
-0.211125

>  <SCORE.INTRA.norm>
-0.0455929

>  <SCORE.RESTR>
0.000616169

>  <SCORE.RESTR.CAVITY>
0.000616169

>  <SCORE.RESTR.norm>
2.36988e-05

>  <SCORE.SYSTEM>
0

>  <SCORE.SYSTEM.CONST>
0

>  <SCORE.SYSTEM.DIHEDRAL>
0

>  <SCORE.SYSTEM.SOLV>
0

>  <SCORE.SYSTEM.norm>
0

>  <SCORE.heavy>
26

>  <SCORE.norm>
-0.364249

>  <RMSD>
5.433

$$$$
ligand
 OpenBabel11021811483D
libRbt.so/2013.1/901 2013/11/27
 26 28  0  0  0  0  0  0  0  0999 V2000
   46.6880   55.9417   33.5218 N   0  0  0  0  0  0  0  0  0  0  0  0
   47.3834   54.8717   34.2426 C   0  0  2  0  0  0  0  0  0  0  0  0
   48.7216   55.2934   34.8534 C   0  0  0  0  0  0  0  0  0  0  0  0
   49.3374   56.2177   34.3217 O   0  0  0  0  0  0  0  0  0  0  0  0
   47.6502   53.6048   33.4196 C   0  0  0  0  0  0  0  0  0  0  0  0
   48.6697   53.6012   32.2939 C   0  0  0  0  0  0  0  0  0  0  0  0
   48.1700   54.9036   31.1442 S   0  0  0  0  0  0  0  0  0  0  0  0
   48.6671   53.7817   29.8154 C   0  0  0  0  0  0  0  0  0  0  0  0
   48.4573   54.3391   28.4034 C   0  0  1  0  0  0  0  0  0  0  0  0
   47.1439   54.8710   28.1960 O   0  0  0  0  0  0  0  0  0  0  0  0
   49.4455   55.4588   28.1109 C   0  0  1  0  0  0  0  0  0  0  0  0
   50.6123   54.9661   27.4903 O   0  0  0  0  0  0  0  0  0  0  0  0
   48.6681   56.4360   27.2387 C   0  0  1  0  0  0  0  0  0  0  0  0
   48.8365   56.1557   25.8637 O   0  0  0  0  0  0  0  0  0  0  0  0
   47.2218   56.1531   27.5944 C   0  0  2  0  0  0  0  0  0  0  0  0
   49.2001   54.7576   35.8609 O   0  0  0  0  0  0  0  0  0  0  0  0
   48.1086   59.4797   31.5649 N   0  0  0  0  0  0  0  0  0  0  0  0
   48.9827   58.5926   30.9890 C   0  0  0  0  0  0  0  0  0  0  0  0
   48.5585   57.7803   29.9584 N   0  0  0  0  0  0  0  0  0  0  0  0
   47.3054   57.8644   29.4775 C   0  0  0  0  0  0  0  0  0  0  0  0
   46.4085   58.7543   30.0436 C   0  0  0  0  0  0  0  0  0  0  0  0
   46.8233   59.5543   31.0897 C   0  0  0  0  0  0  0  0  0  0  0  0
   45.9893   60.4178   31.6358 N   0  0  0  0  0  0  0  0  0  0  0  0
   45.2308   58.6444   29.3893 N   0  0  0  0  0  0  0  0  0  0  0  0
   45.3618   57.6846   28.4390 C   0  0  0  0  0  0  0  0  0  0  0  0
   46.6477   57.1919   28.4808 N   0  0  0  0  0  0  0  0  0  0  0  0
  2  1  1  6  0  0  0
  2  3  1  0  0  0  0
  2  5  1  0  0  0  0
  3  4  1  0  0  0  0
  3 16  1  0  0  0  0
  5  6  1  0  0  0  0
  6  7  1  0  0  0  0
  7  8  1  0  0  0  0
  9  8  1  1  0  0  0
  9 10  1  0  0  0  0
  9 11  1  0  0  0  0
 10 15  1  0  0  0  0
 11 12  1  6  0  0  0
 11 13  1  0  0  0  0
 13 14  1  6  0  0  0
 13 15  1  0  0  0  0
 15 26  1  1  0  0  0
 17 18  2  0  0  0  0
 17 22  1  0  0  0  0
 18 19  1  0  0  0  0
 19 20  2  0  0  0  0
 20 21  1  0  0  0  0
 20 26  1  0  0  0  0
 21 22  2  0  0  0  0
 21 24  1  0  0  0  0
 22 23  1  0  0  0  0
 24 25  2  0  0  0  0
 25 26  1  0  0  0  0
M  END
>  <CHROM.1>
-26.98879356,70.28810965,-56.88966672,-141.22220085,179.14981065,-49.89082654
86.07247221,47.91728770,56.29790162,30.55163486,1.39644253,-1.12237780,1.63211743

>  <Name>
ligand

>  <RI>
0

>  <Rbt.Current_Directory>
/home/itssahil/PROJECTS/Mol_Feturizer/New_Systems/rnas/3GX3

>  <Rbt.Executable>
rbdock ($Id: //depot/dev/client3/rdock/2013.1/src/exe/rbdock.cxx#4 $)

>  <Rbt.Library>
libRbt.so (2013.1, Build901 2013/11/27)

>  <Rbt.Parameter_File>
/export/apps/rDock/src/rDock_2013.1_src/data/scripts/dock_solv.prm

>  <Rbt.Receptor>
prm/pocket_docking_3.prm

>  <SCORE>
-11.9073

>  <SCORE.INTER>
-8.28884

>  <SCORE.INTER.CONST>
1

>  <SCORE.INTER.POLAR>
0

>  <SCORE.INTER.ROT>
7

>  <SCORE.INTER.SOLV>
13.3246

>  <SCORE.INTER.VDW>
-18.2341

>  <SCORE.INTER.norm>
-0.318801

>  <SCORE.INTRA>
-3.61843

>  <SCORE.INTRA.DIHEDRAL>
-0.41571

>  <SCORE.INTRA.DIHEDRAL.0>
5.78979

>  <SCORE.INTRA.POLAR>
0

>  <SCORE.INTRA.POLAR.0>
0

>  <SCORE.INTRA.REPUL>
0

>  <SCORE.INTRA.REPUL.0>
0

>  <SCORE.INTRA.SOLV>
1.10107

>  <SCORE.INTRA.SOLV.lig_0>
-49.9151

>  <SCORE.INTRA.VDW>
-3.96111

>  <SCORE.INTRA.VDW.0>
-0.211125

>  <SCORE.INTRA.norm>
-0.13917

>  <SCORE.RESTR>
0

>  <SCORE.RESTR.CAVITY>
0

>  <SCORE.RESTR.norm>
0

>  <SCORE.SYSTEM>
0

>  <SCORE.SYSTEM.CONST>
0

>  <SCORE.SYSTEM.DIHEDRAL>
0

>  <SCORE.SYSTEM.SOLV>
0

>  <SCORE.SYSTEM.norm>
0

>  <SCORE.heavy>
26

>  <SCORE.norm>
-0.457972

>  <RMSD>
5.439

$$$$
ligand
 OpenBabel11021811483D
libRbt.so/2013.1/901 2013/11/27
 26 28  0  0  0  0  0  0  0  0999 V2000
   46.0482   58.2379   31.0272 N   0  0  0  0  0  0  0  0  0  0  0  0
   46.0293   59.4304   31.8788 C   0  0  2  0  0  0  0  0  0  0  0  0
   45.1598   60.5702   31.3433 C   0  0  0  0  0  0  0  0  0  0  0  0
   44.6135   61.3156   32.1569 O   0  0  0  0  0  0  0  0  0  0  0  0
   47.4085   60.0293   32.1837 C   0  0  0  0  0  0  0  0  0  0  0  0
   48.4403   59.2541   32.9844 C   0  0  0  0  0  0  0  0  0  0  0  0
   48.9738   57.8788   31.9396 S   0  0  0  0  0  0  0  0  0  0  0  0
   49.3368   56.9881   33.4714 C   0  0  0  0  0  0  0  0  0  0  0  0
   48.3155   55.9038   33.8315 C   0  0  1  0  0  0  0  0  0  0  0  0
   47.5539   55.4499   32.7068 O   0  0  0  0  0  0  0  0  0  0  0  0
   49.0065   54.6851   34.4259 C   0  0  1  0  0  0  0  0  0  0  0  0
   49.0690   54.7643   35.8328 O   0  0  0  0  0  0  0  0  0  0  0  0
   48.1887   53.5011   33.9266 C   0  0  1  0  0  0  0  0  0  0  0  0
   47.1638   53.1545   34.8361 O   0  0  0  0  0  0  0  0  0  0  0  0
   47.5302   54.0323   32.6686 C   0  0  2  0  0  0  0  0  0  0  0  0
   44.9959   60.7810   30.1351 O   0  0  0  0  0  0  0  0  0  0  0  0
   46.8080   51.9318   27.9059 N   0  0  0  0  0  0  0  0  0  0  0  0
   45.8586   52.2816   28.8325 C   0  0  0  0  0  0  0  0  0  0  0  0
   46.2446   52.8076   30.0476 N   0  0  0  0  0  0  0  0  0  0  0  0
   47.5415   53.0200   30.3327 C   0  0  0  0  0  0  0  0  0  0  0  0
   48.5150   52.6755   29.4105 C   0  0  0  0  0  0  0  0  0  0  0  0
   48.1337   52.1289   28.2013 C   0  0  0  0  0  0  0  0  0  0  0  0
   49.0435   51.8048   27.3031 N   0  0  0  0  0  0  0  0  0  0  0  0
   49.7230   52.9838   29.9328 N   0  0  0  0  0  0  0  0  0  0  0  0
   49.5301   53.4923   31.1761 C   0  0  0  0  0  0  0  0  0  0  0  0
   48.1777   53.5227   31.4376 N   0  0  0  0  0  0  0  0  0  0  0  0
  2  1  1  6  0  0  0
  2  3  1  0  0  0  0
  2  5  1  0  0  0  0
  3  4  1  0  0  0  0
  3 16  1  0  0  0  0
  5  6  1  0  0  0  0
  6  7  1  0  0  0  0
  7  8  1  0  0  0  0
  9  8  1  6  0  0  0
  9 10  1  0  0  0  0
  9 11  1  0  0  0  0
 10 15  1  0  0  0  0
 11 12  1  1  0  0  0
 11 13  1  0  0  0  0
 13 14  1  1  0  0  0
 13 15  1  0  0  0  0
 15 26  1  6  0  0  0
 17 18  2  0  0  0  0
 17 22  1  0  0  0  0
 18 19  1  0  0  0  0
 19 20  2  0  0  0  0
 20 21  1  0  0  0  0
 20 26  1  0  0  0  0
 21 22  2  0  0  0  0
 21 24  1  0  0  0  0
 22 23  1  0  0  0  0
 24 25  2  0  0  0  0
 25 26  1  0  0  0  0
M  END
>  <CHROM.1>
148.93814308,-64.41259869,69.07624179,-152.60797818,104.58346131,21.44453422
-104.11108441,47.63640473,55.69007703,31.62669970,2.04919784,-1.11056597
0.71816414

>  <Name>
ligand

>  <RI>
0

>  <Rbt.Current_Directory>
/home/itssahil/PROJECTS/Mol_Feturizer/New_Systems/rnas/3GX3

>  <Rbt.Executable>
rbdock ($Id: //depot/dev/client3/rdock/2013.1/src/exe/rbdock.cxx#4 $)

>  <Rbt.Library>
libRbt.so (2013.1, Build901 2013/11/27)

>  <Rbt.Parameter_File>
/export/apps/rDock/src/rDock_2013.1_src/data/scripts/dock_solv.prm

>  <Rbt.Receptor>
prm/pocket_docking_8.prm

>  <SCORE>
-20.5261

>  <SCORE.INTER>
-20.9173

>  <SCORE.INTER.CONST>
1

>  <SCORE.INTER.POLAR>
0

>  <SCORE.INTER.ROT>
7

>  <SCORE.INTER.SOLV>
11.5024

>  <SCORE.INTER.VDW>
-26.0456

>  <SCORE.INTER.norm>
-0.804511

>  <SCORE.INTRA>
0.391155

>  <SCORE.INTRA.DIHEDRAL>
4.20892

>  <SCORE.INTRA.DIHEDRAL.0>
5.78979

>  <SCORE.INTRA.POLAR>
0

>  <SCORE.INTRA.POLAR.0>
0

>  <SCORE.INTRA.REPUL>
0

>  <SCORE.INTRA.REPUL.0>
0

>  <SCORE.INTRA.SOLV>
1.76313

>  <SCORE.INTRA.SOLV.lig_0>
-49.9151

>  <SCORE.INTRA.VDW>
-2.59487

>  <SCORE.INTRA.VDW.0>
-0.211125

>  <SCORE.INTRA.norm>
0.0150444

>  <SCORE.RESTR>
0

>  <SCORE.RESTR.CAVITY>
0

>  <SCORE.RESTR.norm>
0

>  <SCORE.SYSTEM>
0

>  <SCORE.SYSTEM.CONST>
0

>  <SCORE.SYSTEM.DIHEDRAL>
0

>  <SCORE.SYSTEM.SOLV>
0

>  <SCORE.SYSTEM.norm>
0

>  <SCORE.heavy>
26

>  <SCORE.norm>
-0.789466

>  <RMSD>
5.440

$$$$
ligand
 OpenBabel11021811483D
libRbt.so/2013.1/901 2013/11/27
 26 28  0  0  0  0  0  0  0  0999 V2000
   45.5621   54.8714   31.2086 N   0  0  0  0  0  0  0  0  0  0  0  0
   46.3859   54.3828   30.0994 C   0  0  2  0  0  0  0  0  0  0  0  0
   46.0218   54.9784   28.7375 C   0  0  0  0  0  0  0  0  0  0  0  0
   46.9212   55.1293   27.9102 O   0  0  0  0  0  0  0  0  0  0  0  0
   46.4013   52.8584   29.9278 C   0  0  0  0  0  0  0  0  0  0  0  0
   47.4514   52.1766   29.0681 C   0  0  0  0  0  0  0  0  0  0  0  0
   46.8218   52.1993   27.3738 S   0  0  0  0  0  0  0  0  0  0  0  0
   48.4427   51.5743   26.8703 C   0  0  0  0  0  0  0  0  0  0  0  0
   49.3412   52.6150   26.1936 C   0  0  1  0  0  0  0  0  0  0  0  0
   48.9377   53.9641   26.4546 O   0  0  0  0  0  0  0  0  0  0  0  0
   50.7806   52.4781   26.6681 C   0  0  1  0  0  0  0  0  0  0  0  0
   51.5230   51.6292   25.8209 O   0  0  0  0  0  0  0  0  0  0  0  0
   51.3094   53.9062   26.7006 C   0  0  1  0  0  0  0  0  0  0  0  0
   51.9232   54.2631   25.4784 O   0  0  0  0  0  0  0  0  0  0  0  0
   50.0546   54.7438   26.8497 C   0  0  2  0  0  0  0  0  0  0  0  0
   44.8668   55.2988   28.4303 O   0  0  0  0  0  0  0  0  0  0  0  0
   48.2456   58.6570   29.8551 N   0  0  0  0  0  0  0  0  0  0  0  0
   48.2214   58.5561   28.4869 C   0  0  0  0  0  0  0  0  0  0  0  0
   48.7667   57.4502   27.8692 N   0  0  0  0  0  0  0  0  0  0  0  0
   49.2948   56.4429   28.5867 C   0  0  0  0  0  0  0  0  0  0  0  0
   49.3274   56.5245   29.9684 C   0  0  0  0  0  0  0  0  0  0  0  0
   48.8016   57.6398   30.5896 C   0  0  0  0  0  0  0  0  0  0  0  0
   48.8109   57.7329   31.9052 N   0  0  0  0  0  0  0  0  0  0  0  0
   49.9039   55.3993   30.4469 N   0  0  0  0  0  0  0  0  0  0  0  0
   50.2576   54.6226   29.3919 C   0  0  0  0  0  0  0  0  0  0  0  0
   49.8830   55.2581   28.2283 N   0  0  0  0  0  0  0  0  0  0  0  0
  2  1  1  1  0  0  0
  2  3  1  0  0  0  0
  2  5  1  0  0  0  0
  3  4  1  0  0  0  0
  3 16  1  0  0  0  0
  5  6  1  0  0  0  0
  6  7  1  0  0  0  0
  7  8  1  0  0  0  0
  9  8  1  1  0  0  0
  9 10  1  0  0  0  0
  9 11  1  0  0  0  0
 10 15  1  0  0  0  0
 11 12  1  6  0  0  0
 11 13  1  0  0  0  0
 13 14  1  6  0  0  0
 13 15  1  0  0  0  0
 15 26  1  1  0  0  0
 17 18  2  0  0  0  0
 17 22  1  0  0  0  0
 18 19  1  0  0  0  0
 19 20  2  0  0  0  0
 20 21  1  0  0  0  0
 20 26  1  0  0  0  0
 21 22  2  0  0  0  0
 21 24  1  0  0  0  0
 22 23  1  0  0  0  0
 24 25  2  0  0  0  0
 25 26  1  0  0  0  0
M  END
>  <CHROM.1>
148.38621238,-164.71467215,-85.95865872,172.04833116,-105.38630345,18.87116283
-89.79252693,48.53049156,54.63784735,28.32151648,2.01271697,0.43535635,0.52261570

>  <Name>
ligand

>  <RI>
0

>  <Rbt.Current_Directory>
/home/itssahil/PROJECTS/Mol_Feturizer/New_Systems/rnas/3GX3

>  <Rbt.Executable>
rbdock ($Id: //depot/dev/client3/rdock/2013.1/src/exe/rbdock.cxx#4 $)

>  <Rbt.Library>
libRbt.so (2013.1, Build901 2013/11/27)

>  <Rbt.Parameter_File>
/export/apps/rDock/src/rDock_2013.1_src/data/scripts/dock_solv.prm

>  <Rbt.Receptor>
prm/pocket_docking_7.prm

>  <SCORE>
-9.87173

>  <SCORE.INTER>
-7.2437

>  <SCORE.INTER.CONST>
1

>  <SCORE.INTER.POLAR>
0

>  <SCORE.INTER.ROT>
7

>  <SCORE.INTER.SOLV>
6.87435

>  <SCORE.INTER.VDW>
-15.3872

>  <SCORE.INTER.norm>
-0.278604

>  <SCORE.INTRA>
-2.62804

>  <SCORE.INTRA.DIHEDRAL>
6.17872

>  <SCORE.INTRA.DIHEDRAL.0>
5.78979

>  <SCORE.INTRA.POLAR>
0

>  <SCORE.INTRA.POLAR.0>
0

>  <SCORE.INTRA.REPUL>
0

>  <SCORE.INTRA.REPUL.0>
0

>  <SCORE.INTRA.SOLV>
-0.538414

>  <SCORE.INTRA.SOLV.lig_0>
-49.9151

>  <SCORE.INTRA.VDW>
-5.44819

>  <SCORE.INTRA.VDW.0>
-0.211125

>  <SCORE.INTRA.norm>
-0.101078

>  <SCORE.RESTR>
0

>  <SCORE.RESTR.CAVITY>
0

>  <SCORE.RESTR.norm>
0

>  <SCORE.SYSTEM>
0

>  <SCORE.SYSTEM.CONST>
0

>  <SCORE.SYSTEM.DIHEDRAL>
0

>  <SCORE.SYSTEM.SOLV>
0

>  <SCORE.SYSTEM.norm>
0

>  <SCORE.heavy>
26

>  <SCORE.norm>
-0.379682

>  <RMSD>
5.444

$$$$
ligand
 OpenBabel11021811483D
libRbt.so/2013.1/901 2013/11/27
 26 28  0  0  0  0  0  0  0  0999 V2000
   43.5065   54.2168   29.7992 N   0  0  0  0  0  0  0  0  0  0  0  0
   42.5044   55.0117   30.5146 C   0  0  2  0  0  0  0  0  0  0  0  0
   41.7124   55.9716   29.6240 C   0  0  0  0  0  0  0  0  0  0  0  0
   42.3403   56.7686   28.9265 O   0  0  0  0  0  0  0  0  0  0  0  0
   43.0509   55.8398   31.6848 C   0  0  0  0  0  0  0  0  0  0  0  0
   44.0412   56.9675   31.4523 C   0  0  0  0  0  0  0  0  0  0  0  0
   44.5393   57.5587   33.0863 S   0  0  0  0  0  0  0  0  0  0  0  0
   46.0554   56.5986   32.8603 C   0  0  0  0  0  0  0  0  0  0  0  0
   47.3411   57.4323   32.8700 C   0  0  1  0  0  0  0  0  0  0  0  0
   48.5039   56.6810   32.5031 O   0  0  0  0  0  0  0  0  0  0  0  0
   47.2370   58.5995   31.8991 C   0  0  1  0  0  0  0  0  0  0  0  0
   46.7568   59.7606   32.5400 O   0  0  0  0  0  0  0  0  0  0  0  0
   48.6457   58.7598   31.3423 C   0  0  1  0  0  0  0  0  0  0  0  0
   49.4056   59.6779   32.1020 O   0  0  0  0  0  0  0  0  0  0  0  0
   49.2580   57.3857   31.5303 C   0  0  2  0  0  0  0  0  0  0  0  0
   40.4765   55.9702   29.5654 O   0  0  0  0  0  0  0  0  0  0  0  0
   47.8534   57.1915   26.4699 N   0  0  0  0  0  0  0  0  0  0  0  0
   47.5430   58.1501   27.4012 C   0  0  0  0  0  0  0  0  0  0  0  0
   47.9916   58.0191   28.6987 N   0  0  0  0  0  0  0  0  0  0  0  0
   48.7632   56.9807   29.0660 C   0  0  0  0  0  0  0  0  0  0  0  0
   49.0892   56.0035   28.1410 C   0  0  0  0  0  0  0  0  0  0  0  0
   48.6244   56.1203   26.8461 C   0  0  0  0  0  0  0  0  0  0  0  0
   48.9329   55.2075   25.9455 N   0  0  0  0  0  0  0  0  0  0  0  0
   49.8622   55.0794   28.7539 N   0  0  0  0  0  0  0  0  0  0  0  0
   50.0081   55.4430   30.0531 C   0  0  0  0  0  0  0  0  0  0  0  0
   49.3316   56.6250   30.2613 N   0  0  0  0  0  0  0  0  0  0  0  0
  2  1  1  6  0  0  0
  2  3  1  0  0  0  0
  2  5  1  0  0  0  0
  3  4  1  0  0  0  0
  3 16  1  0  0  0  0
  5  6  1  0  0  0  0
  6  7  1  0  0  0  0
  7  8  1  0  0  0  0
  9  8  1  6  0  0  0
  9 10  1  0  0  0  0
  9 11  1  0  0  0  0
 10 15  1  0  0  0  0
 11 12  1  1  0  0  0
 11 13  1  0  0  0  0
 13 14  1  1  0  0  0
 13 15  1  0  0  0  0
 15 26  1  6  0  0  0
 17 18  2  0  0  0  0
 17 22  1  0  0  0  0
 18 19  1  0  0  0  0
 19 20  2  0  0  0  0
 20 21  1  0  0  0  0
 20 26  1  0  0  0  0
 21 22  2  0  0  0  0
 21 24  1  0  0  0  0
 22 23  1  0  0  0  0
 24 25  2  0  0  0  0
 25 26  1  0  0  0  0
M  END
>  <CHROM.1>
-54.44526890,64.40847945,-174.59009481,101.28382540,118.79587469,-171.70382415
113.01580095,46.49959282,56.91070453,30.35130029,2.99131628,0.19268623,1.16529148

>  <Name>
ligand

>  <RI>
0

>  <Rbt.Current_Directory>
/home/itssahil/PROJECTS/Mol_Feturizer/New_Systems/rnas/3GX3

>  <Rbt.Executable>
rbdock ($Id: //depot/dev/client3/rdock/2013.1/src/exe/rbdock.cxx#4 $)

>  <Rbt.Library>
libRbt.so (2013.1, Build901 2013/11/27)

>  <Rbt.Parameter_File>
/export/apps/rDock/src/rDock_2013.1_src/data/scripts/dock_solv.prm

>  <Rbt.Receptor>
prm/pocket_docking_7.prm

>  <SCORE>
-16.964

>  <SCORE.INTER>
-15.9928

>  <SCORE.INTER.CONST>
1

>  <SCORE.INTER.POLAR>
0

>  <SCORE.INTER.ROT>
7

>  <SCORE.INTER.SOLV>
12.0999

>  <SCORE.INTER.VDW>
-22.9618

>  <SCORE.INTER.norm>
-0.615107

>  <SCORE.INTRA>
-0.971187

>  <SCORE.INTRA.DIHEDRAL>
1.72573

>  <SCORE.INTRA.DIHEDRAL.0>
5.78979

>  <SCORE.INTRA.POLAR>
0

>  <SCORE.INTRA.POLAR.0>
0

>  <SCORE.INTRA.REPUL>
0

>  <SCORE.INTRA.REPUL.0>
0

>  <SCORE.INTRA.SOLV>
-0.216652

>  <SCORE.INTRA.SOLV.lig_0>
-49.9151

>  <SCORE.INTRA.VDW>
-1.72573

>  <SCORE.INTRA.VDW.0>
-0.211125

>  <SCORE.INTRA.norm>
-0.0373534

>  <SCORE.RESTR>
0

>  <SCORE.RESTR.CAVITY>
0

>  <SCORE.RESTR.norm>
0

>  <SCORE.SYSTEM>
0

>  <SCORE.SYSTEM.CONST>
0

>  <SCORE.SYSTEM.DIHEDRAL>
0

>  <SCORE.SYSTEM.SOLV>
0

>  <SCORE.SYSTEM.norm>
0

>  <SCORE.heavy>
26

>  <SCORE.norm>
-0.65246

>  <RMSD>
5.456

$$$$
ligand
 OpenBabel11021811483D
libRbt.so/2013.1/901 2013/11/27
 26 28  0  0  0  0  0  0  0  0999 V2000
   46.8734   58.5832   29.7499 N   0  0  0  0  0  0  0  0  0  0  0  0
   46.3572   59.6615   30.5976 C   0  0  2  0  0  0  0  0  0  0  0  0
   47.3364   60.1380   31.6726 C   0  0  0  0  0  0  0  0  0  0  0  0
   47.0318   61.1281   32.3382 O   0  0  0  0  0  0  0  0  0  0  0  0
   45.0344   59.3482   31.3088 C   0  0  0  0  0  0  0  0  0  0  0  0
   44.9702   58.3264   32.4306 C   0  0  0  0  0  0  0  0  0  0  0  0
   45.7130   56.8093   31.7867 S   0  0  0  0  0  0  0  0  0  0  0  0
   45.5226   56.1292   33.4519 C   0  0  0  0  0  0  0  0  0  0  0  0
   46.1601   54.7499   33.6499 C   0  0  1  0  0  0  0  0  0  0  0  0
   45.8483   53.8278   32.5994 O   0  0  0  0  0  0  0  0  0  0  0  0
   47.6767   54.8586   33.7151 C   0  0  1  0  0  0  0  0  0  0  0  0
   48.1257   54.9984   35.0448 O   0  0  0  0  0  0  0  0  0  0  0  0
   48.1798   53.5884   33.0416 C   0  0  1  0  0  0  0  0  0  0  0  0
   48.3823   52.5476   33.9761 O   0  0  0  0  0  0  0  0  0  0  0  0
   47.0273   53.1852   32.1429 C   0  0  2  0  0  0  0  0  0  0  0  0
   48.4073   59.5650   31.9090 O   0  0  0  0  0  0  0  0  0  0  0  0
   50.6372   53.5397   28.3401 N   0  0  0  0  0  0  0  0  0  0  0  0
   50.8199   53.1913   29.6546 C   0  0  0  0  0  0  0  0  0  0  0  0
   49.7436   53.1715   30.5167 N   0  0  0  0  0  0  0  0  0  0  0  0
   48.5018   53.4545   30.0850 C   0  0  0  0  0  0  0  0  0  0  0  0
   48.2959   53.8066   28.7620 C   0  0  0  0  0  0  0  0  0  0  0  0
   49.3742   53.8482   27.9007 C   0  0  0  0  0  0  0  0  0  0  0  0
   49.1993   54.1691   26.6334 N   0  0  0  0  0  0  0  0  0  0  0  0
   46.9765   54.0417   28.5854 N   0  0  0  0  0  0  0  0  0  0  0  0
   46.3518   53.8688   29.7775 C   0  0  0  0  0  0  0  0  0  0  0  0
   47.2878   53.5013   30.7193 N   0  0  0  0  0  0  0  0  0  0  0  0
  2  1  1  1  0  0  0
  2  3  1  0  0  0  0
  2  5  1  0  0  0  0
  3  4  1  0  0  0  0
  3 16  1  0  0  0  0
  5  6  1  0  0  0  0
  6  7  1  0  0  0  0
  7  8  1  0  0  0  0
  9  8  1  6  0  0  0
  9 10  1  0  0  0  0
  9 11  1  0  0  0  0
 10 15  1  0  0  0  0
 11 12  1  1  0  0  0
 11 13  1  0  0  0  0
 13 14  1  1  0  0  0
 13 15  1  0  0  0  0
 15 26  1  6  0  0  0
 17 18  2  0  0  0  0
 17 22  1  0  0  0  0
 18 19  1  0  0  0  0
 19 20  2  0  0  0  0
 20 21  1  0  0  0  0
 20 26  1  0  0  0  0
 21 22  2  0  0  0  0
 21 24  1  0  0  0  0
 22 23  1  0  0  0  0
 24 25  2  0  0  0  0
 25 26  1  0  0  0  0
M  END
>  <CHROM.1>
172.89456374,69.61391400,-52.95561593,174.71194047,-173.56973243,-46.75050602
156.29075859,47.42171722,55.65511765,31.28145973,-2.63629635,-1.11834444
2.48644418

>  <Name>
ligand

>  <RI>
0

>  <Rbt.Current_Directory>
/home/itssahil/PROJECTS/Mol_Feturizer/New_Systems/rnas/3GX3

>  <Rbt.Executable>
rbdock ($Id: //depot/dev/client3/rdock/2013.1/src/exe/rbdock.cxx#4 $)

>  <Rbt.Library>
libRbt.so (2013.1, Build901 2013/11/27)

>  <Rbt.Parameter_File>
/export/apps/rDock/src/rDock_2013.1_src/data/scripts/dock_solv.prm

>  <Rbt.Receptor>
prm/pocket_docking_3.prm

>  <SCORE>
-13.0381

>  <SCORE.INTER>
-10.2779

>  <SCORE.INTER.CONST>
1

>  <SCORE.INTER.POLAR>
0

>  <SCORE.INTER.ROT>
7

>  <SCORE.INTER.SOLV>
8.381

>  <SCORE.INTER.VDW>
-17.9123

>  <SCORE.INTER.norm>
-0.395303

>  <SCORE.INTRA>
-2.76017

>  <SCORE.INTRA.DIHEDRAL>
-1.81919

>  <SCORE.INTRA.DIHEDRAL.0>
5.78979

>  <SCORE.INTRA.POLAR>
0

>  <SCORE.INTRA.POLAR.0>
0

>  <SCORE.INTRA.REPUL>
0

>  <SCORE.INTRA.REPUL.0>
0

>  <SCORE.INTRA.SOLV>
1.06688

>  <SCORE.INTRA.SOLV.lig_0>
-49.9151

>  <SCORE.INTRA.VDW>
-2.38401

>  <SCORE.INTRA.VDW.0>
-0.211125

>  <SCORE.INTRA.norm>
-0.10616

>  <SCORE.RESTR>
0

>  <SCORE.RESTR.CAVITY>
0

>  <SCORE.RESTR.norm>
0

>  <SCORE.SYSTEM>
0

>  <SCORE.SYSTEM.CONST>
0

>  <SCORE.SYSTEM.DIHEDRAL>
0

>  <SCORE.SYSTEM.SOLV>
0

>  <SCORE.SYSTEM.norm>
0

>  <SCORE.heavy>
26

>  <SCORE.norm>
-0.501464

>  <RMSD>
5.459

$$$$
ligand
 OpenBabel11021811483D
libRbt.so/2013.1/901 2013/11/27
 26 28  0  0  0  0  0  0  0  0999 V2000
   46.9115   61.0693   31.0292 N   0  0  0  0  0  0  0  0  0  0  0  0
   46.5162   59.7327   31.4818 C   0  0  2  0  0  0  0  0  0  0  0  0
   45.0576   59.6288   31.9330 C   0  0  0  0  0  0  0  0  0  0  0  0
   44.3555   60.6381   31.8658 O   0  0  0  0  0  0  0  0  0  0  0  0
   47.3739   59.1532   32.6141 C   0  0  0  0  0  0  0  0  0  0  0  0
   48.8839   59.0566   32.4832 C   0  0  0  0  0  0  0  0  0  0  0  0
   49.3687   57.5004   33.2648 S   0  0  0  0  0  0  0  0  0  0  0  0
   49.2078   56.7456   31.6290 C   0  0  0  0  0  0  0  0  0  0  0  0
   48.4642   55.4057   31.6196 C   0  0  1  0  0  0  0  0  0  0  0  0
   49.0386   54.4350   32.5021 O   0  0  0  0  0  0  0  0  0  0  0  0
   47.0128   55.5890   32.0388 C   0  0  1  0  0  0  0  0  0  0  0  0
   46.1767   55.7946   30.9217 O   0  0  0  0  0  0  0  0  0  0  0  0
   46.6769   54.3225   32.8155 C   0  0  1  0  0  0  0  0  0  0  0  0
   46.1327   53.3244   31.9756 O   0  0  0  0  0  0  0  0  0  0  0  0
   48.0291   53.8347   33.2971 C   0  0  2  0  0  0  0  0  0  0  0  0
   44.5543   58.5766   32.3458 O   0  0  0  0  0  0  0  0  0  0  0  0
   46.1488   53.3288   38.1783 N   0  0  0  0  0  0  0  0  0  0  0  0
   45.5849   52.9018   37.0025 C   0  0  0  0  0  0  0  0  0  0  0  0
   46.2249   53.1441   35.8052 N   0  0  0  0  0  0  0  0  0  0  0  0
   47.4176   53.7642   35.7674 C   0  0  0  0  0  0  0  0  0  0  0  0
   48.0044   54.2012   36.9428 C   0  0  0  0  0  0  0  0  0  0  0  0
   47.3566   53.9793   38.1417 C   0  0  0  0  0  0  0  0  0  0  0  0
   47.9031   54.3762   39.2746 N   0  0  0  0  0  0  0  0  0  0  0  0
   49.1831   54.7878   36.6366 N   0  0  0  0  0  0  0  0  0  0  0  0
   49.3376   54.7508   35.2889 C   0  0  0  0  0  0  0  0  0  0  0  0
   48.2480   54.1150   34.7351 N   0  0  0  0  0  0  0  0  0  0  0  0
  2  1  1  1  0  0  0
  2  3  1  0  0  0  0
  2  5  1  0  0  0  0
  3  4  1  0  0  0  0
  3 16  1  0  0  0  0
  5  6  1  0  0  0  0
  6  7  1  0  0  0  0
  7  8  1  0  0  0  0
  9  8  1  1  0  0  0
  9 10  1  0  0  0  0
  9 11  1  0  0  0  0
 10 15  1  0  0  0  0
 11 12  1  6  0  0  0
 11 13  1  0  0  0  0
 13 14  1  6  0  0  0
 13 15  1  0  0  0  0
 15 26  1  1  0  0  0
 17 18  2  0  0  0  0
 17 22  1  0  0  0  0
 18 19  1  0  0  0  0
 19 20  2  0  0  0  0
 20 21  1  0  0  0  0
 20 26  1  0  0  0  0
 21 22  2  0  0  0  0
 21 24  1  0  0  0  0
 22 23  1  0  0  0  0
 24 25  2  0  0  0  0
 25 26  1  0  0  0  0
M  END
>  <CHROM.1>
0.84152984,-54.18098694,-142.05312010,91.90488188,-135.00982279,-55.56281375
175.35964152,47.34801587,56.05740605,33.78338412,1.78921479,1.00523365,-0.93427164

>  <Name>
ligand

>  <RI>
0

>  <Rbt.Current_Directory>
/home/itssahil/PROJECTS/Mol_Feturizer/New_Systems/rnas/3GX3

>  <Rbt.Executable>
rbdock ($Id: //depot/dev/client3/rdock/2013.1/src/exe/rbdock.cxx#4 $)

>  <Rbt.Library>
libRbt.so (2013.1, Build901 2013/11/27)

>  <Rbt.Parameter_File>
/export/apps/rDock/src/rDock_2013.1_src/data/scripts/dock_solv.prm

>  <Rbt.Receptor>
prm/pocket_docking_6.prm

>  <SCORE>
-20.1171

>  <SCORE.INTER>
-19.3099

>  <SCORE.INTER.CONST>
1

>  <SCORE.INTER.POLAR>
0

>  <SCORE.INTER.ROT>
7

>  <SCORE.INTER.SOLV>
20.2871

>  <SCORE.INTER.VDW>
-27.9023

>  <SCORE.INTER.norm>
-0.742687

>  <SCORE.INTRA>
-0.807207

>  <SCORE.INTRA.DIHEDRAL>
4.43147

>  <SCORE.INTRA.DIHEDRAL.0>
5.78979

>  <SCORE.INTRA.POLAR>
0

>  <SCORE.INTRA.POLAR.0>
0

>  <SCORE.INTRA.REPUL>
0

>  <SCORE.INTRA.REPUL.0>
0

>  <SCORE.INTRA.SOLV>
0.0949559

>  <SCORE.INTRA.SOLV.lig_0>
-49.9151

>  <SCORE.INTRA.VDW>
-3.07042

>  <SCORE.INTRA.VDW.0>
-0.211125

>  <SCORE.INTRA.norm>
-0.0310464

>  <SCORE.RESTR>
0

>  <SCORE.RESTR.CAVITY>
0

>  <SCORE.RESTR.norm>
0

>  <SCORE.SYSTEM>
0

>  <SCORE.SYSTEM.CONST>
0

>  <SCORE.SYSTEM.DIHEDRAL>
0

>  <SCORE.SYSTEM.SOLV>
0

>  <SCORE.SYSTEM.norm>
0

>  <SCORE.heavy>
26

>  <SCORE.norm>
-0.773734

>  <RMSD>
5.462

$$$$
ligand
 OpenBabel11021811483D
libRbt.so/2013.1/901 2013/11/27
 26 28  0  0  0  0  0  0  0  0999 V2000
   46.6635   61.0932   30.7727 N   0  0  0  0  0  0  0  0  0  0  0  0
   46.1714   59.8475   31.3675 C   0  0  2  0  0  0  0  0  0  0  0  0
   44.7827   59.9602   32.0005 C   0  0  0  0  0  0  0  0  0  0  0  0
   44.2415   58.9293   32.4010 O   0  0  0  0  0  0  0  0  0  0  0  0
   47.0931   59.2277   32.4258 C   0  0  0  0  0  0  0  0  0  0  0  0
   48.4330   58.6243   32.0420 C   0  0  0  0  0  0  0  0  0  0  0  0
   49.4236   58.5700   33.5531 S   0  0  0  0  0  0  0  0  0  0  0  0
   49.5270   56.7820   33.3009 C   0  0  0  0  0  0  0  0  0  0  0  0
   48.4362   55.9769   34.0151 C   0  0  1  0  0  0  0  0  0  0  0  0
   47.2610   55.7881   33.2187 O   0  0  0  0  0  0  0  0  0  0  0  0
   48.9456   54.5945   34.3967 C   0  0  1  0  0  0  0  0  0  0  0  0
   49.4800   54.5853   35.7020 O   0  0  0  0  0  0  0  0  0  0  0  0
   47.7351   53.6839   34.2367 C   0  0  1  0  0  0  0  0  0  0  0  0
   47.0088   53.5650   35.4433 O   0  0  0  0  0  0  0  0  0  0  0  0
   46.8633   54.4270   33.2436 C   0  0  2  0  0  0  0  0  0  0  0  0
   44.1917   61.0384   32.1387 O   0  0  0  0  0  0  0  0  0  0  0  0
   49.9592   52.7924   29.3243 N   0  0  0  0  0  0  0  0  0  0  0  0
   50.3289   53.3479   30.5232 C   0  0  0  0  0  0  0  0  0  0  0  0
   49.3631   53.7356   31.4282 N   0  0  0  0  0  0  0  0  0  0  0  0
   48.0562   53.5470   31.1738 C   0  0  0  0  0  0  0  0  0  0  0  0
   47.6624   52.9866   29.9706 C   0  0  0  0  0  0  0  0  0  0  0  0
   48.6255   52.6165   29.0530 C   0  0  0  0  0  0  0  0  0  0  0  0
   48.2735   52.0695   27.9057 N   0  0  0  0  0  0  0  0  0  0  0  0
   46.3130   52.9080   29.9600 N   0  0  0  0  0  0  0  0  0  0  0  0
   45.8488   53.4313   31.1228 C   0  0  0  0  0  0  0  0  0  0  0  0
   46.9219   53.8311   31.8887 N   0  0  0  0  0  0  0  0  0  0  0  0
  2  1  1  1  0  0  0
  2  3  1  0  0  0  0
  2  5  1  0  0  0  0
  3  4  1  0  0  0  0
  3 16  1  0  0  0  0
  5  6  1  0  0  0  0
  6  7  1  0  0  0  0
  7  8  1  0  0  0  0
  9  8  1  6  0  0  0
  9 10  1  0  0  0  0
  9 11  1  0  0  0  0
 10 15  1  0  0  0  0
 11 12  1  1  0  0  0
 11 13  1  0  0  0  0
 13 14  1  1  0  0  0
 13 15  1  0  0  0  0
 15 26  1  6  0  0  0
 17 18  2  0  0  0  0
 17 22  1  0  0  0  0
 18 19  1  0  0  0  0
 19 20  2  0  0  0  0
 20 21  1  0  0  0  0
 20 26  1  0  0  0  0
 21 22  2  0  0  0  0
 21 24  1  0  0  0  0
 22 23  1  0  0  0  0
 24 25  2  0  0  0  0
 25 26  1  0  0  0  0
M  END
>  <CHROM.1>
172.80369703,-68.96769796,159.93701543,121.08836971,-92.41577696,89.85266253
70.14560166,47.65848779,55.90227968,32.16904994,2.20206045,-1.04700562,0.77369315

>  <Name>
ligand

>  <RI>
0

>  <Rbt.Current_Directory>
/home/itssahil/PROJECTS/Mol_Feturizer/New_Systems/rnas/3GX3

>  <Rbt.Executable>
rbdock ($Id: //depot/dev/client3/rdock/2013.1/src/exe/rbdock.cxx#4 $)

>  <Rbt.Library>
libRbt.so (2013.1, Build901 2013/11/27)

>  <Rbt.Parameter_File>
/export/apps/rDock/src/rDock_2013.1_src/data/scripts/dock_solv.prm

>  <Rbt.Receptor>
prm/pocket_docking_3.prm

>  <SCORE>
-19.4556

>  <SCORE.INTER>
-18.8447

>  <SCORE.INTER.CONST>
1

>  <SCORE.INTER.POLAR>
0

>  <SCORE.INTER.ROT>
7

>  <SCORE.INTER.SOLV>
18.7223

>  <SCORE.INTER.VDW>
-27.0705

>  <SCORE.INTER.norm>
-0.724795

>  <SCORE.INTRA>
-0.61093

>  <SCORE.INTRA.DIHEDRAL>
5.11963

>  <SCORE.INTRA.DIHEDRAL.0>
5.78979

>  <SCORE.INTRA.POLAR>
0

>  <SCORE.INTRA.POLAR.0>
0

>  <SCORE.INTRA.REPUL>
0

>  <SCORE.INTRA.REPUL.0>
0

>  <SCORE.INTRA.SOLV>
-0.455905

>  <SCORE.INTRA.SOLV.lig_0>
-49.9151

>  <SCORE.INTRA.VDW>
-2.94279

>  <SCORE.INTRA.VDW.0>
-0.211125

>  <SCORE.INTRA.norm>
-0.0234973

>  <SCORE.RESTR>
0

>  <SCORE.RESTR.CAVITY>
0

>  <SCORE.RESTR.norm>
0

>  <SCORE.SYSTEM>
0

>  <SCORE.SYSTEM.CONST>
0

>  <SCORE.SYSTEM.DIHEDRAL>
0

>  <SCORE.SYSTEM.SOLV>
0

>  <SCORE.SYSTEM.norm>
0

>  <SCORE.heavy>
26

>  <SCORE.norm>
-0.748292

>  <RMSD>
5.466

$$$$
ligand
 OpenBabel11021811483D
libRbt.so/2013.1/901 2013/11/27
 26 28  0  0  0  0  0  0  0  0999 V2000
   49.4050   56.9224   33.6539 N   0  0  0  0  0  0  0  0  0  0  0  0
   48.3503   55.9708   34.0144 C   0  0  2  0  0  0  0  0  0  0  0  0
   48.7156   55.0374   35.1707 C   0  0  0  0  0  0  0  0  0  0  0  0
   47.8422   54.7632   35.9941 O   0  0  0  0  0  0  0  0  0  0  0  0
   47.8602   55.0821   32.8639 C   0  0  0  0  0  0  0  0  0  0  0  0
   48.7796   54.0629   32.2139 C   0  0  0  0  0  0  0  0  0  0  0  0
   47.9500   53.5110   30.7056 S   0  0  0  0  0  0  0  0  0  0  0  0
   48.9127   54.7709   29.8356 C   0  0  0  0  0  0  0  0  0  0  0  0
   48.3433   55.1738   28.4711 C   0  0  1  0  0  0  0  0  0  0  0  0
   46.9758   55.5950   28.5322 O   0  0  0  0  0  0  0  0  0  0  0  0
   49.1396   56.3229   27.8698 C   0  0  1  0  0  0  0  0  0  0  0  0
   50.1751   55.8506   27.0367 O   0  0  0  0  0  0  0  0  0  0  0  0
   48.1043   57.1573   27.1270 C   0  0  1  0  0  0  0  0  0  0  0  0
   47.9828   56.7569   25.7770 O   0  0  0  0  0  0  0  0  0  0  0  0
   46.8051   56.8151   27.8294 C   0  0  2  0  0  0  0  0  0  0  0  0
   49.8403   54.5389   35.3034 O   0  0  0  0  0  0  0  0  0  0  0  0
   48.1431   60.0668   31.7351 N   0  0  0  0  0  0  0  0  0  0  0  0
   48.9170   59.1161   31.1189 C   0  0  0  0  0  0  0  0  0  0  0  0
   48.3804   58.3377   30.1148 N   0  0  0  0  0  0  0  0  0  0  0  0
   47.1142   58.5159   29.6985 C   0  0  0  0  0  0  0  0  0  0  0  0
   46.3172   59.4711   30.3060 C   0  0  0  0  0  0  0  0  0  0  0  0
   46.8443   60.2380   31.3260 C   0  0  0  0  0  0  0  0  0  0  0  0
   46.1069   61.1622   31.9105 N   0  0  0  0  0  0  0  0  0  0  0  0
   45.1025   59.4502   29.7134 N   0  0  0  0  0  0  0  0  0  0  0  0
   45.1117   58.4830   28.7617 C   0  0  0  0  0  0  0  0  0  0  0  0
   46.3573   57.8947   28.7396 N   0  0  0  0  0  0  0  0  0  0  0  0
  2  1  1  6  0  0  0
  2  3  1  0  0  0  0
  2  5  1  0  0  0  0
  3  4  1  0  0  0  0
  3 16  1  0  0  0  0
  5  6  1  0  0  0  0
  6  7  1  0  0  0  0
  7  8  1  0  0  0  0
  9  8  1  1  0  0  0
  9 10  1  0  0  0  0
  9 11  1  0  0  0  0
 10 15  1  0  0  0  0
 11 12  1  6  0  0  0
 11 13  1  0  0  0  0
 13 14  1  6  0  0  0
 13 15  1  0  0  0  0
 15 26  1  1  0  0  0
 17 18  2  0  0  0  0
 17 22  1  0  0  0  0
 18 19  1  0  0  0  0
 19 20  2  0  0  0  0
 20 21  1  0  0  0  0
 20 26  1  0  0  0  0
 21 22  2  0  0  0  0
 21 24  1  0  0  0  0
 22 23  1  0  0  0  0
 24 25  2  0  0  0  0
 25 26  1  0  0  0  0
M  END
>  <CHROM.1>
141.13633152,65.43614880,-167.77276407,94.57685133,-160.36928646,54.41450337
71.68709819,47.87207390,56.71943589,30.61713312,1.00571540,-1.19945218,1.44959872

>  <Name>
ligand

>  <RI>
0

>  <Rbt.Current_Directory>
/home/itssahil/PROJECTS/Mol_Feturizer/New_Systems/rnas/3GX3

>  <Rbt.Executable>
rbdock ($Id: //depot/dev/client3/rdock/2013.1/src/exe/rbdock.cxx#4 $)

>  <Rbt.Library>
libRbt.so (2013.1, Build901 2013/11/27)

>  <Rbt.Parameter_File>
/export/apps/rDock/src/rDock_2013.1_src/data/scripts/dock_solv.prm

>  <Rbt.Receptor>
prm/pocket_docking_5.prm

>  <SCORE>
-12.8906

>  <SCORE.INTER>
-9.529

>  <SCORE.INTER.CONST>
1

>  <SCORE.INTER.POLAR>
0

>  <SCORE.INTER.ROT>
7

>  <SCORE.INTER.SOLV>
20.4611

>  <SCORE.INTER.VDW>
-21.4397

>  <SCORE.INTER.norm>
-0.3665

>  <SCORE.INTRA>
-3.3616

>  <SCORE.INTRA.DIHEDRAL>
-0.158657

>  <SCORE.INTRA.DIHEDRAL.0>
5.78979

>  <SCORE.INTRA.POLAR>
0

>  <SCORE.INTRA.POLAR.0>
0

>  <SCORE.INTRA.REPUL>
0

>  <SCORE.INTRA.REPUL.0>
0

>  <SCORE.INTRA.SOLV>
0.143589

>  <SCORE.INTRA.SOLV.lig_0>
-49.9151

>  <SCORE.INTRA.VDW>
-3.35406

>  <SCORE.INTRA.VDW.0>
-0.211125

>  <SCORE.INTRA.norm>
-0.129292

>  <SCORE.RESTR>
0

>  <SCORE.RESTR.CAVITY>
0

>  <SCORE.RESTR.norm>
0

>  <SCORE.SYSTEM>
0

>  <SCORE.SYSTEM.CONST>
0

>  <SCORE.SYSTEM.DIHEDRAL>
0

>  <SCORE.SYSTEM.SOLV>
0

>  <SCORE.SYSTEM.norm>
0

>  <SCORE.heavy>
26

>  <SCORE.norm>
-0.495792

>  <RMSD>
5.469

$$$$
ligand
 OpenBabel11021811483D
libRbt.so/2013.1/901 2013/11/27
 26 28  0  0  0  0  0  0  0  0999 V2000
   47.5419   59.2820   32.3831 N   0  0  0  0  0  0  0  0  0  0  0  0
   47.2191   59.3085   30.9538 C   0  0  2  0  0  0  0  0  0  0  0  0
   45.7556   58.9948   30.6350 C   0  0  0  0  0  0  0  0  0  0  0  0
   45.1346   59.7830   29.9216 O   0  0  0  0  0  0  0  0  0  0  0  0
   48.0730   58.3799   30.0806 C   0  0  0  0  0  0  0  0  0  0  0  0
   47.9931   58.4361   28.5650 C   0  0  0  0  0  0  0  0  0  0  0  0
   46.6015   57.3870   28.0848 S   0  0  0  0  0  0  0  0  0  0  0  0
   47.3513   57.3186   26.4402 C   0  0  0  0  0  0  0  0  0  0  0  0
   48.4410   56.2524   26.2842 C   0  0  1  0  0  0  0  0  0  0  0  0
   49.4554   56.3304   27.2921 O   0  0  0  0  0  0  0  0  0  0  0  0
   47.8447   54.8541   26.3560 C   0  0  1  0  0  0  0  0  0  0  0  0
   47.5142   54.3693   25.0734 O   0  0  0  0  0  0  0  0  0  0  0  0
   48.9093   54.0206   27.0573 C   0  0  1  0  0  0  0  0  0  0  0  0
   49.7904   53.4151   26.1329 O   0  0  0  0  0  0  0  0  0  0  0  0
   49.6993   55.0472   27.8448 C   0  0  2  0  0  0  0  0  0  0  0  0
   45.1790   57.9816   31.0496 O   0  0  0  0  0  0  0  0  0  0  0  0
   46.5549   53.0898   31.5730 N   0  0  0  0  0  0  0  0  0  0  0  0
   46.5189   52.8539   30.2218 C   0  0  0  0  0  0  0  0  0  0  0  0
   47.4243   53.4792   29.3903 N   0  0  0  0  0  0  0  0  0  0  0  0
   48.3728   54.2950   29.8835 C   0  0  0  0  0  0  0  0  0  0  0  0
   48.4272   54.5448   31.2442 C   0  0  0  0  0  0  0  0  0  0  0  0
   47.5092   53.9373   32.0775 C   0  0  0  0  0  0  0  0  0  0  0  0
   47.5503   54.1512   33.3783 N   0  0  0  0  0  0  0  0  0  0  0  0
   49.4565   55.3886   31.4803 N   0  0  0  0  0  0  0  0  0  0  0  0
   50.0351   55.6946   30.2917 C   0  0  0  0  0  0  0  0  0  0  0  0
   49.3728   55.0199   29.2895 N   0  0  0  0  0  0  0  0  0  0  0  0
  2  1  1  1  0  0  0
  2  3  1  0  0  0  0
  2  5  1  0  0  0  0
  3  4  1  0  0  0  0
  3 16  1  0  0  0  0
  5  6  1  0  0  0  0
  6  7  1  0  0  0  0
  7  8  1  0  0  0  0
  9  8  1  1  0  0  0
  9 10  1  0  0  0  0
  9 11  1  0  0  0  0
 10 15  1  0  0  0  0
 11 12  1  6  0  0  0
 11 13  1  0  0  0  0
 13 14  1  6  0  0  0
 13 15  1  0  0  0  0
 15 26  1  1  0  0  0
 17 18  2  0  0  0  0
 17 22  1  0  0  0  0
 18 19  1  0  0  0  0
 19 20  2  0  0  0  0
 20 21  1  0  0  0  0
 20 26  1  0  0  0  0
 21 22  2  0  0  0  0
 21 24  1  0  0  0  0
 22 23  1  0  0  0  0
 24 25  2  0  0  0  0
 25 26  1  0  0  0  0
M  END
>  <CHROM.1>
127.92737626,-171.40061669,-84.92178615,-160.06580344,84.09219796,-52.32850177
114.28660374,47.75943095,56.01957463,29.22385900,2.81331534,-1.19790441,2.03225849

>  <Name>
ligand

>  <RI>
0

>  <Rbt.Current_Directory>
/home/itssahil/PROJECTS/Mol_Feturizer/New_Systems/rnas/3GX3

>  <Rbt.Executable>
rbdock ($Id: //depot/dev/client3/rdock/2013.1/src/exe/rbdock.cxx#4 $)

>  <Rbt.Library>
libRbt.so (2013.1, Build901 2013/11/27)

>  <Rbt.Parameter_File>
/export/apps/rDock/src/rDock_2013.1_src/data/scripts/dock_solv.prm

>  <Rbt.Receptor>
prm/pocket_docking_4.prm

>  <SCORE>
-10.0907

>  <SCORE.INTER>
-6.40674

>  <SCORE.INTER.CONST>
1

>  <SCORE.INTER.POLAR>
0

>  <SCORE.INTER.ROT>
7

>  <SCORE.INTER.SOLV>
10.829

>  <SCORE.INTER.VDW>
-16.1475

>  <SCORE.INTER.norm>
-0.246413

>  <SCORE.INTRA>
-3.68396

>  <SCORE.INTRA.DIHEDRAL>
0.950655

>  <SCORE.INTRA.DIHEDRAL.0>
5.78979

>  <SCORE.INTRA.POLAR>
0

>  <SCORE.INTRA.POLAR.0>
0

>  <SCORE.INTRA.REPUL>
0

>  <SCORE.INTRA.REPUL.0>
0

>  <SCORE.INTRA.SOLV>
-0.540145

>  <SCORE.INTRA.SOLV.lig_0>
-49.9151

>  <SCORE.INTRA.VDW>
-3.88921

>  <SCORE.INTRA.VDW.0>
-0.211125

>  <SCORE.INTRA.norm>
-0.141691

>  <SCORE.RESTR>
0

>  <SCORE.RESTR.CAVITY>
0

>  <SCORE.RESTR.norm>
0

>  <SCORE.SYSTEM>
0

>  <SCORE.SYSTEM.CONST>
0

>  <SCORE.SYSTEM.DIHEDRAL>
0

>  <SCORE.SYSTEM.SOLV>
0

>  <SCORE.SYSTEM.norm>
0

>  <SCORE.heavy>
26

>  <SCORE.norm>
-0.388104

>  <RMSD>
5.475

$$$$
ligand
 OpenBabel11021811483D
libRbt.so/2013.1/901 2013/11/27
 26 28  0  0  0  0  0  0  0  0999 V2000
   46.0519   53.4783   32.2172 N   0  0  0  0  0  0  0  0  0  0  0  0
   47.2611   53.5801   31.3954 C   0  0  2  0  0  0  0  0  0  0  0  0
   48.5569   53.2586   32.1433 C   0  0  0  0  0  0  0  0  0  0  0  0
   49.5869   53.1126   31.4846 O   0  0  0  0  0  0  0  0  0  0  0  0
   47.4671   54.9388   30.7134 C   0  0  0  0  0  0  0  0  0  0  0  0
   47.9321   56.1500   31.5029 C   0  0  0  0  0  0  0  0  0  0  0  0
   46.9189   56.2079   32.9989 S   0  0  0  0  0  0  0  0  0  0  0  0
   47.6050   57.8579   33.2782 C   0  0  0  0  0  0  0  0  0  0  0  0
   46.8945   58.9781   32.5111 C   0  0  1  0  0  0  0  0  0  0  0  0
   47.6450   59.4585   31.3899 O   0  0  0  0  0  0  0  0  0  0  0  0
   45.5502   58.5023   31.9797 C   0  0  1  0  0  0  0  0  0  0  0  0
   44.5090   58.7831   32.8888 O   0  0  0  0  0  0  0  0  0  0  0  0
   45.3918   59.2191   30.6450 C   0  0  1  0  0  0  0  0  0  0  0  0
   44.7096   60.4483   30.7909 O   0  0  0  0  0  0  0  0  0  0  0  0
   46.8194   59.5280   30.2388 C   0  0  2  0  0  0  0  0  0  0  0  0
   48.6148   53.1544   33.3749 O   0  0  0  0  0  0  0  0  0  0  0  0
   45.6176   55.6171   26.9405 N   0  0  0  0  0  0  0  0  0  0  0  0
   44.8067   56.2304   27.8618 C   0  0  0  0  0  0  0  0  0  0  0  0
   45.3102   57.2366   28.6593 N   0  0  0  0  0  0  0  0  0  0  0  0
   46.5806   57.6577   28.5281 C   0  0  0  0  0  0  0  0  0  0  0  0
   47.4148   57.0531   27.6032 C   0  0  0  0  0  0  0  0  0  0  0  0
   46.9203   56.0311   26.8176 C   0  0  0  0  0  0  0  0  0  0  0  0
   47.6937   55.4493   25.9215 N   0  0  0  0  0  0  0  0  0  0  0  0
   48.6256   57.6503   27.6690 N   0  0  0  0  0  0  0  0  0  0  0  0
   48.5770   58.6020   28.6351 C   0  0  0  0  0  0  0  0  0  0  0  0
   47.3104   58.6195   29.1768 N   0  0  0  0  0  0  0  0  0  0  0  0
  2  1  1  1  0  0  0
  2  3  1  0  0  0  0
  2  5  1  0  0  0  0
  3  4  1  0  0  0  0
  3 16  1  0  0  0  0
  5  6  1  0  0  0  0
  6  7  1  0  0  0  0
  7  8  1  0  0  0  0
  9  8  1  6  0  0  0
  9 10  1  0  0  0  0
  9 11  1  0  0  0  0
 10 15  1  0  0  0  0
 11 12  1  1  0  0  0
 11 13  1  0  0  0  0
 13 14  1  1  0  0  0
 13 15  1  0  0  0  0
 15 26  1  6  0  0  0
 17 18  2  0  0  0  0
 17 22  1  0  0  0  0
 18 19  1  0  0  0  0
 19 20  2  0  0  0  0
 20 21  1  0  0  0  0
 20 26  1  0  0  0  0
 21 22  2  0  0  0  0
 21 24  1  0  0  0  0
 22 23  1  0  0  0  0
 24 25  2  0  0  0  0
 25 26  1  0  0  0  0
M  END
>  <CHROM.1>
168.65934831,74.98831049,-46.85629656,-169.01967206,83.17666303,-105.30130070
126.48683715,46.93931316,56.77181477,30.49903383,-0.61932991,1.20658778,-1.55996218

>  <Name>
ligand

>  <RI>
0

>  <Rbt.Current_Directory>
/home/itssahil/PROJECTS/Mol_Feturizer/New_Systems/rnas/3GX3

>  <Rbt.Executable>
rbdock ($Id: //depot/dev/client3/rdock/2013.1/src/exe/rbdock.cxx#4 $)

>  <Rbt.Library>
libRbt.so (2013.1, Build901 2013/11/27)

>  <Rbt.Parameter_File>
/export/apps/rDock/src/rDock_2013.1_src/data/scripts/dock_solv.prm

>  <Rbt.Receptor>
prm/pocket_docking_3.prm

>  <SCORE>
-7.08793

>  <SCORE.INTER>
-7.63107

>  <SCORE.INTER.CONST>
1

>  <SCORE.INTER.POLAR>
0

>  <SCORE.INTER.ROT>
7

>  <SCORE.INTER.SOLV>
13.4339

>  <SCORE.INTER.VDW>
-17.832

>  <SCORE.INTER.norm>
-0.293503

>  <SCORE.INTRA>
0.54314

>  <SCORE.INTRA.DIHEDRAL>
3.88868

>  <SCORE.INTRA.DIHEDRAL.0>
5.78979

>  <SCORE.INTRA.POLAR>
0

>  <SCORE.INTRA.POLAR.0>
0

>  <SCORE.INTRA.REPUL>
0

>  <SCORE.INTRA.REPUL.0>
0

>  <SCORE.INTRA.SOLV>
1.21658

>  <SCORE.INTRA.SOLV.lig_0>
-49.9151

>  <SCORE.INTRA.VDW>
-2.00949

>  <SCORE.INTRA.VDW.0>
-0.211125

>  <SCORE.INTRA.norm>
0.02089

>  <SCORE.RESTR>
0

>  <SCORE.RESTR.CAVITY>
0

>  <SCORE.RESTR.norm>
0

>  <SCORE.SYSTEM>
0

>  <SCORE.SYSTEM.CONST>
0

>  <SCORE.SYSTEM.DIHEDRAL>
0

>  <SCORE.SYSTEM.SOLV>
0

>  <SCORE.SYSTEM.norm>
0

>  <SCORE.heavy>
26

>  <SCORE.norm>
-0.272613

>  <RMSD>
5.487

$$$$
ligand
 OpenBabel11021811483D
libRbt.so/2013.1/901 2013/11/27
 26 28  0  0  0  0  0  0  0  0999 V2000
   48.5182   55.9736   29.5568 N   0  0  0  0  0  0  0  0  0  0  0  0
   47.8794   57.2190   29.1224 C   0  0  2  0  0  0  0  0  0  0  0  0
   47.9894   57.4898   27.6203 C   0  0  0  0  0  0  0  0  0  0  0  0
   48.8321   56.8635   26.9772 O   0  0  0  0  0  0  0  0  0  0  0  0
   48.3723   58.4828   29.8390 C   0  0  0  0  0  0  0  0  0  0  0  0
   48.0919   58.7073   31.3147 C   0  0  0  0  0  0  0  0  0  0  0  0
   48.9762   57.4088   32.2089 S   0  0  0  0  0  0  0  0  0  0  0  0
   47.5214   57.2939   33.2774 C   0  0  0  0  0  0  0  0  0  0  0  0
   46.4065   56.3929   32.7357 C   0  0  1  0  0  0  0  0  0  0  0  0
   46.6225   55.0031   33.0057 O   0  0  0  0  0  0  0  0  0  0  0  0
   45.0640   56.7649   33.3482 C   0  0  1  0  0  0  0  0  0  0  0  0
   44.3756   57.7013   32.5490 O   0  0  0  0  0  0  0  0  0  0  0  0
   44.3279   55.4388   33.4888 C   0  0  1  0  0  0  0  0  0  0  0  0
   43.5401   55.1563   32.3498 O   0  0  0  0  0  0  0  0  0  0  0  0
   45.4472   54.4177   33.5417 C   0  0  2  0  0  0  0  0  0  0  0  0
   47.2618   58.2957   27.0268 O   0  0  0  0  0  0  0  0  0  0  0  0
   48.7184   54.3176   37.6535 N   0  0  0  0  0  0  0  0  0  0  0  0
   48.8885   54.9508   36.4482 C   0  0  0  0  0  0  0  0  0  0  0  0
   47.9181   54.8469   35.4739 N   0  0  0  0  0  0  0  0  0  0  0  0
   46.7823   54.1614   35.6942 C   0  0  0  0  0  0  0  0  0  0  0  0
   46.5904   53.5167   36.9043 C   0  0  0  0  0  0  0  0  0  0  0  0
   47.5691   53.6008   37.8746 C   0  0  0  0  0  0  0  0  0  0  0  0
   47.4019   53.0048   39.0392 N   0  0  0  0  0  0  0  0  0  0  0  0
   45.3854   52.9050   36.8734 N   0  0  0  0  0  0  0  0  0  0  0  0
   44.8262   53.1313   35.6579 C   0  0  0  0  0  0  0  0  0  0  0  0
   45.6829   53.9132   34.9144 N   0  0  0  0  0  0  0  0  0  0  0  0
  2  1  1  1  0  0  0
  2  3  1  0  0  0  0
  2  5  1  0  0  0  0
  3  4  1  0  0  0  0
  3 16  1  0  0  0  0
  5  6  1  0  0  0  0
  6  7  1  0  0  0  0
  7  8  1  0  0  0  0
  9  8  1  1  0  0  0
  9 10  1  0  0  0  0
  9 11  1  0  0  0  0
 10 15  1  0  0  0  0
 11 12  1  6  0  0  0
 11 13  1  0  0  0  0
 13 14  1  6  0  0  0
 13 15  1  0  0  0  0
 15 26  1  1  0  0  0
 17 18  2  0  0  0  0
 17 22  1  0  0  0  0
 18 19  1  0  0  0  0
 19 20  2  0  0  0  0
 20 21  1  0  0  0  0
 20 26  1  0  0  0  0
 21 22  2  0  0  0  0
 21 24  1  0  0  0  0
 22 23  1  0  0  0  0
 24 25  2  0  0  0  0
 25 26  1  0  0  0  0
M  END
>  <CHROM.1>
-16.94783962,-67.30726028,64.75157651,-139.59307652,84.60684240,82.35218532
11.07846130,46.97170331,55.79475660,33.07700989,-1.43255977,0.21983135,1.99050965

>  <Name>
ligand

>  <RI>
0

>  <Rbt.Current_Directory>
/home/itssahil/PROJECTS/Mol_Feturizer/New_Systems/rnas/3GX3

>  <Rbt.Executable>
rbdock ($Id: //depot/dev/client3/rdock/2013.1/src/exe/rbdock.cxx#4 $)

>  <Rbt.Library>
libRbt.so (2013.1, Build901 2013/11/27)

>  <Rbt.Parameter_File>
/export/apps/rDock/src/rDock_2013.1_src/data/scripts/dock_solv.prm

>  <Rbt.Receptor>
prm/pocket_docking_5.prm

>  <SCORE>
-18.6276

>  <SCORE.INTER>
-17.3079

>  <SCORE.INTER.CONST>
1

>  <SCORE.INTER.POLAR>
0

>  <SCORE.INTER.ROT>
7

>  <SCORE.INTER.SOLV>
11.7229

>  <SCORE.INTER.VDW>
-23.7129

>  <SCORE.INTER.norm>
-0.665689

>  <SCORE.INTRA>
-1.31965

>  <SCORE.INTRA.DIHEDRAL>
1.63072

>  <SCORE.INTRA.DIHEDRAL.0>
5.78979

>  <SCORE.INTRA.POLAR>
0

>  <SCORE.INTRA.POLAR.0>
0

>  <SCORE.INTRA.REPUL>
0

>  <SCORE.INTRA.REPUL.0>
0

>  <SCORE.INTRA.SOLV>
1.9698

>  <SCORE.INTRA.SOLV.lig_0>
-49.9151

>  <SCORE.INTRA.VDW>
-3.11991

>  <SCORE.INTRA.VDW.0>
-0.211125

>  <SCORE.INTRA.norm>
-0.0507557

>  <SCORE.RESTR>
0

>  <SCORE.RESTR.CAVITY>
0

>  <SCORE.RESTR.norm>
0

>  <SCORE.SYSTEM>
0

>  <SCORE.SYSTEM.CONST>
0

>  <SCORE.SYSTEM.DIHEDRAL>
0

>  <SCORE.SYSTEM.SOLV>
0

>  <SCORE.SYSTEM.norm>
0

>  <SCORE.heavy>
26

>  <SCORE.norm>
-0.716445

>  <RMSD>
5.499

$$$$
ligand
 OpenBabel11021811483D
libRbt.so/2013.1/901 2013/11/27
 26 28  0  0  0  0  0  0  0  0999 V2000
   48.6846   53.7820   25.2675 N   0  0  0  0  0  0  0  0  0  0  0  0
   48.1945   55.0282   24.6721 C   0  0  2  0  0  0  0  0  0  0  0  0
   49.0393   55.5399   23.5032 C   0  0  0  0  0  0  0  0  0  0  0  0
   48.4571   56.0455   22.5433 O   0  0  0  0  0  0  0  0  0  0  0  0
   48.0400   56.1970   25.6538 C   0  0  0  0  0  0  0  0  0  0  0  0
   47.1445   56.0821   26.8751 C   0  0  0  0  0  0  0  0  0  0  0  0
   47.2242   57.6769   27.7224 S   0  0  0  0  0  0  0  0  0  0  0  0
   46.0455   56.9908   28.9103 C   0  0  0  0  0  0  0  0  0  0  0  0
   45.3501   58.0359   29.7891 C   0  0  1  0  0  0  0  0  0  0  0  0
   44.2697   57.4970   30.5594 O   0  0  0  0  0  0  0  0  0  0  0  0
   46.3327   58.6588   30.7701 C   0  0  1  0  0  0  0  0  0  0  0  0
   46.9137   59.8306   30.2422 O   0  0  0  0  0  0  0  0  0  0  0  0
   45.5099   58.9100   32.0271 C   0  0  1  0  0  0  0  0  0  0  0  0
   44.9448   60.2054   32.0304 O   0  0  0  0  0  0  0  0  0  0  0  0
   44.3755   57.9109   31.9118 C   0  0  2  0  0  0  0  0  0  0  0  0
   50.2751   55.4802   23.4893 O   0  0  0  0  0  0  0  0  0  0  0  0
   42.3106   53.4328   33.7286 N   0  0  0  0  0  0  0  0  0  0  0  0
   41.7688   54.3132   32.8264 C   0  0  0  0  0  0  0  0  0  0  0  0
   42.4589   55.4564   32.4817 N   0  0  0  0  0  0  0  0  0  0  0  0
   43.6782   55.7118   32.9884 C   0  0  0  0  0  0  0  0  0  0  0  0
   44.2433   54.8352   33.8988 C   0  0  0  0  0  0  0  0  0  0  0  0
   43.5463   53.7002   34.2626 C   0  0  0  0  0  0  0  0  0  0  0  0
   44.0709   52.8452   35.1189 N   0  0  0  0  0  0  0  0  0  0  0  0
   45.4562   55.3149   34.2538 N   0  0  0  0  0  0  0  0  0  0  0  0
   45.6545   56.4893   33.6034 C   0  0  0  0  0  0  0  0  0  0  0  0
   44.5576   56.7479   32.8110 N   0  0  0  0  0  0  0  0  0  0  0  0
  2  1  1  1  0  0  0
  2  3  1  0  0  0  0
  2  5  1  0  0  0  0
  3  4  1  0  0  0  0
  3 16  1  0  0  0  0
  5  6  1  0  0  0  0
  6  7  1  0  0  0  0
  7  8  1  0  0  0  0
  9  8  1  1  0  0  0
  9 10  1  0  0  0  0
  9 11  1  0  0  0  0
 10 15  1  0  0  0  0
 11 12  1  6  0  0  0
 11 13  1  0  0  0  0
 13 14  1  6  0  0  0
 13 15  1  0  0  0  0
 15 26  1  1  0  0  0
 17 18  2  0  0  0  0
 17 22  1  0  0  0  0
 18 19  1  0  0  0  0
 19 20  2  0  0  0  0
 20 21  1  0  0  0  0
 20 26  1  0  0  0  0
 21 22  2  0  0  0  0
 21 24  1  0  0  0  0
 22 23  1  0  0  0  0
 24 25  2  0  0  0  0
 25 26  1  0  0  0  0
M  END
>  <CHROM.1>
141.64203324,-58.00446743,-178.73462248,178.34249919,-163.93256758,170.23811518
-61.54616644,45.85025606,56.38580477,29.84653178,0.20345599,-1.06670377,-2.86265714

>  <Name>
ligand

>  <RI>
0

>  <Rbt.Current_Directory>
/home/itssahil/PROJECTS/Mol_Feturizer/New_Systems/rnas/3GX3

>  <Rbt.Executable>
rbdock ($Id: //depot/dev/client3/rdock/2013.1/src/exe/rbdock.cxx#4 $)

>  <Rbt.Library>
libRbt.so (2013.1, Build901 2013/11/27)

>  <Rbt.Parameter_File>
/export/apps/rDock/src/rDock_2013.1_src/data/scripts/dock_solv.prm

>  <Rbt.Receptor>
prm/pocket_docking_7.prm

>  <SCORE>
-14.9007

>  <SCORE.INTER>
-11.6006

>  <SCORE.INTER.CONST>
1

>  <SCORE.INTER.POLAR>
0

>  <SCORE.INTER.ROT>
7

>  <SCORE.INTER.SOLV>
11.5345

>  <SCORE.INTER.VDW>
-19.8452

>  <SCORE.INTER.norm>
-0.446175

>  <SCORE.INTRA>
-3.30011

>  <SCORE.INTRA.DIHEDRAL>
-2.2494

>  <SCORE.INTRA.DIHEDRAL.0>
5.78979

>  <SCORE.INTRA.POLAR>
0

>  <SCORE.INTRA.POLAR.0>
0

>  <SCORE.INTRA.REPUL>
0

>  <SCORE.INTRA.REPUL.0>
0

>  <SCORE.INTRA.SOLV>
-0.38557

>  <SCORE.INTRA.SOLV.lig_0>
-49.9151

>  <SCORE.INTRA.VDW>
-1.98263

>  <SCORE.INTRA.VDW.0>
-0.211125

>  <SCORE.INTRA.norm>
-0.126927

>  <SCORE.RESTR>
0

>  <SCORE.RESTR.CAVITY>
0

>  <SCORE.RESTR.norm>
0

>  <SCORE.SYSTEM>
0

>  <SCORE.SYSTEM.CONST>
0

>  <SCORE.SYSTEM.DIHEDRAL>
0

>  <SCORE.SYSTEM.SOLV>
0

>  <SCORE.SYSTEM.norm>
0

>  <SCORE.heavy>
26

>  <SCORE.norm>
-0.573103

>  <RMSD>
5.504

$$$$
ligand
 OpenBabel11021811483D
libRbt.so/2013.1/901 2013/11/27
 26 28  0  0  0  0  0  0  0  0999 V2000
   44.9363   59.9250   31.3248 N   0  0  0  0  0  0  0  0  0  0  0  0
   45.5882   58.6133   31.3693 C   0  0  2  0  0  0  0  0  0  0  0  0
   45.1194   57.7182   32.5186 C   0  0  0  0  0  0  0  0  0  0  0  0
   44.0788   58.0206   33.1032 O   0  0  0  0  0  0  0  0  0  0  0  0
   47.1205   58.6544   31.4347 C   0  0  0  0  0  0  0  0  0  0  0  0
   47.8381   59.3260   32.5926 C   0  0  0  0  0  0  0  0  0  0  0  0
   49.5834   58.8793   32.4436 S   0  0  0  0  0  0  0  0  0  0  0  0
   49.2754   57.6517   33.7357 C   0  0  0  0  0  0  0  0  0  0  0  0
   49.5490   56.2043   33.3132 C   0  0  1  0  0  0  0  0  0  0  0  0
   49.7853   55.3280   34.4210 O   0  0  0  0  0  0  0  0  0  0  0  0
   48.3714   55.6354   32.5351 C   0  0  1  0  0  0  0  0  0  0  0  0
   48.5324   55.8246   31.1467 O   0  0  0  0  0  0  0  0  0  0  0  0
   48.3199   54.1678   32.9394 C   0  0  1  0  0  0  0  0  0  0  0  0
   49.0750   53.3580   32.0610 O   0  0  0  0  0  0  0  0  0  0  0  0
   49.0069   54.1496   34.2907 C   0  0  2  0  0  0  0  0  0  0  0  0
   45.7307   56.7023   32.8727 O   0  0  0  0  0  0  0  0  0  0  0  0
   44.0920   52.9368   35.7016 N   0  0  0  0  0  0  0  0  0  0  0  0
   44.6374   52.9415   34.4426 C   0  0  0  0  0  0  0  0  0  0  0  0
   45.9545   53.3100   34.2652 N   0  0  0  0  0  0  0  0  0  0  0  0
   46.7330   53.6338   35.3128 C   0  0  0  0  0  0  0  0  0  0  0  0
   46.2023   53.6336   36.5916 C   0  0  0  0  0  0  0  0  0  0  0  0
   44.8783   53.2857   36.7710 C   0  0  0  0  0  0  0  0  0  0  0  0
   44.3553   53.2669   37.9816 N   0  0  0  0  0  0  0  0  0  0  0  0
   47.1773   53.9929   37.4561 N   0  0  0  0  0  0  0  0  0  0  0  0
   48.3045   54.2436   36.7436 C   0  0  0  0  0  0  0  0  0  0  0  0
   48.0437   54.0224   35.4090 N   0  0  0  0  0  0  0  0  0  0  0  0
  2  1  1  1  0  0  0
  2  3  1  0  0  0  0
  2  5  1  0  0  0  0
  3  4  1  0  0  0  0
  3 16  1  0  0  0  0
  5  6  1  0  0  0  0
  6  7  1  0  0  0  0
  7  8  1  0  0  0  0
  9  8  1  1  0  0  0
  9 10  1  0  0  0  0
  9 11  1  0  0  0  0
 10 15  1  0  0  0  0
 11 12  1  6  0  0  0
 11 13  1  0  0  0  0
 13 14  1  6  0  0  0
 13 15  1  0  0  0  0
 15 26  1  1  0  0  0
 17 18  2  0  0  0  0
 17 22  1  0  0  0  0
 18 19  1  0  0  0  0
 19 20  2  0  0  0  0
 20 21  1  0  0  0  0
 20 26  1  0  0  0  0
 21 22  2  0  0  0  0
 21 24  1  0  0  0  0
 22 23  1  0  0  0  0
 24 25  2  0  0  0  0
 25 26  1  0  0  0  0
M  END
>  <CHROM.1>
15.51400830,60.70010404,169.51889811,-100.82880104,119.78267052,158.17769682
137.50570382,47.16411603,55.79952535,33.81537844,1.32417603,0.16542470,-0.64000331

>  <Name>
ligand

>  <RI>
0

>  <Rbt.Current_Directory>
/home/itssahil/PROJECTS/Mol_Feturizer/New_Systems/rnas/3GX3

>  <Rbt.Executable>
rbdock ($Id: //depot/dev/client3/rdock/2013.1/src/exe/rbdock.cxx#4 $)

>  <Rbt.Library>
libRbt.so (2013.1, Build901 2013/11/27)

>  <Rbt.Parameter_File>
/export/apps/rDock/src/rDock_2013.1_src/data/scripts/dock_solv.prm

>  <Rbt.Receptor>
prm/pocket_docking_6.prm

>  <SCORE>
-20.9508

>  <SCORE.INTER>
-20.0326

>  <SCORE.INTER.CONST>
1

>  <SCORE.INTER.POLAR>
0

>  <SCORE.INTER.ROT>
7

>  <SCORE.INTER.SOLV>
14.8481

>  <SCORE.INTER.VDW>
-26.5711

>  <SCORE.INTER.norm>
-0.770486

>  <SCORE.INTRA>
-0.921374

>  <SCORE.INTRA.DIHEDRAL>
3.1631

>  <SCORE.INTRA.DIHEDRAL.0>
5.78979

>  <SCORE.INTRA.POLAR>
0

>  <SCORE.INTRA.POLAR.0>
0

>  <SCORE.INTRA.REPUL>
0

>  <SCORE.INTRA.REPUL.0>
0

>  <SCORE.INTRA.SOLV>
0.0883682

>  <SCORE.INTRA.SOLV.lig_0>
-49.9151

>  <SCORE.INTRA.VDW>
-2.54711

>  <SCORE.INTRA.VDW.0>
-0.211125

>  <SCORE.INTRA.norm>
-0.0354375

>  <SCORE.RESTR>
0.00316857

>  <SCORE.RESTR.CAVITY>
0.00316857

>  <SCORE.RESTR.norm>
0.000121868

>  <SCORE.SYSTEM>
0

>  <SCORE.SYSTEM.CONST>
0

>  <SCORE.SYSTEM.DIHEDRAL>
0

>  <SCORE.SYSTEM.SOLV>
0

>  <SCORE.SYSTEM.norm>
0

>  <SCORE.heavy>
26

>  <SCORE.norm>
-0.805801

>  <RMSD>
5.508

$$$$
ligand
 OpenBabel11021811483D
libRbt.so/2013.1/901 2013/11/27
 26 28  0  0  0  0  0  0  0  0999 V2000
   48.0736   53.8799   32.0035 N   0  0  0  0  0  0  0  0  0  0  0  0
   48.1159   53.5803   33.4374 C   0  0  2  0  0  0  0  0  0  0  0  0
   46.7486   53.6056   34.1243 C   0  0  0  0  0  0  0  0  0  0  0  0
   46.5432   52.8075   35.0391 O   0  0  0  0  0  0  0  0  0  0  0  0
   49.0432   54.4842   34.2600 C   0  0  0  0  0  0  0  0  0  0  0  0
   48.8207   55.9853   34.3238 C   0  0  0  0  0  0  0  0  0  0  0  0
   49.3310   56.6487   32.7215 S   0  0  0  0  0  0  0  0  0  0  0  0
   48.7494   58.2552   33.3150 C   0  0  0  0  0  0  0  0  0  0  0  0
   47.3982   58.6925   32.7393 C   0  0  1  0  0  0  0  0  0  0  0  0
   47.5117   59.3601   31.4774 O   0  0  0  0  0  0  0  0  0  0  0  0
   46.4847   57.4933   32.5312 C   0  0  1  0  0  0  0  0  0  0  0  0
   45.6674   57.2674   33.6583 O   0  0  0  0  0  0  0  0  0  0  0  0
   45.6940   57.8293   31.2734 C   0  0  1  0  0  0  0  0  0  0  0  0
   44.4814   58.4874   31.5799 O   0  0  0  0  0  0  0  0  0  0  0  0
   46.5864   58.8180   30.5492 C   0  0  2  0  0  0  0  0  0  0  0  0
   45.8526   54.3992   33.8106 O   0  0  0  0  0  0  0  0  0  0  0  0
   46.2535   55.4491   26.5296 N   0  0  0  0  0  0  0  0  0  0  0  0
   45.2952   55.7553   27.4625 C   0  0  0  0  0  0  0  0  0  0  0  0
   45.5756   56.6601   28.4648 N   0  0  0  0  0  0  0  0  0  0  0  0
   46.7667   57.2811   28.5276 C   0  0  0  0  0  0  0  0  0  0  0  0
   47.7467   56.9875   27.5947 C   0  0  0  0  0  0  0  0  0  0  0  0
   47.4771   56.0663   26.6022 C   0  0  0  0  0  0  0  0  0  0  0  0
   48.3916   55.7806   25.6958 N   0  0  0  0  0  0  0  0  0  0  0  0
   48.8378   57.7344   27.8754 N   0  0  0  0  0  0  0  0  0  0  0  0
   48.5723   58.4737   28.9819 C   0  0  0  0  0  0  0  0  0  0  0  0
   47.2868   58.2037   29.3974 N   0  0  0  0  0  0  0  0  0  0  0  0
  2  1  1  6  0  0  0
  2  3  1  0  0  0  0
  2  5  1  0  0  0  0
  3  4  1  0  0  0  0
  3 16  1  0  0  0  0
  5  6  1  0  0  0  0
  6  7  1  0  0  0  0
  7  8  1  0  0  0  0
  9  8  1  6  0  0  0
  9 10  1  0  0  0  0
  9 11  1  0  0  0  0
 10 15  1  0  0  0  0
 11 12  1  1  0  0  0
 11 13  1  0  0  0  0
 13 14  1  1  0  0  0
 13 15  1  0  0  0  0
 15 26  1  6  0  0  0
 17 18  2  0  0  0  0
 17 22  1  0  0  0  0
 18 19  1  0  0  0  0
 19 20  2  0  0  0  0
 20 21  1  0  0  0  0
 20 26  1  0  0  0  0
 21 22  2  0  0  0  0
 21 24  1  0  0  0  0
 22 23  1  0  0  0  0
 24 25  2  0  0  0  0
 25 26  1  0  0  0  0
M  END
>  <CHROM.1>
145.30360724,60.46514000,-73.36595609,175.64973086,-103.47230575,-85.64270691
160.28015734,47.28281212,56.53705775,31.11684189,-0.45455911,1.50661683,-2.40672242

>  <Name>
ligand

>  <RI>
0

>  <Rbt.Current_Directory>
/home/itssahil/PROJECTS/Mol_Feturizer/New_Systems/rnas/3GX3

>  <Rbt.Executable>
rbdock ($Id: //depot/dev/client3/rdock/2013.1/src/exe/rbdock.cxx#4 $)

>  <Rbt.Library>
libRbt.so (2013.1, Build901 2013/11/27)

>  <Rbt.Parameter_File>
/export/apps/rDock/src/rDock_2013.1_src/data/scripts/dock_solv.prm

>  <Rbt.Receptor>
prm/pocket_docking_8.prm

>  <SCORE>
-14.2449

>  <SCORE.INTER>
-12.9284

>  <SCORE.INTER.CONST>
1

>  <SCORE.INTER.POLAR>
0

>  <SCORE.INTER.ROT>
7

>  <SCORE.INTER.SOLV>
12.8049

>  <SCORE.INTER.VDW>
-21.1539

>  <SCORE.INTER.norm>
-0.497246

>  <SCORE.INTRA>
-1.31652

>  <SCORE.INTRA.DIHEDRAL>
1.65668

>  <SCORE.INTRA.DIHEDRAL.0>
5.78979

>  <SCORE.INTRA.POLAR>
0

>  <SCORE.INTRA.POLAR.0>
0

>  <SCORE.INTRA.REPUL>
0

>  <SCORE.INTRA.REPUL.0>
0

>  <SCORE.INTRA.SOLV>
1.74897

>  <SCORE.INTRA.SOLV.lig_0>
-49.9151

>  <SCORE.INTRA.VDW>
-3.01934

>  <SCORE.INTRA.VDW.0>
-0.211125

>  <SCORE.INTRA.norm>
-0.0506352

>  <SCORE.RESTR>
0

>  <SCORE.RESTR.CAVITY>
0

>  <SCORE.RESTR.norm>
0

>  <SCORE.SYSTEM>
0

>  <SCORE.SYSTEM.CONST>
0

>  <SCORE.SYSTEM.DIHEDRAL>
0

>  <SCORE.SYSTEM.SOLV>
0

>  <SCORE.SYSTEM.norm>
0

>  <SCORE.heavy>
26

>  <SCORE.norm>
-0.547881

>  <RMSD>
5.578

$$$$
ligand
 OpenBabel11021811483D
libRbt.so/2013.1/901 2013/11/27
 26 28  0  0  0  0  0  0  0  0999 V2000
   50.9754   52.9751   30.1523 N   0  0  0  0  0  0  0  0  0  0  0  0
   50.7073   53.6170   28.8624 C   0  0  2  0  0  0  0  0  0  0  0  0
   50.5906   55.1412   28.9322 C   0  0  0  0  0  0  0  0  0  0  0  0
   51.1435   55.8069   28.0563 O   0  0  0  0  0  0  0  0  0  0  0  0
   49.4562   53.1084   28.1346 C   0  0  0  0  0  0  0  0  0  0  0  0
   48.1118   53.0434   28.8382 C   0  0  0  0  0  0  0  0  0  0  0  0
   46.9188   52.4569   27.6133 S   0  0  0  0  0  0  0  0  0  0  0  0
   45.7488   52.2878   28.9822 C   0  0  0  0  0  0  0  0  0  0  0  0
   44.7505   53.4435   29.1093 C   0  0  1  0  0  0  0  0  0  0  0  0
   43.8722   53.3097   30.2326 O   0  0  0  0  0  0  0  0  0  0  0  0
   45.4768   54.7718   29.2641 C   0  0  1  0  0  0  0  0  0  0  0  0
   45.6815   55.3948   28.0154 O   0  0  0  0  0  0  0  0  0  0  0  0
   44.5929   55.5832   30.2025 C   0  0  1  0  0  0  0  0  0  0  0  0
   43.6588   56.3688   29.4899 O   0  0  0  0  0  0  0  0  0  0  0  0
   43.8207   54.5238   30.9639 C   0  0  2  0  0  0  0  0  0  0  0  0
   49.9560   55.7276   29.8178 O   0  0  0  0  0  0  0  0  0  0  0  0
   47.9168   53.1301   33.9468 N   0  0  0  0  0  0  0  0  0  0  0  0
   47.8346   53.1600   32.5775 C   0  0  0  0  0  0  0  0  0  0  0  0
   46.6576   53.5400   31.9674 N   0  0  0  0  0  0  0  0  0  0  0  0
   45.5900   53.9194   32.6918 C   0  0  0  0  0  0  0  0  0  0  0  0
   45.6529   53.8980   34.0747 C   0  0  0  0  0  0  0  0  0  0  0  0
   46.8228   53.4978   34.6893 C   0  0  0  0  0  0  0  0  0  0  0  0
   46.9091   53.4815   36.0053 N   0  0  0  0  0  0  0  0  0  0  0  0
   44.4633   54.3171   34.5607 N   0  0  0  0  0  0  0  0  0  0  0  0
   43.6445   54.5778   33.5104 C   0  0  0  0  0  0  0  0  0  0  0  0
   44.3325   54.3368   32.3414 N   0  0  0  0  0  0  0  0  0  0  0  0
  2  1  1  1  0  0  0
  2  3  1  0  0  0  0
  2  5  1  0  0  0  0
  3  4  1  0  0  0  0
  3 16  1  0  0  0  0
  5  6  1  0  0  0  0
  6  7  1  0  0  0  0
  7  8  1  0  0  0  0
  9  8  1  1  0  0  0
  9 10  1  0  0  0  0
  9 11  1  0  0  0  0
 10 15  1  0  0  0  0
 11 12  1  6  0  0  0
 11 13  1  0  0  0  0
 13 14  1  6  0  0  0
 13 15  1  0  0  0  0
 15 26  1  1  0  0  0
 17 18  2  0  0  0  0
 17 22  1  0  0  0  0
 18 19  1  0  0  0  0
 19 20  2  0  0  0  0
 20 21  1  0  0  0  0
 20 26  1  0  0  0  0
 21 22  2  0  0  0  0
 21 24  1  0  0  0  0
 22 23  1  0  0  0  0
 24 25  2  0  0  0  0
 25 26  1  0  0  0  0
M  END
>  <CHROM.1>
136.91474313,51.61570786,177.83019202,170.09669584,99.62526148,-177.63047802
60.04639576,46.76678839,54.00746786,30.63779628,-0.81908279,-0.07606057,1.63247632

>  <Name>
ligand

>  <RI>
0

>  <Rbt.Current_Directory>
/home/itssahil/PROJECTS/Mol_Feturizer/New_Systems/rnas/3GX3

>  <Rbt.Executable>
rbdock ($Id: //depot/dev/client3/rdock/2013.1/src/exe/rbdock.cxx#4 $)

>  <Rbt.Library>
libRbt.so (2013.1, Build901 2013/11/27)

>  <Rbt.Parameter_File>
/export/apps/rDock/src/rDock_2013.1_src/data/scripts/dock_solv.prm

>  <Rbt.Receptor>
prm/pocket_docking_5.prm

>  <SCORE>
-9.38178

>  <SCORE.INTER>
-5.30541

>  <SCORE.INTER.CONST>
1

>  <SCORE.INTER.POLAR>
0

>  <SCORE.INTER.ROT>
7

>  <SCORE.INTER.SOLV>
17.0624

>  <SCORE.INTER.VDW>
-17.4911

>  <SCORE.INTER.norm>
-0.204054

>  <SCORE.INTRA>
-4.07637

>  <SCORE.INTRA.DIHEDRAL>
-0.730281

>  <SCORE.INTRA.DIHEDRAL.0>
5.78979

>  <SCORE.INTRA.POLAR>
0

>  <SCORE.INTRA.POLAR.0>
0

>  <SCORE.INTRA.REPUL>
0

>  <SCORE.INTRA.REPUL.0>
0

>  <SCORE.INTRA.SOLV>
-0.0429806

>  <SCORE.INTRA.SOLV.lig_0>
-49.9151

>  <SCORE.INTRA.VDW>
-3.68974

>  <SCORE.INTRA.VDW.0>
-0.211125

>  <SCORE.INTRA.norm>
-0.156784

>  <SCORE.RESTR>
0

>  <SCORE.RESTR.CAVITY>
0

>  <SCORE.RESTR.norm>
0

>  <SCORE.SYSTEM>
0

>  <SCORE.SYSTEM.CONST>
0

>  <SCORE.SYSTEM.DIHEDRAL>
0

>  <SCORE.SYSTEM.SOLV>
0

>  <SCORE.SYSTEM.norm>
0

>  <SCORE.heavy>
26

>  <SCORE.norm>
-0.360838

>  <RMSD>
5.584

$$$$
ligand
 OpenBabel11021811483D
libRbt.so/2013.1/901 2013/11/27
 26 28  0  0  0  0  0  0  0  0999 V2000
   48.2038   54.6060   28.0106 N   0  0  0  0  0  0  0  0  0  0  0  0
   49.0747   53.5308   28.4937 C   0  0  2  0  0  0  0  0  0  0  0  0
   48.3272   52.2796   28.9600 C   0  0  0  0  0  0  0  0  0  0  0  0
   48.8861   51.1894   28.8370 O   0  0  0  0  0  0  0  0  0  0  0  0
   50.0254   53.9298   29.6298 C   0  0  0  0  0  0  0  0  0  0  0  0
   49.5216   54.6941   30.8417 C   0  0  0  0  0  0  0  0  0  0  0  0
   48.5569   53.5223   31.8234 S   0  0  0  0  0  0  0  0  0  0  0  0
   48.1297   54.9209   32.8879 C   0  0  0  0  0  0  0  0  0  0  0  0
   47.1175   55.8961   32.2774 C   0  0  1  0  0  0  0  0  0  0  0  0
   45.9248   55.2541   31.8123 O   0  0  0  0  0  0  0  0  0  0  0  0
   46.6939   56.9447   33.2957 C   0  0  1  0  0  0  0  0  0  0  0  0
   47.5020   58.0978   33.2133 O   0  0  0  0  0  0  0  0  0  0  0  0
   45.2286   57.2143   32.9791 C   0  0  1  0  0  0  0  0  0  0  0  0
   45.0802   58.2835   32.0667 O   0  0  0  0  0  0  0  0  0  0  0  0
   44.7790   55.9455   32.2817 C   0  0  2  0  0  0  0  0  0  0  0  0
   47.1985   52.3193   29.4654 O   0  0  0  0  0  0  0  0  0  0  0  0
   44.6776   52.9843   36.6221 N   0  0  0  0  0  0  0  0  0  0  0  0
   45.7367   53.6758   36.0905 C   0  0  0  0  0  0  0  0  0  0  0  0
   45.5746   54.3900   34.9218 N   0  0  0  0  0  0  0  0  0  0  0  0
   44.3811   54.4527   34.3053 C   0  0  0  0  0  0  0  0  0  0  0  0
   43.2994   53.7635   34.8265 C   0  0  0  0  0  0  0  0  0  0  0  0
   43.4630   53.0302   35.9848 C   0  0  0  0  0  0  0  0  0  0  0  0
   42.4431   52.3760   36.5057 N   0  0  0  0  0  0  0  0  0  0  0  0
   42.2305   53.9851   34.0293 N   0  0  0  0  0  0  0  0  0  0  0  0
   42.6248   54.7799   33.0026 C   0  0  0  0  0  0  0  0  0  0  0  0
   43.9598   55.0806   33.1622 N   0  0  0  0  0  0  0  0  0  0  0  0
  2  1  1  1  0  0  0
  2  3  1  0  0  0  0
  2  5  1  0  0  0  0
  3  4  1  0  0  0  0
  3 16  1  0  0  0  0
  5  6  1  0  0  0  0
  6  7  1  0  0  0  0
  7  8  1  0  0  0  0
  9  8  1  1  0  0  0
  9 10  1  0  0  0  0
  9 11  1  0  0  0  0
 10 15  1  0  0  0  0
 11 12  1  6  0  0  0
 11 13  1  0  0  0  0
 13 14  1  6  0  0  0
 13 15  1  0  0  0  0
 15 26  1  1  0  0  0
 17 18  2  0  0  0  0
 17 22  1  0  0  0  0
 18 19  1  0  0  0  0
 19 20  2  0  0  0  0
 20 21  1  0  0  0  0
 20 26  1  0  0  0  0
 21 22  2  0  0  0  0
 21 24  1  0  0  0  0
 22 23  1  0  0  0  0
 24 25  2  0  0  0  0
 25 26  1  0  0  0  0
M  END
>  <CHROM.1>
149.49866358,47.87973460,72.72644880,-174.47528364,73.81475005,52.95094924
57.06617359,46.28223089,54.48066695,32.44391997,-0.12501884,0.82326320,0.03636263

>  <Name>
ligand

>  <RI>
0

>  <Rbt.Current_Directory>
/home/itssahil/PROJECTS/Mol_Feturizer/New_Systems/rnas/3GX3

>  <Rbt.Executable>
rbdock ($Id: //depot/dev/client3/rdock/2013.1/src/exe/rbdock.cxx#4 $)

>  <Rbt.Library>
libRbt.so (2013.1, Build901 2013/11/27)

>  <Rbt.Parameter_File>
/export/apps/rDock/src/rDock_2013.1_src/data/scripts/dock_solv.prm

>  <Rbt.Receptor>
prm/pocket_docking_8.prm

>  <SCORE>
-14.8759

>  <SCORE.INTER>
-11.0223

>  <SCORE.INTER.CONST>
1

>  <SCORE.INTER.POLAR>
0

>  <SCORE.INTER.ROT>
7

>  <SCORE.INTER.SOLV>
5.37178

>  <SCORE.INTER.VDW>
-17.4055

>  <SCORE.INTER.norm>
-0.423936

>  <SCORE.INTRA>
-3.85361

>  <SCORE.INTRA.DIHEDRAL>
-1.31305

>  <SCORE.INTRA.DIHEDRAL.0>
5.78979

>  <SCORE.INTRA.POLAR>
0

>  <SCORE.INTRA.POLAR.0>
0

>  <SCORE.INTRA.REPUL>
0

>  <SCORE.INTRA.REPUL.0>
0

>  <SCORE.INTRA.SOLV>
0.325693

>  <SCORE.INTRA.SOLV.lig_0>
-49.9151

>  <SCORE.INTRA.VDW>
-3.35993

>  <SCORE.INTRA.VDW.0>
-0.211125

>  <SCORE.INTRA.norm>
-0.148216

>  <SCORE.RESTR>
0

>  <SCORE.RESTR.CAVITY>
0

>  <SCORE.RESTR.norm>
0

>  <SCORE.SYSTEM>
0

>  <SCORE.SYSTEM.CONST>
0

>  <SCORE.SYSTEM.DIHEDRAL>
0

>  <SCORE.SYSTEM.SOLV>
0

>  <SCORE.SYSTEM.norm>
0

>  <SCORE.heavy>
26

>  <SCORE.norm>
-0.572151

>  <RMSD>
5.638

$$$$
ligand
 OpenBabel11021811483D
libRbt.so/2013.1/901 2013/11/27
 26 28  0  0  0  0  0  0  0  0999 V2000
   45.4715   61.4901   31.7558 N   0  0  0  0  0  0  0  0  0  0  0  0
   46.0577   60.2062   31.3611 C   0  0  2  0  0  0  0  0  0  0  0  0
   45.1374   59.0030   31.5780 C   0  0  0  0  0  0  0  0  0  0  0  0
   45.1429   58.1076   30.7328 O   0  0  0  0  0  0  0  0  0  0  0  0
   47.3941   59.8708   32.0358 C   0  0  0  0  0  0  0  0  0  0  0  0
   48.1649   58.6150   31.6678 C   0  0  0  0  0  0  0  0  0  0  0  0
   49.7111   58.6689   32.6027 S   0  0  0  0  0  0  0  0  0  0  0  0
   49.0365   57.3204   33.6017 C   0  0  0  0  0  0  0  0  0  0  0  0
   49.4672   55.9206   33.1507 C   0  0  1  0  0  0  0  0  0  0  0  0
   49.2284   54.9111   34.1381 O   0  0  0  0  0  0  0  0  0  0  0  0
   48.7193   55.5029   31.8929 C   0  0  1  0  0  0  0  0  0  0  0  0
   49.4391   55.8444   30.7291 O   0  0  0  0  0  0  0  0  0  0  0  0
   48.5122   54.0023   32.0525 C   0  0  1  0  0  0  0  0  0  0  0  0
   49.5667   53.2651   31.4676 O   0  0  0  0  0  0  0  0  0  0  0  0
   48.5791   53.7943   33.5527 C   0  0  2  0  0  0  0  0  0  0  0  0
   44.4040   58.8866   32.5677 O   0  0  0  0  0  0  0  0  0  0  0  0
   45.8227   53.2170   37.9897 N   0  0  0  0  0  0  0  0  0  0  0  0
   47.1758   53.3946   37.8476 C   0  0  0  0  0  0  0  0  0  0  0  0
   47.7256   53.5100   36.5881 N   0  0  0  0  0  0  0  0  0  0  0  0
   46.9531   53.4875   35.4875 C   0  0  0  0  0  0  0  0  0  0  0  0
   45.5854   53.3110   35.6094 C   0  0  0  0  0  0  0  0  0  0  0  0
   45.0337   53.1738   36.8676 C   0  0  0  0  0  0  0  0  0  0  0  0
   43.7316   53.0171   37.0079 N   0  0  0  0  0  0  0  0  0  0  0  0
   45.0435   53.3229   34.3711 N   0  0  0  0  0  0  0  0  0  0  0  0
   46.0469   53.4781   33.4708 C   0  0  0  0  0  0  0  0  0  0  0  0
   47.2403   53.5840   34.1509 N   0  0  0  0  0  0  0  0  0  0  0  0
  2  1  1  1  0  0  0
  2  3  1  0  0  0  0
  2  5  1  0  0  0  0
  3  4  1  0  0  0  0
  3 16  1  0  0  0  0
  5  6  1  0  0  0  0
  6  7  1  0  0  0  0
  7  8  1  0  0  0  0
  9  8  1  1  0  0  0
  9 10  1  0  0  0  0
  9 11  1  0  0  0  0
 10 15  1  0  0  0  0
 11 12  1  6  0  0  0
 11 13  1  0  0  0  0
 13 14  1  6  0  0  0
 13 15  1  0  0  0  0
 15 26  1  1  0  0  0
 17 18  2  0  0  0  0
 17 22  1  0  0  0  0
 18 19  1  0  0  0  0
 19 20  2  0  0  0  0
 20 21  1  0  0  0  0
 20 26  1  0  0  0  0
 21 22  2  0  0  0  0
 21 24  1  0  0  0  0
 22 23  1  0  0  0  0
 24 25  2  0  0  0  0
 25 26  1  0  0  0  0
M  END
>  <CHROM.1>
141.60163563,-176.33035042,176.21731551,108.83951612,95.30092082,164.28692620
-51.85600042,47.25016756,55.92490442,33.49924424,1.43685632,0.44927057,-0.57319713

>  <Name>
ligand

>  <RI>
0

>  <Rbt.Current_Directory>
/home/itssahil/PROJECTS/Mol_Feturizer/New_Systems/rnas/3GX3

>  <Rbt.Executable>
rbdock ($Id: //depot/dev/client3/rdock/2013.1/src/exe/rbdock.cxx#4 $)

>  <Rbt.Library>
libRbt.so (2013.1, Build901 2013/11/27)

>  <Rbt.Parameter_File>
/export/apps/rDock/src/rDock_2013.1_src/data/scripts/dock_solv.prm

>  <Rbt.Receptor>
prm/pocket_docking_8.prm

>  <SCORE>
-21.8281

>  <SCORE.INTER>
-20.3568

>  <SCORE.INTER.CONST>
1

>  <SCORE.INTER.POLAR>
0

>  <SCORE.INTER.ROT>
7

>  <SCORE.INTER.SOLV>
17.6988

>  <SCORE.INTER.VDW>
-27.7375

>  <SCORE.INTER.norm>
-0.782952

>  <SCORE.INTRA>
-1.47138

>  <SCORE.INTRA.DIHEDRAL>
1.68445

>  <SCORE.INTRA.DIHEDRAL.0>
5.78979

>  <SCORE.INTRA.POLAR>
0

>  <SCORE.INTRA.POLAR.0>
0

>  <SCORE.INTRA.REPUL>
0

>  <SCORE.INTRA.REPUL.0>
0

>  <SCORE.INTRA.SOLV>
-0.777285

>  <SCORE.INTRA.SOLV.lig_0>
-49.9151

>  <SCORE.INTRA.VDW>
-1.92496

>  <SCORE.INTRA.VDW.0>
-0.211125

>  <SCORE.INTRA.norm>
-0.0565917

>  <SCORE.RESTR>
0

>  <SCORE.RESTR.CAVITY>
0

>  <SCORE.RESTR.norm>
0

>  <SCORE.SYSTEM>
0

>  <SCORE.SYSTEM.CONST>
0

>  <SCORE.SYSTEM.DIHEDRAL>
0

>  <SCORE.SYSTEM.SOLV>
0

>  <SCORE.SYSTEM.norm>
0

>  <SCORE.heavy>
26

>  <SCORE.norm>
-0.839544

>  <RMSD>
5.674

$$$$
ligand
 OpenBabel11021811483D
libRbt.so/2013.1/901 2013/11/27
 26 28  0  0  0  0  0  0  0  0999 V2000
   41.5104   54.5994   31.1454 N   0  0  0  0  0  0  0  0  0  0  0  0
   42.8391   55.0344   31.5848 C   0  0  2  0  0  0  0  0  0  0  0  0
   43.9875   54.5209   30.7134 C   0  0  0  0  0  0  0  0  0  0  0  0
   43.8608   53.4212   30.1742 O   0  0  0  0  0  0  0  0  0  0  0  0
   43.1891   54.6790   33.0356 C   0  0  0  0  0  0  0  0  0  0  0  0
   44.5206   55.0849   33.6430 C   0  0  0  0  0  0  0  0  0  0  0  0
   44.6001   56.8883   33.5481 S   0  0  0  0  0  0  0  0  0  0  0  0
   46.3688   56.6925   33.2246 C   0  0  0  0  0  0  0  0  0  0  0  0
   47.0790   57.9776   32.7856 C   0  0  1  0  0  0  0  0  0  0  0  0
   48.4142   57.7534   32.3189 O   0  0  0  0  0  0  0  0  0  0  0  0
   46.3182   58.6583   31.6570 C   0  0  1  0  0  0  0  0  0  0  0  0
   45.4042   59.6107   32.1538 O   0  0  0  0  0  0  0  0  0  0  0  0
   47.4031   59.2679   30.7786 C   0  0  1  0  0  0  0  0  0  0  0  0
   47.6952   60.5977   31.1579 O   0  0  0  0  0  0  0  0  0  0  0  0
   48.6226   58.4211   31.0851 C   0  0  2  0  0  0  0  0  0  0  0  0
   45.0245   55.1669   30.5177 O   0  0  0  0  0  0  0  0  0  0  0  0
   47.7510   57.0610   26.0843 N   0  0  0  0  0  0  0  0  0  0  0  0
   47.2222   58.1179   26.7814 C   0  0  0  0  0  0  0  0  0  0  0  0
   47.5580   58.3050   28.1059 N   0  0  0  0  0  0  0  0  0  0  0  0
   48.4279   57.4872   28.7247 C   0  0  0  0  0  0  0  0  0  0  0  0
   48.9741   56.4160   28.0385 C   0  0  0  0  0  0  0  0  0  0  0  0
   48.6240   56.2129   26.7184 C   0  0  0  0  0  0  0  0  0  0  0  0
   49.1416   55.2060   26.0419 N   0  0  0  0  0  0  0  0  0  0  0  0
   49.8058   55.7554   28.8746 N   0  0  0  0  0  0  0  0  0  0  0  0
   49.7743   56.3755   30.0812 C   0  0  0  0  0  0  0  0  0  0  0  0
   48.9229   57.4558   30.0023 N   0  0  0  0  0  0  0  0  0  0  0  0
  2  1  1  6  0  0  0
  2  3  1  0  0  0  0
  2  5  1  0  0  0  0
  3  4  1  0  0  0  0
  3 16  1  0  0  0  0
  5  6  1  0  0  0  0
  6  7  1  0  0  0  0
  7  8  1  0  0  0  0
  9  8  1  6  0  0  0
  9 10  1  0  0  0  0
  9 11  1  0  0  0  0
 10 15  1  0  0  0  0
 11 12  1  1  0  0  0
 11 13  1  0  0  0  0
 13 14  1  1  0  0  0
 13 15  1  0  0  0  0
 15 26  1  6  0  0  0
 17 18  2  0  0  0  0
 17 22  1  0  0  0  0
 18 19  1  0  0  0  0
 19 20  2  0  0  0  0
 20 21  1  0  0  0  0
 20 26  1  0  0  0  0
 21 22  2  0  0  0  0
 21 24  1  0  0  0  0
 22 23  1  0  0  0  0
 24 25  2  0  0  0  0
 25 26  1  0  0  0  0
M  END
>  <CHROM.1>
-31.84355030,-178.89925870,59.44748566,-143.81728833,169.92597471,-169.97253486
137.70471621,46.50594461,56.81110724,30.56653257,2.73561095,0.67120535,0.94970952

>  <Name>
ligand

>  <RI>
0

>  <Rbt.Current_Directory>
/home/itssahil/PROJECTS/Mol_Feturizer/New_Systems/rnas/3GX3

>  <Rbt.Executable>
rbdock ($Id: //depot/dev/client3/rdock/2013.1/src/exe/rbdock.cxx#4 $)

>  <Rbt.Library>
libRbt.so (2013.1, Build901 2013/11/27)

>  <Rbt.Parameter_File>
/export/apps/rDock/src/rDock_2013.1_src/data/scripts/dock_solv.prm

>  <Rbt.Receptor>
prm/pocket_docking_7.prm

>  <SCORE>
-16.7905

>  <SCORE.INTER>
-13.8096

>  <SCORE.INTER.CONST>
1

>  <SCORE.INTER.POLAR>
0

>  <SCORE.INTER.ROT>
7

>  <SCORE.INTER.SOLV>
10.6137

>  <SCORE.INTER.VDW>
-21.011

>  <SCORE.INTER.norm>
-0.531139

>  <SCORE.INTRA>
-2.98091

>  <SCORE.INTRA.DIHEDRAL>
-0.884559

>  <SCORE.INTRA.DIHEDRAL.0>
5.78979

>  <SCORE.INTRA.POLAR>
0

>  <SCORE.INTRA.POLAR.0>
0

>  <SCORE.INTRA.REPUL>
0

>  <SCORE.INTRA.REPUL.0>
0

>  <SCORE.INTRA.SOLV>
-0.684331

>  <SCORE.INTRA.SOLV.lig_0>
-49.9151

>  <SCORE.INTRA.VDW>
-2.19647

>  <SCORE.INTRA.VDW.0>
-0.211125

>  <SCORE.INTRA.norm>
-0.11465

>  <SCORE.RESTR>
0

>  <SCORE.RESTR.CAVITY>
0

>  <SCORE.RESTR.norm>
0

>  <SCORE.SYSTEM>
0

>  <SCORE.SYSTEM.CONST>
0

>  <SCORE.SYSTEM.DIHEDRAL>
0

>  <SCORE.SYSTEM.SOLV>
0

>  <SCORE.SYSTEM.norm>
0

>  <SCORE.heavy>
26

>  <SCORE.norm>
-0.645789

>  <RMSD>
5.675

$$$$
ligand
 OpenBabel11021811483D
libRbt.so/2013.1/901 2013/11/27
 26 28  0  0  0  0  0  0  0  0999 V2000
   40.3382   53.5870   32.0077 N   0  0  0  0  0  0  0  0  0  0  0  0
   41.6156   52.9361   32.3113 C   0  0  2  0  0  0  0  0  0  0  0  0
   41.5002   51.4424   32.6236 C   0  0  0  0  0  0  0  0  0  0  0  0
   41.6571   50.6422   31.7010 O   0  0  0  0  0  0  0  0  0  0  0  0
   42.4075   53.5707   33.4619 C   0  0  0  0  0  0  0  0  0  0  0  0
   43.7556   53.0147   33.8863 C   0  0  0  0  0  0  0  0  0  0  0  0
   44.3456   54.0687   35.2312 S   0  0  0  0  0  0  0  0  0  0  0  0
   45.6265   52.8227   35.5106 C   0  0  0  0  0  0  0  0  0  0  0  0
   47.0314   53.2482   35.0706 C   0  0  1  0  0  0  0  0  0  0  0  0
   47.0745   53.7543   33.7315 O   0  0  0  0  0  0  0  0  0  0  0  0
   47.5763   54.3400   35.9800 C   0  0  1  0  0  0  0  0  0  0  0  0
   48.3277   53.7968   37.0429 O   0  0  0  0  0  0  0  0  0  0  0  0
   48.3979   55.2308   35.0572 C   0  0  1  0  0  0  0  0  0  0  0  0
   49.7515   54.8267   35.0115 O   0  0  0  0  0  0  0  0  0  0  0  0
   47.7931   54.9764   33.6905 C   0  0  2  0  0  0  0  0  0  0  0  0
   41.2720   51.0081   33.7595 O   0  0  0  0  0  0  0  0  0  0  0  0
   47.5467   60.0455   32.3263 N   0  0  0  0  0  0  0  0  0  0  0  0
   48.6448   59.3258   32.7249 C   0  0  0  0  0  0  0  0  0  0  0  0
   48.5092   57.9959   33.0642 N   0  0  0  0  0  0  0  0  0  0  0  0
   47.3198   57.3743   32.9782 C   0  0  0  0  0  0  0  0  0  0  0  0
   46.1999   58.0822   32.5764 C   0  0  0  0  0  0  0  0  0  0  0  0
   46.3276   59.4192   32.2562 C   0  0  0  0  0  0  0  0  0  0  0  0
   45.2764   60.1099   31.8592 N   0  0  0  0  0  0  0  0  0  0  0  0
   45.1427   57.2399   32.5751 N   0  0  0  0  0  0  0  0  0  0  0  0
   45.5708   56.0217   32.9925 C   0  0  0  0  0  0  0  0  0  0  0  0
   46.9235   56.0898   33.2449 N   0  0  0  0  0  0  0  0  0  0  0  0
  2  1  1  1  0  0  0
  2  3  1  0  0  0  0
  2  5  1  0  0  0  0
  3  4  1  0  0  0  0
  3 16  1  0  0  0  0
  5  6  1  0  0  0  0
  6  7  1  0  0  0  0
  7  8  1  0  0  0  0
  9  8  1  1  0  0  0
  9 10  1  0  0  0  0
  9 11  1  0  0  0  0
 10 15  1  0  0  0  0
 11 12  1  1  0  0  0
 11 13  1  0  0  0  0
 13 14  1  6  0  0  0
 13 15  1  0  0  0  0
 15 26  1  1  0  0  0
 17 18  2  0  0  0  0
 17 22  1  0  0  0  0
 18 19  1  0  0  0  0
 19 20  2  0  0  0  0
 20 21  1  0  0  0  0
 20 26  1  0  0  0  0
 21 22  2  0  0  0  0
 21 24  1  0  0  0  0
 22 23  1  0  0  0  0
 24 25  2  0  0  0  0
 25 26  1  0  0  0  0
M  END
>  <CHROM.1>
93.63238692,-179.50162957,178.76846544,169.02706951,107.30909367,-50.72784544
-173.69873020,45.53016632,55.03132219,33.67945104,2.47186829,0.45167894,2.66566715

>  <Name>
ligand

>  <RI>
0

>  <Rbt.Current_Directory>
/home/itssahil/PROJECTS/Mol_Feturizer/New_Systems/rnas/3GX3

>  <Rbt.Executable>
rbdock ($Id: //depot/dev/client3/rdock/2013.1/src/exe/rbdock.cxx#4 $)

>  <Rbt.Library>
libRbt.so (2013.1, Build901 2013/11/27)

>  <Rbt.Parameter_File>
/export/apps/rDock/src/rDock_2013.1_src/data/scripts/dock_solv.prm

>  <Rbt.Receptor>
prm/pocket_docking_8.prm

>  <SCORE>
-18.6033

>  <SCORE.INTER>
-15.6311

>  <SCORE.INTER.CONST>
1

>  <SCORE.INTER.POLAR>
0

>  <SCORE.INTER.ROT>
7

>  <SCORE.INTER.SOLV>
14.5765

>  <SCORE.INTER.VDW>
-23.5463

>  <SCORE.INTER.norm>
-0.601198

>  <SCORE.INTRA>
-3.25182

>  <SCORE.INTRA.DIHEDRAL>
-0.287781

>  <SCORE.INTRA.DIHEDRAL.0>
5.78979

>  <SCORE.INTRA.POLAR>
0

>  <SCORE.INTRA.POLAR.0>
0

>  <SCORE.INTRA.REPUL>
0

>  <SCORE.INTRA.REPUL.0>
0

>  <SCORE.INTRA.SOLV>
-0.8258

>  <SCORE.INTRA.SOLV.lig_0>
-49.9151

>  <SCORE.INTRA.VDW>
-2.69503

>  <SCORE.INTRA.VDW.0>
-0.211125

>  <SCORE.INTRA.norm>
-0.12507

>  <SCORE.RESTR>
0.27968

>  <SCORE.RESTR.CAVITY>
0.27968

>  <SCORE.RESTR.norm>
0.0107569

>  <SCORE.SYSTEM>
0

>  <SCORE.SYSTEM.CONST>
0

>  <SCORE.SYSTEM.DIHEDRAL>
0

>  <SCORE.SYSTEM.SOLV>
0

>  <SCORE.SYSTEM.norm>
0

>  <SCORE.heavy>
26

>  <SCORE.norm>
-0.715511

>  <RMSD>
5.685

$$$$
ligand
 OpenBabel11021811483D
libRbt.so/2013.1/901 2013/11/27
 26 28  0  0  0  0  0  0  0  0999 V2000
   46.6529   54.9302   34.4157 N   0  0  0  0  0  0  0  0  0  0  0  0
   47.9773   54.4669   34.8390 C   0  0  2  0  0  0  0  0  0  0  0  0
   48.1411   54.3353   36.3548 C   0  0  0  0  0  0  0  0  0  0  0  0
   47.5406   53.4255   36.9272 O   0  0  0  0  0  0  0  0  0  0  0  0
   49.1510   55.3181   34.3374 C   0  0  0  0  0  0  0  0  0  0  0  0
   49.1429   55.9211   32.9435 C   0  0  0  0  0  0  0  0  0  0  0  0
   48.9383   54.5447   31.7896 S   0  0  0  0  0  0  0  0  0  0  0  0
   49.6015   55.6453   30.5167 C   0  0  0  0  0  0  0  0  0  0  0  0
   48.8368   55.6124   29.1891 C   0  0  1  0  0  0  0  0  0  0  0  0
   47.4268   55.8097   29.3448 O   0  0  0  0  0  0  0  0  0  0  0  0
   49.3396   56.6971   28.2475 C   0  0  1  0  0  0  0  0  0  0  0  0
   50.3601   56.2126   27.4029 O   0  0  0  0  0  0  0  0  0  0  0  0
   48.0983   57.1510   27.4904 C   0  0  1  0  0  0  0  0  0  0  0  0
   47.9246   56.4248   26.2904 O   0  0  0  0  0  0  0  0  0  0  0  0
   46.9615   56.7819   28.4230 C   0  0  2  0  0  0  0  0  0  0  0  0
   48.8585   55.0910   37.0221 O   0  0  0  0  0  0  0  0  0  0  0  0
   47.7370   60.3932   32.1613 N   0  0  0  0  0  0  0  0  0  0  0  0
   48.5658   59.3652   31.7886 C   0  0  0  0  0  0  0  0  0  0  0  0
   48.1793   58.4986   30.7879 N   0  0  0  0  0  0  0  0  0  0  0  0
   47.0127   58.6617   30.1392 C   0  0  0  0  0  0  0  0  0  0  0  0
   46.1628   59.6937   30.4989 C   0  0  0  0  0  0  0  0  0  0  0  0
   46.5368   60.5508   31.5147 C   0  0  0  0  0  0  0  0  0  0  0  0
   45.7483   61.5482   31.8654 N   0  0  0  0  0  0  0  0  0  0  0  0
   45.0691   59.6392   29.7064 N   0  0  0  0  0  0  0  0  0  0  0  0
   45.2028   58.5775   28.8719 C   0  0  0  0  0  0  0  0  0  0  0  0
   46.4080   57.9612   29.1283 N   0  0  0  0  0  0  0  0  0  0  0  0
  2  1  1  1  0  0  0
  2  3  1  0  0  0  0
  2  5  1  0  0  0  0
  3  4  1  0  0  0  0
  3 16  1  0  0  0  0
  5  6  1  0  0  0  0
  6  7  1  0  0  0  0
  7  8  1  0  0  0  0
  9  8  1  1  0  0  0
  9 10  1  0  0  0  0
  9 11  1  0  0  0  0
 10 15  1  0  0  0  0
 11 12  1  6  0  0  0
 11 13  1  0  0  0  0
 13 14  1  6  0  0  0
 13 15  1  0  0  0  0
 15 26  1  1  0  0  0
 17 18  2  0  0  0  0
 17 22  1  0  0  0  0
 18 19  1  0  0  0  0
 19 20  2  0  0  0  0
 20 21  1  0  0  0  0
 20 26  1  0  0  0  0
 21 22  2  0  0  0  0
 21 24  1  0  0  0  0
 22 23  1  0  0  0  0
 24 25  2  0  0  0  0
 25 26  1  0  0  0  0
M  END
>  <CHROM.1>
70.65879680,-37.87242231,-57.01490726,-160.31585011,-135.54326313,51.86452668
49.63504353,47.84747180,56.84837772,31.27365292,1.31142773,-1.07935464,1.81611380

>  <Name>
ligand

>  <RI>
0

>  <Rbt.Current_Directory>
/home/itssahil/PROJECTS/Mol_Feturizer/New_Systems/rnas/3GX3

>  <Rbt.Executable>
rbdock ($Id: //depot/dev/client3/rdock/2013.1/src/exe/rbdock.cxx#4 $)

>  <Rbt.Library>
libRbt.so (2013.1, Build901 2013/11/27)

>  <Rbt.Parameter_File>
/export/apps/rDock/src/rDock_2013.1_src/data/scripts/dock_solv.prm

>  <Rbt.Receptor>
prm/pocket_docking_3.prm

>  <SCORE>
-15.2323

>  <SCORE.INTER>
-13.6198

>  <SCORE.INTER.CONST>
1

>  <SCORE.INTER.POLAR>
0

>  <SCORE.INTER.ROT>
7

>  <SCORE.INTER.SOLV>
19.3661

>  <SCORE.INTER.VDW>
-23.8019

>  <SCORE.INTER.norm>
-0.523838

>  <SCORE.INTRA>
-1.61248

>  <SCORE.INTRA.DIHEDRAL>
1.48034

>  <SCORE.INTRA.DIHEDRAL.0>
5.78979

>  <SCORE.INTRA.POLAR>
0

>  <SCORE.INTRA.POLAR.0>
0

>  <SCORE.INTRA.REPUL>
0

>  <SCORE.INTRA.REPUL.0>
0

>  <SCORE.INTRA.SOLV>
0.601754

>  <SCORE.INTRA.SOLV.lig_0>
-49.9151

>  <SCORE.INTRA.VDW>
-2.65353

>  <SCORE.INTRA.VDW.0>
-0.211125

>  <SCORE.INTRA.norm>
-0.0620184

>  <SCORE.RESTR>
0

>  <SCORE.RESTR.CAVITY>
0

>  <SCORE.RESTR.norm>
0

>  <SCORE.SYSTEM>
0

>  <SCORE.SYSTEM.CONST>
0

>  <SCORE.SYSTEM.DIHEDRAL>
0

>  <SCORE.SYSTEM.SOLV>
0

>  <SCORE.SYSTEM.norm>
0

>  <SCORE.heavy>
26

>  <SCORE.norm>
-0.585856

>  <RMSD>
5.750

$$$$
ligand
 OpenBabel11021811483D
libRbt.so/2013.1/901 2013/11/27
 26 28  0  0  0  0  0  0  0  0999 V2000
   48.0642   54.0026   35.6430 N   0  0  0  0  0  0  0  0  0  0  0  0
   47.5522   54.4267   34.3369 C   0  0  2  0  0  0  0  0  0  0  0  0
   47.8769   53.4635   33.1929 C   0  0  0  0  0  0  0  0  0  0  0  0
   48.8299   52.6965   33.3320 O   0  0  0  0  0  0  0  0  0  0  0  0
   48.0060   55.8211   33.8861 C   0  0  0  0  0  0  0  0  0  0  0  0
   49.4646   56.1089   33.5761 C   0  0  0  0  0  0  0  0  0  0  0  0
   49.6107   57.9033   33.4127 S   0  0  0  0  0  0  0  0  0  0  0  0
   48.9913   57.6988   31.7257 C   0  0  0  0  0  0  0  0  0  0  0  0
   48.2590   58.9232   31.1664 C   0  0  1  0  0  0  0  0  0  0  0  0
   47.5156   58.6411   29.9753 O   0  0  0  0  0  0  0  0  0  0  0  0
   47.2763   59.4792   32.1867 C   0  0  1  0  0  0  0  0  0  0  0  0
   47.8693   60.4861   32.9766 O   0  0  0  0  0  0  0  0  0  0  0  0
   46.1043   59.9816   31.3536 C   0  0  1  0  0  0  0  0  0  0  0  0
   46.2562   61.3435   31.0075 O   0  0  0  0  0  0  0  0  0  0  0  0
   46.2026   59.1669   30.0788 C   0  0  2  0  0  0  0  0  0  0  0  0
   47.2170   53.4139   32.1474 O   0  0  0  0  0  0  0  0  0  0  0  0
   43.3346   55.7278   32.8293 N   0  0  0  0  0  0  0  0  0  0  0  0
   44.2524   56.6341   33.2971 C   0  0  0  0  0  0  0  0  0  0  0  0
   44.9266   57.4491   32.4120 N   0  0  0  0  0  0  0  0  0  0  0  0
   44.6762   57.3990   31.0917 C   0  0  0  0  0  0  0  0  0  0  0  0
   43.7525   56.4927   30.5997 C   0  0  0  0  0  0  0  0  0  0  0  0
   43.0908   55.6603   31.4804 C   0  0  0  0  0  0  0  0  0  0  0  0
   42.1979   54.7979   31.0349 N   0  0  0  0  0  0  0  0  0  0  0  0
   43.6869   56.6392   29.2575 N   0  0  0  0  0  0  0  0  0  0  0  0
   44.5699   57.6029   28.8927 C   0  0  0  0  0  0  0  0  0  0  0  0
   45.1911   58.0860   30.0235 N   0  0  0  0  0  0  0  0  0  0  0  0
  2  1  1  1  0  0  0
  2  3  1  0  0  0  0
  2  5  1  0  0  0  0
  3  4  1  0  0  0  0
  3 16  1  0  0  0  0
  5  6  1  0  0  0  0
  6  7  1  0  0  0  0
  7  8  1  0  0  0  0
  9  8  1  1  0  0  0
  9 10  1  0  0  0  0
  9 11  1  0  0  0  0
 10 15  1  0  0  0  0
 11 12  1  6  0  0  0
 11 13  1  0  0  0  0
 13 14  1  6  0  0  0
 13 15  1  0  0  0  0
 15 26  1  1  0  0  0
 17 18  2  0  0  0  0
 17 22  1  0  0  0  0
 18 19  1  0  0  0  0
 19 20  2  0  0  0  0
 20 21  1  0  0  0  0
 20 26  1  0  0  0  0
 21 22  2  0  0  0  0
 21 24  1  0  0  0  0
 22 23  1  0  0  0  0
 24 25  2  0  0  0  0
 25 26  1  0  0  0  0
M  END
>  <CHROM.1>
-22.15151715,65.95802708,-168.98612285,-81.34253577,153.08157555,-166.24384285
90.45894556,46.56958796,56.98572573,32.04533568,0.89835277,0.44808019,2.76720303

>  <Name>
ligand

>  <RI>
0

>  <Rbt.Current_Directory>
/home/itssahil/PROJECTS/Mol_Feturizer/New_Systems/rnas/3GX3

>  <Rbt.Executable>
rbdock ($Id: //depot/dev/client3/rdock/2013.1/src/exe/rbdock.cxx#4 $)

>  <Rbt.Library>
libRbt.so (2013.1, Build901 2013/11/27)

>  <Rbt.Parameter_File>
/export/apps/rDock/src/rDock_2013.1_src/data/scripts/dock_solv.prm

>  <Rbt.Receptor>
prm/pocket_docking_4.prm

>  <SCORE>
-18.9166

>  <SCORE.INTER>
-17.0649

>  <SCORE.INTER.CONST>
1

>  <SCORE.INTER.POLAR>
0

>  <SCORE.INTER.ROT>
7

>  <SCORE.INTER.SOLV>
14.3451

>  <SCORE.INTER.VDW>
-24.425

>  <SCORE.INTER.norm>
-0.656344

>  <SCORE.INTRA>
-2.18431

>  <SCORE.INTRA.DIHEDRAL>
-0.00708635

>  <SCORE.INTRA.DIHEDRAL.0>
5.78979

>  <SCORE.INTRA.POLAR>
0

>  <SCORE.INTRA.POLAR.0>
0

>  <SCORE.INTRA.REPUL>
0

>  <SCORE.INTRA.REPUL.0>
0

>  <SCORE.INTRA.SOLV>
-0.283953

>  <SCORE.INTRA.SOLV.lig_0>
-49.9151

>  <SCORE.INTRA.VDW>
-2.03879

>  <SCORE.INTRA.VDW.0>
-0.211125

>  <SCORE.INTRA.norm>
-0.0840118

>  <SCORE.RESTR>
0.332683

>  <SCORE.RESTR.CAVITY>
0.332683

>  <SCORE.RESTR.norm>
0.0127955

>  <SCORE.SYSTEM>
0

>  <SCORE.SYSTEM.CONST>
0

>  <SCORE.SYSTEM.DIHEDRAL>
0

>  <SCORE.SYSTEM.SOLV>
0

>  <SCORE.SYSTEM.norm>
0

>  <SCORE.heavy>
26

>  <SCORE.norm>
-0.72756

>  <RMSD>
5.763

$$$$
ligand
 OpenBabel11021811483D
libRbt.so/2013.1/901 2013/11/27
 26 28  0  0  0  0  0  0  0  0999 V2000
   50.1845   54.0079   27.5858 N   0  0  0  0  0  0  0  0  0  0  0  0
   50.2069   52.5504   27.7374 C   0  0  2  0  0  0  0  0  0  0  0  0
   50.9982   51.8187   26.6511 C   0  0  0  0  0  0  0  0  0  0  0  0
   51.5383   52.4916   25.7727 O   0  0  0  0  0  0  0  0  0  0  0  0
   48.8258   51.8859   27.8050 C   0  0  0  0  0  0  0  0  0  0  0  0
   47.9343   52.0524   29.0233 C   0  0  0  0  0  0  0  0  0  0  0  0
   47.6066   53.8230   29.1818 S   0  0  0  0  0  0  0  0  0  0  0  0
   46.5737   53.4018   30.6055 C   0  0  0  0  0  0  0  0  0  0  0  0
   45.6200   54.5164   31.0487 C   0  0  1  0  0  0  0  0  0  0  0  0
   44.6950   54.0991   32.0593 O   0  0  0  0  0  0  0  0  0  0  0  0
   46.3942   55.6997   31.6110 C   0  0  1  0  0  0  0  0  0  0  0  0
   46.6717   56.6549   30.6110 O   0  0  0  0  0  0  0  0  0  0  0  0
   45.5097   56.2388   32.7278 C   0  0  1  0  0  0  0  0  0  0  0  0
   44.6365   57.2473   32.2608 O   0  0  0  0  0  0  0  0  0  0  0  0
   44.6660   55.0415   33.1189 C   0  0  2  0  0  0  0  0  0  0  0  0
   51.1291   50.5885   26.6273 O   0  0  0  0  0  0  0  0  0  0  0  0
   48.6827   54.3059   36.4269 N   0  0  0  0  0  0  0  0  0  0  0  0
   48.6763   54.9905   35.2379 C   0  0  0  0  0  0  0  0  0  0  0  0
   47.5190   55.0607   34.4910 N   0  0  0  0  0  0  0  0  0  0  0  0
   46.3770   54.4976   34.9239 C   0  0  0  0  0  0  0  0  0  0  0  0
   46.3619   53.8037   36.1218 C   0  0  0  0  0  0  0  0  0  0  0  0
   47.5239   53.7132   36.8622 C   0  0  0  0  0  0  0  0  0  0  0  0
   47.5293   53.0676   38.0123 N   0  0  0  0  0  0  0  0  0  0  0  0
   45.1098   53.3376   36.3270 N   0  0  0  0  0  0  0  0  0  0  0  0
   44.3427   53.7032   35.2691 C   0  0  0  0  0  0  0  0  0  0  0  0
   45.1172   54.4272   34.3891 N   0  0  0  0  0  0  0  0  0  0  0  0
  2  1  1  6  0  0  0
  2  3  1  0  0  0  0
  2  5  1  0  0  0  0
  3  4  1  0  0  0  0
  3 16  1  0  0  0  0
  5  6  1  0  0  0  0
  6  7  1  0  0  0  0
  7  8  1  0  0  0  0
  9  8  1  1  0  0  0
  9 10  1  0  0  0  0
  9 11  1  0  0  0  0
 10 15  1  0  0  0  0
 11 12  1  6  0  0  0
 11 13  1  0  0  0  0
 13 14  1  6  0  0  0
 13 15  1  0  0  0  0
 15 26  1  1  0  0  0
 17 18  2  0  0  0  0
 17 22  1  0  0  0  0
 18 19  1  0  0  0  0
 19 20  2  0  0  0  0
 20 21  1  0  0  0  0
 20 26  1  0  0  0  0
 21 22  2  0  0  0  0
 21 24  1  0  0  0  0
 22 23  1  0  0  0  0
 24 25  2  0  0  0  0
 25 26  1  0  0  0  0
M  END
>  <CHROM.1>
0.34738993,-71.01267108,60.53450769,178.31481036,-163.96003846,172.27419752
97.18344095,47.35811265,53.95778904,31.75535793,1.03061632,0.62858244,-1.47648296

>  <Name>
ligand

>  <RI>
0

>  <Rbt.Current_Directory>
/home/itssahil/PROJECTS/Mol_Feturizer/New_Systems/rnas/3GX3

>  <Rbt.Executable>
rbdock ($Id: //depot/dev/client3/rdock/2013.1/src/exe/rbdock.cxx#4 $)

>  <Rbt.Library>
libRbt.so (2013.1, Build901 2013/11/27)

>  <Rbt.Parameter_File>
/export/apps/rDock/src/rDock_2013.1_src/data/scripts/dock_solv.prm

>  <Rbt.Receptor>
prm/pocket_docking_6.prm

>  <SCORE>
-12.2257

>  <SCORE.INTER>
-9.7227

>  <SCORE.INTER.CONST>
1

>  <SCORE.INTER.POLAR>
0

>  <SCORE.INTER.ROT>
7

>  <SCORE.INTER.SOLV>
11.4726

>  <SCORE.INTER.VDW>
-18.5727

>  <SCORE.INTER.norm>
-0.37395

>  <SCORE.INTRA>
-2.50296

>  <SCORE.INTRA.DIHEDRAL>
-1.82318

>  <SCORE.INTRA.DIHEDRAL.0>
5.78979

>  <SCORE.INTRA.POLAR>
0

>  <SCORE.INTRA.POLAR.0>
0

>  <SCORE.INTRA.REPUL>
0

>  <SCORE.INTRA.REPUL.0>
0

>  <SCORE.INTRA.SOLV>
0.884973

>  <SCORE.INTRA.SOLV.lig_0>
-49.9151

>  <SCORE.INTRA.VDW>
-2.03386

>  <SCORE.INTRA.VDW.0>
-0.211125

>  <SCORE.INTRA.norm>
-0.0962676

>  <SCORE.RESTR>
0

>  <SCORE.RESTR.CAVITY>
0

>  <SCORE.RESTR.norm>
0

>  <SCORE.SYSTEM>
0

>  <SCORE.SYSTEM.CONST>
0

>  <SCORE.SYSTEM.DIHEDRAL>
0

>  <SCORE.SYSTEM.SOLV>
0

>  <SCORE.SYSTEM.norm>
0

>  <SCORE.heavy>
26

>  <SCORE.norm>
-0.470218

>  <RMSD>
5.783

$$$$
ligand
 OpenBabel11021811483D
libRbt.so/2013.1/901 2013/11/27
 26 28  0  0  0  0  0  0  0  0999 V2000
   48.6935   53.1270   33.3539 N   0  0  0  0  0  0  0  0  0  0  0  0
   47.9807   54.4036   33.4545 C   0  0  2  0  0  0  0  0  0  0  0  0
   48.6103   55.3986   34.4318 C   0  0  0  0  0  0  0  0  0  0  0  0
   48.9368   54.9904   35.5467 O   0  0  0  0  0  0  0  0  0  0  0  0
   46.4979   54.2885   33.8312 C   0  0  0  0  0  0  0  0  0  0  0  0
   45.5653   55.4818   33.7182 C   0  0  0  0  0  0  0  0  0  0  0  0
   45.2918   55.7546   31.9523 S   0  0  0  0  0  0  0  0  0  0  0  0
   44.5344   57.3303   32.4159 C   0  0  0  0  0  0  0  0  0  0  0  0
   45.5128   58.5076   32.4859 C   0  0  1  0  0  0  0  0  0  0  0  0
   46.8646   58.1043   32.7332 O   0  0  0  0  0  0  0  0  0  0  0  0
   45.5107   59.2918   31.1816 C   0  0  1  0  0  0  0  0  0  0  0  0
   44.5889   60.3584   31.2241 O   0  0  0  0  0  0  0  0  0  0  0  0
   46.9529   59.7507   31.0097 C   0  0  1  0  0  0  0  0  0  0  0  0
   47.1660   61.0259   31.5806 O   0  0  0  0  0  0  0  0  0  0  0  0
   47.7431   58.7429   31.8211 C   0  0  2  0  0  0  0  0  0  0  0  0
   48.8170   56.5844   34.1451 O   0  0  0  0  0  0  0  0  0  0  0  0
   48.4583   56.9352   26.9387 N   0  0  0  0  0  0  0  0  0  0  0  0
   47.6480   57.9616   27.3540 C   0  0  0  0  0  0  0  0  0  0  0  0
   47.5767   58.2826   28.6933 N   0  0  0  0  0  0  0  0  0  0  0  0
   48.3177   57.6287   29.6053 C   0  0  0  0  0  0  0  0  0  0  0  0
   49.1430   56.5910   29.2066 C   0  0  0  0  0  0  0  0  0  0  0  0
   49.2011   56.2527   27.8693 C   0  0  0  0  0  0  0  0  0  0  0  0
   49.9897   55.2757   27.4655 N   0  0  0  0  0  0  0  0  0  0  0  0
   49.7702   56.1030   30.3001 N   0  0  0  0  0  0  0  0  0  0  0  0
   49.3366   56.7969   31.3826 C   0  0  0  0  0  0  0  0  0  0  0  0
   48.4342   57.7507   30.9654 N   0  0  0  0  0  0  0  0  0  0  0  0
  2  1  1  1  0  0  0
  2  3  1  0  0  0  0
  2  5  1  0  0  0  0
  3  4  1  0  0  0  0
  3 16  1  0  0  0  0
  5  6  1  0  0  0  0
  6  7  1  0  0  0  0
  7  8  1  0  0  0  0
  9  8  1  6  0  0  0
  9 10  1  0  0  0  0
  9 11  1  0  0  0  0
 10 15  1  0  0  0  0
 11 12  1  1  0  0  0
 11 13  1  0  0  0  0
 13 14  1  1  0  0  0
 13 15  1  0  0  0  0
 15 26  1  6  0  0  0
 17 18  2  0  0  0  0
 17 22  1  0  0  0  0
 18 19  1  0  0  0  0
 19 20  2  0  0  0  0
 20 21  1  0  0  0  0
 20 26  1  0  0  0  0
 21 22  2  0  0  0  0
 21 24  1  0  0  0  0
 22 23  1  0  0  0  0
 24 25  2  0  0  0  0
 25 26  1  0  0  0  0
M  END
>  <CHROM.1>
-46.94141627,-168.25203215,72.14795021,-168.58829418,89.85900454,-24.83322831
116.27296179,47.43884623,56.99121115,31.44359136,-1.71795525,0.84309462,-0.97689933

>  <Name>
ligand

>  <RI>
0

>  <Rbt.Current_Directory>
/home/itssahil/PROJECTS/Mol_Feturizer/New_Systems/rnas/3GX3

>  <Rbt.Executable>
rbdock ($Id: //depot/dev/client3/rdock/2013.1/src/exe/rbdock.cxx#4 $)

>  <Rbt.Library>
libRbt.so (2013.1, Build901 2013/11/27)

>  <Rbt.Parameter_File>
/export/apps/rDock/src/rDock_2013.1_src/data/scripts/dock_solv.prm

>  <Rbt.Receptor>
prm/pocket_docking_3.prm

>  <SCORE>
-16.4433

>  <SCORE.INTER>
-13.6354

>  <SCORE.INTER.CONST>
1

>  <SCORE.INTER.POLAR>
0

>  <SCORE.INTER.ROT>
7

>  <SCORE.INTER.SOLV>
13.977

>  <SCORE.INTER.VDW>
-22.0159

>  <SCORE.INTER.norm>
-0.524437

>  <SCORE.INTRA>
-2.80797

>  <SCORE.INTRA.DIHEDRAL>
2.79828

>  <SCORE.INTRA.DIHEDRAL.0>
5.78979

>  <SCORE.INTRA.POLAR>
0

>  <SCORE.INTRA.POLAR.0>
0

>  <SCORE.INTRA.REPUL>
0

>  <SCORE.INTRA.REPUL.0>
0

>  <SCORE.INTRA.SOLV>
-0.487878

>  <SCORE.INTRA.SOLV.lig_0>
-49.9151

>  <SCORE.INTRA.VDW>
-3.96317

>  <SCORE.INTRA.VDW.0>
-0.211125

>  <SCORE.INTRA.norm>
-0.107999

>  <SCORE.RESTR>
0

>  <SCORE.RESTR.CAVITY>
0

>  <SCORE.RESTR.norm>
0

>  <SCORE.SYSTEM>
0

>  <SCORE.SYSTEM.CONST>
0

>  <SCORE.SYSTEM.DIHEDRAL>
0

>  <SCORE.SYSTEM.SOLV>
0

>  <SCORE.SYSTEM.norm>
0

>  <SCORE.heavy>
26

>  <SCORE.norm>
-0.632436

>  <RMSD>
5.790

$$$$
ligand
 OpenBabel11021811483D
libRbt.so/2013.1/901 2013/11/27
 26 28  0  0  0  0  0  0  0  0999 V2000
   47.3021   52.8573   35.3503 N   0  0  0  0  0  0  0  0  0  0  0  0
   47.4374   54.2445   34.8976 C   0  0  2  0  0  0  0  0  0  0  0  0
   46.4919   54.6273   33.7568 C   0  0  0  0  0  0  0  0  0  0  0  0
   46.3853   53.8524   32.8058 O   0  0  0  0  0  0  0  0  0  0  0  0
   48.8509   54.6462   34.4569 C   0  0  0  0  0  0  0  0  0  0  0  0
   49.2029   56.0971   34.1786 C   0  0  0  0  0  0  0  0  0  0  0  0
   48.5189   56.4887   32.5518 S   0  0  0  0  0  0  0  0  0  0  0  0
   48.0822   58.1050   33.2362 C   0  0  0  0  0  0  0  0  0  0  0  0
   47.2926   59.0058   32.2805 C   0  0  1  0  0  0  0  0  0  0  0  0
   47.9992   59.3017   31.0705 O   0  0  0  0  0  0  0  0  0  0  0  0
   45.9772   58.3518   31.8827 C   0  0  1  0  0  0  0  0  0  0  0  0
   44.9287   58.7408   32.7422 O   0  0  0  0  0  0  0  0  0  0  0  0
   45.7595   58.7805   30.4374 C   0  0  1  0  0  0  0  0  0  0  0  0
   44.9997   59.9694   30.3547 O   0  0  0  0  0  0  0  0  0  0  0  0
   47.1598   59.0916   29.9468 C   0  0  2  0  0  0  0  0  0  0  0  0
   45.8238   55.6688   33.7573 O   0  0  0  0  0  0  0  0  0  0  0  0
   47.3654   53.9301   28.9799 N   0  0  0  0  0  0  0  0  0  0  0  0
   46.7020   54.5790   29.9906 C   0  0  0  0  0  0  0  0  0  0  0  0
   46.7808   55.9520   30.0944 N   0  0  0  0  0  0  0  0  0  0  0  0
   47.4711   56.6785   29.1976 C   0  0  0  0  0  0  0  0  0  0  0  0
   48.1461   56.0430   28.1693 C   0  0  0  0  0  0  0  0  0  0  0  0
   48.0870   54.6669   28.0744 C   0  0  0  0  0  0  0  0  0  0  0  0
   48.7122   54.0417   27.0957 N   0  0  0  0  0  0  0  0  0  0  0  0
   48.7562   56.9850   27.4159 N   0  0  0  0  0  0  0  0  0  0  0  0
   48.4991   58.1990   27.9648 C   0  0  0  0  0  0  0  0  0  0  0  0
   47.6990   58.0241   29.0727 N   0  0  0  0  0  0  0  0  0  0  0  0
  2  1  1  6  0  0  0
  2  3  1  0  0  0  0
  2  5  1  0  0  0  0
  3  4  1  0  0  0  0
  3 16  1  0  0  0  0
  5  6  1  0  0  0  0
  6  7  1  0  0  0  0
  7  8  1  0  0  0  0
  9  8  1  1  0  0  0
  9 10  1  0  0  0  0
  9 11  1  0  0  0  0
 10 15  1  0  0  0  0
 11 12  1  1  0  0  0
 11 13  1  0  0  0  0
 13 14  1  1  0  0  0
 13 15  1  0  0  0  0
 15 26  1  1  0  0  0
 17 18  2  0  0  0  0
 17 22  1  0  0  0  0
 18 19  1  0  0  0  0
 19 20  2  0  0  0  0
 20 21  1  0  0  0  0
 20 26  1  0  0  0  0
 21 22  2  0  0  0  0
 21 24  1  0  0  0  0
 22 23  1  0  0  0  0
 24 25  2  0  0  0  0
 25 26  1  0  0  0  0
M  END
>  <CHROM.1>
-46.00321590,-169.94908466,-77.32779627,141.02434608,-175.80616986,-60.09031204
86.85115217,47.34769340,56.52747640,31.28124753,-1.68221196,1.26933498,-1.05136479

>  <Name>
ligand

>  <RI>
0

>  <Rbt.Current_Directory>
/home/itssahil/PROJECTS/Mol_Feturizer/New_Systems/rnas/3GX3

>  <Rbt.Executable>
rbdock ($Id: //depot/dev/client3/rdock/2013.1/src/exe/rbdock.cxx#4 $)

>  <Rbt.Library>
libRbt.so (2013.1, Build901 2013/11/27)

>  <Rbt.Parameter_File>
/export/apps/rDock/src/rDock_2013.1_src/data/scripts/dock_solv.prm

>  <Rbt.Receptor>
prm/pocket_docking_3.prm

>  <SCORE>
-13.2431

>  <SCORE.INTER>
-8.34504

>  <SCORE.INTER.CONST>
1

>  <SCORE.INTER.POLAR>
0

>  <SCORE.INTER.ROT>
7

>  <SCORE.INTER.SOLV>
10.769

>  <SCORE.INTER.VDW>
-17.4197

>  <SCORE.INTER.norm>
-0.320963

>  <SCORE.INTRA>
-4.89803

>  <SCORE.INTRA.DIHEDRAL>
0.258999

>  <SCORE.INTRA.DIHEDRAL.0>
5.78979

>  <SCORE.INTRA.POLAR>
0

>  <SCORE.INTRA.POLAR.0>
0

>  <SCORE.INTRA.REPUL>
0

>  <SCORE.INTRA.REPUL.0>
0

>  <SCORE.INTRA.SOLV>
-0.48525

>  <SCORE.INTRA.SOLV.lig_0>
-49.9151

>  <SCORE.INTRA.VDW>
-4.7849

>  <SCORE.INTRA.VDW.0>
-0.211125

>  <SCORE.INTRA.norm>
-0.188386

>  <SCORE.RESTR>
0

>  <SCORE.RESTR.CAVITY>
0

>  <SCORE.RESTR.norm>
0

>  <SCORE.SYSTEM>
0

>  <SCORE.SYSTEM.CONST>
0

>  <SCORE.SYSTEM.DIHEDRAL>
0

>  <SCORE.SYSTEM.SOLV>
0

>  <SCORE.SYSTEM.norm>
0

>  <SCORE.heavy>
26

>  <SCORE.norm>
-0.509349

>  <RMSD>
5.802

$$$$
ligand
 OpenBabel11021811483D
libRbt.so/2013.1/901 2013/11/27
 26 28  0  0  0  0  0  0  0  0999 V2000
   49.3037   54.7986   35.4058 N   0  0  0  0  0  0  0  0  0  0  0  0
   48.3074   55.2230   34.4184 C   0  0  2  0  0  0  0  0  0  0  0  0
   47.6849   54.0745   33.6214 C   0  0  0  0  0  0  0  0  0  0  0  0
   48.3691   53.0715   33.4169 O   0  0  0  0  0  0  0  0  0  0  0  0
   48.8071   56.2529   33.3970 C   0  0  0  0  0  0  0  0  0  0  0  0
   49.2955   57.6217   33.8383 C   0  0  0  0  0  0  0  0  0  0  0  0
   49.5773   58.5773   32.3300 S   0  0  0  0  0  0  0  0  0  0  0  0
   48.0550   59.4681   32.7304 C   0  0  0  0  0  0  0  0  0  0  0  0
   46.8618   59.1190   31.8344 C   0  0  1  0  0  0  0  0  0  0  0  0
   47.1345   59.2907   30.4390 O   0  0  0  0  0  0  0  0  0  0  0  0
   46.4407   57.6702   32.0337 C   0  0  1  0  0  0  0  0  0  0  0  0
   45.4361   57.5571   33.0172 O   0  0  0  0  0  0  0  0  0  0  0  0
   45.9852   57.2119   30.6543 C   0  0  1  0  0  0  0  0  0  0  0  0
   44.5986   57.4136   30.4692 O   0  0  0  0  0  0  0  0  0  0  0  0
   46.7182   58.1463   29.7120 C   0  0  2  0  0  0  0  0  0  0  0  0
   46.5257   54.1058   33.1897 O   0  0  0  0  0  0  0  0  0  0  0  0
   50.2262   54.2391   29.9278 N   0  0  0  0  0  0  0  0  0  0  0  0
   49.2372   54.5431   30.8289 C   0  0  0  0  0  0  0  0  0  0  0  0
   48.4167   55.6296   30.6089 N   0  0  0  0  0  0  0  0  0  0  0  0
   48.5431   56.3834   29.5024 C   0  0  0  0  0  0  0  0  0  0  0  0
   49.5335   56.0923   28.5799 C   0  0  0  0  0  0  0  0  0  0  0  0
   50.3707   55.0182   28.8072 C   0  0  0  0  0  0  0  0  0  0  0  0
   51.3131   54.7152   27.9356 N   0  0  0  0  0  0  0  0  0  0  0  0
   49.4517   56.9890   27.5717 N   0  0  0  0  0  0  0  0  0  0  0  0
   48.4452   57.8541   27.8543 C   0  0  0  0  0  0  0  0  0  0  0  0
   47.8695   57.4884   29.0514 N   0  0  0  0  0  0  0  0  0  0  0  0
  2  1  1  6  0  0  0
  2  3  1  0  0  0  0
  2  5  1  0  0  0  0
  3  4  1  0  0  0  0
  3 16  1  0  0  0  0
  5  6  1  0  0  0  0
  6  7  1  0  0  0  0
  7  8  1  0  0  0  0
  9  8  1  1  0  0  0
  9 10  1  0  0  0  0
  9 11  1  0  0  0  0
 10 15  1  0  0  0  0
 11 12  1  1  0  0  0
 11 13  1  0  0  0  0
 13 14  1  1  0  0  0
 13 15  1  0  0  0  0
 15 26  1  1  0  0  0
 17 18  2  0  0  0  0
 17 22  1  0  0  0  0
 18 19  1  0  0  0  0
 19 20  2  0  0  0  0
 20 21  1  0  0  0  0
 20 26  1  0  0  0  0
 21 22  2  0  0  0  0
 21 24  1  0  0  0  0
 22 23  1  0  0  0  0
 24 25  2  0  0  0  0
 25 26  1  0  0  0  0
M  END
>  <CHROM.1>
-30.15931845,-61.46457662,-172.71991196,105.34635958,-107.21144255,-54.99953190
99.56015269,48.18611806,56.59181404,31.31343916,-1.94793197,0.91530660,-1.08034329

>  <Name>
ligand

>  <RI>
0

>  <Rbt.Current_Directory>
/home/itssahil/PROJECTS/Mol_Feturizer/New_Systems/rnas/3GX3

>  <Rbt.Executable>
rbdock ($Id: //depot/dev/client3/rdock/2013.1/src/exe/rbdock.cxx#4 $)

>  <Rbt.Library>
libRbt.so (2013.1, Build901 2013/11/27)

>  <Rbt.Parameter_File>
/export/apps/rDock/src/rDock_2013.1_src/data/scripts/dock_solv.prm

>  <Rbt.Receptor>
prm/pocket_docking_5.prm

>  <SCORE>
-17.3103

>  <SCORE.INTER>
-13.6012

>  <SCORE.INTER.CONST>
1

>  <SCORE.INTER.POLAR>
0

>  <SCORE.INTER.ROT>
7

>  <SCORE.INTER.SOLV>
17.1537

>  <SCORE.INTER.VDW>
-23.052

>  <SCORE.INTER.norm>
-0.523122

>  <SCORE.INTRA>
-3.70913

>  <SCORE.INTRA.DIHEDRAL>
1.60129

>  <SCORE.INTRA.DIHEDRAL.0>
5.78979

>  <SCORE.INTRA.POLAR>
0

>  <SCORE.INTRA.POLAR.0>
0

>  <SCORE.INTRA.REPUL>
0

>  <SCORE.INTRA.REPUL.0>
0

>  <SCORE.INTRA.SOLV>
0.234212

>  <SCORE.INTRA.SOLV.lig_0>
-49.9151

>  <SCORE.INTRA.VDW>
-4.62689

>  <SCORE.INTRA.VDW.0>
-0.211125

>  <SCORE.INTRA.norm>
-0.142659

>  <SCORE.RESTR>
0

>  <SCORE.RESTR.CAVITY>
0

>  <SCORE.RESTR.norm>
0

>  <SCORE.SYSTEM>
0

>  <SCORE.SYSTEM.CONST>
0

>  <SCORE.SYSTEM.DIHEDRAL>
0

>  <SCORE.SYSTEM.SOLV>
0

>  <SCORE.SYSTEM.norm>
0

>  <SCORE.heavy>
26

>  <SCORE.norm>
-0.665781

>  <RMSD>
5.802

$$$$
ligand
 OpenBabel11021811483D
libRbt.so/2013.1/901 2013/11/27
 26 28  0  0  0  0  0  0  0  0999 V2000
   42.4102   53.5414   32.4189 N   0  0  0  0  0  0  0  0  0  0  0  0
   43.8319   53.8213   32.1989 C   0  0  2  0  0  0  0  0  0  0  0  0
   44.6738   53.8350   33.4767 C   0  0  0  0  0  0  0  0  0  0  0  0
   44.0911   53.9514   34.5551 O   0  0  0  0  0  0  0  0  0  0  0  0
   44.1259   55.1327   31.4590 C   0  0  0  0  0  0  0  0  0  0  0  0
   43.6028   56.4605   31.9786 C   0  0  0  0  0  0  0  0  0  0  0  0
   44.5810   56.8592   33.4455 S   0  0  0  0  0  0  0  0  0  0  0  0
   45.6586   57.8078   32.3453 C   0  0  0  0  0  0  0  0  0  0  0  0
   47.1123   57.9138   32.8183 C   0  0  1  0  0  0  0  0  0  0  0  0
   47.8510   56.6986   32.6493 O   0  0  0  0  0  0  0  0  0  0  0  0
   47.8536   58.9991   32.0511 C   0  0  1  0  0  0  0  0  0  0  0  0
   47.7903   60.2381   32.7222 O   0  0  0  0  0  0  0  0  0  0  0  0
   49.2728   58.4647   31.9091 C   0  0  1  0  0  0  0  0  0  0  0  0
   50.0989   58.8886   32.9747 O   0  0  0  0  0  0  0  0  0  0  0  0
   49.0983   56.9635   32.0283 C   0  0  2  0  0  0  0  0  0  0  0  0
   45.9058   53.7202   33.4720 O   0  0  0  0  0  0  0  0  0  0  0  0
   48.1610   57.2724   26.8665 N   0  0  0  0  0  0  0  0  0  0  0  0
   47.8867   58.2031   27.8366 C   0  0  0  0  0  0  0  0  0  0  0  0
   48.1918   57.9334   29.1542 N   0  0  0  0  0  0  0  0  0  0  0  0
   48.7901   56.7820   29.5077 C   0  0  0  0  0  0  0  0  0  0  0  0
   49.0769   55.8305   28.5438 C   0  0  0  0  0  0  0  0  0  0  0  0
   48.7537   56.0880   27.2264 C   0  0  0  0  0  0  0  0  0  0  0  0
   49.0290   55.2009   26.2900 N   0  0  0  0  0  0  0  0  0  0  0  0
   49.6677   54.7766   29.1499 N   0  0  0  0  0  0  0  0  0  0  0  0
   49.7353   55.0358   30.4801 C   0  0  0  0  0  0  0  0  0  0  0  0
   49.1950   56.2808   30.7172 N   0  0  0  0  0  0  0  0  0  0  0  0
  2  1  1  1  0  0  0
  2  3  1  0  0  0  0
  2  5  1  0  0  0  0
  3  4  1  0  0  0  0
  3 16  1  0  0  0  0
  5  6  1  0  0  0  0
  6  7  1  0  0  0  0
  7  8  1  0  0  0  0
  9  8  1  6  0  0  0
  9 10  1  0  0  0  0
  9 11  1  0  0  0  0
 10 15  1  0  0  0  0
 11 12  1  1  0  0  0
 11 13  1  0  0  0  0
 13 14  1  1  0  0  0
 13 15  1  0  0  0  0
 15 26  1  6  0  0  0
 17 18  2  0  0  0  0
 17 22  1  0  0  0  0
 18 19  1  0  0  0  0
 19 20  2  0  0  0  0
 20 21  1  0  0  0  0
 20 26  1  0  0  0  0
 21 22  2  0  0  0  0
 21 24  1  0  0  0  0
 22 23  1  0  0  0  0
 24 25  2  0  0  0  0
 25 26  1  0  0  0  0
M  END
>  <CHROM.1>
-17.72896380,55.83986104,72.57724935,93.65322703,-151.93086709,74.11766375
88.62579462,47.01056355,56.44421212,31.29475124,2.80685730,0.70194181,0.93071495

>  <Name>
ligand

>  <RI>
0

>  <Rbt.Current_Directory>
/home/itssahil/PROJECTS/Mol_Feturizer/New_Systems/rnas/3GX3

>  <Rbt.Executable>
rbdock ($Id: //depot/dev/client3/rdock/2013.1/src/exe/rbdock.cxx#4 $)

>  <Rbt.Library>
libRbt.so (2013.1, Build901 2013/11/27)

>  <Rbt.Parameter_File>
/export/apps/rDock/src/rDock_2013.1_src/data/scripts/dock_solv.prm

>  <Rbt.Receptor>
prm/pocket_docking_6.prm

>  <SCORE>
-15.7448

>  <SCORE.INTER>
-13.4209

>  <SCORE.INTER.CONST>
1

>  <SCORE.INTER.POLAR>
0

>  <SCORE.INTER.ROT>
7

>  <SCORE.INTER.SOLV>
10.2291

>  <SCORE.INTER.VDW>
-20.6236

>  <SCORE.INTER.norm>
-0.516188

>  <SCORE.INTRA>
-2.32391

>  <SCORE.INTRA.DIHEDRAL>
0.948571

>  <SCORE.INTRA.DIHEDRAL.0>
5.78979

>  <SCORE.INTRA.POLAR>
0

>  <SCORE.INTRA.POLAR.0>
0

>  <SCORE.INTRA.REPUL>
0

>  <SCORE.INTRA.REPUL.0>
0

>  <SCORE.INTRA.SOLV>
0.155403

>  <SCORE.INTRA.SOLV.lig_0>
-49.9151

>  <SCORE.INTRA.VDW>
-2.8759

>  <SCORE.INTRA.VDW.0>
-0.211125

>  <SCORE.INTRA.norm>
-0.0893811

>  <SCORE.RESTR>
0

>  <SCORE.RESTR.CAVITY>
0

>  <SCORE.RESTR.norm>
0

>  <SCORE.SYSTEM>
0

>  <SCORE.SYSTEM.CONST>
0

>  <SCORE.SYSTEM.DIHEDRAL>
0

>  <SCORE.SYSTEM.SOLV>
0

>  <SCORE.SYSTEM.norm>
0

>  <SCORE.heavy>
26

>  <SCORE.norm>
-0.605569

>  <RMSD>
5.802

$$$$
ligand
 OpenBabel11021811483D
libRbt.so/2013.1/901 2013/11/27
 26 28  0  0  0  0  0  0  0  0999 V2000
   47.4337   54.4149   31.7089 N   0  0  0  0  0  0  0  0  0  0  0  0
   47.4464   53.5857   32.9172 C   0  0  2  0  0  0  0  0  0  0  0  0
   46.1562   53.6520   33.7375 C   0  0  0  0  0  0  0  0  0  0  0  0
   45.2839   54.4463   33.3850 O   0  0  0  0  0  0  0  0  0  0  0  0
   48.6030   53.8699   33.8844 C   0  0  0  0  0  0  0  0  0  0  0  0
   48.6589   55.1611   34.6820 C   0  0  0  0  0  0  0  0  0  0  0  0
   49.4365   56.3928   33.6115 S   0  0  0  0  0  0  0  0  0  0  0  0
   47.7631   56.9200   33.1721 C   0  0  0  0  0  0  0  0  0  0  0  0
   47.6856   58.3033   32.5174 C   0  0  1  0  0  0  0  0  0  0  0  0
   48.7329   58.5384   31.5692 O   0  0  0  0  0  0  0  0  0  0  0  0
   46.3660   58.4805   31.7805 C   0  0  1  0  0  0  0  0  0  0  0  0
   45.3907   59.0754   32.6077 O   0  0  0  0  0  0  0  0  0  0  0  0
   46.7187   59.3263   30.5637 C   0  0  1  0  0  0  0  0  0  0  0  0
   46.5646   60.7066   30.8256 O   0  0  0  0  0  0  0  0  0  0  0  0
   48.1967   59.0560   30.3624 C   0  0  2  0  0  0  0  0  0  0  0  0
   45.9488   52.9353   34.7245 O   0  0  0  0  0  0  0  0  0  0  0  0
   50.0063   54.3483   28.8856 N   0  0  0  0  0  0  0  0  0  0  0  0
   49.9489   54.8774   30.1503 C   0  0  0  0  0  0  0  0  0  0  0  0
   49.4529   56.1500   30.3413 N   0  0  0  0  0  0  0  0  0  0  0  0
   48.9872   56.8767   29.3100 C   0  0  0  0  0  0  0  0  0  0  0  0
   49.0346   56.3603   28.0263 C   0  0  0  0  0  0  0  0  0  0  0  0
   49.5501   55.0948   27.8283 C   0  0  0  0  0  0  0  0  0  0  0  0
   49.5935   54.5782   26.6155 N   0  0  0  0  0  0  0  0  0  0  0  0
   48.5146   57.2772   27.1801 N   0  0  0  0  0  0  0  0  0  0  0  0
   48.1640   58.3706   27.9032 C   0  0  0  0  0  0  0  0  0  0  0  0
   48.4503   58.1351   29.2301 N   0  0  0  0  0  0  0  0  0  0  0  0
  2  1  1  6  0  0  0
  2  3  1  0  0  0  0
  2  5  1  0  0  0  0
  3  4  1  0  0  0  0
  3 16  1  0  0  0  0
  5  6  1  0  0  0  0
  6  7  1  0  0  0  0
  7  8  1  0  0  0  0
  9  8  1  6  0  0  0
  9 10  1  0  0  0  0
  9 11  1  0  0  0  0
 10 15  1  0  0  0  0
 11 12  1  1  0  0  0
 11 13  1  0  0  0  0
 13 14  1  1  0  0  0
 13 15  1  0  0  0  0
 15 26  1  6  0  0  0
 17 18  2  0  0  0  0
 17 22  1  0  0  0  0
 18 19  1  0  0  0  0
 19 20  2  0  0  0  0
 20 21  1  0  0  0  0
 20 26  1  0  0  0  0
 21 22  2  0  0  0  0
 21 24  1  0  0  0  0
 22 23  1  0  0  0  0
 24 25  2  0  0  0  0
 25 26  1  0  0  0  0
M  END
>  <CHROM.1>
-5.33983505,70.01707269,-85.14238918,96.11540159,163.00954997,41.05777834
7.08660545,48.01855453,56.43810887,31.26570619,-2.12792014,1.09451408,-0.59768646

>  <Name>
ligand

>  <RI>
0

>  <Rbt.Current_Directory>
/home/itssahil/PROJECTS/Mol_Feturizer/New_Systems/rnas/3GX3

>  <Rbt.Executable>
rbdock ($Id: //depot/dev/client3/rdock/2013.1/src/exe/rbdock.cxx#4 $)

>  <Rbt.Library>
libRbt.so (2013.1, Build901 2013/11/27)

>  <Rbt.Parameter_File>
/export/apps/rDock/src/rDock_2013.1_src/data/scripts/dock_solv.prm

>  <Rbt.Receptor>
prm/pocket_docking_3.prm

>  <SCORE>
-16.208

>  <SCORE.INTER>
-15.6339

>  <SCORE.INTER.CONST>
1

>  <SCORE.INTER.POLAR>
0

>  <SCORE.INTER.ROT>
7

>  <SCORE.INTER.SOLV>
8.05876

>  <SCORE.INTER.VDW>
-21.3755

>  <SCORE.INTER.norm>
-0.601305

>  <SCORE.INTRA>
-0.574052

>  <SCORE.INTRA.DIHEDRAL>
2.63988

>  <SCORE.INTRA.DIHEDRAL.0>
5.78979

>  <SCORE.INTRA.POLAR>
0

>  <SCORE.INTRA.POLAR.0>
0

>  <SCORE.INTRA.REPUL>
0

>  <SCORE.INTRA.REPUL.0>
0

>  <SCORE.INTRA.SOLV>
3.59906

>  <SCORE.INTRA.SOLV.lig_0>
-49.9151

>  <SCORE.INTRA.VDW>
-3.69352

>  <SCORE.INTRA.VDW.0>
-0.211125

>  <SCORE.INTRA.norm>
-0.0220789

>  <SCORE.RESTR>
0

>  <SCORE.RESTR.CAVITY>
0

>  <SCORE.RESTR.norm>
0

>  <SCORE.SYSTEM>
0

>  <SCORE.SYSTEM.CONST>
0

>  <SCORE.SYSTEM.DIHEDRAL>
0

>  <SCORE.SYSTEM.SOLV>
0

>  <SCORE.SYSTEM.norm>
0

>  <SCORE.heavy>
26

>  <SCORE.norm>
-0.623384

>  <RMSD>
5.817

$$$$
ligand
 OpenBabel11021811483D
libRbt.so/2013.1/901 2013/11/27
 26 28  0  0  0  0  0  0  0  0999 V2000
   48.7300   52.8509   25.6996 N   0  0  0  0  0  0  0  0  0  0  0  0
   47.4572   52.1248   25.7216 C   0  0  2  0  0  0  0  0  0  0  0  0
   46.6370   52.2572   24.4365 C   0  0  0  0  0  0  0  0  0  0  0  0
   47.1599   52.8089   23.4678 O   0  0  0  0  0  0  0  0  0  0  0  0
   46.5244   52.4897   26.8836 C   0  0  0  0  0  0  0  0  0  0  0  0
   46.9838   52.3672   28.3261 C   0  0  0  0  0  0  0  0  0  0  0  0
   45.5793   52.8525   29.3554 S   0  0  0  0  0  0  0  0  0  0  0  0
   46.7478   52.9368   30.7334 C   0  0  0  0  0  0  0  0  0  0  0  0
   46.9133   54.3345   31.3396 C   0  0  1  0  0  0  0  0  0  0  0  0
   45.6987   54.8596   31.8875 O   0  0  0  0  0  0  0  0  0  0  0  0
   47.9413   54.3199   32.4616 C   0  0  1  0  0  0  0  0  0  0  0  0
   49.2308   54.6305   31.9819 O   0  0  0  0  0  0  0  0  0  0  0  0
   47.4170   55.3308   33.4731 C   0  0  1  0  0  0  0  0  0  0  0  0
   47.9397   56.6228   33.2382 O   0  0  0  0  0  0  0  0  0  0  0  0
   45.9286   55.3754   33.1885 C   0  0  2  0  0  0  0  0  0  0  0  0
   45.4836   51.8229   24.3266 O   0  0  0  0  0  0  0  0  0  0  0  0
   46.0133   52.8642   37.8041 N   0  0  0  0  0  0  0  0  0  0  0  0
   47.0577   53.4574   37.1409 C   0  0  0  0  0  0  0  0  0  0  0  0
   46.8433   54.0583   35.9182 N   0  0  0  0  0  0  0  0  0  0  0  0
   45.6147   54.1068   35.3734 C   0  0  0  0  0  0  0  0  0  0  0  0
   44.5472   53.5157   36.0274 C   0  0  0  0  0  0  0  0  0  0  0  0
   44.7618   52.8947   37.2417 C   0  0  0  0  0  0  0  0  0  0  0  0
   43.7571   52.3359   37.8880 N   0  0  0  0  0  0  0  0  0  0  0  0
   43.4364   53.6994   35.2794 N   0  0  0  0  0  0  0  0  0  0  0  0
   43.7888   54.3726   34.1552 C   0  0  0  0  0  0  0  0  0  0  0  0
   45.1406   54.6347   34.2008 N   0  0  0  0  0  0  0  0  0  0  0  0
  2  1  1  6  0  0  0
  2  3  1  0  0  0  0
  2  5  1  0  0  0  0
  3  4  1  0  0  0  0
  3 16  1  0  0  0  0
  5  6  1  0  0  0  0
  6  7  1  0  0  0  0
  7  8  1  0  0  0  0
  9  8  1  1  0  0  0
  9 10  1  0  0  0  0
  9 11  1  0  0  0  0
 10 15  1  0  0  0  0
 11 12  1  6  0  0  0
 11 13  1  0  0  0  0
 13 14  1  6  0  0  0
 13 15  1  0  0  0  0
 15 26  1  1  0  0  0
 17 18  2  0  0  0  0
 17 22  1  0  0  0  0
 18 19  1  0  0  0  0
 19 20  2  0  0  0  0
 20 21  1  0  0  0  0
 20 26  1  0  0  0  0
 21 22  2  0  0  0  0
 21 24  1  0  0  0  0
 22 23  1  0  0  0  0
 24 25  2  0  0  0  0
 25 26  1  0  0  0  0
M  END
>  <CHROM.1>
8.13199998,-56.71922212,-178.63957840,-166.54585184,116.75422448,61.25430423
130.49276438,46.28703008,53.58668151,31.57027131,-1.41426562,0.54666332,1.36739099

>  <Name>
ligand

>  <RI>
0

>  <Rbt.Current_Directory>
/home/itssahil/PROJECTS/Mol_Feturizer/New_Systems/rnas/3GX3

>  <Rbt.Executable>
rbdock ($Id: //depot/dev/client3/rdock/2013.1/src/exe/rbdock.cxx#4 $)

>  <Rbt.Library>
libRbt.so (2013.1, Build901 2013/11/27)

>  <Rbt.Parameter_File>
/export/apps/rDock/src/rDock_2013.1_src/data/scripts/dock_solv.prm

>  <Rbt.Receptor>
prm/pocket_docking_8.prm

>  <SCORE>
-12.1319

>  <SCORE.INTER>
-10.3871

>  <SCORE.INTER.CONST>
1

>  <SCORE.INTER.POLAR>
0

>  <SCORE.INTER.ROT>
7

>  <SCORE.INTER.SOLV>
7.38326

>  <SCORE.INTER.VDW>
-17.6525

>  <SCORE.INTER.norm>
-0.399505

>  <SCORE.INTRA>
-1.74476

>  <SCORE.INTRA.DIHEDRAL>
-0.29935

>  <SCORE.INTRA.DIHEDRAL.0>
5.78979

>  <SCORE.INTRA.POLAR>
0

>  <SCORE.INTRA.POLAR.0>
0

>  <SCORE.INTRA.REPUL>
0

>  <SCORE.INTRA.REPUL.0>
0

>  <SCORE.INTRA.SOLV>
-0.490292

>  <SCORE.INTRA.SOLV.lig_0>
-49.9151

>  <SCORE.INTRA.VDW>
-1.34994

>  <SCORE.INTRA.VDW.0>
-0.211125

>  <SCORE.INTRA.norm>
-0.0671063

>  <SCORE.RESTR>
0

>  <SCORE.RESTR.CAVITY>
0

>  <SCORE.RESTR.norm>
0

>  <SCORE.SYSTEM>
0

>  <SCORE.SYSTEM.CONST>
0

>  <SCORE.SYSTEM.DIHEDRAL>
0

>  <SCORE.SYSTEM.SOLV>
0

>  <SCORE.SYSTEM.norm>
0

>  <SCORE.heavy>
26

>  <SCORE.norm>
-0.466611

>  <RMSD>
5.818

$$$$
ligand
 OpenBabel11021811483D
libRbt.so/2013.1/901 2013/11/27
 26 28  0  0  0  0  0  0  0  0999 V2000
   45.6285   53.9785   31.9931 N   0  0  0  0  0  0  0  0  0  0  0  0
   46.0497   53.6081   33.3470 C   0  0  2  0  0  0  0  0  0  0  0  0
   45.6835   54.6348   34.4210 C   0  0  0  0  0  0  0  0  0  0  0  0
   45.8107   54.3107   35.6021 O   0  0  0  0  0  0  0  0  0  0  0  0
   47.5484   53.3188   33.5016 C   0  0  0  0  0  0  0  0  0  0  0  0
   48.5924   54.2697   32.9426 C   0  0  0  0  0  0  0  0  0  0  0  0
   48.7382   55.6267   34.1278 S   0  0  0  0  0  0  0  0  0  0  0  0
   49.6208   56.5293   32.8325 C   0  0  0  0  0  0  0  0  0  0  0  0
   48.9720   57.8583   32.4312 C   0  0  1  0  0  0  0  0  0  0  0  0
   49.5265   58.4189   31.2356 O   0  0  0  0  0  0  0  0  0  0  0  0
   47.4793   57.6821   32.1931 C   0  0  1  0  0  0  0  0  0  0  0  0
   46.7374   57.9419   33.3641 O   0  0  0  0  0  0  0  0  0  0  0  0
   47.1587   58.6408   31.0537 C   0  0  1  0  0  0  0  0  0  0  0  0
   46.7614   59.9089   31.5352 O   0  0  0  0  0  0  0  0  0  0  0  0
   48.4905   58.8101   30.3495 C   0  0  2  0  0  0  0  0  0  0  0  0
   45.2815   55.7741   34.1536 O   0  0  0  0  0  0  0  0  0  0  0  0
   50.1648   54.4284   27.9798 N   0  0  0  0  0  0  0  0  0  0  0  0
   50.3310   54.8020   29.2895 C   0  0  0  0  0  0  0  0  0  0  0  0
   49.8316   56.0103   29.7285 N   0  0  0  0  0  0  0  0  0  0  0  0
   49.1484   56.8218   28.9019 C   0  0  0  0  0  0  0  0  0  0  0  0
   48.9682   56.4623   27.5771 C   0  0  0  0  0  0  0  0  0  0  0  0
   49.4849   55.2631   27.1286 C   0  0  0  0  0  0  0  0  0  0  0  0
   49.3145   54.8950   25.8736 N   0  0  0  0  0  0  0  0  0  0  0  0
   48.2597   57.4373   26.9651 N   0  0  0  0  0  0  0  0  0  0  0  0
   48.0123   58.4151   27.8728 C   0  0  0  0  0  0  0  0  0  0  0  0
   48.5574   58.0450   29.0827 N   0  0  0  0  0  0  0  0  0  0  0  0
  2  1  1  6  0  0  0
  2  3  1  0  0  0  0
  2  5  1  0  0  0  0
  3  4  1  0  0  0  0
  3 16  1  0  0  0  0
  5  6  1  0  0  0  0
  6  7  1  0  0  0  0
  7  8  1  0  0  0  0
  9  8  1  6  0  0  0
  9 10  1  0  0  0  0
  9 11  1  0  0  0  0
 10 15  1  0  0  0  0
 11 12  1  1  0  0  0
 11 13  1  0  0  0  0
 13 14  1  1  0  0  0
 13 15  1  0  0  0  0
 15 26  1  6  0  0  0
 17 18  2  0  0  0  0
 17 22  1  0  0  0  0
 18 19  1  0  0  0  0
 19 20  2  0  0  0  0
 20 21  1  0  0  0  0
 20 26  1  0  0  0  0
 21 22  2  0  0  0  0
 21 24  1  0  0  0  0
 22 23  1  0  0  0  0
 24 25  2  0  0  0  0
 25 26  1  0  0  0  0
M  END
>  <CHROM.1>
168.82041285,48.12810208,79.94172035,-165.60986925,121.00667331,-168.19921317
23.01117023,48.07026254,56.29059462,31.23528501,-2.75451273,1.17930031,-0.18820580

>  <Name>
ligand

>  <RI>
0

>  <Rbt.Current_Directory>
/home/itssahil/PROJECTS/Mol_Feturizer/New_Systems/rnas/3GX3

>  <Rbt.Executable>
rbdock ($Id: //depot/dev/client3/rdock/2013.1/src/exe/rbdock.cxx#4 $)

>  <Rbt.Library>
libRbt.so (2013.1, Build901 2013/11/27)

>  <Rbt.Parameter_File>
/export/apps/rDock/src/rDock_2013.1_src/data/scripts/dock_solv.prm

>  <Rbt.Receptor>
prm/pocket_docking_5.prm

>  <SCORE>
-16.4294

>  <SCORE.INTER>
-13.9453

>  <SCORE.INTER.CONST>
1

>  <SCORE.INTER.POLAR>
0

>  <SCORE.INTER.ROT>
7

>  <SCORE.INTER.SOLV>
9.50104

>  <SCORE.INTER.VDW>
-20.7305

>  <SCORE.INTER.norm>
-0.536358

>  <SCORE.INTRA>
-2.48415

>  <SCORE.INTRA.DIHEDRAL>
2.10346

>  <SCORE.INTRA.DIHEDRAL.0>
5.78979

>  <SCORE.INTRA.POLAR>
0

>  <SCORE.INTRA.POLAR.0>
0

>  <SCORE.INTRA.REPUL>
0

>  <SCORE.INTRA.REPUL.0>
0

>  <SCORE.INTRA.SOLV>
0.922118

>  <SCORE.INTRA.SOLV.lig_0>
-49.9151

>  <SCORE.INTRA.VDW>
-3.99694

>  <SCORE.INTRA.VDW.0>
-0.211125

>  <SCORE.INTRA.norm>
-0.0955442

>  <SCORE.RESTR>
0

>  <SCORE.RESTR.CAVITY>
0

>  <SCORE.RESTR.norm>
0

>  <SCORE.SYSTEM>
0

>  <SCORE.SYSTEM.CONST>
0

>  <SCORE.SYSTEM.DIHEDRAL>
0

>  <SCORE.SYSTEM.SOLV>
0

>  <SCORE.SYSTEM.norm>
0

>  <SCORE.heavy>
26

>  <SCORE.norm>
-0.631902

>  <RMSD>
5.821

$$$$
ligand
 OpenBabel11021811483D
libRbt.so/2013.1/901 2013/11/27
 26 28  0  0  0  0  0  0  0  0999 V2000
   47.0983   55.5286   29.1996 N   0  0  0  0  0  0  0  0  0  0  0  0
   48.1214   56.5370   29.4898 C   0  0  2  0  0  0  0  0  0  0  0  0
   48.5208   57.3907   28.2843 C   0  0  0  0  0  0  0  0  0  0  0  0
   48.7392   56.8203   27.2152 O   0  0  0  0  0  0  0  0  0  0  0  0
   49.4196   55.9859   30.0937 C   0  0  0  0  0  0  0  0  0  0  0  0
   49.4042   55.1706   31.3750 C   0  0  0  0  0  0  0  0  0  0  0  0
   49.0969   56.3363   32.7220 S   0  0  0  0  0  0  0  0  0  0  0  0
   48.5291   54.9157   33.6869 C   0  0  0  0  0  0  0  0  0  0  0  0
   47.1031   54.4582   33.3623 C   0  0  1  0  0  0  0  0  0  0  0  0
   46.7188   53.2691   34.0619 O   0  0  0  0  0  0  0  0  0  0  0  0
   46.0926   55.5371   33.7239 C   0  0  1  0  0  0  0  0  0  0  0  0
   45.8227   56.3784   32.6245 O   0  0  0  0  0  0  0  0  0  0  0  0
   44.8695   54.7683   34.2067 C   0  0  1  0  0  0  0  0  0  0  0  0
   43.9651   54.5113   33.1514 O   0  0  0  0  0  0  0  0  0  0  0  0
   45.4432   53.4396   34.6579 C   0  0  2  0  0  0  0  0  0  0  0  0
   48.6185   58.6231   28.3353 O   0  0  0  0  0  0  0  0  0  0  0  0
   48.3363   54.3873   38.9416 N   0  0  0  0  0  0  0  0  0  0  0  0
   48.6492   54.6466   37.6311 C   0  0  0  0  0  0  0  0  0  0  0  0
   47.7614   54.3068   36.6319 N   0  0  0  0  0  0  0  0  0  0  0  0
   46.5695   53.7543   36.9193 C   0  0  0  0  0  0  0  0  0  0  0  0
   46.2338   53.4862   38.2355 C   0  0  0  0  0  0  0  0  0  0  0  0
   47.1290   53.8054   39.2370 C   0  0  0  0  0  0  0  0  0  0  0  0
   46.8248   53.5702   40.4987 N   0  0  0  0  0  0  0  0  0  0  0  0
   44.9994   52.9357   38.2553 N   0  0  0  0  0  0  0  0  0  0  0  0
   44.5622   52.8290   36.9752 C   0  0  0  0  0  0  0  0  0  0  0  0
   45.5276   53.3361   36.1333 N   0  0  0  0  0  0  0  0  0  0  0  0
  2  1  1  6  0  0  0
  2  3  1  0  0  0  0
  2  5  1  0  0  0  0
  3  4  1  0  0  0  0
  3 16  1  0  0  0  0
  5  6  1  0  0  0  0
  6  7  1  0  0  0  0
  7  8  1  0  0  0  0
  9  8  1  1  0  0  0
  9 10  1  0  0  0  0
  9 11  1  0  0  0  0
 10 15  1  0  0  0  0
 11 12  1  6  0  0  0
 11 13  1  0  0  0  0
 13 14  1  6  0  0  0
 13 15  1  0  0  0  0
 15 26  1  1  0  0  0
 17 18  2  0  0  0  0
 17 22  1  0  0  0  0
 18 19  1  0  0  0  0
 19 20  2  0  0  0  0
 20 21  1  0  0  0  0
 20 26  1  0  0  0  0
 21 22  2  0  0  0  0
 21 24  1  0  0  0  0
 22 23  1  0  0  0  0
 24 25  2  0  0  0  0
 25 26  1  0  0  0  0
M  END
>  <CHROM.1>
-45.82159573,-56.63824282,-73.81714542,158.49896811,-79.27193170,175.28559981
34.54159716,47.18627981,54.98907659,33.86349844,1.34716254,-0.33336013,-1.30033891

>  <Name>
ligand

>  <RI>
0

>  <Rbt.Current_Directory>
/home/itssahil/PROJECTS/Mol_Feturizer/New_Systems/rnas/3GX3

>  <Rbt.Executable>
rbdock ($Id: //depot/dev/client3/rdock/2013.1/src/exe/rbdock.cxx#4 $)

>  <Rbt.Library>
libRbt.so (2013.1, Build901 2013/11/27)

>  <Rbt.Parameter_File>
/export/apps/rDock/src/rDock_2013.1_src/data/scripts/dock_solv.prm

>  <Rbt.Receptor>
prm/pocket_docking_8.prm

>  <SCORE>
-19.4246

>  <SCORE.INTER>
-16.1388

>  <SCORE.INTER.CONST>
1

>  <SCORE.INTER.POLAR>
0

>  <SCORE.INTER.ROT>
7

>  <SCORE.INTER.SOLV>
6.80711

>  <SCORE.INTER.VDW>
-21.2949

>  <SCORE.INTER.norm>
-0.620724

>  <SCORE.INTRA>
-3.28579

>  <SCORE.INTRA.DIHEDRAL>
-0.95957

>  <SCORE.INTRA.DIHEDRAL.0>
5.78979

>  <SCORE.INTRA.POLAR>
0

>  <SCORE.INTRA.POLAR.0>
0

>  <SCORE.INTRA.REPUL>
0

>  <SCORE.INTRA.REPUL.0>
0

>  <SCORE.INTRA.SOLV>
1.03878

>  <SCORE.INTRA.SOLV.lig_0>
-49.9151

>  <SCORE.INTRA.VDW>
-3.3254

>  <SCORE.INTRA.VDW.0>
-0.211125

>  <SCORE.INTRA.norm>
-0.126377

>  <SCORE.RESTR>
0

>  <SCORE.RESTR.CAVITY>
0

>  <SCORE.RESTR.norm>
0

>  <SCORE.SYSTEM>
0

>  <SCORE.SYSTEM.CONST>
0

>  <SCORE.SYSTEM.DIHEDRAL>
0

>  <SCORE.SYSTEM.SOLV>
0

>  <SCORE.SYSTEM.norm>
0

>  <SCORE.heavy>
26

>  <SCORE.norm>
-0.747101

>  <RMSD>
5.824

$$$$
ligand
 OpenBabel11021811483D
libRbt.so/2013.1/901 2013/11/27
 26 28  0  0  0  0  0  0  0  0999 V2000
   47.9613   54.4123   27.9474 N   0  0  0  0  0  0  0  0  0  0  0  0
   48.9448   53.4041   28.3527 C   0  0  2  0  0  0  0  0  0  0  0  0
   48.3315   52.1188   28.9126 C   0  0  0  0  0  0  0  0  0  0  0  0
   49.0160   51.0953   28.9005 O   0  0  0  0  0  0  0  0  0  0  0  0
   49.9799   53.8857   29.3775 C   0  0  0  0  0  0  0  0  0  0  0  0
   49.5615   54.6898   30.5961 C   0  0  0  0  0  0  0  0  0  0  0  0
   48.7172   53.5391   31.7055 S   0  0  0  0  0  0  0  0  0  0  0  0
   48.2906   54.9802   32.7118 C   0  0  0  0  0  0  0  0  0  0  0  0
   46.9612   55.6440   32.3369 C   0  0  1  0  0  0  0  0  0  0  0  0
   45.8468   54.7461   32.3911 O   0  0  0  0  0  0  0  0  0  0  0  0
   46.6502   56.8012   33.2751 C   0  0  1  0  0  0  0  0  0  0  0  0
   47.1359   58.0228   32.7639 O   0  0  0  0  0  0  0  0  0  0  0  0
   45.1348   56.7734   33.4264 C   0  0  1  0  0  0  0  0  0  0  0  0
   44.5000   57.5983   32.4702 O   0  0  0  0  0  0  0  0  0  0  0  0
   44.7747   55.3355   33.1085 C   0  0  2  0  0  0  0  0  0  0  0  0
   47.1898   52.0690   29.3870 O   0  0  0  0  0  0  0  0  0  0  0  0
   41.0350   52.8770   35.8631 N   0  0  0  0  0  0  0  0  0  0  0  0
   40.9088   53.5554   34.6772 C   0  0  0  0  0  0  0  0  0  0  0  0
   42.0116   54.1577   34.1088 N   0  0  0  0  0  0  0  0  0  0  0  0
   43.2260   54.0637   34.6787 C   0  0  0  0  0  0  0  0  0  0  0  0
   43.3750   53.3822   35.8746 C   0  0  0  0  0  0  0  0  0  0  0  0
   42.2693   52.7959   36.4576 C   0  0  0  0  0  0  0  0  0  0  0  0
   42.3903   52.1312   37.5904 N   0  0  0  0  0  0  0  0  0  0  0  0
   44.6769   53.4348   36.2342 N   0  0  0  0  0  0  0  0  0  0  0  0
   45.3457   54.1578   35.3007 C   0  0  0  0  0  0  0  0  0  0  0  0
   44.4563   54.5538   34.3259 N   0  0  0  0  0  0  0  0  0  0  0  0
  2  1  1  1  0  0  0
  2  3  1  0  0  0  0
  2  5  1  0  0  0  0
  3  4  1  0  0  0  0
  3 16  1  0  0  0  0
  5  6  1  0  0  0  0
  6  7  1  0  0  0  0
  7  8  1  0  0  0  0
  9  8  1  1  0  0  0
  9 10  1  0  0  0  0
  9 11  1  0  0  0  0
 10 15  1  0  0  0  0
 11 12  1  6  0  0  0
 11 13  1  0  0  0  0
 13 14  1  6  0  0  0
 13 15  1  0  0  0  0
 15 26  1  1  0  0  0
 17 18  2  0  0  0  0
 17 22  1  0  0  0  0
 18 19  1  0  0  0  0
 19 20  2  0  0  0  0
 20 21  1  0  0  0  0
 20 26  1  0  0  0  0
 21 22  2  0  0  0  0
 21 24  1  0  0  0  0
 22 23  1  0  0  0  0
 24 25  2  0  0  0  0
 25 26  1  0  0  0  0
M  END
>  <CHROM.1>
158.58175600,45.44906040,72.14987457,-172.44388130,90.14453690,56.81172460
-126.53523400,45.93826009,54.22890727,32.66396699,0.18899120,-0.75678018
-2.90097112

>  <Name>
ligand

>  <RI>
0

>  <Rbt.Current_Directory>
/home/itssahil/PROJECTS/Mol_Feturizer/New_Systems/rnas/3GX3

>  <Rbt.Executable>
rbdock ($Id: //depot/dev/client3/rdock/2013.1/src/exe/rbdock.cxx#4 $)

>  <Rbt.Library>
libRbt.so (2013.1, Build901 2013/11/27)

>  <Rbt.Parameter_File>
/export/apps/rDock/src/rDock_2013.1_src/data/scripts/dock_solv.prm

>  <Rbt.Receptor>
prm/pocket_docking_8.prm

>  <SCORE>
-13.2366

>  <SCORE.INTER>
-10.3137

>  <SCORE.INTER.CONST>
1

>  <SCORE.INTER.POLAR>
0

>  <SCORE.INTER.ROT>
7

>  <SCORE.INTER.SOLV>
5.59601

>  <SCORE.INTER.VDW>
-17.0078

>  <SCORE.INTER.norm>
-0.39668

>  <SCORE.INTRA>
-2.92288

>  <SCORE.INTRA.DIHEDRAL>
-0.291654

>  <SCORE.INTRA.DIHEDRAL.0>
5.78979

>  <SCORE.INTRA.POLAR>
0

>  <SCORE.INTRA.POLAR.0>
0

>  <SCORE.INTRA.REPUL>
0

>  <SCORE.INTRA.REPUL.0>
0

>  <SCORE.INTRA.SOLV>
0.262559

>  <SCORE.INTRA.SOLV.lig_0>
-49.9151

>  <SCORE.INTRA.VDW>
-2.90834

>  <SCORE.INTRA.VDW.0>
-0.211125

>  <SCORE.INTRA.norm>
-0.112419

>  <SCORE.RESTR>
0

>  <SCORE.RESTR.CAVITY>
0

>  <SCORE.RESTR.norm>
0

>  <SCORE.SYSTEM>
0

>  <SCORE.SYSTEM.CONST>
0

>  <SCORE.SYSTEM.DIHEDRAL>
0

>  <SCORE.SYSTEM.SOLV>
0

>  <SCORE.SYSTEM.norm>
0

>  <SCORE.heavy>
26

>  <SCORE.norm>
-0.509099

>  <RMSD>
5.860

$$$$
ligand
 OpenBabel11021811483D
libRbt.so/2013.1/901 2013/11/27
 26 28  0  0  0  0  0  0  0  0999 V2000
   44.6265   60.3540   31.4072 N   0  0  0  0  0  0  0  0  0  0  0  0
   45.6123   59.3534   31.8252 C   0  0  2  0  0  0  0  0  0  0  0  0
   47.0484   59.6733   31.4042 C   0  0  0  0  0  0  0  0  0  0  0  0
   47.3577   59.5103   30.2236 O   0  0  0  0  0  0  0  0  0  0  0  0
   45.3201   57.9222   31.3561 C   0  0  0  0  0  0  0  0  0  0  0  0
   44.2002   57.1065   31.9781 C   0  0  0  0  0  0  0  0  0  0  0  0
   44.6327   56.8839   33.7191 S   0  0  0  0  0  0  0  0  0  0  0  0
   45.3716   55.3072   33.2296 C   0  0  0  0  0  0  0  0  0  0  0  0
   46.8768   55.2023   33.4974 C   0  0  1  0  0  0  0  0  0  0  0  0
   47.4306   53.9370   33.1187 O   0  0  0  0  0  0  0  0  0  0  0  0
   47.6392   56.2727   32.7301 C   0  0  1  0  0  0  0  0  0  0  0  0
   47.8187   57.4347   33.5092 O   0  0  0  0  0  0  0  0  0  0  0  0
   48.9502   55.6023   32.3403 C   0  0  1  0  0  0  0  0  0  0  0  0
   49.9555   55.8194   33.3099 O   0  0  0  0  0  0  0  0  0  0  0  0
   48.6084   54.1254   32.3514 C   0  0  2  0  0  0  0  0  0  0  0  0
   47.9015   60.0997   32.1925 O   0  0  0  0  0  0  0  0  0  0  0  0
   51.0044   52.8129   27.8620 N   0  0  0  0  0  0  0  0  0  0  0  0
   51.5595   53.3542   28.9941 C   0  0  0  0  0  0  0  0  0  0  0  0
   50.7596   53.6515   30.0775 N   0  0  0  0  0  0  0  0  0  0  0  0
   49.4411   53.3872   30.0616 C   0  0  0  0  0  0  0  0  0  0  0  0
   48.8619   52.8395   28.9297 C   0  0  0  0  0  0  0  0  0  0  0  0
   49.6558   52.5601   27.8351 C   0  0  0  0  0  0  0  0  0  0  0  0
   49.1273   52.0267   26.7508 N   0  0  0  0  0  0  0  0  0  0  0  0
   47.5412   52.6748   29.1656 N   0  0  0  0  0  0  0  0  0  0  0  0
   47.2735   53.1316   30.4150 C   0  0  0  0  0  0  0  0  0  0  0  0
   48.4464   53.5760   30.9852 N   0  0  0  0  0  0  0  0  0  0  0  0
  2  1  1  6  0  0  0
  2  3  1  0  0  0  0
  2  5  1  0  0  0  0
  3  4  1  0  0  0  0
  3 16  1  0  0  0  0
  5  6  1  0  0  0  0
  6  7  1  0  0  0  0
  7  8  1  0  0  0  0
  9  8  1  6  0  0  0
  9 10  1  0  0  0  0
  9 11  1  0  0  0  0
 10 15  1  0  0  0  0
 11 12  1  1  0  0  0
 11 13  1  0  0  0  0
 13 14  1  1  0  0  0
 13 15  1  0  0  0  0
 15 26  1  6  0  0  0
 17 18  2  0  0  0  0
 17 22  1  0  0  0  0
 18 19  1  0  0  0  0
 19 20  2  0  0  0  0
 20 21  1  0  0  0  0
 20 26  1  0  0  0  0
 21 22  2  0  0  0  0
 21 24  1  0  0  0  0
 22 23  1  0  0  0  0
 24 25  2  0  0  0  0
 25 26  1  0  0  0  0
M  END
>  <CHROM.1>
-75.03551713,-72.76269721,-63.06648151,-94.31035316,118.57105798,179.11920256
-168.44837962,47.62924614,55.71134389,31.31608886,-2.54280568,-0.89816927
2.84923526

>  <Name>
ligand

>  <RI>
0

>  <Rbt.Current_Directory>
/home/itssahil/PROJECTS/Mol_Feturizer/New_Systems/rnas/3GX3

>  <Rbt.Executable>
rbdock ($Id: //depot/dev/client3/rdock/2013.1/src/exe/rbdock.cxx#4 $)

>  <Rbt.Library>
libRbt.so (2013.1, Build901 2013/11/27)

>  <Rbt.Parameter_File>
/export/apps/rDock/src/rDock_2013.1_src/data/scripts/dock_solv.prm

>  <Rbt.Receptor>
prm/pocket_docking_4.prm

>  <SCORE>
-14.7277

>  <SCORE.INTER>
-12.9003

>  <SCORE.INTER.CONST>
1

>  <SCORE.INTER.POLAR>
0

>  <SCORE.INTER.ROT>
7

>  <SCORE.INTER.SOLV>
13.9171

>  <SCORE.INTER.VDW>
-21.5059

>  <SCORE.INTER.norm>
-0.496164

>  <SCORE.INTRA>
-1.82746

>  <SCORE.INTRA.DIHEDRAL>
1.57082

>  <SCORE.INTRA.DIHEDRAL.0>
5.78979

>  <SCORE.INTRA.POLAR>
0

>  <SCORE.INTRA.POLAR.0>
0

>  <SCORE.INTRA.REPUL>
0

>  <SCORE.INTRA.REPUL.0>
0

>  <SCORE.INTRA.SOLV>
0.615063

>  <SCORE.INTRA.SOLV.lig_0>
-49.9151

>  <SCORE.INTRA.VDW>
-2.9204

>  <SCORE.INTRA.VDW.0>
-0.211125

>  <SCORE.INTRA.norm>
-0.070287

>  <SCORE.RESTR>
0

>  <SCORE.RESTR.CAVITY>
0

>  <SCORE.RESTR.norm>
0

>  <SCORE.SYSTEM>
0

>  <SCORE.SYSTEM.CONST>
0

>  <SCORE.SYSTEM.DIHEDRAL>
0

>  <SCORE.SYSTEM.SOLV>
0

>  <SCORE.SYSTEM.norm>
0

>  <SCORE.heavy>
26

>  <SCORE.norm>
-0.566451

>  <RMSD>
5.868

$$$$
ligand
 OpenBabel11021811483D
libRbt.so/2013.1/901 2013/11/27
 26 28  0  0  0  0  0  0  0  0999 V2000
   46.6924   55.4648   34.0469 N   0  0  0  0  0  0  0  0  0  0  0  0
   47.8130   55.0176   33.2150 C   0  0  2  0  0  0  0  0  0  0  0  0
   48.7735   54.0571   33.9198 C   0  0  0  0  0  0  0  0  0  0  0  0
   49.2243   54.3873   35.0169 O   0  0  0  0  0  0  0  0  0  0  0  0
   48.6678   56.1447   32.6213 C   0  0  0  0  0  0  0  0  0  0  0  0
   48.9159   57.4298   33.3918 C   0  0  0  0  0  0  0  0  0  0  0  0
   49.4911   58.6483   32.1868 S   0  0  0  0  0  0  0  0  0  0  0  0
   47.9950   59.5881   32.5738 C   0  0  0  0  0  0  0  0  0  0  0  0
   46.8164   59.3197   31.6319 C   0  0  1  0  0  0  0  0  0  0  0  0
   47.1687   59.4107   30.2467 O   0  0  0  0  0  0  0  0  0  0  0  0
   46.2480   57.9264   31.8591 C   0  0  1  0  0  0  0  0  0  0  0  0
   45.1928   57.9475   32.7947 O   0  0  0  0  0  0  0  0  0  0  0  0
   45.8146   57.4605   30.4752 C   0  0  1  0  0  0  0  0  0  0  0  0
   44.4641   57.7859   30.2145 O   0  0  0  0  0  0  0  0  0  0  0  0
   46.6776   58.2838   29.5393 C   0  0  2  0  0  0  0  0  0  0  0  0
   49.1020   52.9637   33.4428 O   0  0  0  0  0  0  0  0  0  0  0  0
   49.1360   53.6405   29.4217 N   0  0  0  0  0  0  0  0  0  0  0  0
   48.0473   54.0061   30.1725 C   0  0  0  0  0  0  0  0  0  0  0  0
   47.5487   55.2887   30.0814 N   0  0  0  0  0  0  0  0  0  0  0  0
   48.0894   56.1866   29.2388 C   0  0  0  0  0  0  0  0  0  0  0  0
   49.1873   55.8370   28.4712 C   0  0  0  0  0  0  0  0  0  0  0  0
   49.7025   54.5603   28.5753 C   0  0  0  0  0  0  0  0  0  0  0  0
   50.7403   54.2019   27.8444 N   0  0  0  0  0  0  0  0  0  0  0  0
   49.5371   56.9044   27.7192 N   0  0  0  0  0  0  0  0  0  0  0  0
   48.6962   57.9269   28.0173 C   0  0  0  0  0  0  0  0  0  0  0  0
   47.7889   57.4943   28.9596 N   0  0  0  0  0  0  0  0  0  0  0  0
  2  1  1  1  0  0  0
  2  3  1  0  0  0  0
  2  5  1  0  0  0  0
  3  4  1  0  0  0  0
  3 16  1  0  0  0  0
  5  6  1  0  0  0  0
  6  7  1  0  0  0  0
  7  8  1  0  0  0  0
  9  8  1  1  0  0  0
  9 10  1  0  0  0  0
  9 11  1  0  0  0  0
 10 15  1  0  0  0  0
 11 12  1  1  0  0  0
 11 13  1  0  0  0  0
 13 14  1  6  0  0  0
 13 15  1  0  0  0  0
 15 26  1  1  0  0  0
 17 18  2  0  0  0  0
 17 22  1  0  0  0  0
 18 19  1  0  0  0  0
 19 20  2  0  0  0  0
 20 21  1  0  0  0  0
 20 26  1  0  0  0  0
 21 22  2  0  0  0  0
 21 24  1  0  0  0  0
 22 23  1  0  0  0  0
 24 25  2  0  0  0  0
 25 26  1  0  0  0  0
M  END
>  <CHROM.1>
-51.45022979,34.63851006,-162.66536567,116.61990624,-94.41053977,-49.76344470
119.29965769,48.02209545,56.58147173,31.11693772,0.87929014,-1.03786783,1.88914294

>  <Name>
ligand

>  <RI>
0

>  <Rbt.Current_Directory>
/home/itssahil/PROJECTS/Mol_Feturizer/New_Systems/rnas/3GX3

>  <Rbt.Executable>
rbdock ($Id: //depot/dev/client3/rdock/2013.1/src/exe/rbdock.cxx#4 $)

>  <Rbt.Library>
libRbt.so (2013.1, Build901 2013/11/27)

>  <Rbt.Parameter_File>
/export/apps/rDock/src/rDock_2013.1_src/data/scripts/dock_solv.prm

>  <Rbt.Receptor>
prm/pocket_docking_5.prm

>  <SCORE>
-11.1975

>  <SCORE.INTER>
-10.5534

>  <SCORE.INTER.CONST>
1

>  <SCORE.INTER.POLAR>
0

>  <SCORE.INTER.ROT>
7

>  <SCORE.INTER.SOLV>
10.7663

>  <SCORE.INTER.VDW>
-18.8911

>  <SCORE.INTER.norm>
-0.405901

>  <SCORE.INTRA>
-0.644073

>  <SCORE.INTRA.DIHEDRAL>
4.49406

>  <SCORE.INTRA.DIHEDRAL.0>
5.78979

>  <SCORE.INTRA.POLAR>
0

>  <SCORE.INTRA.POLAR.0>
0

>  <SCORE.INTRA.REPUL>
0

>  <SCORE.INTRA.REPUL.0>
0

>  <SCORE.INTRA.SOLV>
2.53472

>  <SCORE.INTRA.SOLV.lig_0>
-49.9151

>  <SCORE.INTRA.VDW>
-4.15846

>  <SCORE.INTRA.VDW.0>
-0.211125

>  <SCORE.INTRA.norm>
-0.024772

>  <SCORE.RESTR>
0

>  <SCORE.RESTR.CAVITY>
0

>  <SCORE.RESTR.norm>
0

>  <SCORE.SYSTEM>
0

>  <SCORE.SYSTEM.CONST>
0

>  <SCORE.SYSTEM.DIHEDRAL>
0

>  <SCORE.SYSTEM.SOLV>
0

>  <SCORE.SYSTEM.norm>
0

>  <SCORE.heavy>
26

>  <SCORE.norm>
-0.430674

>  <RMSD>
5.874

$$$$
ligand
 OpenBabel11021811483D
libRbt.so/2013.1/901 2013/11/27
 26 28  0  0  0  0  0  0  0  0999 V2000
   46.0066   53.1805   35.3415 N   0  0  0  0  0  0  0  0  0  0  0  0
   46.1076   54.4266   34.5767 C   0  0  2  0  0  0  0  0  0  0  0  0
   44.7662   54.9648   34.0740 C   0  0  0  0  0  0  0  0  0  0  0  0
   44.6345   56.1839   33.9619 O   0  0  0  0  0  0  0  0  0  0  0  0
   47.0451   54.3668   33.3638 C   0  0  0  0  0  0  0  0  0  0  0  0
   48.5463   54.2181   33.5397 C   0  0  0  0  0  0  0  0  0  0  0  0
   49.1144   55.7102   34.3875 S   0  0  0  0  0  0  0  0  0  0  0  0
   49.5673   56.3435   32.7549 C   0  0  0  0  0  0  0  0  0  0  0  0
   48.9495   57.7023   32.4083 C   0  0  1  0  0  0  0  0  0  0  0  0
   49.4948   58.2832   31.2182 O   0  0  0  0  0  0  0  0  0  0  0  0
   47.4476   57.5765   32.1979 C   0  0  1  0  0  0  0  0  0  0  0  0
   46.7385   57.8214   33.3923 O   0  0  0  0  0  0  0  0  0  0  0  0
   47.1312   58.5786   31.0953 C   0  0  1  0  0  0  0  0  0  0  0  0
   46.7817   59.8421   31.6234 O   0  0  0  0  0  0  0  0  0  0  0  0
   48.4522   58.7310   30.3673 C   0  0  2  0  0  0  0  0  0  0  0  0
   43.8201   54.2301   33.7637 O   0  0  0  0  0  0  0  0  0  0  0  0
   50.2365   54.5432   27.7412 N   0  0  0  0  0  0  0  0  0  0  0  0
   50.4822   54.8966   29.0440 C   0  0  0  0  0  0  0  0  0  0  0  0
   49.9352   56.0538   29.5575 N   0  0  0  0  0  0  0  0  0  0  0  0
   49.1301   56.8322   28.8129 C   0  0  0  0  0  0  0  0  0  0  0  0
   48.8683   56.4923   27.4965 C   0  0  0  0  0  0  0  0  0  0  0  0
   49.4312   55.3457   26.9724 C   0  0  0  0  0  0  0  0  0  0  0  0
   49.1853   54.9963   25.7246 N   0  0  0  0  0  0  0  0  0  0  0  0
   48.0440   57.4267   26.9725 N   0  0  0  0  0  0  0  0  0  0  0  0
   47.8023   58.3615   27.9260 C   0  0  0  0  0  0  0  0  0  0  0  0
   48.4698   58.0037   29.0769 N   0  0  0  0  0  0  0  0  0  0  0  0
  2  1  1  6  0  0  0
  2  3  1  0  0  0  0
  2  5  1  0  0  0  0
  3  4  1  0  0  0  0
  3 16  1  0  0  0  0
  5  6  1  0  0  0  0
  6  7  1  0  0  0  0
  7  8  1  0  0  0  0
  9  8  1  6  0  0  0
  9 10  1  0  0  0  0
  9 11  1  0  0  0  0
 10 15  1  0  0  0  0
 11 12  1  1  0  0  0
 11 13  1  0  0  0  0
 13 14  1  1  0  0  0
 13 15  1  0  0  0  0
 15 26  1  6  0  0  0
 17 18  2  0  0  0  0
 17 22  1  0  0  0  0
 18 19  1  0  0  0  0
 19 20  2  0  0  0  0
 20 21  1  0  0  0  0
 20 26  1  0  0  0  0
 21 22  2  0  0  0  0
 21 24  1  0  0  0  0
 22 23  1  0  0  0  0
 24 25  2  0  0  0  0
 25 26  1  0  0  0  0
M  END
>  <CHROM.1>
148.88731930,-67.81666659,-64.18855669,-97.47182380,125.05770205,170.13763862
16.24381103,47.93260784,56.33647453,31.30997410,-2.60326537,1.08329480,-0.38056439

>  <Name>
ligand

>  <RI>
0

>  <Rbt.Current_Directory>
/home/itssahil/PROJECTS/Mol_Feturizer/New_Systems/rnas/3GX3

>  <Rbt.Executable>
rbdock ($Id: //depot/dev/client3/rdock/2013.1/src/exe/rbdock.cxx#4 $)

>  <Rbt.Library>
libRbt.so (2013.1, Build901 2013/11/27)

>  <Rbt.Parameter_File>
/export/apps/rDock/src/rDock_2013.1_src/data/scripts/dock_solv.prm

>  <Rbt.Receptor>
prm/pocket_docking_4.prm

>  <SCORE>
-18.0045

>  <SCORE.INTER>
-15.3184

>  <SCORE.INTER.CONST>
1

>  <SCORE.INTER.POLAR>
0

>  <SCORE.INTER.ROT>
7

>  <SCORE.INTER.SOLV>
10.9244

>  <SCORE.INTER.VDW>
-22.1204

>  <SCORE.INTER.norm>
-0.58917

>  <SCORE.INTRA>
-2.68607

>  <SCORE.INTRA.DIHEDRAL>
1.64521

>  <SCORE.INTRA.DIHEDRAL.0>
5.78979

>  <SCORE.INTRA.POLAR>
0

>  <SCORE.INTRA.POLAR.0>
0

>  <SCORE.INTRA.REPUL>
0

>  <SCORE.INTRA.REPUL.0>
0

>  <SCORE.INTRA.SOLV>
0.602308

>  <SCORE.INTRA.SOLV.lig_0>
-49.9151

>  <SCORE.INTRA.VDW>
-3.80983

>  <SCORE.INTRA.VDW.0>
-0.211125

>  <SCORE.INTRA.norm>
-0.103311

>  <SCORE.RESTR>
0

>  <SCORE.RESTR.CAVITY>
0

>  <SCORE.RESTR.norm>
0

>  <SCORE.SYSTEM>
0

>  <SCORE.SYSTEM.CONST>
0

>  <SCORE.SYSTEM.DIHEDRAL>
0

>  <SCORE.SYSTEM.SOLV>
0

>  <SCORE.SYSTEM.norm>
0

>  <SCORE.heavy>
26

>  <SCORE.norm>
-0.692481

>  <RMSD>
5.890

$$$$
ligand
 OpenBabel11021811483D
libRbt.so/2013.1/901 2013/11/27
 26 28  0  0  0  0  0  0  0  0999 V2000
   46.1590   58.9769   29.6766 N   0  0  0  0  0  0  0  0  0  0  0  0
   45.6074   59.6895   30.8323 C   0  0  2  0  0  0  0  0  0  0  0  0
   46.4338   60.8981   31.2773 C   0  0  0  0  0  0  0  0  0  0  0  0
   45.8347   61.8904   31.6928 O   0  0  0  0  0  0  0  0  0  0  0  0
   45.3804   58.8234   32.0781 C   0  0  0  0  0  0  0  0  0  0  0  0
   44.3545   57.7035   32.0783 C   0  0  0  0  0  0  0  0  0  0  0  0
   44.5101   56.8647   33.6720 S   0  0  0  0  0  0  0  0  0  0  0  0
   44.9994   55.3958   32.7369 C   0  0  0  0  0  0  0  0  0  0  0  0
   46.2312   54.6724   33.2918 C   0  0  1  0  0  0  0  0  0  0  0  0
   46.4215   53.3692   32.7292 O   0  0  0  0  0  0  0  0  0  0  0  0
   47.4977   55.4693   33.0148 C   0  0  1  0  0  0  0  0  0  0  0  0
   47.8092   56.3298   34.0881 O   0  0  0  0  0  0  0  0  0  0  0  0
   48.5658   54.4132   32.7620 C   0  0  1  0  0  0  0  0  0  0  0  0
   49.2463   54.0647   33.9508 O   0  0  0  0  0  0  0  0  0  0  0  0
   47.7678   53.2043   32.3147 C   0  0  2  0  0  0  0  0  0  0  0  0
   47.6707   60.9141   31.2508 O   0  0  0  0  0  0  0  0  0  0  0  0
   50.8865   53.1066   28.0860 N   0  0  0  0  0  0  0  0  0  0  0  0
   51.2255   53.3908   29.3848 C   0  0  0  0  0  0  0  0  0  0  0  0
   50.2560   53.3848   30.3656 N   0  0  0  0  0  0  0  0  0  0  0  0
   48.9803   53.0690   30.0802 C   0  0  0  0  0  0  0  0  0  0  0  0
   48.6179   52.7774   28.7762 C   0  0  0  0  0  0  0  0  0  0  0  0
   49.5817   52.8031   27.7878 C   0  0  0  0  0  0  0  0  0  0  0  0
   49.2613   52.5166   26.5409 N   0  0  0  0  0  0  0  0  0  0  0  0
   47.2955   52.4987   28.7550 N   0  0  0  0  0  0  0  0  0  0  0  0
   46.8135   52.6338   30.0163 C   0  0  0  0  0  0  0  0  0  0  0  0
   47.8507   52.9863   30.8518 N   0  0  0  0  0  0  0  0  0  0  0  0
  2  1  1  6  0  0  0
  2  3  1  0  0  0  0
  2  5  1  0  0  0  0
  3  4  1  0  0  0  0
  3 16  1  0  0  0  0
  5  6  1  0  0  0  0
  6  7  1  0  0  0  0
  7  8  1  0  0  0  0
  9  8  1  6  0  0  0
  9 10  1  0  0  0  0
  9 11  1  0  0  0  0
 10 15  1  0  0  0  0
 11 12  1  1  0  0  0
 11 13  1  0  0  0  0
 13 14  1  1  0  0  0
 13 15  1  0  0  0  0
 15 26  1  6  0  0  0
 17 18  2  0  0  0  0
 17 22  1  0  0  0  0
 18 19  1  0  0  0  0
 19 20  2  0  0  0  0
 20 21  1  0  0  0  0
 20 26  1  0  0  0  0
 21 22  2  0  0  0  0
 21 24  1  0  0  0  0
 22 23  1  0  0  0  0
 24 25  2  0  0  0  0
 25 26  1  0  0  0  0
M  END
>  <CHROM.1>
143.64043543,-65.52106079,175.38927599,-116.80985241,133.91124699,166.91081514
165.37139095,47.33210940,55.61066075,31.28015597,-2.53806327,-0.99690506
2.66437591

>  <Name>
ligand

>  <RI>
0

>  <Rbt.Current_Directory>
/home/itssahil/PROJECTS/Mol_Feturizer/New_Systems/rnas/3GX3

>  <Rbt.Executable>
rbdock ($Id: //depot/dev/client3/rdock/2013.1/src/exe/rbdock.cxx#4 $)

>  <Rbt.Library>
libRbt.so (2013.1, Build901 2013/11/27)

>  <Rbt.Parameter_File>
/export/apps/rDock/src/rDock_2013.1_src/data/scripts/dock_solv.prm

>  <Rbt.Receptor>
prm/pocket_docking_8.prm

>  <SCORE>
-15.2002

>  <SCORE.INTER>
-13.5981

>  <SCORE.INTER.CONST>
1

>  <SCORE.INTER.POLAR>
0

>  <SCORE.INTER.ROT>
7

>  <SCORE.INTER.SOLV>
10.7809

>  <SCORE.INTER.VDW>
-20.9257

>  <SCORE.INTER.norm>
-0.523004

>  <SCORE.INTRA>
-1.60209

>  <SCORE.INTRA.DIHEDRAL>
2.25496

>  <SCORE.INTRA.DIHEDRAL.0>
5.78979

>  <SCORE.INTRA.POLAR>
0

>  <SCORE.INTRA.POLAR.0>
0

>  <SCORE.INTRA.REPUL>
0

>  <SCORE.INTRA.REPUL.0>
0

>  <SCORE.INTRA.SOLV>
-0.296734

>  <SCORE.INTRA.SOLV.lig_0>
-49.9151

>  <SCORE.INTRA.VDW>
-2.5812

>  <SCORE.INTRA.VDW.0>
-0.211125

>  <SCORE.INTRA.norm>
-0.0616189

>  <SCORE.RESTR>
0

>  <SCORE.RESTR.CAVITY>
0

>  <SCORE.RESTR.norm>
0

>  <SCORE.SYSTEM>
0

>  <SCORE.SYSTEM.CONST>
0

>  <SCORE.SYSTEM.DIHEDRAL>
0

>  <SCORE.SYSTEM.SOLV>
0

>  <SCORE.SYSTEM.norm>
0

>  <SCORE.heavy>
26

>  <SCORE.norm>
-0.584623

>  <RMSD>
5.898

$$$$
ligand
 OpenBabel11021811483D
libRbt.so/2013.1/901 2013/11/27
 26 28  0  0  0  0  0  0  0  0999 V2000
   48.8033   52.9755   33.3603 N   0  0  0  0  0  0  0  0  0  0  0  0
   48.0837   53.8626   34.2785 C   0  0  2  0  0  0  0  0  0  0  0  0
   46.6144   54.0852   33.9134 C   0  0  0  0  0  0  0  0  0  0  0  0
   46.2359   53.7429   32.7929 O   0  0  0  0  0  0  0  0  0  0  0  0
   48.7112   55.2506   34.4615 C   0  0  0  0  0  0  0  0  0  0  0  0
   49.0286   56.1315   33.2657 C   0  0  0  0  0  0  0  0  0  0  0  0
   49.4032   57.7735   33.9225 S   0  0  0  0  0  0  0  0  0  0  0  0
   49.2304   58.3802   32.2274 C   0  0  0  0  0  0  0  0  0  0  0  0
   47.8355   58.9139   31.8842 C   0  0  1  0  0  0  0  0  0  0  0  0
   47.7586   59.4932   30.5767 O   0  0  0  0  0  0  0  0  0  0  0  0
   46.8001   57.8000   31.9423 C   0  0  1  0  0  0  0  0  0  0  0  0
   46.2006   57.7208   33.2165 O   0  0  0  0  0  0  0  0  0  0  0  0
   45.8122   58.1389   30.8335 C   0  0  1  0  0  0  0  0  0  0  0  0
   44.7425   58.9293   31.3117 O   0  0  0  0  0  0  0  0  0  0  0  0
   46.6282   58.9919   29.8823 C   0  0  2  0  0  0  0  0  0  0  0  0
   45.7935   54.5779   34.6973 O   0  0  0  0  0  0  0  0  0  0  0  0
   49.9260   55.4441   27.8437 N   0  0  0  0  0  0  0  0  0  0  0  0
   49.8766   55.9164   29.1310 C   0  0  0  0  0  0  0  0  0  0  0  0
   48.9429   56.8702   29.4782 N   0  0  0  0  0  0  0  0  0  0  0  0
   48.0486   57.3257   28.5831 C   0  0  0  0  0  0  0  0  0  0  0  0
   48.0805   56.8606   27.2795 C   0  0  0  0  0  0  0  0  0  0  0  0
   49.0275   55.9213   26.9227 C   0  0  0  0  0  0  0  0  0  0  0  0
   49.0682   55.4553   25.6895 N   0  0  0  0  0  0  0  0  0  0  0  0
   47.0914   57.4687   26.5872 N   0  0  0  0  0  0  0  0  0  0  0  0
   46.4538   58.3261   27.4236 C   0  0  0  0  0  0  0  0  0  0  0  0
   47.0371   58.2464   28.6692 N   0  0  0  0  0  0  0  0  0  0  0  0
  2  1  1  6  0  0  0
  2  3  1  0  0  0  0
  2  5  1  0  0  0  0
  3  4  1  0  0  0  0
  3 16  1  0  0  0  0
  5  6  1  0  0  0  0
  6  7  1  0  0  0  0
  7  8  1  0  0  0  0
  9  8  1  6  0  0  0
  9 10  1  0  0  0  0
  9 11  1  0  0  0  0
 10 15  1  0  0  0  0
 11 12  1  1  0  0  0
 11 13  1  0  0  0  0
 13 14  1  1  0  0  0
 13 15  1  0  0  0  0
 15 26  1  6  0  0  0
 17 18  2  0  0  0  0
 17 22  1  0  0  0  0
 18 19  1  0  0  0  0
 19 20  2  0  0  0  0
 20 21  1  0  0  0  0
 20 26  1  0  0  0  0
 21 22  2  0  0  0  0
 21 24  1  0  0  0  0
 22 23  1  0  0  0  0
 24 25  2  0  0  0  0
 25 26  1  0  0  0  0
M  END
>  <CHROM.1>
-13.79935023,53.45943147,167.99961179,-165.85474852,94.37532040,174.88577398
44.82886392,47.77816757,56.77007577,31.02158731,-1.70037593,1.11579973,-1.19091254

>  <Name>
ligand

>  <RI>
0

>  <Rbt.Current_Directory>
/home/itssahil/PROJECTS/Mol_Feturizer/New_Systems/rnas/3GX3

>  <Rbt.Executable>
rbdock ($Id: //depot/dev/client3/rdock/2013.1/src/exe/rbdock.cxx#4 $)

>  <Rbt.Library>
libRbt.so (2013.1, Build901 2013/11/27)

>  <Rbt.Parameter_File>
/export/apps/rDock/src/rDock_2013.1_src/data/scripts/dock_solv.prm

>  <Rbt.Receptor>
prm/pocket_docking_3.prm

>  <SCORE>
-16.6608

>  <SCORE.INTER>
-12.9901

>  <SCORE.INTER.CONST>
1

>  <SCORE.INTER.POLAR>
0

>  <SCORE.INTER.ROT>
7

>  <SCORE.INTER.SOLV>
16.3273

>  <SCORE.INTER.VDW>
-22.3692

>  <SCORE.INTER.norm>
-0.499619

>  <SCORE.INTRA>
-3.6791

>  <SCORE.INTRA.DIHEDRAL>
-0.397367

>  <SCORE.INTRA.DIHEDRAL.0>
5.78979

>  <SCORE.INTRA.POLAR>
0

>  <SCORE.INTRA.POLAR.0>
0

>  <SCORE.INTRA.REPUL>
0

>  <SCORE.INTRA.REPUL.0>
0

>  <SCORE.INTRA.SOLV>
0.142782

>  <SCORE.INTRA.SOLV.lig_0>
-49.9151

>  <SCORE.INTRA.VDW>
-3.5518

>  <SCORE.INTRA.VDW.0>
-0.211125

>  <SCORE.INTRA.norm>
-0.141504

>  <SCORE.RESTR>
0.00835761

>  <SCORE.RESTR.CAVITY>
0.00835761

>  <SCORE.RESTR.norm>
0.000321446

>  <SCORE.SYSTEM>
0

>  <SCORE.SYSTEM.CONST>
0

>  <SCORE.SYSTEM.DIHEDRAL>
0

>  <SCORE.SYSTEM.SOLV>
0

>  <SCORE.SYSTEM.norm>
0

>  <SCORE.heavy>
26

>  <SCORE.norm>
-0.640802

>  <RMSD>
5.911

$$$$
ligand
 OpenBabel11021811483D
libRbt.so/2013.1/901 2013/11/27
 26 28  0  0  0  0  0  0  0  0999 V2000
   44.5117   55.4070   34.3890 N   0  0  0  0  0  0  0  0  0  0  0  0
   44.2259   54.4017   33.3616 C   0  0  2  0  0  0  0  0  0  0  0  0
   45.4630   53.6655   32.8428 C   0  0  0  0  0  0  0  0  0  0  0  0
   46.2699   53.2333   33.6663 O   0  0  0  0  0  0  0  0  0  0  0  0
   43.4744   54.9289   32.1324 C   0  0  0  0  0  0  0  0  0  0  0  0
   43.7208   56.3315   31.6046 C   0  0  0  0  0  0  0  0  0  0  0  0
   45.4796   56.4256   31.1978 S   0  0  0  0  0  0  0  0  0  0  0  0
   45.5912   57.7432   32.4318 C   0  0  0  0  0  0  0  0  0  0  0  0
   47.0097   58.0124   32.9453 C   0  0  1  0  0  0  0  0  0  0  0  0
   47.6402   56.8508   33.4969 O   0  0  0  0  0  0  0  0  0  0  0  0
   47.9049   58.5179   31.8233 C   0  0  1  0  0  0  0  0  0  0  0  0
   47.9103   59.9272   31.7647 O   0  0  0  0  0  0  0  0  0  0  0  0
   49.2737   57.9242   32.1300 C   0  0  1  0  0  0  0  0  0  0  0  0
   50.0557   58.7971   32.9200 O   0  0  0  0  0  0  0  0  0  0  0  0
   48.9493   56.7052   32.9708 C   0  0  2  0  0  0  0  0  0  0  0  0
   45.6772   53.4751   31.6391 O   0  0  0  0  0  0  0  0  0  0  0  0
   50.4859   54.4689   28.4702 N   0  0  0  0  0  0  0  0  0  0  0  0
   50.5280   55.7958   28.8168 C   0  0  0  0  0  0  0  0  0  0  0  0
   50.0577   56.1999   30.0487 N   0  0  0  0  0  0  0  0  0  0  0  0
   49.5872   55.3092   30.9396 C   0  0  0  0  0  0  0  0  0  0  0  0
   49.5378   53.9655   30.6100 C   0  0  0  0  0  0  0  0  0  0  0  0
   49.9880   53.5595   29.3694 C   0  0  0  0  0  0  0  0  0  0  0  0
   49.9617   52.2829   29.0390 N   0  0  0  0  0  0  0  0  0  0  0  0
   49.0284   53.2882   31.6630 N   0  0  0  0  0  0  0  0  0  0  0  0
   48.7327   54.1829   32.6395 C   0  0  0  0  0  0  0  0  0  0  0  0
   49.0769   55.4439   32.2044 N   0  0  0  0  0  0  0  0  0  0  0  0
  2  1  1  1  0  0  0
  2  3  1  0  0  0  0
  2  5  1  0  0  0  0
  3  4  1  0  0  0  0
  3 16  1  0  0  0  0
  5  6  1  0  0  0  0
  6  7  1  0  0  0  0
  7  8  1  0  0  0  0
  9  8  1  6  0  0  0
  9 10  1  0  0  0  0
  9 11  1  0  0  0  0
 10 15  1  0  0  0  0
 11 12  1  1  0  0  0
 11 13  1  0  0  0  0
 13 14  1  1  0  0  0
 13 15  1  0  0  0  0
 15 26  1  6  0  0  0
 17 18  2  0  0  0  0
 17 22  1  0  0  0  0
 18 19  1  0  0  0  0
 19 20  2  0  0  0  0
 20 21  1  0  0  0  0
 20 26  1  0  0  0  0
 21 22  2  0  0  0  0
 21 24  1  0  0  0  0
 22 23  1  0  0  0  0
 24 25  2  0  0  0  0
 25 26  1  0  0  0  0
M  END
>  <CHROM.1>
46.90530095,34.61211611,58.82287679,-118.82103029,160.59442521,-56.32462018
130.01829231,47.54783594,55.72694714,31.75064123,2.88639727,0.42659212,0.27278915

>  <Name>
ligand

>  <RI>
0

>  <Rbt.Current_Directory>
/home/itssahil/PROJECTS/Mol_Feturizer/New_Systems/rnas/3GX3

>  <Rbt.Executable>
rbdock ($Id: //depot/dev/client3/rdock/2013.1/src/exe/rbdock.cxx#4 $)

>  <Rbt.Library>
libRbt.so (2013.1, Build901 2013/11/27)

>  <Rbt.Parameter_File>
/export/apps/rDock/src/rDock_2013.1_src/data/scripts/dock_solv.prm

>  <Rbt.Receptor>
prm/pocket_docking_4.prm

>  <SCORE>
-9.26549

>  <SCORE.INTER>
-8.61869

>  <SCORE.INTER.CONST>
1

>  <SCORE.INTER.POLAR>
0

>  <SCORE.INTER.ROT>
7

>  <SCORE.INTER.SOLV>
15.6268

>  <SCORE.INTER.VDW>
-19.2214

>  <SCORE.INTER.norm>
-0.331488

>  <SCORE.INTRA>
-0.646803

>  <SCORE.INTRA.DIHEDRAL>
2.17514

>  <SCORE.INTRA.DIHEDRAL.0>
5.78979

>  <SCORE.INTRA.POLAR>
0

>  <SCORE.INTRA.POLAR.0>
0

>  <SCORE.INTRA.REPUL>
0

>  <SCORE.INTRA.REPUL.0>
0

>  <SCORE.INTRA.SOLV>
2.87252

>  <SCORE.INTRA.SOLV.lig_0>
-49.9151

>  <SCORE.INTRA.VDW>
-3.17063

>  <SCORE.INTRA.VDW.0>
-0.211125

>  <SCORE.INTRA.norm>
-0.024877

>  <SCORE.RESTR>
0

>  <SCORE.RESTR.CAVITY>
0

>  <SCORE.RESTR.norm>
0

>  <SCORE.SYSTEM>
0

>  <SCORE.SYSTEM.CONST>
0

>  <SCORE.SYSTEM.DIHEDRAL>
0

>  <SCORE.SYSTEM.SOLV>
0

>  <SCORE.SYSTEM.norm>
0

>  <SCORE.heavy>
26

>  <SCORE.norm>
-0.356365

>  <RMSD>
5.925

$$$$
ligand
 OpenBabel11021811483D
libRbt.so/2013.1/901 2013/11/27
 26 28  0  0  0  0  0  0  0  0999 V2000
   48.2432   54.2106   34.4425 N   0  0  0  0  0  0  0  0  0  0  0  0
   47.4190   55.2874   33.8866 C   0  0  2  0  0  0  0  0  0  0  0  0
   46.3439   54.8125   32.9066 C   0  0  0  0  0  0  0  0  0  0  0  0
   46.4859   53.7096   32.3780 O   0  0  0  0  0  0  0  0  0  0  0  0
   48.2017   56.4027   33.1814 C   0  0  0  0  0  0  0  0  0  0  0  0
   49.1001   57.3451   33.9632 C   0  0  0  0  0  0  0  0  0  0  0  0
   49.7945   58.5058   32.7639 S   0  0  0  0  0  0  0  0  0  0  0  0
   48.3231   59.5195   33.0446 C   0  0  0  0  0  0  0  0  0  0  0  0
   47.4420   59.7146   31.8061 C   0  0  1  0  0  0  0  0  0  0  0  0
   48.1690   59.6216   30.5758 O   0  0  0  0  0  0  0  0  0  0  0  0
   46.3396   58.6667   31.7553 C   0  0  1  0  0  0  0  0  0  0  0  0
   45.1615   59.1287   32.3782 O   0  0  0  0  0  0  0  0  0  0  0  0
   46.1594   58.3737   30.2715 C   0  0  1  0  0  0  0  0  0  0  0  0
   45.1693   59.2000   29.6932 O   0  0  0  0  0  0  0  0  0  0  0  0
   47.4955   58.7628   29.6701 C   0  0  2  0  0  0  0  0  0  0  0  0
   45.3376   55.4799   32.6365 O   0  0  0  0  0  0  0  0  0  0  0  0
   49.0293   55.4204   25.9160 N   0  0  0  0  0  0  0  0  0  0  0  0
   48.1534   56.4713   25.8112 C   0  0  0  0  0  0  0  0  0  0  0  0
   47.8571   57.2328   26.9221 N   0  0  0  0  0  0  0  0  0  0  0  0
   48.4403   56.9876   28.1088 C   0  0  0  0  0  0  0  0  0  0  0  0
   49.3283   55.9330   28.2352 C   0  0  0  0  0  0  0  0  0  0  0  0
   49.6114   55.1551   27.1302 C   0  0  0  0  0  0  0  0  0  0  0  0
   50.4637   54.1530   27.2248 N   0  0  0  0  0  0  0  0  0  0  0  0
   49.7679   55.8985   29.5130 N   0  0  0  0  0  0  0  0  0  0  0  0
   49.1544   56.8955   30.1993 C   0  0  0  0  0  0  0  0  0  0  0  0
   48.3272   57.5827   29.3382 N   0  0  0  0  0  0  0  0  0  0  0  0
  2  1  1  6  0  0  0
  2  3  1  0  0  0  0
  2  5  1  0  0  0  0
  3  4  1  0  0  0  0
  3 16  1  0  0  0  0
  5  6  1  0  0  0  0
  6  7  1  0  0  0  0
  7  8  1  0  0  0  0
  9  8  1  1  0  0  0
  9 10  1  0  0  0  0
  9 11  1  0  0  0  0
 10 15  1  0  0  0  0
 11 12  1  6  0  0  0
 11 13  1  0  0  0  0
 13 14  1  6  0  0  0
 13 15  1  0  0  0  0
 15 26  1  1  0  0  0
 17 18  2  0  0  0  0
 17 22  1  0  0  0  0
 18 19  1  0  0  0  0
 19 20  2  0  0  0  0
 20 21  1  0  0  0  0
 20 26  1  0  0  0  0
 21 22  2  0  0  0  0
 21 24  1  0  0  0  0
 22 23  1  0  0  0  0
 24 25  2  0  0  0  0
 25 26  1  0  0  0  0
M  END
>  <CHROM.1>
-20.41496448,-68.09895098,-178.98026497,87.74064714,-117.52306926,-26.96751237
-140.96233241,47.93236064,57.04212453,30.70837694,-2.39989921,1.22854375
-0.96618212

>  <Name>
ligand

>  <RI>
0

>  <Rbt.Current_Directory>
/home/itssahil/PROJECTS/Mol_Feturizer/New_Systems/rnas/3GX3

>  <Rbt.Executable>
rbdock ($Id: //depot/dev/client3/rdock/2013.1/src/exe/rbdock.cxx#4 $)

>  <Rbt.Library>
libRbt.so (2013.1, Build901 2013/11/27)

>  <Rbt.Parameter_File>
/export/apps/rDock/src/rDock_2013.1_src/data/scripts/dock_solv.prm

>  <Rbt.Receptor>
prm/pocket_docking_3.prm

>  <SCORE>
-15.3354

>  <SCORE.INTER>
-13.7546

>  <SCORE.INTER.CONST>
1

>  <SCORE.INTER.POLAR>
0

>  <SCORE.INTER.ROT>
7

>  <SCORE.INTER.SOLV>
10.7398

>  <SCORE.INTER.VDW>
-21.0163

>  <SCORE.INTER.norm>
-0.529023

>  <SCORE.INTRA>
-1.76564

>  <SCORE.INTRA.DIHEDRAL>
3.87523

>  <SCORE.INTRA.DIHEDRAL.0>
5.78979

>  <SCORE.INTRA.POLAR>
0

>  <SCORE.INTRA.POLAR.0>
0

>  <SCORE.INTRA.REPUL>
0

>  <SCORE.INTRA.REPUL.0>
0

>  <SCORE.INTRA.SOLV>
-0.090063

>  <SCORE.INTRA.SOLV.lig_0>
-49.9151

>  <SCORE.INTRA.VDW>
-3.65822

>  <SCORE.INTRA.VDW.0>
-0.211125

>  <SCORE.INTRA.norm>
-0.0679091

>  <SCORE.RESTR>
0.184834

>  <SCORE.RESTR.CAVITY>
0.184834

>  <SCORE.RESTR.norm>
0.00710898

>  <SCORE.SYSTEM>
0

>  <SCORE.SYSTEM.CONST>
0

>  <SCORE.SYSTEM.DIHEDRAL>
0

>  <SCORE.SYSTEM.SOLV>
0

>  <SCORE.SYSTEM.norm>
0

>  <SCORE.heavy>
26

>  <SCORE.norm>
-0.589823

>  <RMSD>
5.928

$$$$
ligand
 OpenBabel11021811483D
libRbt.so/2013.1/901 2013/11/27
 26 28  0  0  0  0  0  0  0  0999 V2000
   46.5374   59.4561   31.8981 N   0  0  0  0  0  0  0  0  0  0  0  0
   47.7411   59.4607   31.0622 C   0  0  2  0  0  0  0  0  0  0  0  0
   47.8005   58.3223   30.0413 C   0  0  0  0  0  0  0  0  0  0  0  0
   48.5400   58.4547   29.0657 O   0  0  0  0  0  0  0  0  0  0  0  0
   49.0658   59.4334   31.8356 C   0  0  0  0  0  0  0  0  0  0  0  0
   49.2434   58.5463   33.0555 C   0  0  0  0  0  0  0  0  0  0  0  0
   49.1566   56.8395   32.4663 S   0  0  0  0  0  0  0  0  0  0  0  0
   47.4991   56.7812   33.1879 C   0  0  0  0  0  0  0  0  0  0  0  0
   46.8981   55.3747   33.2825 C   0  0  1  0  0  0  0  0  0  0  0  0
   47.7387   54.4473   33.9784 O   0  0  0  0  0  0  0  0  0  0  0  0
   45.5631   55.4043   34.0126 C   0  0  1  0  0  0  0  0  0  0  0  0
   44.4874   55.5497   33.1120 O   0  0  0  0  0  0  0  0  0  0  0  0
   45.5235   54.0946   34.7892 C   0  0  1  0  0  0  0  0  0  0  0  0
   44.9030   53.0655   34.0452 O   0  0  0  0  0  0  0  0  0  0  0  0
   46.9874   53.7331   34.9465 C   0  0  2  0  0  0  0  0  0  0  0  0
   47.1518   57.2756   30.1622 O   0  0  0  0  0  0  0  0  0  0  0  0
   46.1302   53.1704   40.1007 N   0  0  0  0  0  0  0  0  0  0  0  0
   45.3443   52.7486   39.0581 C   0  0  0  0  0  0  0  0  0  0  0  0
   45.7289   53.0063   37.7590 N   0  0  0  0  0  0  0  0  0  0  0  0
   46.8855   53.6367   37.4885 C   0  0  0  0  0  0  0  0  0  0  0  0
   47.6937   54.0689   38.5262 C   0  0  0  0  0  0  0  0  0  0  0  0
   47.3017   53.8315   39.8286 C   0  0  0  0  0  0  0  0  0  0  0  0
   48.0621   54.2235   40.8324 N   0  0  0  0  0  0  0  0  0  0  0  0
   48.7828   54.6680   37.9952 N   0  0  0  0  0  0  0  0  0  0  0  0
   48.6635   54.6436   36.6437 C   0  0  0  0  0  0  0  0  0  0  0  0
   47.4891   54.0033   36.3139 N   0  0  0  0  0  0  0  0  0  0  0  0
  2  1  1  1  0  0  0
  2  3  1  0  0  0  0
  2  5  1  0  0  0  0
  3  4  1  0  0  0  0
  3 16  1  0  0  0  0
  5  6  1  0  0  0  0
  6  7  1  0  0  0  0
  7  8  1  0  0  0  0
  9  8  1  1  0  0  0
  9 10  1  0  0  0  0
  9 11  1  0  0  0  0
 10 15  1  0  0  0  0
 11 12  1  6  0  0  0
 11 13  1  0  0  0  0
 13 14  1  6  0  0  0
 13 15  1  0  0  0  0
 15 26  1  1  0  0  0
 17 18  2  0  0  0  0
 17 22  1  0  0  0  0
 18 19  1  0  0  0  0
 19 20  2  0  0  0  0
 20 21  1  0  0  0  0
 20 26  1  0  0  0  0
 21 22  2  0  0  0  0
 21 24  1  0  0  0  0
 22 23  1  0  0  0  0
 24 25  2  0  0  0  0
 25 26  1  0  0  0  0
M  END
>  <CHROM.1>
159.26814752,41.50904702,65.87154854,-105.00730820,-167.72826904,54.47111096
170.01690865,47.27299597,55.64706780,34.58822819,-1.40875867,0.65216800,2.02212373

>  <Name>
ligand

>  <RI>
0

>  <Rbt.Current_Directory>
/home/itssahil/PROJECTS/Mol_Feturizer/New_Systems/rnas/3GX3

>  <Rbt.Executable>
rbdock ($Id: //depot/dev/client3/rdock/2013.1/src/exe/rbdock.cxx#4 $)

>  <Rbt.Library>
libRbt.so (2013.1, Build901 2013/11/27)

>  <Rbt.Parameter_File>
/export/apps/rDock/src/rDock_2013.1_src/data/scripts/dock_solv.prm

>  <Rbt.Receptor>
prm/pocket_docking_7.prm

>  <SCORE>
-21.4644

>  <SCORE.INTER>
-19.8336

>  <SCORE.INTER.CONST>
1

>  <SCORE.INTER.POLAR>
0

>  <SCORE.INTER.ROT>
7

>  <SCORE.INTER.SOLV>
12.3034

>  <SCORE.INTER.VDW>
-25.5902

>  <SCORE.INTER.norm>
-0.762831

>  <SCORE.INTRA>
-1.63077

>  <SCORE.INTRA.DIHEDRAL>
0.75753

>  <SCORE.INTRA.DIHEDRAL.0>
5.78979

>  <SCORE.INTRA.POLAR>
0

>  <SCORE.INTRA.POLAR.0>
0

>  <SCORE.INTRA.REPUL>
0

>  <SCORE.INTRA.REPUL.0>
0

>  <SCORE.INTRA.SOLV>
1.7373

>  <SCORE.INTRA.SOLV.lig_0>
-49.9151

>  <SCORE.INTRA.VDW>
-2.87818

>  <SCORE.INTRA.VDW.0>
-0.211125

>  <SCORE.INTRA.norm>
-0.0627218

>  <SCORE.RESTR>
0

>  <SCORE.RESTR.CAVITY>
0

>  <SCORE.RESTR.norm>
0

>  <SCORE.SYSTEM>
0

>  <SCORE.SYSTEM.CONST>
0

>  <SCORE.SYSTEM.DIHEDRAL>
0

>  <SCORE.SYSTEM.SOLV>
0

>  <SCORE.SYSTEM.norm>
0

>  <SCORE.heavy>
26

>  <SCORE.norm>
-0.825553

>  <RMSD>
5.933

$$$$
ligand
 OpenBabel11021811483D
libRbt.so/2013.1/901 2013/11/27
 26 28  0  0  0  0  0  0  0  0999 V2000
   48.2458   58.7035   29.6068 N   0  0  0  0  0  0  0  0  0  0  0  0
   48.1539   58.8007   31.0662 C   0  0  2  0  0  0  0  0  0  0  0  0
   47.4097   60.0406   31.5669 C   0  0  0  0  0  0  0  0  0  0  0  0
   46.8029   60.7259   30.7434 O   0  0  0  0  0  0  0  0  0  0  0  0
   49.4990   58.7621   31.8030 C   0  0  0  0  0  0  0  0  0  0  0  0
   49.5929   58.2764   33.2389 C   0  0  0  0  0  0  0  0  0  0  0  0
   49.3480   56.4860   33.1926 S   0  0  0  0  0  0  0  0  0  0  0  0
   47.5835   56.8235   33.4024 C   0  0  0  0  0  0  0  0  0  0  0  0
   46.6608   55.7058   32.9047 C   0  0  1  0  0  0  0  0  0  0  0  0
   47.0100   54.4151   33.4177 O   0  0  0  0  0  0  0  0  0  0  0  0
   45.2185   55.9736   33.3098 C   0  0  1  0  0  0  0  0  0  0  0  0
   44.5235   56.6763   32.3034 O   0  0  0  0  0  0  0  0  0  0  0  0
   44.6378   54.5935   33.5892 C   0  0  1  0  0  0  0  0  0  0  0  0
   44.0346   54.0386   32.4377 O   0  0  0  0  0  0  0  0  0  0  0  0
   45.8583   53.7575   33.9203 C   0  0  2  0  0  0  0  0  0  0  0  0
   47.3807   60.3724   32.7585 O   0  0  0  0  0  0  0  0  0  0  0  0
   48.7137   54.5476   38.2608 N   0  0  0  0  0  0  0  0  0  0  0  0
   48.9672   54.9869   36.9860 C   0  0  0  0  0  0  0  0  0  0  0  0
   48.1032   54.6608   35.9617 N   0  0  0  0  0  0  0  0  0  0  0  0
   46.9887   53.9448   36.1938 C   0  0  0  0  0  0  0  0  0  0  0  0
   46.7138   53.4935   37.4734 C   0  0  0  0  0  0  0  0  0  0  0  0
   47.5874   53.8000   38.4977 C   0  0  0  0  0  0  0  0  0  0  0  0
   47.3389   53.3909   39.7267 N   0  0  0  0  0  0  0  0  0  0  0  0
   45.5511   52.8047   37.4403 N   0  0  0  0  0  0  0  0  0  0  0  0
   45.1021   52.7924   36.1598 C   0  0  0  0  0  0  0  0  0  0  0  0
   45.9852   53.4995   35.3735 N   0  0  0  0  0  0  0  0  0  0  0  0
  2  1  1  6  0  0  0
  2  3  1  0  0  0  0
  2  5  1  0  0  0  0
  3  4  1  0  0  0  0
  3 16  1  0  0  0  0
  5  6  1  0  0  0  0
  6  7  1  0  0  0  0
  7  8  1  0  0  0  0
  9  8  1  1  0  0  0
  9 10  1  0  0  0  0
  9 11  1  0  0  0  0
 10 15  1  0  0  0  0
 11 12  1  6  0  0  0
 11 13  1  0  0  0  0
 13 14  1  6  0  0  0
 13 15  1  0  0  0  0
 15 26  1  1  0  0  0
 17 18  2  0  0  0  0
 17 22  1  0  0  0  0
 18 19  1  0  0  0  0
 19 20  2  0  0  0  0
 20 21  1  0  0  0  0
 20 26  1  0  0  0  0
 21 22  2  0  0  0  0
 21 24  1  0  0  0  0
 22 23  1  0  0  0  0
 24 25  2  0  0  0  0
 25 26  1  0  0  0  0
M  END
>  <CHROM.1>
10.11800979,-154.12986868,72.06173945,-90.32860340,156.76525466,50.91318594
6.81880611,47.13077517,55.95018037,34.13565609,1.41623357,-0.57245415,-0.89287700

>  <Name>
ligand

>  <RI>
0

>  <Rbt.Current_Directory>
/home/itssahil/PROJECTS/Mol_Feturizer/New_Systems/rnas/3GX3

>  <Rbt.Executable>
rbdock ($Id: //depot/dev/client3/rdock/2013.1/src/exe/rbdock.cxx#4 $)

>  <Rbt.Library>
libRbt.so (2013.1, Build901 2013/11/27)

>  <Rbt.Parameter_File>
/export/apps/rDock/src/rDock_2013.1_src/data/scripts/dock_solv.prm

>  <Rbt.Receptor>
prm/pocket_docking_7.prm

>  <SCORE>
-23.0283

>  <SCORE.INTER>
-21.3522

>  <SCORE.INTER.CONST>
1

>  <SCORE.INTER.POLAR>
0

>  <SCORE.INTER.ROT>
7

>  <SCORE.INTER.SOLV>
14.4356

>  <SCORE.INTER.VDW>
-27.3133

>  <SCORE.INTER.norm>
-0.821237

>  <SCORE.INTRA>
-1.6761

>  <SCORE.INTRA.DIHEDRAL>
1.93114

>  <SCORE.INTRA.DIHEDRAL.0>
5.78979

>  <SCORE.INTRA.POLAR>
0

>  <SCORE.INTRA.POLAR.0>
0

>  <SCORE.INTRA.REPUL>
0

>  <SCORE.INTRA.REPUL.0>
0

>  <SCORE.INTRA.SOLV>
-0.313309

>  <SCORE.INTRA.SOLV.lig_0>
-49.9151

>  <SCORE.INTRA.VDW>
-2.48501

>  <SCORE.INTRA.VDW.0>
-0.211125

>  <SCORE.INTRA.norm>
-0.0644653

>  <SCORE.RESTR>
0

>  <SCORE.RESTR.CAVITY>
0

>  <SCORE.RESTR.norm>
0

>  <SCORE.SYSTEM>
0

>  <SCORE.SYSTEM.CONST>
0

>  <SCORE.SYSTEM.DIHEDRAL>
0

>  <SCORE.SYSTEM.SOLV>
0

>  <SCORE.SYSTEM.norm>
0

>  <SCORE.heavy>
26

>  <SCORE.norm>
-0.885702

>  <RMSD>
5.944

$$$$
ligand
 OpenBabel11021811483D
libRbt.so/2013.1/901 2013/11/27
 26 28  0  0  0  0  0  0  0  0999 V2000
   45.9297   52.7169   36.3942 N   0  0  0  0  0  0  0  0  0  0  0  0
   46.4021   53.6731   35.3890 C   0  0  2  0  0  0  0  0  0  0  0  0
   45.3244   54.1321   34.4042 C   0  0  0  0  0  0  0  0  0  0  0  0
   44.9029   55.2850   34.5001 O   0  0  0  0  0  0  0  0  0  0  0  0
   47.5948   53.1944   34.5513 C   0  0  0  0  0  0  0  0  0  0  0  0
   48.3525   54.1512   33.6474 C   0  0  0  0  0  0  0  0  0  0  0  0
   49.0509   55.4272   34.7205 S   0  0  0  0  0  0  0  0  0  0  0  0
   49.5832   56.2651   33.2085 C   0  0  0  0  0  0  0  0  0  0  0  0
   48.7815   57.5255   32.8664 C   0  0  1  0  0  0  0  0  0  0  0  0
   49.3232   58.2560   31.7601 O   0  0  0  0  0  0  0  0  0  0  0  0
   47.3445   57.1732   32.5102 C   0  0  1  0  0  0  0  0  0  0  0  0
   46.5052   57.2298   33.6423 O   0  0  0  0  0  0  0  0  0  0  0  0
   46.9626   58.1754   31.4286 C   0  0  1  0  0  0  0  0  0  0  0  0
   46.3654   59.3329   31.9774 O   0  0  0  0  0  0  0  0  0  0  0  0
   48.2977   58.5807   30.8357 C   0  0  2  0  0  0  0  0  0  0  0  0
   44.8729   53.4024   33.5128 O   0  0  0  0  0  0  0  0  0  0  0  0
   50.2967   54.4322   28.3035 N   0  0  0  0  0  0  0  0  0  0  0  0
   50.2738   54.6725   29.6541 C   0  0  0  0  0  0  0  0  0  0  0  0
   49.7160   55.8381   30.1359 N   0  0  0  0  0  0  0  0  0  0  0  0
   49.1571   56.7364   29.3056 C   0  0  0  0  0  0  0  0  0  0  0  0
   49.1683   56.5119   27.9394 C   0  0  0  0  0  0  0  0  0  0  0  0
   49.7447   55.3560   27.4517 C   0  0  0  0  0  0  0  0  0  0  0  0
   49.7556   55.1159   26.1549 N   0  0  0  0  0  0  0  0  0  0  0  0
   48.5538   57.5520   27.3331 N   0  0  0  0  0  0  0  0  0  0  0  0
   48.1785   58.4387   28.2893 C   0  0  0  0  0  0  0  0  0  0  0  0
   48.5455   57.9436   29.5215 N   0  0  0  0  0  0  0  0  0  0  0  0
  2  1  1  6  0  0  0
  2  3  1  0  0  0  0
  2  5  1  0  0  0  0
  3  4  1  0  0  0  0
  3 16  1  0  0  0  0
  5  6  1  0  0  0  0
  6  7  1  0  0  0  0
  7  8  1  0  0  0  0
  9  8  1  6  0  0  0
  9 10  1  0  0  0  0
  9 11  1  0  0  0  0
 10 15  1  0  0  0  0
 11 12  1  1  0  0  0
 11 13  1  0  0  0  0
 13 14  1  1  0  0  0
 13 15  1  0  0  0  0
 15 26  1  6  0  0  0
 17 18  2  0  0  0  0
 17 22  1  0  0  0  0
 18 19  1  0  0  0  0
 19 20  2  0  0  0  0
 20 21  1  0  0  0  0
 20 26  1  0  0  0  0
 21 22  2  0  0  0  0
 21 24  1  0  0  0  0
 22 23  1  0  0  0  0
 24 25  2  0  0  0  0
 25 26  1  0  0  0  0
M  END
>  <CHROM.1>
108.38999714,-169.02698863,61.57800918,-173.94726764,107.20956652,172.90548475
32.37841391,48.03005180,56.01987968,31.76252510,-2.44590554,1.07588125,-0.42271943

>  <Name>
ligand

>  <RI>
0

>  <Rbt.Current_Directory>
/home/itssahil/PROJECTS/Mol_Feturizer/New_Systems/rnas/3GX3

>  <Rbt.Executable>
rbdock ($Id: //depot/dev/client3/rdock/2013.1/src/exe/rbdock.cxx#4 $)

>  <Rbt.Library>
libRbt.so (2013.1, Build901 2013/11/27)

>  <Rbt.Parameter_File>
/export/apps/rDock/src/rDock_2013.1_src/data/scripts/dock_solv.prm

>  <Rbt.Receptor>
prm/pocket_docking_4.prm

>  <SCORE>
-19.6881

>  <SCORE.INTER>
-15.6396

>  <SCORE.INTER.CONST>
1

>  <SCORE.INTER.POLAR>
0

>  <SCORE.INTER.ROT>
7

>  <SCORE.INTER.SOLV>
12.6177

>  <SCORE.INTER.VDW>
-22.899

>  <SCORE.INTER.norm>
-0.601524

>  <SCORE.INTRA>
-4.04845

>  <SCORE.INTRA.DIHEDRAL>
-0.209304

>  <SCORE.INTRA.DIHEDRAL.0>
5.78979

>  <SCORE.INTRA.POLAR>
0

>  <SCORE.INTRA.POLAR.0>
0

>  <SCORE.INTRA.REPUL>
0

>  <SCORE.INTRA.REPUL.0>
0

>  <SCORE.INTRA.SOLV>
-0.270498

>  <SCORE.INTRA.SOLV.lig_0>
-49.9151

>  <SCORE.INTRA.VDW>
-3.80855

>  <SCORE.INTRA.VDW.0>
-0.211125

>  <SCORE.INTRA.norm>
-0.15571

>  <SCORE.RESTR>
0

>  <SCORE.RESTR.CAVITY>
0

>  <SCORE.RESTR.norm>
0

>  <SCORE.SYSTEM>
0

>  <SCORE.SYSTEM.CONST>
0

>  <SCORE.SYSTEM.DIHEDRAL>
0

>  <SCORE.SYSTEM.SOLV>
0

>  <SCORE.SYSTEM.norm>
0

>  <SCORE.heavy>
26

>  <SCORE.norm>
-0.757234

>  <RMSD>
5.945

$$$$
ligand
 OpenBabel11021811483D
libRbt.so/2013.1/901 2013/11/27
 26 28  0  0  0  0  0  0  0  0999 V2000
   47.9365   57.0162   28.3579 N   0  0  0  0  0  0  0  0  0  0  0  0
   48.3983   56.0020   29.3098 C   0  0  2  0  0  0  0  0  0  0  0  0
   47.3583   54.9278   29.6360 C   0  0  0  0  0  0  0  0  0  0  0  0
   46.1675   55.2355   29.5782 O   0  0  0  0  0  0  0  0  0  0  0  0
   48.9020   56.5542   30.6496 C   0  0  0  0  0  0  0  0  0  0  0  0
   49.5115   55.6377   31.6961 C   0  0  0  0  0  0  0  0  0  0  0  0
   49.4673   56.5430   33.2601 S   0  0  0  0  0  0  0  0  0  0  0  0
   48.8710   55.0108   34.0139 C   0  0  0  0  0  0  0  0  0  0  0  0
   47.4950   54.5539   33.5178 C   0  0  1  0  0  0  0  0  0  0  0  0
   47.0497   53.3378   34.1292 O   0  0  0  0  0  0  0  0  0  0  0  0
   46.4383   55.6115   33.8021 C   0  0  1  0  0  0  0  0  0  0  0  0
   46.2816   56.4891   32.7092 O   0  0  0  0  0  0  0  0  0  0  0  0
   45.1783   54.8166   34.1196 C   0  0  1  0  0  0  0  0  0  0  0  0
   44.3991   54.5900   32.9625 O   0  0  0  0  0  0  0  0  0  0  0  0
   45.7142   53.4772   34.5857 C   0  0  2  0  0  0  0  0  0  0  0  0
   47.6620   53.7672   29.9389 O   0  0  0  0  0  0  0  0  0  0  0  0
   48.1267   54.2504   39.1900 N   0  0  0  0  0  0  0  0  0  0  0  0
   48.5823   54.5518   37.9314 C   0  0  0  0  0  0  0  0  0  0  0  0
   47.8072   54.2548   36.8301 N   0  0  0  0  0  0  0  0  0  0  0  0
   46.5882   53.7034   36.9661 C   0  0  0  0  0  0  0  0  0  0  0  0
   46.1093   53.3932   38.2275 C   0  0  0  0  0  0  0  0  0  0  0  0
   46.8913   53.6696   39.3314 C   0  0  0  0  0  0  0  0  0  0  0  0
   46.4499   53.3937   40.5432 N   0  0  0  0  0  0  0  0  0  0  0  0
   44.8773   52.8535   38.0933 N   0  0  0  0  0  0  0  0  0  0  0  0
   44.5820   52.7949   36.7701 C   0  0  0  0  0  0  0  0  0  0  0  0
   45.6363   53.3221   36.0569 N   0  0  0  0  0  0  0  0  0  0  0  0
  2  1  1  6  0  0  0
  2  3  1  0  0  0  0
  2  5  1  0  0  0  0
  3  4  1  0  0  0  0
  3 16  1  0  0  0  0
  5  6  1  0  0  0  0
  6  7  1  0  0  0  0
  7  8  1  0  0  0  0
  9  8  1  1  0  0  0
  9 10  1  0  0  0  0
  9 11  1  0  0  0  0
 10 15  1  0  0  0  0
 11 12  1  6  0  0  0
 11 13  1  0  0  0  0
 13 14  1  6  0  0  0
 13 15  1  0  0  0  0
 15 26  1  1  0  0  0
 17 18  2  0  0  0  0
 17 22  1  0  0  0  0
 18 19  1  0  0  0  0
 19 20  2  0  0  0  0
 20 21  1  0  0  0  0
 20 26  1  0  0  0  0
 21 22  2  0  0  0  0
 21 24  1  0  0  0  0
 22 23  1  0  0  0  0
 24 25  2  0  0  0  0
 25 26  1  0  0  0  0
M  END
>  <CHROM.1>
-29.25069348,-175.25199730,-162.04547316,135.42014785,-64.97785444,179.88247173
33.57065605,47.13341552,54.72215450,34.14689277,-1.38649543,0.44042762,1.76155881

>  <Name>
ligand

>  <RI>
0

>  <Rbt.Current_Directory>
/home/itssahil/PROJECTS/Mol_Feturizer/New_Systems/rnas/3GX3

>  <Rbt.Executable>
rbdock ($Id: //depot/dev/client3/rdock/2013.1/src/exe/rbdock.cxx#4 $)

>  <Rbt.Library>
libRbt.so (2013.1, Build901 2013/11/27)

>  <Rbt.Parameter_File>
/export/apps/rDock/src/rDock_2013.1_src/data/scripts/dock_solv.prm

>  <Rbt.Receptor>
prm/pocket_docking_7.prm

>  <SCORE>
-17.3765

>  <SCORE.INTER>
-14.1166

>  <SCORE.INTER.CONST>
1

>  <SCORE.INTER.POLAR>
0

>  <SCORE.INTER.ROT>
7

>  <SCORE.INTER.SOLV>
6.69959

>  <SCORE.INTER.VDW>
-19.9109

>  <SCORE.INTER.norm>
-0.542945

>  <SCORE.INTRA>
-3.25996

>  <SCORE.INTRA.DIHEDRAL>
0.274956

>  <SCORE.INTRA.DIHEDRAL.0>
5.78979

>  <SCORE.INTRA.POLAR>
0

>  <SCORE.INTRA.POLAR.0>
0

>  <SCORE.INTRA.REPUL>
0

>  <SCORE.INTRA.REPUL.0>
0

>  <SCORE.INTRA.SOLV>
-0.335964

>  <SCORE.INTRA.SOLV.lig_0>
-49.9151

>  <SCORE.INTRA.VDW>
-3.22946

>  <SCORE.INTRA.VDW.0>
-0.211125

>  <SCORE.INTRA.norm>
-0.125383

>  <SCORE.RESTR>
0

>  <SCORE.RESTR.CAVITY>
0

>  <SCORE.RESTR.norm>
0

>  <SCORE.SYSTEM>
0

>  <SCORE.SYSTEM.CONST>
0

>  <SCORE.SYSTEM.DIHEDRAL>
0

>  <SCORE.SYSTEM.SOLV>
0

>  <SCORE.SYSTEM.norm>
0

>  <SCORE.heavy>
26

>  <SCORE.norm>
-0.668329

>  <RMSD>
5.946

$$$$
ligand
 OpenBabel11021811483D
libRbt.so/2013.1/901 2013/11/27
 26 28  0  0  0  0  0  0  0  0999 V2000
   48.6916   52.5216   27.8147 N   0  0  0  0  0  0  0  0  0  0  0  0
   47.6940   52.6210   28.8837 C   0  0  2  0  0  0  0  0  0  0  0  0
   46.2749   52.2412   28.4551 C   0  0  0  0  0  0  0  0  0  0  0  0
   46.0696   52.0138   27.2625 O   0  0  0  0  0  0  0  0  0  0  0  0
   47.6018   53.9967   29.5565 C   0  0  0  0  0  0  0  0  0  0  0  0
   48.7708   54.5655   30.3417 C   0  0  0  0  0  0  0  0  0  0  0  0
   48.9932   53.4938   31.7804 S   0  0  0  0  0  0  0  0  0  0  0  0
   48.0751   54.7361   32.7213 C   0  0  0  0  0  0  0  0  0  0  0  0
   46.5524   54.5711   32.6718 C   0  0  1  0  0  0  0  0  0  0  0  0
   46.0853   53.4236   33.3902 O   0  0  0  0  0  0  0  0  0  0  0  0
   45.8563   55.7864   33.2672 C   0  0  1  0  0  0  0  0  0  0  0  0
   45.5508   56.7415   32.2753 O   0  0  0  0  0  0  0  0  0  0  0  0
   44.6217   55.2198   33.9562 C   0  0  1  0  0  0  0  0  0  0  0  0
   43.5016   55.2103   33.0943 O   0  0  0  0  0  0  0  0  0  0  0  0
   45.0029   53.7792   34.2350 C   0  0  2  0  0  0  0  0  0  0  0  0
   45.3353   52.1397   29.2536 O   0  0  0  0  0  0  0  0  0  0  0  0
   48.6128   54.3770   38.0072 N   0  0  0  0  0  0  0  0  0  0  0  0
   48.6941   54.7454   36.6880 C   0  0  0  0  0  0  0  0  0  0  0  0
   47.6410   54.4870   35.8358 N   0  0  0  0  0  0  0  0  0  0  0  0
   46.5118   53.9085   36.2815 C   0  0  0  0  0  0  0  0  0  0  0  0
   46.4091   53.5307   37.6095 C   0  0  0  0  0  0  0  0  0  0  0  0
   47.4695   53.7686   38.4611 C   0  0  0  0  0  0  0  0  0  0  0  0
   47.3886   53.4282   39.7328 N   0  0  0  0  0  0  0  0  0  0  0  0
   45.1911   52.9764   37.8004 N   0  0  0  0  0  0  0  0  0  0  0  0
   44.5350   52.9750   36.6126 C   0  0  0  0  0  0  0  0  0  0  0  0
   45.3436   53.5537   35.6589 N   0  0  0  0  0  0  0  0  0  0  0  0
  2  1  1  6  0  0  0
  2  3  1  0  0  0  0
  2  5  1  0  0  0  0
  3  4  1  0  0  0  0
  3 16  1  0  0  0  0
  5  6  1  0  0  0  0
  6  7  1  0  0  0  0
  7  8  1  0  0  0  0
  9  8  1  1  0  0  0
  9 10  1  0  0  0  0
  9 11  1  0  0  0  0
 10 15  1  0  0  0  0
 11 12  1  6  0  0  0
 11 13  1  0  0  0  0
 13 14  1  6  0  0  0
 13 15  1  0  0  0  0
 15 26  1  1  0  0  0
 17 18  2  0  0  0  0
 17 22  1  0  0  0  0
 18 19  1  0  0  0  0
 19 20  2  0  0  0  0
 20 21  1  0  0  0  0
 20 26  1  0  0  0  0
 21 22  2  0  0  0  0
 21 24  1  0  0  0  0
 22 23  1  0  0  0  0
 24 25  2  0  0  0  0
 25 26  1  0  0  0  0
M  END
>  <CHROM.1>
-6.52463342,-64.11057728,-65.79550519,-99.08768086,86.14367084,69.95574381
45.36555810,46.72072752,53.86408826,33.31821615,-1.51466984,-0.09773214,1.47357710

>  <Name>
ligand

>  <RI>
0

>  <Rbt.Current_Directory>
/home/itssahil/PROJECTS/Mol_Feturizer/New_Systems/rnas/3GX3

>  <Rbt.Executable>
rbdock ($Id: //depot/dev/client3/rdock/2013.1/src/exe/rbdock.cxx#4 $)

>  <Rbt.Library>
libRbt.so (2013.1, Build901 2013/11/27)

>  <Rbt.Parameter_File>
/export/apps/rDock/src/rDock_2013.1_src/data/scripts/dock_solv.prm

>  <Rbt.Receptor>
prm/pocket_docking_8.prm

>  <SCORE>
-16.6193

>  <SCORE.INTER>
-13.6904

>  <SCORE.INTER.CONST>
1

>  <SCORE.INTER.POLAR>
0

>  <SCORE.INTER.ROT>
7

>  <SCORE.INTER.SOLV>
8.74068

>  <SCORE.INTER.VDW>
-20.3071

>  <SCORE.INTER.norm>
-0.526552

>  <SCORE.INTRA>
-2.92896

>  <SCORE.INTRA.DIHEDRAL>
0.264938

>  <SCORE.INTRA.DIHEDRAL.0>
5.78979

>  <SCORE.INTRA.POLAR>
0

>  <SCORE.INTRA.POLAR.0>
0

>  <SCORE.INTRA.REPUL>
0

>  <SCORE.INTRA.REPUL.0>
0

>  <SCORE.INTRA.SOLV>
0.12398

>  <SCORE.INTRA.SOLV.lig_0>
-49.9151

>  <SCORE.INTRA.VDW>
-3.12342

>  <SCORE.INTRA.VDW.0>
-0.211125

>  <SCORE.INTRA.norm>
-0.112652

>  <SCORE.RESTR>
0

>  <SCORE.RESTR.CAVITY>
0

>  <SCORE.RESTR.norm>
0

>  <SCORE.SYSTEM>
0

>  <SCORE.SYSTEM.CONST>
0

>  <SCORE.SYSTEM.DIHEDRAL>
0

>  <SCORE.SYSTEM.SOLV>
0

>  <SCORE.SYSTEM.norm>
0

>  <SCORE.heavy>
26

>  <SCORE.norm>
-0.639205

>  <RMSD>
5.951

$$$$
ligand
 OpenBabel11021811483D
libRbt.so/2013.1/901 2013/11/27
 26 28  0  0  0  0  0  0  0  0999 V2000
   46.7862   52.5524   35.5915 N   0  0  0  0  0  0  0  0  0  0  0  0
   46.7854   53.3512   34.3628 C   0  0  2  0  0  0  0  0  0  0  0  0
   48.1569   53.9092   33.9762 C   0  0  0  0  0  0  0  0  0  0  0  0
   48.5485   53.7396   32.8213 O   0  0  0  0  0  0  0  0  0  0  0  0
   45.8079   54.5337   34.3608 C   0  0  0  0  0  0  0  0  0  0  0  0
   45.6422   55.4120   33.1328 C   0  0  0  0  0  0  0  0  0  0  0  0
   44.6314   56.8214   33.6421 S   0  0  0  0  0  0  0  0  0  0  0  0
   45.4075   57.7377   32.2895 C   0  0  0  0  0  0  0  0  0  0  0  0
   46.8611   58.1454   32.5520 C   0  0  1  0  0  0  0  0  0  0  0  0
   47.7871   57.0635   32.3998 O   0  0  0  0  0  0  0  0  0  0  0  0
   47.2963   59.2456   31.5949 C   0  0  1  0  0  0  0  0  0  0  0  0
   47.0829   60.5245   32.1500 O   0  0  0  0  0  0  0  0  0  0  0  0
   48.7640   58.9496   31.3149 C   0  0  1  0  0  0  0  0  0  0  0  0
   49.6144   59.6291   32.2164 O   0  0  0  0  0  0  0  0  0  0  0  0
   48.8844   57.4647   31.5958 C   0  0  2  0  0  0  0  0  0  0  0  0
   48.8770   54.5320   34.7665 O   0  0  0  0  0  0  0  0  0  0  0  0
   47.7397   57.2440   26.4714 N   0  0  0  0  0  0  0  0  0  0  0  0
   47.4707   58.2553   27.3588 C   0  0  0  0  0  0  0  0  0  0  0  0
   47.8353   58.1238   28.6824 N   0  0  0  0  0  0  0  0  0  0  0  0
   48.4862   57.0310   29.1189 C   0  0  0  0  0  0  0  0  0  0  0  0
   48.7686   56.0000   28.2391 C   0  0  0  0  0  0  0  0  0  0  0  0
   48.3864   56.1188   26.9177 C   0  0  0  0  0  0  0  0  0  0  0  0
   48.6561   55.1543   26.0595 N   0  0  0  0  0  0  0  0  0  0  0  0
   49.4184   55.0283   28.9179 N   0  0  0  0  0  0  0  0  0  0  0  0
   49.5280   55.4169   30.2134 C   0  0  0  0  0  0  0  0  0  0  0  0
   48.9544   56.6617   30.3528 N   0  0  0  0  0  0  0  0  0  0  0  0
  2  1  1  1  0  0  0
  2  3  1  0  0  0  0
  2  5  1  0  0  0  0
  3  4  1  0  0  0  0
  3 16  1  0  0  0  0
  5  6  1  0  0  0  0
  6  7  1  0  0  0  0
  7  8  1  0  0  0  0
  9  8  1  6  0  0  0
  9 10  1  0  0  0  0
  9 11  1  0  0  0  0
 10 15  1  0  0  0  0
 11 12  1  1  0  0  0
 11 13  1  0  0  0  0
 13 14  1  1  0  0  0
 13 15  1  0  0  0  0
 15 26  1  6  0  0  0
 17 18  2  0  0  0  0
 17 22  1  0  0  0  0
 18 19  1  0  0  0  0
 19 20  2  0  0  0  0
 20 21  1  0  0  0  0
 20 26  1  0  0  0  0
 21 22  2  0  0  0  0
 21 24  1  0  0  0  0
 22 23  1  0  0  0  0
 24 25  2  0  0  0  0
 25 26  1  0  0  0  0
M  END
>  <CHROM.1>
130.07424505,-176.89960899,-170.63663034,154.85053510,-73.92152890,76.95768936
98.37629254,47.61926626,56.51782702,31.40460387,-2.31232751,1.17574676,-0.51621486

>  <Name>
ligand

>  <RI>
0

>  <Rbt.Current_Directory>
/home/itssahil/PROJECTS/Mol_Feturizer/New_Systems/rnas/3GX3

>  <Rbt.Executable>
rbdock ($Id: //depot/dev/client3/rdock/2013.1/src/exe/rbdock.cxx#4 $)

>  <Rbt.Library>
libRbt.so (2013.1, Build901 2013/11/27)

>  <Rbt.Parameter_File>
/export/apps/rDock/src/rDock_2013.1_src/data/scripts/dock_solv.prm

>  <Rbt.Receptor>
prm/pocket_docking_3.prm

>  <SCORE>
-17.559

>  <SCORE.INTER>
-14.4566

>  <SCORE.INTER.CONST>
1

>  <SCORE.INTER.POLAR>
0

>  <SCORE.INTER.ROT>
7

>  <SCORE.INTER.SOLV>
14.4223

>  <SCORE.INTER.VDW>
-22.7118

>  <SCORE.INTER.norm>
-0.556021

>  <SCORE.INTRA>
-3.10249

>  <SCORE.INTRA.DIHEDRAL>
-0.41821

>  <SCORE.INTRA.DIHEDRAL.0>
5.78979

>  <SCORE.INTRA.POLAR>
0

>  <SCORE.INTRA.POLAR.0>
0

>  <SCORE.INTRA.REPUL>
0

>  <SCORE.INTRA.REPUL.0>
0

>  <SCORE.INTRA.SOLV>
-0.89984

>  <SCORE.INTRA.SOLV.lig_0>
-49.9151

>  <SCORE.INTRA.VDW>
-2.44347

>  <SCORE.INTRA.VDW.0>
-0.211125

>  <SCORE.INTRA.norm>
-0.119327

>  <SCORE.RESTR>
0

>  <SCORE.RESTR.CAVITY>
0

>  <SCORE.RESTR.norm>
0

>  <SCORE.SYSTEM>
0

>  <SCORE.SYSTEM.CONST>
0

>  <SCORE.SYSTEM.DIHEDRAL>
0

>  <SCORE.SYSTEM.SOLV>
0

>  <SCORE.SYSTEM.norm>
0

>  <SCORE.heavy>
26

>  <SCORE.norm>
-0.675348

>  <RMSD>
5.960

$$$$
ligand
 OpenBabel11021811483D
libRbt.so/2013.1/901 2013/11/27
 26 28  0  0  0  0  0  0  0  0999 V2000
   50.2806   54.3610   27.4558 N   0  0  0  0  0  0  0  0  0  0  0  0
   50.5943   53.1489   28.2175 C   0  0  2  0  0  0  0  0  0  0  0  0
   49.9405   51.8777   27.6712 C   0  0  0  0  0  0  0  0  0  0  0  0
   50.6689   51.0145   27.1807 O   0  0  0  0  0  0  0  0  0  0  0  0
   50.2528   53.2174   29.7116 C   0  0  0  0  0  0  0  0  0  0  0  0
   48.8441   53.5381   30.1800 C   0  0  0  0  0  0  0  0  0  0  0  0
   48.8934   53.5480   31.9870 S   0  0  0  0  0  0  0  0  0  0  0  0
   47.0861   53.4973   31.9360 C   0  0  0  0  0  0  0  0  0  0  0  0
   46.4143   54.8740   31.8961 C   0  0  1  0  0  0  0  0  0  0  0  0
   45.0010   54.8062   31.6744 O   0  0  0  0  0  0  0  0  0  0  0  0
   46.6270   55.6186   33.2062 C   0  0  1  0  0  0  0  0  0  0  0  0
   47.7749   56.4364   33.1526 O   0  0  0  0  0  0  0  0  0  0  0  0
   45.3386   56.4045   33.4123 C   0  0  1  0  0  0  0  0  0  0  0  0
   45.4239   57.7010   32.8561 O   0  0  0  0  0  0  0  0  0  0  0  0
   44.3166   55.6235   32.6099 C   0  0  2  0  0  0  0  0  0  0  0  0
   48.7205   51.6763   27.7150 O   0  0  0  0  0  0  0  0  0  0  0  0
   39.4623   53.7407   33.3233 N   0  0  0  0  0  0  0  0  0  0  0  0
   39.9225   54.5395   32.3071 C   0  0  0  0  0  0  0  0  0  0  0  0
   41.2384   54.9522   32.2989 N   0  0  0  0  0  0  0  0  0  0  0  0
   42.0971   54.5561   33.2550 C   0  0  0  0  0  0  0  0  0  0  0  0
   41.6532   53.7486   34.2882 C   0  0  0  0  0  0  0  0  0  0  0  0
   40.3313   53.3506   34.3114 C   0  0  0  0  0  0  0  0  0  0  0  0
   39.8897   52.5713   35.2795 N   0  0  0  0  0  0  0  0  0  0  0  0
   42.6970   53.4970   35.1094 N   0  0  0  0  0  0  0  0  0  0  0  0
   43.7834   54.1513   34.6266 C   0  0  0  0  0  0  0  0  0  0  0  0
   43.4257   54.8128   33.4722 N   0  0  0  0  0  0  0  0  0  0  0  0
  2  1  1  6  0  0  0
  2  3  1  0  0  0  0
  2  5  1  0  0  0  0
  3  4  1  0  0  0  0
  3 16  1  0  0  0  0
  5  6  1  0  0  0  0
  6  7  1  0  0  0  0
  7  8  1  0  0  0  0
  9  8  1  1  0  0  0
  9 10  1  0  0  0  0
  9 11  1  0  0  0  0
 10 15  1  0  0  0  0
 11 12  1  6  0  0  0
 11 13  1  0  0  0  0
 13 14  1  6  0  0  0
 13 15  1  0  0  0  0
 15 26  1  1  0  0  0
 17 18  2  0  0  0  0
 17 22  1  0  0  0  0
 18 19  1  0  0  0  0
 19 20  2  0  0  0  0
 20 21  1  0  0  0  0
 20 26  1  0  0  0  0
 21 22  2  0  0  0  0
 21 24  1  0  0  0  0
 22 23  1  0  0  0  0
 24 25  2  0  0  0  0
 25 26  1  0  0  0  0
M  END
>  <CHROM.1>
112.35721289,56.33039087,-178.92681126,-165.78317851,-89.36322167,172.04250036
-93.23934592,45.69661948,54.10315760,31.83080557,0.45962722,-0.32391900,-2.40264203

>  <Name>
ligand

>  <RI>
0

>  <Rbt.Current_Directory>
/home/itssahil/PROJECTS/Mol_Feturizer/New_Systems/rnas/3GX3

>  <Rbt.Executable>
rbdock ($Id: //depot/dev/client3/rdock/2013.1/src/exe/rbdock.cxx#4 $)

>  <Rbt.Library>
libRbt.so (2013.1, Build901 2013/11/27)

>  <Rbt.Parameter_File>
/export/apps/rDock/src/rDock_2013.1_src/data/scripts/dock_solv.prm

>  <Rbt.Receptor>
prm/pocket_docking_8.prm

>  <SCORE>
-11.295

>  <SCORE.INTER>
-8.45158

>  <SCORE.INTER.CONST>
1

>  <SCORE.INTER.POLAR>
0

>  <SCORE.INTER.ROT>
7

>  <SCORE.INTER.SOLV>
5.0162

>  <SCORE.INTER.VDW>
-15.5731

>  <SCORE.INTER.norm>
-0.325061

>  <SCORE.INTRA>
-2.85373

>  <SCORE.INTRA.DIHEDRAL>
-1.23632

>  <SCORE.INTRA.DIHEDRAL.0>
5.78979

>  <SCORE.INTRA.POLAR>
0

>  <SCORE.INTRA.POLAR.0>
0

>  <SCORE.INTRA.REPUL>
0

>  <SCORE.INTRA.REPUL.0>
0

>  <SCORE.INTRA.SOLV>
-0.326079

>  <SCORE.INTRA.SOLV.lig_0>
-49.9151

>  <SCORE.INTRA.VDW>
-2.07253

>  <SCORE.INTRA.VDW.0>
-0.211125

>  <SCORE.INTRA.norm>
-0.109759

>  <SCORE.RESTR>
0.0102964

>  <SCORE.RESTR.CAVITY>
0.0102964

>  <SCORE.RESTR.norm>
0.000396016

>  <SCORE.SYSTEM>
0

>  <SCORE.SYSTEM.CONST>
0

>  <SCORE.SYSTEM.DIHEDRAL>
0

>  <SCORE.SYSTEM.SOLV>
0

>  <SCORE.SYSTEM.norm>
0

>  <SCORE.heavy>
26

>  <SCORE.norm>
-0.434424

>  <RMSD>
5.961

$$$$
ligand
 OpenBabel11021811483D
libRbt.so/2013.1/901 2013/11/27
 26 28  0  0  0  0  0  0  0  0999 V2000
   47.3497   54.1110   32.2888 N   0  0  0  0  0  0  0  0  0  0  0  0
   47.1908   53.8708   33.7258 C   0  0  2  0  0  0  0  0  0  0  0  0
   45.9999   54.5968   34.3554 C   0  0  0  0  0  0  0  0  0  0  0  0
   45.6829   55.6961   33.9002 O   0  0  0  0  0  0  0  0  0  0  0  0
   48.4200   54.2111   34.5783 C   0  0  0  0  0  0  0  0  0  0  0  0
   48.8984   55.6449   34.7271 C   0  0  0  0  0  0  0  0  0  0  0  0
   49.4995   56.1572   33.1011 S   0  0  0  0  0  0  0  0  0  0  0  0
   49.0608   57.8446   33.5824 C   0  0  0  0  0  0  0  0  0  0  0  0
   48.4215   58.6765   32.4654 C   0  0  1  0  0  0  0  0  0  0  0  0
   49.2292   58.7522   31.2851 O   0  0  0  0  0  0  0  0  0  0  0  0
   47.0796   58.0890   32.0529 C   0  0  1  0  0  0  0  0  0  0  0  0
   46.0184   58.6729   32.7756 O   0  0  0  0  0  0  0  0  0  0  0  0
   46.9964   58.3428   30.5533 C   0  0  1  0  0  0  0  0  0  0  0  0
   46.3572   59.5703   30.2668 O   0  0  0  0  0  0  0  0  0  0  0  0
   48.4483   58.4690   30.1357 C   0  0  2  0  0  0  0  0  0  0  0  0
   45.3380   54.1218   35.2867 O   0  0  0  0  0  0  0  0  0  0  0  0
   48.4470   55.6791   25.6820 N   0  0  0  0  0  0  0  0  0  0  0  0
   47.7916   56.8549   25.9477 C   0  0  0  0  0  0  0  0  0  0  0  0
   47.8983   57.4351   27.1943 N   0  0  0  0  0  0  0  0  0  0  0  0
   48.6662   56.8872   28.1527 C   0  0  0  0  0  0  0  0  0  0  0  0
   49.3372   55.7020   27.9042 C   0  0  0  0  0  0  0  0  0  0  0  0
   49.2160   55.1068   26.6642 C   0  0  0  0  0  0  0  0  0  0  0  0
   49.8562   53.9841   26.4015 N   0  0  0  0  0  0  0  0  0  0  0  0
   50.0287   55.3641   29.0155 N   0  0  0  0  0  0  0  0  0  0  0  0
   49.7856   56.3006   29.9670 C   0  0  0  0  0  0  0  0  0  0  0  0
   48.9413   57.2554   29.4438 N   0  0  0  0  0  0  0  0  0  0  0  0
  2  1  1  6  0  0  0
  2  3  1  0  0  0  0
  2  5  1  0  0  0  0
  3  4  1  0  0  0  0
  3 16  1  0  0  0  0
  5  6  1  0  0  0  0
  6  7  1  0  0  0  0
  7  8  1  0  0  0  0
  9  8  1  1  0  0  0
  9 10  1  0  0  0  0
  9 11  1  0  0  0  0
 10 15  1  0  0  0  0
 11 12  1  1  0  0  0
 11 13  1  0  0  0  0
 13 14  1  1  0  0  0
 13 15  1  0  0  0  0
 15 26  1  1  0  0  0
 17 18  2  0  0  0  0
 17 22  1  0  0  0  0
 18 19  1  0  0  0  0
 19 20  2  0  0  0  0
 20 21  1  0  0  0  0
 20 26  1  0  0  0  0
 21 22  2  0  0  0  0
 21 24  1  0  0  0  0
 22 23  1  0  0  0  0
 24 25  2  0  0  0  0
 25 26  1  0  0  0  0
M  END
>  <CHROM.1>
-33.00610353,66.43687079,-67.27545254,152.11953283,-139.74883463,-55.84632776
-162.05811247,48.09622268,56.45233532,31.03596381,-2.41636702,1.26308798
-0.65435404

>  <Name>
ligand

>  <RI>
0

>  <Rbt.Current_Directory>
/home/itssahil/PROJECTS/Mol_Feturizer/New_Systems/rnas/3GX3

>  <Rbt.Executable>
rbdock ($Id: //depot/dev/client3/rdock/2013.1/src/exe/rbdock.cxx#4 $)

>  <Rbt.Library>
libRbt.so (2013.1, Build901 2013/11/27)

>  <Rbt.Parameter_File>
/export/apps/rDock/src/rDock_2013.1_src/data/scripts/dock_solv.prm

>  <Rbt.Receptor>
prm/pocket_docking_6.prm

>  <SCORE>
-18.6128

>  <SCORE.INTER>
-15.6727

>  <SCORE.INTER.CONST>
1

>  <SCORE.INTER.POLAR>
0

>  <SCORE.INTER.ROT>
7

>  <SCORE.INTER.SOLV>
7.43135

>  <SCORE.INTER.VDW>
-21.1923

>  <SCORE.INTER.norm>
-0.602797

>  <SCORE.INTRA>
-2.94012

>  <SCORE.INTRA.DIHEDRAL>
0.361569

>  <SCORE.INTRA.DIHEDRAL.0>
5.78979

>  <SCORE.INTRA.POLAR>
0

>  <SCORE.INTRA.POLAR.0>
0

>  <SCORE.INTRA.REPUL>
0

>  <SCORE.INTRA.REPUL.0>
0

>  <SCORE.INTRA.SOLV>
1.74234

>  <SCORE.INTRA.SOLV.lig_0>
-49.9151

>  <SCORE.INTRA.VDW>
-3.99207

>  <SCORE.INTRA.VDW.0>
-0.211125

>  <SCORE.INTRA.norm>
-0.113081

>  <SCORE.RESTR>
0

>  <SCORE.RESTR.CAVITY>
0

>  <SCORE.RESTR.norm>
0

>  <SCORE.SYSTEM>
0

>  <SCORE.SYSTEM.CONST>
0

>  <SCORE.SYSTEM.DIHEDRAL>
0

>  <SCORE.SYSTEM.SOLV>
0

>  <SCORE.SYSTEM.norm>
0

>  <SCORE.heavy>
26

>  <SCORE.norm>
-0.715878

>  <RMSD>
5.972

$$$$
ligand
 OpenBabel11021811483D
libRbt.so/2013.1/901 2013/11/27
 26 28  0  0  0  0  0  0  0  0999 V2000
   48.1703   55.1051   25.9744 N   0  0  0  0  0  0  0  0  0  0  0  0
   46.7803   55.2713   26.4079 C   0  0  2  0  0  0  0  0  0  0  0  0
   46.4909   56.6113   27.0878 C   0  0  0  0  0  0  0  0  0  0  0  0
   47.3789   57.4643   27.0921 O   0  0  0  0  0  0  0  0  0  0  0  0
   46.2601   54.1751   27.3468 C   0  0  0  0  0  0  0  0  0  0  0  0
   46.9067   53.9289   28.6988 C   0  0  0  0  0  0  0  0  0  0  0  0
   45.9832   52.5809   29.4719 S   0  0  0  0  0  0  0  0  0  0  0  0
   46.6286   53.1797   31.0518 C   0  0  0  0  0  0  0  0  0  0  0  0
   45.9880   54.4812   31.5459 C   0  0  1  0  0  0  0  0  0  0  0  0
   44.5833   54.3593   31.7966 O   0  0  0  0  0  0  0  0  0  0  0  0
   46.6359   54.9456   32.8423 C   0  0  1  0  0  0  0  0  0  0  0  0
   47.7001   55.8375   32.5949 O   0  0  0  0  0  0  0  0  0  0  0  0
   45.4969   55.5744   33.6344 C   0  0  1  0  0  0  0  0  0  0  0  0
   45.3927   56.9619   33.3861 O   0  0  0  0  0  0  0  0  0  0  0  0
   44.2604   54.9084   33.0638 C   0  0  2  0  0  0  0  0  0  0  0  0
   45.4043   56.8767   27.6169 O   0  0  0  0  0  0  0  0  0  0  0  0
   41.3388   50.5575   33.4543 N   0  0  0  0  0  0  0  0  0  0  0  0
   41.6215   51.2926   32.3308 C   0  0  0  0  0  0  0  0  0  0  0  0
   42.3996   52.4269   32.4289 N   0  0  0  0  0  0  0  0  0  0  0  0
   42.9215   52.8122   33.6069 C   0  0  0  0  0  0  0  0  0  0  0  0
   42.6498   52.0832   34.7522 C   0  0  0  0  0  0  0  0  0  0  0  0
   41.8536   50.9588   34.6615 C   0  0  0  0  0  0  0  0  0  0  0  0
   41.5919   50.2425   35.7376 N   0  0  0  0  0  0  0  0  0  0  0  0
   43.2825   52.6728   35.7911 N   0  0  0  0  0  0  0  0  0  0  0  0
   43.9265   53.7729   35.3261 C   0  0  0  0  0  0  0  0  0  0  0  0
   43.7126   53.8712   33.9687 N   0  0  0  0  0  0  0  0  0  0  0  0
  2  1  1  1  0  0  0
  2  3  1  0  0  0  0
  2  5  1  0  0  0  0
  3  4  1  0  0  0  0
  3 16  1  0  0  0  0
  5  6  1  0  0  0  0
  6  7  1  0  0  0  0
  7  8  1  0  0  0  0
  9  8  1  1  0  0  0
  9 10  1  0  0  0  0
  9 11  1  0  0  0  0
 10 15  1  0  0  0  0
 11 12  1  6  0  0  0
 11 13  1  0  0  0  0
 13 14  1  6  0  0  0
 13 15  1  0  0  0  0
 15 26  1  1  0  0  0
 17 18  2  0  0  0  0
 17 22  1  0  0  0  0
 18 19  1  0  0  0  0
 19 20  2  0  0  0  0
 20 21  1  0  0  0  0
 20 26  1  0  0  0  0
 21 22  2  0  0  0  0
 21 24  1  0  0  0  0
 22 23  1  0  0  0  0
 24 25  2  0  0  0  0
 25 26  1  0  0  0  0
M  END
>  <CHROM.1>
7.14041352,60.99437508,179.40908995,-158.65860674,73.45064459,62.35016982
-34.87616690,44.94842338,53.97442331,31.42850542,0.61775383,-0.92787736,-1.93900860

>  <Name>
ligand

>  <RI>
0

>  <Rbt.Current_Directory>
/home/itssahil/PROJECTS/Mol_Feturizer/New_Systems/rnas/3GX3

>  <Rbt.Executable>
rbdock ($Id: //depot/dev/client3/rdock/2013.1/src/exe/rbdock.cxx#4 $)

>  <Rbt.Library>
libRbt.so (2013.1, Build901 2013/11/27)

>  <Rbt.Parameter_File>
/export/apps/rDock/src/rDock_2013.1_src/data/scripts/dock_solv.prm

>  <Rbt.Receptor>
prm/pocket_docking_8.prm

>  <SCORE>
-10.1559

>  <SCORE.INTER>
-7.45403

>  <SCORE.INTER.CONST>
1

>  <SCORE.INTER.POLAR>
0

>  <SCORE.INTER.ROT>
7

>  <SCORE.INTER.SOLV>
8.70079

>  <SCORE.INTER.VDW>
-16.1363

>  <SCORE.INTER.norm>
-0.286694

>  <SCORE.INTRA>
-2.70191

>  <SCORE.INTRA.DIHEDRAL>
-1.9568

>  <SCORE.INTRA.DIHEDRAL.0>
5.78979

>  <SCORE.INTRA.POLAR>
0

>  <SCORE.INTRA.POLAR.0>
0

>  <SCORE.INTRA.REPUL>
0

>  <SCORE.INTRA.REPUL.0>
0

>  <SCORE.INTRA.SOLV>
-0.427848

>  <SCORE.INTRA.SOLV.lig_0>
-49.9151

>  <SCORE.INTRA.VDW>
-1.50959

>  <SCORE.INTRA.VDW.0>
-0.211125

>  <SCORE.INTRA.norm>
-0.10392

>  <SCORE.RESTR>
0

>  <SCORE.RESTR.CAVITY>
0

>  <SCORE.RESTR.norm>
0

>  <SCORE.SYSTEM>
0

>  <SCORE.SYSTEM.CONST>
0

>  <SCORE.SYSTEM.DIHEDRAL>
0

>  <SCORE.SYSTEM.SOLV>
0

>  <SCORE.SYSTEM.norm>
0

>  <SCORE.heavy>
26

>  <SCORE.norm>
-0.390613

>  <RMSD>
5.972

$$$$
ligand
 OpenBabel11021811483D
libRbt.so/2013.1/901 2013/11/27
 26 28  0  0  0  0  0  0  0  0999 V2000
   48.9435   53.3983   33.6034 N   0  0  0  0  0  0  0  0  0  0  0  0
   49.1643   54.6867   34.2661 C   0  0  2  0  0  0  0  0  0  0  0  0
   48.3701   54.8705   35.5612 C   0  0  0  0  0  0  0  0  0  0  0  0
   48.9534   55.3397   36.5387 O   0  0  0  0  0  0  0  0  0  0  0  0
   48.8851   55.9183   33.3950 C   0  0  0  0  0  0  0  0  0  0  0  0
   49.2691   57.3118   33.8612 C   0  0  0  0  0  0  0  0  0  0  0  0
   49.4461   58.3211   32.3720 S   0  0  0  0  0  0  0  0  0  0  0  0
   48.0244   59.2679   32.9668 C   0  0  0  0  0  0  0  0  0  0  0  0
   46.7108   58.9641   32.2384 C   0  0  1  0  0  0  0  0  0  0  0  0
   46.7255   59.3556   30.8609 O   0  0  0  0  0  0  0  0  0  0  0  0
   46.4020   57.4745   32.2776 C   0  0  1  0  0  0  0  0  0  0  0  0
   45.5924   57.1458   33.3848 O   0  0  0  0  0  0  0  0  0  0  0  0
   45.7341   57.1877   30.9389 C   0  0  1  0  0  0  0  0  0  0  0  0
   44.3284   57.3102   31.0205 O   0  0  0  0  0  0  0  0  0  0  0  0
   46.2441   58.3005   30.0445 C   0  0  2  0  0  0  0  0  0  0  0  0
   47.1709   54.5828   35.6616 O   0  0  0  0  0  0  0  0  0  0  0  0
   50.3542   55.1031   29.3362 N   0  0  0  0  0  0  0  0  0  0  0  0
   49.5869   55.2630   30.4624 C   0  0  0  0  0  0  0  0  0  0  0  0
   48.5506   56.1730   30.4649 N   0  0  0  0  0  0  0  0  0  0  0  0
   48.2507   56.8880   29.3661 C   0  0  0  0  0  0  0  0  0  0  0  0
   49.0116   56.7402   28.2190 C   0  0  0  0  0  0  0  0  0  0  0  0
   50.0632   55.8455   28.2193 C   0  0  0  0  0  0  0  0  0  0  0  0
   50.7936   55.6795   27.1337 N   0  0  0  0  0  0  0  0  0  0  0  0
   48.5124   57.5623   27.2692 N   0  0  0  0  0  0  0  0  0  0  0  0
   47.4677   58.2433   27.8044 C   0  0  0  0  0  0  0  0  0  0  0  0
   47.2920   57.8327   29.1077 N   0  0  0  0  0  0  0  0  0  0  0  0
  2  1  1  6  0  0  0
  2  3  1  0  0  0  0
  2  5  1  0  0  0  0
  3  4  1  0  0  0  0
  3 16  1  0  0  0  0
  5  6  1  0  0  0  0
  6  7  1  0  0  0  0
  7  8  1  0  0  0  0
  9  8  1  6  0  0  0
  9 10  1  0  0  0  0
  9 11  1  0  0  0  0
 10 15  1  0  0  0  0
 11 12  1  1  0  0  0
 11 13  1  0  0  0  0
 13 14  1  1  0  0  0
 13 15  1  0  0  0  0
 15 26  1  1  0  0  0
 17 18  2  0  0  0  0
 17 22  1  0  0  0  0
 18 19  1  0  0  0  0
 19 20  2  0  0  0  0
 20 21  1  0  0  0  0
 20 26  1  0  0  0  0
 21 22  2  0  0  0  0
 21 24  1  0  0  0  0
 22 23  1  0  0  0  0
 24 25  2  0  0  0  0
 25 26  1  0  0  0  0
M  END
>  <CHROM.1>
135.33489515,-170.46069490,156.23186939,114.59065505,-104.00093565,-65.70030969
86.48115777,48.09007766,56.80477391,31.54103892,-1.63649619,0.69652097,-1.29264419

>  <Name>
ligand

>  <RI>
0

>  <Rbt.Current_Directory>
/home/itssahil/PROJECTS/Mol_Feturizer/New_Systems/rnas/3GX3

>  <Rbt.Executable>
rbdock ($Id: //depot/dev/client3/rdock/2013.1/src/exe/rbdock.cxx#4 $)

>  <Rbt.Library>
libRbt.so (2013.1, Build901 2013/11/27)

>  <Rbt.Parameter_File>
/export/apps/rDock/src/rDock_2013.1_src/data/scripts/dock_solv.prm

>  <Rbt.Receptor>
prm/pocket_docking_4.prm

>  <SCORE>
-16.6822

>  <SCORE.INTER>
-14.2987

>  <SCORE.INTER.CONST>
1

>  <SCORE.INTER.POLAR>
0

>  <SCORE.INTER.ROT>
7

>  <SCORE.INTER.SOLV>
15.9134

>  <SCORE.INTER.VDW>
-23.1036

>  <SCORE.INTER.norm>
-0.549951

>  <SCORE.INTRA>
-2.38353

>  <SCORE.INTRA.DIHEDRAL>
3.70408

>  <SCORE.INTRA.DIHEDRAL.0>
5.78979

>  <SCORE.INTRA.POLAR>
0

>  <SCORE.INTRA.POLAR.0>
0

>  <SCORE.INTRA.REPUL>
0

>  <SCORE.INTRA.REPUL.0>
0

>  <SCORE.INTRA.SOLV>
-0.202269

>  <SCORE.INTRA.SOLV.lig_0>
-49.9151

>  <SCORE.INTRA.VDW>
-4.13444

>  <SCORE.INTRA.VDW.0>
-0.211125

>  <SCORE.INTRA.norm>
-0.0916743

>  <SCORE.RESTR>
0

>  <SCORE.RESTR.CAVITY>
0

>  <SCORE.RESTR.norm>
0

>  <SCORE.SYSTEM>
0

>  <SCORE.SYSTEM.CONST>
0

>  <SCORE.SYSTEM.DIHEDRAL>
0

>  <SCORE.SYSTEM.SOLV>
0

>  <SCORE.SYSTEM.norm>
0

>  <SCORE.heavy>
26

>  <SCORE.norm>
-0.641625

>  <RMSD>
5.978

$$$$
ligand
 OpenBabel11021811483D
libRbt.so/2013.1/901 2013/11/27
 26 28  0  0  0  0  0  0  0  0999 V2000
   46.0626   60.4290   31.5702 N   0  0  0  0  0  0  0  0  0  0  0  0
   46.6880   59.3180   32.2930 C   0  0  2  0  0  0  0  0  0  0  0  0
   48.2154   59.3896   32.3539 C   0  0  0  0  0  0  0  0  0  0  0  0
   48.8087   59.9395   31.4256 O   0  0  0  0  0  0  0  0  0  0  0  0
   46.3293   57.9216   31.7684 C   0  0  0  0  0  0  0  0  0  0  0  0
   44.8945   57.4238   31.7814 C   0  0  0  0  0  0  0  0  0  0  0  0
   44.4668   57.1350   33.5139 S   0  0  0  0  0  0  0  0  0  0  0  0
   44.8537   55.3937   33.2141 C   0  0  0  0  0  0  0  0  0  0  0  0
   46.3467   55.0974   33.0373 C   0  0  1  0  0  0  0  0  0  0  0  0
   47.1560   55.6250   34.0946 O   0  0  0  0  0  0  0  0  0  0  0  0
   46.5988   53.5975   32.9860 C   0  0  1  0  0  0  0  0  0  0  0  0
   46.5857   53.1187   31.6593 O   0  0  0  0  0  0  0  0  0  0  0  0
   47.9429   53.4123   33.6782 C   0  0  1  0  0  0  0  0  0  0  0  0
   49.0141   53.4539   32.7571 O   0  0  0  0  0  0  0  0  0  0  0  0
   48.0520   54.6336   34.5697 C   0  0  2  0  0  0  0  0  0  0  0  0
   48.8733   58.9341   33.2977 O   0  0  0  0  0  0  0  0  0  0  0  0
   44.5365   52.9176   38.0790 N   0  0  0  0  0  0  0  0  0  0  0  0
   44.3703   53.0980   36.7290 C   0  0  0  0  0  0  0  0  0  0  0  0
   45.4134   53.5794   35.9661 N   0  0  0  0  0  0  0  0  0  0  0  0
   46.6119   53.8448   36.5154 C   0  0  0  0  0  0  0  0  0  0  0  0
   46.8008   53.6677   37.8754 C   0  0  0  0  0  0  0  0  0  0  0  0
   45.7524   53.2061   38.6463 C   0  0  0  0  0  0  0  0  0  0  0  0
   45.9137   53.0184   39.9418 N   0  0  0  0  0  0  0  0  0  0  0  0
   48.0758   54.0024   38.1744 N   0  0  0  0  0  0  0  0  0  0  0  0
   48.6857   54.4107   37.0330 C   0  0  0  0  0  0  0  0  0  0  0  0
   47.7877   54.3160   35.9923 N   0  0  0  0  0  0  0  0  0  0  0  0
  2  1  1  6  0  0  0
  2  3  1  0  0  0  0
  2  5  1  0  0  0  0
  3  4  1  0  0  0  0
  3 16  1  0  0  0  0
  5  6  1  0  0  0  0
  6  7  1  0  0  0  0
  7  8  1  0  0  0  0
  9  8  1  1  0  0  0
  9 10  1  0  0  0  0
  9 11  1  0  0  0  0
 10 15  1  0  0  0  0
 11 12  1  6  0  0  0
 11 13  1  0  0  0  0
 13 14  1  6  0  0  0
 13 15  1  0  0  0  0
 15 26  1  1  0  0  0
 17 18  2  0  0  0  0
 17 22  1  0  0  0  0
 18 19  1  0  0  0  0
 19 20  2  0  0  0  0
 20 21  1  0  0  0  0
 20 26  1  0  0  0  0
 21 22  2  0  0  0  0
 21 24  1  0  0  0  0
 22 23  1  0  0  0  0
 24 25  2  0  0  0  0
 25 26  1  0  0  0  0
M  END
>  <CHROM.1>
-29.74536078,-61.70907766,-70.53312434,-97.67464237,71.58264375,51.64981453
59.02790901,46.64611200,55.55127503,34.42689374,1.47939889,0.35768312,-0.76787177

>  <Name>
ligand

>  <RI>
0

>  <Rbt.Current_Directory>
/home/itssahil/PROJECTS/Mol_Feturizer/New_Systems/rnas/3GX3

>  <Rbt.Executable>
rbdock ($Id: //depot/dev/client3/rdock/2013.1/src/exe/rbdock.cxx#4 $)

>  <Rbt.Library>
libRbt.so (2013.1, Build901 2013/11/27)

>  <Rbt.Parameter_File>
/export/apps/rDock/src/rDock_2013.1_src/data/scripts/dock_solv.prm

>  <Rbt.Receptor>
prm/pocket_docking_8.prm

>  <SCORE>
-22.29

>  <SCORE.INTER>
-19.3198

>  <SCORE.INTER.CONST>
1

>  <SCORE.INTER.POLAR>
0

>  <SCORE.INTER.ROT>
7

>  <SCORE.INTER.SOLV>
13.5923

>  <SCORE.INTER.VDW>
-25.6773

>  <SCORE.INTER.norm>
-0.743068

>  <SCORE.INTRA>
-2.97027

>  <SCORE.INTRA.DIHEDRAL>
-0.392502

>  <SCORE.INTRA.DIHEDRAL.0>
5.78979

>  <SCORE.INTRA.POLAR>
0

>  <SCORE.INTRA.POLAR.0>
0

>  <SCORE.INTRA.REPUL>
0

>  <SCORE.INTRA.REPUL.0>
0

>  <SCORE.INTRA.SOLV>
0.184578

>  <SCORE.INTRA.SOLV.lig_0>
-49.9151

>  <SCORE.INTRA.VDW>
-2.86631

>  <SCORE.INTRA.VDW.0>
-0.211125

>  <SCORE.INTRA.norm>
-0.114241

>  <SCORE.RESTR>
0

>  <SCORE.RESTR.CAVITY>
0

>  <SCORE.RESTR.norm>
0

>  <SCORE.SYSTEM>
0

>  <SCORE.SYSTEM.CONST>
0

>  <SCORE.SYSTEM.DIHEDRAL>
0

>  <SCORE.SYSTEM.SOLV>
0

>  <SCORE.SYSTEM.norm>
0

>  <SCORE.heavy>
26

>  <SCORE.norm>
-0.857309

>  <RMSD>
5.982

$$$$
ligand
 OpenBabel11021811483D
libRbt.so/2013.1/901 2013/11/27
 26 28  0  0  0  0  0  0  0  0999 V2000
   48.2400   53.8755   32.2016 N   0  0  0  0  0  0  0  0  0  0  0  0
   48.0916   53.6895   33.6477 C   0  0  2  0  0  0  0  0  0  0  0  0
   46.6595   53.8621   34.1589 C   0  0  0  0  0  0  0  0  0  0  0  0
   45.9763   54.7668   33.6784 O   0  0  0  0  0  0  0  0  0  0  0  0
   48.9833   54.5915   34.5108 C   0  0  0  0  0  0  0  0  0  0  0  0
   48.9443   56.1028   34.3652 C   0  0  0  0  0  0  0  0  0  0  0  0
   49.6471   56.4809   32.7433 S   0  0  0  0  0  0  0  0  0  0  0  0
   49.1909   58.2024   33.0590 C   0  0  0  0  0  0  0  0  0  0  0  0
   48.3757   58.8578   31.9390 C   0  0  1  0  0  0  0  0  0  0  0  0
   48.9964   58.7516   30.6527 O   0  0  0  0  0  0  0  0  0  0  0  0
   46.9991   58.2190   31.8263 C   0  0  1  0  0  0  0  0  0  0  0  0
   46.0465   58.9089   32.6048 O   0  0  0  0  0  0  0  0  0  0  0  0
   46.6878   58.2433   30.3354 C   0  0  1  0  0  0  0  0  0  0  0  0
   45.9889   59.4154   29.9676 O   0  0  0  0  0  0  0  0  0  0  0  0
   48.0582   58.3002   29.6897 C   0  0  2  0  0  0  0  0  0  0  0  0
   46.1586   53.1264   35.0183 O   0  0  0  0  0  0  0  0  0  0  0  0
   46.8525   54.4243   26.3518 N   0  0  0  0  0  0  0  0  0  0  0  0
   46.1387   55.5643   26.6229 C   0  0  0  0  0  0  0  0  0  0  0  0
   46.6109   56.4663   27.5531 N   0  0  0  0  0  0  0  0  0  0  0  0
   47.7839   56.2685   28.1803 C   0  0  0  0  0  0  0  0  0  0  0  0
   48.5203   55.1254   27.9196 C   0  0  0  0  0  0  0  0  0  0  0  0
   48.0405   54.2095   27.0045 C   0  0  0  0  0  0  0  0  0  0  0  0
   48.7315   53.1197   26.7318 N   0  0  0  0  0  0  0  0  0  0  0  0
   49.6436   55.1633   28.6705 N   0  0  0  0  0  0  0  0  0  0  0  0
   49.6163   56.2959   29.4174 C   0  0  0  0  0  0  0  0  0  0  0  0
   48.4662   56.9944   29.1214 N   0  0  0  0  0  0  0  0  0  0  0  0
  2  1  1  6  0  0  0
  2  3  1  0  0  0  0
  2  5  1  0  0  0  0
  3  4  1  0  0  0  0
  3 16  1  0  0  0  0
  5  6  1  0  0  0  0
  6  7  1  0  0  0  0
  7  8  1  0  0  0  0
  9  8  1  1  0  0  0
  9 10  1  0  0  0  0
  9 11  1  0  0  0  0
 10 15  1  0  0  0  0
 11 12  1  1  0  0  0
 11 13  1  0  0  0  0
 13 14  1  1  0  0  0
 13 15  1  0  0  0  0
 15 26  1  1  0  0  0
 17 18  2  0  0  0  0
 17 22  1  0  0  0  0
 18 19  1  0  0  0  0
 19 20  2  0  0  0  0
 20 21  1  0  0  0  0
 20 26  1  0  0  0  0
 21 22  2  0  0  0  0
 21 24  1  0  0  0  0
 22 23  1  0  0  0  0
 24 25  2  0  0  0  0
 25 26  1  0  0  0  0
M  END
>  <CHROM.1>
-40.05084271,55.85330503,-68.38281532,174.34465791,-128.13853570,-53.33207169
179.23355500,47.88456218,56.16809222,30.88258893,-1.10494610,1.53555826,-2.02239994

>  <Name>
ligand

>  <RI>
0

>  <Rbt.Current_Directory>
/home/itssahil/PROJECTS/Mol_Feturizer/New_Systems/rnas/3GX3

>  <Rbt.Executable>
rbdock ($Id: //depot/dev/client3/rdock/2013.1/src/exe/rbdock.cxx#4 $)

>  <Rbt.Library>
libRbt.so (2013.1, Build901 2013/11/27)

>  <Rbt.Parameter_File>
/export/apps/rDock/src/rDock_2013.1_src/data/scripts/dock_solv.prm

>  <Rbt.Receptor>
prm/pocket_docking_5.prm

>  <SCORE>
-14.1962

>  <SCORE.INTER>
-11.1328

>  <SCORE.INTER.CONST>
1

>  <SCORE.INTER.POLAR>
0

>  <SCORE.INTER.ROT>
7

>  <SCORE.INTER.SOLV>
8.38223

>  <SCORE.INTER.VDW>
-18.4826

>  <SCORE.INTER.norm>
-0.428185

>  <SCORE.INTRA>
-3.06335

>  <SCORE.INTRA.DIHEDRAL>
-0.111325

>  <SCORE.INTRA.DIHEDRAL.0>
5.78979

>  <SCORE.INTRA.POLAR>
0

>  <SCORE.INTRA.POLAR.0>
0

>  <SCORE.INTRA.REPUL>
0

>  <SCORE.INTRA.REPUL.0>
0

>  <SCORE.INTRA.SOLV>
1.29331

>  <SCORE.INTRA.SOLV.lig_0>
-49.9151

>  <SCORE.INTRA.VDW>
-3.65435

>  <SCORE.INTRA.VDW.0>
-0.211125

>  <SCORE.INTRA.norm>
-0.117821

>  <SCORE.RESTR>
0

>  <SCORE.RESTR.CAVITY>
0

>  <SCORE.RESTR.norm>
0

>  <SCORE.SYSTEM>
0

>  <SCORE.SYSTEM.CONST>
0

>  <SCORE.SYSTEM.DIHEDRAL>
0

>  <SCORE.SYSTEM.SOLV>
0

>  <SCORE.SYSTEM.norm>
0

>  <SCORE.heavy>
26

>  <SCORE.norm>
-0.546006

>  <RMSD>
5.990

$$$$
ligand
 OpenBabel11021811483D
libRbt.so/2013.1/901 2013/11/27
 26 28  0  0  0  0  0  0  0  0999 V2000
   47.1557   54.1663   32.3367 N   0  0  0  0  0  0  0  0  0  0  0  0
   47.1428   53.8464   33.7668 C   0  0  2  0  0  0  0  0  0  0  0  0
   46.0071   54.5106   34.5483 C   0  0  0  0  0  0  0  0  0  0  0  0
   45.4933   55.5253   34.0767 O   0  0  0  0  0  0  0  0  0  0  0  0
   48.4437   54.1688   34.5134 C   0  0  0  0  0  0  0  0  0  0  0  0
   48.9473   55.5969   34.6306 C   0  0  0  0  0  0  0  0  0  0  0  0
   49.4268   56.1108   32.9652 S   0  0  0  0  0  0  0  0  0  0  0  0
   49.1145   57.8076   33.5081 C   0  0  0  0  0  0  0  0  0  0  0  0
   48.5304   58.7220   32.4259 C   0  0  1  0  0  0  0  0  0  0  0  0
   49.3261   58.7681   31.2360 O   0  0  0  0  0  0  0  0  0  0  0  0
   47.1399   58.2579   32.0174 C   0  0  1  0  0  0  0  0  0  0  0  0
   46.1393   58.9035   32.7733 O   0  0  0  0  0  0  0  0  0  0  0  0
   47.0580   58.5631   30.5273 C   0  0  1  0  0  0  0  0  0  0  0  0
   46.5170   59.8465   30.2868 O   0  0  0  0  0  0  0  0  0  0  0  0
   48.5097   58.5840   30.0910 C   0  0  2  0  0  0  0  0  0  0  0  0
   45.5770   54.0650   35.6195 O   0  0  0  0  0  0  0  0  0  0  0  0
   48.0394   55.8363   25.6361 N   0  0  0  0  0  0  0  0  0  0  0  0
   47.4594   57.0372   25.9583 C   0  0  0  0  0  0  0  0  0  0  0  0
   47.6880   57.6012   27.1959 N   0  0  0  0  0  0  0  0  0  0  0  0
   48.5029   57.0117   28.0887 C   0  0  0  0  0  0  0  0  0  0  0  0
   49.0993   55.8004   27.7823 C   0  0  0  0  0  0  0  0  0  0  0  0
   48.8560   55.2222   26.5524 C   0  0  0  0  0  0  0  0  0  0  0  0
   49.4235   54.0748   26.2346 N   0  0  0  0  0  0  0  0  0  0  0  0
   49.8591   55.4229   28.8346 N   0  0  0  0  0  0  0  0  0  0  0  0
   49.7324   56.3607   29.8071 C   0  0  0  0  0  0  0  0  0  0  0  0
   48.8933   57.3561   29.3564 N   0  0  0  0  0  0  0  0  0  0  0  0
  2  1  1  6  0  0  0
  2  3  1  0  0  0  0
  2  5  1  0  0  0  0
  3  4  1  0  0  0  0
  3 16  1  0  0  0  0
  5  6  1  0  0  0  0
  6  7  1  0  0  0  0
  7  8  1  0  0  0  0
  9  8  1  1  0  0  0
  9 10  1  0  0  0  0
  9 11  1  0  0  0  0
 10 15  1  0  0  0  0
 11 12  1  1  0  0  0
 11 13  1  0  0  0  0
 13 14  1  1  0  0  0
 13 15  1  0  0  0  0
 15 26  1  1  0  0  0
 17 18  2  0  0  0  0
 17 22  1  0  0  0  0
 18 19  1  0  0  0  0
 19 20  2  0  0  0  0
 20 21  1  0  0  0  0
 20 26  1  0  0  0  0
 21 22  2  0  0  0  0
 21 24  1  0  0  0  0
 22 23  1  0  0  0  0
 24 25  2  0  0  0  0
 25 26  1  0  0  0  0
M  END
>  <CHROM.1>
-22.39586201,63.17172909,-67.79250381,154.47316886,-144.72739866,-55.14678666
-166.46329167,48.03036461,56.51369714,31.00803580,-2.54345970,1.34439516
-0.47106457

>  <Name>
ligand

>  <RI>
0

>  <Rbt.Current_Directory>
/home/itssahil/PROJECTS/Mol_Feturizer/New_Systems/rnas/3GX3

>  <Rbt.Executable>
rbdock ($Id: //depot/dev/client3/rdock/2013.1/src/exe/rbdock.cxx#4 $)

>  <Rbt.Library>
libRbt.so (2013.1, Build901 2013/11/27)

>  <Rbt.Parameter_File>
/export/apps/rDock/src/rDock_2013.1_src/data/scripts/dock_solv.prm

>  <Rbt.Receptor>
prm/pocket_docking_7.prm

>  <SCORE>
-18.3168

>  <SCORE.INTER>
-15.4272

>  <SCORE.INTER.CONST>
1

>  <SCORE.INTER.POLAR>
0

>  <SCORE.INTER.ROT>
7

>  <SCORE.INTER.SOLV>
7.83379

>  <SCORE.INTER.VDW>
-21.1627

>  <SCORE.INTER.norm>
-0.593353

>  <SCORE.INTRA>
-2.88963

>  <SCORE.INTRA.DIHEDRAL>
-0.133313

>  <SCORE.INTRA.DIHEDRAL.0>
5.78979

>  <SCORE.INTRA.POLAR>
0

>  <SCORE.INTRA.POLAR.0>
0

>  <SCORE.INTRA.REPUL>
0

>  <SCORE.INTRA.REPUL.0>
0

>  <SCORE.INTRA.SOLV>
1.62394

>  <SCORE.INTRA.SOLV.lig_0>
-49.9151

>  <SCORE.INTRA.VDW>
-3.63494

>  <SCORE.INTRA.VDW.0>
-0.211125

>  <SCORE.INTRA.norm>
-0.11114

>  <SCORE.RESTR>
0

>  <SCORE.RESTR.CAVITY>
0

>  <SCORE.RESTR.norm>
0

>  <SCORE.SYSTEM>
0

>  <SCORE.SYSTEM.CONST>
0

>  <SCORE.SYSTEM.DIHEDRAL>
0

>  <SCORE.SYSTEM.SOLV>
0

>  <SCORE.SYSTEM.norm>
0

>  <SCORE.heavy>
26

>  <SCORE.norm>
-0.704493

>  <RMSD>
6.000

$$$$
ligand
 OpenBabel11021811483D
libRbt.so/2013.1/901 2013/11/27
 26 28  0  0  0  0  0  0  0  0999 V2000
   48.9657   55.5206   34.5926 N   0  0  0  0  0  0  0  0  0  0  0  0
   48.6645   56.3199   33.4017 C   0  0  2  0  0  0  0  0  0  0  0  0
   48.6191   55.5153   32.1009 C   0  0  0  0  0  0  0  0  0  0  0  0
   47.5193   55.1628   31.6739 O   0  0  0  0  0  0  0  0  0  0  0  0
   49.6115   57.5024   33.1600 C   0  0  0  0  0  0  0  0  0  0  0  0
   49.2946   58.5603   32.1173 C   0  0  0  0  0  0  0  0  0  0  0  0
   48.0615   59.6564   32.8559 S   0  0  0  0  0  0  0  0  0  0  0  0
   47.4036   59.8761   31.1855 C   0  0  0  0  0  0  0  0  0  0  0  0
   46.0464   59.2062   30.9455 C   0  0  1  0  0  0  0  0  0  0  0  0
   45.6075   59.2915   29.5850 O   0  0  0  0  0  0  0  0  0  0  0  0
   46.1003   57.7289   31.3071 C   0  0  1  0  0  0  0  0  0  0  0  0
   45.7080   57.5119   32.6444 O   0  0  0  0  0  0  0  0  0  0  0  0
   45.1832   57.0545   30.2951 C   0  0  1  0  0  0  0  0  0  0  0  0
   43.8590   56.9520   30.7784 O   0  0  0  0  0  0  0  0  0  0  0  0
   45.1755   58.0207   29.1269 C   0  0  2  0  0  0  0  0  0  0  0  0
   49.6334   55.2188   31.4573 O   0  0  0  0  0  0  0  0  0  0  0  0
   46.5819   53.9235   26.1515 N   0  0  0  0  0  0  0  0  0  0  0  0
   45.6991   53.9471   27.2016 C   0  0  0  0  0  0  0  0  0  0  0  0
   45.4696   55.1253   27.8807 N   0  0  0  0  0  0  0  0  0  0  0  0
   46.0710   56.2697   27.5103 C   0  0  0  0  0  0  0  0  0  0  0  0
   46.9639   56.2675   26.4522 C   0  0  0  0  0  0  0  0  0  0  0  0
   47.2123   55.0855   25.7832 C   0  0  0  0  0  0  0  0  0  0  0  0
   48.0498   55.0629   24.7646 N   0  0  0  0  0  0  0  0  0  0  0  0
   47.4270   57.5263   26.2846 N   0  0  0  0  0  0  0  0  0  0  0  0
   46.8620   58.3156   27.2329 C   0  0  0  0  0  0  0  0  0  0  0  0
   46.0146   57.5479   28.0013 N   0  0  0  0  0  0  0  0  0  0  0  0
  2  1  1  1  0  0  0
  2  3  1  0  0  0  0
  2  5  1  0  0  0  0
  3  4  1  0  0  0  0
  3 16  1  0  0  0  0
  5  6  1  0  0  0  0
  6  7  1  0  0  0  0
  7  8  1  0  0  0  0
  9  8  1  6  0  0  0
  9 10  1  0  0  0  0
  9 11  1  0  0  0  0
 10 15  1  0  0  0  0
 11 12  1  1  0  0  0
 11 13  1  0  0  0  0
 13 14  1  1  0  0  0
 13 15  1  0  0  0  0
 15 26  1  6  0  0  0
 17 18  2  0  0  0  0
 17 22  1  0  0  0  0
 18 19  1  0  0  0  0
 19 20  2  0  0  0  0
 20 21  1  0  0  0  0
 20 26  1  0  0  0  0
 21 22  2  0  0  0  0
 21 24  1  0  0  0  0
 22 23  1  0  0  0  0
 24 25  2  0  0  0  0
 25 26  1  0  0  0  0
M  END
>  <CHROM.1>
98.28069708,-169.25776633,78.42151590,-147.82941787,109.14173185,-174.62812682
165.07061528,47.04296335,57.00683372,30.02428537,-1.18565704,0.92290838,-2.20586771

>  <Name>
ligand

>  <RI>
0

>  <Rbt.Current_Directory>
/home/itssahil/PROJECTS/Mol_Feturizer/New_Systems/rnas/3GX3

>  <Rbt.Executable>
rbdock ($Id: //depot/dev/client3/rdock/2013.1/src/exe/rbdock.cxx#4 $)

>  <Rbt.Library>
libRbt.so (2013.1, Build901 2013/11/27)

>  <Rbt.Parameter_File>
/export/apps/rDock/src/rDock_2013.1_src/data/scripts/dock_solv.prm

>  <Rbt.Receptor>
prm/pocket_docking_7.prm

>  <SCORE>
-15.8411

>  <SCORE.INTER>
-13.4854

>  <SCORE.INTER.CONST>
1

>  <SCORE.INTER.POLAR>
0

>  <SCORE.INTER.ROT>
7

>  <SCORE.INTER.SOLV>
14.9699

>  <SCORE.INTER.VDW>
-22.2469

>  <SCORE.INTER.norm>
-0.518671

>  <SCORE.INTRA>
-2.3556

>  <SCORE.INTRA.DIHEDRAL>
2.24141

>  <SCORE.INTRA.DIHEDRAL.0>
5.78979

>  <SCORE.INTRA.POLAR>
0

>  <SCORE.INTRA.POLAR.0>
0

>  <SCORE.INTRA.REPUL>
0

>  <SCORE.INTRA.REPUL.0>
0

>  <SCORE.INTRA.SOLV>
-0.213934

>  <SCORE.INTRA.SOLV.lig_0>
-49.9151

>  <SCORE.INTRA.VDW>
-3.36934

>  <SCORE.INTRA.VDW.0>
-0.211125

>  <SCORE.INTRA.norm>
-0.0906002

>  <SCORE.RESTR>
0

>  <SCORE.RESTR.CAVITY>
0

>  <SCORE.RESTR.norm>
0

>  <SCORE.SYSTEM>
0

>  <SCORE.SYSTEM.CONST>
0

>  <SCORE.SYSTEM.DIHEDRAL>
0

>  <SCORE.SYSTEM.SOLV>
0

>  <SCORE.SYSTEM.norm>
0

>  <SCORE.heavy>
26

>  <SCORE.norm>
-0.609271

>  <RMSD>
6.013

$$$$
ligand
 OpenBabel11021811483D
libRbt.so/2013.1/901 2013/11/27
 26 28  0  0  0  0  0  0  0  0999 V2000
   48.1499   53.3782   33.2037 N   0  0  0  0  0  0  0  0  0  0  0  0
   48.8268   54.5087   33.8453 C   0  0  2  0  0  0  0  0  0  0  0  0
   48.5201   54.6593   35.3370 C   0  0  0  0  0  0  0  0  0  0  0  0
   49.4309   55.0176   36.0841 O   0  0  0  0  0  0  0  0  0  0  0  0
   48.5617   55.8737   33.1972 C   0  0  0  0  0  0  0  0  0  0  0  0
   49.1729   57.1431   33.7644 C   0  0  0  0  0  0  0  0  0  0  0  0
   49.3852   58.2773   32.3730 S   0  0  0  0  0  0  0  0  0  0  0  0
   47.8754   59.0958   32.9404 C   0  0  0  0  0  0  0  0  0  0  0  0
   46.6634   58.8960   32.0242 C   0  0  1  0  0  0  0  0  0  0  0  0
   46.9715   59.0643   30.6357 O   0  0  0  0  0  0  0  0  0  0  0  0
   46.0848   57.4981   32.1885 C   0  0  1  0  0  0  0  0  0  0  0  0
   45.0610   57.4758   33.1583 O   0  0  0  0  0  0  0  0  0  0  0  0
   45.6007   57.1190   30.7950 C   0  0  1  0  0  0  0  0  0  0  0  0
   44.2467   57.4739   30.5988 O   0  0  0  0  0  0  0  0  0  0  0  0
   46.4432   57.9863   29.8805 C   0  0  2  0  0  0  0  0  0  0  0  0
   47.3991   54.4515   35.8178 O   0  0  0  0  0  0  0  0  0  0  0  0
   48.9849   53.3965   29.5777 N   0  0  0  0  0  0  0  0  0  0  0  0
   47.9477   53.7397   30.4078 C   0  0  0  0  0  0  0  0  0  0  0  0
   47.4163   55.0112   30.3547 N   0  0  0  0  0  0  0  0  0  0  0  0
   47.8733   55.9195   29.4745 C   0  0  0  0  0  0  0  0  0  0  0  0
   48.9180   55.5926   28.6270 C   0  0  0  0  0  0  0  0  0  0  0  0
   49.4668   54.3272   28.6917 C   0  0  0  0  0  0  0  0  0  0  0  0
   50.4546   53.9902   27.8853 N   0  0  0  0  0  0  0  0  0  0  0  0
   49.1878   56.6663   27.8514 N   0  0  0  0  0  0  0  0  0  0  0  0
   48.3497   57.6708   28.2119 C   0  0  0  0  0  0  0  0  0  0  0  0
   47.5249   57.2201   29.2191 N   0  0  0  0  0  0  0  0  0  0  0  0
  2  1  1  6  0  0  0
  2  3  1  0  0  0  0
  2  5  1  0  0  0  0
  3  4  1  0  0  0  0
  3 16  1  0  0  0  0
  5  6  1  0  0  0  0
  6  7  1  0  0  0  0
  7  8  1  0  0  0  0
  9  8  1  1  0  0  0
  9 10  1  0  0  0  0
  9 11  1  0  0  0  0
 10 15  1  0  0  0  0
 11 12  1  1  0  0  0
 11 13  1  0  0  0  0
 13 14  1  1  0  0  0
 13 15  1  0  0  0  0
 15 26  1  1  0  0  0
 17 18  2  0  0  0  0
 17 22  1  0  0  0  0
 18 19  1  0  0  0  0
 19 20  2  0  0  0  0
 20 21  1  0  0  0  0
 20 26  1  0  0  0  0
 21 22  2  0  0  0  0
 21 24  1  0  0  0  0
 22 23  1  0  0  0  0
 24 25  2  0  0  0  0
 25 26  1  0  0  0  0
M  END
>  <CHROM.1>
142.53420080,178.87540510,150.75722257,100.54761877,-109.84307729,-44.80703367
114.74119303,47.90060174,56.33766493,31.52305826,-1.59952519,0.99618157,-1.45868315

>  <Name>
ligand

>  <RI>
0

>  <Rbt.Current_Directory>
/home/itssahil/PROJECTS/Mol_Feturizer/New_Systems/rnas/3GX3

>  <Rbt.Executable>
rbdock ($Id: //depot/dev/client3/rdock/2013.1/src/exe/rbdock.cxx#4 $)

>  <Rbt.Library>
libRbt.so (2013.1, Build901 2013/11/27)

>  <Rbt.Parameter_File>
/export/apps/rDock/src/rDock_2013.1_src/data/scripts/dock_solv.prm

>  <Rbt.Receptor>
prm/pocket_docking_2.prm

>  <SCORE>
-10.9535

>  <SCORE.INTER>
-10.714

>  <SCORE.INTER.CONST>
1

>  <SCORE.INTER.POLAR>
0

>  <SCORE.INTER.ROT>
7

>  <SCORE.INTER.SOLV>
10.0834

>  <SCORE.INTER.VDW>
-18.7704

>  <SCORE.INTER.norm>
-0.412076

>  <SCORE.INTRA>
-1.15699

>  <SCORE.INTRA.DIHEDRAL>
4.52745

>  <SCORE.INTRA.DIHEDRAL.0>
5.78979

>  <SCORE.INTRA.POLAR>
0

>  <SCORE.INTRA.POLAR.0>
0

>  <SCORE.INTRA.REPUL>
0

>  <SCORE.INTRA.REPUL.0>
0

>  <SCORE.INTRA.SOLV>
0.627863

>  <SCORE.INTRA.SOLV.lig_0>
-49.9151

>  <SCORE.INTRA.VDW>
-3.73464

>  <SCORE.INTRA.VDW.0>
-0.211125

>  <SCORE.INTRA.norm>
-0.0444995

>  <SCORE.RESTR>
0.917488

>  <SCORE.RESTR.CAVITY>
0.917488

>  <SCORE.RESTR.norm>
0.035288

>  <SCORE.SYSTEM>
0

>  <SCORE.SYSTEM.CONST>
0

>  <SCORE.SYSTEM.DIHEDRAL>
0

>  <SCORE.SYSTEM.SOLV>
0

>  <SCORE.SYSTEM.norm>
0

>  <SCORE.heavy>
26

>  <SCORE.norm>
-0.421287

>  <RMSD>
6.014

$$$$
ligand
 OpenBabel11021811483D
libRbt.so/2013.1/901 2013/11/27
 26 28  0  0  0  0  0  0  0  0999 V2000
   48.2995   53.9227   32.1299 N   0  0  0  0  0  0  0  0  0  0  0  0
   48.1793   53.6255   33.5599 C   0  0  2  0  0  0  0  0  0  0  0  0
   46.7434   53.6547   34.0883 C   0  0  0  0  0  0  0  0  0  0  0  0
   46.4180   52.8197   34.9327 O   0  0  0  0  0  0  0  0  0  0  0  0
   49.0099   54.5290   34.4804 C   0  0  0  0  0  0  0  0  0  0  0  0
   48.8492   56.0390   34.4502 C   0  0  0  0  0  0  0  0  0  0  0  0
   49.5943   56.6039   32.9031 S   0  0  0  0  0  0  0  0  0  0  0  0
   48.9741   58.2502   33.3231 C   0  0  0  0  0  0  0  0  0  0  0  0
   48.1941   58.9397   32.1986 C   0  0  1  0  0  0  0  0  0  0  0  0
   48.9230   59.0115   30.9679 O   0  0  0  0  0  0  0  0  0  0  0  0
   46.8959   58.2008   31.9081 C   0  0  1  0  0  0  0  0  0  0  0  0
   45.8244   58.7291   32.6579 O   0  0  0  0  0  0  0  0  0  0  0  0
   46.7040   58.3430   30.4037 C   0  0  1  0  0  0  0  0  0  0  0  0
   45.9315   59.4820   30.0818 O   0  0  0  0  0  0  0  0  0  0  0  0
   48.1106   58.5778   29.8892 C   0  0  2  0  0  0  0  0  0  0  0  0
   45.9060   54.4859   33.7156 O   0  0  0  0  0  0  0  0  0  0  0  0
   48.2488   55.5887   25.5691 N   0  0  0  0  0  0  0  0  0  0  0  0
   47.5122   56.7244   25.7926 C   0  0  0  0  0  0  0  0  0  0  0  0
   47.5944   57.3690   27.0091 N   0  0  0  0  0  0  0  0  0  0  0  0
   48.4152   56.9246   27.9773 C   0  0  0  0  0  0  0  0  0  0  0  0
   49.1682   55.7813   27.7710 C   0  0  0  0  0  0  0  0  0  0  0  0
   49.0727   55.1211   26.5621 C   0  0  0  0  0  0  0  0  0  0  0  0
   49.7902   54.0371   26.3394 N   0  0  0  0  0  0  0  0  0  0  0  0
   49.8994   55.5477   28.8837 N   0  0  0  0  0  0  0  0  0  0  0  0
   49.6021   56.5077   29.7955 C   0  0  0  0  0  0  0  0  0  0  0  0
   48.6817   57.3724   29.2448 N   0  0  0  0  0  0  0  0  0  0  0  0
  2  1  1  6  0  0  0
  2  3  1  0  0  0  0
  2  5  1  0  0  0  0
  3  4  1  0  0  0  0
  3 16  1  0  0  0  0
  5  6  1  0  0  0  0
  6  7  1  0  0  0  0
  7  8  1  0  0  0  0
  9  8  1  1  0  0  0
  9 10  1  0  0  0  0
  9 11  1  0  0  0  0
 10 15  1  0  0  0  0
 11 12  1  1  0  0  0
 11 13  1  0  0  0  0
 13 14  1  1  0  0  0
 13 15  1  0  0  0  0
 15 26  1  1  0  0  0
 17 18  2  0  0  0  0
 17 22  1  0  0  0  0
 18 19  1  0  0  0  0
 19 20  2  0  0  0  0
 20 21  1  0  0  0  0
 20 26  1  0  0  0  0
 21 22  2  0  0  0  0
 21 24  1  0  0  0  0
 22 23  1  0  0  0  0
 24 25  2  0  0  0  0
 25 26  1  0  0  0  0
M  END
>  <CHROM.1>
142.14150905,56.37746670,-72.05946496,174.19131554,-129.79846933,-54.02631743
-159.07110184,48.12622115,56.41995222,30.84834234,-2.07270934,1.32585173
-0.90513804

>  <Name>
ligand

>  <RI>
0

>  <Rbt.Current_Directory>
/home/itssahil/PROJECTS/Mol_Feturizer/New_Systems/rnas/3GX3

>  <Rbt.Executable>
rbdock ($Id: //depot/dev/client3/rdock/2013.1/src/exe/rbdock.cxx#4 $)

>  <Rbt.Library>
libRbt.so (2013.1, Build901 2013/11/27)

>  <Rbt.Parameter_File>
/export/apps/rDock/src/rDock_2013.1_src/data/scripts/dock_solv.prm

>  <Rbt.Receptor>
prm/pocket_docking_5.prm

>  <SCORE>
-18.5663

>  <SCORE.INTER>
-15.6358

>  <SCORE.INTER.CONST>
1

>  <SCORE.INTER.POLAR>
0

>  <SCORE.INTER.ROT>
7

>  <SCORE.INTER.SOLV>
8.8063

>  <SCORE.INTER.VDW>
-21.626

>  <SCORE.INTER.norm>
-0.601377

>  <SCORE.INTRA>
-2.93052

>  <SCORE.INTRA.DIHEDRAL>
0.0641805

>  <SCORE.INTRA.DIHEDRAL.0>
5.78979

>  <SCORE.INTRA.POLAR>
0

>  <SCORE.INTRA.POLAR.0>
0

>  <SCORE.INTRA.REPUL>
0

>  <SCORE.INTRA.REPUL.0>
0

>  <SCORE.INTRA.SOLV>
1.34251

>  <SCORE.INTRA.SOLV.lig_0>
-49.9151

>  <SCORE.INTRA.VDW>
-3.63386

>  <SCORE.INTRA.VDW.0>
-0.211125

>  <SCORE.INTRA.norm>
-0.112712

>  <SCORE.RESTR>
0

>  <SCORE.RESTR.CAVITY>
0

>  <SCORE.RESTR.norm>
0

>  <SCORE.SYSTEM>
0

>  <SCORE.SYSTEM.CONST>
0

>  <SCORE.SYSTEM.DIHEDRAL>
0

>  <SCORE.SYSTEM.SOLV>
0

>  <SCORE.SYSTEM.norm>
0

>  <SCORE.heavy>
26

>  <SCORE.norm>
-0.714089

>  <RMSD>
6.037

$$$$
ligand
 OpenBabel11021811483D
libRbt.so/2013.1/901 2013/11/27
 26 28  0  0  0  0  0  0  0  0999 V2000
   47.6628   54.0015   32.2836 N   0  0  0  0  0  0  0  0  0  0  0  0
   47.6630   53.5762   33.6861 C   0  0  2  0  0  0  0  0  0  0  0  0
   46.3375   53.8121   34.4135 C   0  0  0  0  0  0  0  0  0  0  0  0
   45.9476   52.9523   35.2040 O   0  0  0  0  0  0  0  0  0  0  0  0
   48.7630   54.2037   34.5520 C   0  0  0  0  0  0  0  0  0  0  0  0
   48.9228   55.7112   34.6458 C   0  0  0  0  0  0  0  0  0  0  0  0
   49.6329   56.2512   33.0737 S   0  0  0  0  0  0  0  0  0  0  0  0
   49.1275   57.9252   33.5360 C   0  0  0  0  0  0  0  0  0  0  0  0
   48.4312   58.7086   32.4181 C   0  0  1  0  0  0  0  0  0  0  0  0
   49.2096   58.7935   31.2189 O   0  0  0  0  0  0  0  0  0  0  0  0
   47.1056   58.0599   32.0467 C   0  0  1  0  0  0  0  0  0  0  0  0
   46.0374   58.6149   32.7818 O   0  0  0  0  0  0  0  0  0  0  0  0
   46.9800   58.2806   30.5449 C   0  0  1  0  0  0  0  0  0  0  0  0
   46.2855   59.4757   30.2496 O   0  0  0  0  0  0  0  0  0  0  0  0
   48.4162   58.4566   30.0927 C   0  0  2  0  0  0  0  0  0  0  0  0
   45.6535   54.8306   34.2524 O   0  0  0  0  0  0  0  0  0  0  0  0
   48.5462   55.6583   25.6463 N   0  0  0  0  0  0  0  0  0  0  0  0
   47.8656   56.8230   25.8971 C   0  0  0  0  0  0  0  0  0  0  0  0
   47.9390   57.4074   27.1440 N   0  0  0  0  0  0  0  0  0  0  0  0
   48.6984   56.8749   28.1178 C   0  0  0  0  0  0  0  0  0  0  0  0
   49.3944   55.7010   27.8845 C   0  0  0  0  0  0  0  0  0  0  0  0
   49.3065   55.1014   26.6439 C   0  0  0  0  0  0  0  0  0  0  0  0
   49.9709   53.9894   26.3957 N   0  0  0  0  0  0  0  0  0  0  0  0
   50.0708   55.3775   29.0092 N   0  0  0  0  0  0  0  0  0  0  0  0
   49.7939   56.3115   29.9539 C   0  0  0  0  0  0  0  0  0  0  0  0
   48.9431   57.2504   29.4129 N   0  0  0  0  0  0  0  0  0  0  0  0
  2  1  1  6  0  0  0
  2  3  1  0  0  0  0
  2  5  1  0  0  0  0
  3  4  1  0  0  0  0
  3 16  1  0  0  0  0
  5  6  1  0  0  0  0
  6  7  1  0  0  0  0
  7  8  1  0  0  0  0
  9  8  1  1  0  0  0
  9 10  1  0  0  0  0
  9 11  1  0  0  0  0
 10 15  1  0  0  0  0
 11 12  1  1  0  0  0
 11 13  1  0  0  0  0
 13 14  1  1  0  0  0
 13 15  1  0  0  0  0
 15 26  1  1  0  0  0
 17 18  2  0  0  0  0
 17 22  1  0  0  0  0
 18 19  1  0  0  0  0
 19 20  2  0  0  0  0
 20 21  1  0  0  0  0
 20 26  1  0  0  0  0
 21 22  2  0  0  0  0
 21 24  1  0  0  0  0
 22 23  1  0  0  0  0
 24 25  2  0  0  0  0
 25 26  1  0  0  0  0
M  END
>  <CHROM.1>
140.83300702,54.89762385,-73.45959957,164.12201770,-134.02211029,-55.48533957
-159.21973660,48.20344824,56.32962669,31.02345968,-2.44511276,1.31081311
-0.53463806

>  <Name>
ligand

>  <RI>
0

>  <Rbt.Current_Directory>
/home/itssahil/PROJECTS/Mol_Feturizer/New_Systems/rnas/3GX3

>  <Rbt.Executable>
rbdock ($Id: //depot/dev/client3/rdock/2013.1/src/exe/rbdock.cxx#4 $)

>  <Rbt.Library>
libRbt.so (2013.1, Build901 2013/11/27)

>  <Rbt.Parameter_File>
/export/apps/rDock/src/rDock_2013.1_src/data/scripts/dock_solv.prm

>  <Rbt.Receptor>
prm/pocket_docking_4.prm

>  <SCORE>
-18.6196

>  <SCORE.INTER>
-15.8803

>  <SCORE.INTER.CONST>
1

>  <SCORE.INTER.POLAR>
0

>  <SCORE.INTER.ROT>
7

>  <SCORE.INTER.SOLV>
8.17874

>  <SCORE.INTER.VDW>
-21.5798

>  <SCORE.INTER.norm>
-0.610781

>  <SCORE.INTRA>
-2.7393

>  <SCORE.INTRA.DIHEDRAL>
0.371402

>  <SCORE.INTRA.DIHEDRAL.0>
5.78979

>  <SCORE.INTRA.POLAR>
0

>  <SCORE.INTRA.POLAR.0>
0

>  <SCORE.INTRA.REPUL>
0

>  <SCORE.INTRA.REPUL.0>
0

>  <SCORE.INTRA.SOLV>
1.5844

>  <SCORE.INTRA.SOLV.lig_0>
-49.9151

>  <SCORE.INTRA.VDW>
-3.7172

>  <SCORE.INTRA.VDW.0>
-0.211125

>  <SCORE.INTRA.norm>
-0.105358

>  <SCORE.RESTR>
0

>  <SCORE.RESTR.CAVITY>
0

>  <SCORE.RESTR.norm>
0

>  <SCORE.SYSTEM>
0

>  <SCORE.SYSTEM.CONST>
0

>  <SCORE.SYSTEM.DIHEDRAL>
0

>  <SCORE.SYSTEM.SOLV>
0

>  <SCORE.SYSTEM.norm>
0

>  <SCORE.heavy>
26

>  <SCORE.norm>
-0.716139

>  <RMSD>
6.052

$$$$
ligand
 OpenBabel11021811483D
libRbt.so/2013.1/901 2013/11/27
 26 28  0  0  0  0  0  0  0  0999 V2000
   45.9906   53.5608   35.7752 N   0  0  0  0  0  0  0  0  0  0  0  0
   46.8892   53.6502   34.6209 C   0  0  2  0  0  0  0  0  0  0  0  0
   48.1916   54.4049   34.8965 C   0  0  0  0  0  0  0  0  0  0  0  0
   49.0376   54.4493   34.0030 O   0  0  0  0  0  0  0  0  0  0  0  0
   46.2692   54.2776   33.3657 C   0  0  0  0  0  0  0  0  0  0  0  0
   45.6197   55.6497   33.4139 C   0  0  0  0  0  0  0  0  0  0  0  0
   44.9963   55.9817   31.7500 S   0  0  0  0  0  0  0  0  0  0  0  0
   44.3502   57.5362   32.4114 C   0  0  0  0  0  0  0  0  0  0  0  0
   45.3682   58.6810   32.4484 C   0  0  1  0  0  0  0  0  0  0  0  0
   46.6759   58.2607   32.8538 O   0  0  0  0  0  0  0  0  0  0  0  0
   45.5096   59.3245   31.0766 C   0  0  1  0  0  0  0  0  0  0  0  0
   44.6334   60.4200   30.9295 O   0  0  0  0  0  0  0  0  0  0  0  0
   46.9793   59.7146   30.9875 C   0  0  1  0  0  0  0  0  0  0  0  0
   47.1972   61.0345   31.4434 O   0  0  0  0  0  0  0  0  0  0  0  0
   47.6546   58.7710   31.9632 C   0  0  2  0  0  0  0  0  0  0  0  0
   48.4220   54.9806   35.9672 O   0  0  0  0  0  0  0  0  0  0  0  0
   49.0322   56.6716   27.3467 N   0  0  0  0  0  0  0  0  0  0  0  0
   48.2809   57.7962   27.5777 C   0  0  0  0  0  0  0  0  0  0  0  0
   48.0054   58.1852   28.8718 N   0  0  0  0  0  0  0  0  0  0  0  0
   48.4912   57.5000   29.9221 C   0  0  0  0  0  0  0  0  0  0  0  0
   49.2529   56.3635   29.7104 C   0  0  0  0  0  0  0  0  0  0  0  0
   49.5132   55.9588   28.4163 C   0  0  0  0  0  0  0  0  0  0  0  0
   50.2469   54.8862   28.1912 N   0  0  0  0  0  0  0  0  0  0  0  0
   49.6134   55.8636   30.9134 N   0  0  0  0  0  0  0  0  0  0  0  0
   49.0721   56.6492   31.8784 C   0  0  0  0  0  0  0  0  0  0  0  0
   48.3730   57.6724   31.2765 N   0  0  0  0  0  0  0  0  0  0  0  0
  2  1  1  1  0  0  0
  2  3  1  0  0  0  0
  2  5  1  0  0  0  0
  3  4  1  0  0  0  0
  3 16  1  0  0  0  0
  5  6  1  0  0  0  0
  6  7  1  0  0  0  0
  7  8  1  0  0  0  0
  9  8  1  6  0  0  0
  9 10  1  0  0  0  0
  9 11  1  0  0  0  0
 10 15  1  0  0  0  0
 11 12  1  1  0  0  0
 11 13  1  0  0  0  0
 13 14  1  1  0  0  0
 13 15  1  0  0  0  0
 15 26  1  6  0  0  0
 17 18  2  0  0  0  0
 17 22  1  0  0  0  0
 18 19  1  0  0  0  0
 19 20  2  0  0  0  0
 20 21  1  0  0  0  0
 20 26  1  0  0  0  0
 21 22  2  0  0  0  0
 21 24  1  0  0  0  0
 22 23  1  0  0  0  0
 24 25  2  0  0  0  0
 25 26  1  0  0  0  0
M  END
>  <CHROM.1>
175.39982654,54.60952341,-178.76644664,177.81114822,84.24586488,-40.32351228
124.16189822,47.29324238,56.83684018,31.69111661,1.79103286,-0.76152394,2.31566095

>  <Name>
ligand

>  <RI>
0

>  <Rbt.Current_Directory>
/home/itssahil/PROJECTS/Mol_Feturizer/New_Systems/rnas/3GX3

>  <Rbt.Executable>
rbdock ($Id: //depot/dev/client3/rdock/2013.1/src/exe/rbdock.cxx#4 $)

>  <Rbt.Library>
libRbt.so (2013.1, Build901 2013/11/27)

>  <Rbt.Parameter_File>
/export/apps/rDock/src/rDock_2013.1_src/data/scripts/dock_solv.prm

>  <Rbt.Receptor>
prm/pocket_docking_4.prm

>  <SCORE>
-16.6901

>  <SCORE.INTER>
-13.5016

>  <SCORE.INTER.CONST>
1

>  <SCORE.INTER.POLAR>
0

>  <SCORE.INTER.ROT>
7

>  <SCORE.INTER.SOLV>
11.9305

>  <SCORE.INTER.VDW>
-21.2445

>  <SCORE.INTER.norm>
-0.519292

>  <SCORE.INTRA>
-3.18847

>  <SCORE.INTRA.DIHEDRAL>
-0.727855

>  <SCORE.INTRA.DIHEDRAL.0>
5.78979

>  <SCORE.INTRA.POLAR>
0

>  <SCORE.INTRA.POLAR.0>
0

>  <SCORE.INTRA.REPUL>
0

>  <SCORE.INTRA.REPUL.0>
0

>  <SCORE.INTRA.SOLV>
-0.149759

>  <SCORE.INTRA.SOLV.lig_0>
-49.9151

>  <SCORE.INTRA.VDW>
-2.74966

>  <SCORE.INTRA.VDW.0>
-0.211125

>  <SCORE.INTRA.norm>
-0.122633

>  <SCORE.RESTR>
0

>  <SCORE.RESTR.CAVITY>
0

>  <SCORE.RESTR.norm>
0

>  <SCORE.SYSTEM>
0

>  <SCORE.SYSTEM.CONST>
0

>  <SCORE.SYSTEM.DIHEDRAL>
0

>  <SCORE.SYSTEM.SOLV>
0

>  <SCORE.SYSTEM.norm>
0

>  <SCORE.heavy>
26

>  <SCORE.norm>
-0.641925

>  <RMSD>
6.058

$$$$
ligand
 OpenBabel11021811483D
libRbt.so/2013.1/901 2013/11/27
 26 28  0  0  0  0  0  0  0  0999 V2000
   46.9948   58.8771   30.1287 N   0  0  0  0  0  0  0  0  0  0  0  0
   46.5695   59.3174   31.4603 C   0  0  2  0  0  0  0  0  0  0  0  0
   45.7539   60.6123   31.4623 C   0  0  0  0  0  0  0  0  0  0  0  0
   44.6509   60.6033   32.0094 O   0  0  0  0  0  0  0  0  0  0  0  0
   47.7066   59.5069   32.4726 C   0  0  0  0  0  0  0  0  0  0  0  0
   48.2840   58.3260   33.2334 C   0  0  0  0  0  0  0  0  0  0  0  0
   48.7491   57.0946   31.9944 S   0  0  0  0  0  0  0  0  0  0  0  0
   48.2364   55.8417   33.1938 C   0  0  0  0  0  0  0  0  0  0  0  0
   46.8625   55.2226   32.9158 C   0  0  1  0  0  0  0  0  0  0  0  0
   46.7034   53.9205   33.4904 O   0  0  0  0  0  0  0  0  0  0  0  0
   45.7507   56.0982   33.4755 C   0  0  1  0  0  0  0  0  0  0  0  0
   45.2765   57.0086   32.5082 O   0  0  0  0  0  0  0  0  0  0  0  0
   44.6883   55.1128   33.9448 C   0  0  1  0  0  0  0  0  0  0  0  0
   43.7395   54.8469   32.9315 O   0  0  0  0  0  0  0  0  0  0  0  0
   45.4723   53.8386   34.1899 C   0  0  2  0  0  0  0  0  0  0  0  0
   46.1604   61.6643   30.9533 O   0  0  0  0  0  0  0  0  0  0  0  0
   48.7140   54.4613   38.2791 N   0  0  0  0  0  0  0  0  0  0  0  0
   48.8953   54.8698   36.9818 C   0  0  0  0  0  0  0  0  0  0  0  0
   47.9313   54.5971   36.0340 N   0  0  0  0  0  0  0  0  0  0  0  0
   46.7911   53.9650   36.3639 C   0  0  0  0  0  0  0  0  0  0  0  0
   46.5880   53.5462   37.6678 C   0  0  0  0  0  0  0  0  0  0  0  0
   47.5602   53.7986   38.6152 C   0  0  0  0  0  0  0  0  0  0  0  0
   47.3823   53.4195   39.8659 N   0  0  0  0  0  0  0  0  0  0  0  0
   45.3807   52.9423   37.7368 N   0  0  0  0  0  0  0  0  0  0  0  0
   44.8310   52.9505   36.4961 C   0  0  0  0  0  0  0  0  0  0  0  0
   45.6963   53.5854   35.6322 N   0  0  0  0  0  0  0  0  0  0  0  0
  2  1  1  6  0  0  0
  2  3  1  0  0  0  0
  2  5  1  0  0  0  0
  3  4  1  0  0  0  0
  3 16  1  0  0  0  0
  5  6  1  0  0  0  0
  6  7  1  0  0  0  0
  7  8  1  0  0  0  0
  9  8  1  1  0  0  0
  9 10  1  0  0  0  0
  9 11  1  0  0  0  0
 10 15  1  0  0  0  0
 11 12  1  6  0  0  0
 11 13  1  0  0  0  0
 13 14  1  6  0  0  0
 13 15  1  0  0  0  0
 15 26  1  1  0  0  0
 17 18  2  0  0  0  0
 17 22  1  0  0  0  0
 18 19  1  0  0  0  0
 19 20  2  0  0  0  0
 20 21  1  0  0  0  0
 20 26  1  0  0  0  0
 21 22  2  0  0  0  0
 21 24  1  0  0  0  0
 22 23  1  0  0  0  0
 24 25  2  0  0  0  0
 25 26  1  0  0  0  0
M  END
>  <CHROM.1>
125.58845220,-82.12184678,53.15643498,-144.44695394,102.18331870,155.99377215
28.72250470,46.66589980,56.13104673,34.17319122,-1.60755280,0.46425417,2.36926713

>  <Name>
ligand

>  <RI>
0

>  <Rbt.Current_Directory>
/home/itssahil/PROJECTS/Mol_Feturizer/New_Systems/rnas/3GX3

>  <Rbt.Executable>
rbdock ($Id: //depot/dev/client3/rdock/2013.1/src/exe/rbdock.cxx#4 $)

>  <Rbt.Library>
libRbt.so (2013.1, Build901 2013/11/27)

>  <Rbt.Parameter_File>
/export/apps/rDock/src/rDock_2013.1_src/data/scripts/dock_solv.prm

>  <Rbt.Receptor>
prm/pocket_docking_7.prm

>  <SCORE>
-21.6

>  <SCORE.INTER>
-21.0084

>  <SCORE.INTER.CONST>
1

>  <SCORE.INTER.POLAR>
0

>  <SCORE.INTER.ROT>
7

>  <SCORE.INTER.SOLV>
10.6091

>  <SCORE.INTER.VDW>
-25.8086

>  <SCORE.INTER.norm>
-0.808016

>  <SCORE.INTRA>
-0.591568

>  <SCORE.INTRA.DIHEDRAL>
4.15469

>  <SCORE.INTRA.DIHEDRAL.0>
5.78979

>  <SCORE.INTRA.POLAR>
0

>  <SCORE.INTRA.POLAR.0>
0

>  <SCORE.INTRA.REPUL>
0

>  <SCORE.INTRA.REPUL.0>
0

>  <SCORE.INTRA.SOLV>
2.14782

>  <SCORE.INTRA.SOLV.lig_0>
-49.9151

>  <SCORE.INTRA.VDW>
-3.74282

>  <SCORE.INTRA.VDW.0>
-0.211125

>  <SCORE.INTRA.norm>
-0.0227526

>  <SCORE.RESTR>
0

>  <SCORE.RESTR.CAVITY>
0

>  <SCORE.RESTR.norm>
0

>  <SCORE.SYSTEM>
0

>  <SCORE.SYSTEM.CONST>
0

>  <SCORE.SYSTEM.DIHEDRAL>
0

>  <SCORE.SYSTEM.SOLV>
0

>  <SCORE.SYSTEM.norm>
0

>  <SCORE.heavy>
26

>  <SCORE.norm>
-0.830769

>  <RMSD>
6.066

$$$$
ligand
 OpenBabel11021811483D
libRbt.so/2013.1/901 2013/11/27
 26 28  0  0  0  0  0  0  0  0999 V2000
   44.9918   52.4868   35.8157 N   0  0  0  0  0  0  0  0  0  0  0  0
   45.5230   53.2251   34.6666 C   0  0  2  0  0  0  0  0  0  0  0  0
   47.0452   53.3826   34.6712 C   0  0  0  0  0  0  0  0  0  0  0  0
   47.5732   53.8952   35.6584 O   0  0  0  0  0  0  0  0  0  0  0  0
   44.9318   54.6269   34.4690 C   0  0  0  0  0  0  0  0  0  0  0  0
   45.3287   55.4849   33.2803 C   0  0  0  0  0  0  0  0  0  0  0  0
   44.4885   57.0718   33.4890 S   0  0  0  0  0  0  0  0  0  0  0  0
   45.6654   57.7383   32.2882 C   0  0  0  0  0  0  0  0  0  0  0  0
   47.1052   57.8428   32.8025 C   0  0  1  0  0  0  0  0  0  0  0  0
   47.8580   56.6379   32.6219 O   0  0  0  0  0  0  0  0  0  0  0  0
   47.8577   58.9532   32.0837 C   0  0  1  0  0  0  0  0  0  0  0  0
   47.7666   60.1738   32.7846 O   0  0  0  0  0  0  0  0  0  0  0  0
   49.2845   58.4333   31.9659 C   0  0  1  0  0  0  0  0  0  0  0  0
   50.0785   58.8354   33.0638 O   0  0  0  0  0  0  0  0  0  0  0  0
   49.1191   56.9282   32.0416 C   0  0  2  0  0  0  0  0  0  0  0  0
   47.7635   53.0056   33.7369 O   0  0  0  0  0  0  0  0  0  0  0  0
   48.1963   57.3070   26.8819 N   0  0  0  0  0  0  0  0  0  0  0  0
   47.8717   58.2014   27.8705 C   0  0  0  0  0  0  0  0  0  0  0  0
   48.1823   57.9173   29.1838 N   0  0  0  0  0  0  0  0  0  0  0  0
   48.8339   56.7886   29.5156 C   0  0  0  0  0  0  0  0  0  0  0  0
   49.1720   55.8740   28.5328 C   0  0  0  0  0  0  0  0  0  0  0  0
   48.8439   56.1450   27.2193 C   0  0  0  0  0  0  0  0  0  0  0  0
   49.1671   55.2936   26.2653 N   0  0  0  0  0  0  0  0  0  0  0  0
   49.8100   54.8367   29.1192 N   0  0  0  0  0  0  0  0  0  0  0  0
   49.8577   55.0689   30.4553 C   0  0  0  0  0  0  0  0  0  0  0  0
   49.2561   56.2806   30.7163 N   0  0  0  0  0  0  0  0  0  0  0  0
  2  1  1  1  0  0  0
  2  3  1  0  0  0  0
  2  5  1  0  0  0  0
  3  4  1  0  0  0  0
  3 16  1  0  0  0  0
  5  6  1  0  0  0  0
  6  7  1  0  0  0  0
  7  8  1  0  0  0  0
  9  8  1  6  0  0  0
  9 10  1  0  0  0  0
  9 11  1  0  0  0  0
 10 15  1  0  0  0  0
 11 12  1  1  0  0  0
 11 13  1  0  0  0  0
 13 14  1  1  0  0  0
 13 15  1  0  0  0  0
 15 26  1  6  0  0  0
 17 18  2  0  0  0  0
 17 22  1  0  0  0  0
 18 19  1  0  0  0  0
 19 20  2  0  0  0  0
 20 21  1  0  0  0  0
 20 26  1  0  0  0  0
 21 22  2  0  0  0  0
 21 24  1  0  0  0  0
 22 23  1  0  0  0  0
 24 25  2  0  0  0  0
 25 26  1  0  0  0  0
M  END
>  <CHROM.1>
-55.37087365,-176.76699165,-176.61767000,162.62930195,-69.72114520,86.75697667
85.99789603,47.57995125,56.29391042,31.77420703,-2.78881908,1.10376747,-0.01408776

>  <Name>
ligand

>  <RI>
0

>  <Rbt.Current_Directory>
/home/itssahil/PROJECTS/Mol_Feturizer/New_Systems/rnas/3GX3

>  <Rbt.Executable>
rbdock ($Id: //depot/dev/client3/rdock/2013.1/src/exe/rbdock.cxx#4 $)

>  <Rbt.Library>
libRbt.so (2013.1, Build901 2013/11/27)

>  <Rbt.Parameter_File>
/export/apps/rDock/src/rDock_2013.1_src/data/scripts/dock_solv.prm

>  <Rbt.Receptor>
prm/pocket_docking_8.prm

>  <SCORE>
-18.3926

>  <SCORE.INTER>
-15.8607

>  <SCORE.INTER.CONST>
1

>  <SCORE.INTER.POLAR>
0

>  <SCORE.INTER.ROT>
7

>  <SCORE.INTER.SOLV>
14.4746

>  <SCORE.INTER.VDW>
-23.6653

>  <SCORE.INTER.norm>
-0.610025

>  <SCORE.INTRA>
-2.53192

>  <SCORE.INTRA.DIHEDRAL>
-0.0482199

>  <SCORE.INTRA.DIHEDRAL.0>
5.78979

>  <SCORE.INTRA.POLAR>
0

>  <SCORE.INTRA.POLAR.0>
0

>  <SCORE.INTRA.REPUL>
0

>  <SCORE.INTRA.REPUL.0>
0

>  <SCORE.INTRA.SOLV>
-0.966835

>  <SCORE.INTRA.SOLV.lig_0>
-49.9151

>  <SCORE.INTRA.VDW>
-2.02439

>  <SCORE.INTRA.VDW.0>
-0.211125

>  <SCORE.INTRA.norm>
-0.0973815

>  <SCORE.RESTR>
0

>  <SCORE.RESTR.CAVITY>
0

>  <SCORE.RESTR.norm>
0

>  <SCORE.SYSTEM>
0

>  <SCORE.SYSTEM.CONST>
0

>  <SCORE.SYSTEM.DIHEDRAL>
0

>  <SCORE.SYSTEM.SOLV>
0

>  <SCORE.SYSTEM.norm>
0

>  <SCORE.heavy>
26

>  <SCORE.norm>
-0.707407

>  <RMSD>
6.079

$$$$
ligand
 OpenBabel11021811483D
libRbt.so/2013.1/901 2013/11/27
 26 28  0  0  0  0  0  0  0  0999 V2000
   49.0035   59.0977   30.7694 N   0  0  0  0  0  0  0  0  0  0  0  0
   48.5967   59.1401   32.1767 C   0  0  2  0  0  0  0  0  0  0  0  0
   49.1972   58.0263   33.0373 C   0  0  0  0  0  0  0  0  0  0  0  0
   49.4912   56.9635   32.4896 O   0  0  0  0  0  0  0  0  0  0  0  0
   47.0810   59.1160   32.4129 C   0  0  0  0  0  0  0  0  0  0  0  0
   46.1968   58.0895   31.7266 C   0  0  0  0  0  0  0  0  0  0  0  0
   44.5413   58.2889   32.4246 S   0  0  0  0  0  0  0  0  0  0  0  0
   44.9213   56.8647   33.4727 C   0  0  0  0  0  0  0  0  0  0  0  0
   44.0320   55.6412   33.2265 C   0  0  1  0  0  0  0  0  0  0  0  0
   44.0268   55.2128   31.8600 O   0  0  0  0  0  0  0  0  0  0  0  0
   44.4941   54.4583   34.0651 C   0  0  1  0  0  0  0  0  0  0  0  0
   43.8181   54.4092   35.3020 O   0  0  0  0  0  0  0  0  0  0  0  0
   44.2300   53.2417   33.1875 C   0  0  1  0  0  0  0  0  0  0  0  0
   42.9487   52.6948   33.4260 O   0  0  0  0  0  0  0  0  0  0  0  0
   44.2351   53.8121   31.7828 C   0  0  2  0  0  0  0  0  0  0  0  0
   49.4115   58.1537   34.2492 O   0  0  0  0  0  0  0  0  0  0  0  0
   46.3582   52.0215   27.3214 N   0  0  0  0  0  0  0  0  0  0  0  0
   45.0293   52.1578   27.6346 C   0  0  0  0  0  0  0  0  0  0  0  0
   44.6606   52.6333   28.8755 N   0  0  0  0  0  0  0  0  0  0  0  0
   45.5838   53.0032   29.7808 C   0  0  0  0  0  0  0  0  0  0  0  0
   46.9299   52.8751   29.4837 C   0  0  0  0  0  0  0  0  0  0  0  0
   47.3030   52.3794   28.2502 C   0  0  0  0  0  0  0  0  0  0  0  0
   48.5797   52.2606   27.9413 N   0  0  0  0  0  0  0  0  0  0  0  0
   47.6427   53.3078   30.5475 N   0  0  0  0  0  0  0  0  0  0  0  0
   46.7712   53.6821   31.5180 C   0  0  0  0  0  0  0  0  0  0  0  0
   45.4866   53.5000   31.0543 N   0  0  0  0  0  0  0  0  0  0  0  0
  2  1  1  6  0  0  0
  2  3  1  0  0  0  0
  2  5  1  0  0  0  0
  3  4  1  0  0  0  0
  3 16  1  0  0  0  0
  5  6  1  0  0  0  0
  6  7  1  0  0  0  0
  7  8  1  0  0  0  0
  9  8  1  6  0  0  0
  9 10  1  0  0  0  0
  9 11  1  0  0  0  0
 10 15  1  0  0  0  0
 11 12  1  1  0  0  0
 11 13  1  0  0  0  0
 13 14  1  1  0  0  0
 13 15  1  0  0  0  0
 15 26  1  1  0  0  0
 17 18  2  0  0  0  0
 17 22  1  0  0  0  0
 18 19  1  0  0  0  0
 19 20  2  0  0  0  0
 20 21  1  0  0  0  0
 20 26  1  0  0  0  0
 21 22  2  0  0  0  0
 21 24  1  0  0  0  0
 22 23  1  0  0  0  0
 24 25  2  0  0  0  0
 25 26  1  0  0  0  0
M  END
>  <CHROM.1>
-27.71489957,48.99610934,173.47158200,-99.85497911,-116.41353409,54.89434282
-105.92081832,46.08480140,55.24856478,31.59126845,-1.30244499,-0.59287749
-2.43693281

>  <Name>
ligand

>  <RI>
0

>  <Rbt.Current_Directory>
/home/itssahil/PROJECTS/Mol_Feturizer/New_Systems/rnas/3GX3

>  <Rbt.Executable>
rbdock ($Id: //depot/dev/client3/rdock/2013.1/src/exe/rbdock.cxx#4 $)

>  <Rbt.Library>
libRbt.so (2013.1, Build901 2013/11/27)

>  <Rbt.Parameter_File>
/export/apps/rDock/src/rDock_2013.1_src/data/scripts/dock_solv.prm

>  <Rbt.Receptor>
prm/pocket_docking_6.prm

>  <SCORE>
-15.0452

>  <SCORE.INTER>
-13.2929

>  <SCORE.INTER.CONST>
1

>  <SCORE.INTER.POLAR>
0

>  <SCORE.INTER.ROT>
7

>  <SCORE.INTER.SOLV>
15.6267

>  <SCORE.INTER.VDW>
-22.3375

>  <SCORE.INTER.norm>
-0.511266

>  <SCORE.INTRA>
-1.75232

>  <SCORE.INTRA.DIHEDRAL>
1.93242

>  <SCORE.INTRA.DIHEDRAL.0>
5.78979

>  <SCORE.INTRA.POLAR>
0

>  <SCORE.INTRA.POLAR.0>
0

>  <SCORE.INTRA.REPUL>
0

>  <SCORE.INTRA.REPUL.0>
0

>  <SCORE.INTRA.SOLV>
-0.398297

>  <SCORE.INTRA.SOLV.lig_0>
-49.9151

>  <SCORE.INTRA.VDW>
-2.51938

>  <SCORE.INTRA.VDW.0>
-0.211125

>  <SCORE.INTRA.norm>
-0.0673968

>  <SCORE.RESTR>
0

>  <SCORE.RESTR.CAVITY>
0

>  <SCORE.RESTR.norm>
0

>  <SCORE.SYSTEM>
0

>  <SCORE.SYSTEM.CONST>
0

>  <SCORE.SYSTEM.DIHEDRAL>
0

>  <SCORE.SYSTEM.SOLV>
0

>  <SCORE.SYSTEM.norm>
0

>  <SCORE.heavy>
26

>  <SCORE.norm>
-0.578663

>  <RMSD>
6.082

$$$$
ligand
 OpenBabel11021811483D
libRbt.so/2013.1/901 2013/11/27
 26 28  0  0  0  0  0  0  0  0999 V2000
   47.0716   53.0358   35.2779 N   0  0  0  0  0  0  0  0  0  0  0  0
   46.5818   54.3636   34.8974 C   0  0  2  0  0  0  0  0  0  0  0  0
   45.2084   54.3562   34.2226 C   0  0  0  0  0  0  0  0  0  0  0  0
   44.5272   55.3803   34.2802 O   0  0  0  0  0  0  0  0  0  0  0  0
   47.5211   55.1624   33.9845 C   0  0  0  0  0  0  0  0  0  0  0  0
   48.8792   55.6327   34.4756 C   0  0  0  0  0  0  0  0  0  0  0  0
   49.7331   56.3241   33.0402 S   0  0  0  0  0  0  0  0  0  0  0  0
   49.0713   57.9295   33.5464 C   0  0  0  0  0  0  0  0  0  0  0  0
   48.3803   58.7124   32.4249 C   0  0  1  0  0  0  0  0  0  0  0  0
   49.1669   58.8020   31.2315 O   0  0  0  0  0  0  0  0  0  0  0  0
   47.0596   58.0598   32.0430 C   0  0  1  0  0  0  0  0  0  0  0  0
   45.9843   58.6099   32.7714 O   0  0  0  0  0  0  0  0  0  0  0  0
   46.9439   58.2826   30.5406 C   0  0  1  0  0  0  0  0  0  0  0  0
   46.2475   59.4758   30.2425 O   0  0  0  0  0  0  0  0  0  0  0  0
   48.3828   58.4644   30.0990 C   0  0  2  0  0  0  0  0  0  0  0  0
   44.7633   53.3755   33.6134 O   0  0  0  0  0  0  0  0  0  0  0  0
   48.5466   55.6693   25.6517 N   0  0  0  0  0  0  0  0  0  0  0  0
   47.8592   56.8305   25.9000 C   0  0  0  0  0  0  0  0  0  0  0  0
   47.9241   57.4146   27.1476 N   0  0  0  0  0  0  0  0  0  0  0  0
   48.6816   56.8852   28.1246 C   0  0  0  0  0  0  0  0  0  0  0  0
   49.3844   55.7149   27.8938 C   0  0  0  0  0  0  0  0  0  0  0  0
   49.3051   55.1156   26.6524 C   0  0  0  0  0  0  0  0  0  0  0  0
   49.9760   54.0069   26.4067 N   0  0  0  0  0  0  0  0  0  0  0  0
   50.0572   55.3940   29.0214 N   0  0  0  0  0  0  0  0  0  0  0  0
   49.7715   56.3261   29.9653 C   0  0  0  0  0  0  0  0  0  0  0  0
   48.9185   57.2611   29.4210 N   0  0  0  0  0  0  0  0  0  0  0  0
  2  1  1  6  0  0  0
  2  3  1  0  0  0  0
  2  5  1  0  0  0  0
  3  4  1  0  0  0  0
  3 16  1  0  0  0  0
  5  6  1  0  0  0  0
  6  7  1  0  0  0  0
  7  8  1  0  0  0  0
  9  8  1  1  0  0  0
  9 10  1  0  0  0  0
  9 11  1  0  0  0  0
 10 15  1  0  0  0  0
 11 12  1  1  0  0  0
 11 13  1  0  0  0  0
 13 14  1  1  0  0  0
 13 15  1  0  0  0  0
 15 26  1  1  0  0  0
 17 18  2  0  0  0  0
 17 22  1  0  0  0  0
 18 19  1  0  0  0  0
 19 20  2  0  0  0  0
 20 21  1  0  0  0  0
 20 26  1  0  0  0  0
 21 22  2  0  0  0  0
 21 24  1  0  0  0  0
 22 23  1  0  0  0  0
 24 25  2  0  0  0  0
 25 26  1  0  0  0  0
M  END
>  <CHROM.1>
155.69237442,-65.67217720,172.55227691,93.22616371,-130.18567328,-49.65034480
-159.40099369,47.95260333,56.42396782,31.07715418,-3.13298473,1.26115567
0.14319849

>  <Name>
ligand

>  <RI>
0

>  <Rbt.Current_Directory>
/home/itssahil/PROJECTS/Mol_Feturizer/New_Systems/rnas/3GX3

>  <Rbt.Executable>
rbdock ($Id: //depot/dev/client3/rdock/2013.1/src/exe/rbdock.cxx#4 $)

>  <Rbt.Library>
libRbt.so (2013.1, Build901 2013/11/27)

>  <Rbt.Parameter_File>
/export/apps/rDock/src/rDock_2013.1_src/data/scripts/dock_solv.prm

>  <Rbt.Receptor>
prm/pocket_docking_6.prm

>  <SCORE>
-17.701

>  <SCORE.INTER>
-15.1989

>  <SCORE.INTER.CONST>
1

>  <SCORE.INTER.POLAR>
0

>  <SCORE.INTER.ROT>
7

>  <SCORE.INTER.SOLV>
10.4442

>  <SCORE.INTER.VDW>
-21.8807

>  <SCORE.INTER.norm>
-0.584573

>  <SCORE.INTRA>
-2.50212

>  <SCORE.INTRA.DIHEDRAL>
1.39885

>  <SCORE.INTRA.DIHEDRAL.0>
5.78979

>  <SCORE.INTRA.POLAR>
0

>  <SCORE.INTRA.POLAR.0>
0

>  <SCORE.INTRA.REPUL>
0

>  <SCORE.INTRA.REPUL.0>
0

>  <SCORE.INTRA.SOLV>
-0.174186

>  <SCORE.INTRA.SOLV.lig_0>
-49.9151

>  <SCORE.INTRA.VDW>
-3.11445

>  <SCORE.INTRA.VDW.0>
-0.211125

>  <SCORE.INTRA.norm>
-0.0962353

>  <SCORE.RESTR>
0

>  <SCORE.RESTR.CAVITY>
0

>  <SCORE.RESTR.norm>
0

>  <SCORE.SYSTEM>
0

>  <SCORE.SYSTEM.CONST>
0

>  <SCORE.SYSTEM.DIHEDRAL>
0

>  <SCORE.SYSTEM.SOLV>
0

>  <SCORE.SYSTEM.norm>
0

>  <SCORE.heavy>
26

>  <SCORE.norm>
-0.680808

>  <RMSD>
6.100

$$$$
ligand
 OpenBabel11021811483D
libRbt.so/2013.1/901 2013/11/27
 26 28  0  0  0  0  0  0  0  0999 V2000
   48.6108   54.3571   35.3329 N   0  0  0  0  0  0  0  0  0  0  0  0
   48.3387   54.6544   33.9239 C   0  0  2  0  0  0  0  0  0  0  0  0
   48.6018   53.4842   32.9735 C   0  0  0  0  0  0  0  0  0  0  0  0
   48.8014   52.3720   33.4628 O   0  0  0  0  0  0  0  0  0  0  0  0
   49.0959   55.8637   33.3601 C   0  0  0  0  0  0  0  0  0  0  0  0
   48.8828   57.2564   33.9272 C   0  0  0  0  0  0  0  0  0  0  0  0
   49.7743   58.3947   32.8424 S   0  0  0  0  0  0  0  0  0  0  0  0
   48.3972   59.5424   33.0825 C   0  0  0  0  0  0  0  0  0  0  0  0
   47.5235   59.7528   31.8412 C   0  0  1  0  0  0  0  0  0  0  0  0
   48.2532   59.6497   30.6132 O   0  0  0  0  0  0  0  0  0  0  0  0
   46.4048   58.7227   31.7855 C   0  0  1  0  0  0  0  0  0  0  0  0
   45.2320   59.2027   32.4048 O   0  0  0  0  0  0  0  0  0  0  0  0
   46.2250   58.4342   30.3007 C   0  0  1  0  0  0  0  0  0  0  0  0
   45.2502   59.2768   29.7199 O   0  0  0  0  0  0  0  0  0  0  0  0
   47.5692   58.8027   29.7043 C   0  0  2  0  0  0  0  0  0  0  0  0
   48.6078   53.6056   31.7422 O   0  0  0  0  0  0  0  0  0  0  0  0
   49.0201   55.4079   25.9642 N   0  0  0  0  0  0  0  0  0  0  0  0
   48.1553   56.4680   25.8597 C   0  0  0  0  0  0  0  0  0  0  0  0
   47.8809   57.2432   26.9668 N   0  0  0  0  0  0  0  0  0  0  0  0
   48.4750   57.0022   28.1489 C   0  0  0  0  0  0  0  0  0  0  0  0
   49.3521   55.9384   28.2749 C   0  0  0  0  0  0  0  0  0  0  0  0
   49.6132   55.1470   27.1740 C   0  0  0  0  0  0  0  0  0  0  0  0
   50.4548   54.1359   27.2682 N   0  0  0  0  0  0  0  0  0  0  0  0
   49.8061   55.9106   29.5478 N   0  0  0  0  0  0  0  0  0  0  0  0
   49.2124   56.9210   30.2318 C   0  0  0  0  0  0  0  0  0  0  0  0
   48.3832   57.6099   29.3739 N   0  0  0  0  0  0  0  0  0  0  0  0
  2  1  1  1  0  0  0
  2  3  1  0  0  0  0
  2  5  1  0  0  0  0
  3  4  1  0  0  0  0
  3 16  1  0  0  0  0
  5  6  1  0  0  0  0
  6  7  1  0  0  0  0
  7  8  1  0  0  0  0
  9  8  1  1  0  0  0
  9 10  1  0  0  0  0
  9 11  1  0  0  0  0
 10 15  1  0  0  0  0
 11 12  1  6  0  0  0
 11 13  1  0  0  0  0
 13 14  1  6  0  0  0
 13 15  1  0  0  0  0
 15 26  1  1  0  0  0
 17 18  2  0  0  0  0
 17 22  1  0  0  0  0
 18 19  1  0  0  0  0
 19 20  2  0  0  0  0
 20 21  1  0  0  0  0
 20 26  1  0  0  0  0
 21 22  2  0  0  0  0
 21 24  1  0  0  0  0
 22 23  1  0  0  0  0
 24 25  2  0  0  0  0
 25 26  1  0  0  0  0
M  END
>  <CHROM.1>
11.21906956,-61.99685120,-172.28451939,141.97522620,-110.23444601,-31.87709053
-142.03889318,48.34221595,56.83033790,30.78921535,-1.66549263,1.17332035
-1.45944075

>  <Name>
ligand

>  <RI>
0

>  <Rbt.Current_Directory>
/home/itssahil/PROJECTS/Mol_Feturizer/New_Systems/rnas/3GX3

>  <Rbt.Executable>
rbdock ($Id: //depot/dev/client3/rdock/2013.1/src/exe/rbdock.cxx#4 $)

>  <Rbt.Library>
libRbt.so (2013.1, Build901 2013/11/27)

>  <Rbt.Parameter_File>
/export/apps/rDock/src/rDock_2013.1_src/data/scripts/dock_solv.prm

>  <Rbt.Receptor>
prm/pocket_docking_3.prm

>  <SCORE>
-16.935

>  <SCORE.INTER>
-15.564

>  <SCORE.INTER.CONST>
1

>  <SCORE.INTER.POLAR>
0

>  <SCORE.INTER.ROT>
7

>  <SCORE.INTER.SOLV>
13.2812

>  <SCORE.INTER.VDW>
-23.0697

>  <SCORE.INTER.norm>
-0.598616

>  <SCORE.INTRA>
-1.51804

>  <SCORE.INTRA.DIHEDRAL>
3.61422

>  <SCORE.INTRA.DIHEDRAL.0>
5.78979

>  <SCORE.INTRA.POLAR>
0

>  <SCORE.INTRA.POLAR.0>
0

>  <SCORE.INTRA.REPUL>
0

>  <SCORE.INTRA.REPUL.0>
0

>  <SCORE.INTRA.SOLV>
-0.219824

>  <SCORE.INTRA.SOLV.lig_0>
-49.9151

>  <SCORE.INTRA.VDW>
-3.21524

>  <SCORE.INTRA.VDW.0>
-0.211125

>  <SCORE.INTRA.norm>
-0.0583861

>  <SCORE.RESTR>
0.147043

>  <SCORE.RESTR.CAVITY>
0.147043

>  <SCORE.RESTR.norm>
0.00565549

>  <SCORE.SYSTEM>
0

>  <SCORE.SYSTEM.CONST>
0

>  <SCORE.SYSTEM.DIHEDRAL>
0

>  <SCORE.SYSTEM.SOLV>
0

>  <SCORE.SYSTEM.norm>
0

>  <SCORE.heavy>
26

>  <SCORE.norm>
-0.651347

>  <RMSD>
6.122

$$$$
ligand
 OpenBabel11021811483D
libRbt.so/2013.1/901 2013/11/27
 26 28  0  0  0  0  0  0  0  0999 V2000
   47.4677   53.7388   32.2474 N   0  0  0  0  0  0  0  0  0  0  0  0
   47.9375   53.8271   33.6328 C   0  0  2  0  0  0  0  0  0  0  0  0
   46.9484   53.2842   34.6665 C   0  0  0  0  0  0  0  0  0  0  0  0
   45.8300   53.7959   34.7252 O   0  0  0  0  0  0  0  0  0  0  0  0
   48.3327   55.2362   34.0931 C   0  0  0  0  0  0  0  0  0  0  0  0
   49.2916   56.0870   33.2787 C   0  0  0  0  0  0  0  0  0  0  0  0
   49.3080   57.7224   34.0487 S   0  0  0  0  0  0  0  0  0  0  0  0
   49.4956   58.3949   32.3802 C   0  0  0  0  0  0  0  0  0  0  0  0
   48.2182   59.0082   31.7966 C   0  0  1  0  0  0  0  0  0  0  0  0
   48.3523   59.3907   30.4230 O   0  0  0  0  0  0  0  0  0  0  0  0
   47.0597   58.0246   31.8768 C   0  0  1  0  0  0  0  0  0  0  0  0
   46.3200   58.1968   33.0653 O   0  0  0  0  0  0  0  0  0  0  0  0
   46.2447   58.2913   30.6180 C   0  0  1  0  0  0  0  0  0  0  0  0
   45.2290   59.2471   30.8470 O   0  0  0  0  0  0  0  0  0  0  0  0
   47.2533   58.9069   29.6683 C   0  0  2  0  0  0  0  0  0  0  0  0
   47.2190   52.3492   35.4305 O   0  0  0  0  0  0  0  0  0  0  0  0
   50.1207   54.6306   28.6148 N   0  0  0  0  0  0  0  0  0  0  0  0
   49.9595   55.2697   29.8182 C   0  0  0  0  0  0  0  0  0  0  0  0
   49.1741   56.4006   29.8964 N   0  0  0  0  0  0  0  0  0  0  0  0
   48.5283   56.8746   28.8163 C   0  0  0  0  0  0  0  0  0  0  0  0
   48.6763   56.2433   27.5930 C   0  0  0  0  0  0  0  0  0  0  0  0
   49.4787   55.1231   27.5062 C   0  0  0  0  0  0  0  0  0  0  0  0
   49.6242   54.4986   26.3536 N   0  0  0  0  0  0  0  0  0  0  0  0
   47.9350   56.9086   26.6792 N   0  0  0  0  0  0  0  0  0  0  0  0
   47.3434   57.9612   27.2984 C   0  0  0  0  0  0  0  0  0  0  0  0
   47.7018   57.9516   28.6286 N   0  0  0  0  0  0  0  0  0  0  0  0
  2  1  1  6  0  0  0
  2  3  1  0  0  0  0
  2  5  1  0  0  0  0
  3  4  1  0  0  0  0
  3 16  1  0  0  0  0
  5  6  1  0  0  0  0
  6  7  1  0  0  0  0
  7  8  1  0  0  0  0
  9  8  1  6  0  0  0
  9 10  1  0  0  0  0
  9 11  1  0  0  0  0
 10 15  1  0  0  0  0
 11 12  1  1  0  0  0
 11 13  1  0  0  0  0
 13 14  1  1  0  0  0
 13 15  1  0  0  0  0
 15 26  1  6  0  0  0
 17 18  2  0  0  0  0
 17 22  1  0  0  0  0
 18 19  1  0  0  0  0
 19 20  2  0  0  0  0
 20 21  1  0  0  0  0
 20 26  1  0  0  0  0
 21 22  2  0  0  0  0
 21 24  1  0  0  0  0
 22 23  1  0  0  0  0
 24 25  2  0  0  0  0
 25 26  1  0  0  0  0
M  END
>  <CHROM.1>
-58.97117691,-51.03106137,172.66508944,-145.00707138,103.69764376,-173.14379563
49.80152207,48.05785115,56.50820687,31.17082131,-2.02795423,1.27563629,-0.78859009

>  <Name>
ligand

>  <RI>
0

>  <Rbt.Current_Directory>
/home/itssahil/PROJECTS/Mol_Feturizer/New_Systems/rnas/3GX3

>  <Rbt.Executable>
rbdock ($Id: //depot/dev/client3/rdock/2013.1/src/exe/rbdock.cxx#4 $)

>  <Rbt.Library>
libRbt.so (2013.1, Build901 2013/11/27)

>  <Rbt.Parameter_File>
/export/apps/rDock/src/rDock_2013.1_src/data/scripts/dock_solv.prm

>  <Rbt.Receptor>
prm/pocket_docking_3.prm

>  <SCORE>
-17.8173

>  <SCORE.INTER>
-14.9226

>  <SCORE.INTER.CONST>
1

>  <SCORE.INTER.POLAR>
0

>  <SCORE.INTER.ROT>
7

>  <SCORE.INTER.SOLV>
9.84786

>  <SCORE.INTER.VDW>
-21.4977

>  <SCORE.INTER.norm>
-0.573947

>  <SCORE.INTRA>
-3.04486

>  <SCORE.INTRA.DIHEDRAL>
1.13108

>  <SCORE.INTRA.DIHEDRAL.0>
5.78979

>  <SCORE.INTRA.POLAR>
0

>  <SCORE.INTRA.POLAR.0>
0

>  <SCORE.INTRA.REPUL>
0

>  <SCORE.INTRA.REPUL.0>
0

>  <SCORE.INTRA.SOLV>
0.413776

>  <SCORE.INTRA.SOLV.lig_0>
-49.9151

>  <SCORE.INTRA.VDW>
-3.81729

>  <SCORE.INTRA.VDW.0>
-0.211125

>  <SCORE.INTRA.norm>
-0.11711

>  <SCORE.RESTR>
0.150209

>  <SCORE.RESTR.CAVITY>
0.150209

>  <SCORE.RESTR.norm>
0.00577725

>  <SCORE.SYSTEM>
0

>  <SCORE.SYSTEM.CONST>
0

>  <SCORE.SYSTEM.DIHEDRAL>
0

>  <SCORE.SYSTEM.SOLV>
0

>  <SCORE.SYSTEM.norm>
0

>  <SCORE.heavy>
26

>  <SCORE.norm>
-0.68528

>  <RMSD>
6.127

$$$$
ligand
 OpenBabel11021811483D
libRbt.so/2013.1/901 2013/11/27
 26 28  0  0  0  0  0  0  0  0999 V2000
   46.3734   52.9260   36.6787 N   0  0  0  0  0  0  0  0  0  0  0  0
   46.6014   53.8658   35.5775 C   0  0  2  0  0  0  0  0  0  0  0  0
   45.3386   54.2353   34.7962 C   0  0  0  0  0  0  0  0  0  0  0  0
   44.5053   53.3531   34.5880 O   0  0  0  0  0  0  0  0  0  0  0  0
   47.6450   53.4144   34.5475 C   0  0  0  0  0  0  0  0  0  0  0  0
   48.2059   54.3846   33.5225 C   0  0  0  0  0  0  0  0  0  0  0  0
   49.0557   55.6805   34.4532 S   0  0  0  0  0  0  0  0  0  0  0  0
   49.5485   56.3659   32.8536 C   0  0  0  0  0  0  0  0  0  0  0  0
   48.8534   57.6813   32.4863 C   0  0  1  0  0  0  0  0  0  0  0  0
   49.4058   58.3056   31.3217 O   0  0  0  0  0  0  0  0  0  0  0  0
   47.3736   57.4540   32.2134 C   0  0  1  0  0  0  0  0  0  0  0  0
   46.6009   57.6423   33.3783 O   0  0  0  0  0  0  0  0  0  0  0  0
   47.0346   58.4388   31.1020 C   0  0  1  0  0  0  0  0  0  0  0  0
   46.5776   59.6721   31.6194 O   0  0  0  0  0  0  0  0  0  0  0  0
   48.3708   58.6861   30.4299 C   0  0  2  0  0  0  0  0  0  0  0  0
   45.1149   55.3791   34.3807 O   0  0  0  0  0  0  0  0  0  0  0  0
   50.3289   54.5006   27.9268 N   0  0  0  0  0  0  0  0  0  0  0  0
   50.4656   54.8399   29.2492 C   0  0  0  0  0  0  0  0  0  0  0  0
   49.8890   55.9989   29.7249 N   0  0  0  0  0  0  0  0  0  0  0  0
   49.1593   56.7929   28.9214 C   0  0  0  0  0  0  0  0  0  0  0  0
   49.0078   56.4674   27.5842 C   0  0  0  0  0  0  0  0  0  0  0  0
   49.6013   55.3188   27.0995 C   0  0  0  0  0  0  0  0  0  0  0  0
   49.4598   54.9830   25.8319 N   0  0  0  0  0  0  0  0  0  0  0  0
   48.2417   57.4157   27.0003 N   0  0  0  0  0  0  0  0  0  0  0  0
   47.9291   58.3450   27.9384 C   0  0  0  0  0  0  0  0  0  0  0  0
   48.4914   57.9697   29.1389 N   0  0  0  0  0  0  0  0  0  0  0  0
  2  1  1  1  0  0  0
  2  3  1  0  0  0  0
  2  5  1  0  0  0  0
  3  4  1  0  0  0  0
  3 16  1  0  0  0  0
  5  6  1  0  0  0  0
  6  7  1  0  0  0  0
  7  8  1  0  0  0  0
  9  8  1  6  0  0  0
  9 10  1  0  0  0  0
  9 11  1  0  0  0  0
 10 15  1  0  0  0  0
 11 12  1  1  0  0  0
 11 13  1  0  0  0  0
 13 14  1  1  0  0  0
 13 15  1  0  0  0  0
 15 26  1  6  0  0  0
 17 18  2  0  0  0  0
 17 22  1  0  0  0  0
 18 19  1  0  0  0  0
 19 20  2  0  0  0  0
 20 21  1  0  0  0  0
 20 26  1  0  0  0  0
 21 22  2  0  0  0  0
 21 24  1  0  0  0  0
 22 23  1  0  0  0  0
 24 25  2  0  0  0  0
 25 26  1  0  0  0  0
M  END
>  <CHROM.1>
-38.28716756,-166.96454876,62.15355463,176.36676607,109.38412179,170.98176785
21.49645672,48.03949530,56.14504782,31.57072145,-2.41777503,1.10731827,-0.47179057

>  <Name>
ligand

>  <RI>
0

>  <Rbt.Current_Directory>
/home/itssahil/PROJECTS/Mol_Feturizer/New_Systems/rnas/3GX3

>  <Rbt.Executable>
rbdock ($Id: //depot/dev/client3/rdock/2013.1/src/exe/rbdock.cxx#4 $)

>  <Rbt.Library>
libRbt.so (2013.1, Build901 2013/11/27)

>  <Rbt.Parameter_File>
/export/apps/rDock/src/rDock_2013.1_src/data/scripts/dock_solv.prm

>  <Rbt.Receptor>
prm/pocket_docking_4.prm

>  <SCORE>
-19.3485

>  <SCORE.INTER>
-15.5023

>  <SCORE.INTER.CONST>
1

>  <SCORE.INTER.POLAR>
0

>  <SCORE.INTER.ROT>
7

>  <SCORE.INTER.SOLV>
12.2236

>  <SCORE.INTER.VDW>
-22.6761

>  <SCORE.INTER.norm>
-0.596244

>  <SCORE.INTRA>
-3.84615

>  <SCORE.INTRA.DIHEDRAL>
0.129169

>  <SCORE.INTRA.DIHEDRAL.0>
5.78979

>  <SCORE.INTRA.POLAR>
0

>  <SCORE.INTRA.POLAR.0>
0

>  <SCORE.INTRA.REPUL>
0

>  <SCORE.INTRA.REPUL.0>
0

>  <SCORE.INTRA.SOLV>
-0.384947

>  <SCORE.INTRA.SOLV.lig_0>
-49.9151

>  <SCORE.INTRA.VDW>
-3.71826

>  <SCORE.INTRA.VDW.0>
-0.211125

>  <SCORE.INTRA.norm>
-0.147929

>  <SCORE.RESTR>
0

>  <SCORE.RESTR.CAVITY>
0

>  <SCORE.RESTR.norm>
0

>  <SCORE.SYSTEM>
0

>  <SCORE.SYSTEM.CONST>
0

>  <SCORE.SYSTEM.DIHEDRAL>
0

>  <SCORE.SYSTEM.SOLV>
0

>  <SCORE.SYSTEM.norm>
0

>  <SCORE.heavy>
26

>  <SCORE.norm>
-0.744173

>  <RMSD>
6.142

$$$$
ligand
 OpenBabel11021811483D
libRbt.so/2013.1/901 2013/11/27
 26 28  0  0  0  0  0  0  0  0999 V2000
   48.6918   53.2502   33.4229 N   0  0  0  0  0  0  0  0  0  0  0  0
   48.2886   54.0939   34.5514 C   0  0  2  0  0  0  0  0  0  0  0  0
   46.7813   54.3418   34.6425 C   0  0  0  0  0  0  0  0  0  0  0  0
   46.1899   53.9605   35.6529 O   0  0  0  0  0  0  0  0  0  0  0  0
   48.9691   55.4678   34.6071 C   0  0  0  0  0  0  0  0  0  0  0  0
   49.0606   56.3482   33.3729 C   0  0  0  0  0  0  0  0  0  0  0  0
   49.3467   58.0325   33.9636 S   0  0  0  0  0  0  0  0  0  0  0  0
   49.3569   58.5324   32.2253 C   0  0  0  0  0  0  0  0  0  0  0  0
   47.9919   58.9699   31.6835 C   0  0  1  0  0  0  0  0  0  0  0  0
   48.0461   59.4439   30.3331 O   0  0  0  0  0  0  0  0  0  0  0  0
   47.0018   57.8146   31.7134 C   0  0  1  0  0  0  0  0  0  0  0  0
   46.2605   57.8033   32.9133 O   0  0  0  0  0  0  0  0  0  0  0  0
   46.1382   58.0198   30.4756 C   0  0  1  0  0  0  0  0  0  0  0  0
   44.9893   58.7912   30.7632 O   0  0  0  0  0  0  0  0  0  0  0  0
   47.0257   58.8368   29.5575 C   0  0  2  0  0  0  0  0  0  0  0  0
   46.1394   54.9185   33.7557 O   0  0  0  0  0  0  0  0  0  0  0  0
   50.5420   55.1594   28.2418 N   0  0  0  0  0  0  0  0  0  0  0  0
   50.3043   55.7031   29.4790 C   0  0  0  0  0  0  0  0  0  0  0  0
   49.3430   56.6808   29.6272 N   0  0  0  0  0  0  0  0  0  0  0  0
   48.6022   57.0915   28.5827 C   0  0  0  0  0  0  0  0  0  0  0  0
   48.8252   56.5543   27.3263 C   0  0  0  0  0  0  0  0  0  0  0  0
   49.8013   55.5904   27.1698 C   0  0  0  0  0  0  0  0  0  0  0  0
   50.0222   55.0560   25.9844 N   0  0  0  0  0  0  0  0  0  0  0  0
   47.9623   57.1292   26.4592 N   0  0  0  0  0  0  0  0  0  0  0  0
   47.2177   58.0361   27.1407 C   0  0  0  0  0  0  0  0  0  0  0  0
   47.6033   58.0222   28.4633 N   0  0  0  0  0  0  0  0  0  0  0  0
  2  1  1  6  0  0  0
  2  3  1  0  0  0  0
  2  5  1  0  0  0  0
  3  4  1  0  0  0  0
  3 16  1  0  0  0  0
  5  6  1  0  0  0  0
  6  7  1  0  0  0  0
  7  8  1  0  0  0  0
  9  8  1  6  0  0  0
  9 10  1  0  0  0  0
  9 11  1  0  0  0  0
 10 15  1  0  0  0  0
 11 12  1  1  0  0  0
 11 13  1  0  0  0  0
 13 14  1  1  0  0  0
 13 15  1  0  0  0  0
 15 26  1  6  0  0  0
 17 18  2  0  0  0  0
 17 22  1  0  0  0  0
 18 19  1  0  0  0  0
 19 20  2  0  0  0  0
 20 21  1  0  0  0  0
 20 26  1  0  0  0  0
 21 22  2  0  0  0  0
 21 24  1  0  0  0  0
 22 23  1  0  0  0  0
 24 25  2  0  0  0  0
 25 26  1  0  0  0  0
M  END
>  <CHROM.1>
119.19131801,47.34706968,159.63701791,-179.91736387,92.04950483,176.09285758
48.86472176,48.10439665,56.75522614,31.09655127,-1.86339994,1.01364527,-1.11270722

>  <Name>
ligand

>  <RI>
0

>  <Rbt.Current_Directory>
/home/itssahil/PROJECTS/Mol_Feturizer/New_Systems/rnas/3GX3

>  <Rbt.Executable>
rbdock ($Id: //depot/dev/client3/rdock/2013.1/src/exe/rbdock.cxx#4 $)

>  <Rbt.Library>
libRbt.so (2013.1, Build901 2013/11/27)

>  <Rbt.Parameter_File>
/export/apps/rDock/src/rDock_2013.1_src/data/scripts/dock_solv.prm

>  <Rbt.Receptor>
prm/pocket_docking_4.prm

>  <SCORE>
-18.7325

>  <SCORE.INTER>
-15.5613

>  <SCORE.INTER.CONST>
1

>  <SCORE.INTER.POLAR>
0

>  <SCORE.INTER.ROT>
7

>  <SCORE.INTER.SOLV>
14.4849

>  <SCORE.INTER.VDW>
-23.4691

>  <SCORE.INTER.norm>
-0.598511

>  <SCORE.INTRA>
-3.17121

>  <SCORE.INTRA.DIHEDRAL>
0.438921

>  <SCORE.INTRA.DIHEDRAL.0>
5.78979

>  <SCORE.INTRA.POLAR>
0

>  <SCORE.INTRA.POLAR.0>
0

>  <SCORE.INTRA.REPUL>
0

>  <SCORE.INTRA.REPUL.0>
0

>  <SCORE.INTRA.SOLV>
0.142888

>  <SCORE.INTRA.SOLV.lig_0>
-49.9151

>  <SCORE.INTRA.VDW>
-3.46212

>  <SCORE.INTRA.VDW.0>
-0.211125

>  <SCORE.INTRA.norm>
-0.12197

>  <SCORE.RESTR>
0

>  <SCORE.RESTR.CAVITY>
0

>  <SCORE.RESTR.norm>
0

>  <SCORE.SYSTEM>
0

>  <SCORE.SYSTEM.CONST>
0

>  <SCORE.SYSTEM.DIHEDRAL>
0

>  <SCORE.SYSTEM.SOLV>
0

>  <SCORE.SYSTEM.norm>
0

>  <SCORE.heavy>
26

>  <SCORE.norm>
-0.72048

>  <RMSD>
6.146

$$$$
ligand
 OpenBabel11021811483D
libRbt.so/2013.1/901 2013/11/27
 26 28  0  0  0  0  0  0  0  0999 V2000
   47.3518   52.6047   35.0027 N   0  0  0  0  0  0  0  0  0  0  0  0
   47.1449   54.0457   34.8331 C   0  0  2  0  0  0  0  0  0  0  0  0
   45.8311   54.4137   34.1401 C   0  0  0  0  0  0  0  0  0  0  0  0
   45.3229   53.5873   33.3818 O   0  0  0  0  0  0  0  0  0  0  0  0
   48.2644   54.7756   34.0798 C   0  0  0  0  0  0  0  0  0  0  0  0
   48.2167   56.2789   33.8687 C   0  0  0  0  0  0  0  0  0  0  0  0
   49.7147   56.7172   32.9568 S   0  0  0  0  0  0  0  0  0  0  0  0
   49.2322   58.4442   33.1937 C   0  0  0  0  0  0  0  0  0  0  0  0
   48.3954   59.0310   32.0518 C   0  0  1  0  0  0  0  0  0  0  0  0
   49.0796   59.0326   30.7937 O   0  0  0  0  0  0  0  0  0  0  0  0
   47.1091   58.2403   31.8614 C   0  0  1  0  0  0  0  0  0  0  0  0
   46.0494   58.7936   32.6098 O   0  0  0  0  0  0  0  0  0  0  0  0
   46.8623   58.2690   30.3586 C   0  0  1  0  0  0  0  0  0  0  0  0
   46.0477   59.3618   29.9846 O   0  0  0  0  0  0  0  0  0  0  0  0
   48.2434   58.5019   29.7785 C   0  0  2  0  0  0  0  0  0  0  0  0
   45.2549   55.4938   34.3200 O   0  0  0  0  0  0  0  0  0  0  0  0
   48.5738   55.3937   25.5538 N   0  0  0  0  0  0  0  0  0  0  0  0
   47.8498   56.5496   25.7031 C   0  0  0  0  0  0  0  0  0  0  0  0
   47.8734   57.2254   26.9050 N   0  0  0  0  0  0  0  0  0  0  0  0
   48.6254   56.7913   27.9320 C   0  0  0  0  0  0  0  0  0  0  0  0
   49.3646   55.6280   27.8012 C   0  0  0  0  0  0  0  0  0  0  0  0
   49.3269   54.9371   26.6063 C   0  0  0  0  0  0  0  0  0  0  0  0
   50.0329   53.8333   26.4554 N   0  0  0  0  0  0  0  0  0  0  0  0
   50.0232   55.4104   28.9614 N   0  0  0  0  0  0  0  0  0  0  0  0
   49.6929   56.4007   29.8284 C   0  0  0  0  0  0  0  0  0  0  0  0
   48.8257   57.2682   29.2011 N   0  0  0  0  0  0  0  0  0  0  0  0
  2  1  1  6  0  0  0
  2  3  1  0  0  0  0
  2  5  1  0  0  0  0
  3  4  1  0  0  0  0
  3 16  1  0  0  0  0
  5  6  1  0  0  0  0
  6  7  1  0  0  0  0
  7  8  1  0  0  0  0
  9  8  1  1  0  0  0
  9 10  1  0  0  0  0
  9 11  1  0  0  0  0
 10 15  1  0  0  0  0
 11 12  1  1  0  0  0
 11 13  1  0  0  0  0
 13 14  1  1  0  0  0
 13 15  1  0  0  0  0
 15 26  1  1  0  0  0
 17 18  2  0  0  0  0
 17 22  1  0  0  0  0
 18 19  1  0  0  0  0
 19 20  2  0  0  0  0
 20 21  1  0  0  0  0
 20 26  1  0  0  0  0
 21 22  2  0  0  0  0
 21 24  1  0  0  0  0
 22 23  1  0  0  0  0
 24 25  2  0  0  0  0
 25 26  1  0  0  0  0
M  END
>  <CHROM.1>
-25.82339302,-177.80520389,179.69252374,-173.44657675,-92.47535846,-61.09017316
-152.47526736,48.04191772,56.46494916,30.89859345,-2.83990582,1.30853270
-0.18636607

>  <Name>
ligand

>  <RI>
0

>  <Rbt.Current_Directory>
/home/itssahil/PROJECTS/Mol_Feturizer/New_Systems/rnas/3GX3

>  <Rbt.Executable>
rbdock ($Id: //depot/dev/client3/rdock/2013.1/src/exe/rbdock.cxx#4 $)

>  <Rbt.Library>
libRbt.so (2013.1, Build901 2013/11/27)

>  <Rbt.Parameter_File>
/export/apps/rDock/src/rDock_2013.1_src/data/scripts/dock_solv.prm

>  <Rbt.Receptor>
prm/pocket_docking_7.prm

>  <SCORE>
-17.3625

>  <SCORE.INTER>
-13.8984

>  <SCORE.INTER.CONST>
1

>  <SCORE.INTER.POLAR>
0

>  <SCORE.INTER.ROT>
7

>  <SCORE.INTER.SOLV>
12.2323

>  <SCORE.INTER.VDW>
-21.6097

>  <SCORE.INTER.norm>
-0.534555

>  <SCORE.INTRA>
-3.46406

>  <SCORE.INTRA.DIHEDRAL>
-1.46024

>  <SCORE.INTRA.DIHEDRAL.0>
5.78979

>  <SCORE.INTRA.POLAR>
0

>  <SCORE.INTRA.POLAR.0>
0

>  <SCORE.INTRA.REPUL>
0

>  <SCORE.INTRA.REPUL.0>
0

>  <SCORE.INTRA.SOLV>
-0.613331

>  <SCORE.INTRA.SOLV.lig_0>
-49.9151

>  <SCORE.INTRA.VDW>
-2.42727

>  <SCORE.INTRA.VDW.0>
-0.211125

>  <SCORE.INTRA.norm>
-0.133233

>  <SCORE.RESTR>
0

>  <SCORE.RESTR.CAVITY>
0

>  <SCORE.RESTR.norm>
0

>  <SCORE.SYSTEM>
0

>  <SCORE.SYSTEM.CONST>
0

>  <SCORE.SYSTEM.DIHEDRAL>
0

>  <SCORE.SYSTEM.SOLV>
0

>  <SCORE.SYSTEM.norm>
0

>  <SCORE.heavy>
26

>  <SCORE.norm>
-0.667788

>  <RMSD>
6.175

$$$$
ligand
 OpenBabel11021811483D
libRbt.so/2013.1/901 2013/11/27
 26 28  0  0  0  0  0  0  0  0999 V2000
   45.3217   53.4591   32.3429 N   0  0  0  0  0  0  0  0  0  0  0  0
   44.1999   53.6667   33.2628 C   0  0  2  0  0  0  0  0  0  0  0  0
   43.0964   52.6120   33.1548 C   0  0  0  0  0  0  0  0  0  0  0  0
   42.4147   52.5873   32.1298 O   0  0  0  0  0  0  0  0  0  0  0  0
   43.5178   55.0364   33.1523 C   0  0  0  0  0  0  0  0  0  0  0  0
   43.1740   55.6342   31.7991 C   0  0  0  0  0  0  0  0  0  0  0  0
   44.7001   56.3575   31.1545 S   0  0  0  0  0  0  0  0  0  0  0  0
   44.4136   57.7296   32.2977 C   0  0  0  0  0  0  0  0  0  0  0  0
   45.5081   58.8020   32.2878 C   0  0  1  0  0  0  0  0  0  0  0  0
   46.8159   58.2763   32.5419 O   0  0  0  0  0  0  0  0  0  0  0  0
   45.5629   59.5075   30.9405 C   0  0  1  0  0  0  0  0  0  0  0  0
   44.7556   60.6640   30.9321 O   0  0  0  0  0  0  0  0  0  0  0  0
   47.0411   59.8052   30.7251 C   0  0  1  0  0  0  0  0  0  0  0  0
   47.3934   61.0818   31.2188 O   0  0  0  0  0  0  0  0  0  0  0  0
   47.7386   58.7688   31.5840 C   0  0  2  0  0  0  0  0  0  0  0  0
   42.8720   51.7795   34.0423 O   0  0  0  0  0  0  0  0  0  0  0  0
   48.4280   56.7815   26.7681 N   0  0  0  0  0  0  0  0  0  0  0  0
   47.7696   57.9308   27.1262 C   0  0  0  0  0  0  0  0  0  0  0  0
   47.6758   58.2835   28.4562 N   0  0  0  0  0  0  0  0  0  0  0  0
   48.2512   57.5372   29.4156 C   0  0  0  0  0  0  0  0  0  0  0  0
   48.9216   56.3748   29.0750 C   0  0  0  0  0  0  0  0  0  0  0  0
   48.9995   56.0071   27.7464 C   0  0  0  0  0  0  0  0  0  0  0  0
   49.6438   54.9103   27.3980 N   0  0  0  0  0  0  0  0  0  0  0  0
   49.4011   55.8136   30.2074 N   0  0  0  0  0  0  0  0  0  0  0  0
   49.0238   56.5871   31.2565 C   0  0  0  0  0  0  0  0  0  0  0  0
   48.3095   57.6641   30.7790 N   0  0  0  0  0  0  0  0  0  0  0  0
  2  1  1  6  0  0  0
  2  3  1  0  0  0  0
  2  5  1  0  0  0  0
  3  4  1  0  0  0  0
  3 16  1  0  0  0  0
  5  6  1  0  0  0  0
  6  7  1  0  0  0  0
  7  8  1  0  0  0  0
  9  8  1  6  0  0  0
  9 10  1  0  0  0  0
  9 11  1  0  0  0  0
 10 15  1  0  0  0  0
 11 12  1  1  0  0  0
 11 13  1  0  0  0  0
 13 14  1  1  0  0  0
 13 15  1  0  0  0  0
 15 26  1  6  0  0  0
 17 18  2  0  0  0  0
 17 22  1  0  0  0  0
 18 19  1  0  0  0  0
 19 20  2  0  0  0  0
 20 21  1  0  0  0  0
 20 26  1  0  0  0  0
 21 22  2  0  0  0  0
 21 24  1  0  0  0  0
 22 23  1  0  0  0  0
 24 25  2  0  0  0  0
 25 26  1  0  0  0  0
M  END
>  <CHROM.1>
-68.47588678,45.13043710,-80.24668146,-77.15091895,177.76757500,-55.49346891
122.08573987,46.18693807,56.66612934,30.91560534,-2.57444392,0.72044926,0.12388490

>  <Name>
ligand

>  <RI>
0

>  <Rbt.Current_Directory>
/home/itssahil/PROJECTS/Mol_Feturizer/New_Systems/rnas/3GX3

>  <Rbt.Executable>
rbdock ($Id: //depot/dev/client3/rdock/2013.1/src/exe/rbdock.cxx#4 $)

>  <Rbt.Library>
libRbt.so (2013.1, Build901 2013/11/27)

>  <Rbt.Parameter_File>
/export/apps/rDock/src/rDock_2013.1_src/data/scripts/dock_solv.prm

>  <Rbt.Receptor>
prm/pocket_docking_6.prm

>  <SCORE>
-11.056

>  <SCORE.INTER>
-10.1706

>  <SCORE.INTER.CONST>
1

>  <SCORE.INTER.POLAR>
0

>  <SCORE.INTER.ROT>
7

>  <SCORE.INTER.SOLV>
11.343

>  <SCORE.INTER.VDW>
-18.8281

>  <SCORE.INTER.norm>
-0.391178

>  <SCORE.INTRA>
-0.885337

>  <SCORE.INTRA.DIHEDRAL>
-0.202715

>  <SCORE.INTRA.DIHEDRAL.0>
5.78979

>  <SCORE.INTRA.POLAR>
0

>  <SCORE.INTRA.POLAR.0>
0

>  <SCORE.INTRA.REPUL>
0

>  <SCORE.INTRA.REPUL.0>
0

>  <SCORE.INTRA.SOLV>
1.1522

>  <SCORE.INTRA.SOLV.lig_0>
-49.9151

>  <SCORE.INTRA.VDW>
-1.36008

>  <SCORE.INTRA.VDW.0>
-0.211125

>  <SCORE.INTRA.norm>
-0.0340514

>  <SCORE.RESTR>
0

>  <SCORE.RESTR.CAVITY>
0

>  <SCORE.RESTR.norm>
0

>  <SCORE.SYSTEM>
0

>  <SCORE.SYSTEM.CONST>
0

>  <SCORE.SYSTEM.DIHEDRAL>
0

>  <SCORE.SYSTEM.SOLV>
0

>  <SCORE.SYSTEM.norm>
0

>  <SCORE.heavy>
26

>  <SCORE.norm>
-0.42523

>  <RMSD>
6.185

$$$$
ligand
 OpenBabel11021811483D
libRbt.so/2013.1/901 2013/11/27
 26 28  0  0  0  0  0  0  0  0999 V2000
   48.0184   54.3244   28.9531 N   0  0  0  0  0  0  0  0  0  0  0  0
   49.4128   54.7085   29.1900 C   0  0  2  0  0  0  0  0  0  0  0  0
   50.2814   53.5908   29.7713 C   0  0  0  0  0  0  0  0  0  0  0  0
   49.7797   52.8416   30.6098 O   0  0  0  0  0  0  0  0  0  0  0  0
   49.6015   55.9337   30.0939 C   0  0  0  0  0  0  0  0  0  0  0  0
   48.6274   56.2352   31.2194 C   0  0  0  0  0  0  0  0  0  0  0  0
   48.8508   54.9342   32.4544 S   0  0  0  0  0  0  0  0  0  0  0  0
   47.4177   55.6361   33.3059 C   0  0  0  0  0  0  0  0  0  0  0  0
   46.1452   54.7878   33.2102 C   0  0  1  0  0  0  0  0  0  0  0  0
   46.2336   53.5540   33.9319 O   0  0  0  0  0  0  0  0  0  0  0  0
   44.9465   55.5452   33.7629 C   0  0  1  0  0  0  0  0  0  0  0  0
   44.2713   56.2523   32.7463 O   0  0  0  0  0  0  0  0  0  0  0  0
   44.0878   54.4731   34.4211 C   0  0  1  0  0  0  0  0  0  0  0  0
   43.1299   53.9486   33.5239 O   0  0  0  0  0  0  0  0  0  0  0  0
   45.0795   53.3703   34.7354 C   0  0  2  0  0  0  0  0  0  0  0  0
   51.4541   53.4010   29.4253 O   0  0  0  0  0  0  0  0  0  0  0  0
   48.6885   54.5217   38.3779 N   0  0  0  0  0  0  0  0  0  0  0  0
   48.7517   54.7321   37.0235 C   0  0  0  0  0  0  0  0  0  0  0  0
   47.7027   54.3426   36.2174 N   0  0  0  0  0  0  0  0  0  0  0  0
   46.5941   53.7879   36.7387 C   0  0  0  0  0  0  0  0  0  0  0  0
   46.5097   53.5686   38.1031 C   0  0  0  0  0  0  0  0  0  0  0  0
   47.5667   53.9379   38.9110 C   0  0  0  0  0  0  0  0  0  0  0  0
   47.5027   53.7496   40.2149 N   0  0  0  0  0  0  0  0  0  0  0  0
   45.3103   53.0050   38.3693 N   0  0  0  0  0  0  0  0  0  0  0  0
   44.6485   52.8422   37.1959 C   0  0  0  0  0  0  0  0  0  0  0  0
   45.4341   53.3267   36.1731 N   0  0  0  0  0  0  0  0  0  0  0  0
  2  1  1  1  0  0  0
  2  3  1  0  0  0  0
  2  5  1  0  0  0  0
  3  4  1  0  0  0  0
  3 16  1  0  0  0  0
  5  6  1  0  0  0  0
  6  7  1  0  0  0  0
  7  8  1  0  0  0  0
  9  8  1  1  0  0  0
  9 10  1  0  0  0  0
  9 11  1  0  0  0  0
 10 15  1  0  0  0  0
 11 12  1  6  0  0  0
 11 13  1  0  0  0  0
 13 14  1  6  0  0  0
 13 15  1  0  0  0  0
 15 26  1  1  0  0  0
 17 18  2  0  0  0  0
 17 22  1  0  0  0  0
 18 19  1  0  0  0  0
 19 20  2  0  0  0  0
 20 21  1  0  0  0  0
 20 26  1  0  0  0  0
 21 22  2  0  0  0  0
 21 24  1  0  0  0  0
 22 23  1  0  0  0  0
 24 25  2  0  0  0  0
 25 26  1  0  0  0  0
M  END
>  <CHROM.1>
-38.36616614,32.35313444,68.29101377,-172.87988299,107.68228797,68.32076750
18.78088927,47.24109095,54.32015119,33.98728434,1.17375030,0.07552458,-1.44461603

>  <Name>
ligand

>  <RI>
0

>  <Rbt.Current_Directory>
/home/itssahil/PROJECTS/Mol_Feturizer/New_Systems/rnas/3GX3

>  <Rbt.Executable>
rbdock ($Id: //depot/dev/client3/rdock/2013.1/src/exe/rbdock.cxx#4 $)

>  <Rbt.Library>
libRbt.so (2013.1, Build901 2013/11/27)

>  <Rbt.Parameter_File>
/export/apps/rDock/src/rDock_2013.1_src/data/scripts/dock_solv.prm

>  <Rbt.Receptor>
prm/pocket_docking_8.prm

>  <SCORE>
-17.4117

>  <SCORE.INTER>
-15.5012

>  <SCORE.INTER.CONST>
1

>  <SCORE.INTER.POLAR>
0

>  <SCORE.INTER.ROT>
7

>  <SCORE.INTER.SOLV>
8.11899

>  <SCORE.INTER.VDW>
-21.3071

>  <SCORE.INTER.norm>
-0.596201

>  <SCORE.INTRA>
-1.91044

>  <SCORE.INTRA.DIHEDRAL>
2.25017

>  <SCORE.INTRA.DIHEDRAL.0>
5.78979

>  <SCORE.INTRA.POLAR>
0

>  <SCORE.INTRA.POLAR.0>
0

>  <SCORE.INTRA.REPUL>
0

>  <SCORE.INTRA.REPUL.0>
0

>  <SCORE.INTRA.SOLV>
0.653116

>  <SCORE.INTRA.SOLV.lig_0>
-49.9151

>  <SCORE.INTRA.VDW>
-3.36208

>  <SCORE.INTRA.VDW.0>
-0.211125

>  <SCORE.INTRA.norm>
-0.0734784

>  <SCORE.RESTR>
0

>  <SCORE.RESTR.CAVITY>
0

>  <SCORE.RESTR.norm>
0

>  <SCORE.SYSTEM>
0

>  <SCORE.SYSTEM.CONST>
0

>  <SCORE.SYSTEM.DIHEDRAL>
0

>  <SCORE.SYSTEM.SOLV>
0

>  <SCORE.SYSTEM.norm>
0

>  <SCORE.heavy>
26

>  <SCORE.norm>
-0.669679

>  <RMSD>
6.188

$$$$
ligand
 OpenBabel11021811483D
libRbt.so/2013.1/901 2013/11/27
 26 28  0  0  0  0  0  0  0  0999 V2000
   46.6867   52.0062   35.9688 N   0  0  0  0  0  0  0  0  0  0  0  0
   46.3771   53.4367   35.8946 C   0  0  2  0  0  0  0  0  0  0  0  0
   45.3684   53.8047   34.8043 C   0  0  0  0  0  0  0  0  0  0  0  0
   44.5266   54.6666   35.0586 O   0  0  0  0  0  0  0  0  0  0  0  0
   47.5930   54.3524   35.7024 C   0  0  0  0  0  0  0  0  0  0  0  0
   48.3993   54.3253   34.4156 C   0  0  0  0  0  0  0  0  0  0  0  0
   49.1877   55.9455   34.2693 S   0  0  0  0  0  0  0  0  0  0  0  0
   47.6781   56.4926   33.4367 C   0  0  0  0  0  0  0  0  0  0  0  0
   47.8039   57.8395   32.7166 C   0  0  1  0  0  0  0  0  0  0  0  0
   48.9483   57.9163   31.8590 O   0  0  0  0  0  0  0  0  0  0  0  0
   46.5791   58.1092   31.8547 C   0  0  1  0  0  0  0  0  0  0  0  0
   45.6040   58.8432   32.5616 O   0  0  0  0  0  0  0  0  0  0  0  0
   47.1230   58.8483   30.6390 C   0  0  1  0  0  0  0  0  0  0  0  0
   47.0933   60.2492   30.8239 O   0  0  0  0  0  0  0  0  0  0  0  0
   48.5762   58.4197   30.5863 C   0  0  2  0  0  0  0  0  0  0  0  0
   45.3727   53.2862   33.6808 O   0  0  0  0  0  0  0  0  0  0  0  0
   47.4388   56.8610   25.6981 N   0  0  0  0  0  0  0  0  0  0  0  0
   46.9348   57.9362   26.3855 C   0  0  0  0  0  0  0  0  0  0  0  0
   47.3435   58.1774   27.6804 N   0  0  0  0  0  0  0  0  0  0  0  0
   48.2602   57.3952   28.2772 C   0  0  0  0  0  0  0  0  0  0  0  0
   48.7824   56.3062   27.6002 C   0  0  0  0  0  0  0  0  0  0  0  0
   48.3599   56.0491   26.3111 C   0  0  0  0  0  0  0  0  0  0  0  0
   48.8532   55.0244   25.6431 N   0  0  0  0  0  0  0  0  0  0  0  0
   49.6711   55.6888   28.4102 N   0  0  0  0  0  0  0  0  0  0  0  0
   49.6996   56.3533   29.5930 C   0  0  0  0  0  0  0  0  0  0  0  0
   48.8285   57.4184   29.5241 N   0  0  0  0  0  0  0  0  0  0  0  0
  2  1  1  6  0  0  0
  2  3  1  0  0  0  0
  2  5  1  0  0  0  0
  3  4  1  0  0  0  0
  3 16  1  0  0  0  0
  5  6  1  0  0  0  0
  6  7  1  0  0  0  0
  7  8  1  0  0  0  0
  9  8  1  6  0  0  0
  9 10  1  0  0  0  0
  9 11  1  0  0  0  0
 10 15  1  0  0  0  0
 11 12  1  1  0  0  0
 11 13  1  0  0  0  0
 13 14  1  1  0  0  0
 13 15  1  0  0  0  0
 15 26  1  6  0  0  0
 17 18  2  0  0  0  0
 17 22  1  0  0  0  0
 18 19  1  0  0  0  0
 19 20  2  0  0  0  0
 20 21  1  0  0  0  0
 20 26  1  0  0  0  0
 21 22  2  0  0  0  0
 21 24  1  0  0  0  0
 22 23  1  0  0  0  0
 24 25  2  0  0  0  0
 25 26  1  0  0  0  0
M  END
>  <CHROM.1>
140.85896806,66.93736276,154.96612437,-87.44473019,-166.67147149,49.98137860
160.04439274,47.61753268,56.36015068,31.38387816,-2.55755471,1.35930880,-0.22933694

>  <Name>
ligand

>  <RI>
0

>  <Rbt.Current_Directory>
/home/itssahil/PROJECTS/Mol_Feturizer/New_Systems/rnas/3GX3

>  <Rbt.Executable>
rbdock ($Id: //depot/dev/client3/rdock/2013.1/src/exe/rbdock.cxx#4 $)

>  <Rbt.Library>
libRbt.so (2013.1, Build901 2013/11/27)

>  <Rbt.Parameter_File>
/export/apps/rDock/src/rDock_2013.1_src/data/scripts/dock_solv.prm

>  <Rbt.Receptor>
prm/pocket_docking_4.prm

>  <SCORE>
-16.6021

>  <SCORE.INTER>
-14.7317

>  <SCORE.INTER.CONST>
1

>  <SCORE.INTER.POLAR>
0

>  <SCORE.INTER.ROT>
7

>  <SCORE.INTER.SOLV>
15.6693

>  <SCORE.INTER.VDW>
-23.3109

>  <SCORE.INTER.norm>
-0.566603

>  <SCORE.INTRA>
-1.87042

>  <SCORE.INTRA.DIHEDRAL>
0.839571

>  <SCORE.INTRA.DIHEDRAL.0>
5.78979

>  <SCORE.INTRA.POLAR>
0

>  <SCORE.INTRA.POLAR.0>
0

>  <SCORE.INTRA.REPUL>
0

>  <SCORE.INTRA.REPUL.0>
0

>  <SCORE.INTRA.SOLV>
-0.569317

>  <SCORE.INTRA.SOLV.lig_0>
-49.9151

>  <SCORE.INTRA.VDW>
-2.00555

>  <SCORE.INTRA.VDW.0>
-0.211125

>  <SCORE.INTRA.norm>
-0.0719394

>  <SCORE.RESTR>
0

>  <SCORE.RESTR.CAVITY>
0

>  <SCORE.RESTR.norm>
0

>  <SCORE.SYSTEM>
0

>  <SCORE.SYSTEM.CONST>
0

>  <SCORE.SYSTEM.DIHEDRAL>
0

>  <SCORE.SYSTEM.SOLV>
0

>  <SCORE.SYSTEM.norm>
0

>  <SCORE.heavy>
26

>  <SCORE.norm>
-0.638542

>  <RMSD>
6.196

$$$$
ligand
 OpenBabel11021811483D
libRbt.so/2013.1/901 2013/11/27
 26 28  0  0  0  0  0  0  0  0999 V2000
   48.5729   53.1868   33.6396 N   0  0  0  0  0  0  0  0  0  0  0  0
   48.2040   54.0736   34.7466 C   0  0  2  0  0  0  0  0  0  0  0  0
   46.7010   54.3343   34.8676 C   0  0  0  0  0  0  0  0  0  0  0  0
   46.1025   53.8480   35.8275 O   0  0  0  0  0  0  0  0  0  0  0  0
   48.8932   55.4442   34.7345 C   0  0  0  0  0  0  0  0  0  0  0  0
   48.9450   56.2847   33.4706 C   0  0  0  0  0  0  0  0  0  0  0  0
   49.3797   57.9618   33.9865 S   0  0  0  0  0  0  0  0  0  0  0  0
   49.4004   58.3887   32.2290 C   0  0  0  0  0  0  0  0  0  0  0  0
   48.0628   58.9026   31.6858 C   0  0  1  0  0  0  0  0  0  0  0  0
   48.1549   59.4152   30.3516 O   0  0  0  0  0  0  0  0  0  0  0  0
   47.0227   57.7918   31.6681 C   0  0  1  0  0  0  0  0  0  0  0  0
   46.2665   57.7763   32.8586 O   0  0  0  0  0  0  0  0  0  0  0  0
   46.1847   58.0731   30.4277 C   0  0  1  0  0  0  0  0  0  0  0  0
   45.0672   58.8853   30.7264 O   0  0  0  0  0  0  0  0  0  0  0  0
   47.1188   58.8781   29.5458 C   0  0  2  0  0  0  0  0  0  0  0  0
   46.0695   55.0209   34.0547 O   0  0  0  0  0  0  0  0  0  0  0  0
   50.5247   55.1281   28.1473 N   0  0  0  0  0  0  0  0  0  0  0  0
   50.3006   55.6487   29.3969 C   0  0  0  0  0  0  0  0  0  0  0  0
   49.3692   56.6514   29.5672 N   0  0  0  0  0  0  0  0  0  0  0  0
   48.6438   57.1096   28.5317 C   0  0  0  0  0  0  0  0  0  0  0  0
   48.8533   56.5963   27.2630 C   0  0  0  0  0  0  0  0  0  0  0  0
   49.8000   55.6072   27.0849 C   0  0  0  0  0  0  0  0  0  0  0  0
   50.0075   55.0951   25.8872 N   0  0  0  0  0  0  0  0  0  0  0  0
   48.0104   57.2181   26.4086 N   0  0  0  0  0  0  0  0  0  0  0  0
   47.2921   58.1305   27.1106 C   0  0  0  0  0  0  0  0  0  0  0  0
   47.6739   58.0729   28.4331 N   0  0  0  0  0  0  0  0  0  0  0  0
  2  1  1  6  0  0  0
  2  3  1  0  0  0  0
  2  5  1  0  0  0  0
  3  4  1  0  0  0  0
  3 16  1  0  0  0  0
  5  6  1  0  0  0  0
  6  7  1  0  0  0  0
  7  8  1  0  0  0  0
  9  8  1  6  0  0  0
  9 10  1  0  0  0  0
  9 11  1  0  0  0  0
 10 15  1  0  0  0  0
 11 12  1  1  0  0  0
 11 13  1  0  0  0  0
 13 14  1  1  0  0  0
 13 15  1  0  0  0  0
 15 26  1  6  0  0  0
 17 18  2  0  0  0  0
 17 22  1  0  0  0  0
 18 19  1  0  0  0  0
 19 20  2  0  0  0  0
 20 21  1  0  0  0  0
 20 26  1  0  0  0  0
 21 22  2  0  0  0  0
 21 24  1  0  0  0  0
 22 23  1  0  0  0  0
 24 25  2  0  0  0  0
 25 26  1  0  0  0  0
M  END
>  <CHROM.1>
110.27584026,47.96914359,163.65241423,176.42826698,91.45505235,171.40151537
47.82071504,48.10994513,56.74676054,31.12025183,-1.88156863,1.01755121,-1.08121235

>  <Name>
ligand

>  <RI>
0

>  <Rbt.Current_Directory>
/home/itssahil/PROJECTS/Mol_Feturizer/New_Systems/rnas/3GX3

>  <Rbt.Executable>
rbdock ($Id: //depot/dev/client3/rdock/2013.1/src/exe/rbdock.cxx#4 $)

>  <Rbt.Library>
libRbt.so (2013.1, Build901 2013/11/27)

>  <Rbt.Parameter_File>
/export/apps/rDock/src/rDock_2013.1_src/data/scripts/dock_solv.prm

>  <Rbt.Receptor>
prm/pocket_docking_7.prm

>  <SCORE>
-18.6434

>  <SCORE.INTER>
-15.4991

>  <SCORE.INTER.CONST>
1

>  <SCORE.INTER.POLAR>
0

>  <SCORE.INTER.ROT>
7

>  <SCORE.INTER.SOLV>
14.8838

>  <SCORE.INTER.VDW>
-23.5607

>  <SCORE.INTER.norm>
-0.59612

>  <SCORE.INTRA>
-3.14425

>  <SCORE.INTRA.DIHEDRAL>
0.110458

>  <SCORE.INTRA.DIHEDRAL.0>
5.78979

>  <SCORE.INTRA.POLAR>
0

>  <SCORE.INTRA.POLAR.0>
0

>  <SCORE.INTRA.REPUL>
0

>  <SCORE.INTRA.REPUL.0>
0

>  <SCORE.INTRA.SOLV>
0.12025

>  <SCORE.INTRA.SOLV.lig_0>
-49.9151

>  <SCORE.INTRA.VDW>
-3.2596

>  <SCORE.INTRA.VDW.0>
-0.211125

>  <SCORE.INTRA.norm>
-0.120933

>  <SCORE.RESTR>
0

>  <SCORE.RESTR.CAVITY>
0

>  <SCORE.RESTR.norm>
0

>  <SCORE.SYSTEM>
0

>  <SCORE.SYSTEM.CONST>
0

>  <SCORE.SYSTEM.DIHEDRAL>
0

>  <SCORE.SYSTEM.SOLV>
0

>  <SCORE.SYSTEM.norm>
0

>  <SCORE.heavy>
26

>  <SCORE.norm>
-0.717052

>  <RMSD>
6.208

$$$$
ligand
 OpenBabel11021811483D
libRbt.so/2013.1/901 2013/11/27
 26 28  0  0  0  0  0  0  0  0999 V2000
   47.3154   58.2977   30.0069 N   0  0  0  0  0  0  0  0  0  0  0  0
   46.9812   59.4186   30.8901 C   0  0  2  0  0  0  0  0  0  0  0  0
   47.8171   59.4794   32.1704 C   0  0  0  0  0  0  0  0  0  0  0  0
   47.6849   60.4590   32.9046 O   0  0  0  0  0  0  0  0  0  0  0  0
   45.5093   59.4893   31.3166 C   0  0  0  0  0  0  0  0  0  0  0  0
   44.9299   58.4906   32.3033 C   0  0  0  0  0  0  0  0  0  0  0  0
   45.3190   56.8471   31.6588 S   0  0  0  0  0  0  0  0  0  0  0  0
   44.3142   56.1895   33.0113 C   0  0  0  0  0  0  0  0  0  0  0  0
   44.1251   54.6691   32.9793 C   0  0  1  0  0  0  0  0  0  0  0  0
   45.2769   53.9474   33.4306 O   0  0  0  0  0  0  0  0  0  0  0  0
   42.9591   54.2497   33.8627 C   0  0  1  0  0  0  0  0  0  0  0  0
   41.7567   54.1800   33.1287 O   0  0  0  0  0  0  0  0  0  0  0  0
   43.3852   52.9089   34.4463 C   0  0  1  0  0  0  0  0  0  0  0  0
   42.9484   51.8291   33.6457 O   0  0  0  0  0  0  0  0  0  0  0  0
   44.8986   52.9567   34.3724 C   0  0  2  0  0  0  0  0  0  0  0  0
   48.6040   58.5844   32.5035 O   0  0  0  0  0  0  0  0  0  0  0  0
   49.0272   54.9470   36.9438 N   0  0  0  0  0  0  0  0  0  0  0  0
   48.8204   54.8843   35.5888 C   0  0  0  0  0  0  0  0  0  0  0  0
   47.6717   54.3026   35.0948 N   0  0  0  0  0  0  0  0  0  0  0  0
   46.7248   53.8228   35.9205 C   0  0  0  0  0  0  0  0  0  0  0  0
   46.9135   53.8780   37.2909 C   0  0  0  0  0  0  0  0  0  0  0  0
   48.0718   54.4406   37.7890 C   0  0  0  0  0  0  0  0  0  0  0  0
   48.2668   54.5148   39.0913 N   0  0  0  0  0  0  0  0  0  0  0  0
   45.8308   53.3350   37.8910 N   0  0  0  0  0  0  0  0  0  0  0  0
   44.9757   52.9162   36.9241 C   0  0  0  0  0  0  0  0  0  0  0  0
   45.5177   53.2149   35.6932 N   0  0  0  0  0  0  0  0  0  0  0  0
  2  1  1  1  0  0  0
  2  3  1  0  0  0  0
  2  5  1  0  0  0  0
  3  4  1  0  0  0  0
  3 16  1  0  0  0  0
  5  6  1  0  0  0  0
  6  7  1  0  0  0  0
  7  8  1  0  0  0  0
  9  8  1  1  0  0  0
  9 10  1  0  0  0  0
  9 11  1  0  0  0  0
 10 15  1  0  0  0  0
 11 12  1  6  0  0  0
 11 13  1  0  0  0  0
 13 14  1  6  0  0  0
 13 15  1  0  0  0  0
 15 26  1  1  0  0  0
 17 18  2  0  0  0  0
 17 22  1  0  0  0  0
 18 19  1  0  0  0  0
 19 20  2  0  0  0  0
 20 21  1  0  0  0  0
 20 26  1  0  0  0  0
 21 22  2  0  0  0  0
 21 24  1  0  0  0  0
 22 23  1  0  0  0  0
 24 25  2  0  0  0  0
 25 26  1  0  0  0  0
M  END
>  <CHROM.1>
173.36072682,71.83510026,-52.98919171,-174.33062760,175.24952032,76.80973447
-30.48956395,45.91523105,55.57298664,34.06671819,1.42681523,-0.58750578,-0.78979332

>  <Name>
ligand

>  <RI>
0

>  <Rbt.Current_Directory>
/home/itssahil/PROJECTS/Mol_Feturizer/New_Systems/rnas/3GX3

>  <Rbt.Executable>
rbdock ($Id: //depot/dev/client3/rdock/2013.1/src/exe/rbdock.cxx#4 $)

>  <Rbt.Library>
libRbt.so (2013.1, Build901 2013/11/27)

>  <Rbt.Parameter_File>
/export/apps/rDock/src/rDock_2013.1_src/data/scripts/dock_solv.prm

>  <Rbt.Receptor>
prm/pocket_docking_7.prm

>  <SCORE>
-17.7556

>  <SCORE.INTER>
-15.7014

>  <SCORE.INTER.CONST>
1

>  <SCORE.INTER.POLAR>
0

>  <SCORE.INTER.ROT>
7

>  <SCORE.INTER.SOLV>
16.3036

>  <SCORE.INTER.VDW>
-24.1688

>  <SCORE.INTER.norm>
-0.603901

>  <SCORE.INTRA>
-2.05417

>  <SCORE.INTRA.DIHEDRAL>
-1.23787

>  <SCORE.INTRA.DIHEDRAL.0>
5.78979

>  <SCORE.INTRA.POLAR>
0

>  <SCORE.INTRA.POLAR.0>
0

>  <SCORE.INTRA.REPUL>
0

>  <SCORE.INTRA.REPUL.0>
0

>  <SCORE.INTRA.SOLV>
0.751929

>  <SCORE.INTRA.SOLV.lig_0>
-49.9151

>  <SCORE.INTRA.VDW>
-1.8112

>  <SCORE.INTRA.VDW.0>
-0.211125

>  <SCORE.INTRA.norm>
-0.0790066

>  <SCORE.RESTR>
0

>  <SCORE.RESTR.CAVITY>
0

>  <SCORE.RESTR.norm>
0

>  <SCORE.SYSTEM>
0

>  <SCORE.SYSTEM.CONST>
0

>  <SCORE.SYSTEM.DIHEDRAL>
0

>  <SCORE.SYSTEM.SOLV>
0

>  <SCORE.SYSTEM.norm>
0

>  <SCORE.heavy>
26

>  <SCORE.norm>
-0.682907

>  <RMSD>
6.215

$$$$
ligand
 OpenBabel11021811483D
libRbt.so/2013.1/901 2013/11/27
 26 28  0  0  0  0  0  0  0  0999 V2000
   39.8623   53.3691   29.7114 N   0  0  0  0  0  0  0  0  0  0  0  0
   41.1631   54.0259   29.5552 C   0  0  2  0  0  0  0  0  0  0  0  0
   42.3126   53.3217   30.2794 C   0  0  0  0  0  0  0  0  0  0  0  0
   42.1331   52.9637   31.4438 O   0  0  0  0  0  0  0  0  0  0  0  0
   41.2006   55.4974   29.9873 C   0  0  0  0  0  0  0  0  0  0  0  0
   42.4753   56.3155   29.8745 C   0  0  0  0  0  0  0  0  0  0  0  0
   43.4220   56.0019   31.3822 S   0  0  0  0  0  0  0  0  0  0  0  0
   44.5400   57.3130   30.8323 C   0  0  0  0  0  0  0  0  0  0  0  0
   45.6943   57.6075   31.7963 C   0  0  1  0  0  0  0  0  0  0  0  0
   46.6885   56.5769   31.8180 O   0  0  0  0  0  0  0  0  0  0  0  0
   46.3992   58.9020   31.4176 C   0  0  1  0  0  0  0  0  0  0  0  0
   45.8525   60.0055   32.1052 O   0  0  0  0  0  0  0  0  0  0  0  0
   47.8638   58.6512   31.7523 C   0  0  1  0  0  0  0  0  0  0  0  0
   48.1761   59.0628   33.0678 O   0  0  0  0  0  0  0  0  0  0  0  0
   47.9843   57.1409   31.6995 C   0  0  2  0  0  0  0  0  0  0  0  0
   43.4022   53.0859   29.7425 O   0  0  0  0  0  0  0  0  0  0  0  0
   50.6738   53.2581   29.3955 N   0  0  0  0  0  0  0  0  0  0  0  0
   50.1958   53.3139   30.6804 C   0  0  0  0  0  0  0  0  0  0  0  0
   49.5219   54.4359   31.1152 N   0  0  0  0  0  0  0  0  0  0  0  0
   49.2901   55.4714   30.2891 C   0  0  0  0  0  0  0  0  0  0  0  0
   49.7626   55.4340   28.9883 C   0  0  0  0  0  0  0  0  0  0  0  0
   50.4562   54.3214   28.5555 C   0  0  0  0  0  0  0  0  0  0  0  0
   50.9046   54.2592   27.3168 N   0  0  0  0  0  0  0  0  0  0  0  0
   49.4040   56.5829   28.3730 N   0  0  0  0  0  0  0  0  0  0  0  0
   48.7368   57.3533   29.2689 C   0  0  0  0  0  0  0  0  0  0  0  0
   48.6565   56.6738   30.4648 N   0  0  0  0  0  0  0  0  0  0  0  0
  2  1  1  1  0  0  0
  2  3  1  0  0  0  0
  2  5  1  0  0  0  0
  3  4  1  0  0  0  0
  3 16  1  0  0  0  0
  5  6  1  0  0  0  0
  6  7  1  0  0  0  0
  7  8  1  0  0  0  0
  9  8  1  6  0  0  0
  9 10  1  0  0  0  0
  9 11  1  0  0  0  0
 10 15  1  0  0  0  0
 11 12  1  1  0  0  0
 11 13  1  0  0  0  0
 13 14  1  1  0  0  0
 13 15  1  0  0  0  0
 15 26  1  6  0  0  0
 17 18  2  0  0  0  0
 17 22  1  0  0  0  0
 18 19  1  0  0  0  0
 19 20  2  0  0  0  0
 20 21  1  0  0  0  0
 20 26  1  0  0  0  0
 21 22  2  0  0  0  0
 21 24  1  0  0  0  0
 22 23  1  0  0  0  0
 24 25  2  0  0  0  0
 25 26  1  0  0  0  0
M  END
>  <CHROM.1>
-46.45337964,-179.50586644,-85.43683426,-171.84290298,178.72175397,71.88304283
-80.13436633,46.18147205,55.83993438,30.51111060,-3.04006994,0.12430945,0.45886558

>  <Name>
ligand

>  <RI>
0

>  <Rbt.Current_Directory>
/home/itssahil/PROJECTS/Mol_Feturizer/New_Systems/rnas/3GX3

>  <Rbt.Executable>
rbdock ($Id: //depot/dev/client3/rdock/2013.1/src/exe/rbdock.cxx#4 $)

>  <Rbt.Library>
libRbt.so (2013.1, Build901 2013/11/27)

>  <Rbt.Parameter_File>
/export/apps/rDock/src/rDock_2013.1_src/data/scripts/dock_solv.prm

>  <Rbt.Receptor>
prm/pocket_docking_8.prm

>  <SCORE>
-13.0405

>  <SCORE.INTER>
-10.15

>  <SCORE.INTER.CONST>
1

>  <SCORE.INTER.POLAR>
0

>  <SCORE.INTER.ROT>
7

>  <SCORE.INTER.SOLV>
9.34401

>  <SCORE.INTER.VDW>
-18.148

>  <SCORE.INTER.norm>
-0.390383

>  <SCORE.INTRA>
-2.89049

>  <SCORE.INTRA.DIHEDRAL>
-0.292786

>  <SCORE.INTRA.DIHEDRAL.0>
5.78979

>  <SCORE.INTRA.POLAR>
0

>  <SCORE.INTRA.POLAR.0>
0

>  <SCORE.INTRA.REPUL>
0

>  <SCORE.INTRA.REPUL.0>
0

>  <SCORE.INTRA.SOLV>
-0.977096

>  <SCORE.INTRA.SOLV.lig_0>
-49.9151

>  <SCORE.INTRA.VDW>
-2.25555

>  <SCORE.INTRA.VDW.0>
-0.211125

>  <SCORE.INTRA.norm>
-0.111173

>  <SCORE.RESTR>
0

>  <SCORE.RESTR.CAVITY>
0

>  <SCORE.RESTR.norm>
0

>  <SCORE.SYSTEM>
0

>  <SCORE.SYSTEM.CONST>
0

>  <SCORE.SYSTEM.DIHEDRAL>
0

>  <SCORE.SYSTEM.SOLV>
0

>  <SCORE.SYSTEM.norm>
0

>  <SCORE.heavy>
26

>  <SCORE.norm>
-0.501556

>  <RMSD>
6.225

$$$$
ligand
 OpenBabel11021811483D
libRbt.so/2013.1/901 2013/11/27
 26 28  0  0  0  0  0  0  0  0999 V2000
   47.5430   53.8320   33.8554 N   0  0  0  0  0  0  0  0  0  0  0  0
   48.7051   54.3177   34.6047 C   0  0  2  0  0  0  0  0  0  0  0  0
   48.4186   54.6269   36.0758 C   0  0  0  0  0  0  0  0  0  0  0  0
   49.2614   55.2612   36.7109 O   0  0  0  0  0  0  0  0  0  0  0  0
   49.3826   55.5605   34.0132 C   0  0  0  0  0  0  0  0  0  0  0  0
   48.6015   56.8412   33.7755 C   0  0  0  0  0  0  0  0  0  0  0  0
   49.6386   57.8887   32.7293 S   0  0  0  0  0  0  0  0  0  0  0  0
   48.4220   59.1978   33.0077 C   0  0  0  0  0  0  0  0  0  0  0  0
   47.2944   59.2462   31.9711 C   0  0  1  0  0  0  0  0  0  0  0  0
   47.7654   59.4472   30.6336 O   0  0  0  0  0  0  0  0  0  0  0  0
   46.4986   57.9490   31.9756 C   0  0  1  0  0  0  0  0  0  0  0  0
   45.3888   58.0294   32.8424 O   0  0  0  0  0  0  0  0  0  0  0  0
   46.1088   57.7351   30.5188 C   0  0  1  0  0  0  0  0  0  0  0  0
   44.8510   58.3092   30.2257 O   0  0  0  0  0  0  0  0  0  0  0  0
   47.1616   58.5128   29.7539 C   0  0  2  0  0  0  0  0  0  0  0  0
   47.3761   54.2809   36.6455 O   0  0  0  0  0  0  0  0  0  0  0  0
   49.9801   54.1045   30.2440 N   0  0  0  0  0  0  0  0  0  0  0  0
   49.0691   54.6321   31.1239 C   0  0  0  0  0  0  0  0  0  0  0  0
   48.4356   55.8207   30.8274 N   0  0  0  0  0  0  0  0  0  0  0  0
   48.6672   56.4617   29.6681 C   0  0  0  0  0  0  0  0  0  0  0  0
   49.5815   55.9450   28.7659 C   0  0  0  0  0  0  0  0  0  0  0  0
   50.2335   54.7661   29.0686 C   0  0  0  0  0  0  0  0  0  0  0  0
   51.0993   54.2494   28.2184 N   0  0  0  0  0  0  0  0  0  0  0  0
   49.6330   56.7679   27.6948 N   0  0  0  0  0  0  0  0  0  0  0  0
   48.7874   57.8058   27.9166 C   0  0  0  0  0  0  0  0  0  0  0  0
   48.1781   57.6276   29.1394 N   0  0  0  0  0  0  0  0  0  0  0  0
  2  1  1  6  0  0  0
  2  3  1  0  0  0  0
  2  5  1  0  0  0  0
  3  4  1  0  0  0  0
  3 16  1  0  0  0  0
  5  6  1  0  0  0  0
  6  7  1  0  0  0  0
  7  8  1  0  0  0  0
  9  8  1  1  0  0  0
  9 10  1  0  0  0  0
  9 11  1  0  0  0  0
 10 15  1  0  0  0  0
 11 12  1  1  0  0  0
 11 13  1  0  0  0  0
 13 14  1  1  0  0  0
 13 15  1  0  0  0  0
 15 26  1  1  0  0  0
 17 18  2  0  0  0  0
 17 22  1  0  0  0  0
 18 19  1  0  0  0  0
 19 20  2  0  0  0  0
 20 21  1  0  0  0  0
 20 26  1  0  0  0  0
 21 22  2  0  0  0  0
 21 24  1  0  0  0  0
 22 23  1  0  0  0  0
 24 25  2  0  0  0  0
 25 26  1  0  0  0  0
M  END
>  <CHROM.1>
-167.06417922,56.72994883,-166.76812775,-171.98179508,-90.67040146,-59.35797106
86.66906940,48.32732600,56.60147873,31.75283549,-1.62869600,0.89477935,-1.23506579

>  <Name>
ligand

>  <RI>
0

>  <Rbt.Current_Directory>
/home/itssahil/PROJECTS/Mol_Feturizer/New_Systems/rnas/3GX3

>  <Rbt.Executable>
rbdock ($Id: //depot/dev/client3/rdock/2013.1/src/exe/rbdock.cxx#4 $)

>  <Rbt.Library>
libRbt.so (2013.1, Build901 2013/11/27)

>  <Rbt.Parameter_File>
/export/apps/rDock/src/rDock_2013.1_src/data/scripts/dock_solv.prm

>  <Rbt.Receptor>
prm/pocket_docking_4.prm

>  <SCORE>
-19.0601

>  <SCORE.INTER>
-16.0068

>  <SCORE.INTER.CONST>
1

>  <SCORE.INTER.POLAR>
0

>  <SCORE.INTER.ROT>
7

>  <SCORE.INTER.SOLV>
12.7605

>  <SCORE.INTER.VDW>
-23.1914

>  <SCORE.INTER.norm>
-0.615647

>  <SCORE.INTRA>
-3.05327

>  <SCORE.INTRA.DIHEDRAL>
-0.876477

>  <SCORE.INTRA.DIHEDRAL.0>
5.78979

>  <SCORE.INTRA.POLAR>
0

>  <SCORE.INTRA.POLAR.0>
0

>  <SCORE.INTRA.REPUL>
0

>  <SCORE.INTRA.REPUL.0>
0

>  <SCORE.INTRA.SOLV>
0.675042

>  <SCORE.INTRA.SOLV.lig_0>
-49.9151

>  <SCORE.INTRA.VDW>
-2.95255

>  <SCORE.INTRA.VDW.0>
-0.211125

>  <SCORE.INTRA.norm>
-0.117433

>  <SCORE.RESTR>
0

>  <SCORE.RESTR.CAVITY>
0

>  <SCORE.RESTR.norm>
0

>  <SCORE.SYSTEM>
0

>  <SCORE.SYSTEM.CONST>
0

>  <SCORE.SYSTEM.DIHEDRAL>
0

>  <SCORE.SYSTEM.SOLV>
0

>  <SCORE.SYSTEM.norm>
0

>  <SCORE.heavy>
26

>  <SCORE.norm>
-0.733081

>  <RMSD>
6.237

$$$$
ligand
 OpenBabel11021811483D
libRbt.so/2013.1/901 2013/11/27
 26 28  0  0  0  0  0  0  0  0999 V2000
   47.2826   53.9316   33.9772 N   0  0  0  0  0  0  0  0  0  0  0  0
   48.5199   54.3204   34.6598 C   0  0  2  0  0  0  0  0  0  0  0  0
   48.3441   54.6337   36.1473 C   0  0  0  0  0  0  0  0  0  0  0  0
   47.3512   54.1864   36.7218 O   0  0  0  0  0  0  0  0  0  0  0  0
   49.2536   55.5155   34.0376 C   0  0  0  0  0  0  0  0  0  0  0  0
   48.5567   56.8516   33.8487 C   0  0  0  0  0  0  0  0  0  0  0  0
   49.6138   57.8327   32.7589 S   0  0  0  0  0  0  0  0  0  0  0  0
   48.4396   59.1862   33.0051 C   0  0  0  0  0  0  0  0  0  0  0  0
   47.2937   59.2242   31.9882 C   0  0  1  0  0  0  0  0  0  0  0  0
   47.7368   59.4610   30.6471 O   0  0  0  0  0  0  0  0  0  0  0  0
   46.5312   57.9072   31.9821 C   0  0  1  0  0  0  0  0  0  0  0  0
   45.4346   57.9436   32.8683 O   0  0  0  0  0  0  0  0  0  0  0  0
   46.1224   57.7094   30.5282 C   0  0  1  0  0  0  0  0  0  0  0  0
   44.8457   58.2563   30.2664 O   0  0  0  0  0  0  0  0  0  0  0  0
   47.1421   58.5274   29.7605 C   0  0  2  0  0  0  0  0  0  0  0  0
   49.1601   55.3009   36.7954 O   0  0  0  0  0  0  0  0  0  0  0  0
   50.1350   54.2260   30.1579 N   0  0  0  0  0  0  0  0  0  0  0  0
   49.2339   54.7205   31.0668 C   0  0  0  0  0  0  0  0  0  0  0  0
   48.5480   55.8848   30.7914 N   0  0  0  0  0  0  0  0  0  0  0  0
   48.7185   56.5329   29.6254 C   0  0  0  0  0  0  0  0  0  0  0  0
   49.6217   56.0494   28.6942 C   0  0  0  0  0  0  0  0  0  0  0  0
   50.3259   54.8956   28.9753 C   0  0  0  0  0  0  0  0  0  0  0  0
   51.1823   54.4103   28.0974 N   0  0  0  0  0  0  0  0  0  0  0  0
   49.6084   56.8728   27.6223 N   0  0  0  0  0  0  0  0  0  0  0  0
   48.7328   57.8791   27.8715 C   0  0  0  0  0  0  0  0  0  0  0  0
   48.1701   57.6797   29.1132 N   0  0  0  0  0  0  0  0  0  0  0  0
  2  1  1  6  0  0  0
  2  3  1  0  0  0  0
  2  5  1  0  0  0  0
  3  4  1  0  0  0  0
  3 16  1  0  0  0  0
  5  6  1  0  0  0  0
  6  7  1  0  0  0  0
  7  8  1  0  0  0  0
  9  8  1  1  0  0  0
  9 10  1  0  0  0  0
  9 11  1  0  0  0  0
 10 15  1  0  0  0  0
 11 12  1  1  0  0  0
 11 13  1  0  0  0  0
 13 14  1  1  0  0  0
 13 15  1  0  0  0  0
 15 26  1  1  0  0  0
 17 18  2  0  0  0  0
 17 22  1  0  0  0  0
 18 19  1  0  0  0  0
 19 20  2  0  0  0  0
 20 21  1  0  0  0  0
 20 26  1  0  0  0  0
 21 22  2  0  0  0  0
 21 24  1  0  0  0  0
 22 23  1  0  0  0  0
 24 25  2  0  0  0  0
 25 26  1  0  0  0  0
M  END
>  <CHROM.1>
20.48242439,56.41466796,-167.05550447,-176.11291335,-89.95332077,-63.93707904
85.14987861,48.31812728,56.62246905,31.75663738,-1.68441536,0.86658575,-1.20789098

>  <Name>
ligand

>  <RI>
0

>  <Rbt.Current_Directory>
/home/itssahil/PROJECTS/Mol_Feturizer/New_Systems/rnas/3GX3

>  <Rbt.Executable>
rbdock ($Id: //depot/dev/client3/rdock/2013.1/src/exe/rbdock.cxx#4 $)

>  <Rbt.Library>
libRbt.so (2013.1, Build901 2013/11/27)

>  <Rbt.Parameter_File>
/export/apps/rDock/src/rDock_2013.1_src/data/scripts/dock_solv.prm

>  <Rbt.Receptor>
prm/pocket_docking_6.prm

>  <SCORE>
-19.6427

>  <SCORE.INTER>
-16.5103

>  <SCORE.INTER.CONST>
1

>  <SCORE.INTER.POLAR>
0

>  <SCORE.INTER.ROT>
7

>  <SCORE.INTER.SOLV>
12.4747

>  <SCORE.INTER.VDW>
-23.4317

>  <SCORE.INTER.norm>
-0.63501

>  <SCORE.INTRA>
-3.13245

>  <SCORE.INTRA.DIHEDRAL>
-1.00325

>  <SCORE.INTRA.DIHEDRAL.0>
5.78979

>  <SCORE.INTRA.POLAR>
0

>  <SCORE.INTRA.POLAR.0>
0

>  <SCORE.INTRA.REPUL>
0

>  <SCORE.INTRA.REPUL.0>
0

>  <SCORE.INTRA.SOLV>
0.45351

>  <SCORE.INTRA.SOLV.lig_0>
-49.9151

>  <SCORE.INTRA.VDW>
-2.85758

>  <SCORE.INTRA.VDW.0>
-0.211125

>  <SCORE.INTRA.norm>
-0.120479

>  <SCORE.RESTR>
0

>  <SCORE.RESTR.CAVITY>
0

>  <SCORE.RESTR.norm>
0

>  <SCORE.SYSTEM>
0

>  <SCORE.SYSTEM.CONST>
0

>  <SCORE.SYSTEM.DIHEDRAL>
0

>  <SCORE.SYSTEM.SOLV>
0

>  <SCORE.SYSTEM.norm>
0

>  <SCORE.heavy>
26

>  <SCORE.norm>
-0.755489

>  <RMSD>
6.254

$$$$
ligand
 OpenBabel11021811483D
libRbt.so/2013.1/901 2013/11/27
 26 28  0  0  0  0  0  0  0  0999 V2000
   46.6185   53.5905   34.0626 N   0  0  0  0  0  0  0  0  0  0  0  0
   47.9289   54.2206   34.2459 C   0  0  2  0  0  0  0  0  0  0  0  0
   48.3137   54.4545   35.7084 C   0  0  0  0  0  0  0  0  0  0  0  0
   47.4661   54.2355   36.5743 O   0  0  0  0  0  0  0  0  0  0  0  0
   48.1101   55.5595   33.5191 C   0  0  0  0  0  0  0  0  0  0  0  0
   49.4848   56.1850   33.3590 C   0  0  0  0  0  0  0  0  0  0  0  0
   49.3491   57.8843   33.9604 S   0  0  0  0  0  0  0  0  0  0  0  0
   49.1765   58.3764   32.2285 C   0  0  0  0  0  0  0  0  0  0  0  0
   47.7996   58.9422   31.8645 C   0  0  1  0  0  0  0  0  0  0  0  0
   47.7501   59.5035   30.5479 O   0  0  0  0  0  0  0  0  0  0  0  0
   46.7340   57.8577   31.9295 C   0  0  1  0  0  0  0  0  0  0  0  0
   46.1213   57.8140   33.1992 O   0  0  0  0  0  0  0  0  0  0  0  0
   45.7655   58.2062   30.8068 C   0  0  1  0  0  0  0  0  0  0  0  0
   44.7134   59.0323   31.2631 O   0  0  0  0  0  0  0  0  0  0  0  0
   46.6127   59.0223   29.8505 C   0  0  2  0  0  0  0  0  0  0  0  0
   49.4377   54.8379   36.0555 O   0  0  0  0  0  0  0  0  0  0  0  0
   49.9008   55.4332   27.8694 N   0  0  0  0  0  0  0  0  0  0  0  0
   49.8624   55.9374   29.1449 C   0  0  0  0  0  0  0  0  0  0  0  0
   48.9294   56.8972   29.4772 N   0  0  0  0  0  0  0  0  0  0  0  0
   48.0253   57.3278   28.5797 C   0  0  0  0  0  0  0  0  0  0  0  0
   48.0459   56.8304   27.2878 C   0  0  0  0  0  0  0  0  0  0  0  0
   48.9921   55.8849   26.9455 C   0  0  0  0  0  0  0  0  0  0  0  0
   49.0222   55.3882   25.7240 N   0  0  0  0  0  0  0  0  0  0  0  0
   47.0486   57.4184   26.5902 N   0  0  0  0  0  0  0  0  0  0  0  0
   46.4166   58.2949   27.4110 C   0  0  0  0  0  0  0  0  0  0  0  0
   47.0120   58.2478   28.6525 N   0  0  0  0  0  0  0  0  0  0  0  0
  2  1  1  1  0  0  0
  2  3  1  0  0  0  0
  2  5  1  0  0  0  0
  3  4  1  0  0  0  0
  3 16  1  0  0  0  0
  5  6  1  0  0  0  0
  6  7  1  0  0  0  0
  7  8  1  0  0  0  0
  9  8  1  6  0  0  0
  9 10  1  0  0  0  0
  9 11  1  0  0  0  0
 10 15  1  0  0  0  0
 11 12  1  1  0  0  0
 11 13  1  0  0  0  0
 13 14  1  1  0  0  0
 13 15  1  0  0  0  0
 15 26  1  6  0  0  0
 17 18  2  0  0  0  0
 17 22  1  0  0  0  0
 18 19  1  0  0  0  0
 19 20  2  0  0  0  0
 20 21  1  0  0  0  0
 20 26  1  0  0  0  0
 21 22  2  0  0  0  0
 21 24  1  0  0  0  0
 22 23  1  0  0  0  0
 24 25  2  0  0  0  0
 25 26  1  0  0  0  0
M  END
>  <CHROM.1>
-7.36938268,-166.63473290,-128.15226649,-98.55528008,113.22782098,171.34240933
42.73734559,47.92037765,56.88126323,31.29017762,-1.49625930,0.97319873,-1.39305872

>  <Name>
ligand

>  <RI>
0

>  <Rbt.Current_Directory>
/home/itssahil/PROJECTS/Mol_Feturizer/New_Systems/rnas/3GX3

>  <Rbt.Executable>
rbdock ($Id: //depot/dev/client3/rdock/2013.1/src/exe/rbdock.cxx#4 $)

>  <Rbt.Library>
libRbt.so (2013.1, Build901 2013/11/27)

>  <Rbt.Parameter_File>
/export/apps/rDock/src/rDock_2013.1_src/data/scripts/dock_solv.prm

>  <Rbt.Receptor>
prm/pocket_docking_3.prm

>  <SCORE>
-15.1666

>  <SCORE.INTER>
-15.3538

>  <SCORE.INTER.CONST>
1

>  <SCORE.INTER.POLAR>
0

>  <SCORE.INTER.ROT>
7

>  <SCORE.INTER.SOLV>
12.6011

>  <SCORE.INTER.VDW>
-22.7029

>  <SCORE.INTER.norm>
-0.590531

>  <SCORE.INTRA>
0.157026

>  <SCORE.INTRA.DIHEDRAL>
7.18747

>  <SCORE.INTRA.DIHEDRAL.0>
5.78979

>  <SCORE.INTRA.POLAR>
0

>  <SCORE.INTRA.POLAR.0>
0

>  <SCORE.INTRA.REPUL>
0

>  <SCORE.INTRA.REPUL.0>
0

>  <SCORE.INTRA.SOLV>
-0.409035

>  <SCORE.INTRA.SOLV.lig_0>
-49.9151

>  <SCORE.INTRA.VDW>
-3.23219

>  <SCORE.INTRA.VDW.0>
-0.211125

>  <SCORE.INTRA.norm>
0.00603947

>  <SCORE.RESTR>
0.0301815

>  <SCORE.RESTR.CAVITY>
0.0301815

>  <SCORE.RESTR.norm>
0.00116083

>  <SCORE.SYSTEM>
0

>  <SCORE.SYSTEM.CONST>
0

>  <SCORE.SYSTEM.DIHEDRAL>
0

>  <SCORE.SYSTEM.SOLV>
0

>  <SCORE.SYSTEM.norm>
0

>  <SCORE.heavy>
26

>  <SCORE.norm>
-0.58333

>  <RMSD>
6.269

$$$$
ligand
 OpenBabel11021811483D
libRbt.so/2013.1/901 2013/11/27
 26 28  0  0  0  0  0  0  0  0999 V2000
   46.5976   52.4754   35.5492 N   0  0  0  0  0  0  0  0  0  0  0  0
   47.1862   53.3290   34.5135 C   0  0  2  0  0  0  0  0  0  0  0  0
   48.2332   54.3162   35.0342 C   0  0  0  0  0  0  0  0  0  0  0  0
   49.1366   54.6608   34.2719 O   0  0  0  0  0  0  0  0  0  0  0  0
   46.1758   54.1434   33.6953 C   0  0  0  0  0  0  0  0  0  0  0  0
   45.2045   55.0950   34.3718 C   0  0  0  0  0  0  0  0  0  0  0  0
   44.7266   56.3133   33.1248 S   0  0  0  0  0  0  0  0  0  0  0  0
   46.4119   56.9571   33.2536 C   0  0  0  0  0  0  0  0  0  0  0  0
   46.6080   58.3477   32.6403 C   0  0  1  0  0  0  0  0  0  0  0  0
   47.9166   58.5437   32.0926 O   0  0  0  0  0  0  0  0  0  0  0  0
   45.6110   58.5892   31.5162 C   0  0  1  0  0  0  0  0  0  0  0  0
   44.4425   59.2202   31.9915 O   0  0  0  0  0  0  0  0  0  0  0  0
   46.3762   59.4282   30.5009 C   0  0  1  0  0  0  0  0  0  0  0  0
   46.1991   60.8119   30.7284 O   0  0  0  0  0  0  0  0  0  0  0  0
   47.8267   59.0942   30.7886 C   0  0  2  0  0  0  0  0  0  0  0  0
   48.2014   54.7903   36.1767 O   0  0  0  0  0  0  0  0  0  0  0  0
   50.1653   54.4650   29.9405 N   0  0  0  0  0  0  0  0  0  0  0  0
   49.7647   55.0077   31.1353 C   0  0  0  0  0  0  0  0  0  0  0  0
   49.1787   56.2559   31.1615 N   0  0  0  0  0  0  0  0  0  0  0  0
   48.9573   56.9438   30.0274 C   0  0  0  0  0  0  0  0  0  0  0  0
   49.3525   56.4130   28.8113 C   0  0  0  0  0  0  0  0  0  0  0  0
   49.9587   55.1728   28.7831 C   0  0  0  0  0  0  0  0  0  0  0  0
   50.3320   54.6426   27.6346 N   0  0  0  0  0  0  0  0  0  0  0  0
   49.0227   57.2906   27.8375 N   0  0  0  0  0  0  0  0  0  0  0  0
   48.4505   58.3746   28.4197 C   0  0  0  0  0  0  0  0  0  0  0  0
   48.4012   58.1721   29.7815 N   0  0  0  0  0  0  0  0  0  0  0  0
  2  1  1  1  0  0  0
  2  3  1  0  0  0  0
  2  5  1  0  0  0  0
  3  4  1  0  0  0  0
  3 16  1  0  0  0  0
  5  6  1  0  0  0  0
  6  7  1  0  0  0  0
  7  8  1  0  0  0  0
  9  8  1  6  0  0  0
  9 10  1  0  0  0  0
  9 11  1  0  0  0  0
 10 15  1  0  0  0  0
 11 12  1  1  0  0  0
 11 13  1  0  0  0  0
 13 14  1  1  0  0  0
 13 15  1  0  0  0  0
 15 26  1  6  0  0  0
 17 18  2  0  0  0  0
 17 22  1  0  0  0  0
 18 19  1  0  0  0  0
 19 20  2  0  0  0  0
 20 21  1  0  0  0  0
 20 26  1  0  0  0  0
 21 22  2  0  0  0  0
 21 24  1  0  0  0  0
 22 23  1  0  0  0  0
 24 25  2  0  0  0  0
 25 26  1  0  0  0  0
M  END
>  <CHROM.1>
150.77158056,56.88245238,156.51365010,-70.12984608,-164.71494149,-148.03813818
-0.07124371,47.51933156,56.51292242,31.82780630,-1.94623612,0.75250080,-0.78081694

>  <Name>
ligand

>  <RI>
0

>  <Rbt.Current_Directory>
/home/itssahil/PROJECTS/Mol_Feturizer/New_Systems/rnas/3GX3

>  <Rbt.Executable>
rbdock ($Id: //depot/dev/client3/rdock/2013.1/src/exe/rbdock.cxx#4 $)

>  <Rbt.Library>
libRbt.so (2013.1, Build901 2013/11/27)

>  <Rbt.Parameter_File>
/export/apps/rDock/src/rDock_2013.1_src/data/scripts/dock_solv.prm

>  <Rbt.Receptor>
prm/pocket_docking_3.prm

>  <SCORE>
-14.2612

>  <SCORE.INTER>
-14.9132

>  <SCORE.INTER.CONST>
1

>  <SCORE.INTER.POLAR>
0

>  <SCORE.INTER.ROT>
7

>  <SCORE.INTER.SOLV>
13.8896

>  <SCORE.INTER.VDW>
-22.8387

>  <SCORE.INTER.norm>
-0.573586

>  <SCORE.INTRA>
0.648649

>  <SCORE.INTRA.DIHEDRAL>
2.31976

>  <SCORE.INTRA.DIHEDRAL.0>
5.78979

>  <SCORE.INTRA.POLAR>
0

>  <SCORE.INTRA.POLAR.0>
0

>  <SCORE.INTRA.REPUL>
0

>  <SCORE.INTRA.REPUL.0>
0

>  <SCORE.INTRA.SOLV>
-0.209612

>  <SCORE.INTRA.SOLV.lig_0>
-49.9151

>  <SCORE.INTRA.VDW>
-0.406427

>  <SCORE.INTRA.VDW.0>
-0.211125

>  <SCORE.INTRA.norm>
0.0249481

>  <SCORE.RESTR>
0.00336978

>  <SCORE.RESTR.CAVITY>
0.00336978

>  <SCORE.RESTR.norm>
0.000129607

>  <SCORE.SYSTEM>
0

>  <SCORE.SYSTEM.CONST>
0

>  <SCORE.SYSTEM.DIHEDRAL>
0

>  <SCORE.SYSTEM.SOLV>
0

>  <SCORE.SYSTEM.norm>
0

>  <SCORE.heavy>
26

>  <SCORE.norm>
-0.548509

>  <RMSD>
6.269

$$$$
ligand
 OpenBabel11021811483D
libRbt.so/2013.1/901 2013/11/27
 26 28  0  0  0  0  0  0  0  0999 V2000
   46.3106   52.9622   37.3666 N   0  0  0  0  0  0  0  0  0  0  0  0
   47.4980   53.4831   36.6836 C   0  0  2  0  0  0  0  0  0  0  0  0
   48.2364   54.5784   37.4561 C   0  0  0  0  0  0  0  0  0  0  0  0
   49.1350   55.1913   36.8791 O   0  0  0  0  0  0  0  0  0  0  0  0
   47.2450   54.0284   35.2720 C   0  0  0  0  0  0  0  0  0  0  0  0
   48.3983   54.3573   34.3402 C   0  0  0  0  0  0  0  0  0  0  0  0
   47.6743   54.6475   32.7095 S   0  0  0  0  0  0  0  0  0  0  0  0
   49.1223   55.6738   32.3607 C   0  0  0  0  0  0  0  0  0  0  0  0
   48.7975   57.1289   32.0063 C   0  0  1  0  0  0  0  0  0  0  0  0
   47.7621   57.2531   31.0246 O   0  0  0  0  0  0  0  0  0  0  0  0
   48.3414   57.8974   33.2381 C   0  0  1  0  0  0  0  0  0  0  0  0
   49.4244   58.5393   33.8741 O   0  0  0  0  0  0  0  0  0  0  0  0
   47.2908   58.8683   32.7151 C   0  0  1  0  0  0  0  0  0  0  0  0
   47.8610   60.1111   32.3577 O   0  0  0  0  0  0  0  0  0  0  0  0
   46.7972   58.2037   31.4451 C   0  0  2  0  0  0  0  0  0  0  0  0
   47.9599   54.8815   38.6235 O   0  0  0  0  0  0  0  0  0  0  0  0
   42.4723   56.3970   29.0683 N   0  0  0  0  0  0  0  0  0  0  0  0
   43.5770   56.9756   28.4960 C   0  0  0  0  0  0  0  0  0  0  0  0
   44.6166   57.4087   29.2920 N   0  0  0  0  0  0  0  0  0  0  0  0
   44.5864   57.2427   30.6262 C   0  0  0  0  0  0  0  0  0  0  0  0
   43.4817   56.6596   31.2231 C   0  0  0  0  0  0  0  0  0  0  0  0
   42.4296   56.2439   30.4315 C   0  0  0  0  0  0  0  0  0  0  0  0
   41.3726   55.6747   30.9777 N   0  0  0  0  0  0  0  0  0  0  0  0
   43.6957   56.6110   32.5569 N   0  0  0  0  0  0  0  0  0  0  0  0
   44.9028   57.1752   32.8134 C   0  0  0  0  0  0  0  0  0  0  0  0
   45.4694   57.5710   31.6216 N   0  0  0  0  0  0  0  0  0  0  0  0
  2  1  1  1  0  0  0
  2  3  1  0  0  0  0
  2  5  1  0  0  0  0
  3  4  1  0  0  0  0
  3 16  1  0  0  0  0
  5  6  1  0  0  0  0
  6  7  1  0  0  0  0
  7  8  1  0  0  0  0
  9  8  1  1  0  0  0
  9 10  1  0  0  0  0
  9 11  1  0  0  0  0
 10 15  1  0  0  0  0
 11 12  1  6  0  0  0
 11 13  1  0  0  0  0
 13 14  1  6  0  0  0
 13 15  1  0  0  0  0
 15 26  1  1  0  0  0
 17 18  2  0  0  0  0
 17 22  1  0  0  0  0
 18 19  1  0  0  0  0
 19 20  2  0  0  0  0
 20 21  1  0  0  0  0
 20 26  1  0  0  0  0
 21 22  2  0  0  0  0
 21 24  1  0  0  0  0
 22 23  1  0  0  0  0
 24 25  2  0  0  0  0
 25 26  1  0  0  0  0
M  END
>  <CHROM.1>
-170.51824260,-168.32711796,169.13123769,154.61785973,-121.05697251,-47.95540875
-78.45455481,46.48477046,56.30088525,32.96667084,0.90757326,0.45794620,2.26018646

>  <Name>
ligand

>  <RI>
0

>  <Rbt.Current_Directory>
/home/itssahil/PROJECTS/Mol_Feturizer/New_Systems/rnas/3GX3

>  <Rbt.Executable>
rbdock ($Id: //depot/dev/client3/rdock/2013.1/src/exe/rbdock.cxx#4 $)

>  <Rbt.Library>
libRbt.so (2013.1, Build901 2013/11/27)

>  <Rbt.Parameter_File>
/export/apps/rDock/src/rDock_2013.1_src/data/scripts/dock_solv.prm

>  <Rbt.Receptor>
prm/pocket_docking_7.prm

>  <SCORE>
-17.0601

>  <SCORE.INTER>
-15.9484

>  <SCORE.INTER.CONST>
1

>  <SCORE.INTER.POLAR>
0

>  <SCORE.INTER.ROT>
7

>  <SCORE.INTER.SOLV>
18.138

>  <SCORE.INTER.VDW>
-24.9449

>  <SCORE.INTER.norm>
-0.613399

>  <SCORE.INTRA>
-1.11172

>  <SCORE.INTRA.DIHEDRAL>
1.70628

>  <SCORE.INTRA.DIHEDRAL.0>
5.78979

>  <SCORE.INTRA.POLAR>
0

>  <SCORE.INTRA.POLAR.0>
0

>  <SCORE.INTRA.REPUL>
0

>  <SCORE.INTRA.REPUL.0>
0

>  <SCORE.INTRA.SOLV>
-0.838766

>  <SCORE.INTRA.SOLV.lig_0>
-49.9151

>  <SCORE.INTRA.VDW>
-1.54548

>  <SCORE.INTRA.VDW.0>
-0.211125

>  <SCORE.INTRA.norm>
-0.0427585

>  <SCORE.RESTR>
0

>  <SCORE.RESTR.CAVITY>
0

>  <SCORE.RESTR.norm>
0

>  <SCORE.SYSTEM>
0

>  <SCORE.SYSTEM.CONST>
0

>  <SCORE.SYSTEM.DIHEDRAL>
0

>  <SCORE.SYSTEM.SOLV>
0

>  <SCORE.SYSTEM.norm>
0

>  <SCORE.heavy>
26

>  <SCORE.norm>
-0.656158

>  <RMSD>
6.269

$$$$
ligand
 OpenBabel11021811483D
libRbt.so/2013.1/901 2013/11/27
 26 28  0  0  0  0  0  0  0  0999 V2000
   46.8338   53.0476   37.2284 N   0  0  0  0  0  0  0  0  0  0  0  0
   46.7447   53.8339   35.9949 C   0  0  2  0  0  0  0  0  0  0  0  0
   45.3481   53.8647   35.3700 C   0  0  0  0  0  0  0  0  0  0  0  0
   44.6555   52.8495   35.4452 O   0  0  0  0  0  0  0  0  0  0  0  0
   47.7181   53.4115   34.8869 C   0  0  0  0  0  0  0  0  0  0  0  0
   47.8502   54.2210   33.6086 C   0  0  0  0  0  0  0  0  0  0  0  0
   48.4396   55.8587   34.0965 S   0  0  0  0  0  0  0  0  0  0  0  0
   47.0102   56.5258   33.2115 C   0  0  0  0  0  0  0  0  0  0  0  0
   47.1870   57.9647   32.7149 C   0  0  1  0  0  0  0  0  0  0  0  0
   48.4174   58.1721   32.0118 O   0  0  0  0  0  0  0  0  0  0  0  0
   46.0597   58.3537   31.7695 C   0  0  1  0  0  0  0  0  0  0  0  0
   44.9975   58.9712   32.4621 O   0  0  0  0  0  0  0  0  0  0  0  0
   46.7193   59.2665   30.7439 C   0  0  1  0  0  0  0  0  0  0  0  0
   46.6404   60.6246   31.1273 O   0  0  0  0  0  0  0  0  0  0  0  0
   48.1780   58.8563   30.7928 C   0  0  2  0  0  0  0  0  0  0  0  0
   44.8839   54.8651   34.8091 O   0  0  0  0  0  0  0  0  0  0  0  0
   50.2012   54.2812   29.1826 N   0  0  0  0  0  0  0  0  0  0  0  0
   49.9980   54.7142   30.4686 C   0  0  0  0  0  0  0  0  0  0  0  0
   49.4672   55.9664   30.6968 N   0  0  0  0  0  0  0  0  0  0  0  0
   49.1082   56.7658   29.6767 C   0  0  0  0  0  0  0  0  0  0  0  0
   49.3033   56.3469   28.3716 C   0  0  0  0  0  0  0  0  0  0  0  0
   49.8541   55.1023   28.1392 C   0  0  0  0  0  0  0  0  0  0  0  0
   50.0375   54.6780   26.9039 N   0  0  0  0  0  0  0  0  0  0  0  0
   48.8673   57.3217   27.5429 N   0  0  0  0  0  0  0  0  0  0  0  0
   48.4249   58.3564   28.3013 C   0  0  0  0  0  0  0  0  0  0  0  0
   48.5667   58.0239   29.6308 N   0  0  0  0  0  0  0  0  0  0  0  0
  2  1  1  1  0  0  0
  2  3  1  0  0  0  0
  2  5  1  0  0  0  0
  3  4  1  0  0  0  0
  3 16  1  0  0  0  0
  5  6  1  0  0  0  0
  6  7  1  0  0  0  0
  7  8  1  0  0  0  0
  9  8  1  6  0  0  0
  9 10  1  0  0  0  0
  9 11  1  0  0  0  0
 10 15  1  0  0  0  0
 11 12  1  1  0  0  0
 11 13  1  0  0  0  0
 13 14  1  1  0  0  0
 13 15  1  0  0  0  0
 15 26  1  6  0  0  0
 17 18  2  0  0  0  0
 17 22  1  0  0  0  0
 18 19  1  0  0  0  0
 19 20  2  0  0  0  0
 20 21  1  0  0  0  0
 20 26  1  0  0  0  0
 21 22  2  0  0  0  0
 21 24  1  0  0  0  0
 22 23  1  0  0  0  0
 24 25  2  0  0  0  0
 25 26  1  0  0  0  0
M  END
>  <CHROM.1>
-35.70218415,-173.37941007,62.10459262,-125.46494894,-155.00567363,49.05004915
-0.97437948,47.71567430,56.23785237,31.93477333,-2.18254259,0.92729692,-0.62452464

>  <Name>
ligand

>  <RI>
0

>  <Rbt.Current_Directory>
/home/itssahil/PROJECTS/Mol_Feturizer/New_Systems/rnas/3GX3

>  <Rbt.Executable>
rbdock ($Id: //depot/dev/client3/rdock/2013.1/src/exe/rbdock.cxx#4 $)

>  <Rbt.Library>
libRbt.so (2013.1, Build901 2013/11/27)

>  <Rbt.Parameter_File>
/export/apps/rDock/src/rDock_2013.1_src/data/scripts/dock_solv.prm

>  <Rbt.Receptor>
prm/pocket_docking_4.prm

>  <SCORE>
-18.0369

>  <SCORE.INTER>
-14.6125

>  <SCORE.INTER.CONST>
1

>  <SCORE.INTER.POLAR>
0

>  <SCORE.INTER.ROT>
7

>  <SCORE.INTER.SOLV>
11.8334

>  <SCORE.INTER.VDW>
-21.9528

>  <SCORE.INTER.norm>
-0.56202

>  <SCORE.INTRA>
-3.42436

>  <SCORE.INTRA.DIHEDRAL>
0.875506

>  <SCORE.INTRA.DIHEDRAL.0>
5.78979

>  <SCORE.INTRA.POLAR>
0

>  <SCORE.INTRA.POLAR.0>
0

>  <SCORE.INTRA.REPUL>
0

>  <SCORE.INTRA.REPUL.0>
0

>  <SCORE.INTRA.SOLV>
-0.805023

>  <SCORE.INTRA.SOLV.lig_0>
-49.9151

>  <SCORE.INTRA.VDW>
-3.45961

>  <SCORE.INTRA.VDW.0>
-0.211125

>  <SCORE.INTRA.norm>
-0.131706

>  <SCORE.RESTR>
0

>  <SCORE.RESTR.CAVITY>
0

>  <SCORE.RESTR.norm>
0

>  <SCORE.SYSTEM>
0

>  <SCORE.SYSTEM.CONST>
0

>  <SCORE.SYSTEM.DIHEDRAL>
0

>  <SCORE.SYSTEM.SOLV>
0

>  <SCORE.SYSTEM.norm>
0

>  <SCORE.heavy>
26

>  <SCORE.norm>
-0.693726

>  <RMSD>
6.320

$$$$
ligand
 OpenBabel11021811483D
libRbt.so/2013.1/901 2013/11/27
 26 28  0  0  0  0  0  0  0  0999 V2000
   45.6458   54.0399   34.5225 N   0  0  0  0  0  0  0  0  0  0  0  0
   46.6887   53.1192   34.9835 C   0  0  2  0  0  0  0  0  0  0  0  0
   47.1766   53.3867   36.4090 C   0  0  0  0  0  0  0  0  0  0  0  0
   47.6808   54.4829   36.6544 O   0  0  0  0  0  0  0  0  0  0  0  0
   47.9355   53.0555   34.0917 C   0  0  0  0  0  0  0  0  0  0  0  0
   48.3619   54.2482   33.2538 C   0  0  0  0  0  0  0  0  0  0  0  0
   49.0123   55.4795   34.4064 S   0  0  0  0  0  0  0  0  0  0  0  0
   49.6521   56.3513   32.9566 C   0  0  0  0  0  0  0  0  0  0  0  0
   48.9021   57.6422   32.6110 C   0  0  1  0  0  0  0  0  0  0  0  0
   49.4278   58.3090   31.4578 O   0  0  0  0  0  0  0  0  0  0  0  0
   47.4332   57.3572   32.3330 C   0  0  1  0  0  0  0  0  0  0  0  0
   46.6530   57.4928   33.5002 O   0  0  0  0  0  0  0  0  0  0  0  0
   47.0531   58.3457   31.2382 C   0  0  1  0  0  0  0  0  0  0  0  0
   46.5442   59.5495   31.7761 O   0  0  0  0  0  0  0  0  0  0  0  0
   48.3778   58.6606   30.5716 C   0  0  2  0  0  0  0  0  0  0  0  0
   47.0728   52.5584   37.3223 O   0  0  0  0  0  0  0  0  0  0  0  0
   50.2946   54.4697   28.0458 N   0  0  0  0  0  0  0  0  0  0  0  0
   50.3858   54.7714   29.3812 C   0  0  0  0  0  0  0  0  0  0  0  0
   49.8301   55.9385   29.8619 N   0  0  0  0  0  0  0  0  0  0  0  0
   49.1639   56.7776   29.0492 C   0  0  0  0  0  0  0  0  0  0  0  0
   49.0590   56.4905   27.6988 C   0  0  0  0  0  0  0  0  0  0  0  0
   49.6324   55.3336   27.2099 C   0  0  0  0  0  0  0  0  0  0  0  0
   49.5340   55.0341   25.9293 N   0  0  0  0  0  0  0  0  0  0  0  0
   48.3524   57.4798   27.1079 N   0  0  0  0  0  0  0  0  0  0  0  0
   48.0323   58.3966   28.0557 C   0  0  0  0  0  0  0  0  0  0  0  0
   48.5288   57.9720   29.2687 N   0  0  0  0  0  0  0  0  0  0  0  0
  2  1  1  6  0  0  0
  2  3  1  0  0  0  0
  2  5  1  0  0  0  0
  3  4  1  0  0  0  0
  3 16  1  0  0  0  0
  5  6  1  0  0  0  0
  6  7  1  0  0  0  0
  7  8  1  0  0  0  0
  9  8  1  6  0  0  0
  9 10  1  0  0  0  0
  9 11  1  0  0  0  0
 10 15  1  0  0  0  0
 11 12  1  1  0  0  0
 11 13  1  0  0  0  0
 13 14  1  1  0  0  0
 13 15  1  0  0  0  0
 15 26  1  6  0  0  0
 17 18  2  0  0  0  0
 17 22  1  0  0  0  0
 18 19  1  0  0  0  0
 19 20  2  0  0  0  0
 20 21  1  0  0  0  0
 20 26  1  0  0  0  0
 21 22  2  0  0  0  0
 21 24  1  0  0  0  0
 22 23  1  0  0  0  0
 24 25  2  0  0  0  0
 25 26  1  0  0  0  0
M  END
>  <CHROM.1>
-60.28144490,28.15143611,72.03910603,167.86402678,107.73544098,-179.85882685
26.58781973,48.32458918,56.00614290,31.78462349,-2.13129314,1.17637726,-0.69489282

>  <Name>
ligand

>  <RI>
0

>  <Rbt.Current_Directory>
/home/itssahil/PROJECTS/Mol_Feturizer/New_Systems/rnas/3GX3

>  <Rbt.Executable>
rbdock ($Id: //depot/dev/client3/rdock/2013.1/src/exe/rbdock.cxx#4 $)

>  <Rbt.Library>
libRbt.so (2013.1, Build901 2013/11/27)

>  <Rbt.Parameter_File>
/export/apps/rDock/src/rDock_2013.1_src/data/scripts/dock_solv.prm

>  <Rbt.Receptor>
prm/pocket_docking_6.prm

>  <SCORE>
-18.1041

>  <SCORE.INTER>
-17.2243

>  <SCORE.INTER.CONST>
1

>  <SCORE.INTER.POLAR>
0

>  <SCORE.INTER.ROT>
7

>  <SCORE.INTER.SOLV>
10.5042

>  <SCORE.INTER.VDW>
-23.2509

>  <SCORE.INTER.norm>
-0.662473

>  <SCORE.INTRA>
-0.879846

>  <SCORE.INTRA.DIHEDRAL>
3.00475

>  <SCORE.INTRA.DIHEDRAL.0>
5.78979

>  <SCORE.INTRA.POLAR>
0

>  <SCORE.INTRA.POLAR.0>
0

>  <SCORE.INTRA.REPUL>
0

>  <SCORE.INTRA.REPUL.0>
0

>  <SCORE.INTRA.SOLV>
1.48147

>  <SCORE.INTRA.SOLV.lig_0>
-49.9151

>  <SCORE.INTRA.VDW>
-3.12295

>  <SCORE.INTRA.VDW.0>
-0.211125

>  <SCORE.INTRA.norm>
-0.0338402

>  <SCORE.RESTR>
0

>  <SCORE.RESTR.CAVITY>
0

>  <SCORE.RESTR.norm>
0

>  <SCORE.SYSTEM>
0

>  <SCORE.SYSTEM.CONST>
0

>  <SCORE.SYSTEM.DIHEDRAL>
0

>  <SCORE.SYSTEM.SOLV>
0

>  <SCORE.SYSTEM.norm>
0

>  <SCORE.heavy>
26

>  <SCORE.norm>
-0.696313

>  <RMSD>
6.331

$$$$
ligand
 OpenBabel11021811483D
libRbt.so/2013.1/901 2013/11/27
 26 28  0  0  0  0  0  0  0  0999 V2000
   48.0581   52.8357   33.4700 N   0  0  0  0  0  0  0  0  0  0  0  0
   47.8145   53.3227   34.8306 C   0  0  2  0  0  0  0  0  0  0  0  0
   46.3577   53.6975   35.1115 C   0  0  0  0  0  0  0  0  0  0  0  0
   45.9843   53.7392   36.2840 O   0  0  0  0  0  0  0  0  0  0  0  0
   48.6713   54.5240   35.2506 C   0  0  0  0  0  0  0  0  0  0  0  0
   49.0176   55.6239   34.2623 C   0  0  0  0  0  0  0  0  0  0  0  0
   47.4472   56.2869   33.6606 S   0  0  0  0  0  0  0  0  0  0  0  0
   48.4284   57.3669   32.5918 C   0  0  0  0  0  0  0  0  0  0  0  0
   47.6273   58.4805   31.9089 C   0  0  1  0  0  0  0  0  0  0  0  0
   48.2604   58.9893   30.7293 O   0  0  0  0  0  0  0  0  0  0  0  0
   46.2491   57.9825   31.4984 C   0  0  1  0  0  0  0  0  0  0  0  0
   45.2918   58.2309   32.5039 O   0  0  0  0  0  0  0  0  0  0  0  0
   45.9529   58.7109   30.1938 C   0  0  1  0  0  0  0  0  0  0  0  0
   45.2627   59.9236   30.4187 O   0  0  0  0  0  0  0  0  0  0  0  0
   47.3299   59.0545   29.6609 C   0  0  2  0  0  0  0  0  0  0  0  0
   45.5491   53.9727   34.2163 O   0  0  0  0  0  0  0  0  0  0  0  0
   50.3030   54.9792   28.1875 N   0  0  0  0  0  0  0  0  0  0  0  0
   50.2094   55.5573   29.4283 C   0  0  0  0  0  0  0  0  0  0  0  0
   49.3799   56.6422   29.6206 N   0  0  0  0  0  0  0  0  0  0  0  0
   48.6272   57.1282   28.6177 C   0  0  0  0  0  0  0  0  0  0  0  0
   48.7058   56.5580   27.3585 C   0  0  0  0  0  0  0  0  0  0  0  0
   49.5510   55.4850   27.1569 C   0  0  0  0  0  0  0  0  0  0  0  0
   49.6324   54.9185   25.9686 N   0  0  0  0  0  0  0  0  0  0  0  0
   47.8624   57.2229   26.5377 N   0  0  0  0  0  0  0  0  0  0  0  0
   47.2733   58.2166   27.2498 C   0  0  0  0  0  0  0  0  0  0  0  0
   47.7379   58.1686   28.5459 N   0  0  0  0  0  0  0  0  0  0  0  0
  2  1  1  6  0  0  0
  2  3  1  0  0  0  0
  2  5  1  0  0  0  0
  3  4  1  0  0  0  0
  3 16  1  0  0  0  0
  5  6  1  0  0  0  0
  6  7  1  0  0  0  0
  7  8  1  0  0  0  0
  9  8  1  6  0  0  0
  9 10  1  0  0  0  0
  9 11  1  0  0  0  0
 10 15  1  0  0  0  0
 11 12  1  1  0  0  0
 11 13  1  0  0  0  0
 13 14  1  1  0  0  0
 13 15  1  0  0  0  0
 15 26  1  6  0  0  0
 17 18  2  0  0  0  0
 17 22  1  0  0  0  0
 18 19  1  0  0  0  0
 19 20  2  0  0  0  0
 20 21  1  0  0  0  0
 20 26  1  0  0  0  0
 21 22  2  0  0  0  0
 21 24  1  0  0  0  0
 22 23  1  0  0  0  0
 24 25  2  0  0  0  0
 25 26  1  0  0  0  0
M  END
>  <CHROM.1>
159.31404596,37.14677982,57.93989056,-177.62846693,-168.89744934,-157.95993988
18.42557452,47.71892808,56.44982758,31.20031552,-1.87922394,0.94339570,-0.95248773

>  <Name>
ligand

>  <RI>
0

>  <Rbt.Current_Directory>
/home/itssahil/PROJECTS/Mol_Feturizer/New_Systems/rnas/3GX3

>  <Rbt.Executable>
rbdock ($Id: //depot/dev/client3/rdock/2013.1/src/exe/rbdock.cxx#4 $)

>  <Rbt.Library>
libRbt.so (2013.1, Build901 2013/11/27)

>  <Rbt.Parameter_File>
/export/apps/rDock/src/rDock_2013.1_src/data/scripts/dock_solv.prm

>  <Rbt.Receptor>
prm/pocket_docking_4.prm

>  <SCORE>
-14.2036

>  <SCORE.INTER>
-12.4623

>  <SCORE.INTER.CONST>
1

>  <SCORE.INTER.POLAR>
0

>  <SCORE.INTER.ROT>
7

>  <SCORE.INTER.SOLV>
13.4012

>  <SCORE.INTER.VDW>
-21.042

>  <SCORE.INTER.norm>
-0.479321

>  <SCORE.INTRA>
-1.74124

>  <SCORE.INTRA.DIHEDRAL>
0.572279

>  <SCORE.INTRA.DIHEDRAL.0>
5.78979

>  <SCORE.INTRA.POLAR>
0

>  <SCORE.INTRA.POLAR.0>
0

>  <SCORE.INTRA.REPUL>
0

>  <SCORE.INTRA.REPUL.0>
0

>  <SCORE.INTRA.SOLV>
0.943521

>  <SCORE.INTRA.SOLV.lig_0>
-49.9151

>  <SCORE.INTRA.VDW>
-2.49914

>  <SCORE.INTRA.VDW.0>
-0.211125

>  <SCORE.INTRA.norm>
-0.0669709

>  <SCORE.RESTR>
0

>  <SCORE.RESTR.CAVITY>
0

>  <SCORE.RESTR.norm>
0

>  <SCORE.SYSTEM>
0

>  <SCORE.SYSTEM.CONST>
0

>  <SCORE.SYSTEM.DIHEDRAL>
0

>  <SCORE.SYSTEM.SOLV>
0

>  <SCORE.SYSTEM.norm>
0

>  <SCORE.heavy>
26

>  <SCORE.norm>
-0.546292

>  <RMSD>
6.332

$$$$
ligand
 OpenBabel11021811483D
libRbt.so/2013.1/901 2013/11/27
 26 28  0  0  0  0  0  0  0  0999 V2000
   45.2876   53.9077   33.6609 N   0  0  0  0  0  0  0  0  0  0  0  0
   46.4314   53.4803   34.4714 C   0  0  2  0  0  0  0  0  0  0  0  0
   46.0668   53.0511   35.8943 C   0  0  0  0  0  0  0  0  0  0  0  0
   45.0032   53.4520   36.3675 O   0  0  0  0  0  0  0  0  0  0  0  0
   47.5591   54.5132   34.5940 C   0  0  0  0  0  0  0  0  0  0  0  0
   48.3600   54.9476   33.3789 C   0  0  0  0  0  0  0  0  0  0  0  0
   47.2006   55.7816   32.2708 S   0  0  0  0  0  0  0  0  0  0  0  0
   47.4800   57.2687   33.2618 C   0  0  0  0  0  0  0  0  0  0  0  0
   47.1735   58.5821   32.5343 C   0  0  1  0  0  0  0  0  0  0  0  0
   48.1810   58.9502   31.5854 O   0  0  0  0  0  0  0  0  0  0  0  0
   45.8574   58.4869   31.7761 C   0  0  1  0  0  0  0  0  0  0  0  0
   44.7774   58.9414   32.5612 O   0  0  0  0  0  0  0  0  0  0  0  0
   46.0792   59.3194   30.5200 C   0  0  1  0  0  0  0  0  0  0  0  0
   45.6805   60.6624   30.7073 O   0  0  0  0  0  0  0  0  0  0  0  0
   47.5854   59.3040   30.3478 C   0  0  2  0  0  0  0  0  0  0  0  0
   46.7846   52.3113   36.5787 O   0  0  0  0  0  0  0  0  0  0  0  0
   50.2265   54.9246   29.1381 N   0  0  0  0  0  0  0  0  0  0  0  0
   50.0541   55.4987   30.3723 C   0  0  0  0  0  0  0  0  0  0  0  0
   49.3370   56.6708   30.4914 N   0  0  0  0  0  0  0  0  0  0  0  0
   48.7680   57.2496   29.4192 C   0  0  0  0  0  0  0  0  0  0  0  0
   48.9287   56.6853   28.1652 C   0  0  0  0  0  0  0  0  0  0  0  0
   49.6637   55.5233   28.0389 C   0  0  0  0  0  0  0  0  0  0  0  0
   49.8192   54.9617   26.8557 N   0  0  0  0  0  0  0  0  0  0  0  0
   48.2691   57.4507   27.2672 N   0  0  0  0  0  0  0  0  0  0  0  0
   47.7177   58.4997   27.9283 C   0  0  0  0  0  0  0  0  0  0  0  0
   48.0180   58.3867   29.2681 N   0  0  0  0  0  0  0  0  0  0  0  0
  2  1  1  1  0  0  0
  2  3  1  0  0  0  0
  2  5  1  0  0  0  0
  3  4  1  0  0  0  0
  3 16  1  0  0  0  0
  5  6  1  0  0  0  0
  6  7  1  0  0  0  0
  7  8  1  0  0  0  0
  9  8  1  6  0  0  0
  9 10  1  0  0  0  0
  9 11  1  0  0  0  0
 10 15  1  0  0  0  0
 11 12  1  1  0  0  0
 11 13  1  0  0  0  0
 13 14  1  1  0  0  0
 13 15  1  0  0  0  0
 15 26  1  6  0  0  0
 17 18  2  0  0  0  0
 17 22  1  0  0  0  0
 18 19  1  0  0  0  0
 19 20  2  0  0  0  0
 20 21  1  0  0  0  0
 20 26  1  0  0  0  0
 21 22  2  0  0  0  0
 21 24  1  0  0  0  0
 22 23  1  0  0  0  0
 24 25  2  0  0  0  0
 25 26  1  0  0  0  0
M  END
>  <CHROM.1>
-21.11953872,-64.69843820,64.26567898,83.64831726,157.15846504,-75.74308489
6.94253709,47.47551936,56.46358513,31.57762395,-2.02245242,0.90602697,-0.66211633

>  <Name>
ligand

>  <RI>
0

>  <Rbt.Current_Directory>
/home/itssahil/PROJECTS/Mol_Feturizer/New_Systems/rnas/3GX3

>  <Rbt.Executable>
rbdock ($Id: //depot/dev/client3/rdock/2013.1/src/exe/rbdock.cxx#4 $)

>  <Rbt.Library>
libRbt.so (2013.1, Build901 2013/11/27)

>  <Rbt.Parameter_File>
/export/apps/rDock/src/rDock_2013.1_src/data/scripts/dock_solv.prm

>  <Rbt.Receptor>
prm/pocket_docking_5.prm

>  <SCORE>
-14.6039

>  <SCORE.INTER>
-12.6233

>  <SCORE.INTER.CONST>
1

>  <SCORE.INTER.POLAR>
0

>  <SCORE.INTER.ROT>
7

>  <SCORE.INTER.SOLV>
9.59267

>  <SCORE.INTER.VDW>
-19.8798

>  <SCORE.INTER.norm>
-0.485513

>  <SCORE.INTRA>
-1.98055

>  <SCORE.INTRA.DIHEDRAL>
-0.377446

>  <SCORE.INTRA.DIHEDRAL.0>
5.78979

>  <SCORE.INTRA.POLAR>
0

>  <SCORE.INTRA.POLAR.0>
0

>  <SCORE.INTRA.REPUL>
0

>  <SCORE.INTRA.REPUL.0>
0

>  <SCORE.INTRA.SOLV>
1.62275

>  <SCORE.INTRA.SOLV.lig_0>
-49.9151

>  <SCORE.INTRA.VDW>
-2.6032

>  <SCORE.INTRA.VDW.0>
-0.211125

>  <SCORE.INTRA.norm>
-0.0761749

>  <SCORE.RESTR>
0

>  <SCORE.RESTR.CAVITY>
0

>  <SCORE.RESTR.norm>
0

>  <SCORE.SYSTEM>
0

>  <SCORE.SYSTEM.CONST>
0

>  <SCORE.SYSTEM.DIHEDRAL>
0

>  <SCORE.SYSTEM.SOLV>
0

>  <SCORE.SYSTEM.norm>
0

>  <SCORE.heavy>
26

>  <SCORE.norm>
-0.561688

>  <RMSD>
6.343

$$$$
ligand
 OpenBabel11021811483D
libRbt.so/2013.1/901 2013/11/27
 26 28  0  0  0  0  0  0  0  0999 V2000
   47.3132   53.8914   34.0799 N   0  0  0  0  0  0  0  0  0  0  0  0
   47.9133   54.9252   33.2320 C   0  0  2  0  0  0  0  0  0  0  0  0
   48.4609   54.4053   31.9010 C   0  0  0  0  0  0  0  0  0  0  0  0
   48.1792   55.0252   30.8751 O   0  0  0  0  0  0  0  0  0  0  0  0
   49.0406   55.7294   33.8925 C   0  0  0  0  0  0  0  0  0  0  0  0
   49.6826   56.9085   33.1825 C   0  0  0  0  0  0  0  0  0  0  0  0
   48.3744   58.1301   32.9297 S   0  0  0  0  0  0  0  0  0  0  0  0
   48.8632   58.1445   31.1883 C   0  0  0  0  0  0  0  0  0  0  0  0
   47.7794   58.6493   30.2298 C   0  0  1  0  0  0  0  0  0  0  0  0
   48.2539   58.8419   28.8923 O   0  0  0  0  0  0  0  0  0  0  0  0
   46.6203   57.6660   30.1567 C   0  0  1  0  0  0  0  0  0  0  0  0
   45.6138   57.9867   31.0913 O   0  0  0  0  0  0  0  0  0  0  0  0
   46.1448   57.7430   28.7117 C   0  0  1  0  0  0  0  0  0  0  0  0
   45.1204   58.7033   28.5502 O   0  0  0  0  0  0  0  0  0  0  0  0
   47.3665   58.2399   27.9641 C   0  0  2  0  0  0  0  0  0  0  0  0
   49.1818   53.4034   31.8153 O   0  0  0  0  0  0  0  0  0  0  0  0
   51.0760   54.5182   28.0410 N   0  0  0  0  0  0  0  0  0  0  0  0
   50.7397   55.4026   29.0347 C   0  0  0  0  0  0  0  0  0  0  0  0
   49.7405   56.3289   28.8215 N   0  0  0  0  0  0  0  0  0  0  0  0
   49.0583   56.3615   27.6630 C   0  0  0  0  0  0  0  0  0  0  0  0
   49.3810   55.4765   26.6484 C   0  0  0  0  0  0  0  0  0  0  0  0
   50.3951   54.5615   26.8502 C   0  0  0  0  0  0  0  0  0  0  0  0
   50.7111   53.7011   25.9019 N   0  0  0  0  0  0  0  0  0  0  0  0
   48.5600   55.7134   25.6010 N   0  0  0  0  0  0  0  0  0  0  0  0
   47.7437   56.7470   25.9275 C   0  0  0  0  0  0  0  0  0  0  0  0
   48.0408   57.1590   27.2082 N   0  0  0  0  0  0  0  0  0  0  0  0
  2  1  1  1  0  0  0
  2  3  1  0  0  0  0
  2  5  1  0  0  0  0
  3  4  1  0  0  0  0
  3 16  1  0  0  0  0
  5  6  1  0  0  0  0
  6  7  1  0  0  0  0
  7  8  1  0  0  0  0
  9  8  1  1  0  0  0
  9 10  1  0  0  0  0
  9 11  1  0  0  0  0
 10 15  1  0  0  0  0
 11 12  1  1  0  0  0
 11 13  1  0  0  0  0
 13 14  1  1  0  0  0
 13 15  1  0  0  0  0
 15 26  1  1  0  0  0
 17 18  2  0  0  0  0
 17 22  1  0  0  0  0
 18 19  1  0  0  0  0
 19 20  2  0  0  0  0
 20 21  1  0  0  0  0
 20 26  1  0  0  0  0
 21 22  2  0  0  0  0
 21 24  1  0  0  0  0
 22 23  1  0  0  0  0
 24 25  2  0  0  0  0
 25 26  1  0  0  0  0
M  END
>  <CHROM.1>
133.15670817,-174.95150755,62.08439126,-127.76558534,158.36138142,171.10599759
30.47522852,48.39217395,56.43289894,29.85213057,-1.82410028,0.91563806,-1.43572066

>  <Name>
ligand

>  <RI>
0

>  <Rbt.Current_Directory>
/home/itssahil/PROJECTS/Mol_Feturizer/New_Systems/rnas/3GX3

>  <Rbt.Executable>
rbdock ($Id: //depot/dev/client3/rdock/2013.1/src/exe/rbdock.cxx#4 $)

>  <Rbt.Library>
libRbt.so (2013.1, Build901 2013/11/27)

>  <Rbt.Parameter_File>
/export/apps/rDock/src/rDock_2013.1_src/data/scripts/dock_solv.prm

>  <Rbt.Receptor>
prm/pocket_docking_5.prm

>  <SCORE>
-17.7477

>  <SCORE.INTER>
-12.6794

>  <SCORE.INTER.CONST>
1

>  <SCORE.INTER.POLAR>
0

>  <SCORE.INTER.ROT>
7

>  <SCORE.INTER.SOLV>
9.46345

>  <SCORE.INTER.VDW>
-19.8741

>  <SCORE.INTER.norm>
-0.48767

>  <SCORE.INTRA>
-5.0683

>  <SCORE.INTRA.DIHEDRAL>
0.329334

>  <SCORE.INTRA.DIHEDRAL.0>
5.78979

>  <SCORE.INTRA.POLAR>
0

>  <SCORE.INTRA.POLAR.0>
0

>  <SCORE.INTRA.REPUL>
0

>  <SCORE.INTRA.REPUL.0>
0

>  <SCORE.INTRA.SOLV>
-0.668205

>  <SCORE.INTRA.SOLV.lig_0>
-49.9151

>  <SCORE.INTRA.VDW>
-4.89886

>  <SCORE.INTRA.VDW.0>
-0.211125

>  <SCORE.INTRA.norm>
-0.194935

>  <SCORE.RESTR>
0

>  <SCORE.RESTR.CAVITY>
0

>  <SCORE.RESTR.norm>
0

>  <SCORE.SYSTEM>
0

>  <SCORE.SYSTEM.CONST>
0

>  <SCORE.SYSTEM.DIHEDRAL>
0

>  <SCORE.SYSTEM.SOLV>
0

>  <SCORE.SYSTEM.norm>
0

>  <SCORE.heavy>
26

>  <SCORE.norm>
-0.682605

>  <RMSD>
6.366

$$$$
ligand
 OpenBabel11021811483D
libRbt.so/2013.1/901 2013/11/27
 26 28  0  0  0  0  0  0  0  0999 V2000
   46.5123   53.7012   34.0827 N   0  0  0  0  0  0  0  0  0  0  0  0
   47.8178   54.2650   34.4371 C   0  0  2  0  0  0  0  0  0  0  0  0
   48.0851   54.3311   35.9424 C   0  0  0  0  0  0  0  0  0  0  0  0
   47.2352   53.8689   36.7041 O   0  0  0  0  0  0  0  0  0  0  0  0
   48.0912   55.6662   33.8753 C   0  0  0  0  0  0  0  0  0  0  0  0
   49.5092   56.1919   33.7353 C   0  0  0  0  0  0  0  0  0  0  0  0
   49.3839   57.9936   33.6594 S   0  0  0  0  0  0  0  0  0  0  0  0
   49.3239   57.8128   31.8608 C   0  0  0  0  0  0  0  0  0  0  0  0
   48.4481   58.8490   31.1484 C   0  0  1  0  0  0  0  0  0  0  0  0
   48.2688   58.5740   29.7544 O   0  0  0  0  0  0  0  0  0  0  0  0
   47.0625   58.9095   31.7749 C   0  0  1  0  0  0  0  0  0  0  0  0
   46.9968   59.8923   32.7844 O   0  0  0  0  0  0  0  0  0  0  0  0
   46.1264   59.1860   30.6055 C   0  0  1  0  0  0  0  0  0  0  0  0
   45.9190   60.5716   30.4197 O   0  0  0  0  0  0  0  0  0  0  0  0
   46.8971   58.6691   29.4067 C   0  0  2  0  0  0  0  0  0  0  0  0
   49.1189   54.8131   36.4217 O   0  0  0  0  0  0  0  0  0  0  0  0
   46.7287   53.4761   30.1954 N   0  0  0  0  0  0  0  0  0  0  0  0
   47.3920   54.4256   30.9309 C   0  0  0  0  0  0  0  0  0  0  0  0
   47.3332   55.7513   30.5552 N   0  0  0  0  0  0  0  0  0  0  0  0
   46.6044   56.1416   29.4945 C   0  0  0  0  0  0  0  0  0  0  0  0
   45.9262   55.1993   28.7403 C   0  0  0  0  0  0  0  0  0  0  0  0
   45.9998   53.8685   29.1008 C   0  0  0  0  0  0  0  0  0  0  0  0
   45.3518   52.9554   28.4038 N   0  0  0  0  0  0  0  0  0  0  0  0
   45.2795   55.8403   27.7413 N   0  0  0  0  0  0  0  0  0  0  0  0
   45.5580   57.1649   27.8373 C   0  0  0  0  0  0  0  0  0  0  0  0
   46.3795   57.3675   28.9246 N   0  0  0  0  0  0  0  0  0  0  0  0
  2  1  1  1  0  0  0
  2  3  1  0  0  0  0
  2  5  1  0  0  0  0
  3  4  1  0  0  0  0
  3 16  1  0  0  0  0
  5  6  1  0  0  0  0
  6  7  1  0  0  0  0
  7  8  1  0  0  0  0
  9  8  1  1  0  0  0
  9 10  1  0  0  0  0
  9 11  1  0  0  0  0
 10 15  1  0  0  0  0
 11 12  1  1  0  0  0
 11 13  1  0  0  0  0
 13 14  1  6  0  0  0
 13 15  1  0  0  0  0
 15 26  1  1  0  0  0
 17 18  2  0  0  0  0
 17 22  1  0  0  0  0
 18 19  1  0  0  0  0
 19 20  2  0  0  0  0
 20 21  1  0  0  0  0
 20 26  1  0  0  0  0
 21 22  2  0  0  0  0
 21 24  1  0  0  0  0
 22 23  1  0  0  0  0
 24 25  2  0  0  0  0
 25 26  1  0  0  0  0
M  END
>  <CHROM.1>
2.94836218,-158.97942521,-159.00946077,-92.50643670,146.28343460,-171.84454837
44.75826085,47.33746305,56.49084316,31.66972804,0.70752076,1.14805034,2.68083338

>  <Name>
ligand

>  <RI>
0

>  <Rbt.Current_Directory>
/home/itssahil/PROJECTS/Mol_Feturizer/New_Systems/rnas/3GX3

>  <Rbt.Executable>
rbdock ($Id: //depot/dev/client3/rdock/2013.1/src/exe/rbdock.cxx#4 $)

>  <Rbt.Library>
libRbt.so (2013.1, Build901 2013/11/27)

>  <Rbt.Parameter_File>
/export/apps/rDock/src/rDock_2013.1_src/data/scripts/dock_solv.prm

>  <Rbt.Receptor>
prm/pocket_docking_5.prm

>  <SCORE>
-14.632

>  <SCORE.INTER>
-12.7932

>  <SCORE.INTER.CONST>
1

>  <SCORE.INTER.POLAR>
0

>  <SCORE.INTER.ROT>
7

>  <SCORE.INTER.SOLV>
13.6006

>  <SCORE.INTER.VDW>
-21.329

>  <SCORE.INTER.norm>
-0.492045

>  <SCORE.INTRA>
-1.83916

>  <SCORE.INTRA.DIHEDRAL>
2.96673

>  <SCORE.INTRA.DIHEDRAL.0>
5.78979

>  <SCORE.INTRA.POLAR>
0

>  <SCORE.INTRA.POLAR.0>
0

>  <SCORE.INTRA.REPUL>
0

>  <SCORE.INTRA.REPUL.0>
0

>  <SCORE.INTRA.SOLV>
-0.295725

>  <SCORE.INTRA.SOLV.lig_0>
-49.9151

>  <SCORE.INTRA.VDW>
-3.17466

>  <SCORE.INTRA.VDW.0>
-0.211125

>  <SCORE.INTRA.norm>
-0.0707368

>  <SCORE.RESTR>
0.000295457

>  <SCORE.RESTR.CAVITY>
0.000295457

>  <SCORE.RESTR.norm>
1.13637e-05

>  <SCORE.SYSTEM>
0

>  <SCORE.SYSTEM.CONST>
0

>  <SCORE.SYSTEM.DIHEDRAL>
0

>  <SCORE.SYSTEM.SOLV>
0

>  <SCORE.SYSTEM.norm>
0

>  <SCORE.heavy>
26

>  <SCORE.norm>
-0.56277

>  <RMSD>
6.368

$$$$
ligand
 OpenBabel11021811483D
libRbt.so/2013.1/901 2013/11/27
 26 28  0  0  0  0  0  0  0  0999 V2000
   43.8854   53.3924   35.7052 N   0  0  0  0  0  0  0  0  0  0  0  0
   44.7683   53.0342   34.5917 C   0  0  2  0  0  0  0  0  0  0  0  0
   46.2241   53.4662   34.7812 C   0  0  0  0  0  0  0  0  0  0  0  0
   47.0291   53.2032   33.8874 O   0  0  0  0  0  0  0  0  0  0  0  0
   44.3243   53.5583   33.2199 C   0  0  0  0  0  0  0  0  0  0  0  0
   43.8005   54.9741   33.0534 C   0  0  0  0  0  0  0  0  0  0  0  0
   45.0380   56.0691   33.7866 S   0  0  0  0  0  0  0  0  0  0  0  0
   44.7375   57.1780   32.3896 C   0  0  0  0  0  0  0  0  0  0  0  0
   45.6046   58.4415   32.3854 C   0  0  1  0  0  0  0  0  0  0  0  0
   47.0033   58.1658   32.2489 O   0  0  0  0  0  0  0  0  0  0  0  0
   45.2152   59.3617   31.2375 C   0  0  1  0  0  0  0  0  0  0  0  0
   44.2501   60.3077   31.6413 O   0  0  0  0  0  0  0  0  0  0  0  0
   46.5276   59.9945   30.7934 C   0  0  1  0  0  0  0  0  0  0  0  0
   46.7726   61.2135   31.4654 O   0  0  0  0  0  0  0  0  0  0  0  0
   47.5731   58.9963   31.2503 C   0  0  2  0  0  0  0  0  0  0  0  0
   46.6199   54.0772   35.7817 O   0  0  0  0  0  0  0  0  0  0  0  0
   49.9378   54.5231   29.8303 N   0  0  0  0  0  0  0  0  0  0  0  0
   49.5937   54.9383   31.0919 C   0  0  0  0  0  0  0  0  0  0  0  0
   48.9897   56.1651   31.2712 N   0  0  0  0  0  0  0  0  0  0  0  0
   48.6959   56.9551   30.2234 C   0  0  0  0  0  0  0  0  0  0  0  0
   49.0332   56.5538   28.9420 C   0  0  0  0  0  0  0  0  0  0  0  0
   49.6572   55.3356   28.7604 C   0  0  0  0  0  0  0  0  0  0  0  0
   49.9764   54.9278   27.5474 N   0  0  0  0  0  0  0  0  0  0  0  0
   48.6369   57.5146   28.0778 N   0  0  0  0  0  0  0  0  0  0  0  0
   48.0794   58.5242   28.7928 C   0  0  0  0  0  0  0  0  0  0  0  0
   48.1073   58.1892   30.1288 N   0  0  0  0  0  0  0  0  0  0  0  0
  2  1  1  1  0  0  0
  2  3  1  0  0  0  0
  2  5  1  0  0  0  0
  3  4  1  0  0  0  0
  3 16  1  0  0  0  0
  5  6  1  0  0  0  0
  6  7  1  0  0  0  0
  7  8  1  0  0  0  0
  9  8  1  6  0  0  0
  9 10  1  0  0  0  0
  9 11  1  0  0  0  0
 10 15  1  0  0  0  0
 11 12  1  1  0  0  0
 11 13  1  0  0  0  0
 13 14  1  1  0  0  0
 13 15  1  0  0  0  0
 15 26  1  6  0  0  0
 17 18  2  0  0  0  0
 17 22  1  0  0  0  0
 18 19  1  0  0  0  0
 19 20  2  0  0  0  0
 20 21  1  0  0  0  0
 20 26  1  0  0  0  0
 21 22  2  0  0  0  0
 21 24  1  0  0  0  0
 22 23  1  0  0  0  0
 24 25  2  0  0  0  0
 25 26  1  0  0  0  0
M  END
>  <CHROM.1>
-179.89244057,42.78756506,52.43752326,139.62758606,-178.33188737,63.78019988
-34.91412300,46.78054224,56.50291254,31.82194576,-2.26363604,0.74470773,-0.42256741

>  <Name>
ligand

>  <RI>
0

>  <Rbt.Current_Directory>
/home/itssahil/PROJECTS/Mol_Feturizer/New_Systems/rnas/3GX3

>  <Rbt.Executable>
rbdock ($Id: //depot/dev/client3/rdock/2013.1/src/exe/rbdock.cxx#4 $)

>  <Rbt.Library>
libRbt.so (2013.1, Build901 2013/11/27)

>  <Rbt.Parameter_File>
/export/apps/rDock/src/rDock_2013.1_src/data/scripts/dock_solv.prm

>  <Rbt.Receptor>
prm/pocket_docking_4.prm

>  <SCORE>
-15.9917

>  <SCORE.INTER>
-14.5917

>  <SCORE.INTER.CONST>
1

>  <SCORE.INTER.POLAR>
0

>  <SCORE.INTER.ROT>
7

>  <SCORE.INTER.SOLV>
11.6748

>  <SCORE.INTER.VDW>
-21.8861

>  <SCORE.INTER.norm>
-0.561221

>  <SCORE.INTRA>
-1.41463

>  <SCORE.INTRA.DIHEDRAL>
0.262564

>  <SCORE.INTRA.DIHEDRAL.0>
5.78979

>  <SCORE.INTRA.POLAR>
0

>  <SCORE.INTRA.POLAR.0>
0

>  <SCORE.INTRA.REPUL>
0

>  <SCORE.INTRA.REPUL.0>
0

>  <SCORE.INTRA.SOLV>
0.626974

>  <SCORE.INTRA.SOLV.lig_0>
-49.9151

>  <SCORE.INTRA.VDW>
-1.8594

>  <SCORE.INTRA.VDW.0>
-0.211125

>  <SCORE.INTRA.norm>
-0.054409

>  <SCORE.RESTR>
0.0146388

>  <SCORE.RESTR.CAVITY>
0.0146388

>  <SCORE.RESTR.norm>
0.000563029

>  <SCORE.SYSTEM>
0

>  <SCORE.SYSTEM.CONST>
0

>  <SCORE.SYSTEM.DIHEDRAL>
0

>  <SCORE.SYSTEM.SOLV>
0

>  <SCORE.SYSTEM.norm>
0

>  <SCORE.heavy>
26

>  <SCORE.norm>
-0.615067

>  <RMSD>
6.404

$$$$
ligand
 OpenBabel11021811483D
libRbt.so/2013.1/901 2013/11/27
 26 28  0  0  0  0  0  0  0  0999 V2000
   45.9572   52.6358   36.5891 N   0  0  0  0  0  0  0  0  0  0  0  0
   46.0537   53.1200   35.2092 C   0  0  2  0  0  0  0  0  0  0  0  0
   47.4872   53.3325   34.7175 C   0  0  0  0  0  0  0  0  0  0  0  0
   47.8198   52.8100   33.6534 O   0  0  0  0  0  0  0  0  0  0  0  0
   45.2892   54.4194   34.9249 C   0  0  0  0  0  0  0  0  0  0  0  0
   45.1040   54.9256   33.5050 C   0  0  0  0  0  0  0  0  0  0  0  0
   44.7497   56.6936   33.6321 S   0  0  0  0  0  0  0  0  0  0  0  0
   46.4751   56.9702   33.1651 C   0  0  0  0  0  0  0  0  0  0  0  0
   46.7726   58.3802   32.6440 C   0  0  1  0  0  0  0  0  0  0  0  0
   48.0722   58.5017   32.0548 O   0  0  0  0  0  0  0  0  0  0  0  0
   45.7602   58.7908   31.5846 C   0  0  1  0  0  0  0  0  0  0  0  0
   44.6719   59.4840   32.1543 O   0  0  0  0  0  0  0  0  0  0  0  0
   46.5594   59.6333   30.5989 C   0  0  1  0  0  0  0  0  0  0  0  0
   46.5164   61.0063   30.9316 O   0  0  0  0  0  0  0  0  0  0  0  0
   47.9836   59.1536   30.7983 C   0  0  2  0  0  0  0  0  0  0  0  0
   48.3156   54.0148   35.3333 O   0  0  0  0  0  0  0  0  0  0  0  0
   50.1056   54.5127   29.5425 N   0  0  0  0  0  0  0  0  0  0  0  0
   49.8353   55.0128   30.7913 C   0  0  0  0  0  0  0  0  0  0  0  0
   49.2883   56.2718   30.9242 N   0  0  0  0  0  0  0  0  0  0  0  0
   48.9784   57.0126   29.8455 C   0  0  0  0  0  0  0  0  0  0  0  0
   49.2416   56.5254   28.5765 C   0  0  0  0  0  0  0  0  0  0  0  0
   49.8088   55.2741   28.4399 C   0  0  0  0  0  0  0  0  0  0  0  0
   50.0568   54.7852   27.2403 N   0  0  0  0  0  0  0  0  0  0  0  0
   48.8444   57.4513   27.6753 N   0  0  0  0  0  0  0  0  0  0  0  0
   48.3595   58.5221   28.3532 C   0  0  0  0  0  0  0  0  0  0  0  0
   48.4347   58.2626   29.7041 N   0  0  0  0  0  0  0  0  0  0  0  0
  2  1  1  1  0  0  0
  2  3  1  0  0  0  0
  2  5  1  0  0  0  0
  3  4  1  0  0  0  0
  3 16  1  0  0  0  0
  5  6  1  0  0  0  0
  6  7  1  0  0  0  0
  7  8  1  0  0  0  0
  9  8  1  6  0  0  0
  9 10  1  0  0  0  0
  9 11  1  0  0  0  0
 10 15  1  0  0  0  0
 11 12  1  1  0  0  0
 11 13  1  0  0  0  0
 13 14  1  1  0  0  0
 13 15  1  0  0  0  0
 15 26  1  6  0  0  0
 17 18  2  0  0  0  0
 17 22  1  0  0  0  0
 18 19  1  0  0  0  0
 19 20  2  0  0  0  0
 20 21  1  0  0  0  0
 20 26  1  0  0  0  0
 21 22  2  0  0  0  0
 21 24  1  0  0  0  0
 22 23  1  0  0  0  0
 24 25  2  0  0  0  0
 25 26  1  0  0  0  0
M  END
>  <CHROM.1>
128.24707922,-169.95899137,-158.95469270,101.55786135,161.29653862,-169.16452219
-5.22942647,47.37894341,56.47120414,31.80728927,-2.08955944,0.82971883,-0.61491650

>  <Name>
ligand

>  <RI>
0

>  <Rbt.Current_Directory>
/home/itssahil/PROJECTS/Mol_Feturizer/New_Systems/rnas/3GX3

>  <Rbt.Executable>
rbdock ($Id: //depot/dev/client3/rdock/2013.1/src/exe/rbdock.cxx#4 $)

>  <Rbt.Library>
libRbt.so (2013.1, Build901 2013/11/27)

>  <Rbt.Parameter_File>
/export/apps/rDock/src/rDock_2013.1_src/data/scripts/dock_solv.prm

>  <Rbt.Receptor>
prm/pocket_docking_7.prm

>  <SCORE>
-18.6874

>  <SCORE.INTER>
-16.7395

>  <SCORE.INTER.CONST>
1

>  <SCORE.INTER.POLAR>
0

>  <SCORE.INTER.ROT>
7

>  <SCORE.INTER.SOLV>
13.3661

>  <SCORE.INTER.VDW>
-23.8817

>  <SCORE.INTER.norm>
-0.643829

>  <SCORE.INTRA>
-1.94785

>  <SCORE.INTRA.DIHEDRAL>
1.70577

>  <SCORE.INTRA.DIHEDRAL.0>
5.78979

>  <SCORE.INTRA.POLAR>
0

>  <SCORE.INTRA.POLAR.0>
0

>  <SCORE.INTRA.REPUL>
0

>  <SCORE.INTRA.REPUL.0>
0

>  <SCORE.INTRA.SOLV>
-0.872531

>  <SCORE.INTRA.SOLV.lig_0>
-49.9151

>  <SCORE.INTRA.VDW>
-2.36447

>  <SCORE.INTRA.VDW.0>
-0.211125

>  <SCORE.INTRA.norm>
-0.0749173

>  <SCORE.RESTR>
0

>  <SCORE.RESTR.CAVITY>
0

>  <SCORE.RESTR.norm>
0

>  <SCORE.SYSTEM>
0

>  <SCORE.SYSTEM.CONST>
0

>  <SCORE.SYSTEM.DIHEDRAL>
0

>  <SCORE.SYSTEM.SOLV>
0

>  <SCORE.SYSTEM.norm>
0

>  <SCORE.heavy>
26

>  <SCORE.norm>
-0.718746

>  <RMSD>
6.406

$$$$
ligand
 OpenBabel11021811483D
libRbt.so/2013.1/901 2013/11/27
 26 28  0  0  0  0  0  0  0  0999 V2000
   47.5142   58.7596   29.3604 N   0  0  0  0  0  0  0  0  0  0  0  0
   46.8053   59.0977   30.5977 C   0  0  2  0  0  0  0  0  0  0  0  0
   47.7168   59.5578   31.7375 C   0  0  0  0  0  0  0  0  0  0  0  0
   48.8354   59.0513   31.8273 O   0  0  0  0  0  0  0  0  0  0  0  0
   45.9189   57.9795   31.1613 C   0  0  0  0  0  0  0  0  0  0  0  0
   45.1340   58.1739   32.4469 C   0  0  0  0  0  0  0  0  0  0  0  0
   44.1106   56.6980   32.6521 S   0  0  0  0  0  0  0  0  0  0  0  0
   45.5796   55.8983   33.3406 C   0  0  0  0  0  0  0  0  0  0  0  0
   45.3582   54.4532   33.7997 C   0  0  1  0  0  0  0  0  0  0  0  0
   46.5558   53.8178   34.2613 O   0  0  0  0  0  0  0  0  0  0  0  0
   44.3522   54.3954   34.9402 C   0  0  1  0  0  0  0  0  0  0  0  0
   43.0410   54.1968   34.4600 O   0  0  0  0  0  0  0  0  0  0  0  0
   44.8456   53.2597   35.8273 C   0  0  1  0  0  0  0  0  0  0  0  0
   44.2575   52.0253   35.4695 O   0  0  0  0  0  0  0  0  0  0  0  0
   46.3248   53.1777   35.5056 C   0  0  2  0  0  0  0  0  0  0  0  0
   47.3841   60.4221   32.5580 O   0  0  0  0  0  0  0  0  0  0  0  0
   47.0185   53.7967   40.6780 N   0  0  0  0  0  0  0  0  0  0  0  0
   46.0129   53.1244   40.0306 C   0  0  0  0  0  0  0  0  0  0  0  0
   45.9880   53.0856   38.6522 N   0  0  0  0  0  0  0  0  0  0  0  0
   46.9562   53.6679   37.9228 C   0  0  0  0  0  0  0  0  0  0  0  0
   47.9807   54.3498   38.5569 C   0  0  0  0  0  0  0  0  0  0  0  0
   47.9976   54.4088   39.9362 C   0  0  0  0  0  0  0  0  0  0  0  0
   48.9707   55.0425   40.5615 N   0  0  0  0  0  0  0  0  0  0  0  0
   48.8137   54.8396   37.6117 N   0  0  0  0  0  0  0  0  0  0  0  0
   48.3195   54.5006   36.3942 C   0  0  0  0  0  0  0  0  0  0  0  0
   47.1653   53.7697   36.5722 N   0  0  0  0  0  0  0  0  0  0  0  0
  2  1  1  6  0  0  0
  2  3  1  0  0  0  0
  2  5  1  0  0  0  0
  3  4  1  0  0  0  0
  3 16  1  0  0  0  0
  5  6  1  0  0  0  0
  6  7  1  0  0  0  0
  7  8  1  0  0  0  0
  9  8  1  1  0  0  0
  9 10  1  0  0  0  0
  9 11  1  0  0  0  0
 10 15  1  0  0  0  0
 11 12  1  6  0  0  0
 11 13  1  0  0  0  0
 13 14  1  6  0  0  0
 13 15  1  0  0  0  0
 15 26  1  1  0  0  0
 17 18  2  0  0  0  0
 17 22  1  0  0  0  0
 18 19  1  0  0  0  0
 19 20  2  0  0  0  0
 20 21  1  0  0  0  0
 20 26  1  0  0  0  0
 21 22  2  0  0  0  0
 21 24  1  0  0  0  0
 22 23  1  0  0  0  0
 24 25  2  0  0  0  0
 25 26  1  0  0  0  0
M  END
>  <CHROM.1>
-34.05145768,179.27922275,174.37680319,81.69143299,178.66553807,176.27777284
160.92034098,46.35128847,55.54071767,35.04247176,-1.63317198,0.65794526,2.19834273

>  <Name>
ligand

>  <RI>
0

>  <Rbt.Current_Directory>
/home/itssahil/PROJECTS/Mol_Feturizer/New_Systems/rnas/3GX3

>  <Rbt.Executable>
rbdock ($Id: //depot/dev/client3/rdock/2013.1/src/exe/rbdock.cxx#4 $)

>  <Rbt.Library>
libRbt.so (2013.1, Build901 2013/11/27)

>  <Rbt.Parameter_File>
/export/apps/rDock/src/rDock_2013.1_src/data/scripts/dock_solv.prm

>  <Rbt.Receptor>
prm/pocket_docking_8.prm

>  <SCORE>
-21.4027

>  <SCORE.INTER>
-18.7815

>  <SCORE.INTER.CONST>
1

>  <SCORE.INTER.POLAR>
0

>  <SCORE.INTER.ROT>
7

>  <SCORE.INTER.SOLV>
18.2736

>  <SCORE.INTER.VDW>
-26.8788

>  <SCORE.INTER.norm>
-0.722365

>  <SCORE.INTRA>
-2.62123

>  <SCORE.INTRA.DIHEDRAL>
-2.11919

>  <SCORE.INTRA.DIHEDRAL.0>
5.78979

>  <SCORE.INTRA.POLAR>
0

>  <SCORE.INTRA.POLAR.0>
0

>  <SCORE.INTRA.REPUL>
0

>  <SCORE.INTRA.REPUL.0>
0

>  <SCORE.INTRA.SOLV>
-0.92485

>  <SCORE.INTRA.SOLV.lig_0>
-49.9151

>  <SCORE.INTRA.VDW>
-1.09921

>  <SCORE.INTRA.VDW.0>
-0.211125

>  <SCORE.INTRA.norm>
-0.100816

>  <SCORE.RESTR>
0

>  <SCORE.RESTR.CAVITY>
0

>  <SCORE.RESTR.norm>
0

>  <SCORE.SYSTEM>
0

>  <SCORE.SYSTEM.CONST>
0

>  <SCORE.SYSTEM.DIHEDRAL>
0

>  <SCORE.SYSTEM.SOLV>
0

>  <SCORE.SYSTEM.norm>
0

>  <SCORE.heavy>
26

>  <SCORE.norm>
-0.823181

>  <RMSD>
6.425

$$$$
ligand
 OpenBabel11021811483D
libRbt.so/2013.1/901 2013/11/27
 26 28  0  0  0  0  0  0  0  0999 V2000
   44.6044   53.7521   34.6439 N   0  0  0  0  0  0  0  0  0  0  0  0
   46.0440   53.5383   34.4716 C   0  0  2  0  0  0  0  0  0  0  0  0
   46.7412   52.9435   35.6971 C   0  0  0  0  0  0  0  0  0  0  0  0
   46.9344   51.7277   35.7226 O   0  0  0  0  0  0  0  0  0  0  0  0
   46.8397   54.7869   34.0700 C   0  0  0  0  0  0  0  0  0  0  0  0
   48.2959   54.6872   33.6500 C   0  0  0  0  0  0  0  0  0  0  0  0
   49.1288   56.1373   34.3365 S   0  0  0  0  0  0  0  0  0  0  0  0
   49.4672   56.6263   32.6283 C   0  0  0  0  0  0  0  0  0  0  0  0
   48.7887   57.9305   32.1960 C   0  0  1  0  0  0  0  0  0  0  0  0
   49.3295   58.4742   30.9865 O   0  0  0  0  0  0  0  0  0  0  0  0
   47.3000   57.7154   31.9642 C   0  0  1  0  0  0  0  0  0  0  0  0
   46.5534   57.9868   33.1296 O   0  0  0  0  0  0  0  0  0  0  0  0
   46.9572   58.6389   30.8025 C   0  0  1  0  0  0  0  0  0  0  0  0
   46.5322   59.9091   31.2538 O   0  0  0  0  0  0  0  0  0  0  0  0
   48.2844   58.8207   30.0926 C   0  0  2  0  0  0  0  0  0  0  0  0
   47.1291   53.6307   36.6501 O   0  0  0  0  0  0  0  0  0  0  0  0
   50.3335   54.5941   27.7358 N   0  0  0  0  0  0  0  0  0  0  0  0
   50.5317   55.0288   29.0220 C   0  0  0  0  0  0  0  0  0  0  0  0
   49.9164   56.1827   29.4603 N   0  0  0  0  0  0  0  0  0  0  0  0
   49.0908   56.8781   28.6583 C   0  0  0  0  0  0  0  0  0  0  0  0
   48.8760   56.4552   27.3576 C   0  0  0  0  0  0  0  0  0  0  0  0
   49.5069   55.3122   26.9084 C   0  0  0  0  0  0  0  0  0  0  0  0
   49.3071   54.8842   25.6769 N   0  0  0  0  0  0  0  0  0  0  0  0
   48.0185   57.3171   26.7669 N   0  0  0  0  0  0  0  0  0  0  0  0
   47.7091   58.2882   27.6627 C   0  0  0  0  0  0  0  0  0  0  0  0
   48.3673   58.0270   28.8446 N   0  0  0  0  0  0  0  0  0  0  0  0
  2  1  1  1  0  0  0
  2  3  1  0  0  0  0
  2  5  1  0  0  0  0
  3  4  1  0  0  0  0
  3 16  1  0  0  0  0
  5  6  1  0  0  0  0
  6  7  1  0  0  0  0
  7  8  1  0  0  0  0
  9  8  1  6  0  0  0
  9 10  1  0  0  0  0
  9 11  1  0  0  0  0
 10 15  1  0  0  0  0
 11 12  1  1  0  0  0
 11 13  1  0  0  0  0
 13 14  1  1  0  0  0
 13 15  1  0  0  0  0
 15 26  1  6  0  0  0
 17 18  2  0  0  0  0
 17 22  1  0  0  0  0
 18 19  1  0  0  0  0
 19 20  2  0  0  0  0
 20 21  1  0  0  0  0
 20 26  1  0  0  0  0
 21 22  2  0  0  0  0
 21 24  1  0  0  0  0
 22 23  1  0  0  0  0
 24 25  2  0  0  0  0
 25 26  1  0  0  0  0
M  END
>  <CHROM.1>
97.30921019,-170.62564246,-141.85581807,-117.26710502,115.72220990,164.89905833
16.33286195,48.11540517,56.16347410,31.43726638,-2.34016291,1.21097338,-0.46088912

>  <Name>
ligand

>  <RI>
0

>  <Rbt.Current_Directory>
/home/itssahil/PROJECTS/Mol_Feturizer/New_Systems/rnas/3GX3

>  <Rbt.Executable>
rbdock ($Id: //depot/dev/client3/rdock/2013.1/src/exe/rbdock.cxx#4 $)

>  <Rbt.Library>
libRbt.so (2013.1, Build901 2013/11/27)

>  <Rbt.Parameter_File>
/export/apps/rDock/src/rDock_2013.1_src/data/scripts/dock_solv.prm

>  <Rbt.Receptor>
prm/pocket_docking_6.prm

>  <SCORE>
-16.1279

>  <SCORE.INTER>
-16.1049

>  <SCORE.INTER.CONST>
1

>  <SCORE.INTER.POLAR>
0

>  <SCORE.INTER.ROT>
7

>  <SCORE.INTER.SOLV>
10.5189

>  <SCORE.INTER.VDW>
-22.5096

>  <SCORE.INTER.norm>
-0.61942

>  <SCORE.INTRA>
-0.0229397

>  <SCORE.INTRA.DIHEDRAL>
6.75339

>  <SCORE.INTRA.DIHEDRAL.0>
5.78979

>  <SCORE.INTRA.POLAR>
0

>  <SCORE.INTRA.POLAR.0>
0

>  <SCORE.INTRA.REPUL>
0

>  <SCORE.INTRA.REPUL.0>
0

>  <SCORE.INTRA.SOLV>
-0.643359

>  <SCORE.INTRA.SOLV.lig_0>
-49.9151

>  <SCORE.INTRA.VDW>
-3.07795

>  <SCORE.INTRA.VDW.0>
-0.211125

>  <SCORE.INTRA.norm>
-0.000882295

>  <SCORE.RESTR>
0

>  <SCORE.RESTR.CAVITY>
0

>  <SCORE.RESTR.norm>
0

>  <SCORE.SYSTEM>
0

>  <SCORE.SYSTEM.CONST>
0

>  <SCORE.SYSTEM.DIHEDRAL>
0

>  <SCORE.SYSTEM.SOLV>
0

>  <SCORE.SYSTEM.norm>
0

>  <SCORE.heavy>
26

>  <SCORE.norm>
-0.620302

>  <RMSD>
6.428

$$$$
ligand
 OpenBabel11021811483D
libRbt.so/2013.1/901 2013/11/27
 26 28  0  0  0  0  0  0  0  0999 V2000
   47.5289   55.9079   30.6449 N   0  0  0  0  0  0  0  0  0  0  0  0
   48.8560   55.2929   30.5529 C   0  0  2  0  0  0  0  0  0  0  0  0
   49.4964   55.3871   29.1662 C   0  0  0  0  0  0  0  0  0  0  0  0
   50.7230   55.4700   29.0972 O   0  0  0  0  0  0  0  0  0  0  0  0
   48.9158   53.8180   30.9707 C   0  0  0  0  0  0  0  0  0  0  0  0
   48.7258   53.4052   32.4199 C   0  0  0  0  0  0  0  0  0  0  0  0
   46.9631   53.5846   32.7782 S   0  0  0  0  0  0  0  0  0  0  0  0
   47.4594   54.2011   34.4045 C   0  0  0  0  0  0  0  0  0  0  0  0
   46.3570   54.1447   35.4674 C   0  0  1  0  0  0  0  0  0  0  0  0
   45.1095   54.6841   35.0159 O   0  0  0  0  0  0  0  0  0  0  0  0
   46.0943   52.7093   35.8995 C   0  0  1  0  0  0  0  0  0  0  0  0
   46.8718   52.3598   37.0231 O   0  0  0  0  0  0  0  0  0  0  0  0
   44.5956   52.6593   36.1669 C   0  0  1  0  0  0  0  0  0  0  0  0
   44.2973   52.9433   37.5190 O   0  0  0  0  0  0  0  0  0  0  0  0
   44.0486   53.7948   35.3244 C   0  0  2  0  0  0  0  0  0  0  0  0
   48.8385   55.3687   28.1185 O   0  0  0  0  0  0  0  0  0  0  0  0
   41.0202   50.0805   33.1678 N   0  0  0  0  0  0  0  0  0  0  0  0
   41.4611   50.1699   34.4641 C   0  0  0  0  0  0  0  0  0  0  0  0
   42.2719   51.2189   34.8438 N   0  0  0  0  0  0  0  0  0  0  0  0
   42.6140   52.1841   33.9720 C   0  0  0  0  0  0  0  0  0  0  0  0
   42.1780   52.1133   32.6599 C   0  0  0  0  0  0  0  0  0  0  0  0
   41.3835   51.0534   32.2706 C   0  0  0  0  0  0  0  0  0  0  0  0
   40.9467   50.9724   31.0287 N   0  0  0  0  0  0  0  0  0  0  0  0
   42.6550   53.1894   31.9952 N   0  0  0  0  0  0  0  0  0  0  0  0
   43.4035   53.9227   32.8574 C   0  0  0  0  0  0  0  0  0  0  0  0
   43.3854   53.3105   34.0915 N   0  0  0  0  0  0  0  0  0  0  0  0
  2  1  1  6  0  0  0
  2  3  1  0  0  0  0
  2  5  1  0  0  0  0
  3  4  1  0  0  0  0
  3 16  1  0  0  0  0
  5  6  1  0  0  0  0
  6  7  1  0  0  0  0
  7  8  1  0  0  0  0
  9  8  1  6  0  0  0
  9 10  1  0  0  0  0
  9 11  1  0  0  0  0
 10 15  1  0  0  0  0
 11 12  1  1  0  0  0
 11 13  1  0  0  0  0
 13 14  1  1  0  0  0
 13 15  1  0  0  0  0
 15 26  1  6  0  0  0
 17 18  2  0  0  0  0
 17 22  1  0  0  0  0
 18 19  1  0  0  0  0
 19 20  2  0  0  0  0
 20 21  1  0  0  0  0
 20 26  1  0  0  0  0
 21 22  2  0  0  0  0
 21 24  1  0  0  0  0
 22 23  1  0  0  0  0
 24 25  2  0  0  0  0
 25 26  1  0  0  0  0
M  END
>  <CHROM.1>
148.25349970,-69.11812692,74.01895604,-141.27196068,-160.77753539,-48.24982350
159.66760084,45.42118723,53.28844767,33.13672452,0.53999278,-0.42731794,-1.50483990

>  <Name>
ligand

>  <RI>
0

>  <Rbt.Current_Directory>
/home/itssahil/PROJECTS/Mol_Feturizer/New_Systems/rnas/3GX3

>  <Rbt.Executable>
rbdock ($Id: //depot/dev/client3/rdock/2013.1/src/exe/rbdock.cxx#4 $)

>  <Rbt.Library>
libRbt.so (2013.1, Build901 2013/11/27)

>  <Rbt.Parameter_File>
/export/apps/rDock/src/rDock_2013.1_src/data/scripts/dock_solv.prm

>  <Rbt.Receptor>
prm/pocket_docking_8.prm

>  <SCORE>
-12.4663

>  <SCORE.INTER>
-10.4226

>  <SCORE.INTER.CONST>
1

>  <SCORE.INTER.POLAR>
0

>  <SCORE.INTER.ROT>
7

>  <SCORE.INTER.SOLV>
9.91066

>  <SCORE.INTER.VDW>
-18.5186

>  <SCORE.INTER.norm>
-0.40087

>  <SCORE.INTRA>
-2.04364

>  <SCORE.INTRA.DIHEDRAL>
0.776206

>  <SCORE.INTRA.DIHEDRAL.0>
5.78979

>  <SCORE.INTRA.POLAR>
0

>  <SCORE.INTRA.POLAR.0>
0

>  <SCORE.INTRA.REPUL>
0

>  <SCORE.INTRA.REPUL.0>
0

>  <SCORE.INTRA.SOLV>
1.17112

>  <SCORE.INTRA.SOLV.lig_0>
-49.9151

>  <SCORE.INTRA.VDW>
-3.0173

>  <SCORE.INTRA.VDW.0>
-0.211125

>  <SCORE.INTRA.norm>
-0.0786014

>  <SCORE.RESTR>
0

>  <SCORE.RESTR.CAVITY>
0

>  <SCORE.RESTR.norm>
0

>  <SCORE.SYSTEM>
0

>  <SCORE.SYSTEM.CONST>
0

>  <SCORE.SYSTEM.DIHEDRAL>
0

>  <SCORE.SYSTEM.SOLV>
0

>  <SCORE.SYSTEM.norm>
0

>  <SCORE.heavy>
26

>  <SCORE.norm>
-0.479471

>  <RMSD>
6.428

$$$$
ligand
 OpenBabel11021811483D
libRbt.so/2013.1/901 2013/11/27
 26 28  0  0  0  0  0  0  0  0999 V2000
   48.0099   53.8414   33.2463 N   0  0  0  0  0  0  0  0  0  0  0  0
   48.7098   54.3940   34.4093 C   0  0  2  0  0  0  0  0  0  0  0  0
   48.0925   54.0073   35.7552 C   0  0  0  0  0  0  0  0  0  0  0  0
   48.7433   54.2266   36.7772 O   0  0  0  0  0  0  0  0  0  0  0  0
   48.8568   55.9211   34.4102 C   0  0  0  0  0  0  0  0  0  0  0  0
   49.5066   56.6469   33.2451 C   0  0  0  0  0  0  0  0  0  0  0  0
   49.5413   58.3995   33.6866 S   0  0  0  0  0  0  0  0  0  0  0  0
   49.4045   58.7445   31.9164 C   0  0  0  0  0  0  0  0  0  0  0  0
   47.9711   58.9692   31.4232 C   0  0  1  0  0  0  0  0  0  0  0  0
   47.9023   59.3588   30.0468 O   0  0  0  0  0  0  0  0  0  0  0  0
   47.1423   57.7016   31.5720 C   0  0  1  0  0  0  0  0  0  0  0  0
   46.4635   57.6729   32.8081 O   0  0  0  0  0  0  0  0  0  0  0  0
   46.2044   57.7156   30.3719 C   0  0  1  0  0  0  0  0  0  0  0  0
   44.9790   58.3513   30.6749 O   0  0  0  0  0  0  0  0  0  0  0  0
   46.9358   58.5784   29.3625 C   0  0  2  0  0  0  0  0  0  0  0  0
   46.9685   53.5006   35.8592 O   0  0  0  0  0  0  0  0  0  0  0  0
   50.6557   55.0729   28.1412 N   0  0  0  0  0  0  0  0  0  0  0  0
   50.3799   55.6265   29.3659 C   0  0  0  0  0  0  0  0  0  0  0  0
   49.3659   56.5532   29.4890 N   0  0  0  0  0  0  0  0  0  0  0  0
   48.6117   56.9030   28.4320 C   0  0  0  0  0  0  0  0  0  0  0  0
   48.8727   56.3546   27.1878 C   0  0  0  0  0  0  0  0  0  0  0  0
   49.9007   55.4423   27.0563 C   0  0  0  0  0  0  0  0  0  0  0  0
   50.1590   54.8981   25.8830 N   0  0  0  0  0  0  0  0  0  0  0  0
   47.9862   56.8650   26.3042 N   0  0  0  0  0  0  0  0  0  0  0  0
   47.1885   57.7431   26.9631 C   0  0  0  0  0  0  0  0  0  0  0  0
   47.5647   57.7755   28.2881 N   0  0  0  0  0  0  0  0  0  0  0  0
  2  1  1  6  0  0  0
  2  3  1  0  0  0  0
  2  5  1  0  0  0  0
  3  4  1  0  0  0  0
  3 16  1  0  0  0  0
  5  6  1  0  0  0  0
  6  7  1  0  0  0  0
  7  8  1  0  0  0  0
  9  8  1  6  0  0  0
  9 10  1  0  0  0  0
  9 11  1  0  0  0  0
 10 15  1  0  0  0  0
 11 12  1  1  0  0  0
 11 13  1  0  0  0  0
 13 14  1  1  0  0  0
 13 15  1  0  0  0  0
 15 26  1  6  0  0  0
 17 18  2  0  0  0  0
 17 22  1  0  0  0  0
 18 19  1  0  0  0  0
 19 20  2  0  0  0  0
 20 21  1  0  0  0  0
 20 26  1  0  0  0  0
 21 22  2  0  0  0  0
 21 24  1  0  0  0  0
 22 23  1  0  0  0  0
 24 25  2  0  0  0  0
 25 26  1  0  0  0  0
M  END
>  <CHROM.1>
167.38972804,-55.31503588,-177.49173157,-149.57375936,94.32936043,174.67606842
54.73105092,48.33214186,56.68192944,31.11893115,-1.64992871,1.04370547,-1.29339750

>  <Name>
ligand

>  <RI>
0

>  <Rbt.Current_Directory>
/home/itssahil/PROJECTS/Mol_Feturizer/New_Systems/rnas/3GX3

>  <Rbt.Executable>
rbdock ($Id: //depot/dev/client3/rdock/2013.1/src/exe/rbdock.cxx#4 $)

>  <Rbt.Library>
libRbt.so (2013.1, Build901 2013/11/27)

>  <Rbt.Parameter_File>
/export/apps/rDock/src/rDock_2013.1_src/data/scripts/dock_solv.prm

>  <Rbt.Receptor>
prm/pocket_docking_4.prm

>  <SCORE>
-20.9346

>  <SCORE.INTER>
-17.8608

>  <SCORE.INTER.CONST>
1

>  <SCORE.INTER.POLAR>
0

>  <SCORE.INTER.ROT>
7

>  <SCORE.INTER.SOLV>
11.6437

>  <SCORE.INTER.VDW>
-24.0551

>  <SCORE.INTER.norm>
-0.686953

>  <SCORE.INTRA>
-3.07452

>  <SCORE.INTRA.DIHEDRAL>
-0.122272

>  <SCORE.INTRA.DIHEDRAL.0>
5.78979

>  <SCORE.INTRA.POLAR>
0

>  <SCORE.INTRA.POLAR.0>
0

>  <SCORE.INTRA.REPUL>
0

>  <SCORE.INTRA.REPUL.0>
0

>  <SCORE.INTRA.SOLV>
0.459396

>  <SCORE.INTRA.SOLV.lig_0>
-49.9151

>  <SCORE.INTRA.VDW>
-3.24308

>  <SCORE.INTRA.VDW.0>
-0.211125

>  <SCORE.INTRA.norm>
-0.118251

>  <SCORE.RESTR>
0.000745085

>  <SCORE.RESTR.CAVITY>
0.000745085

>  <SCORE.RESTR.norm>
2.86571e-05

>  <SCORE.SYSTEM>
0

>  <SCORE.SYSTEM.CONST>
0

>  <SCORE.SYSTEM.DIHEDRAL>
0

>  <SCORE.SYSTEM.SOLV>
0

>  <SCORE.SYSTEM.norm>
0

>  <SCORE.heavy>
26

>  <SCORE.norm>
-0.805175

>  <RMSD>
6.431

$$$$
ligand
 OpenBabel11021811483D
libRbt.so/2013.1/901 2013/11/27
 26 28  0  0  0  0  0  0  0  0999 V2000
   48.6887   54.2973   33.0763 N   0  0  0  0  0  0  0  0  0  0  0  0
   49.1721   55.0990   34.2039 C   0  0  2  0  0  0  0  0  0  0  0  0
   48.6405   54.6498   35.5667 C   0  0  0  0  0  0  0  0  0  0  0  0
   49.1306   55.1553   36.5768 O   0  0  0  0  0  0  0  0  0  0  0  0
   48.8954   56.6039   34.0931 C   0  0  0  0  0  0  0  0  0  0  0  0
   49.3662   57.4012   32.8892 C   0  0  0  0  0  0  0  0  0  0  0  0
   48.8766   59.1159   33.1853 S   0  0  0  0  0  0  0  0  0  0  0  0
   48.4374   59.1873   31.4322 C   0  0  0  0  0  0  0  0  0  0  0  0
   46.9594   58.9100   31.1373 C   0  0  1  0  0  0  0  0  0  0  0  0
   46.5883   59.2058   29.7860 O   0  0  0  0  0  0  0  0  0  0  0  0
   46.6232   57.4465   31.3841 C   0  0  1  0  0  0  0  0  0  0  0  0
   46.1580   57.2402   32.6995 O   0  0  0  0  0  0  0  0  0  0  0  0
   45.5868   57.1081   30.3204 C   0  0  1  0  0  0  0  0  0  0  0  0
   44.2702   57.3156   30.7903 O   0  0  0  0  0  0  0  0  0  0  0  0
   45.8546   58.1269   29.2301 C   0  0  2  0  0  0  0  0  0  0  0  0
   47.7350   53.8163   35.6943 O   0  0  0  0  0  0  0  0  0  0  0  0
   46.4480   53.9074   26.1540 N   0  0  0  0  0  0  0  0  0  0  0  0
   45.6099   54.0634   27.2292 C   0  0  0  0  0  0  0  0  0  0  0  0
   45.6070   55.2499   27.9323 N   0  0  0  0  0  0  0  0  0  0  0  0
   46.3892   56.2792   27.5622 C   0  0  0  0  0  0  0  0  0  0  0  0
   47.2407   56.1428   26.4791 C   0  0  0  0  0  0  0  0  0  0  0  0
   47.2620   54.9491   25.7855 C   0  0  0  0  0  0  0  0  0  0  0  0
   48.0564   54.8013   24.7431 N   0  0  0  0  0  0  0  0  0  0  0  0
   47.9120   57.3048   26.3175 N   0  0  0  0  0  0  0  0  0  0  0  0
   47.5178   58.1614   27.2933 C   0  0  0  0  0  0  0  0  0  0  0  0
   46.5693   57.5378   28.0739 N   0  0  0  0  0  0  0  0  0  0  0  0
  2  1  1  6  0  0  0
  2  3  1  0  0  0  0
  2  5  1  0  0  0  0
  3  4  1  0  0  0  0
  3 16  1  0  0  0  0
  5  6  1  0  0  0  0
  6  7  1  0  0  0  0
  7  8  1  0  0  0  0
  9  8  1  6  0  0  0
  9 10  1  0  0  0  0
  9 11  1  0  0  0  0
 10 15  1  0  0  0  0
 11 12  1  1  0  0  0
 11 13  1  0  0  0  0
 13 14  1  1  0  0  0
 13 15  1  0  0  0  0
 15 26  1  6  0  0  0
 17 18  2  0  0  0  0
 17 22  1  0  0  0  0
 18 19  1  0  0  0  0
 19 20  2  0  0  0  0
 20 21  1  0  0  0  0
 20 26  1  0  0  0  0
 21 22  2  0  0  0  0
 21 24  1  0  0  0  0
 22 23  1  0  0  0  0
 24 25  2  0  0  0  0
 25 26  1  0  0  0  0
M  END
>  <CHROM.1>
170.70203453,-55.65769691,-178.47356800,-139.64681539,95.11297754,169.43335677
158.69214583,47.36667069,56.64435688,30.63288594,-0.23506295,1.33981128,-2.92377558

>  <Name>
ligand

>  <RI>
0

>  <Rbt.Current_Directory>
/home/itssahil/PROJECTS/Mol_Feturizer/New_Systems/rnas/3GX3

>  <Rbt.Executable>
rbdock ($Id: //depot/dev/client3/rdock/2013.1/src/exe/rbdock.cxx#4 $)

>  <Rbt.Library>
libRbt.so (2013.1, Build901 2013/11/27)

>  <Rbt.Parameter_File>
/export/apps/rDock/src/rDock_2013.1_src/data/scripts/dock_solv.prm

>  <Rbt.Receptor>
prm/pocket_docking_6.prm

>  <SCORE>
-17.7819

>  <SCORE.INTER>
-16.3847

>  <SCORE.INTER.CONST>
1

>  <SCORE.INTER.POLAR>
0

>  <SCORE.INTER.ROT>
7

>  <SCORE.INTER.SOLV>
11.1693

>  <SCORE.INTER.VDW>
-22.9129

>  <SCORE.INTER.norm>
-0.63018

>  <SCORE.INTRA>
-1.3972

>  <SCORE.INTRA.DIHEDRAL>
0.759762

>  <SCORE.INTRA.DIHEDRAL.0>
5.78979

>  <SCORE.INTRA.POLAR>
0

>  <SCORE.INTRA.POLAR.0>
0

>  <SCORE.INTRA.REPUL>
0

>  <SCORE.INTRA.REPUL.0>
0

>  <SCORE.INTRA.SOLV>
0.787301

>  <SCORE.INTRA.SOLV.lig_0>
-49.9151

>  <SCORE.INTRA.VDW>
-2.17073

>  <SCORE.INTRA.VDW.0>
-0.211125

>  <SCORE.INTRA.norm>
-0.0537386

>  <SCORE.RESTR>
0

>  <SCORE.RESTR.CAVITY>
0

>  <SCORE.RESTR.norm>
0

>  <SCORE.SYSTEM>
0

>  <SCORE.SYSTEM.CONST>
0

>  <SCORE.SYSTEM.DIHEDRAL>
0

>  <SCORE.SYSTEM.SOLV>
0

>  <SCORE.SYSTEM.norm>
0

>  <SCORE.heavy>
26

>  <SCORE.norm>
-0.683919

>  <RMSD>
6.437

$$$$
ligand
 OpenBabel11021811483D
libRbt.so/2013.1/901 2013/11/27
 26 28  0  0  0  0  0  0  0  0999 V2000
   47.5526   53.9790   33.5497 N   0  0  0  0  0  0  0  0  0  0  0  0
   48.6912   54.4455   34.3459 C   0  0  2  0  0  0  0  0  0  0  0  0
   48.3697   54.6796   35.8236 C   0  0  0  0  0  0  0  0  0  0  0  0
   47.2902   54.2734   36.2547 O   0  0  0  0  0  0  0  0  0  0  0  0
   49.3610   55.7252   33.8287 C   0  0  0  0  0  0  0  0  0  0  0  0
   48.5611   56.9991   33.6189 C   0  0  0  0  0  0  0  0  0  0  0  0
   49.6931   58.2010   32.8829 S   0  0  0  0  0  0  0  0  0  0  0  0
   48.3660   59.4153   33.0716 C   0  0  0  0  0  0  0  0  0  0  0  0
   47.4780   59.5815   31.8339 C   0  0  1  0  0  0  0  0  0  0  0  0
   48.2093   59.5305   30.6035 O   0  0  0  0  0  0  0  0  0  0  0  0
   46.4227   58.4866   31.7735 C   0  0  1  0  0  0  0  0  0  0  0  0
   45.2250   58.8914   32.3988 O   0  0  0  0  0  0  0  0  0  0  0  0
   46.2566   58.1979   30.2872 C   0  0  1  0  0  0  0  0  0  0  0  0
   45.2315   58.9846   29.7145 O   0  0  0  0  0  0  0  0  0  0  0  0
   47.5747   58.6502   29.6903 C   0  0  2  0  0  0  0  0  0  0  0  0
   49.1501   55.2432   36.6009 O   0  0  0  0  0  0  0  0  0  0  0  0
   49.2253   55.3817   25.9206 N   0  0  0  0  0  0  0  0  0  0  0  0
   48.2997   56.3900   25.8249 C   0  0  0  0  0  0  0  0  0  0  0  0
   47.9794   57.1374   26.9389 N   0  0  0  0  0  0  0  0  0  0  0  0
   48.5860   56.9207   28.1194 C   0  0  0  0  0  0  0  0  0  0  0  0
   49.5240   55.9093   28.2365 C   0  0  0  0  0  0  0  0  0  0  0  0
   49.8319   55.1449   27.1287 C   0  0  0  0  0  0  0  0  0  0  0  0
   50.7315   54.1842   27.2144 N   0  0  0  0  0  0  0  0  0  0  0  0
   49.9780   55.8963   29.5097 N   0  0  0  0  0  0  0  0  0  0  0  0
   49.3254   56.8636   30.2023 C   0  0  0  0  0  0  0  0  0  0  0  0
   48.4577   57.5105   29.3498 N   0  0  0  0  0  0  0  0  0  0  0  0
  2  1  1  6  0  0  0
  2  3  1  0  0  0  0
  2  5  1  0  0  0  0
  3  4  1  0  0  0  0
  3 16  1  0  0  0  0
  5  6  1  0  0  0  0
  6  7  1  0  0  0  0
  7  8  1  0  0  0  0
  9  8  1  1  0  0  0
  9 10  1  0  0  0  0
  9 11  1  0  0  0  0
 10 15  1  0  0  0  0
 11 12  1  6  0  0  0
 11 13  1  0  0  0  0
 13 14  1  6  0  0  0
 13 15  1  0  0  0  0
 15 26  1  1  0  0  0
 17 18  2  0  0  0  0
 17 22  1  0  0  0  0
 18 19  1  0  0  0  0
 19 20  2  0  0  0  0
 20 21  1  0  0  0  0
 20 26  1  0  0  0  0
 21 22  2  0  0  0  0
 21 24  1  0  0  0  0
 22 23  1  0  0  0  0
 24 25  2  0  0  0  0
 25 26  1  0  0  0  0
M  END
>  <CHROM.1>
11.01157584,55.94614029,-175.46493817,-173.38657550,-93.85164949,-38.88981082
-141.79094949,48.30850979,56.88828123,31.14846641,-1.70160787,1.02723413
-1.37638744

>  <Name>
ligand

>  <RI>
0

>  <Rbt.Current_Directory>
/home/itssahil/PROJECTS/Mol_Feturizer/New_Systems/rnas/3GX3

>  <Rbt.Executable>
rbdock ($Id: //depot/dev/client3/rdock/2013.1/src/exe/rbdock.cxx#4 $)

>  <Rbt.Library>
libRbt.so (2013.1, Build901 2013/11/27)

>  <Rbt.Parameter_File>
/export/apps/rDock/src/rDock_2013.1_src/data/scripts/dock_solv.prm

>  <Rbt.Receptor>
prm/pocket_docking_4.prm

>  <SCORE>
-21.7023

>  <SCORE.INTER>
-19.0669

>  <SCORE.INTER.CONST>
1

>  <SCORE.INTER.POLAR>
0

>  <SCORE.INTER.ROT>
7

>  <SCORE.INTER.SOLV>
10.5772

>  <SCORE.INTER.VDW>
-24.5036

>  <SCORE.INTER.norm>
-0.733341

>  <SCORE.INTRA>
-2.63541

>  <SCORE.INTRA.DIHEDRAL>
0.174216

>  <SCORE.INTRA.DIHEDRAL.0>
5.78979

>  <SCORE.INTRA.POLAR>
0

>  <SCORE.INTRA.POLAR.0>
0

>  <SCORE.INTRA.REPUL>
0

>  <SCORE.INTRA.REPUL.0>
0

>  <SCORE.INTRA.SOLV>
-0.100338

>  <SCORE.INTRA.SOLV.lig_0>
-49.9151

>  <SCORE.INTRA.VDW>
-2.67235

>  <SCORE.INTRA.VDW.0>
-0.211125

>  <SCORE.INTRA.norm>
-0.101362

>  <SCORE.RESTR>
0

>  <SCORE.RESTR.CAVITY>
0

>  <SCORE.RESTR.norm>
0

>  <SCORE.SYSTEM>
0

>  <SCORE.SYSTEM.CONST>
0

>  <SCORE.SYSTEM.DIHEDRAL>
0

>  <SCORE.SYSTEM.SOLV>
0

>  <SCORE.SYSTEM.norm>
0

>  <SCORE.heavy>
26

>  <SCORE.norm>
-0.834703

>  <RMSD>
6.439

$$$$
ligand
 OpenBabel11021811483D
libRbt.so/2013.1/901 2013/11/27
 26 28  0  0  0  0  0  0  0  0999 V2000
   45.7247   52.6491   36.6754 N   0  0  0  0  0  0  0  0  0  0  0  0
   45.9038   53.1171   35.2982 C   0  0  2  0  0  0  0  0  0  0  0  0
   47.3650   53.3059   34.8845 C   0  0  0  0  0  0  0  0  0  0  0  0
   48.0971   53.9657   35.6226 O   0  0  0  0  0  0  0  0  0  0  0  0
   45.1736   54.4230   34.9588 C   0  0  0  0  0  0  0  0  0  0  0  0
   45.0738   54.9160   33.5257 C   0  0  0  0  0  0  0  0  0  0  0  0
   44.7306   56.6885   33.6150 S   0  0  0  0  0  0  0  0  0  0  0  0
   46.4485   56.9441   33.1104 C   0  0  0  0  0  0  0  0  0  0  0  0
   46.7608   58.3617   32.6193 C   0  0  1  0  0  0  0  0  0  0  0  0
   48.0612   58.4818   32.0314 O   0  0  0  0  0  0  0  0  0  0  0  0
   45.7520   58.8057   31.5699 C   0  0  1  0  0  0  0  0  0  0  0  0
   44.6717   59.4982   32.1554 O   0  0  0  0  0  0  0  0  0  0  0  0
   46.5594   59.6605   30.6016 C   0  0  1  0  0  0  0  0  0  0  0  0
   46.5315   61.0264   30.9636 O   0  0  0  0  0  0  0  0  0  0  0  0
   47.9786   59.1614   30.7893 C   0  0  2  0  0  0  0  0  0  0  0  0
   47.8414   52.8142   33.8539 O   0  0  0  0  0  0  0  0  0  0  0  0
   50.0205   54.5135   29.4306 N   0  0  0  0  0  0  0  0  0  0  0  0
   49.7524   54.9878   30.6899 C   0  0  0  0  0  0  0  0  0  0  0  0
   49.2283   56.2532   30.8509 N   0  0  0  0  0  0  0  0  0  0  0  0
   48.9386   57.0260   29.7892 C   0  0  0  0  0  0  0  0  0  0  0  0
   49.1999   56.5654   28.5100 C   0  0  0  0  0  0  0  0  0  0  0  0
   49.7444   55.3072   28.3456 C   0  0  0  0  0  0  0  0  0  0  0  0
   49.9901   54.8434   27.1356 N   0  0  0  0  0  0  0  0  0  0  0  0
   48.8253   57.5204   27.6298 N   0  0  0  0  0  0  0  0  0  0  0  0
   48.3567   58.5832   28.3313 C   0  0  0  0  0  0  0  0  0  0  0  0
   48.4192   58.2892   29.6759 N   0  0  0  0  0  0  0  0  0  0  0  0
  2  1  1  1  0  0  0
  2  3  1  0  0  0  0
  2  5  1  0  0  0  0
  3  4  1  0  0  0  0
  3 16  1  0  0  0  0
  5  6  1  0  0  0  0
  6  7  1  0  0  0  0
  7  8  1  0  0  0  0
  9  8  1  6  0  0  0
  9 10  1  0  0  0  0
  9 11  1  0  0  0  0
 10 15  1  0  0  0  0
 11 12  1  1  0  0  0
 11 13  1  0  0  0  0
 13 14  1  1  0  0  0
 13 15  1  0  0  0  0
 15 26  1  6  0  0  0
 17 18  2  0  0  0  0
 17 22  1  0  0  0  0
 18 19  1  0  0  0  0
 19 20  2  0  0  0  0
 20 21  1  0  0  0  0
 20 26  1  0  0  0  0
 21 22  2  0  0  0  0
 21 24  1  0  0  0  0
 22 23  1  0  0  0  0
 24 25  2  0  0  0  0
 25 26  1  0  0  0  0
M  END
>  <CHROM.1>
-50.36489844,-169.94997837,-159.16431248,105.91448308,164.40702876,-170.72365829
-4.60868377,47.32737698,56.47791854,31.81271749,-2.10457055,0.84129585,-0.61057477

>  <Name>
ligand

>  <RI>
0

>  <Rbt.Current_Directory>
/home/itssahil/PROJECTS/Mol_Feturizer/New_Systems/rnas/3GX3

>  <Rbt.Executable>
rbdock ($Id: //depot/dev/client3/rdock/2013.1/src/exe/rbdock.cxx#4 $)

>  <Rbt.Library>
libRbt.so (2013.1, Build901 2013/11/27)

>  <Rbt.Parameter_File>
/export/apps/rDock/src/rDock_2013.1_src/data/scripts/dock_solv.prm

>  <Rbt.Receptor>
prm/pocket_docking_4.prm

>  <SCORE>
-18.4794

>  <SCORE.INTER>
-16.5561

>  <SCORE.INTER.CONST>
1

>  <SCORE.INTER.POLAR>
0

>  <SCORE.INTER.ROT>
7

>  <SCORE.INTER.SOLV>
13.4249

>  <SCORE.INTER.VDW>
-23.7791

>  <SCORE.INTER.norm>
-0.636774

>  <SCORE.INTRA>
-1.92329

>  <SCORE.INTRA.DIHEDRAL>
1.64346

>  <SCORE.INTRA.DIHEDRAL.0>
5.78979

>  <SCORE.INTRA.POLAR>
0

>  <SCORE.INTRA.POLAR.0>
0

>  <SCORE.INTRA.REPUL>
0

>  <SCORE.INTRA.REPUL.0>
0

>  <SCORE.INTRA.SOLV>
-0.85185

>  <SCORE.INTRA.SOLV.lig_0>
-49.9151

>  <SCORE.INTRA.VDW>
-2.31909

>  <SCORE.INTRA.VDW.0>
-0.211125

>  <SCORE.INTRA.norm>
-0.0739725

>  <SCORE.RESTR>
0

>  <SCORE.RESTR.CAVITY>
0

>  <SCORE.RESTR.norm>
0

>  <SCORE.SYSTEM>
0

>  <SCORE.SYSTEM.CONST>
0

>  <SCORE.SYSTEM.DIHEDRAL>
0

>  <SCORE.SYSTEM.SOLV>
0

>  <SCORE.SYSTEM.norm>
0

>  <SCORE.heavy>
26

>  <SCORE.norm>
-0.710747

>  <RMSD>
6.452

$$$$
ligand
 OpenBabel11021811483D
libRbt.so/2013.1/901 2013/11/27
 26 28  0  0  0  0  0  0  0  0999 V2000
   47.4513   53.7338   33.1450 N   0  0  0  0  0  0  0  0  0  0  0  0
   48.2651   54.0557   34.3206 C   0  0  2  0  0  0  0  0  0  0  0  0
   47.6717   53.5725   35.6458 C   0  0  0  0  0  0  0  0  0  0  0  0
   46.8059   52.6978   35.6101 O   0  0  0  0  0  0  0  0  0  0  0  0
   48.5884   55.5452   34.4952 C   0  0  0  0  0  0  0  0  0  0  0  0
   49.2721   56.3338   33.3919 C   0  0  0  0  0  0  0  0  0  0  0  0
   49.3222   58.0539   33.9454 S   0  0  0  0  0  0  0  0  0  0  0  0
   49.6537   58.4930   32.2224 C   0  0  0  0  0  0  0  0  0  0  0  0
   48.4273   58.9850   31.4464 C   0  0  1  0  0  0  0  0  0  0  0  0
   48.6805   59.1706   30.0491 O   0  0  0  0  0  0  0  0  0  0  0  0
   47.2778   57.9948   31.5657 C   0  0  1  0  0  0  0  0  0  0  0  0
   46.4317   58.3167   32.6473 O   0  0  0  0  0  0  0  0  0  0  0  0
   46.5769   58.0589   30.2149 C   0  0  1  0  0  0  0  0  0  0  0  0
   45.5336   59.0124   30.2133 O   0  0  0  0  0  0  0  0  0  0  0  0
   47.6601   58.5571   29.2785 C   0  0  2  0  0  0  0  0  0  0  0  0
   48.0339   54.0109   36.7447 O   0  0  0  0  0  0  0  0  0  0  0  0
   50.3023   54.0157   29.1706 N   0  0  0  0  0  0  0  0  0  0  0  0
   49.9747   54.7818   30.2607 C   0  0  0  0  0  0  0  0  0  0  0  0
   49.2866   55.9645   30.0882 N   0  0  0  0  0  0  0  0  0  0  0  0
   48.8953   56.3694   28.8669 C   0  0  0  0  0  0  0  0  0  0  0  0
   49.2144   55.6098   27.7543 C   0  0  0  0  0  0  0  0  0  0  0  0
   49.9217   54.4358   27.9208 C   0  0  0  0  0  0  0  0  0  0  0  0
   50.2257   53.6903   26.8761 N   0  0  0  0  0  0  0  0  0  0  0  0
   48.7149   56.2276   26.6607 N   0  0  0  0  0  0  0  0  0  0  0  0
   48.1094   57.3742   27.0610 C   0  0  0  0  0  0  0  0  0  0  0  0
   48.2119   57.4745   28.4312 N   0  0  0  0  0  0  0  0  0  0  0  0
  2  1  1  6  0  0  0
  2  3  1  0  0  0  0
  2  5  1  0  0  0  0
  3  4  1  0  0  0  0
  3 16  1  0  0  0  0
  5  6  1  0  0  0  0
  6  7  1  0  0  0  0
  7  8  1  0  0  0  0
  9  8  1  1  0  0  0
  9 10  1  0  0  0  0
  9 11  1  0  0  0  0
 10 15  1  0  0  0  0
 11 12  1  1  0  0  0
 11 13  1  0  0  0  0
 13 14  1  1  0  0  0
 13 15  1  0  0  0  0
 15 26  1  1  0  0  0
 17 18  2  0  0  0  0
 17 22  1  0  0  0  0
 18 19  1  0  0  0  0
 19 20  2  0  0  0  0
 20 21  1  0  0  0  0
 20 26  1  0  0  0  0
 21 22  2  0  0  0  0
 21 24  1  0  0  0  0
 22 23  1  0  0  0  0
 24 25  2  0  0  0  0
 25 26  1  0  0  0  0
M  END
>  <CHROM.1>
18.36474751,-55.80828086,174.90251360,-163.19067137,99.58073107,-172.87442905
58.23602371,48.40592784,56.36021683,31.31253231,-1.91558529,1.25488290,-0.98675877

>  <Name>
ligand

>  <RI>
0

>  <Rbt.Current_Directory>
/home/itssahil/PROJECTS/Mol_Feturizer/New_Systems/rnas/3GX3

>  <Rbt.Executable>
rbdock ($Id: //depot/dev/client3/rdock/2013.1/src/exe/rbdock.cxx#4 $)

>  <Rbt.Library>
libRbt.so (2013.1, Build901 2013/11/27)

>  <Rbt.Parameter_File>
/export/apps/rDock/src/rDock_2013.1_src/data/scripts/dock_solv.prm

>  <Rbt.Receptor>
prm/pocket_docking_7.prm

>  <SCORE>
-20.4093

>  <SCORE.INTER>
-17.2477

>  <SCORE.INTER.CONST>
1

>  <SCORE.INTER.POLAR>
0

>  <SCORE.INTER.ROT>
7

>  <SCORE.INTER.SOLV>
9.51404

>  <SCORE.INTER.VDW>
-22.9365

>  <SCORE.INTER.norm>
-0.663372

>  <SCORE.INTRA>
-3.16163

>  <SCORE.INTRA.DIHEDRAL>
-0.462329

>  <SCORE.INTRA.DIHEDRAL.0>
5.78979

>  <SCORE.INTRA.POLAR>
0

>  <SCORE.INTRA.POLAR.0>
0

>  <SCORE.INTRA.REPUL>
0

>  <SCORE.INTRA.REPUL.0>
0

>  <SCORE.INTRA.SOLV>
0.07842

>  <SCORE.INTRA.SOLV.lig_0>
-49.9151

>  <SCORE.INTRA.VDW>
-2.96968

>  <SCORE.INTRA.VDW.0>
-0.211125

>  <SCORE.INTRA.norm>
-0.121601

>  <SCORE.RESTR>
0

>  <SCORE.RESTR.CAVITY>
0

>  <SCORE.RESTR.norm>
0

>  <SCORE.SYSTEM>
0

>  <SCORE.SYSTEM.CONST>
0

>  <SCORE.SYSTEM.DIHEDRAL>
0

>  <SCORE.SYSTEM.SOLV>
0

>  <SCORE.SYSTEM.norm>
0

>  <SCORE.heavy>
26

>  <SCORE.norm>
-0.784974

>  <RMSD>
6.461

$$$$
ligand
 OpenBabel11021811483D
libRbt.so/2013.1/901 2013/11/27
 26 28  0  0  0  0  0  0  0  0999 V2000
   46.0596   53.4758   35.6856 N   0  0  0  0  0  0  0  0  0  0  0  0
   44.7341   53.7401   35.1190 C   0  0  2  0  0  0  0  0  0  0  0  0
   43.8220   52.5129   35.0573 C   0  0  0  0  0  0  0  0  0  0  0  0
   43.8171   51.7437   36.0188 O   0  0  0  0  0  0  0  0  0  0  0  0
   44.7425   54.3585   33.7150 C   0  0  0  0  0  0  0  0  0  0  0  0
   45.3584   55.7237   33.4632 C   0  0  0  0  0  0  0  0  0  0  0  0
   45.0108   56.1336   31.7372 S   0  0  0  0  0  0  0  0  0  0  0  0
   44.4226   57.7338   32.3410 C   0  0  0  0  0  0  0  0  0  0  0  0
   45.4671   58.8539   32.2889 C   0  0  1  0  0  0  0  0  0  0  0  0
   46.7469   58.4563   32.7937 O   0  0  0  0  0  0  0  0  0  0  0  0
   45.6780   59.3315   30.8594 C   0  0  1  0  0  0  0  0  0  0  0  0
   44.8364   60.4205   30.5513 O   0  0  0  0  0  0  0  0  0  0  0  0
   47.1595   59.6781   30.7873 C   0  0  1  0  0  0  0  0  0  0  0  0
   47.3929   61.0371   31.0975 O   0  0  0  0  0  0  0  0  0  0  0  0
   47.7722   58.8398   31.8920 C   0  0  2  0  0  0  0  0  0  0  0  0
   43.0835   52.2710   34.0944 O   0  0  0  0  0  0  0  0  0  0  0  0
   49.3836   56.2589   27.6071 N   0  0  0  0  0  0  0  0  0  0  0  0
   48.6682   57.4277   27.6755 C   0  0  0  0  0  0  0  0  0  0  0  0
   48.3179   57.9486   28.9035 N   0  0  0  0  0  0  0  0  0  0  0  0
   48.6961   57.3492   30.0464 C   0  0  0  0  0  0  0  0  0  0  0  0
   49.4199   56.1700   29.9991 C   0  0  0  0  0  0  0  0  0  0  0  0
   49.7543   55.6341   28.7714 C   0  0  0  0  0  0  0  0  0  0  0  0
   50.4540   54.5182   28.7027 N   0  0  0  0  0  0  0  0  0  0  0  0
   49.6705   55.7742   31.2670 N   0  0  0  0  0  0  0  0  0  0  0  0
   49.0966   56.6681   32.1114 C   0  0  0  0  0  0  0  0  0  0  0  0
   48.4886   57.6546   31.3663 N   0  0  0  0  0  0  0  0  0  0  0  0
  2  1  1  6  0  0  0
  2  3  1  0  0  0  0
  2  5  1  0  0  0  0
  3  4  1  0  0  0  0
  3 16  1  0  0  0  0
  5  6  1  0  0  0  0
  6  7  1  0  0  0  0
  7  8  1  0  0  0  0
  9  8  1  6  0  0  0
  9 10  1  0  0  0  0
  9 11  1  0  0  0  0
 10 15  1  0  0  0  0
 11 12  1  1  0  0  0
 11 13  1  0  0  0  0
 13 14  1  1  0  0  0
 13 15  1  0  0  0  0
 15 26  1  6  0  0  0
 17 18  2  0  0  0  0
 17 22  1  0  0  0  0
 18 19  1  0  0  0  0
 19 20  2  0  0  0  0
 20 21  1  0  0  0  0
 20 26  1  0  0  0  0
 21 22  2  0  0  0  0
 21 24  1  0  0  0  0
 22 23  1  0  0  0  0
 24 25  2  0  0  0  0
 25 26  1  0  0  0  0
M  END
>  <CHROM.1>
41.26290640,-62.52696624,-174.55647171,130.66795147,95.69375836,-45.96094741
126.65693022,46.67963568,56.51281767,31.75325301,-2.29899440,0.69290753,-0.30652313

>  <Name>
ligand

>  <RI>
0

>  <Rbt.Current_Directory>
/home/itssahil/PROJECTS/Mol_Feturizer/New_Systems/rnas/3GX3

>  <Rbt.Executable>
rbdock ($Id: //depot/dev/client3/rdock/2013.1/src/exe/rbdock.cxx#4 $)

>  <Rbt.Library>
libRbt.so (2013.1, Build901 2013/11/27)

>  <Rbt.Parameter_File>
/export/apps/rDock/src/rDock_2013.1_src/data/scripts/dock_solv.prm

>  <Rbt.Receptor>
prm/pocket_docking_7.prm

>  <SCORE>
-13.5776

>  <SCORE.INTER>
-12.5115

>  <SCORE.INTER.CONST>
1

>  <SCORE.INTER.POLAR>
0

>  <SCORE.INTER.ROT>
7

>  <SCORE.INTER.SOLV>
13.1773

>  <SCORE.INTER.VDW>
-21.0001

>  <SCORE.INTER.norm>
-0.481213

>  <SCORE.INTRA>
-1.06609

>  <SCORE.INTRA.DIHEDRAL>
1.57927

>  <SCORE.INTRA.DIHEDRAL.0>
5.78979

>  <SCORE.INTRA.POLAR>
0

>  <SCORE.INTRA.POLAR.0>
0

>  <SCORE.INTRA.REPUL>
0

>  <SCORE.INTRA.REPUL.0>
0

>  <SCORE.INTRA.SOLV>
-0.228087

>  <SCORE.INTRA.SOLV.lig_0>
-49.9151

>  <SCORE.INTRA.VDW>
-1.74168

>  <SCORE.INTRA.VDW.0>
-0.211125

>  <SCORE.INTRA.norm>
-0.0410036

>  <SCORE.RESTR>
6.42231e-05

>  <SCORE.RESTR.CAVITY>
6.42231e-05

>  <SCORE.RESTR.norm>
2.47012e-06

>  <SCORE.SYSTEM>
0

>  <SCORE.SYSTEM.CONST>
0

>  <SCORE.SYSTEM.DIHEDRAL>
0

>  <SCORE.SYSTEM.SOLV>
0

>  <SCORE.SYSTEM.norm>
0

>  <SCORE.heavy>
26

>  <SCORE.norm>
-0.522214

>  <RMSD>
6.462

$$$$
ligand
 OpenBabel11021811483D
libRbt.so/2013.1/901 2013/11/27
 26 28  0  0  0  0  0  0  0  0999 V2000
   41.8171   53.9232   33.1980 N   0  0  0  0  0  0  0  0  0  0  0  0
   43.2367   53.8115   32.8516 C   0  0  2  0  0  0  0  0  0  0  0  0
   44.1792   53.8176   34.0572 C   0  0  0  0  0  0  0  0  0  0  0  0
   45.3275   53.4023   33.8990 O   0  0  0  0  0  0  0  0  0  0  0  0
   43.7514   54.8813   31.8798 C   0  0  0  0  0  0  0  0  0  0  0  0
   43.5863   56.3604   32.1827 C   0  0  0  0  0  0  0  0  0  0  0  0
   44.7507   56.7458   33.5106 S   0  0  0  0  0  0  0  0  0  0  0  0
   45.4314   58.0094   32.4101 C   0  0  0  0  0  0  0  0  0  0  0  0
   46.9512   58.1813   32.5056 C   0  0  1  0  0  0  0  0  0  0  0  0
   47.6796   57.0714   31.9684 O   0  0  0  0  0  0  0  0  0  0  0  0
   47.4044   59.4223   31.7504 C   0  0  1  0  0  0  0  0  0  0  0  0
   47.4586   60.5488   32.5975 O   0  0  0  0  0  0  0  0  0  0  0  0
   48.7600   59.0419   31.1693 C   0  0  1  0  0  0  0  0  0  0  0  0
   49.8172   59.3910   32.0399 O   0  0  0  0  0  0  0  0  0  0  0  0
   48.7010   57.5288   31.0971 C   0  0  2  0  0  0  0  0  0  0  0  0
   43.8420   54.2332   35.1728 O   0  0  0  0  0  0  0  0  0  0  0  0
   50.7331   54.9229   27.0108 N   0  0  0  0  0  0  0  0  0  0  0  0
   51.3203   55.1969   28.2202 C   0  0  0  0  0  0  0  0  0  0  0  0
   50.6299   55.9171   29.1724 N   0  0  0  0  0  0  0  0  0  0  0  0
   49.3690   56.3299   28.9528 C   0  0  0  0  0  0  0  0  0  0  0  0
   48.7578   56.0621   27.7397 C   0  0  0  0  0  0  0  0  0  0  0  0
   49.4535   55.3597   26.7758 C   0  0  0  0  0  0  0  0  0  0  0  0
   48.8863   55.0828   25.6177 N   0  0  0  0  0  0  0  0  0  0  0  0
   47.5093   56.5793   27.7698 N   0  0  0  0  0  0  0  0  0  0  0  0
   47.3319   57.1892   28.9689 C   0  0  0  0  0  0  0  0  0  0  0  0
   48.4798   57.0404   29.7161 N   0  0  0  0  0  0  0  0  0  0  0  0
  2  1  1  1  0  0  0
  2  3  1  0  0  0  0
  2  5  1  0  0  0  0
  3  4  1  0  0  0  0
  3 16  1  0  0  0  0
  5  6  1  0  0  0  0
  6  7  1  0  0  0  0
  7  8  1  0  0  0  0
  9  8  1  6  0  0  0
  9 10  1  0  0  0  0
  9 11  1  0  0  0  0
 10 15  1  0  0  0  0
 11 12  1  1  0  0  0
 11 13  1  0  0  0  0
 13 14  1  1  0  0  0
 13 15  1  0  0  0  0
 15 26  1  6  0  0  0
 17 18  2  0  0  0  0
 17 22  1  0  0  0  0
 18 19  1  0  0  0  0
 19 20  2  0  0  0  0
 20 21  1  0  0  0  0
 20 26  1  0  0  0  0
 21 22  2  0  0  0  0
 21 24  1  0  0  0  0
 22 23  1  0  0  0  0
 24 25  2  0  0  0  0
 25 26  1  0  0  0  0
M  END
>  <CHROM.1>
162.27284288,55.10210588,72.47670285,123.90021136,-143.58146098,70.09881918
-124.84777715,46.95998097,56.42552287,31.08560980,2.83821394,0.71732244,0.66802465

>  <Name>
ligand

>  <RI>
0

>  <Rbt.Current_Directory>
/home/itssahil/PROJECTS/Mol_Feturizer/New_Systems/rnas/3GX3

>  <Rbt.Executable>
rbdock ($Id: //depot/dev/client3/rdock/2013.1/src/exe/rbdock.cxx#4 $)

>  <Rbt.Library>
libRbt.so (2013.1, Build901 2013/11/27)

>  <Rbt.Parameter_File>
/export/apps/rDock/src/rDock_2013.1_src/data/scripts/dock_solv.prm

>  <Rbt.Receptor>
prm/pocket_docking_7.prm

>  <SCORE>
-14.0376

>  <SCORE.INTER>
-12.4084

>  <SCORE.INTER.CONST>
1

>  <SCORE.INTER.POLAR>
0

>  <SCORE.INTER.ROT>
7

>  <SCORE.INTER.SOLV>
10.8059

>  <SCORE.INTER.VDW>
-20.1409

>  <SCORE.INTER.norm>
-0.477247

>  <SCORE.INTRA>
-1.6292

>  <SCORE.INTRA.DIHEDRAL>
2.02059

>  <SCORE.INTRA.DIHEDRAL.0>
5.78979

>  <SCORE.INTRA.POLAR>
0

>  <SCORE.INTRA.POLAR.0>
0

>  <SCORE.INTRA.REPUL>
0

>  <SCORE.INTRA.REPUL.0>
0

>  <SCORE.INTRA.SOLV>
0.066521

>  <SCORE.INTRA.SOLV.lig_0>
-49.9151

>  <SCORE.INTRA.VDW>
-2.67276

>  <SCORE.INTRA.VDW.0>
-0.211125

>  <SCORE.INTRA.norm>
-0.0626617

>  <SCORE.RESTR>
0

>  <SCORE.RESTR.CAVITY>
0

>  <SCORE.RESTR.norm>
0

>  <SCORE.SYSTEM>
0

>  <SCORE.SYSTEM.CONST>
0

>  <SCORE.SYSTEM.DIHEDRAL>
0

>  <SCORE.SYSTEM.SOLV>
0

>  <SCORE.SYSTEM.norm>
0

>  <SCORE.heavy>
26

>  <SCORE.norm>
-0.539909

>  <RMSD>
6.469

$$$$
ligand
 OpenBabel11021811483D
libRbt.so/2013.1/901 2013/11/27
 26 28  0  0  0  0  0  0  0  0999 V2000
   49.3747   54.6067   35.7726 N   0  0  0  0  0  0  0  0  0  0  0  0
   48.2582   55.1038   34.9638 C   0  0  2  0  0  0  0  0  0  0  0  0
   47.0343   54.1852   34.9517 C   0  0  0  0  0  0  0  0  0  0  0  0
   47.2190   52.9703   35.0291 O   0  0  0  0  0  0  0  0  0  0  0  0
   48.6035   55.4033   33.4993 C   0  0  0  0  0  0  0  0  0  0  0  0
   49.6991   56.3912   33.1383 C   0  0  0  0  0  0  0  0  0  0  0  0
   49.1922   57.9896   33.8135 S   0  0  0  0  0  0  0  0  0  0  0  0
   49.5906   58.6869   32.1929 C   0  0  0  0  0  0  0  0  0  0  0  0
   48.3746   58.9397   31.2952 C   0  0  1  0  0  0  0  0  0  0  0  0
   48.7017   58.9864   29.9017 O   0  0  0  0  0  0  0  0  0  0  0  0
   47.3324   57.8453   31.4744 C   0  0  1  0  0  0  0  0  0  0  0  0
   46.3846   58.1937   32.4590 O   0  0  0  0  0  0  0  0  0  0  0  0
   46.7229   57.6682   30.0898 C   0  0  1  0  0  0  0  0  0  0  0  0
   45.5860   58.4887   29.9115 O   0  0  0  0  0  0  0  0  0  0  0  0
   47.8080   58.1730   29.1592 C   0  0  2  0  0  0  0  0  0  0  0  0
   45.8744   54.6105   34.8825 O   0  0  0  0  0  0  0  0  0  0  0  0
   48.2260   55.2385   24.8197 N   0  0  0  0  0  0  0  0  0  0  0  0
   47.3349   56.2491   25.0788 C   0  0  0  0  0  0  0  0  0  0  0  0
   47.3668   56.8990   26.2948 N   0  0  0  0  0  0  0  0  0  0  0  0
   48.2836   56.5848   27.2272 C   0  0  0  0  0  0  0  0  0  0  0  0
   49.1928   55.5693   26.9846 C   0  0  0  0  0  0  0  0  0  0  0  0
   49.1504   54.9020   25.7766 C   0  0  0  0  0  0  0  0  0  0  0  0
   50.0149   53.9396   25.5195 N   0  0  0  0  0  0  0  0  0  0  0  0
   49.9948   55.4500   28.0661 N   0  0  0  0  0  0  0  0  0  0  0  0
   49.5918   56.3538   28.9946 C   0  0  0  0  0  0  0  0  0  0  0  0
   48.5294   57.0683   28.4858 N   0  0  0  0  0  0  0  0  0  0  0  0
  2  1  1  6  0  0  0
  2  3  1  0  0  0  0
  2  5  1  0  0  0  0
  3  4  1  0  0  0  0
  3 16  1  0  0  0  0
  5  6  1  0  0  0  0
  6  7  1  0  0  0  0
  7  8  1  0  0  0  0
  9  8  1  1  0  0  0
  9 10  1  0  0  0  0
  9 11  1  0  0  0  0
 10 15  1  0  0  0  0
 11 12  1  1  0  0  0
 11 13  1  0  0  0  0
 13 14  1  1  0  0  0
 13 15  1  0  0  0  0
 15 26  1  1  0  0  0
 17 18  2  0  0  0  0
 17 22  1  0  0  0  0
 18 19  1  0  0  0  0
 19 20  2  0  0  0  0
 20 21  1  0  0  0  0
 20 26  1  0  0  0  0
 21 22  2  0  0  0  0
 21 24  1  0  0  0  0
 22 23  1  0  0  0  0
 24 25  2  0  0  0  0
 25 26  1  0  0  0  0
M  END
>  <CHROM.1>
-32.64610962,-57.66696117,-61.34379290,-131.83111644,100.93986946,-157.26227345
-140.91157008,48.21771197,56.49592357,30.65368225,-1.97791812,1.40825433
-1.12894782

>  <Name>
ligand

>  <RI>
0

>  <Rbt.Current_Directory>
/home/itssahil/PROJECTS/Mol_Feturizer/New_Systems/rnas/3GX3

>  <Rbt.Executable>
rbdock ($Id: //depot/dev/client3/rdock/2013.1/src/exe/rbdock.cxx#4 $)

>  <Rbt.Library>
libRbt.so (2013.1, Build901 2013/11/27)

>  <Rbt.Parameter_File>
/export/apps/rDock/src/rDock_2013.1_src/data/scripts/dock_solv.prm

>  <Rbt.Receptor>
prm/pocket_docking_5.prm

>  <SCORE>
-15.5578

>  <SCORE.INTER>
-14.7557

>  <SCORE.INTER.CONST>
1

>  <SCORE.INTER.POLAR>
0

>  <SCORE.INTER.ROT>
7

>  <SCORE.INTER.SOLV>
14.2356

>  <SCORE.INTER.VDW>
-22.849

>  <SCORE.INTER.norm>
-0.567529

>  <SCORE.INTRA>
-0.802054

>  <SCORE.INTRA.DIHEDRAL>
2.7992

>  <SCORE.INTRA.DIHEDRAL.0>
5.78979

>  <SCORE.INTRA.POLAR>
0

>  <SCORE.INTRA.POLAR.0>
0

>  <SCORE.INTRA.REPUL>
0

>  <SCORE.INTRA.REPUL.0>
0

>  <SCORE.INTRA.SOLV>
0.647682

>  <SCORE.INTRA.SOLV.lig_0>
-49.9151

>  <SCORE.INTRA.VDW>
-2.52549

>  <SCORE.INTRA.VDW.0>
-0.211125

>  <SCORE.INTRA.norm>
-0.0308482

>  <SCORE.RESTR>
0

>  <SCORE.RESTR.CAVITY>
0

>  <SCORE.RESTR.norm>
0

>  <SCORE.SYSTEM>
0

>  <SCORE.SYSTEM.CONST>
0

>  <SCORE.SYSTEM.DIHEDRAL>
0

>  <SCORE.SYSTEM.SOLV>
0

>  <SCORE.SYSTEM.norm>
0

>  <SCORE.heavy>
26

>  <SCORE.norm>
-0.598377

>  <RMSD>
6.474

$$$$
ligand
 OpenBabel11021811483D
libRbt.so/2013.1/901 2013/11/27
 26 28  0  0  0  0  0  0  0  0999 V2000
   48.1365   53.7229   34.1422 N   0  0  0  0  0  0  0  0  0  0  0  0
   47.2296   54.3166   35.1286 C   0  0  2  0  0  0  0  0  0  0  0  0
   47.4386   53.8105   36.5576 C   0  0  0  0  0  0  0  0  0  0  0  0
   47.0706   52.6672   36.8286 O   0  0  0  0  0  0  0  0  0  0  0  0
   45.7367   54.1554   34.8140 C   0  0  0  0  0  0  0  0  0  0  0  0
   45.1373   54.7281   33.5415 C   0  0  0  0  0  0  0  0  0  0  0  0
   44.8637   56.4882   33.8495 S   0  0  0  0  0  0  0  0  0  0  0  0
   46.5171   56.7611   33.1688 C   0  0  0  0  0  0  0  0  0  0  0  0
   46.7767   58.1931   32.6889 C   0  0  1  0  0  0  0  0  0  0  0  0
   48.0719   58.3659   32.1027 O   0  0  0  0  0  0  0  0  0  0  0  0
   45.7524   58.6077   31.6426 C   0  0  1  0  0  0  0  0  0  0  0  0
   44.6471   59.2551   32.2329 O   0  0  0  0  0  0  0  0  0  0  0  0
   46.5279   59.4993   30.6815 C   0  0  1  0  0  0  0  0  0  0  0  0
   46.4493   60.8604   31.0541 O   0  0  0  0  0  0  0  0  0  0  0  0
   47.9645   59.0516   30.8659 C   0  0  2  0  0  0  0  0  0  0  0  0
   47.9716   54.4925   37.4418 O   0  0  0  0  0  0  0  0  0  0  0  0
   50.0426   54.4340   29.4597 N   0  0  0  0  0  0  0  0  0  0  0  0
   49.7376   54.8790   30.7213 C   0  0  0  0  0  0  0  0  0  0  0  0
   49.2098   56.1411   30.8964 N   0  0  0  0  0  0  0  0  0  0  0  0
   48.9523   56.9390   29.8449 C   0  0  0  0  0  0  0  0  0  0  0  0
   49.2512   56.5080   28.5636 C   0  0  0  0  0  0  0  0  0  0  0  0
   49.7994   55.2533   28.3859 C   0  0  0  0  0  0  0  0  0  0  0  0
   50.0805   54.8176   27.1732 N   0  0  0  0  0  0  0  0  0  0  0  0
   48.9035   57.4839   27.6953 N   0  0  0  0  0  0  0  0  0  0  0  0
   48.4150   58.5307   28.4074 C   0  0  0  0  0  0  0  0  0  0  0  0
   48.4374   58.2052   29.7459 N   0  0  0  0  0  0  0  0  0  0  0  0
  2  1  1  6  0  0  0
  2  3  1  0  0  0  0
  2  5  1  0  0  0  0
  3  4  1  0  0  0  0
  3 16  1  0  0  0  0
  5  6  1  0  0  0  0
  6  7  1  0  0  0  0
  7  8  1  0  0  0  0
  9  8  1  6  0  0  0
  9 10  1  0  0  0  0
  9 11  1  0  0  0  0
 10 15  1  0  0  0  0
 11 12  1  1  0  0  0
 11 13  1  0  0  0  0
 13 14  1  1  0  0  0
 13 15  1  0  0  0  0
 15 26  1  6  0  0  0
 17 18  2  0  0  0  0
 17 22  1  0  0  0  0
 18 19  1  0  0  0  0
 19 20  2  0  0  0  0
 20 21  1  0  0  0  0
 20 26  1  0  0  0  0
 21 22  2  0  0  0  0
 21 24  1  0  0  0  0
 22 23  1  0  0  0  0
 24 25  2  0  0  0  0
 25 26  1  0  0  0  0
M  END
>  <CHROM.1>
-72.89715861,-60.31174108,-80.42078056,91.62873705,159.94525260,-177.46425646
-1.71448408,47.47209285,56.48234095,32.02562433,-1.99500849,0.85473935,-0.81106506

>  <Name>
ligand

>  <RI>
0

>  <Rbt.Current_Directory>
/home/itssahil/PROJECTS/Mol_Feturizer/New_Systems/rnas/3GX3

>  <Rbt.Executable>
rbdock ($Id: //depot/dev/client3/rdock/2013.1/src/exe/rbdock.cxx#4 $)

>  <Rbt.Library>
libRbt.so (2013.1, Build901 2013/11/27)

>  <Rbt.Parameter_File>
/export/apps/rDock/src/rDock_2013.1_src/data/scripts/dock_solv.prm

>  <Rbt.Receptor>
prm/pocket_docking_7.prm

>  <SCORE>
-18.7832

>  <SCORE.INTER>
-17.357

>  <SCORE.INTER.CONST>
1

>  <SCORE.INTER.POLAR>
0

>  <SCORE.INTER.ROT>
7

>  <SCORE.INTER.SOLV>
11.028

>  <SCORE.INTER.VDW>
-23.514

>  <SCORE.INTER.norm>
-0.667578

>  <SCORE.INTRA>
-1.42612

>  <SCORE.INTRA.DIHEDRAL>
0.373013

>  <SCORE.INTRA.DIHEDRAL.0>
5.78979

>  <SCORE.INTRA.POLAR>
0

>  <SCORE.INTRA.POLAR.0>
0

>  <SCORE.INTRA.REPUL>
0

>  <SCORE.INTRA.REPUL.0>
0

>  <SCORE.INTRA.SOLV>
0.868668

>  <SCORE.INTRA.SOLV.lig_0>
-49.9151

>  <SCORE.INTRA.VDW>
-2.04696

>  <SCORE.INTRA.VDW.0>
-0.211125

>  <SCORE.INTRA.norm>
-0.0548507

>  <SCORE.RESTR>
0

>  <SCORE.RESTR.CAVITY>
0

>  <SCORE.RESTR.norm>
0

>  <SCORE.SYSTEM>
0

>  <SCORE.SYSTEM.CONST>
0

>  <SCORE.SYSTEM.DIHEDRAL>
0

>  <SCORE.SYSTEM.SOLV>
0

>  <SCORE.SYSTEM.norm>
0

>  <SCORE.heavy>
26

>  <SCORE.norm>
-0.722429

>  <RMSD>
6.497

$$$$
ligand
 OpenBabel11021811483D
libRbt.so/2013.1/901 2013/11/27
 26 28  0  0  0  0  0  0  0  0999 V2000
   48.8141   54.7094   36.0622 N   0  0  0  0  0  0  0  0  0  0  0  0
   47.9816   54.8267   34.8618 C   0  0  2  0  0  0  0  0  0  0  0  0
   47.0079   53.6640   34.6573 C   0  0  0  0  0  0  0  0  0  0  0  0
   45.9149   53.9050   34.1442 O   0  0  0  0  0  0  0  0  0  0  0  0
   48.7587   54.9915   33.5493 C   0  0  0  0  0  0  0  0  0  0  0  0
   49.7006   56.1640   33.3377 C   0  0  0  0  0  0  0  0  0  0  0  0
   48.6854   57.6580   33.4109 S   0  0  0  0  0  0  0  0  0  0  0  0
   49.1325   57.9249   31.6787 C   0  0  0  0  0  0  0  0  0  0  0  0
   48.0389   58.5915   30.8373 C   0  0  1  0  0  0  0  0  0  0  0  0
   48.4536   58.8772   29.4966 O   0  0  0  0  0  0  0  0  0  0  0  0
   46.8081   57.7011   30.7454 C   0  0  1  0  0  0  0  0  0  0  0  0
   45.8798   57.9999   31.7644 O   0  0  0  0  0  0  0  0  0  0  0  0
   46.2625   57.9473   29.3447 C   0  0  1  0  0  0  0  0  0  0  0  0
   45.3046   58.9864   29.3333 O   0  0  0  0  0  0  0  0  0  0  0  0
   47.4755   58.4281   28.5729 C   0  0  2  0  0  0  0  0  0  0  0  0
   47.2773   52.4977   34.9707 O   0  0  0  0  0  0  0  0  0  0  0  0
   50.7570   54.3455   28.1466 N   0  0  0  0  0  0  0  0  0  0  0  0
   50.5209   55.1341   29.2443 C   0  0  0  0  0  0  0  0  0  0  0  0
   49.6283   56.1820   29.1589 N   0  0  0  0  0  0  0  0  0  0  0  0
   48.9517   56.4281   28.0230 C   0  0  0  0  0  0  0  0  0  0  0  0
   49.1743   55.6429   26.9047 C   0  0  0  0  0  0  0  0  0  0  0  0
   50.0828   54.6060   26.9800 C   0  0  0  0  0  0  0  0  0  0  0  0
   50.3014   53.8376   25.9305 N   0  0  0  0  0  0  0  0  0  0  0  0
   48.3822   56.0923   25.9057 N   0  0  0  0  0  0  0  0  0  0  0  0
   47.6841   57.1608   26.3663 C   0  0  0  0  0  0  0  0  0  0  0  0
   48.0266   57.3802   27.6826 N   0  0  0  0  0  0  0  0  0  0  0  0
  2  1  1  1  0  0  0
  2  3  1  0  0  0  0
  2  5  1  0  0  0  0
  3  4  1  0  0  0  0
  3 16  1  0  0  0  0
  5  6  1  0  0  0  0
  6  7  1  0  0  0  0
  7  8  1  0  0  0  0
  9  8  1  1  0  0  0
  9 10  1  0  0  0  0
  9 11  1  0  0  0  0
 10 15  1  0  0  0  0
 11 12  1  1  0  0  0
 11 13  1  0  0  0  0
 13 14  1  1  0  0  0
 13 15  1  0  0  0  0
 15 26  1  1  0  0  0
 17 18  2  0  0  0  0
 17 22  1  0  0  0  0
 18 19  1  0  0  0  0
 19 20  2  0  0  0  0
 20 21  1  0  0  0  0
 20 26  1  0  0  0  0
 21 22  2  0  0  0  0
 21 24  1  0  0  0  0
 22 23  1  0  0  0  0
 24 25  2  0  0  0  0
 25 26  1  0  0  0  0
M  END
>  <CHROM.1>
146.14651882,-59.51646679,-62.66794101,-115.78918382,146.84271398,175.79711276
34.36229175,48.23672014,56.30204765,30.66078555,-1.82113887,1.01998239,-1.15936800

>  <Name>
ligand

>  <RI>
0

>  <Rbt.Current_Directory>
/home/itssahil/PROJECTS/Mol_Feturizer/New_Systems/rnas/3GX3

>  <Rbt.Executable>
rbdock ($Id: //depot/dev/client3/rdock/2013.1/src/exe/rbdock.cxx#4 $)

>  <Rbt.Library>
libRbt.so (2013.1, Build901 2013/11/27)

>  <Rbt.Parameter_File>
/export/apps/rDock/src/rDock_2013.1_src/data/scripts/dock_solv.prm

>  <Rbt.Receptor>
prm/pocket_docking_5.prm

>  <SCORE>
-16.5606

>  <SCORE.INTER>
-13.6838

>  <SCORE.INTER.CONST>
1

>  <SCORE.INTER.POLAR>
0

>  <SCORE.INTER.ROT>
7

>  <SCORE.INTER.SOLV>
13.5235

>  <SCORE.INTER.VDW>
-21.8971

>  <SCORE.INTER.norm>
-0.526301

>  <SCORE.INTRA>
-2.87679

>  <SCORE.INTRA.DIHEDRAL>
0.807991

>  <SCORE.INTRA.DIHEDRAL.0>
5.78979

>  <SCORE.INTRA.POLAR>
0

>  <SCORE.INTRA.POLAR.0>
0

>  <SCORE.INTRA.REPUL>
0

>  <SCORE.INTRA.REPUL.0>
0

>  <SCORE.INTRA.SOLV>
0.283686

>  <SCORE.INTRA.SOLV.lig_0>
-49.9151

>  <SCORE.INTRA.VDW>
-3.42262

>  <SCORE.INTRA.VDW.0>
-0.211125

>  <SCORE.INTRA.norm>
-0.110646

>  <SCORE.RESTR>
0

>  <SCORE.RESTR.CAVITY>
0

>  <SCORE.RESTR.norm>
0

>  <SCORE.SYSTEM>
0

>  <SCORE.SYSTEM.CONST>
0

>  <SCORE.SYSTEM.DIHEDRAL>
0

>  <SCORE.SYSTEM.SOLV>
0

>  <SCORE.SYSTEM.norm>
0

>  <SCORE.heavy>
26

>  <SCORE.norm>
-0.636947

>  <RMSD>
6.572

$$$$
ligand
 OpenBabel11021811483D
libRbt.so/2013.1/901 2013/11/27
 26 28  0  0  0  0  0  0  0  0999 V2000
   43.4726   52.7073   35.5654 N   0  0  0  0  0  0  0  0  0  0  0  0
   44.6751   53.5427   35.5026 C   0  0  2  0  0  0  0  0  0  0  0  0
   44.8387   54.3092   34.1883 C   0  0  0  0  0  0  0  0  0  0  0  0
   44.7235   53.6847   33.1333 O   0  0  0  0  0  0  0  0  0  0  0  0
   45.9935   52.7981   35.7498 C   0  0  0  0  0  0  0  0  0  0  0  0
   47.3119   53.5468   35.8395 C   0  0  0  0  0  0  0  0  0  0  0  0
   47.8504   53.8440   34.1397 S   0  0  0  0  0  0  0  0  0  0  0  0
   48.7558   55.2715   34.7831 C   0  0  0  0  0  0  0  0  0  0  0  0
   49.0070   56.3791   33.7544 C   0  0  1  0  0  0  0  0  0  0  0  0
   50.0596   56.0672   32.8347 O   0  0  0  0  0  0  0  0  0  0  0  0
   47.7561   56.6461   32.9298 C   0  0  1  0  0  0  0  0  0  0  0  0
   46.9747   57.6735   33.4984 O   0  0  0  0  0  0  0  0  0  0  0  0
   48.2800   56.9884   31.5411 C   0  0  1  0  0  0  0  0  0  0  0  0
   48.4756   58.3795   31.3857 O   0  0  0  0  0  0  0  0  0  0  0  0
   49.6416   56.3230   31.5037 C   0  0  2  0  0  0  0  0  0  0  0  0
   45.0657   55.5246   34.1419 O   0  0  0  0  0  0  0  0  0  0  0  0
   51.3644   53.9315   27.1527 N   0  0  0  0  0  0  0  0  0  0  0  0
   51.6075   55.2162   27.5685 C   0  0  0  0  0  0  0  0  0  0  0  0
   51.0482   55.6767   28.7421 N   0  0  0  0  0  0  0  0  0  0  0  0
   50.2915   54.8755   29.5128 C   0  0  0  0  0  0  0  0  0  0  0  0
   50.0356   53.5752   29.1119 C   0  0  0  0  0  0  0  0  0  0  0  0
   50.5764   53.1172   27.9270 C   0  0  0  0  0  0  0  0  0  0  0  0
   50.3558   51.8783   27.5319 N   0  0  0  0  0  0  0  0  0  0  0  0
   49.2581   52.9872   30.0484 N   0  0  0  0  0  0  0  0  0  0  0  0
   48.9990   53.9001   31.0184 C   0  0  0  0  0  0  0  0  0  0  0  0
   49.6371   55.0788   30.6996 N   0  0  0  0  0  0  0  0  0  0  0  0
  2  1  1  6  0  0  0
  2  3  1  0  0  0  0
  2  5  1  0  0  0  0
  3  4  1  0  0  0  0
  3 16  1  0  0  0  0
  5  6  1  0  0  0  0
  6  7  1  0  0  0  0
  7  8  1  0  0  0  0
  9  8  1  1  0  0  0
  9 10  1  0  0  0  0
  9 11  1  0  0  0  0
 10 15  1  0  0  0  0
 11 12  1  1  0  0  0
 11 13  1  0  0  0  0
 13 14  1  1  0  0  0
 13 15  1  0  0  0  0
 15 26  1  6  0  0  0
 17 18  2  0  0  0  0
 17 22  1  0  0  0  0
 18 19  1  0  0  0  0
 19 20  2  0  0  0  0
 20 21  1  0  0  0  0
 20 26  1  0  0  0  0
 21 22  2  0  0  0  0
 21 24  1  0  0  0  0
 22 23  1  0  0  0  0
 24 25  2  0  0  0  0
 25 26  1  0  0  0  0
M  END
>  <CHROM.1>
-49.46939750,-174.52505949,-81.45405436,153.99411282,-154.71777354,-76.49217257
-125.12498483,48.22563330,54.76480944,32.10168435,2.82191024,0.86083004,0.44213745

>  <Name>
ligand

>  <RI>
0

>  <Rbt.Current_Directory>
/home/itssahil/PROJECTS/Mol_Feturizer/New_Systems/rnas/3GX3

>  <Rbt.Executable>
rbdock ($Id: //depot/dev/client3/rdock/2013.1/src/exe/rbdock.cxx#4 $)

>  <Rbt.Library>
libRbt.so (2013.1, Build901 2013/11/27)

>  <Rbt.Parameter_File>
/export/apps/rDock/src/rDock_2013.1_src/data/scripts/dock_solv.prm

>  <Rbt.Receptor>
prm/pocket_docking_6.prm

>  <SCORE>
-17.8021

>  <SCORE.INTER>
-14.8662

>  <SCORE.INTER.CONST>
1

>  <SCORE.INTER.POLAR>
0

>  <SCORE.INTER.ROT>
7

>  <SCORE.INTER.SOLV>
12.916

>  <SCORE.INTER.VDW>
-22.4828

>  <SCORE.INTER.norm>
-0.571778

>  <SCORE.INTRA>
-2.93588

>  <SCORE.INTRA.DIHEDRAL>
1.49355

>  <SCORE.INTRA.DIHEDRAL.0>
5.78979

>  <SCORE.INTRA.POLAR>
0

>  <SCORE.INTRA.POLAR.0>
0

>  <SCORE.INTRA.REPUL>
0

>  <SCORE.INTRA.REPUL.0>
0

>  <SCORE.INTRA.SOLV>
-0.530511

>  <SCORE.INTRA.SOLV.lig_0>
-49.9151

>  <SCORE.INTRA.VDW>
-3.4174

>  <SCORE.INTRA.VDW.0>
-0.211125

>  <SCORE.INTRA.norm>
-0.112918

>  <SCORE.RESTR>
0

>  <SCORE.RESTR.CAVITY>
0

>  <SCORE.RESTR.norm>
0

>  <SCORE.SYSTEM>
0

>  <SCORE.SYSTEM.CONST>
0

>  <SCORE.SYSTEM.DIHEDRAL>
0

>  <SCORE.SYSTEM.SOLV>
0

>  <SCORE.SYSTEM.norm>
0

>  <SCORE.heavy>
26

>  <SCORE.norm>
-0.684696

>  <RMSD>
6.621

$$$$
ligand
 OpenBabel11021811483D
libRbt.so/2013.1/901 2013/11/27
 26 28  0  0  0  0  0  0  0  0999 V2000
   48.2832   53.8317   33.5509 N   0  0  0  0  0  0  0  0  0  0  0  0
   48.9168   54.5940   34.6303 C   0  0  2  0  0  0  0  0  0  0  0  0
   48.3429   54.3097   36.0200 C   0  0  0  0  0  0  0  0  0  0  0  0
   48.9217   54.7869   36.9964 O   0  0  0  0  0  0  0  0  0  0  0  0
   48.8972   56.1168   34.4444 C   0  0  0  0  0  0  0  0  0  0  0  0
   49.4903   56.7632   33.2046 C   0  0  0  0  0  0  0  0  0  0  0  0
   49.3296   58.5495   33.4299 S   0  0  0  0  0  0  0  0  0  0  0  0
   49.3127   58.6738   31.6255 C   0  0  0  0  0  0  0  0  0  0  0  0
   47.9125   58.7620   31.0092 C   0  0  1  0  0  0  0  0  0  0  0  0
   47.9314   58.9539   29.5901 O   0  0  0  0  0  0  0  0  0  0  0  0
   47.1211   57.4904   31.2789 C   0  0  1  0  0  0  0  0  0  0  0  0
   46.3545   57.6017   32.4575 O   0  0  0  0  0  0  0  0  0  0  0  0
   46.2744   57.2951   30.0278 C   0  0  1  0  0  0  0  0  0  0  0  0
   45.0079   57.9096   30.1540 O   0  0  0  0  0  0  0  0  0  0  0  0
   47.0467   58.0427   28.9587 C   0  0  2  0  0  0  0  0  0  0  0  0
   47.3203   53.6370   36.2010 O   0  0  0  0  0  0  0  0  0  0  0  0
   46.7241   53.9213   25.7141 N   0  0  0  0  0  0  0  0  0  0  0  0
   45.7200   54.5121   26.4389 C   0  0  0  0  0  0  0  0  0  0  0  0
   46.0031   55.5844   27.2588 N   0  0  0  0  0  0  0  0  0  0  0  0
   47.2465   56.0905   27.3369 C   0  0  0  0  0  0  0  0  0  0  0  0
   48.2734   55.5100   26.6122 C   0  0  0  0  0  0  0  0  0  0  0  0
   47.9981   54.4230   25.8065 C   0  0  0  0  0  0  0  0  0  0  0  0
   48.9587   53.8620   25.0979 N   0  0  0  0  0  0  0  0  0  0  0  0
   49.4110   56.1955   26.8635 N   0  0  0  0  0  0  0  0  0  0  0  0
   49.1249   57.1805   27.7518 C   0  0  0  0  0  0  0  0  0  0  0  0
   47.7817   57.1287   28.0538 N   0  0  0  0  0  0  0  0  0  0  0  0
  2  1  1  6  0  0  0
  2  3  1  0  0  0  0
  2  5  1  0  0  0  0
  3  4  1  0  0  0  0
  3 16  1  0  0  0  0
  5  6  1  0  0  0  0
  6  7  1  0  0  0  0
  7  8  1  0  0  0  0
  9  8  1  6  0  0  0
  9 10  1  0  0  0  0
  9 11  1  0  0  0  0
 10 15  1  0  0  0  0
 11 12  1  1  0  0  0
 11 13  1  0  0  0  0
 13 14  1  1  0  0  0
 13 15  1  0  0  0  0
 15 26  1  1  0  0  0
 17 18  2  0  0  0  0
 17 22  1  0  0  0  0
 18 19  1  0  0  0  0
 19 20  2  0  0  0  0
 20 21  1  0  0  0  0
 20 26  1  0  0  0  0
 21 22  2  0  0  0  0
 21 24  1  0  0  0  0
 22 23  1  0  0  0  0
 24 25  2  0  0  0  0
 25 26  1  0  0  0  0
M  END
>  <CHROM.1>
171.55216791,-56.49842025,-177.30489355,-153.37132487,97.01228031,175.86382529
176.80189459,47.89421020,56.35668455,30.67739138,0.24376604,1.44728152,2.87640862

>  <Name>
ligand

>  <RI>
0

>  <Rbt.Current_Directory>
/home/itssahil/PROJECTS/Mol_Feturizer/New_Systems/rnas/3GX3

>  <Rbt.Executable>
rbdock ($Id: //depot/dev/client3/rdock/2013.1/src/exe/rbdock.cxx#4 $)

>  <Rbt.Library>
libRbt.so (2013.1, Build901 2013/11/27)

>  <Rbt.Parameter_File>
/export/apps/rDock/src/rDock_2013.1_src/data/scripts/dock_solv.prm

>  <Rbt.Receptor>
prm/pocket_docking_6.prm

>  <SCORE>
-17.9512

>  <SCORE.INTER>
-15.6992

>  <SCORE.INTER.CONST>
1

>  <SCORE.INTER.POLAR>
0

>  <SCORE.INTER.ROT>
7

>  <SCORE.INTER.SOLV>
9.50719

>  <SCORE.INTER.VDW>
-21.9019

>  <SCORE.INTER.norm>
-0.603817

>  <SCORE.INTRA>
-2.25201

>  <SCORE.INTRA.DIHEDRAL>
-0.257554

>  <SCORE.INTRA.DIHEDRAL.0>
5.78979

>  <SCORE.INTRA.POLAR>
0

>  <SCORE.INTRA.POLAR.0>
0

>  <SCORE.INTRA.REPUL>
0

>  <SCORE.INTRA.REPUL.0>
0

>  <SCORE.INTRA.SOLV>
0.0883437

>  <SCORE.INTRA.SOLV.lig_0>
-49.9151

>  <SCORE.INTRA.VDW>
-2.16741

>  <SCORE.INTRA.VDW.0>
-0.211125

>  <SCORE.INTRA.norm>
-0.0866158

>  <SCORE.RESTR>
0

>  <SCORE.RESTR.CAVITY>
0

>  <SCORE.RESTR.norm>
0

>  <SCORE.SYSTEM>
0

>  <SCORE.SYSTEM.CONST>
0

>  <SCORE.SYSTEM.DIHEDRAL>
0

>  <SCORE.SYSTEM.SOLV>
0

>  <SCORE.SYSTEM.norm>
0

>  <SCORE.heavy>
26

>  <SCORE.norm>
-0.690432

>  <RMSD>
6.623

$$$$
ligand
 OpenBabel11021811483D
libRbt.so/2013.1/901 2013/11/27
 26 28  0  0  0  0  0  0  0  0999 V2000
   46.6207   54.1297   33.6083 N   0  0  0  0  0  0  0  0  0  0  0  0
   47.9228   54.7286   33.9139 C   0  0  2  0  0  0  0  0  0  0  0  0
   48.3762   54.5389   35.3631 C   0  0  0  0  0  0  0  0  0  0  0  0
   49.5785   54.6306   35.6125 O   0  0  0  0  0  0  0  0  0  0  0  0
   48.0334   56.2276   33.6064 C   0  0  0  0  0  0  0  0  0  0  0  0
   49.3789   56.9322   33.6127 C   0  0  0  0  0  0  0  0  0  0  0  0
   49.0391   58.6905   33.3667 S   0  0  0  0  0  0  0  0  0  0  0  0
   49.3083   58.3924   31.6031 C   0  0  0  0  0  0  0  0  0  0  0  0
   48.1476   58.8278   30.7022 C   0  0  1  0  0  0  0  0  0  0  0  0
   48.5156   58.9411   29.3228 O   0  0  0  0  0  0  0  0  0  0  0  0
   46.9994   57.8320   30.7792 C   0  0  1  0  0  0  0  0  0  0  0  0
   46.0634   58.2015   31.7675 O   0  0  0  0  0  0  0  0  0  0  0  0
   46.4135   57.8153   29.3733 C   0  0  1  0  0  0  0  0  0  0  0  0
   45.3672   58.7551   29.2331 O   0  0  0  0  0  0  0  0  0  0  0  0
   47.5676   58.2753   28.5045 C   0  0  2  0  0  0  0  0  0  0  0  0
   47.5887   54.3132   36.2904 O   0  0  0  0  0  0  0  0  0  0  0  0
   50.5360   53.9511   28.8330 N   0  0  0  0  0  0  0  0  0  0  0  0
   50.1546   54.7981   29.8429 C   0  0  0  0  0  0  0  0  0  0  0  0
   49.3813   55.9038   29.5578 N   0  0  0  0  0  0  0  0  0  0  0  0
   48.9595   56.1529   28.3054 C   0  0  0  0  0  0  0  0  0  0  0  0
   49.3319   55.3096   27.2724 C   0  0  0  0  0  0  0  0  0  0  0  0
   50.1236   54.2132   27.5506 C   0  0  0  0  0  0  0  0  0  0  0  0
   50.4800   53.3897   26.5840 N   0  0  0  0  0  0  0  0  0  0  0  0
   48.7866   55.7751   26.1265 N   0  0  0  0  0  0  0  0  0  0  0  0
   48.0992   56.9091   26.4141 C   0  0  0  0  0  0  0  0  0  0  0  0
   48.1962   57.1554   27.7662 N   0  0  0  0  0  0  0  0  0  0  0  0
  2  1  1  1  0  0  0
  2  3  1  0  0  0  0
  2  5  1  0  0  0  0
  3  4  1  0  0  0  0
  3 16  1  0  0  0  0
  5  6  1  0  0  0  0
  6  7  1  0  0  0  0
  7  8  1  0  0  0  0
  9  8  1  1  0  0  0
  9 10  1  0  0  0  0
  9 11  1  0  0  0  0
 10 15  1  0  0  0  0
 11 12  1  1  0  0  0
 11 13  1  0  0  0  0
 13 14  1  1  0  0  0
 13 15  1  0  0  0  0
 15 26  1  1  0  0  0
 17 18  2  0  0  0  0
 17 22  1  0  0  0  0
 18 19  1  0  0  0  0
 19 20  2  0  0  0  0
 20 21  1  0  0  0  0
 20 26  1  0  0  0  0
 21 22  2  0  0  0  0
 21 24  1  0  0  0  0
 22 23  1  0  0  0  0
 24 25  2  0  0  0  0
 25 26  1  0  0  0  0
M  END
>  <CHROM.1>
158.22986123,-168.10833192,-174.54810457,-94.02521004,125.02526071,163.26425252
51.40375387,48.41447279,56.48531802,30.80313307,-1.73941926,1.09168276,-1.36994035

>  <Name>
ligand

>  <RI>
0

>  <Rbt.Current_Directory>
/home/itssahil/PROJECTS/Mol_Feturizer/New_Systems/rnas/3GX3

>  <Rbt.Executable>
rbdock ($Id: //depot/dev/client3/rdock/2013.1/src/exe/rbdock.cxx#4 $)

>  <Rbt.Library>
libRbt.so (2013.1, Build901 2013/11/27)

>  <Rbt.Parameter_File>
/export/apps/rDock/src/rDock_2013.1_src/data/scripts/dock_solv.prm

>  <Rbt.Receptor>
prm/pocket_docking_4.prm

>  <SCORE>
-18.7213

>  <SCORE.INTER>
-16.0798

>  <SCORE.INTER.CONST>
1

>  <SCORE.INTER.POLAR>
0

>  <SCORE.INTER.ROT>
7

>  <SCORE.INTER.SOLV>
8.9558

>  <SCORE.INTER.VDW>
-21.9718

>  <SCORE.INTER.norm>
-0.618452

>  <SCORE.INTRA>
-2.64158

>  <SCORE.INTRA.DIHEDRAL>
2.32538

>  <SCORE.INTRA.DIHEDRAL.0>
5.78979

>  <SCORE.INTRA.POLAR>
0

>  <SCORE.INTRA.POLAR.0>
0

>  <SCORE.INTRA.REPUL>
0

>  <SCORE.INTRA.REPUL.0>
0

>  <SCORE.INTRA.SOLV>
-0.651532

>  <SCORE.INTRA.SOLV.lig_0>
-49.9151

>  <SCORE.INTRA.VDW>
-3.47851

>  <SCORE.INTRA.VDW.0>
-0.211125

>  <SCORE.INTRA.norm>
-0.101599

>  <SCORE.RESTR>
0

>  <SCORE.RESTR.CAVITY>
0

>  <SCORE.RESTR.norm>
0

>  <SCORE.SYSTEM>
0

>  <SCORE.SYSTEM.CONST>
0

>  <SCORE.SYSTEM.DIHEDRAL>
0

>  <SCORE.SYSTEM.SOLV>
0

>  <SCORE.SYSTEM.norm>
0

>  <SCORE.heavy>
26

>  <SCORE.norm>
-0.720051

>  <RMSD>
6.624

$$$$
ligand
 OpenBabel11021811483D
libRbt.so/2013.1/901 2013/11/27
 26 28  0  0  0  0  0  0  0  0999 V2000
   48.4558   55.3352   29.3952 N   0  0  0  0  0  0  0  0  0  0  0  0
   49.5521   54.8133   30.2158 C   0  0  2  0  0  0  0  0  0  0  0  0
   50.1597   53.5088   29.6952 C   0  0  0  0  0  0  0  0  0  0  0  0
   49.4025   52.5643   29.4704 O   0  0  0  0  0  0  0  0  0  0  0  0
   49.2021   54.5825   31.6916 C   0  0  0  0  0  0  0  0  0  0  0  0
   48.9259   55.7494   32.6237 C   0  0  0  0  0  0  0  0  0  0  0  0
   48.5892   55.0383   34.2511 S   0  0  0  0  0  0  0  0  0  0  0  0
   46.8428   55.0437   33.7804 C   0  0  0  0  0  0  0  0  0  0  0  0
   45.8873   54.5776   34.8842 C   0  0  1  0  0  0  0  0  0  0  0  0
   44.5181   54.9041   34.6204 O   0  0  0  0  0  0  0  0  0  0  0  0
   45.9616   53.0682   35.0629 C   0  0  1  0  0  0  0  0  0  0  0  0
   46.9031   52.7129   36.0512 O   0  0  0  0  0  0  0  0  0  0  0  0
   44.5381   52.6546   35.4131 C   0  0  1  0  0  0  0  0  0  0  0  0
   44.3277   52.6409   36.8106 O   0  0  0  0  0  0  0  0  0  0  0  0
   43.6929   53.7696   34.8292 C   0  0  2  0  0  0  0  0  0  0  0  0
   51.3700   53.3697   29.4786 O   0  0  0  0  0  0  0  0  0  0  0  0
   40.8925   50.0578   32.3801 N   0  0  0  0  0  0  0  0  0  0  0  0
   41.3817   50.0452   33.6619 C   0  0  0  0  0  0  0  0  0  0  0  0
   42.1181   51.1143   34.1274 N   0  0  0  0  0  0  0  0  0  0  0  0
   42.3391   52.1943   33.3571 C   0  0  0  0  0  0  0  0  0  0  0  0
   41.8525   52.2275   32.0613 C   0  0  0  0  0  0  0  0  0  0  0  0
   41.1329   51.1499   31.5846 C   0  0  0  0  0  0  0  0  0  0  0  0
   40.6494   51.1654   30.3575 N   0  0  0  0  0  0  0  0  0  0  0  0
   42.2078   53.4068   31.5043 N   0  0  0  0  0  0  0  0  0  0  0  0
   42.9301   54.1057   32.4159 C   0  0  0  0  0  0  0  0  0  0  0  0
   43.0182   53.3647   33.5741 N   0  0  0  0  0  0  0  0  0  0  0  0
  2  1  1  6  0  0  0
  2  3  1  0  0  0  0
  2  5  1  0  0  0  0
  3  4  1  0  0  0  0
  3 16  1  0  0  0  0
  5  6  1  0  0  0  0
  6  7  1  0  0  0  0
  7  8  1  0  0  0  0
  9  8  1  6  0  0  0
  9 10  1  0  0  0  0
  9 11  1  0  0  0  0
 10 15  1  0  0  0  0
 11 12  1  1  0  0  0
 11 13  1  0  0  0  0
 13 14  1  1  0  0  0
 13 15  1  0  0  0  0
 15 26  1  6  0  0  0
 17 18  2  0  0  0  0
 17 22  1  0  0  0  0
 18 19  1  0  0  0  0
 19 20  2  0  0  0  0
 20 21  1  0  0  0  0
 20 26  1  0  0  0  0
 21 22  2  0  0  0  0
 21 24  1  0  0  0  0
 22 23  1  0  0  0  0
 24 25  2  0  0  0  0
 25 26  1  0  0  0  0
M  END
>  <CHROM.1>
-53.11594571,-68.57902960,-179.03677839,-92.03408332,-176.40425868,165.13237150
168.09647712,45.53208349,53.31257948,32.90581137,0.16265648,-0.37502882,-1.79305128

>  <Name>
ligand

>  <RI>
0

>  <Rbt.Current_Directory>
/home/itssahil/PROJECTS/Mol_Feturizer/New_Systems/rnas/3GX3

>  <Rbt.Executable>
rbdock ($Id: //depot/dev/client3/rdock/2013.1/src/exe/rbdock.cxx#4 $)

>  <Rbt.Library>
libRbt.so (2013.1, Build901 2013/11/27)

>  <Rbt.Parameter_File>
/export/apps/rDock/src/rDock_2013.1_src/data/scripts/dock_solv.prm

>  <Rbt.Receptor>
prm/pocket_docking_8.prm

>  <SCORE>
-14.2523

>  <SCORE.INTER>
-11.8262

>  <SCORE.INTER.CONST>
1

>  <SCORE.INTER.POLAR>
0

>  <SCORE.INTER.ROT>
7

>  <SCORE.INTER.SOLV>
8.7365

>  <SCORE.INTER.VDW>
-19.063

>  <SCORE.INTER.norm>
-0.454855

>  <SCORE.INTRA>
-2.42608

>  <SCORE.INTRA.DIHEDRAL>
-0.578333

>  <SCORE.INTRA.DIHEDRAL.0>
5.78979

>  <SCORE.INTRA.POLAR>
0

>  <SCORE.INTRA.POLAR.0>
0

>  <SCORE.INTRA.REPUL>
0

>  <SCORE.INTRA.REPUL.0>
0

>  <SCORE.INTRA.SOLV>
-0.435012

>  <SCORE.INTRA.SOLV.lig_0>
-49.9151

>  <SCORE.INTRA.VDW>
-1.91941

>  <SCORE.INTRA.VDW.0>
-0.211125

>  <SCORE.INTRA.norm>
-0.0933107

>  <SCORE.RESTR>
0

>  <SCORE.RESTR.CAVITY>
0

>  <SCORE.RESTR.norm>
0

>  <SCORE.SYSTEM>
0

>  <SCORE.SYSTEM.CONST>
0

>  <SCORE.SYSTEM.DIHEDRAL>
0

>  <SCORE.SYSTEM.SOLV>
0

>  <SCORE.SYSTEM.norm>
0

>  <SCORE.heavy>
26

>  <SCORE.norm>
-0.548166

>  <RMSD>
6.628

$$$$
ligand
 OpenBabel11021811483D
libRbt.so/2013.1/901 2013/11/27
 26 28  0  0  0  0  0  0  0  0999 V2000
   49.0815   59.0769   33.5912 N   0  0  0  0  0  0  0  0  0  0  0  0
   49.3879   58.1716   32.4801 C   0  0  2  0  0  0  0  0  0  0  0  0
   48.8655   58.6456   31.1221 C   0  0  0  0  0  0  0  0  0  0  0  0
   48.3817   59.7754   31.0479 O   0  0  0  0  0  0  0  0  0  0  0  0
   48.8971   56.7300   32.6664 C   0  0  0  0  0  0  0  0  0  0  0  0
   49.1964   55.9582   33.9397 C   0  0  0  0  0  0  0  0  0  0  0  0
   48.5809   54.2786   33.6790 S   0  0  0  0  0  0  0  0  0  0  0  0
   46.9382   54.9286   34.0668 C   0  0  0  0  0  0  0  0  0  0  0  0
   45.8393   53.8640   34.1529 C   0  0  1  0  0  0  0  0  0  0  0  0
   46.1155   52.8445   35.1199 O   0  0  0  0  0  0  0  0  0  0  0  0
   44.5058   54.4917   34.5320 C   0  0  1  0  0  0  0  0  0  0  0  0
   43.7563   54.8377   33.3883 O   0  0  0  0  0  0  0  0  0  0  0  0
   43.8243   53.4438   35.4023 C   0  0  1  0  0  0  0  0  0  0  0  0
   43.0088   52.5799   34.6366 O   0  0  0  0  0  0  0  0  0  0  0  0
   44.9816   52.6278   35.9438 C   0  0  2  0  0  0  0  0  0  0  0  0
   48.9222   57.9511   30.0997 O   0  0  0  0  0  0  0  0  0  0  0  0
   48.4542   54.6879   39.3075 N   0  0  0  0  0  0  0  0  0  0  0  0
   48.5677   54.5520   37.9469 C   0  0  0  0  0  0  0  0  0  0  0  0
   47.5490   53.9635   37.2273 N   0  0  0  0  0  0  0  0  0  0  0  0
   46.4213   53.5481   37.8310 C   0  0  0  0  0  0  0  0  0  0  0  0
   46.2864   53.6778   39.2028 C   0  0  0  0  0  0  0  0  0  0  0  0
   47.3130   54.2472   39.9295 C   0  0  0  0  0  0  0  0  0  0  0  0
   47.2007   54.3918   41.2357 N   0  0  0  0  0  0  0  0  0  0  0  0
   45.0775   53.1888   39.5588 N   0  0  0  0  0  0  0  0  0  0  0  0
   44.4595   52.7309   38.4409 C   0  0  0  0  0  0  0  0  0  0  0  0
   45.2827   52.9497   37.3581 N   0  0  0  0  0  0  0  0  0  0  0  0
  2  1  1  1  0  0  0
  2  3  1  0  0  0  0
  2  5  1  0  0  0  0
  3  4  1  0  0  0  0
  3 16  1  0  0  0  0
  5  6  1  0  0  0  0
  6  7  1  0  0  0  0
  7  8  1  0  0  0  0
  9  8  1  1  0  0  0
  9 10  1  0  0  0  0
  9 11  1  0  0  0  0
 10 15  1  0  0  0  0
 11 12  1  6  0  0  0
 11 13  1  0  0  0  0
 13 14  1  6  0  0  0
 13 15  1  0  0  0  0
 15 26  1  1  0  0  0
 17 18  2  0  0  0  0
 17 22  1  0  0  0  0
 18 19  1  0  0  0  0
 19 20  2  0  0  0  0
 20 21  1  0  0  0  0
 20 26  1  0  0  0  0
 21 22  2  0  0  0  0
 21 24  1  0  0  0  0
 22 23  1  0  0  0  0
 24 25  2  0  0  0  0
 25 26  1  0  0  0  0
M  END
>  <CHROM.1>
7.77061040,-50.10426733,-174.80574382,-80.01372721,-174.30129298,57.52585067
8.38883527,46.87764507,54.93215786,35.32795759,-1.13735301,0.61802222,1.90580199

>  <Name>
ligand

>  <RI>
0

>  <Rbt.Current_Directory>
/home/itssahil/PROJECTS/Mol_Feturizer/New_Systems/rnas/3GX3

>  <Rbt.Executable>
rbdock ($Id: //depot/dev/client3/rdock/2013.1/src/exe/rbdock.cxx#4 $)

>  <Rbt.Library>
libRbt.so (2013.1, Build901 2013/11/27)

>  <Rbt.Parameter_File>
/export/apps/rDock/src/rDock_2013.1_src/data/scripts/dock_solv.prm

>  <Rbt.Receptor>
prm/pocket_docking_8.prm

>  <SCORE>
-19.6136

>  <SCORE.INTER>
-16.8764

>  <SCORE.INTER.CONST>
1

>  <SCORE.INTER.POLAR>
0

>  <SCORE.INTER.ROT>
7

>  <SCORE.INTER.SOLV>
18.3516

>  <SCORE.INTER.VDW>
-25.6348

>  <SCORE.INTER.norm>
-0.649093

>  <SCORE.INTRA>
-2.73719

>  <SCORE.INTRA.DIHEDRAL>
-1.8981

>  <SCORE.INTRA.DIHEDRAL.0>
5.78979

>  <SCORE.INTRA.POLAR>
0

>  <SCORE.INTRA.POLAR.0>
0

>  <SCORE.INTRA.REPUL>
0

>  <SCORE.INTRA.REPUL.0>
0

>  <SCORE.INTRA.SOLV>
-0.374014

>  <SCORE.INTRA.SOLV.lig_0>
-49.9151

>  <SCORE.INTRA.VDW>
-1.60113

>  <SCORE.INTRA.VDW.0>
-0.211125

>  <SCORE.INTRA.norm>
-0.105277

>  <SCORE.RESTR>
0

>  <SCORE.RESTR.CAVITY>
0

>  <SCORE.RESTR.norm>
0

>  <SCORE.SYSTEM>
0

>  <SCORE.SYSTEM.CONST>
0

>  <SCORE.SYSTEM.DIHEDRAL>
0

>  <SCORE.SYSTEM.SOLV>
0

>  <SCORE.SYSTEM.norm>
0

>  <SCORE.heavy>
26

>  <SCORE.norm>
-0.75437

>  <RMSD>
6.638

$$$$
ligand
 OpenBabel11021811483D
libRbt.so/2013.1/901 2013/11/27
 26 28  0  0  0  0  0  0  0  0999 V2000
   48.4208   54.1155   33.3194 N   0  0  0  0  0  0  0  0  0  0  0  0
   49.0658   54.9450   34.3409 C   0  0  2  0  0  0  0  0  0  0  0  0
   48.6472   54.6131   35.7749 C   0  0  0  0  0  0  0  0  0  0  0  0
   47.7759   53.7595   35.9430 O   0  0  0  0  0  0  0  0  0  0  0  0
   48.8759   56.4567   34.1612 C   0  0  0  0  0  0  0  0  0  0  0  0
   49.3383   57.1602   32.8971 C   0  0  0  0  0  0  0  0  0  0  0  0
   48.8538   58.8934   33.0673 S   0  0  0  0  0  0  0  0  0  0  0  0
   48.8829   58.9742   31.2607 C   0  0  0  0  0  0  0  0  0  0  0  0
   47.5050   58.8652   30.5990 C   0  0  1  0  0  0  0  0  0  0  0  0
   47.5411   59.0730   29.1824 O   0  0  0  0  0  0  0  0  0  0  0  0
   46.8983   57.4896   30.8347 C   0  0  1  0  0  0  0  0  0  0  0  0
   46.0865   57.4762   31.9881 O   0  0  0  0  0  0  0  0  0  0  0  0
   46.1292   57.1871   29.5552 C   0  0  1  0  0  0  0  0  0  0  0  0
   44.7836   57.6104   29.6431 O   0  0  0  0  0  0  0  0  0  0  0  0
   46.8185   58.0501   28.5167 C   0  0  2  0  0  0  0  0  0  0  0  0
   49.1548   55.1527   36.7660 O   0  0  0  0  0  0  0  0  0  0  0  0
   51.1404   55.0775   28.1957 N   0  0  0  0  0  0  0  0  0  0  0  0
   50.6113   55.6899   29.3037 C   0  0  0  0  0  0  0  0  0  0  0  0
   49.4682   56.4527   29.1878 N   0  0  0  0  0  0  0  0  0  0  0  0
   48.8352   56.5817   28.0083 C   0  0  0  0  0  0  0  0  0  0  0  0
   49.3519   55.9704   26.8787 C   0  0  0  0  0  0  0  0  0  0  0  0
   50.5079   55.2232   26.9865 C   0  0  0  0  0  0  0  0  0  0  0  0
   51.0109   54.6220   25.9258 N   0  0  0  0  0  0  0  0  0  0  0  0
   48.5410   56.2525   25.8346 N   0  0  0  0  0  0  0  0  0  0  0  0
   47.5379   57.0502   26.2803 C   0  0  0  0  0  0  0  0  0  0  0  0
   47.7068   57.2618   27.6312 N   0  0  0  0  0  0  0  0  0  0  0  0
  2  1  1  6  0  0  0
  2  3  1  0  0  0  0
  2  5  1  0  0  0  0
  3  4  1  0  0  0  0
  3 16  1  0  0  0  0
  5  6  1  0  0  0  0
  6  7  1  0  0  0  0
  7  8  1  0  0  0  0
  9  8  1  6  0  0  0
  9 10  1  0  0  0  0
  9 11  1  0  0  0  0
 10 15  1  0  0  0  0
 11 12  1  1  0  0  0
 11 13  1  0  0  0  0
 13 14  1  1  0  0  0
 13 15  1  0  0  0  0
 15 26  1  1  0  0  0
 17 18  2  0  0  0  0
 17 22  1  0  0  0  0
 18 19  1  0  0  0  0
 19 20  2  0  0  0  0
 20 21  1  0  0  0  0
 20 26  1  0  0  0  0
 21 22  2  0  0  0  0
 21 24  1  0  0  0  0
 22 23  1  0  0  0  0
 24 25  2  0  0  0  0
 25 26  1  0  0  0  0
M  END
>  <CHROM.1>
-3.99892467,-58.85709916,177.30492075,-155.74068054,99.82586692,173.79676378
57.50533896,48.41484479,56.66574836,30.69652467,-1.62376499,0.83051241,-1.42825267

>  <Name>
ligand

>  <RI>
0

>  <Rbt.Current_Directory>
/home/itssahil/PROJECTS/Mol_Feturizer/New_Systems/rnas/3GX3

>  <Rbt.Executable>
rbdock ($Id: //depot/dev/client3/rdock/2013.1/src/exe/rbdock.cxx#4 $)

>  <Rbt.Library>
libRbt.so (2013.1, Build901 2013/11/27)

>  <Rbt.Parameter_File>
/export/apps/rDock/src/rDock_2013.1_src/data/scripts/dock_solv.prm

>  <Rbt.Receptor>
prm/pocket_docking_4.prm

>  <SCORE>
-20.6218

>  <SCORE.INTER>
-17.1899

>  <SCORE.INTER.CONST>
1

>  <SCORE.INTER.POLAR>
0

>  <SCORE.INTER.ROT>
7

>  <SCORE.INTER.SOLV>
11.6788

>  <SCORE.INTER.VDW>
-23.6195

>  <SCORE.INTER.norm>
-0.66115

>  <SCORE.INTRA>
-3.43189

>  <SCORE.INTRA.DIHEDRAL>
-0.173451

>  <SCORE.INTRA.DIHEDRAL.0>
5.78979

>  <SCORE.INTRA.POLAR>
0

>  <SCORE.INTRA.POLAR.0>
0

>  <SCORE.INTRA.REPUL>
0

>  <SCORE.INTRA.REPUL.0>
0

>  <SCORE.INTRA.SOLV>
0.129341

>  <SCORE.INTRA.SOLV.lig_0>
-49.9151

>  <SCORE.INTRA.VDW>
-3.40984

>  <SCORE.INTRA.VDW.0>
-0.211125

>  <SCORE.INTRA.norm>
-0.131996

>  <SCORE.RESTR>
0

>  <SCORE.RESTR.CAVITY>
0

>  <SCORE.RESTR.norm>
0

>  <SCORE.SYSTEM>
0

>  <SCORE.SYSTEM.CONST>
0

>  <SCORE.SYSTEM.DIHEDRAL>
0

>  <SCORE.SYSTEM.SOLV>
0

>  <SCORE.SYSTEM.norm>
0

>  <SCORE.heavy>
26

>  <SCORE.norm>
-0.793145

>  <RMSD>
6.649

$$$$
ligand
 OpenBabel11021811483D
libRbt.so/2013.1/901 2013/11/27
 26 28  0  0  0  0  0  0  0  0999 V2000
   48.5792   54.1300   33.3024 N   0  0  0  0  0  0  0  0  0  0  0  0
   49.0897   54.9669   34.3919 C   0  0  2  0  0  0  0  0  0  0  0  0
   48.5180   54.6219   35.7688 C   0  0  0  0  0  0  0  0  0  0  0  0
   49.0519   55.1192   36.7607 O   0  0  0  0  0  0  0  0  0  0  0  0
   48.8939   56.4757   34.1947 C   0  0  0  0  0  0  0  0  0  0  0  0
   49.4637   57.1882   32.9805 C   0  0  0  0  0  0  0  0  0  0  0  0
   48.8796   58.8967   33.0666 S   0  0  0  0  0  0  0  0  0  0  0  0
   48.9146   58.8935   31.2582 C   0  0  0  0  0  0  0  0  0  0  0  0
   47.5334   58.8302   30.5976 C   0  0  1  0  0  0  0  0  0  0  0  0
   47.5744   59.0435   29.1820 O   0  0  0  0  0  0  0  0  0  0  0  0
   46.8848   57.4728   30.8275 C   0  0  1  0  0  0  0  0  0  0  0  0
   46.0741   57.4788   31.9817 O   0  0  0  0  0  0  0  0  0  0  0  0
   46.1055   57.2003   29.5474 C   0  0  1  0  0  0  0  0  0  0  0  0
   44.7736   57.6644   29.6389 O   0  0  0  0  0  0  0  0  0  0  0  0
   46.8200   58.0466   28.5123 C   0  0  2  0  0  0  0  0  0  0  0  0
   47.5394   53.8810   35.9247 O   0  0  0  0  0  0  0  0  0  0  0  0
   51.0503   54.9472   28.1714 N   0  0  0  0  0  0  0  0  0  0  0  0
   50.5417   55.5706   29.2828 C   0  0  0  0  0  0  0  0  0  0  0  0
   49.4218   56.3678   29.1720 N   0  0  0  0  0  0  0  0  0  0  0  0
   48.7909   56.5205   27.9943 C   0  0  0  0  0  0  0  0  0  0  0  0
   49.2870   55.8985   26.8612 C   0  0  0  0  0  0  0  0  0  0  0  0
   50.4203   55.1166   26.9640 C   0  0  0  0  0  0  0  0  0  0  0  0
   50.9032   54.5048   25.9000 N   0  0  0  0  0  0  0  0  0  0  0  0
   48.4831   56.2089   25.8198 N   0  0  0  0  0  0  0  0  0  0  0  0
   47.5051   57.0346   26.2706 C   0  0  0  0  0  0  0  0  0  0  0  0
   47.6826   57.2356   27.6219 N   0  0  0  0  0  0  0  0  0  0  0  0
  2  1  1  6  0  0  0
  2  3  1  0  0  0  0
  2  5  1  0  0  0  0
  3  4  1  0  0  0  0
  3 16  1  0  0  0  0
  5  6  1  0  0  0  0
  6  7  1  0  0  0  0
  7  8  1  0  0  0  0
  9  8  1  6  0  0  0
  9 10  1  0  0  0  0
  9 11  1  0  0  0  0
 10 15  1  0  0  0  0
 11 12  1  1  0  0  0
 11 13  1  0  0  0  0
 13 14  1  1  0  0  0
 13 15  1  0  0  0  0
 15 26  1  1  0  0  0
 17 18  2  0  0  0  0
 17 22  1  0  0  0  0
 18 19  1  0  0  0  0
 19 20  2  0  0  0  0
 20 21  1  0  0  0  0
 20 26  1  0  0  0  0
 21 22  2  0  0  0  0
 21 24  1  0  0  0  0
 22 23  1  0  0  0  0
 24 25  2  0  0  0  0
 25 26  1  0  0  0  0
M  END
>  <CHROM.1>
168.13897542,-57.83924143,174.95920027,-149.11039120,106.27016884,170.59517368
57.42588539,48.39019667,56.64279848,30.69341275,-1.62606183,0.84715794,-1.44165703

>  <Name>
ligand

>  <RI>
0

>  <Rbt.Current_Directory>
/home/itssahil/PROJECTS/Mol_Feturizer/New_Systems/rnas/3GX3

>  <Rbt.Executable>
rbdock ($Id: //depot/dev/client3/rdock/2013.1/src/exe/rbdock.cxx#4 $)

>  <Rbt.Library>
libRbt.so (2013.1, Build901 2013/11/27)

>  <Rbt.Parameter_File>
/export/apps/rDock/src/rDock_2013.1_src/data/scripts/dock_solv.prm

>  <Rbt.Receptor>
prm/pocket_docking_4.prm

>  <SCORE>
-20.5294

>  <SCORE.INTER>
-17.3786

>  <SCORE.INTER.CONST>
1

>  <SCORE.INTER.POLAR>
0

>  <SCORE.INTER.ROT>
7

>  <SCORE.INTER.SOLV>
11.4999

>  <SCORE.INTER.VDW>
-23.6857

>  <SCORE.INTER.norm>
-0.668409

>  <SCORE.INTRA>
-3.15078

>  <SCORE.INTRA.DIHEDRAL>
0.775802

>  <SCORE.INTRA.DIHEDRAL.0>
5.78979

>  <SCORE.INTRA.POLAR>
0

>  <SCORE.INTRA.POLAR.0>
0

>  <SCORE.INTRA.REPUL>
0

>  <SCORE.INTRA.REPUL.0>
0

>  <SCORE.INTRA.SOLV>
0.0221954

>  <SCORE.INTRA.SOLV.lig_0>
-49.9151

>  <SCORE.INTRA.VDW>
-3.54978

>  <SCORE.INTRA.VDW.0>
-0.211125

>  <SCORE.INTRA.norm>
-0.121184

>  <SCORE.RESTR>
2.41333e-05

>  <SCORE.RESTR.CAVITY>
2.41333e-05

>  <SCORE.RESTR.norm>
9.28202e-07

>  <SCORE.SYSTEM>
0

>  <SCORE.SYSTEM.CONST>
0

>  <SCORE.SYSTEM.DIHEDRAL>
0

>  <SCORE.SYSTEM.SOLV>
0

>  <SCORE.SYSTEM.norm>
0

>  <SCORE.heavy>
26

>  <SCORE.norm>
-0.789592

>  <RMSD>
6.651

$$$$
ligand
 OpenBabel11021811483D
libRbt.so/2013.1/901 2013/11/27
 26 28  0  0  0  0  0  0  0  0999 V2000
   47.5581   53.3095   38.3370 N   0  0  0  0  0  0  0  0  0  0  0  0
   47.1121   53.7699   37.0191 C   0  0  2  0  0  0  0  0  0  0  0  0
   46.4204   52.6937   36.1794 C   0  0  0  0  0  0  0  0  0  0  0  0
   45.2546   52.8869   35.8333 O   0  0  0  0  0  0  0  0  0  0  0  0
   48.2122   54.3799   36.1408 C   0  0  0  0  0  0  0  0  0  0  0  0
   47.9918   54.6116   34.6560 C   0  0  0  0  0  0  0  0  0  0  0  0
   48.9684   56.0668   34.2128 S   0  0  0  0  0  0  0  0  0  0  0  0
   47.4662   56.7151   33.4416 C   0  0  0  0  0  0  0  0  0  0  0  0
   47.6571   58.0414   32.6981 C   0  0  1  0  0  0  0  0  0  0  0  0
   48.8304   58.0645   31.8772 O   0  0  0  0  0  0  0  0  0  0  0  0
   46.4698   58.3292   31.7906 C   0  0  1  0  0  0  0  0  0  0  0  0
   45.4956   59.1078   32.4495 O   0  0  0  0  0  0  0  0  0  0  0  0
   47.0754   59.0246   30.5784 C   0  0  1  0  0  0  0  0  0  0  0  0
   47.0833   60.4295   30.7328 O   0  0  0  0  0  0  0  0  0  0  0  0
   48.5156   58.5509   30.5827 C   0  0  2  0  0  0  0  0  0  0  0  0
   46.9847   51.6514   35.8241 O   0  0  0  0  0  0  0  0  0  0  0  0
   47.4073   56.8628   25.7309 N   0  0  0  0  0  0  0  0  0  0  0  0
   46.9035   57.9590   26.3844 C   0  0  0  0  0  0  0  0  0  0  0  0
   47.3036   58.2341   27.6752 N   0  0  0  0  0  0  0  0  0  0  0  0
   48.2119   57.4643   28.3005 C   0  0  0  0  0  0  0  0  0  0  0  0
   48.7337   56.3545   27.6579 C   0  0  0  0  0  0  0  0  0  0  0  0
   48.3197   56.0637   26.3733 C   0  0  0  0  0  0  0  0  0  0  0  0
   48.8129   55.0186   25.7377 N   0  0  0  0  0  0  0  0  0  0  0  0
   49.6132   55.7555   28.4915 N   0  0  0  0  0  0  0  0  0  0  0  0
   49.6361   56.4524   29.6556 C   0  0  0  0  0  0  0  0  0  0  0  0
   48.7708   57.5194   29.5506 N   0  0  0  0  0  0  0  0  0  0  0  0
  2  1  1  1  0  0  0
  2  3  1  0  0  0  0
  2  5  1  0  0  0  0
  3  4  1  0  0  0  0
  3 16  1  0  0  0  0
  5  6  1  0  0  0  0
  6  7  1  0  0  0  0
  7  8  1  0  0  0  0
  9  8  1  6  0  0  0
  9 10  1  0  0  0  0
  9 11  1  0  0  0  0
 10 15  1  0  0  0  0
 11 12  1  1  0  0  0
 11 13  1  0  0  0  0
 13 14  1  1  0  0  0
 13 15  1  0  0  0  0
 15 26  1  6  0  0  0
 17 18  2  0  0  0  0
 17 22  1  0  0  0  0
 18 19  1  0  0  0  0
 19 20  2  0  0  0  0
 20 21  1  0  0  0  0
 20 26  1  0  0  0  0
 21 22  2  0  0  0  0
 21 24  1  0  0  0  0
 22 23  1  0  0  0  0
 24 25  2  0  0  0  0
 25 26  1  0  0  0  0
M  END
>  <CHROM.1>
119.55891093,166.01136724,148.63591874,-129.41329083,-175.29473001,44.84070623
157.95061319,47.75159480,56.33658390,31.70253201,-2.02113653,1.36635081,-0.72451796

>  <Name>
ligand

>  <RI>
0

>  <Rbt.Current_Directory>
/home/itssahil/PROJECTS/Mol_Feturizer/New_Systems/rnas/3GX3

>  <Rbt.Executable>
rbdock ($Id: //depot/dev/client3/rdock/2013.1/src/exe/rbdock.cxx#4 $)

>  <Rbt.Library>
libRbt.so (2013.1, Build901 2013/11/27)

>  <Rbt.Parameter_File>
/export/apps/rDock/src/rDock_2013.1_src/data/scripts/dock_solv.prm

>  <Rbt.Receptor>
prm/pocket_docking_5.prm

>  <SCORE>
-18.0428

>  <SCORE.INTER>
-17.818

>  <SCORE.INTER.CONST>
1

>  <SCORE.INTER.POLAR>
0

>  <SCORE.INTER.ROT>
7

>  <SCORE.INTER.SOLV>
13.8936

>  <SCORE.INTER.VDW>
-24.7765

>  <SCORE.INTER.norm>
-0.685309

>  <SCORE.INTRA>
-0.224759

>  <SCORE.INTRA.DIHEDRAL>
3.78092

>  <SCORE.INTRA.DIHEDRAL.0>
5.78979

>  <SCORE.INTRA.POLAR>
0

>  <SCORE.INTRA.POLAR.0>
0

>  <SCORE.INTRA.REPUL>
0

>  <SCORE.INTRA.REPUL.0>
0

>  <SCORE.INTRA.SOLV>
-1.10294

>  <SCORE.INTRA.SOLV.lig_0>
-49.9151

>  <SCORE.INTRA.VDW>
-1.56375

>  <SCORE.INTRA.VDW.0>
-0.211125

>  <SCORE.INTRA.norm>
-0.00864456

>  <SCORE.RESTR>
0

>  <SCORE.RESTR.CAVITY>
0

>  <SCORE.RESTR.norm>
0

>  <SCORE.SYSTEM>
0

>  <SCORE.SYSTEM.CONST>
0

>  <SCORE.SYSTEM.DIHEDRAL>
0

>  <SCORE.SYSTEM.SOLV>
0

>  <SCORE.SYSTEM.norm>
0

>  <SCORE.heavy>
26

>  <SCORE.norm>
-0.693953

>  <RMSD>
6.664

$$$$
ligand
 OpenBabel11021811483D
libRbt.so/2013.1/901 2013/11/27
 26 28  0  0  0  0  0  0  0  0999 V2000
   44.4471   53.6959   35.9461 N   0  0  0  0  0  0  0  0  0  0  0  0
   43.4186   53.2883   34.9849 C   0  0  2  0  0  0  0  0  0  0  0  0
   42.9311   51.8484   35.1603 C   0  0  0  0  0  0  0  0  0  0  0  0
   43.3911   51.1888   36.0927 O   0  0  0  0  0  0  0  0  0  0  0  0
   43.8117   53.4479   33.5106 C   0  0  0  0  0  0  0  0  0  0  0  0
   43.7813   54.8071   32.8337 C   0  0  0  0  0  0  0  0  0  0  0  0
   44.9184   55.8664   33.7571 S   0  0  0  0  0  0  0  0  0  0  0  0
   44.6643   57.0995   32.4585 C   0  0  0  0  0  0  0  0  0  0  0  0
   45.6191   58.2963   32.5252 C   0  0  1  0  0  0  0  0  0  0  0  0
   46.9977   57.9152   32.5977 O   0  0  0  0  0  0  0  0  0  0  0  0
   45.4631   59.1826   31.2980 C   0  0  1  0  0  0  0  0  0  0  0  0
   44.5281   60.2141   31.5238 O   0  0  0  0  0  0  0  0  0  0  0  0
   46.8691   59.6970   31.0174 C   0  0  1  0  0  0  0  0  0  0  0  0
   47.1135   60.9280   31.6676 O   0  0  0  0  0  0  0  0  0  0  0  0
   47.7616   58.6514   31.6564 C   0  0  2  0  0  0  0  0  0  0  0  0
   42.0890   51.3280   34.4180 O   0  0  0  0  0  0  0  0  0  0  0  0
   47.9705   57.2392   26.5988 N   0  0  0  0  0  0  0  0  0  0  0  0
   47.1825   58.2001   27.1803 C   0  0  0  0  0  0  0  0  0  0  0  0
   47.2544   58.4180   28.5402 N   0  0  0  0  0  0  0  0  0  0  0  0
   48.1135   57.7273   29.3104 C   0  0  0  0  0  0  0  0  0  0  0  0
   48.9187   56.7545   28.7429 C   0  0  0  0  0  0  0  0  0  0  0  0
   48.8344   56.5187   27.3851 C   0  0  0  0  0  0  0  0  0  0  0  0
   49.6008   55.6053   26.8213 N   0  0  0  0  0  0  0  0  0  0  0  0
   49.6805   56.2113   29.7184 N   0  0  0  0  0  0  0  0  0  0  0  0
   49.3523   56.8059   30.8932 C   0  0  0  0  0  0  0  0  0  0  0  0
   48.3802   57.7526   30.6545 N   0  0  0  0  0  0  0  0  0  0  0  0
  2  1  1  1  0  0  0
  2  3  1  0  0  0  0
  2  5  1  0  0  0  0
  3  4  1  0  0  0  0
  3 16  1  0  0  0  0
  5  6  1  0  0  0  0
  6  7  1  0  0  0  0
  7  8  1  0  0  0  0
  9  8  1  6  0  0  0
  9 10  1  0  0  0  0
  9 11  1  0  0  0  0
 10 15  1  0  0  0  0
 11 12  1  1  0  0  0
 11 13  1  0  0  0  0
 13 14  1  1  0  0  0
 13 15  1  0  0  0  0
 15 26  1  6  0  0  0
 17 18  2  0  0  0  0
 17 22  1  0  0  0  0
 18 19  1  0  0  0  0
 19 20  2  0  0  0  0
 20 21  1  0  0  0  0
 20 26  1  0  0  0  0
 21 22  2  0  0  0  0
 21 24  1  0  0  0  0
 22 23  1  0  0  0  0
 24 25  2  0  0  0  0
 25 26  1  0  0  0  0
M  END
>  <CHROM.1>
2.52985249,-78.10117999,59.60547226,172.34325300,-169.85160568,51.92536202
115.50936721,46.13378524,56.44141556,31.63624416,2.61441989,-0.93125490,-3.06098238

>  <Name>
ligand

>  <RI>
0

>  <Rbt.Current_Directory>
/home/itssahil/PROJECTS/Mol_Feturizer/New_Systems/rnas/3GX3

>  <Rbt.Executable>
rbdock ($Id: //depot/dev/client3/rdock/2013.1/src/exe/rbdock.cxx#4 $)

>  <Rbt.Library>
libRbt.so (2013.1, Build901 2013/11/27)

>  <Rbt.Parameter_File>
/export/apps/rDock/src/rDock_2013.1_src/data/scripts/dock_solv.prm

>  <Rbt.Receptor>
prm/pocket_docking_7.prm

>  <SCORE>
-16.8693

>  <SCORE.INTER>
-14.9481

>  <SCORE.INTER.CONST>
1

>  <SCORE.INTER.POLAR>
0

>  <SCORE.INTER.ROT>
7

>  <SCORE.INTER.SOLV>
14.3003

>  <SCORE.INTER.VDW>
-22.9989

>  <SCORE.INTER.norm>
-0.574928

>  <SCORE.INTRA>
-1.92113

>  <SCORE.INTRA.DIHEDRAL>
-1.25878

>  <SCORE.INTRA.DIHEDRAL.0>
5.78979

>  <SCORE.INTRA.POLAR>
0

>  <SCORE.INTRA.POLAR.0>
0

>  <SCORE.INTRA.REPUL>
0

>  <SCORE.INTRA.REPUL.0>
0

>  <SCORE.INTRA.SOLV>
0.620399

>  <SCORE.INTRA.SOLV.lig_0>
-49.9151

>  <SCORE.INTRA.VDW>
-1.60194

>  <SCORE.INTRA.VDW.0>
-0.211125

>  <SCORE.INTRA.norm>
-0.0738897

>  <SCORE.RESTR>
0

>  <SCORE.RESTR.CAVITY>
0

>  <SCORE.RESTR.norm>
0

>  <SCORE.SYSTEM>
0

>  <SCORE.SYSTEM.CONST>
0

>  <SCORE.SYSTEM.DIHEDRAL>
0

>  <SCORE.SYSTEM.SOLV>
0

>  <SCORE.SYSTEM.norm>
0

>  <SCORE.heavy>
26

>  <SCORE.norm>
-0.648818

>  <RMSD>
6.670

$$$$
ligand
 OpenBabel11021811483D
libRbt.so/2013.1/901 2013/11/27
 26 28  0  0  0  0  0  0  0  0999 V2000
   47.6302   54.1325   33.4878 N   0  0  0  0  0  0  0  0  0  0  0  0
   48.6168   54.6208   34.4553 C   0  0  2  0  0  0  0  0  0  0  0  0
   48.2018   54.4451   35.9177 C   0  0  0  0  0  0  0  0  0  0  0  0
   47.1467   53.8566   36.1554 O   0  0  0  0  0  0  0  0  0  0  0  0
   49.0205   56.0907   34.2815 C   0  0  0  0  0  0  0  0  0  0  0  0
   49.8299   56.5446   33.0792 C   0  0  0  0  0  0  0  0  0  0  0  0
   48.6931   56.5682   31.6739 S   0  0  0  0  0  0  0  0  0  0  0  0
   48.9732   58.3538   31.6066 C   0  0  0  0  0  0  0  0  0  0  0  0
   47.9025   59.1350   30.8374 C   0  0  1  0  0  0  0  0  0  0  0  0
   47.7948   58.7425   29.4643 O   0  0  0  0  0  0  0  0  0  0  0  0
   46.5315   58.9392   31.4682 C   0  0  1  0  0  0  0  0  0  0  0  0
   46.2524   59.9463   32.4155 O   0  0  0  0  0  0  0  0  0  0  0  0
   45.5658   58.9382   30.2903 C   0  0  1  0  0  0  0  0  0  0  0  0
   45.0708   60.2343   30.0207 O   0  0  0  0  0  0  0  0  0  0  0  0
   46.4364   58.5232   29.1206 C   0  0  2  0  0  0  0  0  0  0  0  0
   48.8849   54.8542   36.8648 O   0  0  0  0  0  0  0  0  0  0  0  0
   47.1453   54.8641   25.4157 N   0  0  0  0  0  0  0  0  0  0  0  0
   47.5320   56.1804   25.3942 C   0  0  0  0  0  0  0  0  0  0  0  0
   47.2384   57.0008   26.4632 N   0  0  0  0  0  0  0  0  0  0  0  0
   46.6068   56.5258   27.5512 C   0  0  0  0  0  0  0  0  0  0  0  0
   46.2098   55.2001   27.5935 C   0  0  0  0  0  0  0  0  0  0  0  0
   46.4831   54.3808   26.5163 C   0  0  0  0  0  0  0  0  0  0  0  0
   46.1250   53.1116   26.5402 N   0  0  0  0  0  0  0  0  0  0  0  0
   45.6015   54.9765   28.7797 N   0  0  0  0  0  0  0  0  0  0  0  0
   45.5855   56.1421   29.4744 C   0  0  0  0  0  0  0  0  0  0  0  0
   46.2093   57.1142   28.7234 N   0  0  0  0  0  0  0  0  0  0  0  0
  2  1  1  6  0  0  0
  2  3  1  0  0  0  0
  2  5  1  0  0  0  0
  3  4  1  0  0  0  0
  3 16  1  0  0  0  0
  5  6  1  0  0  0  0
  6  7  1  0  0  0  0
  7  8  1  0  0  0  0
  9  8  1  1  0  0  0
  9 10  1  0  0  0  0
  9 11  1  0  0  0  0
 10 15  1  0  0  0  0
 11 12  1  1  0  0  0
 11 13  1  0  0  0  0
 13 14  1  6  0  0  0
 13 15  1  0  0  0  0
 15 26  1  1  0  0  0
 17 18  2  0  0  0  0
 17 22  1  0  0  0  0
 18 19  1  0  0  0  0
 19 20  2  0  0  0  0
 20 21  1  0  0  0  0
 20 26  1  0  0  0  0
 21 22  2  0  0  0  0
 21 24  1  0  0  0  0
 22 23  1  0  0  0  0
 24 25  2  0  0  0  0
 25 26  1  0  0  0  0
M  END
>  <CHROM.1>
4.12269571,-68.71623877,75.06719315,116.21409622,-160.96005083,-60.69391424
-73.21619240,47.28712659,56.55877211,30.69131658,-0.41843500,1.32225660,-2.61089205

>  <Name>
ligand

>  <RI>
0

>  <Rbt.Current_Directory>
/home/itssahil/PROJECTS/Mol_Feturizer/New_Systems/rnas/3GX3

>  <Rbt.Executable>
rbdock ($Id: //depot/dev/client3/rdock/2013.1/src/exe/rbdock.cxx#4 $)

>  <Rbt.Library>
libRbt.so (2013.1, Build901 2013/11/27)

>  <Rbt.Parameter_File>
/export/apps/rDock/src/rDock_2013.1_src/data/scripts/dock_solv.prm

>  <Rbt.Receptor>
prm/pocket_docking_4.prm

>  <SCORE>
-13.811

>  <SCORE.INTER>
-12.3546

>  <SCORE.INTER.CONST>
1

>  <SCORE.INTER.POLAR>
0

>  <SCORE.INTER.ROT>
7

>  <SCORE.INTER.SOLV>
12.0412

>  <SCORE.INTER.VDW>
-20.5168

>  <SCORE.INTER.norm>
-0.475177

>  <SCORE.INTRA>
-1.45635

>  <SCORE.INTRA.DIHEDRAL>
1.04525

>  <SCORE.INTRA.DIHEDRAL.0>
5.78979

>  <SCORE.INTRA.POLAR>
0

>  <SCORE.INTRA.POLAR.0>
0

>  <SCORE.INTRA.REPUL>
0

>  <SCORE.INTRA.REPUL.0>
0

>  <SCORE.INTRA.SOLV>
0.810564

>  <SCORE.INTRA.SOLV.lig_0>
-49.9151

>  <SCORE.INTRA.VDW>
-2.38426

>  <SCORE.INTRA.VDW.0>
-0.211125

>  <SCORE.INTRA.norm>
-0.0560135

>  <SCORE.RESTR>
0

>  <SCORE.RESTR.CAVITY>
0

>  <SCORE.RESTR.norm>
0

>  <SCORE.SYSTEM>
0

>  <SCORE.SYSTEM.CONST>
0

>  <SCORE.SYSTEM.DIHEDRAL>
0

>  <SCORE.SYSTEM.SOLV>
0

>  <SCORE.SYSTEM.norm>
0

>  <SCORE.heavy>
26

>  <SCORE.norm>
-0.531191

>  <RMSD>
6.672

$$$$
ligand
 OpenBabel11021811483D
libRbt.so/2013.1/901 2013/11/27
 26 28  0  0  0  0  0  0  0  0999 V2000
   47.1656   58.7960   30.0426 N   0  0  0  0  0  0  0  0  0  0  0  0
   46.0321   59.4791   30.6720 C   0  0  2  0  0  0  0  0  0  0  0  0
   46.4300   60.5120   31.7287 C   0  0  0  0  0  0  0  0  0  0  0  0
   47.4161   60.2777   32.4277 O   0  0  0  0  0  0  0  0  0  0  0  0
   44.9990   58.5513   31.3244 C   0  0  0  0  0  0  0  0  0  0  0  0
   45.4191   57.4959   32.3325 C   0  0  0  0  0  0  0  0  0  0  0  0
   43.9631   56.4690   32.6380 S   0  0  0  0  0  0  0  0  0  0  0  0
   45.0797   55.3071   33.4593 C   0  0  0  0  0  0  0  0  0  0  0  0
   44.4557   53.9435   33.7745 C   0  0  1  0  0  0  0  0  0  0  0  0
   45.3303   53.0784   34.5079 O   0  0  0  0  0  0  0  0  0  0  0  0
   43.1888   54.1058   34.6018 C   0  0  1  0  0  0  0  0  0  0  0  0
   42.0441   54.1783   33.7810 O   0  0  0  0  0  0  0  0  0  0  0  0
   43.1844   52.9011   35.5339 C   0  0  1  0  0  0  0  0  0  0  0  0
   42.4785   51.8117   34.9748 O   0  0  0  0  0  0  0  0  0  0  0  0
   44.6473   52.5118   35.6143 C   0  0  2  0  0  0  0  0  0  0  0  0
   45.8147   61.5720   31.8986 O   0  0  0  0  0  0  0  0  0  0  0  0
   48.8402   54.6773   37.9270 N   0  0  0  0  0  0  0  0  0  0  0  0
   48.6377   54.4344   36.5918 C   0  0  0  0  0  0  0  0  0  0  0  0
   47.4689   53.8351   36.1715 N   0  0  0  0  0  0  0  0  0  0  0  0
   46.4994   53.5128   37.0459 C   0  0  0  0  0  0  0  0  0  0  0  0
   46.6833   53.7512   38.3972 C   0  0  0  0  0  0  0  0  0  0  0  0
   47.8610   54.3317   38.8243 C   0  0  0  0  0  0  0  0  0  0  0  0
   48.0523   54.5792   40.1056 N   0  0  0  0  0  0  0  0  0  0  0  0
   45.5766   53.3402   39.0555 N   0  0  0  0  0  0  0  0  0  0  0  0
   44.7101   52.8246   38.1474 C   0  0  0  0  0  0  0  0  0  0  0  0
   45.2698   52.9272   36.8927 N   0  0  0  0  0  0  0  0  0  0  0  0
  2  1  1  1  0  0  0
  2  3  1  0  0  0  0
  2  5  1  0  0  0  0
  3  4  1  0  0  0  0
  3 16  1  0  0  0  0
  5  6  1  0  0  0  0
  6  7  1  0  0  0  0
  7  8  1  0  0  0  0
  9  8  1  1  0  0  0
  9 10  1  0  0  0  0
  9 11  1  0  0  0  0
 10 15  1  0  0  0  0
 11 12  1  6  0  0  0
 11 13  1  0  0  0  0
 13 14  1  6  0  0  0
 13 15  1  0  0  0  0
 15 26  1  1  0  0  0
 17 18  2  0  0  0  0
 17 22  1  0  0  0  0
 18 19  1  0  0  0  0
 19 20  2  0  0  0  0
 20 21  1  0  0  0  0
 20 26  1  0  0  0  0
 21 22  2  0  0  0  0
 21 24  1  0  0  0  0
 22 23  1  0  0  0  0
 24 25  2  0  0  0  0
 25 26  1  0  0  0  0
M  END
>  <CHROM.1>
-35.10308505,52.71686357,-171.02812366,167.43507005,-168.64705211,-175.82892417
-14.19721258,45.53526466,55.45468980,34.74511305,-1.57601481,0.64269685,2.36351923

>  <Name>
ligand

>  <RI>
0

>  <Rbt.Current_Directory>
/home/itssahil/PROJECTS/Mol_Feturizer/New_Systems/rnas/3GX3

>  <Rbt.Executable>
rbdock ($Id: //depot/dev/client3/rdock/2013.1/src/exe/rbdock.cxx#4 $)

>  <Rbt.Library>
libRbt.so (2013.1, Build901 2013/11/27)

>  <Rbt.Parameter_File>
/export/apps/rDock/src/rDock_2013.1_src/data/scripts/dock_solv.prm

>  <Rbt.Receptor>
prm/pocket_docking_6.prm

>  <SCORE>
-21.2185

>  <SCORE.INTER>
-18.0014

>  <SCORE.INTER.CONST>
1

>  <SCORE.INTER.POLAR>
0

>  <SCORE.INTER.ROT>
7

>  <SCORE.INTER.SOLV>
16.2558

>  <SCORE.INTER.VDW>
-25.6862

>  <SCORE.INTER.norm>
-0.692362

>  <SCORE.INTRA>
-3.22569

>  <SCORE.INTRA.DIHEDRAL>
-1.87241

>  <SCORE.INTRA.DIHEDRAL.0>
5.78979

>  <SCORE.INTRA.POLAR>
0

>  <SCORE.INTRA.POLAR.0>
0

>  <SCORE.INTRA.REPUL>
0

>  <SCORE.INTRA.REPUL.0>
0

>  <SCORE.INTRA.SOLV>
-0.248543

>  <SCORE.INTRA.SOLV.lig_0>
-49.9151

>  <SCORE.INTRA.VDW>
-2.16521

>  <SCORE.INTRA.VDW.0>
-0.211125

>  <SCORE.INTRA.norm>
-0.124065

>  <SCORE.RESTR>
0.00858433

>  <SCORE.RESTR.CAVITY>
0.00858433

>  <SCORE.RESTR.norm>
0.000330166

>  <SCORE.SYSTEM>
0

>  <SCORE.SYSTEM.CONST>
0

>  <SCORE.SYSTEM.DIHEDRAL>
0

>  <SCORE.SYSTEM.SOLV>
0

>  <SCORE.SYSTEM.norm>
0

>  <SCORE.heavy>
26

>  <SCORE.norm>
-0.816097

>  <RMSD>
6.673

$$$$
ligand
 OpenBabel11021811483D
libRbt.so/2013.1/901 2013/11/27
 26 28  0  0  0  0  0  0  0  0999 V2000
   46.2393   59.6103   31.6412 N   0  0  0  0  0  0  0  0  0  0  0  0
   47.4023   58.9557   32.2468 C   0  0  2  0  0  0  0  0  0  0  0  0
   48.7099   59.1643   31.4798 C   0  0  0  0  0  0  0  0  0  0  0  0
   48.6857   59.0661   30.2527 O   0  0  0  0  0  0  0  0  0  0  0  0
   47.2523   57.4448   32.4667 C   0  0  0  0  0  0  0  0  0  0  0  0
   46.0544   56.8751   33.2063 C   0  0  0  0  0  0  0  0  0  0  0  0
   46.3447   55.0977   33.3622 S   0  0  0  0  0  0  0  0  0  0  0  0
   44.5604   54.9299   33.6061 C   0  0  0  0  0  0  0  0  0  0  0  0
   44.1095   53.5336   34.0479 C   0  0  1  0  0  0  0  0  0  0  0  0
   45.1131   52.8220   34.7811 O   0  0  0  0  0  0  0  0  0  0  0  0
   42.8791   53.6186   34.9394 C   0  0  1  0  0  0  0  0  0  0  0  0
   41.6906   53.5091   34.1879 O   0  0  0  0  0  0  0  0  0  0  0  0
   43.0589   52.4904   35.9469 C   0  0  1  0  0  0  0  0  0  0  0  0
   42.4489   51.2945   35.5051 O   0  0  0  0  0  0  0  0  0  0  0  0
   44.5582   52.2665   35.9622 C   0  0  2  0  0  0  0  0  0  0  0  0
   49.7799   59.4402   32.0366 O   0  0  0  0  0  0  0  0  0  0  0  0
   48.7813   54.7018   37.9251 N   0  0  0  0  0  0  0  0  0  0  0  0
   48.5591   54.2956   36.6335 C   0  0  0  0  0  0  0  0  0  0  0  0
   47.3853   53.6488   36.3084 N   0  0  0  0  0  0  0  0  0  0  0  0
   46.4297   53.4371   37.2306 C   0  0  0  0  0  0  0  0  0  0  0  0
   46.6336   53.8408   38.5391 C   0  0  0  0  0  0  0  0  0  0  0  0
   47.8165   54.4698   38.8731 C   0  0  0  0  0  0  0  0  0  0  0  0
   48.0267   54.8738   40.1109 N   0  0  0  0  0  0  0  0  0  0  0  0
   45.5378   53.5143   39.2601 N   0  0  0  0  0  0  0  0  0  0  0  0
   44.6586   52.8902   38.4360 C   0  0  0  0  0  0  0  0  0  0  0  0
   45.1991   52.8369   37.1698 N   0  0  0  0  0  0  0  0  0  0  0  0
  2  1  1  6  0  0  0
  2  3  1  0  0  0  0
  2  5  1  0  0  0  0
  3  4  1  0  0  0  0
  3 16  1  0  0  0  0
  5  6  1  0  0  0  0
  6  7  1  0  0  0  0
  7  8  1  0  0  0  0
  9  8  1  1  0  0  0
  9 10  1  0  0  0  0
  9 11  1  0  0  0  0
 10 15  1  0  0  0  0
 11 12  1  6  0  0  0
 11 13  1  0  0  0  0
 13 14  1  6  0  0  0
 13 15  1  0  0  0  0
 15 26  1  1  0  0  0
 17 18  2  0  0  0  0
 17 22  1  0  0  0  0
 18 19  1  0  0  0  0
 19 20  2  0  0  0  0
 20 21  1  0  0  0  0
 20 26  1  0  0  0  0
 21 22  2  0  0  0  0
 21 24  1  0  0  0  0
 22 23  1  0  0  0  0
 24 25  2  0  0  0  0
 25 26  1  0  0  0  0
M  END
>  <CHROM.1>
-43.29398337,-52.31235916,-175.25619628,-159.11345139,-170.50465345,27.93726408
-21.57267332,46.06075054,54.98072882,35.05226752,1.12160177,-0.57664898,-1.01715018

>  <Name>
ligand

>  <RI>
0

>  <Rbt.Current_Directory>
/home/itssahil/PROJECTS/Mol_Feturizer/New_Systems/rnas/3GX3

>  <Rbt.Executable>
rbdock ($Id: //depot/dev/client3/rdock/2013.1/src/exe/rbdock.cxx#4 $)

>  <Rbt.Library>
libRbt.so (2013.1, Build901 2013/11/27)

>  <Rbt.Parameter_File>
/export/apps/rDock/src/rDock_2013.1_src/data/scripts/dock_solv.prm

>  <Rbt.Receptor>
prm/pocket_docking_6.prm

>  <SCORE>
-17.7435

>  <SCORE.INTER>
-15.6564

>  <SCORE.INTER.CONST>
1

>  <SCORE.INTER.POLAR>
0

>  <SCORE.INTER.ROT>
7

>  <SCORE.INTER.SOLV>
16.1642

>  <SCORE.INTER.VDW>
-24.0923

>  <SCORE.INTER.norm>
-0.60217

>  <SCORE.INTRA>
-2.14762

>  <SCORE.INTRA.DIHEDRAL>
1.08703

>  <SCORE.INTRA.DIHEDRAL.0>
5.78979

>  <SCORE.INTRA.POLAR>
0

>  <SCORE.INTRA.POLAR.0>
0

>  <SCORE.INTRA.REPUL>
0

>  <SCORE.INTRA.REPUL.0>
0

>  <SCORE.INTRA.SOLV>
-0.341224

>  <SCORE.INTRA.SOLV.lig_0>
-49.9151

>  <SCORE.INTRA.VDW>
-2.52052

>  <SCORE.INTRA.VDW.0>
-0.211125

>  <SCORE.INTRA.norm>
-0.0826007

>  <SCORE.RESTR>
0.0604973

>  <SCORE.RESTR.CAVITY>
0.0604973

>  <SCORE.RESTR.norm>
0.00232682

>  <SCORE.SYSTEM>
0

>  <SCORE.SYSTEM.CONST>
0

>  <SCORE.SYSTEM.DIHEDRAL>
0

>  <SCORE.SYSTEM.SOLV>
0

>  <SCORE.SYSTEM.norm>
0

>  <SCORE.heavy>
26

>  <SCORE.norm>
-0.682444

>  <RMSD>
6.675

$$$$
ligand
 OpenBabel11021811483D
libRbt.so/2013.1/901 2013/11/27
 26 28  0  0  0  0  0  0  0  0999 V2000
   45.7190   57.9886   29.9509 N   0  0  0  0  0  0  0  0  0  0  0  0
   45.8221   57.5964   31.3592 C   0  0  2  0  0  0  0  0  0  0  0  0
   44.8813   58.3602   32.2937 C   0  0  0  0  0  0  0  0  0  0  0  0
   44.7203   59.5652   32.0982 O   0  0  0  0  0  0  0  0  0  0  0  0
   47.2297   57.7054   31.9595 C   0  0  0  0  0  0  0  0  0  0  0  0
   47.5616   57.0729   33.2999 C   0  0  0  0  0  0  0  0  0  0  0  0
   47.4649   55.2836   33.0615 S   0  0  0  0  0  0  0  0  0  0  0  0
   45.8223   55.3738   33.8133 C   0  0  0  0  0  0  0  0  0  0  0  0
   45.1181   54.0210   33.9622 C   0  0  1  0  0  0  0  0  0  0  0  0
   45.7962   53.1266   34.8518 O   0  0  0  0  0  0  0  0  0  0  0  0
   43.7058   54.2018   34.4992 C   0  0  1  0  0  0  0  0  0  0  0  0
   42.7673   54.3113   33.4520 O   0  0  0  0  0  0  0  0  0  0  0  0
   43.4761   52.9855   35.3869 C   0  0  1  0  0  0  0  0  0  0  0  0
   42.8865   51.9201   34.6695 O   0  0  0  0  0  0  0  0  0  0  0  0
   44.8791   52.5615   35.7744 C   0  0  2  0  0  0  0  0  0  0  0  0
   44.2687   57.8180   33.2220 O   0  0  0  0  0  0  0  0  0  0  0  0
   48.4858   54.6683   38.9637 N   0  0  0  0  0  0  0  0  0  0  0  0
   48.5683   54.4574   37.6104 C   0  0  0  0  0  0  0  0  0  0  0  0
   47.5159   53.8692   36.9408 N   0  0  0  0  0  0  0  0  0  0  0  0
   46.3862   53.5268   37.5850 C   0  0  0  0  0  0  0  0  0  0  0  0
   46.2823   53.7327   38.9502 C   0  0  0  0  0  0  0  0  0  0  0  0
   47.3420   54.3020   39.6278 C   0  0  0  0  0  0  0  0  0  0  0  0
   47.2599   54.5187   40.9262 N   0  0  0  0  0  0  0  0  0  0  0  0
   45.0641   53.3069   39.3525 N   0  0  0  0  0  0  0  0  0  0  0  0
   44.4090   52.8137   38.2712 C   0  0  0  0  0  0  0  0  0  0  0  0
   45.2185   52.9458   37.1642 N   0  0  0  0  0  0  0  0  0  0  0  0
  2  1  1  6  0  0  0
  2  3  1  0  0  0  0
  2  5  1  0  0  0  0
  3  4  1  0  0  0  0
  3 16  1  0  0  0  0
  5  6  1  0  0  0  0
  6  7  1  0  0  0  0
  7  8  1  0  0  0  0
  9  8  1  1  0  0  0
  9 10  1  0  0  0  0
  9 11  1  0  0  0  0
 10 15  1  0  0  0  0
 11 12  1  6  0  0  0
 11 13  1  0  0  0  0
 13 14  1  6  0  0  0
 13 15  1  0  0  0  0
 15 26  1  1  0  0  0
 17 18  2  0  0  0  0
 17 22  1  0  0  0  0
 18 19  1  0  0  0  0
 19 20  2  0  0  0  0
 20 21  1  0  0  0  0
 20 26  1  0  0  0  0
 21 22  2  0  0  0  0
 21 24  1  0  0  0  0
 22 23  1  0  0  0  0
 24 25  2  0  0  0  0
 25 26  1  0  0  0  0
M  END
>  <CHROM.1>
-39.87777129,-167.17063194,67.23809758,-99.82522463,-178.30289103,64.06423496
-12.71920741,45.75405790,54.97426450,35.14275201,-1.68354425,0.63014686,2.17620627

>  <Name>
ligand

>  <RI>
0

>  <Rbt.Current_Directory>
/home/itssahil/PROJECTS/Mol_Feturizer/New_Systems/rnas/3GX3

>  <Rbt.Executable>
rbdock ($Id: //depot/dev/client3/rdock/2013.1/src/exe/rbdock.cxx#4 $)

>  <Rbt.Library>
libRbt.so (2013.1, Build901 2013/11/27)

>  <Rbt.Parameter_File>
/export/apps/rDock/src/rDock_2013.1_src/data/scripts/dock_solv.prm

>  <Rbt.Receptor>
prm/pocket_docking_8.prm

>  <SCORE>
-17.9207

>  <SCORE.INTER>
-14.5077

>  <SCORE.INTER.CONST>
1

>  <SCORE.INTER.POLAR>
0

>  <SCORE.INTER.ROT>
7

>  <SCORE.INTER.SOLV>
12.0943

>  <SCORE.INTER.VDW>
-21.9699

>  <SCORE.INTER.norm>
-0.557989

>  <SCORE.INTRA>
-3.41295

>  <SCORE.INTRA.DIHEDRAL>
-0.314777

>  <SCORE.INTRA.DIHEDRAL.0>
5.78979

>  <SCORE.INTRA.POLAR>
0

>  <SCORE.INTRA.POLAR.0>
0

>  <SCORE.INTRA.REPUL>
0

>  <SCORE.INTRA.REPUL.0>
0

>  <SCORE.INTRA.SOLV>
-0.817626

>  <SCORE.INTRA.SOLV.lig_0>
-49.9151

>  <SCORE.INTRA.VDW>
-2.84675

>  <SCORE.INTRA.VDW.0>
-0.211125

>  <SCORE.INTRA.norm>
-0.131267

>  <SCORE.RESTR>
0

>  <SCORE.RESTR.CAVITY>
0

>  <SCORE.RESTR.norm>
0

>  <SCORE.SYSTEM>
0

>  <SCORE.SYSTEM.CONST>
0

>  <SCORE.SYSTEM.DIHEDRAL>
0

>  <SCORE.SYSTEM.SOLV>
0

>  <SCORE.SYSTEM.norm>
0

>  <SCORE.heavy>
26

>  <SCORE.norm>
-0.689256

>  <RMSD>
6.698

$$$$
ligand
 OpenBabel11021811483D
libRbt.so/2013.1/901 2013/11/27
 26 28  0  0  0  0  0  0  0  0999 V2000
   46.3804   59.7547   31.6698 N   0  0  0  0  0  0  0  0  0  0  0  0
   47.1324   58.8614   32.5554 C   0  0  2  0  0  0  0  0  0  0  0  0
   48.6402   59.1223   32.5766 C   0  0  0  0  0  0  0  0  0  0  0  0
   49.2702   58.8068   33.5864 O   0  0  0  0  0  0  0  0  0  0  0  0
   46.9444   57.3647   32.2756 C   0  0  0  0  0  0  0  0  0  0  0  0
   47.3390   56.3191   33.3041 C   0  0  0  0  0  0  0  0  0  0  0  0
   47.5845   54.7744   32.3979 S   0  0  0  0  0  0  0  0  0  0  0  0
   47.4021   53.9306   33.9873 C   0  0  0  0  0  0  0  0  0  0  0  0
   46.0158   53.3232   34.2271 C   0  0  1  0  0  0  0  0  0  0  0  0
   45.9860   52.3992   35.3210 O   0  0  0  0  0  0  0  0  0  0  0  0
   44.9937   54.4092   34.5300 C   0  0  1  0  0  0  0  0  0  0  0  0
   44.3427   54.8445   33.3569 O   0  0  0  0  0  0  0  0  0  0  0  0
   44.0485   53.7728   35.5407 C   0  0  1  0  0  0  0  0  0  0  0  0
   42.9495   53.1499   34.9068 O   0  0  0  0  0  0  0  0  0  0  0  0
   44.8921   52.6858   36.1771 C   0  0  2  0  0  0  0  0  0  0  0  0
   49.2504   59.6202   31.6223 O   0  0  0  0  0  0  0  0  0  0  0  0
   48.7618   54.8170   39.0235 N   0  0  0  0  0  0  0  0  0  0  0  0
   48.7134   54.6240   37.6659 C   0  0  0  0  0  0  0  0  0  0  0  0
   47.6097   54.0254   37.0954 N   0  0  0  0  0  0  0  0  0  0  0  0
   46.5550   53.6555   37.8432 C   0  0  0  0  0  0  0  0  0  0  0  0
   46.5832   53.8431   39.2147 C   0  0  0  0  0  0  0  0  0  0  0  0
   47.6954   54.4228   39.7922 C   0  0  0  0  0  0  0  0  0  0  0  0
   47.7386   54.6223   41.0952 N   0  0  0  0  0  0  0  0  0  0  0  0
   45.4179   53.3912   39.7293 N   0  0  0  0  0  0  0  0  0  0  0  0
   44.6672   52.8996   38.7113 C   0  0  0  0  0  0  0  0  0  0  0  0
   45.3610   53.0592   37.5318 N   0  0  0  0  0  0  0  0  0  0  0  0
  2  1  1  6  0  0  0
  2  3  1  0  0  0  0
  2  5  1  0  0  0  0
  3  4  1  0  0  0  0
  3 16  1  0  0  0  0
  5  6  1  0  0  0  0
  6  7  1  0  0  0  0
  7  8  1  0  0  0  0
  9  8  1  1  0  0  0
  9 10  1  0  0  0  0
  9 11  1  0  0  0  0
 10 15  1  0  0  0  0
 11 12  1  6  0  0  0
 11 13  1  0  0  0  0
 13 14  1  6  0  0  0
 13 15  1  0  0  0  0
 15 26  1  1  0  0  0
 17 18  2  0  0  0  0
 17 22  1  0  0  0  0
 18 19  1  0  0  0  0
 19 20  2  0  0  0  0
 20 21  1  0  0  0  0
 20 26  1  0  0  0  0
 21 22  2  0  0  0  0
 21 24  1  0  0  0  0
 22 23  1  0  0  0  0
 24 25  2  0  0  0  0
 25 26  1  0  0  0  0
M  END
>  <CHROM.1>
153.68517970,-163.46960513,-158.07701343,-161.11789602,100.16676123,165.80605692
28.59774239,46.66453639,55.11556317,35.35003238,-1.28126630,0.76912449,2.00717746

>  <Name>
ligand

>  <RI>
0

>  <Rbt.Current_Directory>
/home/itssahil/PROJECTS/Mol_Feturizer/New_Systems/rnas/3GX3

>  <Rbt.Executable>
rbdock ($Id: //depot/dev/client3/rdock/2013.1/src/exe/rbdock.cxx#4 $)

>  <Rbt.Library>
libRbt.so (2013.1, Build901 2013/11/27)

>  <Rbt.Parameter_File>
/export/apps/rDock/src/rDock_2013.1_src/data/scripts/dock_solv.prm

>  <Rbt.Receptor>
prm/pocket_docking_8.prm

>  <SCORE>
-18.5421

>  <SCORE.INTER>
-16.2603

>  <SCORE.INTER.CONST>
1

>  <SCORE.INTER.POLAR>
0

>  <SCORE.INTER.ROT>
7

>  <SCORE.INTER.SOLV>
13.9014

>  <SCORE.INTER.VDW>
-23.7407

>  <SCORE.INTER.norm>
-0.625396

>  <SCORE.INTRA>
-2.28179

>  <SCORE.INTRA.DIHEDRAL>
2.54065

>  <SCORE.INTRA.DIHEDRAL.0>
5.78979

>  <SCORE.INTRA.POLAR>
0

>  <SCORE.INTRA.POLAR.0>
0

>  <SCORE.INTRA.REPUL>
0

>  <SCORE.INTRA.REPUL.0>
0

>  <SCORE.INTRA.SOLV>
-0.635302

>  <SCORE.INTRA.SOLV.lig_0>
-49.9151

>  <SCORE.INTRA.VDW>
-3.23447

>  <SCORE.INTRA.VDW.0>
-0.211125

>  <SCORE.INTRA.norm>
-0.0877613

>  <SCORE.RESTR>
0

>  <SCORE.RESTR.CAVITY>
0

>  <SCORE.RESTR.norm>
0

>  <SCORE.SYSTEM>
0

>  <SCORE.SYSTEM.CONST>
0

>  <SCORE.SYSTEM.DIHEDRAL>
0

>  <SCORE.SYSTEM.SOLV>
0

>  <SCORE.SYSTEM.norm>
0

>  <SCORE.heavy>
26

>  <SCORE.norm>
-0.713158

>  <RMSD>
6.710

$$$$
ligand
 OpenBabel11021811483D
libRbt.so/2013.1/901 2013/11/27
 26 28  0  0  0  0  0  0  0  0999 V2000
   47.4482   55.3332   30.1776 N   0  0  0  0  0  0  0  0  0  0  0  0
   48.0608   54.0342   29.8856 C   0  0  2  0  0  0  0  0  0  0  0  0
   47.0645   52.8759   29.7990 C   0  0  0  0  0  0  0  0  0  0  0  0
   47.3410   51.9253   29.0669 O   0  0  0  0  0  0  0  0  0  0  0  0
   49.1598   53.6027   30.8652 C   0  0  0  0  0  0  0  0  0  0  0  0
   48.8383   53.2901   32.3163 C   0  0  0  0  0  0  0  0  0  0  0  0
   48.4514   54.8684   33.1081 S   0  0  0  0  0  0  0  0  0  0  0  0
   48.0370   53.9106   34.5854 C   0  0  0  0  0  0  0  0  0  0  0  0
   46.6320   53.2990   34.5708 C   0  0  1  0  0  0  0  0  0  0  0  0
   46.4129   52.3627   35.6321 O   0  0  0  0  0  0  0  0  0  0  0  0
   45.5693   54.3805   34.7010 C   0  0  1  0  0  0  0  0  0  0  0  0
   45.1334   54.8283   33.4365 O   0  0  0  0  0  0  0  0  0  0  0  0
   44.4629   53.7317   35.5226 C   0  0  1  0  0  0  0  0  0  0  0  0
   43.4945   53.1149   34.6984 O   0  0  0  0  0  0  0  0  0  0  0  0
   45.1847   52.6384   36.2855 C   0  0  2  0  0  0  0  0  0  0  0  0
   46.0069   52.8486   30.4407 O   0  0  0  0  0  0  0  0  0  0  0  0
   48.4657   54.7879   39.7831 N   0  0  0  0  0  0  0  0  0  0  0  0
   48.6547   54.6170   38.4349 C   0  0  0  0  0  0  0  0  0  0  0  0
   47.6773   54.0091   37.6751 N   0  0  0  0  0  0  0  0  0  0  0  0
   46.5176   53.6085   38.2256 C   0  0  0  0  0  0  0  0  0  0  0  0
   46.3065   53.7733   39.5839 C   0  0  0  0  0  0  0  0  0  0  0  0
   47.2913   54.3623   40.3518 C   0  0  0  0  0  0  0  0  0  0  0  0
   47.1066   54.5405   41.6454 N   0  0  0  0  0  0  0  0  0  0  0  0
   45.0794   53.2926   39.8846 N   0  0  0  0  0  0  0  0  0  0  0  0
   44.5244   52.8054   38.7462 C   0  0  0  0  0  0  0  0  0  0  0  0
   45.4068   52.9969   37.7056 N   0  0  0  0  0  0  0  0  0  0  0  0
  2  1  1  1  0  0  0
  2  3  1  0  0  0  0
  2  5  1  0  0  0  0
  3  4  1  0  0  0  0
  3 16  1  0  0  0  0
  5  6  1  0  0  0  0
  6  7  1  0  0  0  0
  7  8  1  0  0  0  0
  9  8  1  1  0  0  0
  9 10  1  0  0  0  0
  9 11  1  0  0  0  0
 10 15  1  0  0  0  0
 11 12  1  6  0  0  0
 11 13  1  0  0  0  0
 13 14  1  6  0  0  0
 13 15  1  0  0  0  0
 15 26  1  1  0  0  0
 17 18  2  0  0  0  0
 17 22  1  0  0  0  0
 18 19  1  0  0  0  0
 19 20  2  0  0  0  0
 20 21  1  0  0  0  0
 20 26  1  0  0  0  0
 21 22  2  0  0  0  0
 21 24  1  0  0  0  0
 22 23  1  0  0  0  0
 24 25  2  0  0  0  0
 25 26  1  0  0  0  0
M  END
>  <CHROM.1>
150.97196268,66.14864677,-71.10462900,174.96551199,-81.56042711,169.79080255
29.61338381,46.77078941,53.72645584,35.04246690,-1.45207745,0.33277852,1.49593165

>  <Name>
ligand

>  <RI>
0

>  <Rbt.Current_Directory>
/home/itssahil/PROJECTS/Mol_Feturizer/New_Systems/rnas/3GX3

>  <Rbt.Executable>
rbdock ($Id: //depot/dev/client3/rdock/2013.1/src/exe/rbdock.cxx#4 $)

>  <Rbt.Library>
libRbt.so (2013.1, Build901 2013/11/27)

>  <Rbt.Parameter_File>
/export/apps/rDock/src/rDock_2013.1_src/data/scripts/dock_solv.prm

>  <Rbt.Receptor>
prm/pocket_docking_8.prm

>  <SCORE>
-17.481

>  <SCORE.INTER>
-13.925

>  <SCORE.INTER.CONST>
1

>  <SCORE.INTER.POLAR>
0

>  <SCORE.INTER.ROT>
7

>  <SCORE.INTER.SOLV>
10.2707

>  <SCORE.INTER.VDW>
-20.9736

>  <SCORE.INTER.norm>
-0.535577

>  <SCORE.INTRA>
-3.55598

>  <SCORE.INTRA.DIHEDRAL>
-1.38179

>  <SCORE.INTRA.DIHEDRAL.0>
5.78979

>  <SCORE.INTRA.POLAR>
0

>  <SCORE.INTRA.POLAR.0>
0

>  <SCORE.INTRA.REPUL>
0

>  <SCORE.INTRA.REPUL.0>
0

>  <SCORE.INTRA.SOLV>
1.18232

>  <SCORE.INTRA.SOLV.lig_0>
-49.9151

>  <SCORE.INTRA.VDW>
-3.45625

>  <SCORE.INTRA.VDW.0>
-0.211125

>  <SCORE.INTRA.norm>
-0.136769

>  <SCORE.RESTR>
0

>  <SCORE.RESTR.CAVITY>
0

>  <SCORE.RESTR.norm>
0

>  <SCORE.SYSTEM>
0

>  <SCORE.SYSTEM.CONST>
0

>  <SCORE.SYSTEM.DIHEDRAL>
0

>  <SCORE.SYSTEM.SOLV>
0

>  <SCORE.SYSTEM.norm>
0

>  <SCORE.heavy>
26

>  <SCORE.norm>
-0.672346

>  <RMSD>
6.716

$$$$
ligand
 OpenBabel11021811483D
libRbt.so/2013.1/901 2013/11/27
 26 28  0  0  0  0  0  0  0  0999 V2000
   50.2662   58.6075   32.8398 N   0  0  0  0  0  0  0  0  0  0  0  0
   49.0578   58.1128   33.5052 C   0  0  2  0  0  0  0  0  0  0  0  0
   49.0118   56.5925   33.6733 C   0  0  0  0  0  0  0  0  0  0  0  0
   49.8440   55.9157   33.0688 O   0  0  0  0  0  0  0  0  0  0  0  0
   47.7383   58.5265   32.8408 C   0  0  0  0  0  0  0  0  0  0  0  0
   47.5605   59.9128   32.2465 C   0  0  0  0  0  0  0  0  0  0  0  0
   45.8199   60.0516   31.7786 S   0  0  0  0  0  0  0  0  0  0  0  0
   46.2564   59.1462   30.2748 C   0  0  0  0  0  0  0  0  0  0  0  0
   45.0839   58.4152   29.6122 C   0  0  1  0  0  0  0  0  0  0  0  0
   45.3302   58.0791   28.2420 O   0  0  0  0  0  0  0  0  0  0  0  0
   44.7725   57.1172   30.3429 C   0  0  1  0  0  0  0  0  0  0  0  0
   43.7882   57.3086   31.3348 O   0  0  0  0  0  0  0  0  0  0  0  0
   44.3392   56.1551   29.2444 C   0  0  1  0  0  0  0  0  0  0  0  0
   42.9398   56.1839   29.0480 O   0  0  0  0  0  0  0  0  0  0  0  0
   44.9926   56.7230   27.9999 C   0  0  2  0  0  0  0  0  0  0  0  0
   48.1881   56.0202   34.3979 O   0  0  0  0  0  0  0  0  0  0  0  0
   46.9941   51.9438   27.1219 N   0  0  0  0  0  0  0  0  0  0  0  0
   45.7321   52.2704   27.5501 C   0  0  0  0  0  0  0  0  0  0  0  0
   45.3923   53.5930   27.7431 N   0  0  0  0  0  0  0  0  0  0  0  0
   46.2676   54.5806   27.4844 C   0  0  0  0  0  0  0  0  0  0  0  0
   47.5454   54.2722   27.0498 C   0  0  0  0  0  0  0  0  0  0  0  0
   47.8962   52.9482   26.8757 C   0  0  0  0  0  0  0  0  0  0  0  0
   49.1041   52.6321   26.4507 N   0  0  0  0  0  0  0  0  0  0  0  0
   48.2220   55.4279   26.8660 N   0  0  0  0  0  0  0  0  0  0  0  0
   47.4028   56.4566   27.2007 C   0  0  0  0  0  0  0  0  0  0  0  0
   46.1829   55.9447   27.5853 N   0  0  0  0  0  0  0  0  0  0  0  0
  2  1  1  6  0  0  0
  2  3  1  0  0  0  0
  2  5  1  0  0  0  0
  3  4  1  0  0  0  0
  3 16  1  0  0  0  0
  5  6  1  0  0  0  0
  6  7  1  0  0  0  0
  7  8  1  0  0  0  0
  9  8  1  1  0  0  0
  9 10  1  0  0  0  0
  9 11  1  0  0  0  0
 10 15  1  0  0  0  0
 11 12  1  1  0  0  0
 11 13  1  0  0  0  0
 13 14  1  6  0  0  0
 13 15  1  0  0  0  0
 15 26  1  1  0  0  0
 17 18  2  0  0  0  0
 17 22  1  0  0  0  0
 18 19  1  0  0  0  0
 19 20  2  0  0  0  0
 20 21  1  0  0  0  0
 20 26  1  0  0  0  0
 21 22  2  0  0  0  0
 21 24  1  0  0  0  0
 22 23  1  0  0  0  0
 24 25  2  0  0  0  0
 25 26  1  0  0  0  0
M  END
>  <CHROM.1>
-11.46006786,-38.60339274,-172.58942603,-81.34409724,156.71971834,161.04358698
168.63706715,46.69108871,56.50293724,29.88593184,-1.42105051,0.54093791,-2.35287057

>  <Name>
ligand

>  <RI>
0

>  <Rbt.Current_Directory>
/home/itssahil/PROJECTS/Mol_Feturizer/New_Systems/rnas/3GX3

>  <Rbt.Executable>
rbdock ($Id: //depot/dev/client3/rdock/2013.1/src/exe/rbdock.cxx#4 $)

>  <Rbt.Library>
libRbt.so (2013.1, Build901 2013/11/27)

>  <Rbt.Parameter_File>
/export/apps/rDock/src/rDock_2013.1_src/data/scripts/dock_solv.prm

>  <Rbt.Receptor>
prm/pocket_docking_6.prm

>  <SCORE>
-11.3373

>  <SCORE.INTER>
-10.7158

>  <SCORE.INTER.CONST>
1

>  <SCORE.INTER.POLAR>
0

>  <SCORE.INTER.ROT>
7

>  <SCORE.INTER.SOLV>
16.1099

>  <SCORE.INTER.VDW>
-20.7805

>  <SCORE.INTER.norm>
-0.412146

>  <SCORE.INTRA>
-0.787784

>  <SCORE.INTRA.DIHEDRAL>
1.37651

>  <SCORE.INTRA.DIHEDRAL.0>
5.78979

>  <SCORE.INTRA.POLAR>
0

>  <SCORE.INTRA.POLAR.0>
0

>  <SCORE.INTRA.REPUL>
0

>  <SCORE.INTRA.REPUL.0>
0

>  <SCORE.INTRA.SOLV>
-0.203769

>  <SCORE.INTRA.SOLV.lig_0>
-49.9151

>  <SCORE.INTRA.VDW>
-1.37415

>  <SCORE.INTRA.VDW.0>
-0.211125

>  <SCORE.INTRA.norm>
-0.0302994

>  <SCORE.RESTR>
0.166238

>  <SCORE.RESTR.CAVITY>
0.166238

>  <SCORE.RESTR.norm>
0.00639376

>  <SCORE.SYSTEM>
0

>  <SCORE.SYSTEM.CONST>
0

>  <SCORE.SYSTEM.DIHEDRAL>
0

>  <SCORE.SYSTEM.SOLV>
0

>  <SCORE.SYSTEM.norm>
0

>  <SCORE.heavy>
26

>  <SCORE.norm>
-0.436052

>  <RMSD>
6.719

$$$$
ligand
 OpenBabel11021811483D
libRbt.so/2013.1/901 2013/11/27
 26 28  0  0  0  0  0  0  0  0999 V2000
   45.5696   54.1054   35.4902 N   0  0  0  0  0  0  0  0  0  0  0  0
   46.7577   53.2862   35.7458 C   0  0  2  0  0  0  0  0  0  0  0  0
   47.5503   53.7005   36.9875 C   0  0  0  0  0  0  0  0  0  0  0  0
   47.5773   52.9262   37.9445 O   0  0  0  0  0  0  0  0  0  0  0  0
   47.7569   53.2159   34.5838 C   0  0  0  0  0  0  0  0  0  0  0  0
   48.5856   54.4256   34.1880 C   0  0  0  0  0  0  0  0  0  0  0  0
   47.4135   55.7402   33.7809 S   0  0  0  0  0  0  0  0  0  0  0  0
   48.6423   56.3291   32.5914 C   0  0  0  0  0  0  0  0  0  0  0  0
   48.4394   57.7779   32.1352 C   0  0  1  0  0  0  0  0  0  0  0  0
   49.2635   58.1396   31.0212 O   0  0  0  0  0  0  0  0  0  0  0  0
   46.9949   58.0179   31.7205 C   0  0  1  0  0  0  0  0  0  0  0  0
   46.2225   58.4958   32.7996 O   0  0  0  0  0  0  0  0  0  0  0  0
   47.0885   59.0056   30.5649 C   0  0  1  0  0  0  0  0  0  0  0  0
   47.0054   60.3432   31.0139 O   0  0  0  0  0  0  0  0  0  0  0  0
   48.4879   58.7854   30.0248 C   0  0  2  0  0  0  0  0  0  0  0  0
   48.1727   54.7671   37.0636 O   0  0  0  0  0  0  0  0  0  0  0  0
   50.2194   54.4856   27.5486 N   0  0  0  0  0  0  0  0  0  0  0  0
   50.4809   54.8887   28.8338 C   0  0  0  0  0  0  0  0  0  0  0  0
   49.9462   56.0688   29.3066 N   0  0  0  0  0  0  0  0  0  0  0  0
   49.1380   56.8222   28.5400 C   0  0  0  0  0  0  0  0  0  0  0  0
   48.8603   56.4322   27.2409 C   0  0  0  0  0  0  0  0  0  0  0  0
   49.4108   55.2621   26.7569 C   0  0  0  0  0  0  0  0  0  0  0  0
   49.1497   54.8652   25.5266 N   0  0  0  0  0  0  0  0  0  0  0  0
   48.0361   57.3504   26.6888 N   0  0  0  0  0  0  0  0  0  0  0  0
   47.8101   58.3237   27.6069 C   0  0  0  0  0  0  0  0  0  0  0  0
   48.4875   58.0074   28.7641 N   0  0  0  0  0  0  0  0  0  0  0  0
  2  1  1  6  0  0  0
  2  3  1  0  0  0  0
  2  5  1  0  0  0  0
  3  4  1  0  0  0  0
  3 16  1  0  0  0  0
  5  6  1  0  0  0  0
  6  7  1  0  0  0  0
  7  8  1  0  0  0  0
  9  8  1  6  0  0  0
  9 10  1  0  0  0  0
  9 11  1  0  0  0  0
 10 15  1  0  0  0  0
 11 12  1  1  0  0  0
 11 13  1  0  0  0  0
 13 14  1  1  0  0  0
 13 15  1  0  0  0  0
 15 26  1  6  0  0  0
 17 18  2  0  0  0  0
 17 22  1  0  0  0  0
 18 19  1  0  0  0  0
 19 20  2  0  0  0  0
 20 21  1  0  0  0  0
 20 26  1  0  0  0  0
 21 22  2  0  0  0  0
 21 24  1  0  0  0  0
 22 23  1  0  0  0  0
 24 25  2  0  0  0  0
 25 26  1  0  0  0  0
M  END
>  <CHROM.1>
112.77823877,69.97166310,-58.27585421,-148.60828961,-161.77732049,-169.11007380
-0.28095428,48.12955327,56.20481647,31.56874936,-2.01263108,1.16120421,-0.84630321

>  <Name>
ligand

>  <RI>
0

>  <Rbt.Current_Directory>
/home/itssahil/PROJECTS/Mol_Feturizer/New_Systems/rnas/3GX3

>  <Rbt.Executable>
rbdock ($Id: //depot/dev/client3/rdock/2013.1/src/exe/rbdock.cxx#4 $)

>  <Rbt.Library>
libRbt.so (2013.1, Build901 2013/11/27)

>  <Rbt.Parameter_File>
/export/apps/rDock/src/rDock_2013.1_src/data/scripts/dock_solv.prm

>  <Rbt.Receptor>
prm/pocket_docking_7.prm

>  <SCORE>
-17.0727

>  <SCORE.INTER>
-15.4348

>  <SCORE.INTER.CONST>
1

>  <SCORE.INTER.POLAR>
0

>  <SCORE.INTER.ROT>
7

>  <SCORE.INTER.SOLV>
11.4546

>  <SCORE.INTER.VDW>
-22.3747

>  <SCORE.INTER.norm>
-0.593646

>  <SCORE.INTRA>
-1.63793

>  <SCORE.INTRA.DIHEDRAL>
-0.406541

>  <SCORE.INTRA.DIHEDRAL.0>
5.78979

>  <SCORE.INTRA.POLAR>
0

>  <SCORE.INTRA.POLAR.0>
0

>  <SCORE.INTRA.REPUL>
0

>  <SCORE.INTRA.REPUL.0>
0

>  <SCORE.INTRA.SOLV>
0.996827

>  <SCORE.INTRA.SOLV.lig_0>
-49.9151

>  <SCORE.INTRA.VDW>
-1.93308

>  <SCORE.INTRA.VDW.0>
-0.211125

>  <SCORE.INTRA.norm>
-0.0629975

>  <SCORE.RESTR>
0

>  <SCORE.RESTR.CAVITY>
0

>  <SCORE.RESTR.norm>
0

>  <SCORE.SYSTEM>
0

>  <SCORE.SYSTEM.CONST>
0

>  <SCORE.SYSTEM.DIHEDRAL>
0

>  <SCORE.SYSTEM.SOLV>
0

>  <SCORE.SYSTEM.norm>
0

>  <SCORE.heavy>
26

>  <SCORE.norm>
-0.656643

>  <RMSD>
6.737

$$$$
ligand
 OpenBabel11021811483D
libRbt.so/2013.1/901 2013/11/27
 26 28  0  0  0  0  0  0  0  0999 V2000
   46.5917   59.7921   32.2824 N   0  0  0  0  0  0  0  0  0  0  0  0
   47.8552   59.1316   32.6214 C   0  0  2  0  0  0  0  0  0  0  0  0
   48.8495   59.0459   31.4612 C   0  0  0  0  0  0  0  0  0  0  0  0
   50.0507   59.0012   31.7277 O   0  0  0  0  0  0  0  0  0  0  0  0
   47.7118   57.7137   33.1893 C   0  0  0  0  0  0  0  0  0  0  0  0
   47.0956   56.5972   32.3645 C   0  0  0  0  0  0  0  0  0  0  0  0
   47.3957   55.0627   33.2716 S   0  0  0  0  0  0  0  0  0  0  0  0
   45.7032   55.2161   33.8907 C   0  0  0  0  0  0  0  0  0  0  0  0
   44.9765   53.8813   34.0867 C   0  0  1  0  0  0  0  0  0  0  0  0
   45.6625   52.9900   34.9734 O   0  0  0  0  0  0  0  0  0  0  0  0
   43.5847   54.1018   34.6614 C   0  0  1  0  0  0  0  0  0  0  0  0
   42.6178   54.2109   33.6403 O   0  0  0  0  0  0  0  0  0  0  0  0
   43.3570   52.9076   35.5792 C   0  0  1  0  0  0  0  0  0  0  0  0
   42.7247   51.8413   34.9005 O   0  0  0  0  0  0  0  0  0  0  0  0
   44.7621   52.4619   35.9335 C   0  0  2  0  0  0  0  0  0  0  0  0
   48.4981   59.0052   30.2755 O   0  0  0  0  0  0  0  0  0  0  0  0
   48.4416   54.6938   38.9497 N   0  0  0  0  0  0  0  0  0  0  0  0
   48.4710   54.4762   37.5953 C   0  0  0  0  0  0  0  0  0  0  0  0
   47.4080   53.8531   36.9758 N   0  0  0  0  0  0  0  0  0  0  0  0
   46.3180   53.4827   37.6709 C   0  0  0  0  0  0  0  0  0  0  0  0
   46.2678   53.6949   39.0381 C   0  0  0  0  0  0  0  0  0  0  0  0
   47.3390   54.2992   39.6654 C   0  0  0  0  0  0  0  0  0  0  0  0
   47.3075   54.5224   40.9649 N   0  0  0  0  0  0  0  0  0  0  0  0
   45.0812   53.2368   39.4958 N   0  0  0  0  0  0  0  0  0  0  0  0
   44.3943   52.7175   38.4471 C   0  0  0  0  0  0  0  0  0  0  0  0
   45.1504   52.8653   37.3049 N   0  0  0  0  0  0  0  0  0  0  0  0
  2  1  1  6  0  0  0
  2  3  1  0  0  0  0
  2  5  1  0  0  0  0
  3  4  1  0  0  0  0
  3 16  1  0  0  0  0
  5  6  1  0  0  0  0
  6  7  1  0  0  0  0
  7  8  1  0  0  0  0
  9  8  1  1  0  0  0
  9 10  1  0  0  0  0
  9 11  1  0  0  0  0
 10 15  1  0  0  0  0
 11 12  1  6  0  0  0
 11 13  1  0  0  0  0
 13 14  1  6  0  0  0
 13 15  1  0  0  0  0
 15 26  1  1  0  0  0
 17 18  2  0  0  0  0
 17 22  1  0  0  0  0
 18 19  1  0  0  0  0
 19 20  2  0  0  0  0
 20 21  1  0  0  0  0
 20 26  1  0  0  0  0
 21 22  2  0  0  0  0
 21 24  1  0  0  0  0
 22 23  1  0  0  0  0
 24 25  2  0  0  0  0
 25 26  1  0  0  0  0
M  END
>  <CHROM.1>
152.62875808,62.23717627,169.79644729,98.84373179,145.36052221,57.29234640
-9.66902807,46.33348241,55.06284872,35.20726747,-1.16342367,0.64676798,2.01594365

>  <Name>
ligand

>  <RI>
0

>  <Rbt.Current_Directory>
/home/itssahil/PROJECTS/Mol_Feturizer/New_Systems/rnas/3GX3

>  <Rbt.Executable>
rbdock ($Id: //depot/dev/client3/rdock/2013.1/src/exe/rbdock.cxx#4 $)

>  <Rbt.Library>
libRbt.so (2013.1, Build901 2013/11/27)

>  <Rbt.Parameter_File>
/export/apps/rDock/src/rDock_2013.1_src/data/scripts/dock_solv.prm

>  <Rbt.Receptor>
prm/pocket_docking_8.prm

>  <SCORE>
-17.5362

>  <SCORE.INTER>
-15.2273

>  <SCORE.INTER.CONST>
1

>  <SCORE.INTER.POLAR>
0

>  <SCORE.INTER.ROT>
7

>  <SCORE.INTER.SOLV>
16.4201

>  <SCORE.INTER.VDW>
-23.8916

>  <SCORE.INTER.norm>
-0.585666

>  <SCORE.INTRA>
-2.3089

>  <SCORE.INTRA.DIHEDRAL>
0.667268

>  <SCORE.INTRA.DIHEDRAL.0>
5.78979

>  <SCORE.INTRA.POLAR>
0

>  <SCORE.INTRA.POLAR.0>
0

>  <SCORE.INTRA.REPUL>
0

>  <SCORE.INTRA.REPUL.0>
0

>  <SCORE.INTRA.SOLV>
-0.526821

>  <SCORE.INTRA.SOLV.lig_0>
-49.9151

>  <SCORE.INTRA.VDW>
-2.37912

>  <SCORE.INTRA.VDW.0>
-0.211125

>  <SCORE.INTRA.norm>
-0.0888037

>  <SCORE.RESTR>
0

>  <SCORE.RESTR.CAVITY>
0

>  <SCORE.RESTR.norm>
0

>  <SCORE.SYSTEM>
0

>  <SCORE.SYSTEM.CONST>
0

>  <SCORE.SYSTEM.DIHEDRAL>
0

>  <SCORE.SYSTEM.SOLV>
0

>  <SCORE.SYSTEM.norm>
0

>  <SCORE.heavy>
26

>  <SCORE.norm>
-0.674469

>  <RMSD>
6.751

$$$$
ligand
 OpenBabel11021811483D
libRbt.so/2013.1/901 2013/11/27
 26 28  0  0  0  0  0  0  0  0999 V2000
   48.3143   53.6646   33.6445 N   0  0  0  0  0  0  0  0  0  0  0  0
   48.9124   54.5028   34.6873 C   0  0  2  0  0  0  0  0  0  0  0  0
   48.3269   54.2807   36.0836 C   0  0  0  0  0  0  0  0  0  0  0  0
   48.8809   54.8247   37.0392 O   0  0  0  0  0  0  0  0  0  0  0  0
   48.8551   56.0117   34.4163 C   0  0  0  0  0  0  0  0  0  0  0  0
   49.4874   56.6094   33.1714 C   0  0  0  0  0  0  0  0  0  0  0  0
   49.2502   58.3980   33.2830 S   0  0  0  0  0  0  0  0  0  0  0  0
   49.4122   58.4302   31.4818 C   0  0  0  0  0  0  0  0  0  0  0  0
   48.1208   58.7816   30.7354 C   0  0  1  0  0  0  0  0  0  0  0  0
   48.3196   58.9953   29.3333 O   0  0  0  0  0  0  0  0  0  0  0  0
   47.0930   57.6684   30.8777 C   0  0  1  0  0  0  0  0  0  0  0  0
   46.2410   57.8926   31.9791 O   0  0  0  0  0  0  0  0  0  0  0  0
   46.3586   57.6540   29.5433 C   0  0  1  0  0  0  0  0  0  0  0  0
   45.2150   58.4842   29.5683 O   0  0  0  0  0  0  0  0  0  0  0  0
   47.3572   58.2714   28.5841 C   0  0  2  0  0  0  0  0  0  0  0  0
   47.3183   53.5939   36.2888 O   0  0  0  0  0  0  0  0  0  0  0  0
   50.8158   54.3225   28.3348 N   0  0  0  0  0  0  0  0  0  0  0  0
   50.4752   55.0856   29.4230 C   0  0  0  0  0  0  0  0  0  0  0  0
   49.5506   56.1000   29.2893 N   0  0  0  0  0  0  0  0  0  0  0  0
   48.9437   56.3369   28.1128 C   0  0  0  0  0  0  0  0  0  0  0  0
   49.2720   55.5770   27.0030 C   0  0  0  0  0  0  0  0  0  0  0  0
   50.2129   54.5743   27.1279 C   0  0  0  0  0  0  0  0  0  0  0  0
   50.5318   53.8301   26.0868 N   0  0  0  0  0  0  0  0  0  0  0  0
   48.5329   56.0106   25.9576 N   0  0  0  0  0  0  0  0  0  0  0  0
   47.7642   57.0451   26.3820 C   0  0  0  0  0  0  0  0  0  0  0  0
   48.0077   57.2581   27.7212 N   0  0  0  0  0  0  0  0  0  0  0  0
  2  1  1  6  0  0  0
  2  3  1  0  0  0  0
  2  5  1  0  0  0  0
  3  4  1  0  0  0  0
  3 16  1  0  0  0  0
  5  6  1  0  0  0  0
  6  7  1  0  0  0  0
  7  8  1  0  0  0  0
  9  8  1  1  0  0  0
  9 10  1  0  0  0  0
  9 11  1  0  0  0  0
 10 15  1  0  0  0  0
 11 12  1  1  0  0  0
 11 13  1  0  0  0  0
 13 14  1  1  0  0  0
 13 15  1  0  0  0  0
 15 26  1  1  0  0  0
 17 18  2  0  0  0  0
 17 22  1  0  0  0  0
 18 19  1  0  0  0  0
 19 20  2  0  0  0  0
 20 21  1  0  0  0  0
 20 26  1  0  0  0  0
 21 22  2  0  0  0  0
 21 24  1  0  0  0  0
 22 23  1  0  0  0  0
 24 25  2  0  0  0  0
 25 26  1  0  0  0  0
M  END
>  <CHROM.1>
171.39529443,-58.49286821,-177.72581233,-156.25934488,111.31951873,171.24266230
49.87783881,48.51382518,56.44015235,30.85625749,-1.65129359,1.03606478,-1.37276567

>  <Name>
ligand

>  <RI>
0

>  <Rbt.Current_Directory>
/home/itssahil/PROJECTS/Mol_Feturizer/New_Systems/rnas/3GX3

>  <Rbt.Executable>
rbdock ($Id: //depot/dev/client3/rdock/2013.1/src/exe/rbdock.cxx#4 $)

>  <Rbt.Library>
libRbt.so (2013.1, Build901 2013/11/27)

>  <Rbt.Parameter_File>
/export/apps/rDock/src/rDock_2013.1_src/data/scripts/dock_solv.prm

>  <Rbt.Receptor>
prm/pocket_docking_4.prm

>  <SCORE>
-20.3192

>  <SCORE.INTER>
-17.0932

>  <SCORE.INTER.CONST>
1

>  <SCORE.INTER.POLAR>
0

>  <SCORE.INTER.ROT>
7

>  <SCORE.INTER.SOLV>
11.244

>  <SCORE.INTER.VDW>
-23.4101

>  <SCORE.INTER.norm>
-0.657431

>  <SCORE.INTRA>
-3.22595

>  <SCORE.INTRA.DIHEDRAL>
0.371364

>  <SCORE.INTRA.DIHEDRAL.0>
5.78979

>  <SCORE.INTRA.POLAR>
0

>  <SCORE.INTRA.POLAR.0>
0

>  <SCORE.INTRA.REPUL>
0

>  <SCORE.INTRA.REPUL.0>
0

>  <SCORE.INTRA.SOLV>
-0.11865

>  <SCORE.INTRA.SOLV.lig_0>
-49.9151

>  <SCORE.INTRA.VDW>
-3.3523

>  <SCORE.INTRA.VDW.0>
-0.211125

>  <SCORE.INTRA.norm>
-0.124075

>  <SCORE.RESTR>
0

>  <SCORE.RESTR.CAVITY>
0

>  <SCORE.RESTR.norm>
0

>  <SCORE.SYSTEM>
0

>  <SCORE.SYSTEM.CONST>
0

>  <SCORE.SYSTEM.DIHEDRAL>
0

>  <SCORE.SYSTEM.SOLV>
0

>  <SCORE.SYSTEM.norm>
0

>  <SCORE.heavy>
26

>  <SCORE.norm>
-0.781506

>  <RMSD>
6.759

$$$$
ligand
 OpenBabel11021811483D
libRbt.so/2013.1/901 2013/11/27
 26 28  0  0  0  0  0  0  0  0999 V2000
   46.3049   59.0652   30.3068 N   0  0  0  0  0  0  0  0  0  0  0  0
   45.1817   59.3302   31.2100 C   0  0  2  0  0  0  0  0  0  0  0  0
   45.1456   60.7559   31.7650 C   0  0  0  0  0  0  0  0  0  0  0  0
   44.0470   61.2837   31.9396 O   0  0  0  0  0  0  0  0  0  0  0  0
   45.0812   58.3827   32.4124 C   0  0  0  0  0  0  0  0  0  0  0  0
   44.9035   56.8868   32.2192 C   0  0  0  0  0  0  0  0  0  0  0  0
   44.9286   56.1491   33.8693 S   0  0  0  0  0  0  0  0  0  0  0  0
   44.5798   54.5703   33.0587 C   0  0  0  0  0  0  0  0  0  0  0  0
   44.2709   53.4183   34.0209 C   0  0  1  0  0  0  0  0  0  0  0  0
   45.4461   52.7751   34.5271 O   0  0  0  0  0  0  0  0  0  0  0  0
   43.4786   53.9137   35.2221 C   0  0  1  0  0  0  0  0  0  0  0  0
   42.0897   53.7962   35.0063 O   0  0  0  0  0  0  0  0  0  0  0  0
   43.9796   53.0675   36.3853 C   0  0  1  0  0  0  0  0  0  0  0  0
   43.1955   51.9046   36.5599 O   0  0  0  0  0  0  0  0  0  0  0  0
   45.3600   52.6311   35.9355 C   0  0  2  0  0  0  0  0  0  0  0  0
   46.1670   61.3903   32.0572 O   0  0  0  0  0  0  0  0  0  0  0  0
   47.5525   53.9327   40.5308 N   0  0  0  0  0  0  0  0  0  0  0  0
   46.4530   53.1428   40.3080 C   0  0  0  0  0  0  0  0  0  0  0  0
   46.0106   52.9275   39.0196 N   0  0  0  0  0  0  0  0  0  0  0  0
   46.6603   53.4510   37.9649 C   0  0  0  0  0  0  0  0  0  0  0  0
   47.7729   54.2495   38.1681 C   0  0  0  0  0  0  0  0  0  0  0  0
   48.2064   54.4846   39.4578 C   0  0  0  0  0  0  0  0  0  0  0  0
   49.2713   55.2320   39.6740 N   0  0  0  0  0  0  0  0  0  0  0  0
   48.2356   54.6483   36.9623 N   0  0  0  0  0  0  0  0  0  0  0  0
   47.4207   54.1369   36.0053 C   0  0  0  0  0  0  0  0  0  0  0  0
   46.4374   53.3881   36.6141 N   0  0  0  0  0  0  0  0  0  0  0  0
  2  1  1  1  0  0  0
  2  3  1  0  0  0  0
  2  5  1  0  0  0  0
  3  4  1  0  0  0  0
  3 16  1  0  0  0  0
  5  6  1  0  0  0  0
  6  7  1  0  0  0  0
  7  8  1  0  0  0  0
  9  8  1  6  0  0  0
  9 10  1  0  0  0  0
  9 11  1  0  0  0  0
 10 15  1  0  0  0  0
 11 12  1  6  0  0  0
 11 13  1  0  0  0  0
 13 14  1  6  0  0  0
 13 15  1  0  0  0  0
 15 26  1  1  0  0  0
 17 18  2  0  0  0  0
 17 22  1  0  0  0  0
 18 19  1  0  0  0  0
 19 20  2  0  0  0  0
 20 21  1  0  0  0  0
 20 26  1  0  0  0  0
 21 22  2  0  0  0  0
 21 24  1  0  0  0  0
 22 23  1  0  0  0  0
 24 25  2  0  0  0  0
 25 26  1  0  0  0  0
M  END
>  <CHROM.1>
144.57858568,-60.32478801,176.82149590,176.15678529,-171.97797151,-83.98724746
-178.97249315,45.59863440,55.42661228,35.27028715,-1.78922802,0.75327181
2.46637060

>  <Name>
ligand

>  <RI>
0

>  <Rbt.Current_Directory>
/home/itssahil/PROJECTS/Mol_Feturizer/New_Systems/rnas/3GX3

>  <Rbt.Executable>
rbdock ($Id: //depot/dev/client3/rdock/2013.1/src/exe/rbdock.cxx#4 $)

>  <Rbt.Library>
libRbt.so (2013.1, Build901 2013/11/27)

>  <Rbt.Parameter_File>
/export/apps/rDock/src/rDock_2013.1_src/data/scripts/dock_solv.prm

>  <Rbt.Receptor>
prm/pocket_docking_7.prm

>  <SCORE>
-21.4398

>  <SCORE.INTER>
-18.6888

>  <SCORE.INTER.CONST>
1

>  <SCORE.INTER.POLAR>
0

>  <SCORE.INTER.ROT>
7

>  <SCORE.INTER.SOLV>
20.2724

>  <SCORE.INTER.VDW>
-27.4833

>  <SCORE.INTER.norm>
-0.7188

>  <SCORE.INTRA>
-2.75096

>  <SCORE.INTRA.DIHEDRAL>
-1.00891

>  <SCORE.INTRA.DIHEDRAL.0>
5.78979

>  <SCORE.INTRA.POLAR>
0

>  <SCORE.INTRA.POLAR.0>
0

>  <SCORE.INTRA.REPUL>
0

>  <SCORE.INTRA.REPUL.0>
0

>  <SCORE.INTRA.SOLV>
-0.279341

>  <SCORE.INTRA.SOLV.lig_0>
-49.9151

>  <SCORE.INTRA.VDW>
-2.10683

>  <SCORE.INTRA.VDW.0>
-0.211125

>  <SCORE.INTRA.norm>
-0.105806

>  <SCORE.RESTR>
0

>  <SCORE.RESTR.CAVITY>
0

>  <SCORE.RESTR.norm>
0

>  <SCORE.SYSTEM>
0

>  <SCORE.SYSTEM.CONST>
0

>  <SCORE.SYSTEM.DIHEDRAL>
0

>  <SCORE.SYSTEM.SOLV>
0

>  <SCORE.SYSTEM.norm>
0

>  <SCORE.heavy>
26

>  <SCORE.norm>
-0.824606

>  <RMSD>
6.767

$$$$
ligand
 OpenBabel11021811483D
libRbt.so/2013.1/901 2013/11/27
 26 28  0  0  0  0  0  0  0  0999 V2000
   48.4786   53.8096   33.7283 N   0  0  0  0  0  0  0  0  0  0  0  0
   49.0315   54.7411   34.7154 C   0  0  2  0  0  0  0  0  0  0  0  0
   48.5165   54.5246   36.1400 C   0  0  0  0  0  0  0  0  0  0  0  0
   47.6393   53.6791   36.3184 O   0  0  0  0  0  0  0  0  0  0  0  0
   48.8257   56.2261   34.3894 C   0  0  0  0  0  0  0  0  0  0  0  0
   49.3811   56.8329   33.1127 C   0  0  0  0  0  0  0  0  0  0  0  0
   48.9464   58.5872   33.1465 S   0  0  0  0  0  0  0  0  0  0  0  0
   49.3703   58.6225   31.3885 C   0  0  0  0  0  0  0  0  0  0  0  0
   48.1905   58.9228   30.4578 C   0  0  1  0  0  0  0  0  0  0  0  0
   48.5395   58.8728   29.0698 O   0  0  0  0  0  0  0  0  0  0  0  0
   47.0633   57.9232   30.6726 C   0  0  1  0  0  0  0  0  0  0  0  0
   46.1321   58.3941   31.6216 O   0  0  0  0  0  0  0  0  0  0  0  0
   46.4610   57.7236   29.2879 C   0  0  1  0  0  0  0  0  0  0  0  0
   45.3946   58.6198   29.0488 O   0  0  0  0  0  0  0  0  0  0  0  0
   47.5952   58.0945   28.3529 C   0  0  2  0  0  0  0  0  0  0  0  0
   48.9522   55.1491   37.1153 O   0  0  0  0  0  0  0  0  0  0  0  0
   50.3919   53.7303   29.2192 N   0  0  0  0  0  0  0  0  0  0  0  0
   49.9689   54.6630   30.1322 C   0  0  0  0  0  0  0  0  0  0  0  0
   49.2535   55.7638   29.7096 N   0  0  0  0  0  0  0  0  0  0  0  0
   48.9281   55.9263   28.4150 C   0  0  0  0  0  0  0  0  0  0  0  0
   49.3438   54.9956   27.4781 C   0  0  0  0  0  0  0  0  0  0  0  0
   50.0784   53.9031   27.8943 C   0  0  0  0  0  0  0  0  0  0  0  0
   50.4743   52.9977   27.0208 N   0  0  0  0  0  0  0  0  0  0  0  0
   48.8949   55.3852   26.2641 N   0  0  0  0  0  0  0  0  0  0  0  0
   48.2263   56.5563   26.4152 C   0  0  0  0  0  0  0  0  0  0  0  0
   48.2370   56.9041   27.7483 N   0  0  0  0  0  0  0  0  0  0  0  0
  2  1  1  6  0  0  0
  2  3  1  0  0  0  0
  2  5  1  0  0  0  0
  3  4  1  0  0  0  0
  3 16  1  0  0  0  0
  5  6  1  0  0  0  0
  6  7  1  0  0  0  0
  7  8  1  0  0  0  0
  9  8  1  1  0  0  0
  9 10  1  0  0  0  0
  9 11  1  0  0  0  0
 10 15  1  0  0  0  0
 11 12  1  1  0  0  0
 11 13  1  0  0  0  0
 13 14  1  6  0  0  0
 13 15  1  0  0  0  0
 15 26  1  1  0  0  0
 17 18  2  0  0  0  0
 17 22  1  0  0  0  0
 18 19  1  0  0  0  0
 19 20  2  0  0  0  0
 20 21  1  0  0  0  0
 20 26  1  0  0  0  0
 21 22  2  0  0  0  0
 21 24  1  0  0  0  0
 22 23  1  0  0  0  0
 24 25  2  0  0  0  0
 25 26  1  0  0  0  0
M  END
>  <CHROM.1>
-4.94901639,-59.69483478,-178.80145337,-165.38458634,115.19588111,-176.80638662
57.56525527,48.52897933,56.36611167,30.93524505,-1.58141738,1.13091484,-1.46122971

>  <Name>
ligand

>  <RI>
0

>  <Rbt.Current_Directory>
/home/itssahil/PROJECTS/Mol_Feturizer/New_Systems/rnas/3GX3

>  <Rbt.Executable>
rbdock ($Id: //depot/dev/client3/rdock/2013.1/src/exe/rbdock.cxx#4 $)

>  <Rbt.Library>
libRbt.so (2013.1, Build901 2013/11/27)

>  <Rbt.Parameter_File>
/export/apps/rDock/src/rDock_2013.1_src/data/scripts/dock_solv.prm

>  <Rbt.Receptor>
prm/pocket_docking_3.prm

>  <SCORE>
-19.348

>  <SCORE.INTER>
-15.7502

>  <SCORE.INTER.CONST>
1

>  <SCORE.INTER.POLAR>
0

>  <SCORE.INTER.ROT>
7

>  <SCORE.INTER.SOLV>
12.2808

>  <SCORE.INTER.VDW>
-22.8604

>  <SCORE.INTER.norm>
-0.605777

>  <SCORE.INTRA>
-3.59781

>  <SCORE.INTRA.DIHEDRAL>
-0.236256

>  <SCORE.INTRA.DIHEDRAL.0>
5.78979

>  <SCORE.INTRA.POLAR>
0

>  <SCORE.INTRA.POLAR.0>
0

>  <SCORE.INTRA.REPUL>
0

>  <SCORE.INTRA.REPUL.0>
0

>  <SCORE.INTRA.SOLV>
-0.126912

>  <SCORE.INTRA.SOLV.lig_0>
-49.9151

>  <SCORE.INTRA.VDW>
-3.41622

>  <SCORE.INTRA.VDW.0>
-0.211125

>  <SCORE.INTRA.norm>
-0.138377

>  <SCORE.RESTR>
0

>  <SCORE.RESTR.CAVITY>
0

>  <SCORE.RESTR.norm>
0

>  <SCORE.SYSTEM>
0

>  <SCORE.SYSTEM.CONST>
0

>  <SCORE.SYSTEM.DIHEDRAL>
0

>  <SCORE.SYSTEM.SOLV>
0

>  <SCORE.SYSTEM.norm>
0

>  <SCORE.heavy>
26

>  <SCORE.norm>
-0.744154

>  <RMSD>
6.797

$$$$
ligand
 OpenBabel11021811483D
libRbt.so/2013.1/901 2013/11/27
 26 28  0  0  0  0  0  0  0  0999 V2000
   41.0536   53.9732   30.0874 N   0  0  0  0  0  0  0  0  0  0  0  0
   41.1195   52.5129   29.9831 C   0  0  2  0  0  0  0  0  0  0  0  0
   41.6746   51.8192   31.2291 C   0  0  0  0  0  0  0  0  0  0  0  0
   42.2874   52.5025   32.0500 O   0  0  0  0  0  0  0  0  0  0  0  0
   41.9216   51.9855   28.7864 C   0  0  0  0  0  0  0  0  0  0  0  0
   43.4217   52.2030   28.6907 C   0  0  0  0  0  0  0  0  0  0  0  0
   43.8802   51.8721   26.9738 S   0  0  0  0  0  0  0  0  0  0  0  0
   45.5634   52.3437   27.4382 C   0  0  0  0  0  0  0  0  0  0  0  0
   46.4247   52.8465   26.2748 C   0  0  1  0  0  0  0  0  0  0  0  0
   46.0692   54.1629   25.8369 O   0  0  0  0  0  0  0  0  0  0  0  0
   47.8946   52.8865   26.6670 C   0  0  1  0  0  0  0  0  0  0  0  0
   48.5507   51.6852   26.3269 O   0  0  0  0  0  0  0  0  0  0  0  0
   48.4514   54.1023   25.9377 C   0  0  1  0  0  0  0  0  0  0  0  0
   48.9724   53.7568   24.6701 O   0  0  0  0  0  0  0  0  0  0  0  0
   47.2287   54.9703   25.7141 C   0  0  2  0  0  0  0  0  0  0  0  0
   41.5217   50.6117   31.4514 O   0  0  0  0  0  0  0  0  0  0  0  0
   44.7168   57.2046   29.7534 N   0  0  0  0  0  0  0  0  0  0  0  0
   44.4132   56.0324   29.1082 C   0  0  0  0  0  0  0  0  0  0  0  0
   45.1858   55.6122   28.0459 N   0  0  0  0  0  0  0  0  0  0  0  0
   46.2611   56.3146   27.6475 C   0  0  0  0  0  0  0  0  0  0  0  0
   46.5856   57.4992   28.2864 C   0  0  0  0  0  0  0  0  0  0  0  0
   45.8020   57.9342   29.3368 C   0  0  0  0  0  0  0  0  0  0  0  0
   46.0999   59.0534   29.9678 N   0  0  0  0  0  0  0  0  0  0  0  0
   47.6938   58.0071   27.7024 N   0  0  0  0  0  0  0  0  0  0  0  0
   48.0584   57.1781   26.6920 C   0  0  0  0  0  0  0  0  0  0  0  0
   47.1774   56.1197   26.6472 N   0  0  0  0  0  0  0  0  0  0  0  0
  2  1  1  1  0  0  0
  2  3  1  0  0  0  0
  2  5  1  0  0  0  0
  3  4  1  0  0  0  0
  3 16  1  0  0  0  0
  5  6  1  0  0  0  0
  6  7  1  0  0  0  0
  7  8  1  0  0  0  0
  9  8  1  1  0  0  0
  9 10  1  0  0  0  0
  9 11  1  0  0  0  0
 10 15  1  0  0  0  0
 11 12  1  6  0  0  0
 11 13  1  0  0  0  0
 13 14  1  6  0  0  0
 13 15  1  0  0  0  0
 15 26  1  1  0  0  0
 17 18  2  0  0  0  0
 17 22  1  0  0  0  0
 18 19  1  0  0  0  0
 19 20  2  0  0  0  0
 20 21  1  0  0  0  0
 20 26  1  0  0  0  0
 21 22  2  0  0  0  0
 21 24  1  0  0  0  0
 22 23  1  0  0  0  0
 24 25  2  0  0  0  0
 25 26  1  0  0  0  0
M  END
>  <CHROM.1>
-16.40085898,66.35304551,-164.11293259,177.16622874,-155.41738732,73.83960297
9.18047801,45.22733501,54.21539413,28.06721771,2.87895680,-0.68297453,-2.76567771

>  <Name>
ligand

>  <RI>
0

>  <Rbt.Current_Directory>
/home/itssahil/PROJECTS/Mol_Feturizer/New_Systems/rnas/3GX3

>  <Rbt.Executable>
rbdock ($Id: //depot/dev/client3/rdock/2013.1/src/exe/rbdock.cxx#4 $)

>  <Rbt.Library>
libRbt.so (2013.1, Build901 2013/11/27)

>  <Rbt.Parameter_File>
/export/apps/rDock/src/rDock_2013.1_src/data/scripts/dock_solv.prm

>  <Rbt.Receptor>
prm/pocket_docking_7.prm

>  <SCORE>
-10.3758

>  <SCORE.INTER>
-7.00261

>  <SCORE.INTER.CONST>
1

>  <SCORE.INTER.POLAR>
0

>  <SCORE.INTER.ROT>
7

>  <SCORE.INTER.SOLV>
11.8318

>  <SCORE.INTER.VDW>
-16.879

>  <SCORE.INTER.norm>
-0.269331

>  <SCORE.INTRA>
-3.37323

>  <SCORE.INTRA.DIHEDRAL>
-0.404929

>  <SCORE.INTRA.DIHEDRAL.0>
5.78979

>  <SCORE.INTRA.POLAR>
0

>  <SCORE.INTRA.POLAR.0>
0

>  <SCORE.INTRA.REPUL>
0

>  <SCORE.INTRA.REPUL.0>
0

>  <SCORE.INTRA.SOLV>
-0.548027

>  <SCORE.INTRA.SOLV.lig_0>
-49.9151

>  <SCORE.INTRA.VDW>
-2.89675

>  <SCORE.INTRA.VDW.0>
-0.211125

>  <SCORE.INTRA.norm>
-0.129739

>  <SCORE.RESTR>
0

>  <SCORE.RESTR.CAVITY>
0

>  <SCORE.RESTR.norm>
0

>  <SCORE.SYSTEM>
0

>  <SCORE.SYSTEM.CONST>
0

>  <SCORE.SYSTEM.DIHEDRAL>
0

>  <SCORE.SYSTEM.SOLV>
0

>  <SCORE.SYSTEM.norm>
0

>  <SCORE.heavy>
26

>  <SCORE.norm>
-0.399071

>  <RMSD>
6.800

$$$$
ligand
 OpenBabel11021811483D
libRbt.so/2013.1/901 2013/11/27
 26 28  0  0  0  0  0  0  0  0999 V2000
   44.7473   60.9154   30.8740 N   0  0  0  0  0  0  0  0  0  0  0  0
   45.4989   60.0283   31.7662 C   0  0  2  0  0  0  0  0  0  0  0  0
   46.9530   59.8017   31.3468 C   0  0  0  0  0  0  0  0  0  0  0  0
   47.8377   60.0255   32.1734 O   0  0  0  0  0  0  0  0  0  0  0  0
   44.8756   58.6421   31.9753 C   0  0  0  0  0  0  0  0  0  0  0  0
   45.5845   57.5795   32.7969 C   0  0  0  0  0  0  0  0  0  0  0  0
   44.4670   56.1608   32.8758 S   0  0  0  0  0  0  0  0  0  0  0  0
   45.8575   55.2319   33.5649 C   0  0  0  0  0  0  0  0  0  0  0  0
   45.4789   53.8702   34.1571 C   0  0  1  0  0  0  0  0  0  0  0  0
   46.5767   53.2068   34.7942 O   0  0  0  0  0  0  0  0  0  0  0  0
   44.3799   54.0195   35.1991 C   0  0  1  0  0  0  0  0  0  0  0  0
   43.1014   53.8630   34.6244 O   0  0  0  0  0  0  0  0  0  0  0  0
   44.7011   52.9617   36.2470 C   0  0  1  0  0  0  0  0  0  0  0  0
   44.0442   51.7405   35.9738 O   0  0  0  0  0  0  0  0  0  0  0  0
   46.1900   52.7346   36.0744 C   0  0  2  0  0  0  0  0  0  0  0  0
   47.2735   59.3920   30.2241 O   0  0  0  0  0  0  0  0  0  0  0  0
   46.5406   53.8252   41.2033 N   0  0  0  0  0  0  0  0  0  0  0  0
   45.5458   53.1468   40.5454 C   0  0  0  0  0  0  0  0  0  0  0  0
   45.6193   52.9730   39.1793 N   0  0  0  0  0  0  0  0  0  0  0  0
   46.6719   53.4274   38.4763 C   0  0  0  0  0  0  0  0  0  0  0  0
   47.6870   54.1130   39.1215 C   0  0  0  0  0  0  0  0  0  0  0  0
   47.6067   54.3074   40.4861 C   0  0  0  0  0  0  0  0  0  0  0  0
   48.5684   54.9470   41.1230 N   0  0  0  0  0  0  0  0  0  0  0  0
   48.6151   54.4614   38.2026 N   0  0  0  0  0  0  0  0  0  0  0  0
   48.1914   54.0303   36.9876 C   0  0  0  0  0  0  0  0  0  0  0  0
   46.9849   53.3835   37.1428 N   0  0  0  0  0  0  0  0  0  0  0  0
  2  1  1  6  0  0  0
  2  3  1  0  0  0  0
  2  5  1  0  0  0  0
  3  4  1  0  0  0  0
  3 16  1  0  0  0  0
  5  6  1  0  0  0  0
  6  7  1  0  0  0  0
  7  8  1  0  0  0  0
  9  8  1  1  0  0  0
  9 10  1  0  0  0  0
  9 11  1  0  0  0  0
 10 15  1  0  0  0  0
 11 12  1  6  0  0  0
 11 13  1  0  0  0  0
 13 14  1  6  0  0  0
 13 15  1  0  0  0  0
 15 26  1  1  0  0  0
 17 18  2  0  0  0  0
 17 22  1  0  0  0  0
 18 19  1  0  0  0  0
 19 20  2  0  0  0  0
 20 21  1  0  0  0  0
 20 26  1  0  0  0  0
 21 22  2  0  0  0  0
 21 24  1  0  0  0  0
 22 23  1  0  0  0  0
 24 25  2  0  0  0  0
 25 26  1  0  0  0  0
M  END
>  <CHROM.1>
126.09118704,175.82894254,176.39371335,169.11313497,168.25154825,-175.07806165
162.60760146,46.02874654,55.41116401,35.41252570,-1.69885971,0.82835181,2.30416397

>  <Name>
ligand

>  <RI>
0

>  <Rbt.Current_Directory>
/home/itssahil/PROJECTS/Mol_Feturizer/New_Systems/rnas/3GX3

>  <Rbt.Executable>
rbdock ($Id: //depot/dev/client3/rdock/2013.1/src/exe/rbdock.cxx#4 $)

>  <Rbt.Library>
libRbt.so (2013.1, Build901 2013/11/27)

>  <Rbt.Parameter_File>
/export/apps/rDock/src/rDock_2013.1_src/data/scripts/dock_solv.prm

>  <Rbt.Receptor>
prm/pocket_docking_8.prm

>  <SCORE>
-22.1399

>  <SCORE.INTER>
-18.7869

>  <SCORE.INTER.CONST>
1

>  <SCORE.INTER.POLAR>
0

>  <SCORE.INTER.ROT>
7

>  <SCORE.INTER.SOLV>
19.4698

>  <SCORE.INTER.VDW>
-27.2812

>  <SCORE.INTER.norm>
-0.722573

>  <SCORE.INTRA>
-3.35296

>  <SCORE.INTRA.DIHEDRAL>
-2.39497

>  <SCORE.INTRA.DIHEDRAL.0>
5.78979

>  <SCORE.INTRA.POLAR>
0

>  <SCORE.INTRA.POLAR.0>
0

>  <SCORE.INTRA.REPUL>
0

>  <SCORE.INTRA.REPUL.0>
0

>  <SCORE.INTRA.SOLV>
-0.944544

>  <SCORE.INTRA.SOLV.lig_0>
-49.9151

>  <SCORE.INTRA.VDW>
-1.6832

>  <SCORE.INTRA.VDW.0>
-0.211125

>  <SCORE.INTRA.norm>
-0.12896

>  <SCORE.RESTR>
0

>  <SCORE.RESTR.CAVITY>
0

>  <SCORE.RESTR.norm>
0

>  <SCORE.SYSTEM>
0

>  <SCORE.SYSTEM.CONST>
0

>  <SCORE.SYSTEM.DIHEDRAL>
0

>  <SCORE.SYSTEM.SOLV>
0

>  <SCORE.SYSTEM.norm>
0

>  <SCORE.heavy>
26

>  <SCORE.norm>
-0.851533

>  <RMSD>
6.806

$$$$
ligand
 OpenBabel11021811483D
libRbt.so/2013.1/901 2013/11/27
 26 28  0  0  0  0  0  0  0  0999 V2000
   48.1284   58.9425   31.6885 N   0  0  0  0  0  0  0  0  0  0  0  0
   49.2536   58.0037   31.6709 C   0  0  2  0  0  0  0  0  0  0  0  0
   49.1191   56.8823   30.6383 C   0  0  0  0  0  0  0  0  0  0  0  0
   48.0105   56.6790   30.1426 O   0  0  0  0  0  0  0  0  0  0  0  0
   49.5583   57.3339   33.0171 C   0  0  0  0  0  0  0  0  0  0  0  0
   48.5330   56.4464   33.7012 C   0  0  0  0  0  0  0  0  0  0  0  0
   48.6093   54.8412   32.8734 S   0  0  0  0  0  0  0  0  0  0  0  0
   46.8105   54.7774   33.0508 C   0  0  0  0  0  0  0  0  0  0  0  0
   46.3195   54.6763   34.4989 C   0  0  1  0  0  0  0  0  0  0  0  0
   44.8973   54.7919   34.6221 O   0  0  0  0  0  0  0  0  0  0  0  0
   46.7153   53.3413   35.1130 C   0  0  1  0  0  0  0  0  0  0  0  0
   47.9521   53.4307   35.7850 O   0  0  0  0  0  0  0  0  0  0  0  0
   45.5554   52.9859   36.0341 C   0  0  1  0  0  0  0  0  0  0  0  0
   45.7678   53.4621   37.3477 O   0  0  0  0  0  0  0  0  0  0  0  0
   44.3891   53.7555   35.4461 C   0  0  2  0  0  0  0  0  0  0  0  0
   50.0744   56.1861   30.2727 O   0  0  0  0  0  0  0  0  0  0  0  0
   41.4730   49.3842   35.5222 N   0  0  0  0  0  0  0  0  0  0  0  0
   42.2731   49.8887   36.5162 C   0  0  0  0  0  0  0  0  0  0  0  0
   42.9840   51.0511   36.3032 N   0  0  0  0  0  0  0  0  0  0  0  0
   42.8818   51.7261   35.1446 C   0  0  0  0  0  0  0  0  0  0  0  0
   42.0786   51.2348   34.1296 C   0  0  0  0  0  0  0  0  0  0  0  0
   41.3817   50.0600   34.3313 C   0  0  0  0  0  0  0  0  0  0  0  0
   40.6010   49.5803   33.3827 N   0  0  0  0  0  0  0  0  0  0  0  0
   42.1492   52.0862   33.0821 N   0  0  0  0  0  0  0  0  0  0  0  0
   43.0011   53.0906   33.4089 C   0  0  0  0  0  0  0  0  0  0  0  0
   43.4630   52.8809   34.6899 N   0  0  0  0  0  0  0  0  0  0  0  0
  2  1  1  1  0  0  0
  2  3  1  0  0  0  0
  2  5  1  0  0  0  0
  3  4  1  0  0  0  0
  3 16  1  0  0  0  0
  5  6  1  0  0  0  0
  6  7  1  0  0  0  0
  7  8  1  0  0  0  0
  9  8  1  6  0  0  0
  9 10  1  0  0  0  0
  9 11  1  0  0  0  0
 10 15  1  0  0  0  0
 11 12  1  1  0  0  0
 11 13  1  0  0  0  0
 13 14  1  1  0  0  0
 13 15  1  0  0  0  0
 15 26  1  6  0  0  0
 17 18  2  0  0  0  0
 17 22  1  0  0  0  0
 18 19  1  0  0  0  0
 19 20  2  0  0  0  0
 20 21  1  0  0  0  0
 20 26  1  0  0  0  0
 21 22  2  0  0  0  0
 21 24  1  0  0  0  0
 22 23  1  0  0  0  0
 24 25  2  0  0  0  0
 25 26  1  0  0  0  0
M  END
>  <CHROM.1>
-15.71381976,61.79549011,79.30201195,-141.76576080,-66.35171002,172.81325765
174.26219283,45.71357875,53.87495826,33.86859170,0.54265595,-0.60135045,-1.24592984

>  <Name>
ligand

>  <RI>
0

>  <Rbt.Current_Directory>
/home/itssahil/PROJECTS/Mol_Feturizer/New_Systems/rnas/3GX3

>  <Rbt.Executable>
rbdock ($Id: //depot/dev/client3/rdock/2013.1/src/exe/rbdock.cxx#4 $)

>  <Rbt.Library>
libRbt.so (2013.1, Build901 2013/11/27)

>  <Rbt.Parameter_File>
/export/apps/rDock/src/rDock_2013.1_src/data/scripts/dock_solv.prm

>  <Rbt.Receptor>
prm/pocket_docking_8.prm

>  <SCORE>
-15.3437

>  <SCORE.INTER>
-13.5401

>  <SCORE.INTER.CONST>
1

>  <SCORE.INTER.POLAR>
0

>  <SCORE.INTER.ROT>
7

>  <SCORE.INTER.SOLV>
11.7422

>  <SCORE.INTER.VDW>
-21.2075

>  <SCORE.INTER.norm>
-0.520775

>  <SCORE.INTRA>
-1.81939

>  <SCORE.INTRA.DIHEDRAL>
0.282566

>  <SCORE.INTRA.DIHEDRAL.0>
5.78979

>  <SCORE.INTRA.POLAR>
0

>  <SCORE.INTRA.POLAR.0>
0

>  <SCORE.INTRA.REPUL>
0

>  <SCORE.INTRA.REPUL.0>
0

>  <SCORE.INTRA.SOLV>
0.31989

>  <SCORE.INTRA.SOLV.lig_0>
-49.9151

>  <SCORE.INTRA.VDW>
-2.12062

>  <SCORE.INTRA.VDW.0>
-0.211125

>  <SCORE.INTRA.norm>
-0.0699766

>  <SCORE.RESTR>
0.0158418

>  <SCORE.RESTR.CAVITY>
0.0158418

>  <SCORE.RESTR.norm>
0.000609299

>  <SCORE.SYSTEM>
0

>  <SCORE.SYSTEM.CONST>
0

>  <SCORE.SYSTEM.DIHEDRAL>
0

>  <SCORE.SYSTEM.SOLV>
0

>  <SCORE.SYSTEM.norm>
0

>  <SCORE.heavy>
26

>  <SCORE.norm>
-0.590142

>  <RMSD>
6.843

$$$$
ligand
 OpenBabel11021811483D
libRbt.so/2013.1/901 2013/11/27
 26 28  0  0  0  0  0  0  0  0999 V2000
   45.5960   52.8889   35.5663 N   0  0  0  0  0  0  0  0  0  0  0  0
   46.8786   53.0023   36.2662 C   0  0  2  0  0  0  0  0  0  0  0  0
   46.7601   53.0380   37.7915 C   0  0  0  0  0  0  0  0  0  0  0  0
   45.7108   53.4546   38.2831 O   0  0  0  0  0  0  0  0  0  0  0  0
   47.7334   54.2092   35.8586 C   0  0  0  0  0  0  0  0  0  0  0  0
   48.3004   54.3301   34.4548 C   0  0  0  0  0  0  0  0  0  0  0  0
   49.0944   55.9513   34.3595 S   0  0  0  0  0  0  0  0  0  0  0  0
   47.6238   56.5068   33.4649 C   0  0  0  0  0  0  0  0  0  0  0  0
   47.7890   57.8496   32.7453 C   0  0  1  0  0  0  0  0  0  0  0  0
   48.9547   57.9055   31.9151 O   0  0  0  0  0  0  0  0  0  0  0  0
   46.5898   58.1375   31.8538 C   0  0  1  0  0  0  0  0  0  0  0  0
   45.6104   58.8892   32.5357 O   0  0  0  0  0  0  0  0  0  0  0  0
   47.1747   58.8646   30.6499 C   0  0  1  0  0  0  0  0  0  0  0  0
   47.1638   60.2662   30.8313 O   0  0  0  0  0  0  0  0  0  0  0  0
   48.6215   58.4118   30.6329 C   0  0  2  0  0  0  0  0  0  0  0  0
   47.6629   52.6546   38.5457 O   0  0  0  0  0  0  0  0  0  0  0  0
   47.5275   56.8253   25.7437 N   0  0  0  0  0  0  0  0  0  0  0  0
   47.0184   57.9051   26.4200 C   0  0  0  0  0  0  0  0  0  0  0  0
   47.4154   58.1536   27.7172 N   0  0  0  0  0  0  0  0  0  0  0  0
   48.3256   57.3739   28.3271 C   0  0  0  0  0  0  0  0  0  0  0  0
   48.8528   56.2804   27.6615 C   0  0  0  0  0  0  0  0  0  0  0  0
   48.4420   56.0160   26.3701 C   0  0  0  0  0  0  0  0  0  0  0  0
   48.9403   54.9869   25.7127 N   0  0  0  0  0  0  0  0  0  0  0  0
   49.7333   55.6668   28.4833 N   0  0  0  0  0  0  0  0  0  0  0  0
   49.7516   56.3383   29.6623 C   0  0  0  0  0  0  0  0  0  0  0  0
   48.8824   57.4040   29.5791 N   0  0  0  0  0  0  0  0  0  0  0  0
  2  1  1  6  0  0  0
  2  3  1  0  0  0  0
  2  5  1  0  0  0  0
  3  4  1  0  0  0  0
  3 16  1  0  0  0  0
  5  6  1  0  0  0  0
  6  7  1  0  0  0  0
  7  8  1  0  0  0  0
  9  8  1  6  0  0  0
  9 10  1  0  0  0  0
  9 11  1  0  0  0  0
 10 15  1  0  0  0  0
 11 12  1  1  0  0  0
 11 13  1  0  0  0  0
 13 14  1  1  0  0  0
 13 15  1  0  0  0  0
 15 26  1  6  0  0  0
 17 18  2  0  0  0  0
 17 22  1  0  0  0  0
 18 19  1  0  0  0  0
 19 20  2  0  0  0  0
 20 21  1  0  0  0  0
 20 26  1  0  0  0  0
 21 22  2  0  0  0  0
 21 24  1  0  0  0  0
 22 23  1  0  0  0  0
 24 25  2  0  0  0  0
 25 26  1  0  0  0  0
M  END
>  <CHROM.1>
-26.05989246,-65.16448327,174.69036961,-101.68202066,-165.74030807,51.03973660
158.80727637,47.81007457,56.26560471,31.86201479,-1.97902380,1.28187673,-0.81223036

>  <Name>
ligand

>  <RI>
0

>  <Rbt.Current_Directory>
/home/itssahil/PROJECTS/Mol_Feturizer/New_Systems/rnas/3GX3

>  <Rbt.Executable>
rbdock ($Id: //depot/dev/client3/rdock/2013.1/src/exe/rbdock.cxx#4 $)

>  <Rbt.Library>
libRbt.so (2013.1, Build901 2013/11/27)

>  <Rbt.Parameter_File>
/export/apps/rDock/src/rDock_2013.1_src/data/scripts/dock_solv.prm

>  <Rbt.Receptor>
prm/pocket_docking_5.prm

>  <SCORE>
-20.1

>  <SCORE.INTER>
-17.7258

>  <SCORE.INTER.CONST>
1

>  <SCORE.INTER.POLAR>
0

>  <SCORE.INTER.ROT>
7

>  <SCORE.INTER.SOLV>
12.1635

>  <SCORE.INTER.VDW>
-24.1384

>  <SCORE.INTER.norm>
-0.681762

>  <SCORE.INTRA>
-2.3742

>  <SCORE.INTRA.DIHEDRAL>
-0.271263

>  <SCORE.INTRA.DIHEDRAL.0>
5.78979

>  <SCORE.INTRA.POLAR>
0

>  <SCORE.INTRA.POLAR.0>
0

>  <SCORE.INTRA.REPUL>
0

>  <SCORE.INTRA.REPUL.0>
0

>  <SCORE.INTRA.SOLV>
-0.491811

>  <SCORE.INTRA.SOLV.lig_0>
-49.9151

>  <SCORE.INTRA.VDW>
-1.99266

>  <SCORE.INTRA.VDW.0>
-0.211125

>  <SCORE.INTRA.norm>
-0.0913154

>  <SCORE.RESTR>
0

>  <SCORE.RESTR.CAVITY>
0

>  <SCORE.RESTR.norm>
0

>  <SCORE.SYSTEM>
0

>  <SCORE.SYSTEM.CONST>
0

>  <SCORE.SYSTEM.DIHEDRAL>
0

>  <SCORE.SYSTEM.SOLV>
0

>  <SCORE.SYSTEM.norm>
0

>  <SCORE.heavy>
26

>  <SCORE.norm>
-0.773078

>  <RMSD>
6.846

$$$$
ligand
 OpenBabel11021811483D
libRbt.so/2013.1/901 2013/11/27
 26 28  0  0  0  0  0  0  0  0999 V2000
   48.2343   53.7819   33.6045 N   0  0  0  0  0  0  0  0  0  0  0  0
   48.8988   54.5515   34.6599 C   0  0  2  0  0  0  0  0  0  0  0  0
   48.3683   54.2735   36.0681 C   0  0  0  0  0  0  0  0  0  0  0  0
   47.4040   53.5171   36.1867 O   0  0  0  0  0  0  0  0  0  0  0  0
   48.8698   56.0732   34.4665 C   0  0  0  0  0  0  0  0  0  0  0  0
   49.4922   56.7200   33.2414 C   0  0  0  0  0  0  0  0  0  0  0  0
   49.2592   58.5029   33.4276 S   0  0  0  0  0  0  0  0  0  0  0  0
   49.5904   58.6294   31.6539 C   0  0  0  0  0  0  0  0  0  0  0  0
   48.3366   58.7608   30.7827 C   0  0  1  0  0  0  0  0  0  0  0  0
   48.6273   58.8322   29.3822 O   0  0  0  0  0  0  0  0  0  0  0  0
   47.4079   57.5727   30.9876 C   0  0  1  0  0  0  0  0  0  0  0  0
   46.4527   57.8336   31.9920 O   0  0  0  0  0  0  0  0  0  0  0  0
   46.7881   57.3319   29.6172 C   0  0  1  0  0  0  0  0  0  0  0  0
   45.5744   58.0393   29.4620 O   0  0  0  0  0  0  0  0  0  0  0  0
   47.7995   57.9338   28.6617 C   0  0  2  0  0  0  0  0  0  0  0  0
   48.8738   54.7622   37.0862 O   0  0  0  0  0  0  0  0  0  0  0  0
   48.4252   55.0616   24.3054 N   0  0  0  0  0  0  0  0  0  0  0  0
   47.4507   55.9879   24.5791 C   0  0  0  0  0  0  0  0  0  0  0  0
   47.4392   56.6343   25.7973 N   0  0  0  0  0  0  0  0  0  0  0  0
   48.3915   56.4003   26.7176 C   0  0  0  0  0  0  0  0  0  0  0  0
   49.3846   55.4707   26.4602 C   0  0  0  0  0  0  0  0  0  0  0  0
   49.3874   54.8059   25.2500 C   0  0  0  0  0  0  0  0  0  0  0  0
   50.3310   53.9253   24.9787 N   0  0  0  0  0  0  0  0  0  0  0  0
   50.2071   55.4200   27.5317 N   0  0  0  0  0  0  0  0  0  0  0  0
   49.7363   56.2814   28.4686 C   0  0  0  0  0  0  0  0  0  0  0  0
   48.6084   56.8999   27.9752 N   0  0  0  0  0  0  0  0  0  0  0  0
  2  1  1  6  0  0  0
  2  3  1  0  0  0  0
  2  5  1  0  0  0  0
  3  4  1  0  0  0  0
  3 16  1  0  0  0  0
  5  6  1  0  0  0  0
  6  7  1  0  0  0  0
  7  8  1  0  0  0  0
  9  8  1  1  0  0  0
  9 10  1  0  0  0  0
  9 11  1  0  0  0  0
 10 15  1  0  0  0  0
 11 12  1  1  0  0  0
 11 13  1  0  0  0  0
 13 14  1  1  0  0  0
 13 15  1  0  0  0  0
 15 26  1  1  0  0  0
 17 18  2  0  0  0  0
 17 22  1  0  0  0  0
 18 19  1  0  0  0  0
 19 20  2  0  0  0  0
 20 21  1  0  0  0  0
 20 26  1  0  0  0  0
 21 22  2  0  0  0  0
 21 24  1  0  0  0  0
 22 23  1  0  0  0  0
 24 25  2  0  0  0  0
 25 26  1  0  0  0  0
M  END
>  <CHROM.1>
-4.40034238,-59.93252836,-179.12821912,-162.23264147,99.78374637,-178.82472266
-140.11697037,48.44455510,56.43366916,30.41890244,-1.62937658,1.31691545
-1.48265437

>  <Name>
ligand

>  <RI>
0

>  <Rbt.Current_Directory>
/home/itssahil/PROJECTS/Mol_Feturizer/New_Systems/rnas/3GX3

>  <Rbt.Executable>
rbdock ($Id: //depot/dev/client3/rdock/2013.1/src/exe/rbdock.cxx#4 $)

>  <Rbt.Library>
libRbt.so (2013.1, Build901 2013/11/27)

>  <Rbt.Parameter_File>
/export/apps/rDock/src/rDock_2013.1_src/data/scripts/dock_solv.prm

>  <Rbt.Receptor>
prm/pocket_docking_8.prm

>  <SCORE>
-19.9926

>  <SCORE.INTER>
-17.3377

>  <SCORE.INTER.CONST>
1

>  <SCORE.INTER.POLAR>
0

>  <SCORE.INTER.ROT>
7

>  <SCORE.INTER.SOLV>
10.4036

>  <SCORE.INTER.VDW>
-23.293

>  <SCORE.INTER.norm>
-0.666836

>  <SCORE.INTRA>
-2.65483

>  <SCORE.INTRA.DIHEDRAL>
-0.645447

>  <SCORE.INTRA.DIHEDRAL.0>
5.78979

>  <SCORE.INTRA.POLAR>
0

>  <SCORE.INTRA.POLAR.0>
0

>  <SCORE.INTRA.REPUL>
0

>  <SCORE.INTRA.REPUL.0>
0

>  <SCORE.INTRA.SOLV>
-0.0609565

>  <SCORE.INTRA.SOLV.lig_0>
-49.9151

>  <SCORE.INTRA.VDW>
-2.30163

>  <SCORE.INTRA.VDW.0>
-0.211125

>  <SCORE.INTRA.norm>
-0.102109

>  <SCORE.RESTR>
0

>  <SCORE.RESTR.CAVITY>
0

>  <SCORE.RESTR.norm>
0

>  <SCORE.SYSTEM>
0

>  <SCORE.SYSTEM.CONST>
0

>  <SCORE.SYSTEM.DIHEDRAL>
0

>  <SCORE.SYSTEM.SOLV>
0

>  <SCORE.SYSTEM.norm>
0

>  <SCORE.heavy>
26

>  <SCORE.norm>
-0.768945

>  <RMSD>
6.900

$$$$
ligand
 OpenBabel11021811483D
libRbt.so/2013.1/901 2013/11/27
 26 28  0  0  0  0  0  0  0  0999 V2000
   48.0445   55.1756   35.0391 N   0  0  0  0  0  0  0  0  0  0  0  0
   47.0047   54.1439   35.0846 C   0  0  2  0  0  0  0  0  0  0  0  0
   47.4834   52.7517   34.6668 C   0  0  0  0  0  0  0  0  0  0  0  0
   47.1515   51.7906   35.3612 O   0  0  0  0  0  0  0  0  0  0  0  0
   45.7521   54.4509   34.2538 C   0  0  0  0  0  0  0  0  0  0  0  0
   45.8479   55.2105   32.9421 C   0  0  0  0  0  0  0  0  0  0  0  0
   45.7535   56.9672   33.3578 S   0  0  0  0  0  0  0  0  0  0  0  0
   46.2883   57.2940   31.6611 C   0  0  0  0  0  0  0  0  0  0  0  0
   45.1440   57.5395   30.6719 C   0  0  1  0  0  0  0  0  0  0  0  0
   45.5564   58.2437   29.4951 O   0  0  0  0  0  0  0  0  0  0  0  0
   44.5315   56.2234   30.2150 C   0  0  1  0  0  0  0  0  0  0  0  0
   43.4387   55.8551   31.0270 O   0  0  0  0  0  0  0  0  0  0  0  0
   44.1451   56.4663   28.7618 C   0  0  1  0  0  0  0  0  0  0  0  0
   42.8155   56.9314   28.6464 O   0  0  0  0  0  0  0  0  0  0  0  0
   45.0672   57.5913   28.3347 C   0  0  2  0  0  0  0  0  0  0  0  0
   48.1730   52.5516   33.6591 O   0  0  0  0  0  0  0  0  0  0  0  0
   47.0122   53.5940   25.5317 N   0  0  0  0  0  0  0  0  0  0  0  0
   45.8437   53.6386   26.2494 C   0  0  0  0  0  0  0  0  0  0  0  0
   45.5062   54.7815   26.9435 N   0  0  0  0  0  0  0  0  0  0  0  0
   46.2872   55.8755   26.9032 C   0  0  0  0  0  0  0  0  0  0  0  0
   47.4696   55.8517   26.1834 C   0  0  0  0  0  0  0  0  0  0  0  0
   47.8215   54.7021   25.5044 C   0  0  0  0  0  0  0  0  0  0  0  0
   48.9373   54.6612   24.8023 N   0  0  0  0  0  0  0  0  0  0  0  0
   48.0645   57.0595   26.3035 N   0  0  0  0  0  0  0  0  0  0  0  0
   47.2917   57.8348   27.1055 C   0  0  0  0  0  0  0  0  0  0  0  0
   46.1817   57.1121   27.4845 N   0  0  0  0  0  0  0  0  0  0  0  0
  2  1  1  6  0  0  0
  2  3  1  0  0  0  0
  2  5  1  0  0  0  0
  3  4  1  0  0  0  0
  3 16  1  0  0  0  0
  5  6  1  0  0  0  0
  6  7  1  0  0  0  0
  7  8  1  0  0  0  0
  9  8  1  1  0  0  0
  9 10  1  0  0  0  0
  9 11  1  0  0  0  0
 10 15  1  0  0  0  0
 11 12  1  1  0  0  0
 11 13  1  0  0  0  0
 13 14  1  1  0  0  0
 13 15  1  0  0  0  0
 15 26  1  1  0  0  0
 17 18  2  0  0  0  0
 17 22  1  0  0  0  0
 18 19  1  0  0  0  0
 19 20  2  0  0  0  0
 20 21  1  0  0  0  0
 20 26  1  0  0  0  0
 21 22  2  0  0  0  0
 21 24  1  0  0  0  0
 22 23  1  0  0  0  0
 24 25  2  0  0  0  0
 25 26  1  0  0  0  0
M  END
>  <CHROM.1>
134.61976264,34.32507036,-87.62205905,167.59514046,94.36698314,159.12053661
134.07336523,46.19755811,55.60845482,30.12633963,-1.55534821,0.89430765,-1.39435514

>  <Name>
ligand

>  <RI>
0

>  <Rbt.Current_Directory>
/home/itssahil/PROJECTS/Mol_Feturizer/New_Systems/rnas/3GX3

>  <Rbt.Executable>
rbdock ($Id: //depot/dev/client3/rdock/2013.1/src/exe/rbdock.cxx#4 $)

>  <Rbt.Library>
libRbt.so (2013.1, Build901 2013/11/27)

>  <Rbt.Parameter_File>
/export/apps/rDock/src/rDock_2013.1_src/data/scripts/dock_solv.prm

>  <Rbt.Receptor>
prm/pocket_docking_7.prm

>  <SCORE>
-8.69643

>  <SCORE.INTER>
-9.49251

>  <SCORE.INTER.CONST>
1

>  <SCORE.INTER.POLAR>
0

>  <SCORE.INTER.ROT>
7

>  <SCORE.INTER.SOLV>
12.533

>  <SCORE.INTER.VDW>
-18.7727

>  <SCORE.INTER.norm>
-0.365097

>  <SCORE.INTRA>
0.796077

>  <SCORE.INTRA.DIHEDRAL>
4.75284

>  <SCORE.INTRA.DIHEDRAL.0>
5.78979

>  <SCORE.INTRA.POLAR>
0

>  <SCORE.INTRA.POLAR.0>
0

>  <SCORE.INTRA.REPUL>
0

>  <SCORE.INTRA.REPUL.0>
0

>  <SCORE.INTRA.SOLV>
1.22544

>  <SCORE.INTRA.SOLV.lig_0>
-49.9151

>  <SCORE.INTRA.VDW>
-2.19307

>  <SCORE.INTRA.VDW.0>
-0.211125

>  <SCORE.INTRA.norm>
0.0306183

>  <SCORE.RESTR>
0

>  <SCORE.RESTR.CAVITY>
0

>  <SCORE.RESTR.norm>
0

>  <SCORE.SYSTEM>
0

>  <SCORE.SYSTEM.CONST>
0

>  <SCORE.SYSTEM.DIHEDRAL>
0

>  <SCORE.SYSTEM.SOLV>
0

>  <SCORE.SYSTEM.norm>
0

>  <SCORE.heavy>
26

>  <SCORE.norm>
-0.334478

>  <RMSD>
6.955

$$$$
ligand
 OpenBabel11021811483D
libRbt.so/2013.1/901 2013/11/27
 26 28  0  0  0  0  0  0  0  0999 V2000
   48.2176   53.7545   33.7738 N   0  0  0  0  0  0  0  0  0  0  0  0
   48.9409   54.6397   34.6909 C   0  0  2  0  0  0  0  0  0  0  0  0
   48.5020   54.5233   36.1523 C   0  0  0  0  0  0  0  0  0  0  0  0
   49.1152   55.1766   36.9968 O   0  0  0  0  0  0  0  0  0  0  0  0
   48.8878   56.1295   34.3283 C   0  0  0  0  0  0  0  0  0  0  0  0
   49.4286   56.6333   33.0015 C   0  0  0  0  0  0  0  0  0  0  0  0
   49.0156   58.3910   32.9127 S   0  0  0  0  0  0  0  0  0  0  0  0
   49.2391   58.2497   31.1234 C   0  0  0  0  0  0  0  0  0  0  0  0
   48.0247   58.6855   30.2966 C   0  0  1  0  0  0  0  0  0  0  0  0
   48.3271   58.8838   28.9108 O   0  0  0  0  0  0  0  0  0  0  0  0
   46.9180   57.6435   30.3690 C   0  0  1  0  0  0  0  0  0  0  0  0
   46.0137   57.9253   31.4141 O   0  0  0  0  0  0  0  0  0  0  0  0
   46.2717   57.6765   28.9901 C   0  0  1  0  0  0  0  0  0  0  0  0
   45.1867   58.5811   28.9442 O   0  0  0  0  0  0  0  0  0  0  0  0
   47.3689   58.2247   28.0991 C   0  0  2  0  0  0  0  0  0  0  0  0
   47.5538   53.8163   36.5158 O   0  0  0  0  0  0  0  0  0  0  0  0
   51.1308   54.5642   27.8423 N   0  0  0  0  0  0  0  0  0  0  0  0
   50.8519   55.4243   28.8743 C   0  0  0  0  0  0  0  0  0  0  0  0
   49.8262   56.3377   28.7500 N   0  0  0  0  0  0  0  0  0  0  0  0
   49.0636   56.3804   27.6432 C   0  0  0  0  0  0  0  0  0  0  0  0
   49.3275   55.5199   26.5912 C   0  0  0  0  0  0  0  0  0  0  0  0
   50.3671   54.6183   26.7034 C   0  0  0  0  0  0  0  0  0  0  0  0
   50.6285   53.7809   25.7185 N   0  0  0  0  0  0  0  0  0  0  0  0
   48.4312   55.7625   25.6089 N   0  0  0  0  0  0  0  0  0  0  0  0
   47.6243   56.7763   26.0122 C   0  0  0  0  0  0  0  0  0  0  0  0
   48.0046   57.1693   27.2767 N   0  0  0  0  0  0  0  0  0  0  0  0
  2  1  1  6  0  0  0
  2  3  1  0  0  0  0
  2  5  1  0  0  0  0
  3  4  1  0  0  0  0
  3 16  1  0  0  0  0
  5  6  1  0  0  0  0
  6  7  1  0  0  0  0
  7  8  1  0  0  0  0
  9  8  1  1  0  0  0
  9 10  1  0  0  0  0
  9 11  1  0  0  0  0
 10 15  1  0  0  0  0
 11 12  1  1  0  0  0
 11 13  1  0  0  0  0
 13 14  1  1  0  0  0
 13 15  1  0  0  0  0
 15 26  1  1  0  0  0
 17 18  2  0  0  0  0
 17 22  1  0  0  0  0
 18 19  1  0  0  0  0
 19 20  2  0  0  0  0
 20 21  1  0  0  0  0
 20 26  1  0  0  0  0
 21 22  2  0  0  0  0
 21 24  1  0  0  0  0
 22 23  1  0  0  0  0
 24 25  2  0  0  0  0
 25 26  1  0  0  0  0
M  END
>  <CHROM.1>
175.80652848,-60.00961623,174.25534841,-159.74042418,123.90647057,165.32648275
34.32050919,48.52663363,56.48088447,30.52602679,-1.62744205,0.92825064,-1.42070270

>  <Name>
ligand

>  <RI>
0

>  <Rbt.Current_Directory>
/home/itssahil/PROJECTS/Mol_Feturizer/New_Systems/rnas/3GX3

>  <Rbt.Executable>
rbdock ($Id: //depot/dev/client3/rdock/2013.1/src/exe/rbdock.cxx#4 $)

>  <Rbt.Library>
libRbt.so (2013.1, Build901 2013/11/27)

>  <Rbt.Parameter_File>
/export/apps/rDock/src/rDock_2013.1_src/data/scripts/dock_solv.prm

>  <Rbt.Receptor>
prm/pocket_docking_6.prm

>  <SCORE>
-20.3763

>  <SCORE.INTER>
-17.7385

>  <SCORE.INTER.CONST>
1

>  <SCORE.INTER.POLAR>
0

>  <SCORE.INTER.ROT>
7

>  <SCORE.INTER.SOLV>
11.4013

>  <SCORE.INTER.VDW>
-23.8927

>  <SCORE.INTER.norm>
-0.682249

>  <SCORE.INTRA>
-2.63788

>  <SCORE.INTRA.DIHEDRAL>
0.824184

>  <SCORE.INTRA.DIHEDRAL.0>
5.78979

>  <SCORE.INTRA.POLAR>
0

>  <SCORE.INTRA.POLAR.0>
0

>  <SCORE.INTRA.REPUL>
0

>  <SCORE.INTRA.REPUL.0>
0

>  <SCORE.INTRA.SOLV>
-0.241408

>  <SCORE.INTRA.SOLV.lig_0>
-49.9151

>  <SCORE.INTRA.VDW>
-2.92926

>  <SCORE.INTRA.VDW.0>
-0.211125

>  <SCORE.INTRA.norm>
-0.101457

>  <SCORE.RESTR>
0

>  <SCORE.RESTR.CAVITY>
0

>  <SCORE.RESTR.norm>
0

>  <SCORE.SYSTEM>
0

>  <SCORE.SYSTEM.CONST>
0

>  <SCORE.SYSTEM.DIHEDRAL>
0

>  <SCORE.SYSTEM.SOLV>
0

>  <SCORE.SYSTEM.norm>
0

>  <SCORE.heavy>
26

>  <SCORE.norm>
-0.783705

>  <RMSD>
6.964

$$$$
ligand
 OpenBabel11021811483D
libRbt.so/2013.1/901 2013/11/27
 26 28  0  0  0  0  0  0  0  0999 V2000
   42.0878   52.6839   33.5565 N   0  0  0  0  0  0  0  0  0  0  0  0
   43.2142   52.8283   34.4828 C   0  0  2  0  0  0  0  0  0  0  0  0
   42.8711   52.5173   35.9413 C   0  0  0  0  0  0  0  0  0  0  0  0
   43.4547   51.5814   36.4886 O   0  0  0  0  0  0  0  0  0  0  0  0
   43.8902   54.2054   34.4692 C   0  0  0  0  0  0  0  0  0  0  0  0
   44.7170   54.6614   33.2796 C   0  0  0  0  0  0  0  0  0  0  0  0
   45.1559   56.3872   33.5905 S   0  0  0  0  0  0  0  0  0  0  0  0
   46.4686   56.1687   32.3654 C   0  0  0  0  0  0  0  0  0  0  0  0
   47.3997   57.3760   32.2118 C   0  0  1  0  0  0  0  0  0  0  0  0
   48.5817   57.0849   31.4574 O   0  0  0  0  0  0  0  0  0  0  0  0
   46.6888   58.5218   31.5063 C   0  0  1  0  0  0  0  0  0  0  0  0
   46.0857   59.4001   32.4306 O   0  0  0  0  0  0  0  0  0  0  0  0
   47.7732   59.1850   30.6670 C   0  0  1  0  0  0  0  0  0  0  0  0
   48.4081   60.2341   31.3697 O   0  0  0  0  0  0  0  0  0  0  0  0
   48.7911   58.0793   30.4680 C   0  0  2  0  0  0  0  0  0  0  0  0
   42.0480   53.1719   36.5932 O   0  0  0  0  0  0  0  0  0  0  0  0
   50.6629   54.4145   27.1994 N   0  0  0  0  0  0  0  0  0  0  0  0
   51.0238   54.6557   28.5010 C   0  0  0  0  0  0  0  0  0  0  0  0
   50.4283   55.6844   29.2004 N   0  0  0  0  0  0  0  0  0  0  0  0
   49.4674   56.4407   28.6407 C   0  0  0  0  0  0  0  0  0  0  0  0
   49.0876   56.2124   27.3291 C   0  0  0  0  0  0  0  0  0  0  0  0
   49.6965   55.1971   26.6187 C   0  0  0  0  0  0  0  0  0  0  0  0
   49.3415   54.9540   25.3719 N   0  0  0  0  0  0  0  0  0  0  0  0
   48.1181   57.0978   27.0074 N   0  0  0  0  0  0  0  0  0  0  0  0
   47.8983   57.8952   28.0831 C   0  0  0  0  0  0  0  0  0  0  0  0
   48.7291   57.4968   29.1074 N   0  0  0  0  0  0  0  0  0  0  0  0
  2  1  1  6  0  0  0
  2  3  1  0  0  0  0
  2  5  1  0  0  0  0
  3  4  1  0  0  0  0
  3 16  1  0  0  0  0
  5  6  1  0  0  0  0
  6  7  1  0  0  0  0
  7  8  1  0  0  0  0
  9  8  1  6  0  0  0
  9 10  1  0  0  0  0
  9 11  1  0  0  0  0
 10 15  1  0  0  0  0
 11 12  1  1  0  0  0
 11 13  1  0  0  0  0
 13 14  1  1  0  0  0
 13 15  1  0  0  0  0
 15 26  1  6  0  0  0
 17 18  2  0  0  0  0
 17 22  1  0  0  0  0
 18 19  1  0  0  0  0
 19 20  2  0  0  0  0
 20 21  1  0  0  0  0
 20 26  1  0  0  0  0
 21 22  2  0  0  0  0
 21 24  1  0  0  0  0
 22 23  1  0  0  0  0
 24 25  2  0  0  0  0
 25 26  1  0  0  0  0
M  END
>  <CHROM.1>
117.94779710,-70.06806064,173.45815886,160.98697567,-174.95514100,167.61774137
-54.52293173,46.84042162,55.95731492,31.31456670,-3.05740036,0.89959451,0.30658592

>  <Name>
ligand

>  <RI>
0

>  <Rbt.Current_Directory>
/home/itssahil/PROJECTS/Mol_Feturizer/New_Systems/rnas/3GX3

>  <Rbt.Executable>
rbdock ($Id: //depot/dev/client3/rdock/2013.1/src/exe/rbdock.cxx#4 $)

>  <Rbt.Library>
libRbt.so (2013.1, Build901 2013/11/27)

>  <Rbt.Parameter_File>
/export/apps/rDock/src/rDock_2013.1_src/data/scripts/dock_solv.prm

>  <Rbt.Receptor>
prm/pocket_docking_8.prm

>  <SCORE>
-14.364

>  <SCORE.INTER>
-11.5186

>  <SCORE.INTER.CONST>
1

>  <SCORE.INTER.POLAR>
0

>  <SCORE.INTER.ROT>
7

>  <SCORE.INTER.SOLV>
9.7969

>  <SCORE.INTER.VDW>
-19.2114

>  <SCORE.INTER.norm>
-0.443024

>  <SCORE.INTRA>
-2.84535

>  <SCORE.INTRA.DIHEDRAL>
-1.26062

>  <SCORE.INTRA.DIHEDRAL.0>
5.78979

>  <SCORE.INTRA.POLAR>
0

>  <SCORE.INTRA.POLAR.0>
0

>  <SCORE.INTRA.REPUL>
0

>  <SCORE.INTRA.REPUL.0>
0

>  <SCORE.INTRA.SOLV>
-0.478161

>  <SCORE.INTRA.SOLV.lig_0>
-49.9151

>  <SCORE.INTRA.VDW>
-1.97596

>  <SCORE.INTRA.VDW.0>
-0.211125

>  <SCORE.INTRA.norm>
-0.109436

>  <SCORE.RESTR>
0

>  <SCORE.RESTR.CAVITY>
0

>  <SCORE.RESTR.norm>
0

>  <SCORE.SYSTEM>
0

>  <SCORE.SYSTEM.CONST>
0

>  <SCORE.SYSTEM.DIHEDRAL>
0

>  <SCORE.SYSTEM.SOLV>
0

>  <SCORE.SYSTEM.norm>
0

>  <SCORE.heavy>
26

>  <SCORE.norm>
-0.55246

>  <RMSD>
7.075

$$$$
ligand
 OpenBabel11021811483D
libRbt.so/2013.1/901 2013/11/27
 26 28  0  0  0  0  0  0  0  0999 V2000
   41.5002   53.1636   36.2733 N   0  0  0  0  0  0  0  0  0  0  0  0
   42.3121   52.3010   35.4104 C   0  0  2  0  0  0  0  0  0  0  0  0
   42.1930   50.8081   35.7250 C   0  0  0  0  0  0  0  0  0  0  0  0
   42.5603   50.4168   36.8332 O   0  0  0  0  0  0  0  0  0  0  0  0
   43.8098   52.6326   35.3898 C   0  0  0  0  0  0  0  0  0  0  0  0
   44.3149   53.9429   34.8112 C   0  0  0  0  0  0  0  0  0  0  0  0
   46.1066   53.9534   35.0508 S   0  0  0  0  0  0  0  0  0  0  0  0
   46.1718   55.2078   33.7494 C   0  0  0  0  0  0  0  0  0  0  0  0
   47.5142   55.9389   33.6404 C   0  0  1  0  0  0  0  0  0  0  0  0
   48.6127   55.0634   33.3614 O   0  0  0  0  0  0  0  0  0  0  0  0
   47.4761   56.9782   32.5294 C   0  0  1  0  0  0  0  0  0  0  0  0
   47.0929   58.2433   33.0212 O   0  0  0  0  0  0  0  0  0  0  0  0
   48.8819   56.9622   31.9433 C   0  0  1  0  0  0  0  0  0  0  0  0
   49.7201   57.9106   32.5723 O   0  0  0  0  0  0  0  0  0  0  0  0
   49.3971   55.5816   32.2994 C   0  0  2  0  0  0  0  0  0  0  0  0
   41.7325   49.9861   34.9230 O   0  0  0  0  0  0  0  0  0  0  0  0
   50.9567   54.8064   27.3411 N   0  0  0  0  0  0  0  0  0  0  0  0
   51.1766   55.9006   28.1393 C   0  0  0  0  0  0  0  0  0  0  0  0
   50.6681   55.9302   29.4209 N   0  0  0  0  0  0  0  0  0  0  0  0
   49.9853   54.8857   29.9222 C   0  0  0  0  0  0  0  0  0  0  0  0
   49.7540   53.7714   29.1337 C   0  0  0  0  0  0  0  0  0  0  0  0
   50.2433   53.7467   27.8428 C   0  0  0  0  0  0  0  0  0  0  0  0
   50.0454   52.6905   27.0782 N   0  0  0  0  0  0  0  0  0  0  0  0
   49.0522   52.8743   29.8615 N   0  0  0  0  0  0  0  0  0  0  0  0
   48.8155   53.4127   31.0844 C   0  0  0  0  0  0  0  0  0  0  0  0
   49.3919   54.6629   31.1373 N   0  0  0  0  0  0  0  0  0  0  0  0
  2  1  1  1  0  0  0
  2  3  1  0  0  0  0
  2  5  1  0  0  0  0
  3  4  1  0  0  0  0
  3 16  1  0  0  0  0
  5  6  1  0  0  0  0
  6  7  1  0  0  0  0
  7  8  1  0  0  0  0
  9  8  1  6  0  0  0
  9 10  1  0  0  0  0
  9 11  1  0  0  0  0
 10 15  1  0  0  0  0
 11 12  1  1  0  0  0
 11 13  1  0  0  0  0
 13 14  1  1  0  0  0
 13 15  1  0  0  0  0
 15 26  1  6  0  0  0
 17 18  2  0  0  0  0
 17 22  1  0  0  0  0
 18 19  1  0  0  0  0
 19 20  2  0  0  0  0
 20 21  1  0  0  0  0
 20 26  1  0  0  0  0
 21 22  2  0  0  0  0
 21 24  1  0  0  0  0
 22 23  1  0  0  0  0
 24 25  2  0  0  0  0
 25 26  1  0  0  0  0
M  END
>  <CHROM.1>
-62.52570445,-65.91476427,177.61652296,160.11559015,166.68014479,59.93724227
176.27823826,47.15236038,54.28378185,32.48506252,-3.03163912,-0.76441789
-2.53021499

>  <Name>
ligand

>  <RI>
0

>  <Rbt.Current_Directory>
/home/itssahil/PROJECTS/Mol_Feturizer/New_Systems/rnas/3GX3

>  <Rbt.Executable>
rbdock ($Id: //depot/dev/client3/rdock/2013.1/src/exe/rbdock.cxx#4 $)

>  <Rbt.Library>
libRbt.so (2013.1, Build901 2013/11/27)

>  <Rbt.Parameter_File>
/export/apps/rDock/src/rDock_2013.1_src/data/scripts/dock_solv.prm

>  <Rbt.Receptor>
prm/pocket_docking_8.prm

>  <SCORE>
-14.7585

>  <SCORE.INTER>
-11.3989

>  <SCORE.INTER.CONST>
1

>  <SCORE.INTER.POLAR>
0

>  <SCORE.INTER.ROT>
7

>  <SCORE.INTER.SOLV>
7.82587

>  <SCORE.INTER.VDW>
-18.4746

>  <SCORE.INTER.norm>
-0.438419

>  <SCORE.INTRA>
-3.35964

>  <SCORE.INTRA.DIHEDRAL>
-1.94479

>  <SCORE.INTRA.DIHEDRAL.0>
5.78979

>  <SCORE.INTRA.POLAR>
0

>  <SCORE.INTRA.POLAR.0>
0

>  <SCORE.INTRA.REPUL>
0

>  <SCORE.INTRA.REPUL.0>
0

>  <SCORE.INTRA.SOLV>
-0.601198

>  <SCORE.INTRA.SOLV.lig_0>
-49.9151

>  <SCORE.INTRA.VDW>
-2.08665

>  <SCORE.INTRA.VDW.0>
-0.211125

>  <SCORE.INTRA.norm>
-0.129217

>  <SCORE.RESTR>
0

>  <SCORE.RESTR.CAVITY>
0

>  <SCORE.RESTR.norm>
0

>  <SCORE.SYSTEM>
0

>  <SCORE.SYSTEM.CONST>
0

>  <SCORE.SYSTEM.DIHEDRAL>
0

>  <SCORE.SYSTEM.SOLV>
0

>  <SCORE.SYSTEM.norm>
0

>  <SCORE.heavy>
26

>  <SCORE.norm>
-0.567636

>  <RMSD>
7.442

$$$$
ligand
 OpenBabel11021811483D
libRbt.so/2013.1/901 2013/11/27
 26 28  0  0  0  0  0  0  0  0999 V2000
   48.0692   52.2228   41.9152 N   0  0  0  0  0  0  0  0  0  0  0  0
   48.0433   53.2417   40.8621 C   0  0  2  0  0  0  0  0  0  0  0  0
   47.2630   54.5055   41.2308 C   0  0  0  0  0  0  0  0  0  0  0  0
   47.8905   55.4657   41.6784 O   0  0  0  0  0  0  0  0  0  0  0  0
   47.4983   52.7615   39.5108 C   0  0  0  0  0  0  0  0  0  0  0  0
   47.5373   53.6587   38.2860 C   0  0  0  0  0  0  0  0  0  0  0  0
   46.4511   52.8982   37.0574 S   0  0  0  0  0  0  0  0  0  0  0  0
   47.4376   53.7519   35.8047 C   0  0  0  0  0  0  0  0  0  0  0  0
   47.0890   53.3779   34.3601 C   0  0  1  0  0  0  0  0  0  0  0  0
   45.9665   54.1026   33.8445 O   0  0  0  0  0  0  0  0  0  0  0  0
   48.2634   53.6511   33.4316 C   0  0  1  0  0  0  0  0  0  0  0  0
   49.0785   52.5095   33.2835 O   0  0  0  0  0  0  0  0  0  0  0  0
   47.6213   54.1041   32.1268 C   0  0  1  0  0  0  0  0  0  0  0  0
   47.3982   53.0178   31.2505 O   0  0  0  0  0  0  0  0  0  0  0  0
   46.2686   54.6312   32.5635 C   0  0  2  0  0  0  0  0  0  0  0  0
   46.0385   54.6068   41.0852 O   0  0  0  0  0  0  0  0  0  0  0  0
   49.0456   59.0899   32.7232 N   0  0  0  0  0  0  0  0  0  0  0  0
   49.5099   57.7990   32.7464 C   0  0  0  0  0  0  0  0  0  0  0  0
   48.6187   56.7470   32.7148 N   0  0  0  0  0  0  0  0  0  0  0  0
   47.2940   56.9606   32.6254 C   0  0  0  0  0  0  0  0  0  0  0  0
   46.8052   58.2556   32.5990 C   0  0  0  0  0  0  0  0  0  0  0  0
   47.6931   59.3117   32.6518 C   0  0  0  0  0  0  0  0  0  0  0  0
   47.2503   60.5535   32.6156 N   0  0  0  0  0  0  0  0  0  0  0  0
   45.4576   58.1993   32.5097 N   0  0  0  0  0  0  0  0  0  0  0  0
   45.0872   56.8939   32.5048 C   0  0  0  0  0  0  0  0  0  0  0  0
   46.2193   56.1117   32.5742 N   0  0  0  0  0  0  0  0  0  0  0  0
  2  1  1  1  0  0  0
  2  3  1  0  0  0  0
  2  5  1  0  0  0  0
  3  4  1  0  0  0  0
  3 16  1  0  0  0  0
  5  6  1  0  0  0  0
  6  7  1  0  0  0  0
  7  8  1  0  0  0  0
  9  8  1  1  0  0  0
  9 10  1  0  0  0  0
  9 11  1  0  0  0  0
 10 15  1  0  0  0  0
 11 12  1  6  0  0  0
 11 13  1  0  0  0  0
 13 14  1  6  0  0  0
 13 15  1  0  0  0  0
 15 26  1  1  0  0  0
 17 18  2  0  0  0  0
 17 22  1  0  0  0  0
 18 19  1  0  0  0  0
 19 20  2  0  0  0  0
 20 21  1  0  0  0  0
 20 26  1  0  0  0  0
 21 22  2  0  0  0  0
 21 24  1  0  0  0  0
 22 23  1  0  0  0  0
 24 25  2  0  0  0  0
 25 26  1  0  0  0  0
M  END
>  <CHROM.1>
95.60242699,-173.82420433,-166.10675275,-154.94150782,173.43935860,82.97534687
101.60923208,47.29809662,55.12786749,35.33640304,-1.01961508,-1.56133999
-0.60393770

>  <Name>
ligand

>  <RI>
0

>  <Rbt.Current_Directory>
/home/itssahil/PROJECTS/Mol_Feturizer/New_Systems/rnas/3GX3

>  <Rbt.Executable>
rbdock ($Id: //depot/dev/client3/rdock/2013.1/src/exe/rbdock.cxx#4 $)

>  <Rbt.Library>
libRbt.so (2013.1, Build901 2013/11/27)

>  <Rbt.Parameter_File>
/export/apps/rDock/src/rDock_2013.1_src/data/scripts/dock_solv.prm

>  <Rbt.Receptor>
prm/pocket_docking_8.prm

>  <SCORE>
-14.1531

>  <SCORE.INTER>
-12.1183

>  <SCORE.INTER.CONST>
1

>  <SCORE.INTER.POLAR>
0

>  <SCORE.INTER.ROT>
7

>  <SCORE.INTER.SOLV>
20.2953

>  <SCORE.INTER.VDW>
-23.1106

>  <SCORE.INTER.norm>
-0.466089

>  <SCORE.INTRA>
-2.03477

>  <SCORE.INTRA.DIHEDRAL>
0.563122

>  <SCORE.INTRA.DIHEDRAL.0>
5.78979

>  <SCORE.INTRA.POLAR>
0

>  <SCORE.INTRA.POLAR.0>
0

>  <SCORE.INTRA.REPUL>
0

>  <SCORE.INTRA.REPUL.0>
0

>  <SCORE.INTRA.SOLV>
-1.19684

>  <SCORE.INTRA.SOLV.lig_0>
-49.9151

>  <SCORE.INTRA.VDW>
-1.71791

>  <SCORE.INTRA.VDW.0>
-0.211125

>  <SCORE.INTRA.norm>
-0.0782604

>  <SCORE.RESTR>
0

>  <SCORE.RESTR.CAVITY>
0

>  <SCORE.RESTR.norm>
0

>  <SCORE.SYSTEM>
0

>  <SCORE.SYSTEM.CONST>
0

>  <SCORE.SYSTEM.DIHEDRAL>
0

>  <SCORE.SYSTEM.SOLV>
0

>  <SCORE.SYSTEM.norm>
0

>  <SCORE.heavy>
26

>  <SCORE.norm>
-0.544349

>  <RMSD>
7.575

$$$$
ligand
 OpenBabel11021811483D
libRbt.so/2013.1/901 2013/11/27
 26 28  0  0  0  0  0  0  0  0999 V2000
   53.9507   55.0361   24.0517 N   0  0  0  0  0  0  0  0  0  0  0  0
   52.6587   54.5074   23.6056 C   0  0  2  0  0  0  0  0  0  0  0  0
   51.4687   54.9592   24.4550 C   0  0  0  0  0  0  0  0  0  0  0  0
   50.4639   55.3711   23.8748 O   0  0  0  0  0  0  0  0  0  0  0  0
   52.5832   52.9779   23.5126 C   0  0  0  0  0  0  0  0  0  0  0  0
   52.8287   52.1052   24.7312 C   0  0  0  0  0  0  0  0  0  0  0  0
   52.3119   50.4333   24.2781 S   0  0  0  0  0  0  0  0  0  0  0  0
   51.0959   50.5566   25.6113 C   0  0  0  0  0  0  0  0  0  0  0  0
   49.6640   50.8321   25.1399 C   0  0  1  0  0  0  0  0  0  0  0  0
   48.6720   50.4734   26.1085 O   0  0  0  0  0  0  0  0  0  0  0  0
   49.4716   52.3090   24.8273 C   0  0  1  0  0  0  0  0  0  0  0  0
   49.7232   52.5840   23.4670 O   0  0  0  0  0  0  0  0  0  0  0  0
   48.0366   52.6037   25.2443 C   0  0  1  0  0  0  0  0  0  0  0  0
   47.1352   52.4314   24.1694 O   0  0  0  0  0  0  0  0  0  0  0  0
   47.7404   51.5301   26.2729 C   0  0  2  0  0  0  0  0  0  0  0  0
   51.4691   54.9142   25.6915 O   0  0  0  0  0  0  0  0  0  0  0  0
   50.7051   53.5660   30.1048 N   0  0  0  0  0  0  0  0  0  0  0  0
   51.0955   53.1610   28.8533 C   0  0  0  0  0  0  0  0  0  0  0  0
   50.1680   52.6290   27.9822 N   0  0  0  0  0  0  0  0  0  0  0  0
   48.8708   52.5303   28.3230 C   0  0  0  0  0  0  0  0  0  0  0  0
   48.4561   52.9350   29.5804 C   0  0  0  0  0  0  0  0  0  0  0  0
   49.3855   53.4485   30.4630 C   0  0  0  0  0  0  0  0  0  0  0  0
   49.0105   53.8516   31.6615 N   0  0  0  0  0  0  0  0  0  0  0  0
   47.1229   52.7325   29.6736 N   0  0  0  0  0  0  0  0  0  0  0  0
   46.6948   52.1848   28.5082 C   0  0  0  0  0  0  0  0  0  0  0  0
   47.7709   52.0551   27.6578 N   0  0  0  0  0  0  0  0  0  0  0  0
  2  1  1  1  0  0  0
  2  3  1  0  0  0  0
  2  5  1  0  0  0  0
  3  4  1  0  0  0  0
  3 16  1  0  0  0  0
  5  6  1  0  0  0  0
  6  7  1  0  0  0  0
  7  8  1  0  0  0  0
  9  8  1  1  0  0  0
  9 10  1  0  0  0  0
  9 11  1  0  0  0  0
 10 15  1  0  0  0  0
 11 12  1  6  0  0  0
 11 13  1  0  0  0  0
 13 14  1  6  0  0  0
 13 15  1  0  0  0  0
 15 26  1  1  0  0  0
 17 18  2  0  0  0  0
 17 22  1  0  0  0  0
 18 19  1  0  0  0  0
 19 20  2  0  0  0  0
 20 21  1  0  0  0  0
 20 26  1  0  0  0  0
 21 22  2  0  0  0  0
 21 24  1  0  0  0  0
 22 23  1  0  0  0  0
 24 25  2  0  0  0  0
 25 26  1  0  0  0  0
M  END
>  <CHROM.1>
133.02376563,59.24970141,168.50465075,-118.67362661,102.77018297,159.57630932
55.51453338,50.07192308,52.68537322,26.26112232,-0.87147133,0.56070484,1.18560281

>  <Name>
ligand

>  <RI>
0

>  <Rbt.Current_Directory>
/home/itssahil/PROJECTS/Mol_Feturizer/New_Systems/rnas/3GX3

>  <Rbt.Executable>
rbdock ($Id: //depot/dev/client3/rdock/2013.1/src/exe/rbdock.cxx#4 $)

>  <Rbt.Library>
libRbt.so (2013.1, Build901 2013/11/27)

>  <Rbt.Parameter_File>
/export/apps/rDock/src/rDock_2013.1_src/data/scripts/dock_solv.prm

>  <Rbt.Receptor>
prm/pocket_docking_8.prm

>  <SCORE>
-13.7852

>  <SCORE.INTER>
-10.7816

>  <SCORE.INTER.CONST>
1

>  <SCORE.INTER.POLAR>
0

>  <SCORE.INTER.ROT>
7

>  <SCORE.INTER.SOLV>
11.5401

>  <SCORE.INTER.VDW>
-19.3011

>  <SCORE.INTER.norm>
-0.414676

>  <SCORE.INTRA>
-3.00363

>  <SCORE.INTRA.DIHEDRAL>
3.19919

>  <SCORE.INTRA.DIHEDRAL.0>
5.78979

>  <SCORE.INTRA.POLAR>
0

>  <SCORE.INTRA.POLAR.0>
0

>  <SCORE.INTRA.REPUL>
0

>  <SCORE.INTRA.REPUL.0>
0

>  <SCORE.INTRA.SOLV>
0.403351

>  <SCORE.INTRA.SOLV.lig_0>
-49.9151

>  <SCORE.INTRA.VDW>
-4.8049

>  <SCORE.INTRA.VDW.0>
-0.211125

>  <SCORE.INTRA.norm>
-0.115524

>  <SCORE.RESTR>
0

>  <SCORE.RESTR.CAVITY>
0

>  <SCORE.RESTR.norm>
0

>  <SCORE.SYSTEM>
0

>  <SCORE.SYSTEM.CONST>
0

>  <SCORE.SYSTEM.DIHEDRAL>
0

>  <SCORE.SYSTEM.SOLV>
0

>  <SCORE.SYSTEM.norm>
0

>  <SCORE.heavy>
26

>  <SCORE.norm>
-0.530201

>  <RMSD>
7.728

$$$$
ligand
 OpenBabel11021811483D
libRbt.so/2013.1/901 2013/11/27
 26 28  0  0  0  0  0  0  0  0999 V2000
   48.5616   54.4994   40.0857 N   0  0  0  0  0  0  0  0  0  0  0  0
   47.7590   54.5309   38.8599 C   0  0  2  0  0  0  0  0  0  0  0  0
   46.6758   53.4520   38.7912 C   0  0  0  0  0  0  0  0  0  0  0  0
   47.0174   52.2766   38.9245 O   0  0  0  0  0  0  0  0  0  0  0  0
   48.5638   54.4361   37.5573 C   0  0  0  0  0  0  0  0  0  0  0  0
   47.8820   54.5460   36.2046 C   0  0  0  0  0  0  0  0  0  0  0  0
   49.1985   54.7268   34.9790 S   0  0  0  0  0  0  0  0  0  0  0  0
   48.0473   55.7616   34.0434 C   0  0  0  0  0  0  0  0  0  0  0  0
   47.7304   55.2446   32.6361 C   0  0  1  0  0  0  0  0  0  0  0  0
   47.1547   53.9332   32.6328 O   0  0  0  0  0  0  0  0  0  0  0  0
   46.7480   56.1669   31.9288 C   0  0  1  0  0  0  0  0  0  0  0  0
   47.4189   57.1446   31.1650 O   0  0  0  0  0  0  0  0  0  0  0  0
   45.8866   55.2341   31.0874 C   0  0  1  0  0  0  0  0  0  0  0  0
   46.4120   55.0717   29.7854 O   0  0  0  0  0  0  0  0  0  0  0  0
   46.0048   53.9030   31.8032 C   0  0  2  0  0  0  0  0  0  0  0  0
   45.4777   53.7112   38.6231 O   0  0  0  0  0  0  0  0  0  0  0  0
   44.0996   52.3052   36.4330 N   0  0  0  0  0  0  0  0  0  0  0  0
   45.4107   52.4866   36.0712 C   0  0  0  0  0  0  0  0  0  0  0  0
   45.7203   52.8976   34.7917 N   0  0  0  0  0  0  0  0  0  0  0  0
   44.7549   53.1609   33.8933 C   0  0  0  0  0  0  0  0  0  0  0  0
   43.4258   52.9859   34.2391 C   0  0  0  0  0  0  0  0  0  0  0  0
   43.1126   52.5542   35.5126 C   0  0  0  0  0  0  0  0  0  0  0  0
   41.8526   52.3925   35.8674 N   0  0  0  0  0  0  0  0  0  0  0  0
   42.6628   53.3120   33.1720 N   0  0  0  0  0  0  0  0  0  0  0  0
   43.4870   53.6647   32.1534 C   0  0  0  0  0  0  0  0  0  0  0  0
   44.7914   53.5775   32.5882 N   0  0  0  0  0  0  0  0  0  0  0  0
  2  1  1  1  0  0  0
  2  3  1  0  0  0  0
  2  5  1  0  0  0  0
  3  4  1  0  0  0  0
  3 16  1  0  0  0  0
  5  6  1  0  0  0  0
  6  7  1  0  0  0  0
  7  8  1  0  0  0  0
  9  8  1  1  0  0  0
  9 10  1  0  0  0  0
  9 11  1  0  0  0  0
 10 15  1  0  0  0  0
 11 12  1  6  0  0  0
 11 13  1  0  0  0  0
 13 14  1  6  0  0  0
 13 15  1  0  0  0  0
 15 26  1  1  0  0  0
 17 18  2  0  0  0  0
 17 22  1  0  0  0  0
 18 19  1  0  0  0  0
 19 20  2  0  0  0  0
 20 21  1  0  0  0  0
 20 26  1  0  0  0  0
 21 22  2  0  0  0  0
 21 24  1  0  0  0  0
 22 23  1  0  0  0  0
 24 25  2  0  0  0  0
 25 26  1  0  0  0  0
M  END
>  <CHROM.1>
-55.41878298,-176.00389486,168.56658694,-147.08364768,-120.49261191,59.08584896
-9.14789951,46.20500758,54.06246754,34.76767551,-1.40496807,-0.43839261,-1.31043358

>  <Name>
ligand

>  <RI>
0

>  <Rbt.Current_Directory>
/home/itssahil/PROJECTS/Mol_Feturizer/New_Systems/rnas/3GX3

>  <Rbt.Executable>
rbdock ($Id: //depot/dev/client3/rdock/2013.1/src/exe/rbdock.cxx#4 $)

>  <Rbt.Library>
libRbt.so (2013.1, Build901 2013/11/27)

>  <Rbt.Parameter_File>
/export/apps/rDock/src/rDock_2013.1_src/data/scripts/dock_solv.prm

>  <Rbt.Receptor>
prm/pocket_docking_8.prm

>  <SCORE>
-14.3178

>  <SCORE.INTER>
-11.0151

>  <SCORE.INTER.CONST>
1

>  <SCORE.INTER.POLAR>
0

>  <SCORE.INTER.ROT>
7

>  <SCORE.INTER.SOLV>
9.66009

>  <SCORE.INTER.VDW>
-18.8301

>  <SCORE.INTER.norm>
-0.423658

>  <SCORE.INTRA>
-3.31497

>  <SCORE.INTRA.DIHEDRAL>
1.36277

>  <SCORE.INTRA.DIHEDRAL.0>
5.78979

>  <SCORE.INTRA.POLAR>
0

>  <SCORE.INTRA.POLAR.0>
0

>  <SCORE.INTRA.REPUL>
0

>  <SCORE.INTRA.REPUL.0>
0

>  <SCORE.INTRA.SOLV>
-1.03711

>  <SCORE.INTRA.SOLV.lig_0>
-49.9151

>  <SCORE.INTRA.VDW>
-3.4778

>  <SCORE.INTRA.VDW.0>
-0.211125

>  <SCORE.INTRA.norm>
-0.127499

>  <SCORE.RESTR>
0.0122274

>  <SCORE.RESTR.CAVITY>
0.0122274

>  <SCORE.RESTR.norm>
0.000470284

>  <SCORE.SYSTEM>
0

>  <SCORE.SYSTEM.CONST>
0

>  <SCORE.SYSTEM.DIHEDRAL>
0

>  <SCORE.SYSTEM.SOLV>
0

>  <SCORE.SYSTEM.norm>
0

>  <SCORE.heavy>
26

>  <SCORE.norm>
-0.550686

>  <RMSD>
7.852

$$$$
ligand
 OpenBabel11021811483D
libRbt.so/2013.1/901 2013/11/27
 26 28  0  0  0  0  0  0  0  0999 V2000
   47.3588   54.0995   41.9170 N   0  0  0  0  0  0  0  0  0  0  0  0
   46.9669   53.5524   40.6152 C   0  0  2  0  0  0  0  0  0  0  0  0
   47.0806   52.0297   40.5145 C   0  0  0  0  0  0  0  0  0  0  0  0
   46.0615   51.3864   40.2623 O   0  0  0  0  0  0  0  0  0  0  0  0
   47.7238   54.1349   39.4145 C   0  0  0  0  0  0  0  0  0  0  0  0
   47.4083   53.6890   37.9974 C   0  0  0  0  0  0  0  0  0  0  0  0
   48.5553   54.5711   36.9140 S   0  0  0  0  0  0  0  0  0  0  0  0
   47.7389   53.7328   35.5348 C   0  0  0  0  0  0  0  0  0  0  0  0
   48.4524   53.8870   34.1874 C   0  0  1  0  0  0  0  0  0  0  0  0
   47.8778   53.0849   33.1493 O   0  0  0  0  0  0  0  0  0  0  0  0
   48.4079   55.3324   33.7133 C   0  0  1  0  0  0  0  0  0  0  0  0
   49.5486   56.0473   34.1343 O   0  0  0  0  0  0  0  0  0  0  0  0
   48.2862   55.2337   32.1982 C   0  0  1  0  0  0  0  0  0  0  0  0
   49.5529   55.2435   31.5714 O   0  0  0  0  0  0  0  0  0  0  0  0
   47.6738   53.8639   31.9818 C   0  0  2  0  0  0  0  0  0  0  0  0
   48.1495   51.4236   40.6604 O   0  0  0  0  0  0  0  0  0  0  0  0
   43.9137   52.4421   28.5968 N   0  0  0  0  0  0  0  0  0  0  0  0
   45.2534   52.1495   28.5499 C   0  0  0  0  0  0  0  0  0  0  0  0
   46.0971   52.6313   29.5288 N   0  0  0  0  0  0  0  0  0  0  0  0
   45.6254   53.3586   30.5569 C   0  0  0  0  0  0  0  0  0  0  0  0
   44.2766   53.6634   30.6236 C   0  0  0  0  0  0  0  0  0  0  0  0
   43.4320   53.2007   29.6341 C   0  0  0  0  0  0  0  0  0  0  0  0
   42.1416   53.4686   29.6842 N   0  0  0  0  0  0  0  0  0  0  0  0
   44.0616   54.3976   31.7379 N   0  0  0  0  0  0  0  0  0  0  0  0
   45.2531   54.5822   32.3604 C   0  0  0  0  0  0  0  0  0  0  0  0
   46.2348   53.9397   31.6382 N   0  0  0  0  0  0  0  0  0  0  0  0
  2  1  1  1  0  0  0
  2  3  1  0  0  0  0
  2  5  1  0  0  0  0
  3  4  1  0  0  0  0
  3 16  1  0  0  0  0
  5  6  1  0  0  0  0
  6  7  1  0  0  0  0
  7  8  1  0  0  0  0
  9  8  1  1  0  0  0
  9 10  1  0  0  0  0
  9 11  1  0  0  0  0
 10 15  1  0  0  0  0
 11 12  1  6  0  0  0
 11 13  1  0  0  0  0
 13 14  1  6  0  0  0
 13 15  1  0  0  0  0
 15 26  1  1  0  0  0
 17 18  2  0  0  0  0
 17 22  1  0  0  0  0
 18 19  1  0  0  0  0
 19 20  2  0  0  0  0
 20 21  1  0  0  0  0
 20 26  1  0  0  0  0
 21 22  2  0  0  0  0
 21 24  1  0  0  0  0
 22 23  1  0  0  0  0
 24 25  2  0  0  0  0
 25 26  1  0  0  0  0
M  END
>  <CHROM.1>
120.22278372,-178.68683401,-178.10923784,-178.94903746,-169.74932186,172.90666295
-110.87194991,46.82317646,53.70384221,34.38530780,1.28658006,0.48781734,1.73759471

>  <Name>
ligand

>  <RI>
0

>  <Rbt.Current_Directory>
/home/itssahil/PROJECTS/Mol_Feturizer/New_Systems/rnas/3GX3

>  <Rbt.Executable>
rbdock ($Id: //depot/dev/client3/rdock/2013.1/src/exe/rbdock.cxx#4 $)

>  <Rbt.Library>
libRbt.so (2013.1, Build901 2013/11/27)

>  <Rbt.Parameter_File>
/export/apps/rDock/src/rDock_2013.1_src/data/scripts/dock_solv.prm

>  <Rbt.Receptor>
prm/pocket_docking_8.prm

>  <SCORE>
-17.5824

>  <SCORE.INTER>
-13.6726

>  <SCORE.INTER.CONST>
1

>  <SCORE.INTER.POLAR>
0

>  <SCORE.INTER.ROT>
7

>  <SCORE.INTER.SOLV>
12.7822

>  <SCORE.INTER.VDW>
-21.6425

>  <SCORE.INTER.norm>
-0.52587

>  <SCORE.INTRA>
-3.90977

>  <SCORE.INTRA.DIHEDRAL>
-2.62742

>  <SCORE.INTRA.DIHEDRAL.0>
5.78979

>  <SCORE.INTRA.POLAR>
0

>  <SCORE.INTRA.POLAR.0>
0

>  <SCORE.INTRA.REPUL>
0

>  <SCORE.INTRA.REPUL.0>
0

>  <SCORE.INTRA.SOLV>
-1.01406

>  <SCORE.INTRA.SOLV.lig_0>
-49.9151

>  <SCORE.INTRA.VDW>
-2.08903

>  <SCORE.INTRA.VDW.0>
-0.211125

>  <SCORE.INTRA.norm>
-0.150376

>  <SCORE.RESTR>
0

>  <SCORE.RESTR.CAVITY>
0

>  <SCORE.RESTR.norm>
0

>  <SCORE.SYSTEM>
0

>  <SCORE.SYSTEM.CONST>
0

>  <SCORE.SYSTEM.DIHEDRAL>
0

>  <SCORE.SYSTEM.SOLV>
0

>  <SCORE.SYSTEM.norm>
0

>  <SCORE.heavy>
26

>  <SCORE.norm>
-0.676245

>  <RMSD>
8.277

$$$$
ligand
 OpenBabel11021811483D
libRbt.so/2013.1/901 2013/11/27
 26 28  0  0  0  0  0  0  0  0999 V2000
   46.9156   55.9579   19.4183 N   0  0  0  0  0  0  0  0  0  0  0  0
   46.8008   54.5085   19.6022 C   0  0  2  0  0  0  0  0  0  0  0  0
   45.4657   54.0553   20.1972 C   0  0  0  0  0  0  0  0  0  0  0  0
   44.8703   54.8304   20.9460 O   0  0  0  0  0  0  0  0  0  0  0  0
   47.9061   53.8755   20.4573 C   0  0  0  0  0  0  0  0  0  0  0  0
   48.2837   54.4588   21.8078 C   0  0  0  0  0  0  0  0  0  0  0  0
   49.2847   53.2084   22.6456 S   0  0  0  0  0  0  0  0  0  0  0  0
   48.3768   53.6352   24.1506 C   0  0  0  0  0  0  0  0  0  0  0  0
   49.0793   53.2305   25.4510 C   0  0  1  0  0  0  0  0  0  0  0  0
   48.4222   53.7229   26.6244 O   0  0  0  0  0  0  0  0  0  0  0  0
   49.1501   51.7157   25.5795 C   0  0  1  0  0  0  0  0  0  0  0  0
   50.3539   51.2099   25.0462 O   0  0  0  0  0  0  0  0  0  0  0  0
   48.9962   51.4515   27.0716 C   0  0  1  0  0  0  0  0  0  0  0  0
   50.2490   51.3971   27.7236 O   0  0  0  0  0  0  0  0  0  0  0  0
   48.2664   52.6814   27.5745 C   0  0  2  0  0  0  0  0  0  0  0  0
   44.9563   52.9557   19.9471 O   0  0  0  0  0  0  0  0  0  0  0  0
   43.5414   51.7262   25.4816 N   0  0  0  0  0  0  0  0  0  0  0  0
   44.7286   51.9504   24.8313 C   0  0  0  0  0  0  0  0  0  0  0  0
   45.8732   52.2042   25.5576 N   0  0  0  0  0  0  0  0  0  0  0  0
   45.8582   52.2016   26.9023 C   0  0  0  0  0  0  0  0  0  0  0  0
   44.6708   51.9758   27.5775 C   0  0  0  0  0  0  0  0  0  0  0  0
   43.5185   51.7424   26.8537 C   0  0  0  0  0  0  0  0  0  0  0  0
   42.3787   51.5126   27.4763 N   0  0  0  0  0  0  0  0  0  0  0  0
   44.9207   52.0268   28.9050 N   0  0  0  0  0  0  0  0  0  0  0  0
   46.2374   52.3055   29.0781 C   0  0  0  0  0  0  0  0  0  0  0  0
   46.8337   52.4149   27.8409 N   0  0  0  0  0  0  0  0  0  0  0  0
  2  1  1  1  0  0  0
  2  3  1  0  0  0  0
  2  5  1  0  0  0  0
  3  4  1  0  0  0  0
  3 16  1  0  0  0  0
  5  6  1  0  0  0  0
  6  7  1  0  0  0  0
  7  8  1  0  0  0  0
  9  8  1  6  0  0  0
  9 10  1  0  0  0  0
  9 11  1  0  0  0  0
 10 15  1  0  0  0  0
 11 12  1  1  0  0  0
 11 13  1  0  0  0  0
 13 14  1  1  0  0  0
 13 15  1  0  0  0  0
 15 26  1  6  0  0  0
 17 18  2  0  0  0  0
 17 22  1  0  0  0  0
 18 19  1  0  0  0  0
 19 20  2  0  0  0  0
 20 21  1  0  0  0  0
 20 26  1  0  0  0  0
 21 22  2  0  0  0  0
 21 24  1  0  0  0  0
 22 23  1  0  0  0  0
 24 25  2  0  0  0  0
 25 26  1  0  0  0  0
M  END
>  <CHROM.1>
-29.20739058,49.39894659,165.80528443,-138.91078296,-159.75426597,172.80210423
50.37368397,46.94638316,52.84098097,24.63559412,1.50573076,-0.01558168,-1.25721139

>  <Name>
ligand

>  <RI>
0

>  <Rbt.Current_Directory>
/home/itssahil/PROJECTS/Mol_Feturizer/New_Systems/rnas/3GX3

>  <Rbt.Executable>
rbdock ($Id: //depot/dev/client3/rdock/2013.1/src/exe/rbdock.cxx#4 $)

>  <Rbt.Library>
libRbt.so (2013.1, Build901 2013/11/27)

>  <Rbt.Parameter_File>
/export/apps/rDock/src/rDock_2013.1_src/data/scripts/dock_solv.prm

>  <Rbt.Receptor>
prm/pocket_docking_8.prm

>  <SCORE>
-12.5856

>  <SCORE.INTER>
-9.71901

>  <SCORE.INTER.CONST>
1

>  <SCORE.INTER.POLAR>
0

>  <SCORE.INTER.ROT>
7

>  <SCORE.INTER.SOLV>
19.094

>  <SCORE.INTER.VDW>
-21.1107

>  <SCORE.INTER.norm>
-0.373808

>  <SCORE.INTRA>
-2.86655

>  <SCORE.INTRA.DIHEDRAL>
0.866427

>  <SCORE.INTRA.DIHEDRAL.0>
5.78979

>  <SCORE.INTRA.POLAR>
0

>  <SCORE.INTRA.POLAR.0>
0

>  <SCORE.INTRA.REPUL>
0

>  <SCORE.INTRA.REPUL.0>
0

>  <SCORE.INTRA.SOLV>
-0.247031

>  <SCORE.INTRA.SOLV.lig_0>
-49.9151

>  <SCORE.INTRA.VDW>
-3.17625

>  <SCORE.INTRA.VDW.0>
-0.211125

>  <SCORE.INTRA.norm>
-0.110252

>  <SCORE.RESTR>
0

>  <SCORE.RESTR.CAVITY>
0

>  <SCORE.RESTR.norm>
0

>  <SCORE.SYSTEM>
0

>  <SCORE.SYSTEM.CONST>
0

>  <SCORE.SYSTEM.DIHEDRAL>
0

>  <SCORE.SYSTEM.SOLV>
0

>  <SCORE.SYSTEM.norm>
0

>  <SCORE.heavy>
26

>  <SCORE.norm>
-0.48406

>  <RMSD>
8.330

$$$$
ligand
 OpenBabel11021811483D
libRbt.so/2013.1/901 2013/11/27
 26 28  0  0  0  0  0  0  0  0999 V2000
   49.3215   54.5073   18.7401 N   0  0  0  0  0  0  0  0  0  0  0  0
   49.1973   53.3042   19.5677 C   0  0  2  0  0  0  0  0  0  0  0  0
   47.7561   52.8380   19.7851 C   0  0  0  0  0  0  0  0  0  0  0  0
   46.9112   53.6823   20.0838 O   0  0  0  0  0  0  0  0  0  0  0  0
   49.8462   53.4033   20.9544 C   0  0  0  0  0  0  0  0  0  0  0  0
   51.3557   53.3666   21.1182 C   0  0  0  0  0  0  0  0  0  0  0  0
   51.6919   53.7140   22.8600 S   0  0  0  0  0  0  0  0  0  0  0  0
   53.3741   53.1273   22.5480 C   0  0  0  0  0  0  0  0  0  0  0  0
   53.7360   51.8258   23.2716 C   0  0  1  0  0  0  0  0  0  0  0  0
   53.4044   51.8435   24.6647 O   0  0  0  0  0  0  0  0  0  0  0  0
   53.0077   50.6416   22.6526 C   0  0  1  0  0  0  0  0  0  0  0  0
   53.7855   50.0262   21.6498 O   0  0  0  0  0  0  0  0  0  0  0  0
   52.7066   49.7215   23.8286 C   0  0  1  0  0  0  0  0  0  0  0  0
   53.7348   48.7717   24.0243 O   0  0  0  0  0  0  0  0  0  0  0  0
   52.7102   50.6589   25.0201 C   0  0  2  0  0  0  0  0  0  0  0  0
   47.4043   51.6584   19.6596 O   0  0  0  0  0  0  0  0  0  0  0  0
   49.3436   54.4168   26.4905 N   0  0  0  0  0  0  0  0  0  0  0  0
   50.6498   54.5548   26.0936 C   0  0  0  0  0  0  0  0  0  0  0  0
   51.3883   53.4390   25.7594 N   0  0  0  0  0  0  0  0  0  0  0  0
   50.8407   52.2110   25.7802 C   0  0  0  0  0  0  0  0  0  0  0  0
   49.5238   52.0505   26.1760 C   0  0  0  0  0  0  0  0  0  0  0  0
   48.7873   53.1629   26.5317 C   0  0  0  0  0  0  0  0  0  0  0  0
   47.5274   53.0347   26.9001 N   0  0  0  0  0  0  0  0  0  0  0  0
   49.2185   50.7352   26.1129 N   0  0  0  0  0  0  0  0  0  0  0  0
   50.3253   50.0620   25.7092 C   0  0  0  0  0  0  0  0  0  0  0  0
   51.3418   50.9673   25.4964 N   0  0  0  0  0  0  0  0  0  0  0  0
  2  1  1  1  0  0  0
  2  3  1  0  0  0  0
  2  5  1  0  0  0  0
  3  4  1  0  0  0  0
  3 16  1  0  0  0  0
  5  6  1  0  0  0  0
  6  7  1  0  0  0  0
  7  8  1  0  0  0  0
  9  8  1  6  0  0  0
  9 10  1  0  0  0  0
  9 11  1  0  0  0  0
 10 15  1  0  0  0  0
 11 12  1  6  0  0  0
 11 13  1  0  0  0  0
 13 14  1  1  0  0  0
 13 15  1  0  0  0  0
 15 26  1  6  0  0  0
 17 18  2  0  0  0  0
 17 22  1  0  0  0  0
 18 19  1  0  0  0  0
 19 20  2  0  0  0  0
 20 21  1  0  0  0  0
 20 26  1  0  0  0  0
 21 22  2  0  0  0  0
 21 24  1  0  0  0  0
 22 23  1  0  0  0  0
 24 25  2  0  0  0  0
 25 26  1  0  0  0  0
M  END
>  <CHROM.1>
-45.73243198,-73.46092985,173.18038895,166.13017821,-113.24031075,-48.88632969
-10.02323429,50.79573447,52.26976891,23.40743922,-2.14679455,-0.48932007
1.62827023

>  <Name>
ligand

>  <RI>
0

>  <Rbt.Current_Directory>
/home/itssahil/PROJECTS/Mol_Feturizer/New_Systems/rnas/3GX3

>  <Rbt.Executable>
rbdock ($Id: //depot/dev/client3/rdock/2013.1/src/exe/rbdock.cxx#4 $)

>  <Rbt.Library>
libRbt.so (2013.1, Build901 2013/11/27)

>  <Rbt.Parameter_File>
/export/apps/rDock/src/rDock_2013.1_src/data/scripts/dock_solv.prm

>  <Rbt.Receptor>
prm/blind_docking_80.prm

>  <SCORE>
-13.7297

>  <SCORE.INTER>
-10.5324

>  <SCORE.INTER.CONST>
1

>  <SCORE.INTER.POLAR>
0

>  <SCORE.INTER.ROT>
7

>  <SCORE.INTER.SOLV>
7.74031

>  <SCORE.INTER.VDW>
-17.8684

>  <SCORE.INTER.norm>
-0.405091

>  <SCORE.INTRA>
-3.19738

>  <SCORE.INTRA.DIHEDRAL>
1.00828

>  <SCORE.INTRA.DIHEDRAL.0>
5.78979

>  <SCORE.INTRA.POLAR>
0

>  <SCORE.INTRA.POLAR.0>
0

>  <SCORE.INTRA.REPUL>
0

>  <SCORE.INTRA.REPUL.0>
0

>  <SCORE.INTRA.SOLV>
-0.159278

>  <SCORE.INTRA.SOLV.lig_0>
-49.9151

>  <SCORE.INTRA.VDW>
-3.62188

>  <SCORE.INTRA.VDW.0>
-0.211125

>  <SCORE.INTRA.norm>
-0.122976

>  <SCORE.RESTR>
0

>  <SCORE.RESTR.CAVITY>
0

>  <SCORE.RESTR.norm>
0

>  <SCORE.SYSTEM>
0

>  <SCORE.SYSTEM.CONST>
0

>  <SCORE.SYSTEM.DIHEDRAL>
0

>  <SCORE.SYSTEM.SOLV>
0

>  <SCORE.SYSTEM.norm>
0

>  <SCORE.heavy>
26

>  <SCORE.norm>
-0.528067

>  <RMSD>
10.054

$$$$
ligand
 OpenBabel11021811483D
libRbt.so/2013.1/901 2013/11/27
 26 28  0  0  0  0  0  0  0  0999 V2000
   48.9921   55.2672   18.7339 N   0  0  0  0  0  0  0  0  0  0  0  0
   47.7655   54.8962   19.4450 C   0  0  2  0  0  0  0  0  0  0  0  0
   46.5659   55.7955   19.1381 C   0  0  0  0  0  0  0  0  0  0  0  0
   45.4436   55.3911   19.4432 O   0  0  0  0  0  0  0  0  0  0  0  0
   47.8964   54.8359   20.9723 C   0  0  0  0  0  0  0  0  0  0  0  0
   48.7288   53.7590   21.6460 C   0  0  0  0  0  0  0  0  0  0  0  0
   48.8974   54.2484   23.3780 S   0  0  0  0  0  0  0  0  0  0  0  0
   47.5583   53.0854   23.7321 C   0  0  0  0  0  0  0  0  0  0  0  0
   47.8458   52.1202   24.8871 C   0  0  1  0  0  0  0  0  0  0  0  0
   48.8433   51.1425   24.5708 O   0  0  0  0  0  0  0  0  0  0  0  0
   48.3323   52.8754   26.1155 C   0  0  1  0  0  0  0  0  0  0  0  0
   47.2620   53.2104   26.9708 O   0  0  0  0  0  0  0  0  0  0  0  0
   49.3472   51.9408   26.7610 C   0  0  1  0  0  0  0  0  0  0  0  0
   48.7438   51.1006   27.7241 O   0  0  0  0  0  0  0  0  0  0  0  0
   49.8064   51.0686   25.6092 C   0  0  2  0  0  0  0  0  0  0  0  0
   46.6775   56.9103   18.6131 O   0  0  0  0  0  0  0  0  0  0  0  0
   54.5572   49.3769   24.1309 N   0  0  0  0  0  0  0  0  0  0  0  0
   53.4919   48.6350   24.5749 C   0  0  0  0  0  0  0  0  0  0  0  0
   52.3198   49.2641   24.9386 N   0  0  0  0  0  0  0  0  0  0  0  0
   52.1850   50.5980   24.8331 C   0  0  0  0  0  0  0  0  0  0  0  0
   53.2475   51.3645   24.3856 C   0  0  0  0  0  0  0  0  0  0  0  0
   54.4298   50.7404   24.0406 C   0  0  0  0  0  0  0  0  0  0  0  0
   55.4508   51.4497   23.6001 N   0  0  0  0  0  0  0  0  0  0  0  0
   52.8613   52.6598   24.3731 N   0  0  0  0  0  0  0  0  0  0  0  0
   51.5846   52.7259   24.8281 C   0  0  0  0  0  0  0  0  0  0  0  0
   51.1501   51.4507   25.1162 N   0  0  0  0  0  0  0  0  0  0  0  0
  2  1  1  6  0  0  0
  2  3  1  0  0  0  0
  2  5  1  0  0  0  0
  3  4  1  0  0  0  0
  3 16  1  0  0  0  0
  5  6  1  0  0  0  0
  6  7  1  0  0  0  0
  7  8  1  0  0  0  0
  9  8  1  6  0  0  0
  9 10  1  0  0  0  0
  9 11  1  0  0  0  0
 10 15  1  0  0  0  0
 11 12  1  1  0  0  0
 11 13  1  0  0  0  0
 13 14  1  1  0  0  0
 13 15  1  0  0  0  0
 15 26  1  6  0  0  0
 17 18  2  0  0  0  0
 17 22  1  0  0  0  0
 18 19  1  0  0  0  0
 19 20  2  0  0  0  0
 20 21  1  0  0  0  0
 20 26  1  0  0  0  0
 21 22  2  0  0  0  0
 21 24  1  0  0  0  0
 22 23  1  0  0  0  0
 24 25  2  0  0  0  0
 25 26  1  0  0  0  0
M  END
>  <CHROM.1>
163.93234927,-68.73369069,168.45197733,99.18423140,130.64593976,-70.23187254
-103.94497532,49.83388102,52.67255489,23.53297957,-2.29984931,-0.38700657
2.00804139

>  <Name>
ligand

>  <RI>
0

>  <Rbt.Current_Directory>
/home/itssahil/PROJECTS/Mol_Feturizer/New_Systems/rnas/3GX3

>  <Rbt.Executable>
rbdock ($Id: //depot/dev/client3/rdock/2013.1/src/exe/rbdock.cxx#4 $)

>  <Rbt.Library>
libRbt.so (2013.1, Build901 2013/11/27)

>  <Rbt.Parameter_File>
/export/apps/rDock/src/rDock_2013.1_src/data/scripts/dock_solv.prm

>  <Rbt.Receptor>
prm/blind_docking_80.prm

>  <SCORE>
-14.0724

>  <SCORE.INTER>
-12.5609

>  <SCORE.INTER.CONST>
1

>  <SCORE.INTER.POLAR>
0

>  <SCORE.INTER.ROT>
7

>  <SCORE.INTER.SOLV>
12.7749

>  <SCORE.INTER.VDW>
-20.8989

>  <SCORE.INTER.norm>
-0.483112

>  <SCORE.INTRA>
-1.51531

>  <SCORE.INTRA.DIHEDRAL>
2.11623

>  <SCORE.INTRA.DIHEDRAL.0>
5.78979

>  <SCORE.INTRA.POLAR>
0

>  <SCORE.INTRA.POLAR.0>
0

>  <SCORE.INTRA.REPUL>
0

>  <SCORE.INTRA.REPUL.0>
0

>  <SCORE.INTRA.SOLV>
-0.294195

>  <SCORE.INTRA.SOLV.lig_0>
-49.9151

>  <SCORE.INTRA.VDW>
-2.42633

>  <SCORE.INTRA.VDW.0>
-0.211125

>  <SCORE.INTRA.norm>
-0.0582813

>  <SCORE.RESTR>
0.0038356

>  <SCORE.RESTR.CAVITY>
0.0038356

>  <SCORE.RESTR.norm>
0.000147523

>  <SCORE.SYSTEM>
0

>  <SCORE.SYSTEM.CONST>
0

>  <SCORE.SYSTEM.DIHEDRAL>
0

>  <SCORE.SYSTEM.SOLV>
0

>  <SCORE.SYSTEM.norm>
0

>  <SCORE.heavy>
26

>  <SCORE.norm>
-0.541245

>  <RMSD>
10.226

$$$$
ligand
 OpenBabel11021811483D
libRbt.so/2013.1/901 2013/11/27
 26 28  0  0  0  0  0  0  0  0999 V2000
   51.2873   52.9064   17.6634 N   0  0  0  0  0  0  0  0  0  0  0  0
   50.9373   53.8118   18.7614 C   0  0  2  0  0  0  0  0  0  0  0  0
   50.2936   55.1250   18.3109 C   0  0  0  0  0  0  0  0  0  0  0  0
   50.9116   55.8315   17.5141 O   0  0  0  0  0  0  0  0  0  0  0  0
   52.1011   54.1828   19.6896 C   0  0  0  0  0  0  0  0  0  0  0  0
   52.8445   53.1192   20.4787 C   0  0  0  0  0  0  0  0  0  0  0  0
   51.6330   52.3590   21.5841 S   0  0  0  0  0  0  0  0  0  0  0  0
   52.9385   52.3378   22.8358 C   0  0  0  0  0  0  0  0  0  0  0  0
   52.4430   52.0882   24.2643 C   0  0  1  0  0  0  0  0  0  0  0  0
   51.4368   53.0173   24.6832 O   0  0  0  0  0  0  0  0  0  0  0  0
   51.8476   50.6938   24.3951 C   0  0  1  0  0  0  0  0  0  0  0  0
   52.8155   49.7587   24.8173 O   0  0  0  0  0  0  0  0  0  0  0  0
   50.7010   50.8595   25.3840 C   0  0  1  0  0  0  0  0  0  0  0  0
   51.1199   50.6225   26.7129 O   0  0  0  0  0  0  0  0  0  0  0  0
   50.3433   52.3280   25.2669 C   0  0  2  0  0  0  0  0  0  0  0  0
   49.1794   55.4965   18.7001 O   0  0  0  0  0  0  0  0  0  0  0  0
   48.0335   55.0286   21.3952 N   0  0  0  0  0  0  0  0  0  0  0  0
   49.3176   55.1464   21.8639 C   0  0  0  0  0  0  0  0  0  0  0  0
   49.7428   54.3556   22.9108 N   0  0  0  0  0  0  0  0  0  0  0  0
   48.9297   53.4384   23.4640 C   0  0  0  0  0  0  0  0  0  0  0  0
   47.6308   53.3026   23.0045 C   0  0  0  0  0  0  0  0  0  0  0  0
   47.1948   54.1072   21.9706 C   0  0  0  0  0  0  0  0  0  0  0  0
   45.9653   53.9863   21.5088 N   0  0  0  0  0  0  0  0  0  0  0  0
   47.0275   52.3262   23.7185 N   0  0  0  0  0  0  0  0  0  0  0  0
   47.9137   51.8623   24.6355 C   0  0  0  0  0  0  0  0  0  0  0  0
   49.1020   52.5435   24.4876 N   0  0  0  0  0  0  0  0  0  0  0  0
  2  1  1  6  0  0  0
  2  3  1  0  0  0  0
  2  5  1  0  0  0  0
  3  4  1  0  0  0  0
  3 16  1  0  0  0  0
  5  6  1  0  0  0  0
  6  7  1  0  0  0  0
  7  8  1  0  0  0  0
  9  8  1  6  0  0  0
  9 10  1  0  0  0  0
  9 11  1  0  0  0  0
 10 15  1  0  0  0  0
 11 12  1  1  0  0  0
 11 13  1  0  0  0  0
 13 14  1  1  0  0  0
 13 15  1  0  0  0  0
 15 26  1  6  0  0  0
 17 18  2  0  0  0  0
 17 22  1  0  0  0  0
 18 19  1  0  0  0  0
 19 20  2  0  0  0  0
 20 21  1  0  0  0  0
 20 26  1  0  0  0  0
 21 22  2  0  0  0  0
 21 24  1  0  0  0  0
 22 23  1  0  0  0  0
 24 25  2  0  0  0  0
 25 26  1  0  0  0  0
M  END
>  <CHROM.1>
-56.51563865,-60.87365372,-61.89649244,-140.32947895,165.04118714,-55.38267221
-9.70809238,50.27558486,53.05333291,22.26416507,-1.68514447,-0.32026615,2.03590142

>  <Name>
ligand

>  <RI>
0

>  <Rbt.Current_Directory>
/home/itssahil/PROJECTS/Mol_Feturizer/New_Systems/rnas/3GX3

>  <Rbt.Executable>
rbdock ($Id: //depot/dev/client3/rdock/2013.1/src/exe/rbdock.cxx#4 $)

>  <Rbt.Library>
libRbt.so (2013.1, Build901 2013/11/27)

>  <Rbt.Parameter_File>
/export/apps/rDock/src/rDock_2013.1_src/data/scripts/dock_solv.prm

>  <Rbt.Receptor>
prm/blind_docking_80.prm

>  <SCORE>
-12.5295

>  <SCORE.INTER>
-7.92052

>  <SCORE.INTER.CONST>
1

>  <SCORE.INTER.POLAR>
0

>  <SCORE.INTER.ROT>
7

>  <SCORE.INTER.SOLV>
13.7484

>  <SCORE.INTER.VDW>
-18.1298

>  <SCORE.INTER.norm>
-0.304635

>  <SCORE.INTRA>
-4.60901

>  <SCORE.INTRA.DIHEDRAL>
-0.7208

>  <SCORE.INTRA.DIHEDRAL.0>
5.78979

>  <SCORE.INTRA.POLAR>
0

>  <SCORE.INTRA.POLAR.0>
0

>  <SCORE.INTRA.REPUL>
0

>  <SCORE.INTRA.REPUL.0>
0

>  <SCORE.INTRA.SOLV>
0.388878

>  <SCORE.INTRA.SOLV.lig_0>
-49.9151

>  <SCORE.INTRA.VDW>
-4.44305

>  <SCORE.INTRA.VDW.0>
-0.211125

>  <SCORE.INTRA.norm>
-0.17727

>  <SCORE.RESTR>
0

>  <SCORE.RESTR.CAVITY>
0

>  <SCORE.RESTR.norm>
0

>  <SCORE.SYSTEM>
0

>  <SCORE.SYSTEM.CONST>
0

>  <SCORE.SYSTEM.DIHEDRAL>
0

>  <SCORE.SYSTEM.SOLV>
0

>  <SCORE.SYSTEM.norm>
0

>  <SCORE.heavy>
26

>  <SCORE.norm>
-0.481905

>  <RMSD>
10.281

$$$$
ligand
 OpenBabel11021811483D
libRbt.so/2013.1/901 2013/11/27
 26 28  0  0  0  0  0  0  0  0999 V2000
   54.4990   48.9389   24.5082 N   0  0  0  0  0  0  0  0  0  0  0  0
   53.3985   49.2970   23.6091 C   0  0  2  0  0  0  0  0  0  0  0  0
   53.6963   49.0592   22.1270 C   0  0  0  0  0  0  0  0  0  0  0  0
   53.2492   48.0396   21.6010 O   0  0  0  0  0  0  0  0  0  0  0  0
   52.9041   50.7437   23.7364 C   0  0  0  0  0  0  0  0  0  0  0  0
   52.3666   51.2757   25.0535 C   0  0  0  0  0  0  0  0  0  0  0  0
   50.8387   50.3695   25.3883 S   0  0  0  0  0  0  0  0  0  0  0  0
   50.6197   51.4650   26.8108 C   0  0  0  0  0  0  0  0  0  0  0  0
   49.5704   52.5635   26.6093 C   0  0  1  0  0  0  0  0  0  0  0  0
   49.9780   53.5687   25.6742 O   0  0  0  0  0  0  0  0  0  0  0  0
   48.2639   51.9765   26.0950 C   0  0  1  0  0  0  0  0  0  0  0  0
   47.3893   51.6605   27.1555 O   0  0  0  0  0  0  0  0  0  0  0  0
   47.7103   53.0411   25.1567 C   0  0  1  0  0  0  0  0  0  0  0  0
   46.8481   53.9343   25.8322 O   0  0  0  0  0  0  0  0  0  0  0  0
   48.9431   53.8170   24.7367 C   0  0  2  0  0  0  0  0  0  0  0  0
   54.3507   49.8505   21.4367 O   0  0  0  0  0  0  0  0  0  0  0  0
   48.5166   54.9425   19.6211 N   0  0  0  0  0  0  0  0  0  0  0  0
   47.8756   55.5381   20.6780 C   0  0  0  0  0  0  0  0  0  0  0  0
   48.1036   55.0893   21.9619 N   0  0  0  0  0  0  0  0  0  0  0  0
   48.9754   54.0949   22.2063 C   0  0  0  0  0  0  0  0  0  0  0  0
   49.6339   53.4819   21.1539 C   0  0  0  0  0  0  0  0  0  0  0  0
   49.3923   53.9143   19.8651 C   0  0  0  0  0  0  0  0  0  0  0  0
   50.0177   53.3530   18.8486 N   0  0  0  0  0  0  0  0  0  0  0  0
   50.4425   52.5238   21.6591 N   0  0  0  0  0  0  0  0  0  0  0  0
   50.2868   52.5050   23.0070 C   0  0  0  0  0  0  0  0  0  0  0  0
   49.3787   53.4784   23.3619 N   0  0  0  0  0  0  0  0  0  0  0  0
  2  1  1  1  0  0  0
  2  3  1  0  0  0  0
  2  5  1  0  0  0  0
  3  4  1  0  0  0  0
  3 16  1  0  0  0  0
  5  6  1  0  0  0  0
  6  7  1  0  0  0  0
  7  8  1  0  0  0  0
  9  8  1  6  0  0  0
  9 10  1  0  0  0  0
  9 11  1  0  0  0  0
 10 15  1  0  0  0  0
 11 12  1  1  0  0  0
 11 13  1  0  0  0  0
 13 14  1  1  0  0  0
 13 15  1  0  0  0  0
 15 26  1  6  0  0  0
 17 18  2  0  0  0  0
 17 22  1  0  0  0  0
 18 19  1  0  0  0  0
 19 20  2  0  0  0  0
 20 21  1  0  0  0  0
 20 26  1  0  0  0  0
 21 22  2  0  0  0  0
 21 24  1  0  0  0  0
 22 23  1  0  0  0  0
 24 25  2  0  0  0  0
 25 26  1  0  0  0  0
M  END
>  <CHROM.1>
99.95021885,-59.13770022,-66.17869016,-174.45815981,103.87840443,-70.02031876
-148.10092504,50.32711022,52.11228790,23.53816415,0.27007357,-0.70202953
1.89634875

>  <Name>
ligand

>  <RI>
0

>  <Rbt.Current_Directory>
/home/itssahil/PROJECTS/Mol_Feturizer/New_Systems/rnas/3GX3

>  <Rbt.Executable>
rbdock ($Id: //depot/dev/client3/rdock/2013.1/src/exe/rbdock.cxx#4 $)

>  <Rbt.Library>
libRbt.so (2013.1, Build901 2013/11/27)

>  <Rbt.Parameter_File>
/export/apps/rDock/src/rDock_2013.1_src/data/scripts/dock_solv.prm

>  <Rbt.Receptor>
prm/blind_docking_80.prm

>  <SCORE>
-14.7067

>  <SCORE.INTER>
-11.5929

>  <SCORE.INTER.CONST>
1

>  <SCORE.INTER.POLAR>
0

>  <SCORE.INTER.ROT>
7

>  <SCORE.INTER.SOLV>
12.98

>  <SCORE.INTER.VDW>
-20.3219

>  <SCORE.INTER.norm>
-0.445879

>  <SCORE.INTRA>
-3.11381

>  <SCORE.INTRA.DIHEDRAL>
-0.355341

>  <SCORE.INTRA.DIHEDRAL.0>
5.78979

>  <SCORE.INTRA.POLAR>
0

>  <SCORE.INTRA.POLAR.0>
0

>  <SCORE.INTRA.REPUL>
0

>  <SCORE.INTRA.REPUL.0>
0

>  <SCORE.INTRA.SOLV>
0.328229

>  <SCORE.INTRA.SOLV.lig_0>
-49.9151

>  <SCORE.INTRA.VDW>
-3.10025

>  <SCORE.INTRA.VDW.0>
-0.211125

>  <SCORE.INTRA.norm>
-0.119762

>  <SCORE.RESTR>
0

>  <SCORE.RESTR.CAVITY>
0

>  <SCORE.RESTR.norm>
0

>  <SCORE.SYSTEM>
0

>  <SCORE.SYSTEM.CONST>
0

>  <SCORE.SYSTEM.DIHEDRAL>
0

>  <SCORE.SYSTEM.SOLV>
0

>  <SCORE.SYSTEM.norm>
0

>  <SCORE.heavy>
26

>  <SCORE.norm>
-0.565641

>  <RMSD>
10.423

$$$$
ligand
 OpenBabel11021811483D
libRbt.so/2013.1/901 2013/11/27
 26 28  0  0  0  0  0  0  0  0999 V2000
   55.0791   50.8819   23.3332 N   0  0  0  0  0  0  0  0  0  0  0  0
   54.3256   49.6451   23.5575 C   0  0  2  0  0  0  0  0  0  0  0  0
   53.6233   49.1032   22.3105 C   0  0  0  0  0  0  0  0  0  0  0  0
   53.9055   47.9657   21.9329 O   0  0  0  0  0  0  0  0  0  0  0  0
   53.2666   49.7247   24.6646 C   0  0  0  0  0  0  0  0  0  0  0  0
   52.0403   50.6082   24.5146 C   0  0  0  0  0  0  0  0  0  0  0  0
   51.2636   50.6899   26.1449 S   0  0  0  0  0  0  0  0  0  0  0  0
   49.7421   51.1561   25.2851 C   0  0  0  0  0  0  0  0  0  0  0  0
   49.1395   52.4893   25.7409 C   0  0  1  0  0  0  0  0  0  0  0  0
   49.8563   53.6290   25.2525 O   0  0  0  0  0  0  0  0  0  0  0  0
   47.7015   52.6255   25.2619 C   0  0  1  0  0  0  0  0  0  0  0  0
   46.7903   52.1510   26.2283 O   0  0  0  0  0  0  0  0  0  0  0  0
   47.5384   54.1096   24.9602 C   0  0  1  0  0  0  0  0  0  0  0  0
   47.0548   54.8199   26.0823 O   0  0  0  0  0  0  0  0  0  0  0  0
   48.9571   54.5738   24.6954 C   0  0  2  0  0  0  0  0  0  0  0  0
   52.7789   49.7506   21.6790 O   0  0  0  0  0  0  0  0  0  0  0  0
   51.5305   52.8469   20.4512 N   0  0  0  0  0  0  0  0  0  0  0  0
   51.5655   52.3455   21.7279 C   0  0  0  0  0  0  0  0  0  0  0  0
   50.8284   52.9501   22.7245 N   0  0  0  0  0  0  0  0  0  0  0  0
   50.0412   54.0084   22.4624 C   0  0  0  0  0  0  0  0  0  0  0  0
   49.9904   54.5285   21.1803 C   0  0  0  0  0  0  0  0  0  0  0  0
   50.7434   53.9390   20.1843 C   0  0  0  0  0  0  0  0  0  0  0  0
   50.7007   54.4103   18.9532 N   0  0  0  0  0  0  0  0  0  0  0  0
   49.1383   55.5777   21.1809 N   0  0  0  0  0  0  0  0  0  0  0  0
   48.6712   55.7437   22.4441 C   0  0  0  0  0  0  0  0  0  0  0  0
   49.2227   54.7733   23.2518 N   0  0  0  0  0  0  0  0  0  0  0  0
  2  1  1  6  0  0  0
  2  3  1  0  0  0  0
  2  5  1  0  0  0  0
  3  4  1  0  0  0  0
  3 16  1  0  0  0  0
  5  6  1  0  0  0  0
  6  7  1  0  0  0  0
  7  8  1  0  0  0  0
  9  8  1  6  0  0  0
  9 10  1  0  0  0  0
  9 11  1  0  0  0  0
 10 15  1  0  0  0  0
 11 12  1  1  0  0  0
 11 13  1  0  0  0  0
 13 14  1  1  0  0  0
 13 15  1  0  0  0  0
 15 26  1  6  0  0  0
 17 18  2  0  0  0  0
 17 22  1  0  0  0  0
 18 19  1  0  0  0  0
 19 20  2  0  0  0  0
 20 21  1  0  0  0  0
 20 26  1  0  0  0  0
 21 22  2  0  0  0  0
 21 24  1  0  0  0  0
 22 23  1  0  0  0  0
 24 25  2  0  0  0  0
 25 26  1  0  0  0  0
M  END
>  <CHROM.1>
121.59884469,66.59325754,-167.96842584,-158.69240542,-123.33144902,74.98058955
11.20308180,50.62284442,52.36484945,23.50714436,-0.18669734,0.71470234,-1.01197684

>  <Name>
ligand

>  <RI>
0

>  <Rbt.Current_Directory>
/home/itssahil/PROJECTS/Mol_Feturizer/New_Systems/rnas/3GX3

>  <Rbt.Executable>
rbdock ($Id: //depot/dev/client3/rdock/2013.1/src/exe/rbdock.cxx#4 $)

>  <Rbt.Library>
libRbt.so (2013.1, Build901 2013/11/27)

>  <Rbt.Parameter_File>
/export/apps/rDock/src/rDock_2013.1_src/data/scripts/dock_solv.prm

>  <Rbt.Receptor>
prm/blind_docking_80.prm

>  <SCORE>
-17.0675

>  <SCORE.INTER>
-14.1158

>  <SCORE.INTER.CONST>
1

>  <SCORE.INTER.POLAR>
0

>  <SCORE.INTER.ROT>
7

>  <SCORE.INTER.SOLV>
9.40602

>  <SCORE.INTER.VDW>
-20.8125

>  <SCORE.INTER.norm>
-0.542916

>  <SCORE.INTRA>
-2.95171

>  <SCORE.INTRA.DIHEDRAL>
1.49186

>  <SCORE.INTRA.DIHEDRAL.0>
5.78979

>  <SCORE.INTRA.POLAR>
0

>  <SCORE.INTRA.POLAR.0>
0

>  <SCORE.INTRA.REPUL>
0

>  <SCORE.INTRA.REPUL.0>
0

>  <SCORE.INTRA.SOLV>
-0.564179

>  <SCORE.INTRA.SOLV.lig_0>
-49.9151

>  <SCORE.INTRA.VDW>
-3.41556

>  <SCORE.INTRA.VDW.0>
-0.211125

>  <SCORE.INTRA.norm>
-0.113527

>  <SCORE.RESTR>
0

>  <SCORE.RESTR.CAVITY>
0

>  <SCORE.RESTR.norm>
0

>  <SCORE.SYSTEM>
0

>  <SCORE.SYSTEM.CONST>
0

>  <SCORE.SYSTEM.DIHEDRAL>
0

>  <SCORE.SYSTEM.SOLV>
0

>  <SCORE.SYSTEM.norm>
0

>  <SCORE.heavy>
26

>  <SCORE.norm>
-0.656443

>  <RMSD>
10.483

$$$$
ligand
 OpenBabel11021811483D
libRbt.so/2013.1/901 2013/11/27
 26 28  0  0  0  0  0  0  0  0999 V2000
   48.9554   54.0200   19.6039 N   0  0  0  0  0  0  0  0  0  0  0  0
   47.7423   53.3737   20.1123 C   0  0  2  0  0  0  0  0  0  0  0  0
   46.4459   54.1060   19.7588 C   0  0  0  0  0  0  0  0  0  0  0  0
   46.5168   55.2953   19.4476 O   0  0  0  0  0  0  0  0  0  0  0  0
   47.7211   53.1396   21.6284 C   0  0  0  0  0  0  0  0  0  0  0  0
   47.8439   54.2983   22.6025 C   0  0  0  0  0  0  0  0  0  0  0  0
   49.5826   54.7927   22.5960 S   0  0  0  0  0  0  0  0  0  0  0  0
   49.3056   55.4214   24.2692 C   0  0  0  0  0  0  0  0  0  0  0  0
   49.5641   54.3993   25.3813 C   0  0  1  0  0  0  0  0  0  0  0  0
   49.3548   53.0455   24.9636 O   0  0  0  0  0  0  0  0  0  0  0  0
   50.9973   54.4966   25.8838 C   0  0  1  0  0  0  0  0  0  0  0  0
   51.0979   55.3716   26.9854 O   0  0  0  0  0  0  0  0  0  0  0  0
   51.3826   53.0616   26.2192 C   0  0  1  0  0  0  0  0  0  0  0  0
   51.1079   52.7501   27.5702 O   0  0  0  0  0  0  0  0  0  0  0  0
   50.4506   52.2348   25.3554 C   0  0  2  0  0  0  0  0  0  0  0  0
   45.3392   53.5528   19.7584 O   0  0  0  0  0  0  0  0  0  0  0  0
   53.9129   48.6857   23.6134 N   0  0  0  0  0  0  0  0  0  0  0  0
   53.5242   48.9293   24.9065 C   0  0  0  0  0  0  0  0  0  0  0  0
   52.6076   49.9246   25.1732 N   0  0  0  0  0  0  0  0  0  0  0  0
   52.0549   50.6447   24.1809 C   0  0  0  0  0  0  0  0  0  0  0  0
   52.4322   50.4133   22.8691 C   0  0  0  0  0  0  0  0  0  0  0  0
   53.3654   49.4319   22.6000 C   0  0  0  0  0  0  0  0  0  0  0  0
   53.7303   49.1862   21.3567 N   0  0  0  0  0  0  0  0  0  0  0  0
   51.7415   51.2596   22.0729 N   0  0  0  0  0  0  0  0  0  0  0  0
   50.9555   52.0362   22.8605 C   0  0  0  0  0  0  0  0  0  0  0  0
   51.1384   51.6636   24.1742 N   0  0  0  0  0  0  0  0  0  0  0  0
  2  1  1  1  0  0  0
  2  3  1  0  0  0  0
  2  5  1  0  0  0  0
  3  4  1  0  0  0  0
  3 16  1  0  0  0  0
  5  6  1  0  0  0  0
  6  7  1  0  0  0  0
  7  8  1  0  0  0  0
  9  8  1  6  0  0  0
  9 10  1  0  0  0  0
  9 11  1  0  0  0  0
 10 15  1  0  0  0  0
 11 12  1  1  0  0  0
 11 13  1  0  0  0  0
 13 14  1  1  0  0  0
 13 15  1  0  0  0  0
 15 26  1  6  0  0  0
 17 18  2  0  0  0  0
 17 22  1  0  0  0  0
 18 19  1  0  0  0  0
 19 20  2  0  0  0  0
 20 21  1  0  0  0  0
 20 26  1  0  0  0  0
 21 22  2  0  0  0  0
 21 24  1  0  0  0  0
 22 23  1  0  0  0  0
 24 25  2  0  0  0  0
 25 26  1  0  0  0  0
M  END
>  <CHROM.1>
-20.20611384,59.12915568,-75.52304701,-154.20611417,90.01594405,-27.96290125
-166.32997218,50.22870348,52.70725906,23.28020503,-2.94882045,-0.76852075
1.04853838

>  <Name>
ligand

>  <RI>
0

>  <Rbt.Current_Directory>
/home/itssahil/PROJECTS/Mol_Feturizer/New_Systems/rnas/3GX3

>  <Rbt.Executable>
rbdock ($Id: //depot/dev/client3/rdock/2013.1/src/exe/rbdock.cxx#4 $)

>  <Rbt.Library>
libRbt.so (2013.1, Build901 2013/11/27)

>  <Rbt.Parameter_File>
/export/apps/rDock/src/rDock_2013.1_src/data/scripts/dock_solv.prm

>  <Rbt.Receptor>
prm/blind_docking_100.prm

>  <SCORE>
-15.7221

>  <SCORE.INTER>
-14.4523

>  <SCORE.INTER.CONST>
1

>  <SCORE.INTER.POLAR>
0

>  <SCORE.INTER.ROT>
7

>  <SCORE.INTER.SOLV>
14.0131

>  <SCORE.INTER.VDW>
-22.5726

>  <SCORE.INTER.norm>
-0.555857

>  <SCORE.INTRA>
-1.26984

>  <SCORE.INTRA.DIHEDRAL>
3.00593

>  <SCORE.INTRA.DIHEDRAL.0>
5.78979

>  <SCORE.INTRA.POLAR>
0

>  <SCORE.INTRA.POLAR.0>
0

>  <SCORE.INTRA.REPUL>
0

>  <SCORE.INTRA.REPUL.0>
0

>  <SCORE.INTRA.SOLV>
1.04207

>  <SCORE.INTRA.SOLV.lig_0>
-49.9151

>  <SCORE.INTRA.VDW>
-3.29384

>  <SCORE.INTRA.VDW.0>
-0.211125

>  <SCORE.INTRA.norm>
-0.04884

>  <SCORE.RESTR>
0

>  <SCORE.RESTR.CAVITY>
0

>  <SCORE.RESTR.norm>
0

>  <SCORE.SYSTEM>
0

>  <SCORE.SYSTEM.CONST>
0

>  <SCORE.SYSTEM.DIHEDRAL>
0

>  <SCORE.SYSTEM.SOLV>
0

>  <SCORE.SYSTEM.norm>
0

>  <SCORE.heavy>
26

>  <SCORE.norm>
-0.604697

>  <RMSD>
10.637

$$$$
ligand
 OpenBabel11021811483D
libRbt.so/2013.1/901 2013/11/27
 26 28  0  0  0  0  0  0  0  0999 V2000
   53.7972   51.0097   22.6166 N   0  0  0  0  0  0  0  0  0  0  0  0
   53.9607   50.6177   24.0192 C   0  0  2  0  0  0  0  0  0  0  0  0
   54.1258   49.1116   24.2347 C   0  0  0  0  0  0  0  0  0  0  0  0
   55.2172   48.6039   23.9756 O   0  0  0  0  0  0  0  0  0  0  0  0
   52.8365   51.0799   24.9552 C   0  0  0  0  0  0  0  0  0  0  0  0
   51.3777   50.9474   24.5537 C   0  0  0  0  0  0  0  0  0  0  0  0
   50.4218   50.9358   26.0879 S   0  0  0  0  0  0  0  0  0  0  0  0
   49.0249   51.5283   25.1035 C   0  0  0  0  0  0  0  0  0  0  0  0
   48.7826   53.0389   25.1918 C   0  0  1  0  0  0  0  0  0  0  0  0
   49.8413   53.8148   24.6189 O   0  0  0  0  0  0  0  0  0  0  0  0
   47.5013   53.4251   24.4671 C   0  0  1  0  0  0  0  0  0  0  0  0
   46.3967   53.4328   25.3440 O   0  0  0  0  0  0  0  0  0  0  0  0
   47.8002   54.7920   23.8653 C   0  0  1  0  0  0  0  0  0  0  0  0
   47.4240   55.8392   24.7369 O   0  0  0  0  0  0  0  0  0  0  0  0
   49.3120   54.8051   23.7524 C   0  0  2  0  0  0  0  0  0  0  0  0
   53.2190   48.3907   24.6693 O   0  0  0  0  0  0  0  0  0  0  0  0
   48.2394   55.4717   18.6512 N   0  0  0  0  0  0  0  0  0  0  0  0
   47.4757   55.8298   19.7333 C   0  0  0  0  0  0  0  0  0  0  0  0
   47.9192   55.5534   21.0096 N   0  0  0  0  0  0  0  0  0  0  0  0
   49.1111   54.9670   21.2197 C   0  0  0  0  0  0  0  0  0  0  0  0
   49.8976   54.5995   20.1412 C   0  0  0  0  0  0  0  0  0  0  0  0
   49.4474   54.8553   18.8613 C   0  0  0  0  0  0  0  0  0  0  0  0
   50.1858   54.5249   17.8196 N   0  0  0  0  0  0  0  0  0  0  0  0
   51.0305   54.0343   20.6148 N   0  0  0  0  0  0  0  0  0  0  0  0
   50.9609   54.0161   21.9699 C   0  0  0  0  0  0  0  0  0  0  0  0
   49.7732   54.5950   22.3605 N   0  0  0  0  0  0  0  0  0  0  0  0
  2  1  1  6  0  0  0
  2  3  1  0  0  0  0
  2  5  1  0  0  0  0
  3  4  1  0  0  0  0
  3 16  1  0  0  0  0
  5  6  1  0  0  0  0
  6  7  1  0  0  0  0
  7  8  1  0  0  0  0
  9  8  1  6  0  0  0
  9 10  1  0  0  0  0
  9 11  1  0  0  0  0
 10 15  1  0  0  0  0
 11 12  1  1  0  0  0
 11 13  1  0  0  0  0
 13 14  1  1  0  0  0
 13 15  1  0  0  0  0
 15 26  1  6  0  0  0
 17 18  2  0  0  0  0
 17 22  1  0  0  0  0
 18 19  1  0  0  0  0
 19 20  2  0  0  0  0
 20 21  1  0  0  0  0
 20 26  1  0  0  0  0
 21 22  2  0  0  0  0
 21 24  1  0  0  0  0
 22 23  1  0  0  0  0
 24 25  2  0  0  0  0
 25 26  1  0  0  0  0
M  END
>  <CHROM.1>
76.64783162,44.43951100,157.15360159,155.75729753,-99.44665900,66.11859978
152.33023718,50.22270618,52.90920044,23.11162924,-0.77994181,0.61010076,-1.12925019

>  <Name>
ligand

>  <RI>
0

>  <Rbt.Current_Directory>
/home/itssahil/PROJECTS/Mol_Feturizer/New_Systems/rnas/3GX3

>  <Rbt.Executable>
rbdock ($Id: //depot/dev/client3/rdock/2013.1/src/exe/rbdock.cxx#4 $)

>  <Rbt.Library>
libRbt.so (2013.1, Build901 2013/11/27)

>  <Rbt.Parameter_File>
/export/apps/rDock/src/rDock_2013.1_src/data/scripts/dock_solv.prm

>  <Rbt.Receptor>
prm/blind_docking_80.prm

>  <SCORE>
-14.3711

>  <SCORE.INTER>
-13.6016

>  <SCORE.INTER.CONST>
1

>  <SCORE.INTER.POLAR>
0

>  <SCORE.INTER.ROT>
7

>  <SCORE.INTER.SOLV>
7.68542

>  <SCORE.INTER.VDW>
-19.8962

>  <SCORE.INTER.norm>
-0.523137

>  <SCORE.INTRA>
-0.769548

>  <SCORE.INTRA.DIHEDRAL>
2.41375

>  <SCORE.INTRA.DIHEDRAL.0>
5.78979

>  <SCORE.INTRA.POLAR>
0

>  <SCORE.INTRA.POLAR.0>
0

>  <SCORE.INTRA.REPUL>
0

>  <SCORE.INTRA.REPUL.0>
0

>  <SCORE.INTRA.SOLV>
-0.330121

>  <SCORE.INTRA.SOLV.lig_0>
-49.9151

>  <SCORE.INTRA.VDW>
-1.81136

>  <SCORE.INTRA.VDW.0>
-0.211125

>  <SCORE.INTRA.norm>
-0.029598

>  <SCORE.RESTR>
0

>  <SCORE.RESTR.CAVITY>
0

>  <SCORE.RESTR.norm>
0

>  <SCORE.SYSTEM>
0

>  <SCORE.SYSTEM.CONST>
0

>  <SCORE.SYSTEM.DIHEDRAL>
0

>  <SCORE.SYSTEM.SOLV>
0

>  <SCORE.SYSTEM.norm>
0

>  <SCORE.heavy>
26

>  <SCORE.norm>
-0.552735

>  <RMSD>
10.755

$$$$
ligand
 OpenBabel11021811483D
libRbt.so/2013.1/901 2013/11/27
 26 28  0  0  0  0  0  0  0  0999 V2000
   49.5868   54.6214   18.7782 N   0  0  0  0  0  0  0  0  0  0  0  0
   50.3305   53.7222   19.6649 C   0  0  2  0  0  0  0  0  0  0  0  0
   49.8592   53.7452   21.1206 C   0  0  0  0  0  0  0  0  0  0  0  0
   49.5129   52.6819   21.6360 O   0  0  0  0  0  0  0  0  0  0  0  0
   51.8484   53.9441   19.6857 C   0  0  0  0  0  0  0  0  0  0  0  0
   52.8093   52.7778   19.8378 C   0  0  0  0  0  0  0  0  0  0  0  0
   52.4294   52.0031   21.4263 S   0  0  0  0  0  0  0  0  0  0  0  0
   54.0793   51.2662   21.3470 C   0  0  0  0  0  0  0  0  0  0  0  0
   54.4552   50.4206   22.5685 C   0  0  1  0  0  0  0  0  0  0  0  0
   54.1681   51.0681   23.8133 O   0  0  0  0  0  0  0  0  0  0  0  0
   53.6998   49.0995   22.5659 C   0  0  1  0  0  0  0  0  0  0  0  0
   54.4413   48.0841   21.9269 O   0  0  0  0  0  0  0  0  0  0  0  0
   53.4299   48.8111   24.0370 C   0  0  1  0  0  0  0  0  0  0  0  0
   54.4574   48.0295   24.6122 O   0  0  0  0  0  0  0  0  0  0  0  0
   53.4775   50.1831   24.6802 C   0  0  2  0  0  0  0  0  0  0  0  0
   49.8257   54.7782   21.8008 O   0  0  0  0  0  0  0  0  0  0  0  0
   50.2736   54.3486   24.6372 N   0  0  0  0  0  0  0  0  0  0  0  0
   51.5800   54.2778   24.2238 C   0  0  0  0  0  0  0  0  0  0  0  0
   52.2715   53.0893   24.3303 N   0  0  0  0  0  0  0  0  0  0  0  0
   51.6772   51.9790   24.8021 C   0  0  0  0  0  0  0  0  0  0  0  0
   50.3592   52.0289   25.2229 C   0  0  0  0  0  0  0  0  0  0  0  0
   49.6699   53.2222   25.1376 C   0  0  0  0  0  0  0  0  0  0  0  0
   48.4098   53.2896   25.5212 N   0  0  0  0  0  0  0  0  0  0  0  0
   50.0027   50.7970   25.6502 N   0  0  0  0  0  0  0  0  0  0  0  0
   51.0786   49.9789   25.5299 C   0  0  0  0  0  0  0  0  0  0  0  0
   52.1270   50.7000   25.0018 N   0  0  0  0  0  0  0  0  0  0  0  0
  2  1  1  6  0  0  0
  2  3  1  0  0  0  0
  2  5  1  0  0  0  0
  3  4  1  0  0  0  0
  3 16  1  0  0  0  0
  5  6  1  0  0  0  0
  6  7  1  0  0  0  0
  7  8  1  0  0  0  0
  9  8  1  6  0  0  0
  9 10  1  0  0  0  0
  9 11  1  0  0  0  0
 10 15  1  0  0  0  0
 11 12  1  1  0  0  0
 11 13  1  0  0  0  0
 13 14  1  1  0  0  0
 13 15  1  0  0  0  0
 15 26  1  6  0  0  0
 17 18  2  0  0  0  0
 17 22  1  0  0  0  0
 18 19  1  0  0  0  0
 19 20  2  0  0  0  0
 20 21  1  0  0  0  0
 20 26  1  0  0  0  0
 21 22  2  0  0  0  0
 21 24  1  0  0  0  0
 22 23  1  0  0  0  0
 24 25  2  0  0  0  0
 25 26  1  0  0  0  0
M  END
>  <CHROM.1>
123.75902003,-144.86950513,-60.47506349,-160.32481569,177.78814342,-47.22394166
-15.38392817,51.83159813,51.86113821,22.93677203,-2.44918867,-0.75566188
1.96962034

>  <Name>
ligand

>  <RI>
0

>  <Rbt.Current_Directory>
/home/itssahil/PROJECTS/Mol_Feturizer/New_Systems/rnas/3GX3

>  <Rbt.Executable>
rbdock ($Id: //depot/dev/client3/rdock/2013.1/src/exe/rbdock.cxx#4 $)

>  <Rbt.Library>
libRbt.so (2013.1, Build901 2013/11/27)

>  <Rbt.Parameter_File>
/export/apps/rDock/src/rDock_2013.1_src/data/scripts/dock_solv.prm

>  <Rbt.Receptor>
prm/blind_docking_80.prm

>  <SCORE>
-16.6654

>  <SCORE.INTER>
-12.2505

>  <SCORE.INTER.CONST>
1

>  <SCORE.INTER.POLAR>
0

>  <SCORE.INTER.ROT>
7

>  <SCORE.INTER.SOLV>
9.10452

>  <SCORE.INTER.VDW>
-19.4685

>  <SCORE.INTER.norm>
-0.471172

>  <SCORE.INTRA>
-4.41492

>  <SCORE.INTRA.DIHEDRAL>
1.64766

>  <SCORE.INTRA.DIHEDRAL.0>
5.78979

>  <SCORE.INTRA.POLAR>
0

>  <SCORE.INTRA.POLAR.0>
0

>  <SCORE.INTRA.REPUL>
0

>  <SCORE.INTRA.REPUL.0>
0

>  <SCORE.INTRA.SOLV>
-0.56262

>  <SCORE.INTRA.SOLV.lig_0>
-49.9151

>  <SCORE.INTRA.VDW>
-4.95744

>  <SCORE.INTRA.VDW.0>
-0.211125

>  <SCORE.INTRA.norm>
-0.169805

>  <SCORE.RESTR>
0

>  <SCORE.RESTR.CAVITY>
0

>  <SCORE.RESTR.norm>
0

>  <SCORE.SYSTEM>
0

>  <SCORE.SYSTEM.CONST>
0

>  <SCORE.SYSTEM.DIHEDRAL>
0

>  <SCORE.SYSTEM.SOLV>
0

>  <SCORE.SYSTEM.norm>
0

>  <SCORE.heavy>
26

>  <SCORE.norm>
-0.640977

>  <RMSD>
10.788

$$$$
ligand
 OpenBabel11021811483D
libRbt.so/2013.1/901 2013/11/27
 26 28  0  0  0  0  0  0  0  0999 V2000
   49.7609   53.7578   21.4117 N   0  0  0  0  0  0  0  0  0  0  0  0
   50.3142   54.3802   20.2058 C   0  0  2  0  0  0  0  0  0  0  0  0
   49.2615   54.9683   19.2637 C   0  0  0  0  0  0  0  0  0  0  0  0
   48.0900   54.6191   19.4110 O   0  0  0  0  0  0  0  0  0  0  0  0
   51.2080   53.4658   19.3581 C   0  0  0  0  0  0  0  0  0  0  0  0
   52.5647   53.0073   19.8639 C   0  0  0  0  0  0  0  0  0  0  0  0
   52.2549   52.0370   21.3573 S   0  0  0  0  0  0  0  0  0  0  0  0
   53.9748   51.4905   21.2374 C   0  0  0  0  0  0  0  0  0  0  0  0
   54.4356   50.5900   22.3885 C   0  0  1  0  0  0  0  0  0  0  0  0
   54.1998   51.1607   23.6807 O   0  0  0  0  0  0  0  0  0  0  0  0
   53.7131   49.2512   22.3514 C   0  0  1  0  0  0  0  0  0  0  0  0
   54.4437   48.2924   21.6190 O   0  0  0  0  0  0  0  0  0  0  0  0
   53.5291   48.8758   23.8161 C   0  0  1  0  0  0  0  0  0  0  0  0
   54.6043   48.0920   24.2926 O   0  0  0  0  0  0  0  0  0  0  0  0
   53.5780   50.2115   24.5315 C   0  0  2  0  0  0  0  0  0  0  0  0
   49.5347   55.7856   18.3757 O   0  0  0  0  0  0  0  0  0  0  0  0
   50.3055   54.3010   24.9611 N   0  0  0  0  0  0  0  0  0  0  0  0
   51.5932   54.2900   24.4877 C   0  0  0  0  0  0  0  0  0  0  0  0
   52.3088   53.1112   24.4686 N   0  0  0  0  0  0  0  0  0  0  0  0
   51.7548   51.9550   24.8745 C   0  0  0  0  0  0  0  0  0  0  0  0
   50.4560   51.9444   25.3540 C   0  0  0  0  0  0  0  0  0  0  0  0
   49.7436   53.1264   25.3946 C   0  0  0  0  0  0  0  0  0  0  0  0
   48.5007   53.1373   25.8360 N   0  0  0  0  0  0  0  0  0  0  0  0
   50.1397   50.6754   25.6957 N   0  0  0  0  0  0  0  0  0  0  0  0
   51.2229   49.8915   25.4641 C   0  0  0  0  0  0  0  0  0  0  0  0
   52.2345   50.6735   24.9512 N   0  0  0  0  0  0  0  0  0  0  0  0
  2  1  1  1  0  0  0
  2  3  1  0  0  0  0
  2  5  1  0  0  0  0
  3  4  1  0  0  0  0
  3 16  1  0  0  0  0
  5  6  1  0  0  0  0
  6  7  1  0  0  0  0
  7  8  1  0  0  0  0
  9  8  1  6  0  0  0
  9 10  1  0  0  0  0
  9 11  1  0  0  0  0
 10 15  1  0  0  0  0
 11 12  1  6  0  0  0
 11 13  1  0  0  0  0
 13 14  1  1  0  0  0
 13 15  1  0  0  0  0
 15 26  1  6  0  0  0
 17 18  2  0  0  0  0
 17 22  1  0  0  0  0
 18 19  1  0  0  0  0
 19 20  2  0  0  0  0
 20 21  1  0  0  0  0
 20 26  1  0  0  0  0
 21 22  2  0  0  0  0
 21 24  1  0  0  0  0
 22 23  1  0  0  0  0
 24 25  2  0  0  0  0
 25 26  1  0  0  0  0
M  END
>  <CHROM.1>
-16.34227535,-68.65625815,62.18565000,167.43163551,176.64696666,-53.31360451
-16.95218264,51.73596563,52.02711361,22.72325550,2.33221952,0.74611920,-1.25484639

>  <Name>
ligand

>  <RI>
0

>  <Rbt.Current_Directory>
/home/itssahil/PROJECTS/Mol_Feturizer/New_Systems/rnas/3GX3

>  <Rbt.Executable>
rbdock ($Id: //depot/dev/client3/rdock/2013.1/src/exe/rbdock.cxx#4 $)

>  <Rbt.Library>
libRbt.so (2013.1, Build901 2013/11/27)

>  <Rbt.Parameter_File>
/export/apps/rDock/src/rDock_2013.1_src/data/scripts/dock_solv.prm

>  <Rbt.Receptor>
prm/blind_docking_80.prm

>  <SCORE>
-16.9526

>  <SCORE.INTER>
-12.9533

>  <SCORE.INTER.CONST>
1

>  <SCORE.INTER.POLAR>
0

>  <SCORE.INTER.ROT>
7

>  <SCORE.INTER.SOLV>
8.34245

>  <SCORE.INTER.VDW>
-19.683

>  <SCORE.INTER.norm>
-0.498206

>  <SCORE.INTRA>
-4.00776

>  <SCORE.INTRA.DIHEDRAL>
-2.15709

>  <SCORE.INTRA.DIHEDRAL.0>
5.78979

>  <SCORE.INTRA.POLAR>
0

>  <SCORE.INTRA.POLAR.0>
0

>  <SCORE.INTRA.REPUL>
0

>  <SCORE.INTRA.REPUL.0>
0

>  <SCORE.INTRA.SOLV>
1.46043

>  <SCORE.INTRA.SOLV.lig_0>
-49.9151

>  <SCORE.INTRA.VDW>
-3.65943

>  <SCORE.INTRA.VDW.0>
-0.211125

>  <SCORE.INTRA.norm>
-0.154145

>  <SCORE.RESTR>
0.00849447

>  <SCORE.RESTR.CAVITY>
0.00849447

>  <SCORE.RESTR.norm>
0.00032671

>  <SCORE.SYSTEM>
0

>  <SCORE.SYSTEM.CONST>
0

>  <SCORE.SYSTEM.DIHEDRAL>
0

>  <SCORE.SYSTEM.SOLV>
0

>  <SCORE.SYSTEM.norm>
0

>  <SCORE.heavy>
26

>  <SCORE.norm>
-0.652024

>  <RMSD>
10.863

$$$$
ligand
 OpenBabel11021811483D
libRbt.so/2013.1/901 2013/11/27
 26 28  0  0  0  0  0  0  0  0999 V2000
   49.2884   54.8698   19.2496 N   0  0  0  0  0  0  0  0  0  0  0  0
   48.0030   54.8290   19.9523 C   0  0  2  0  0  0  0  0  0  0  0  0
   46.8833   55.6076   19.2582 C   0  0  0  0  0  0  0  0  0  0  0  0
   45.7182   55.3047   19.5169 O   0  0  0  0  0  0  0  0  0  0  0  0
   48.0456   55.3139   21.4072 C   0  0  0  0  0  0  0  0  0  0  0  0
   48.9324   54.6330   22.4351 C   0  0  0  0  0  0  0  0  0  0  0  0
   48.6284   55.4678   24.0093 S   0  0  0  0  0  0  0  0  0  0  0  0
   50.2392   54.8382   24.5388 C   0  0  0  0  0  0  0  0  0  0  0  0
   50.2053   53.4221   25.1234 C   0  0  1  0  0  0  0  0  0  0  0  0
   49.9886   52.4085   24.1352 O   0  0  0  0  0  0  0  0  0  0  0  0
   51.5166   53.0933   25.8223 C   0  0  1  0  0  0  0  0  0  0  0  0
   51.4609   53.4096   27.1957 O   0  0  0  0  0  0  0  0  0  0  0  0
   51.7294   51.6088   25.5560 C   0  0  1  0  0  0  0  0  0  0  0  0
   51.1763   50.8101   26.5825 O   0  0  0  0  0  0  0  0  0  0  0  0
   50.9287   51.3584   24.2932 C   0  0  2  0  0  0  0  0  0  0  0  0
   47.0987   56.5321   18.4645 O   0  0  0  0  0  0  0  0  0  0  0  0
   52.9034   53.7733   20.0639 N   0  0  0  0  0  0  0  0  0  0  0  0
   52.0493   54.2810   21.0102 C   0  0  0  0  0  0  0  0  0  0  0  0
   51.6208   53.4817   22.0493 N   0  0  0  0  0  0  0  0  0  0  0  0
   52.0537   52.2149   22.1761 C   0  0  0  0  0  0  0  0  0  0  0  0
   52.9172   51.6842   21.2329 C   0  0  0  0  0  0  0  0  0  0  0  0
   53.3318   52.4746   20.1794 C   0  0  0  0  0  0  0  0  0  0  0  0
   54.1638   51.9936   19.2762 N   0  0  0  0  0  0  0  0  0  0  0  0
   53.1968   50.4089   21.5828 N   0  0  0  0  0  0  0  0  0  0  0  0
   52.5061   50.1186   22.7142 C   0  0  0  0  0  0  0  0  0  0  0  0
   51.7922   51.2333   23.0960 N   0  0  0  0  0  0  0  0  0  0  0  0
  2  1  1  6  0  0  0
  2  3  1  0  0  0  0
  2  5  1  0  0  0  0
  3  4  1  0  0  0  0
  3 16  1  0  0  0  0
  5  6  1  0  0  0  0
  6  7  1  0  0  0  0
  7  8  1  0  0  0  0
  9  8  1  6  0  0  0
  9 10  1  0  0  0  0
  9 11  1  0  0  0  0
 10 15  1  0  0  0  0
 11 12  1  1  0  0  0
 11 13  1  0  0  0  0
 13 14  1  1  0  0  0
 13 15  1  0  0  0  0
 15 26  1  6  0  0  0
 17 18  2  0  0  0  0
 17 22  1  0  0  0  0
 18 19  1  0  0  0  0
 19 20  2  0  0  0  0
 20 21  1  0  0  0  0
 20 26  1  0  0  0  0
 21 22  2  0  0  0  0
 21 24  1  0  0  0  0
 22 23  1  0  0  0  0
 24 25  2  0  0  0  0
 25 26  1  0  0  0  0
M  END
>  <CHROM.1>
157.70529860,-59.61672853,-177.76598630,-158.38752078,-85.72025383,72.36639524
23.04208181,50.46280739,53.41543800,22.46156790,-2.38556317,-0.62308802,1.71042543

>  <Name>
ligand

>  <RI>
0

>  <Rbt.Current_Directory>
/home/itssahil/PROJECTS/Mol_Feturizer/New_Systems/rnas/3GX3

>  <Rbt.Executable>
rbdock ($Id: //depot/dev/client3/rdock/2013.1/src/exe/rbdock.cxx#4 $)

>  <Rbt.Library>
libRbt.so (2013.1, Build901 2013/11/27)

>  <Rbt.Parameter_File>
/export/apps/rDock/src/rDock_2013.1_src/data/scripts/dock_solv.prm

>  <Rbt.Receptor>
prm/blind_docking_80.prm

>  <SCORE>
-15.5496

>  <SCORE.INTER>
-11.8221

>  <SCORE.INTER.CONST>
1

>  <SCORE.INTER.POLAR>
0

>  <SCORE.INTER.ROT>
7

>  <SCORE.INTER.SOLV>
17.9829

>  <SCORE.INTER.VDW>
-22.1424

>  <SCORE.INTER.norm>
-0.454696

>  <SCORE.INTRA>
-3.72755

>  <SCORE.INTRA.DIHEDRAL>
-0.873627

>  <SCORE.INTRA.DIHEDRAL.0>
5.78979

>  <SCORE.INTRA.POLAR>
0

>  <SCORE.INTRA.POLAR.0>
0

>  <SCORE.INTRA.REPUL>
0

>  <SCORE.INTRA.REPUL.0>
0

>  <SCORE.INTRA.SOLV>
0.136772

>  <SCORE.INTRA.SOLV.lig_0>
-49.9151

>  <SCORE.INTRA.VDW>
-3.35912

>  <SCORE.INTRA.VDW.0>
-0.211125

>  <SCORE.INTRA.norm>
-0.143367

>  <SCORE.RESTR>
0

>  <SCORE.RESTR.CAVITY>
0

>  <SCORE.RESTR.norm>
0

>  <SCORE.SYSTEM>
0

>  <SCORE.SYSTEM.CONST>
0

>  <SCORE.SYSTEM.DIHEDRAL>
0

>  <SCORE.SYSTEM.SOLV>
0

>  <SCORE.SYSTEM.norm>
0

>  <SCORE.heavy>
26

>  <SCORE.norm>
-0.598063

>  <RMSD>
10.922

$$$$
ligand
 OpenBabel11021811483D
libRbt.so/2013.1/901 2013/11/27
 26 28  0  0  0  0  0  0  0  0999 V2000
   55.5328   49.3753   23.4971 N   0  0  0  0  0  0  0  0  0  0  0  0
   54.2487   48.6725   23.4277 C   0  0  2  0  0  0  0  0  0  0  0  0
   53.5700   48.7394   22.0579 C   0  0  0  0  0  0  0  0  0  0  0  0
   53.3670   47.6835   21.4578 O   0  0  0  0  0  0  0  0  0  0  0  0
   53.2084   49.1225   24.4616 C   0  0  0  0  0  0  0  0  0  0  0  0
   52.7613   50.5717   24.5444 C   0  0  0  0  0  0  0  0  0  0  0  0
   51.5961   50.6717   25.9228 S   0  0  0  0  0  0  0  0  0  0  0  0
   51.3308   52.3949   25.4416 C   0  0  0  0  0  0  0  0  0  0  0  0
   49.8713   52.8561   25.5152 C   0  0  1  0  0  0  0  0  0  0  0  0
   49.6566   54.1457   24.9303 O   0  0  0  0  0  0  0  0  0  0  0  0
   48.9571   51.8781   24.7915 C   0  0  1  0  0  0  0  0  0  0  0  0
   48.4484   50.9012   25.6726 O   0  0  0  0  0  0  0  0  0  0  0  0
   47.8737   52.7532   24.1746 C   0  0  1  0  0  0  0  0  0  0  0  0
   46.7626   52.8933   25.0367 O   0  0  0  0  0  0  0  0  0  0  0  0
   48.5406   54.1094   24.0558 C   0  0  2  0  0  0  0  0  0  0  0  0
   53.2060   49.8018   21.5384 O   0  0  0  0  0  0  0  0  0  0  0  0
   51.7375   52.8837   20.0688 N   0  0  0  0  0  0  0  0  0  0  0  0
   51.6791   52.3151   21.3161 C   0  0  0  0  0  0  0  0  0  0  0  0
   50.7769   52.7880   22.2459 N   0  0  0  0  0  0  0  0  0  0  0  0
   49.9211   53.7799   21.9422 C   0  0  0  0  0  0  0  0  0  0  0  0
   49.9626   54.3659   20.6885 C   0  0  0  0  0  0  0  0  0  0  0  0
   50.8788   53.9094   19.7620 C   0  0  0  0  0  0  0  0  0  0  0  0
   50.9276   54.4447   18.5576 N   0  0  0  0  0  0  0  0  0  0  0  0
   49.0139   55.3273   20.6374 N   0  0  0  0  0  0  0  0  0  0  0  0
   48.3931   55.3748   21.8431 C   0  0  0  0  0  0  0  0  0  0  0  0
   48.9456   54.4164   22.6643 N   0  0  0  0  0  0  0  0  0  0  0  0
  2  1  1  6  0  0  0
  2  3  1  0  0  0  0
  2  5  1  0  0  0  0
  3  4  1  0  0  0  0
  3 16  1  0  0  0  0
  5  6  1  0  0  0  0
  6  7  1  0  0  0  0
  7  8  1  0  0  0  0
  9  8  1  6  0  0  0
  9 10  1  0  0  0  0
  9 11  1  0  0  0  0
 10 15  1  0  0  0  0
 11 12  1  1  0  0  0
 11 13  1  0  0  0  0
 13 14  1  1  0  0  0
 13 15  1  0  0  0  0
 15 26  1  6  0  0  0
 17 18  2  0  0  0  0
 17 22  1  0  0  0  0
 18 19  1  0  0  0  0
 19 20  2  0  0  0  0
 20 21  1  0  0  0  0
 20 26  1  0  0  0  0
 21 22  2  0  0  0  0
 21 24  1  0  0  0  0
 22 23  1  0  0  0  0
 24 25  2  0  0  0  0
 25 26  1  0  0  0  0
M  END
>  <CHROM.1>
118.62681239,57.27161155,-177.74727938,-174.89249306,139.40475734,-170.58301696
54.51298935,50.85264412,52.03224218,23.13186175,-0.44907948,0.71121708,-1.08696710

>  <Name>
ligand

>  <RI>
0

>  <Rbt.Current_Directory>
/home/itssahil/PROJECTS/Mol_Feturizer/New_Systems/rnas/3GX3

>  <Rbt.Executable>
rbdock ($Id: //depot/dev/client3/rdock/2013.1/src/exe/rbdock.cxx#4 $)

>  <Rbt.Library>
libRbt.so (2013.1, Build901 2013/11/27)

>  <Rbt.Parameter_File>
/export/apps/rDock/src/rDock_2013.1_src/data/scripts/dock_solv.prm

>  <Rbt.Receptor>
prm/blind_docking_100.prm

>  <SCORE>
-19.132

>  <SCORE.INTER>
-15.1344

>  <SCORE.INTER.CONST>
1

>  <SCORE.INTER.POLAR>
0

>  <SCORE.INTER.ROT>
7

>  <SCORE.INTER.SOLV>
11.4127

>  <SCORE.INTER.VDW>
-22.1605

>  <SCORE.INTER.norm>
-0.582094

>  <SCORE.INTRA>
-3.99757

>  <SCORE.INTRA.DIHEDRAL>
-0.741172

>  <SCORE.INTRA.DIHEDRAL.0>
5.78979

>  <SCORE.INTRA.POLAR>
0

>  <SCORE.INTRA.POLAR.0>
0

>  <SCORE.INTRA.REPUL>
0

>  <SCORE.INTRA.REPUL.0>
0

>  <SCORE.INTRA.SOLV>
-0.260668

>  <SCORE.INTRA.SOLV.lig_0>
-49.9151

>  <SCORE.INTRA.VDW>
-3.49665

>  <SCORE.INTRA.VDW.0>
-0.211125

>  <SCORE.INTRA.norm>
-0.153753

>  <SCORE.RESTR>
0

>  <SCORE.RESTR.CAVITY>
0

>  <SCORE.RESTR.norm>
0

>  <SCORE.SYSTEM>
0

>  <SCORE.SYSTEM.CONST>
0

>  <SCORE.SYSTEM.DIHEDRAL>
0

>  <SCORE.SYSTEM.SOLV>
0

>  <SCORE.SYSTEM.norm>
0

>  <SCORE.heavy>
26

>  <SCORE.norm>
-0.735846

>  <RMSD>
11.005

$$$$
ligand
 OpenBabel11021811483D
libRbt.so/2013.1/901 2013/11/27
 26 28  0  0  0  0  0  0  0  0999 V2000
   50.7527   55.7352   17.6006 N   0  0  0  0  0  0  0  0  0  0  0  0
   50.6734   54.2943   17.8565 C   0  0  2  0  0  0  0  0  0  0  0  0
   50.5497   53.4386   16.5939 C   0  0  0  0  0  0  0  0  0  0  0  0
   51.1345   52.3555   16.5665 O   0  0  0  0  0  0  0  0  0  0  0  0
   49.5392   53.8659   18.7966 C   0  0  0  0  0  0  0  0  0  0  0  0
   49.4427   54.4141   20.2097 C   0  0  0  0  0  0  0  0  0  0  0  0
   47.9978   53.6341   20.9657 S   0  0  0  0  0  0  0  0  0  0  0  0
   48.5035   54.4276   22.5104 C   0  0  0  0  0  0  0  0  0  0  0  0
   47.9635   53.7530   23.7759 C   0  0  1  0  0  0  0  0  0  0  0  0
   48.1264   52.3302   23.7705 O   0  0  0  0  0  0  0  0  0  0  0  0
   48.6721   54.2804   25.0151 C   0  0  1  0  0  0  0  0  0  0  0  0
   47.9770   55.3694   25.5810 O   0  0  0  0  0  0  0  0  0  0  0  0
   48.7623   53.0770   25.9446 C   0  0  1  0  0  0  0  0  0  0  0  0
   47.6514   53.0063   26.8156 O   0  0  0  0  0  0  0  0  0  0  0  0
   48.6846   51.8944   24.9993 C   0  0  2  0  0  0  0  0  0  0  0  0
   49.8791   53.7811   15.6120 O   0  0  0  0  0  0  0  0  0  0  0  0
   52.8222   51.3867   21.7992 N   0  0  0  0  0  0  0  0  0  0  0  0
   51.6880   52.1349   21.6085 C   0  0  0  0  0  0  0  0  0  0  0  0
   50.6916   52.1284   22.5621 N   0  0  0  0  0  0  0  0  0  0  0  0
   50.8242   51.4262   23.7013 C   0  0  0  0  0  0  0  0  0  0  0  0
   51.9617   50.6661   23.9137 C   0  0  0  0  0  0  0  0  0  0  0  0
   52.9521   50.6533   22.9518 C   0  0  0  0  0  0  0  0  0  0  0  0
   54.0496   49.9460   23.1388 N   0  0  0  0  0  0  0  0  0  0  0  0
   51.8502   50.0621   25.1178 N   0  0  0  0  0  0  0  0  0  0  0  0
   50.6534   50.4073   25.6561 C   0  0  0  0  0  0  0  0  0  0  0  0
   50.0050   51.2572   24.7870 N   0  0  0  0  0  0  0  0  0  0  0  0
  2  1  1  6  0  0  0
  2  3  1  0  0  0  0
  2  5  1  0  0  0  0
  3  4  1  0  0  0  0
  3 16  1  0  0  0  0
  5  6  1  0  0  0  0
  6  7  1  0  0  0  0
  7  8  1  0  0  0  0
  9  8  1  6  0  0  0
  9 10  1  0  0  0  0
  9 11  1  0  0  0  0
 10 15  1  0  0  0  0
 11 12  1  1  0  0  0
 11 13  1  0  0  0  0
 13 14  1  1  0  0  0
 13 15  1  0  0  0  0
 15 26  1  6  0  0  0
 17 18  2  0  0  0  0
 17 22  1  0  0  0  0
 18 19  1  0  0  0  0
 19 20  2  0  0  0  0
 20 21  1  0  0  0  0
 20 26  1  0  0  0  0
 21 22  2  0  0  0  0
 21 24  1  0  0  0  0
 22 23  1  0  0  0  0
 24 25  2  0  0  0  0
 25 26  1  0  0  0  0
M  END
>  <CHROM.1>
142.95240137,-58.42442588,-178.98729031,173.42053984,-157.53037892,47.02953918
20.92454994,49.98581199,52.77495901,22.12664861,1.44659305,0.67439450,-1.29164901

>  <Name>
ligand

>  <RI>
0

>  <Rbt.Current_Directory>
/home/itssahil/PROJECTS/Mol_Feturizer/New_Systems/rnas/3GX3

>  <Rbt.Executable>
rbdock ($Id: //depot/dev/client3/rdock/2013.1/src/exe/rbdock.cxx#4 $)

>  <Rbt.Library>
libRbt.so (2013.1, Build901 2013/11/27)

>  <Rbt.Parameter_File>
/export/apps/rDock/src/rDock_2013.1_src/data/scripts/dock_solv.prm

>  <Rbt.Receptor>
prm/blind_docking_80.prm

>  <SCORE>
-18.6808

>  <SCORE.INTER>
-14.0777

>  <SCORE.INTER.CONST>
1

>  <SCORE.INTER.POLAR>
0

>  <SCORE.INTER.ROT>
7

>  <SCORE.INTER.SOLV>
6.3552

>  <SCORE.INTER.VDW>
-19.7702

>  <SCORE.INTER.norm>
-0.541451

>  <SCORE.INTRA>
-4.60312

>  <SCORE.INTRA.DIHEDRAL>
-1.63924

>  <SCORE.INTRA.DIHEDRAL.0>
5.78979

>  <SCORE.INTRA.POLAR>
0

>  <SCORE.INTRA.POLAR.0>
0

>  <SCORE.INTRA.REPUL>
0

>  <SCORE.INTRA.REPUL.0>
0

>  <SCORE.INTRA.SOLV>
-0.427627

>  <SCORE.INTRA.SOLV.lig_0>
-49.9151

>  <SCORE.INTRA.VDW>
-3.56968

>  <SCORE.INTRA.VDW.0>
-0.211125

>  <SCORE.INTRA.norm>
-0.177043

>  <SCORE.RESTR>
0

>  <SCORE.RESTR.CAVITY>
0

>  <SCORE.RESTR.norm>
0

>  <SCORE.SYSTEM>
0

>  <SCORE.SYSTEM.CONST>
0

>  <SCORE.SYSTEM.DIHEDRAL>
0

>  <SCORE.SYSTEM.SOLV>
0

>  <SCORE.SYSTEM.norm>
0

>  <SCORE.heavy>
26

>  <SCORE.norm>
-0.718494

>  <RMSD>
11.119

$$$$
ligand
 OpenBabel11021811483D
libRbt.so/2013.1/901 2013/11/27
 26 28  0  0  0  0  0  0  0  0999 V2000
   55.0039   50.8032   23.5957 N   0  0  0  0  0  0  0  0  0  0  0  0
   54.0716   49.6729   23.6267 C   0  0  2  0  0  0  0  0  0  0  0  0
   53.3965   49.3794   22.2851 C   0  0  0  0  0  0  0  0  0  0  0  0
   53.4236   48.2235   21.8617 O   0  0  0  0  0  0  0  0  0  0  0  0
   52.9537   49.7850   24.6714 C   0  0  0  0  0  0  0  0  0  0  0  0
   51.8965   50.8711   24.5751 C   0  0  0  0  0  0  0  0  0  0  0  0
   50.8911   50.7434   26.0720 S   0  0  0  0  0  0  0  0  0  0  0  0
   49.4717   51.1651   25.0332 C   0  0  0  0  0  0  0  0  0  0  0  0
   49.1570   52.6634   24.9677 C   0  0  1  0  0  0  0  0  0  0  0  0
   50.2022   53.4339   24.3636 O   0  0  0  0  0  0  0  0  0  0  0  0
   47.8910   52.9160   24.1617 C   0  0  1  0  0  0  0  0  0  0  0  0
   46.7512   52.9510   24.9917 O   0  0  0  0  0  0  0  0  0  0  0  0
   48.1521   54.2338   23.4439 C   0  0  1  0  0  0  0  0  0  0  0  0
   47.6918   55.3379   24.1967 O   0  0  0  0  0  0  0  0  0  0  0  0
   49.6650   54.3112   23.3872 C   0  0  2  0  0  0  0  0  0  0  0  0
   52.8161   50.2464   21.6199 O   0  0  0  0  0  0  0  0  0  0  0  0
   49.1769   55.0908   18.2131 N   0  0  0  0  0  0  0  0  0  0  0  0
   48.4072   55.6054   19.2257 C   0  0  0  0  0  0  0  0  0  0  0  0
   48.6796   55.2692   20.5352 N   0  0  0  0  0  0  0  0  0  0  0  0
   49.7145   54.4690   20.8467 C   0  0  0  0  0  0  0  0  0  0  0  0
   50.5044   53.9408   19.8398 C   0  0  0  0  0  0  0  0  0  0  0  0
   50.2218   54.2580   18.5260 C   0  0  0  0  0  0  0  0  0  0  0  0
   50.9687   53.7761   17.5516 N   0  0  0  0  0  0  0  0  0  0  0  0
   51.4633   53.1767   20.4088 N   0  0  0  0  0  0  0  0  0  0  0  0
   51.2768   53.1935   21.7527 C   0  0  0  0  0  0  0  0  0  0  0  0
   50.1937   53.9950   22.0400 N   0  0  0  0  0  0  0  0  0  0  0  0
  2  1  1  6  0  0  0
  2  3  1  0  0  0  0
  2  5  1  0  0  0  0
  3  4  1  0  0  0  0
  3 16  1  0  0  0  0
  5  6  1  0  0  0  0
  6  7  1  0  0  0  0
  7  8  1  0  0  0  0
  9  8  1  6  0  0  0
  9 10  1  0  0  0  0
  9 11  1  0  0  0  0
 10 15  1  0  0  0  0
 11 12  1  1  0  0  0
 11 13  1  0  0  0  0
 13 14  1  1  0  0  0
 13 15  1  0  0  0  0
 15 26  1  6  0  0  0
 17 18  2  0  0  0  0
 17 22  1  0  0  0  0
 18 19  1  0  0  0  0
 19 20  2  0  0  0  0
 20 21  1  0  0  0  0
 20 26  1  0  0  0  0
 21 22  2  0  0  0  0
 21 24  1  0  0  0  0
 22 23  1  0  0  0  0
 24 25  2  0  0  0  0
 25 26  1  0  0  0  0
M  END
>  <CHROM.1>
129.29615825,65.04565243,-174.46931563,-143.06528115,-92.06658577,63.90224518
167.24646941,50.55586804,52.53682518,22.62449781,-0.86535153,0.67478279,-1.16135716

>  <Name>
ligand

>  <RI>
0

>  <Rbt.Current_Directory>
/home/itssahil/PROJECTS/Mol_Feturizer/New_Systems/rnas/3GX3

>  <Rbt.Executable>
rbdock ($Id: //depot/dev/client3/rdock/2013.1/src/exe/rbdock.cxx#4 $)

>  <Rbt.Library>
libRbt.so (2013.1, Build901 2013/11/27)

>  <Rbt.Parameter_File>
/export/apps/rDock/src/rDock_2013.1_src/data/scripts/dock_solv.prm

>  <Rbt.Receptor>
prm/blind_docking_100.prm

>  <SCORE>
-17.7904

>  <SCORE.INTER>
-14.8473

>  <SCORE.INTER.CONST>
1

>  <SCORE.INTER.POLAR>
0

>  <SCORE.INTER.ROT>
7

>  <SCORE.INTER.SOLV>
8.55305

>  <SCORE.INTER.VDW>
-21.0159

>  <SCORE.INTER.norm>
-0.571049

>  <SCORE.INTRA>
-2.94307

>  <SCORE.INTRA.DIHEDRAL>
0.184213

>  <SCORE.INTRA.DIHEDRAL.0>
5.78979

>  <SCORE.INTRA.POLAR>
0

>  <SCORE.INTRA.POLAR.0>
0

>  <SCORE.INTRA.REPUL>
0

>  <SCORE.INTRA.REPUL.0>
0

>  <SCORE.INTRA.SOLV>
-0.497084

>  <SCORE.INTRA.SOLV.lig_0>
-49.9151

>  <SCORE.INTRA.VDW>
-2.78663

>  <SCORE.INTRA.VDW.0>
-0.211125

>  <SCORE.INTRA.norm>
-0.113195

>  <SCORE.RESTR>
0

>  <SCORE.RESTR.CAVITY>
0

>  <SCORE.RESTR.norm>
0

>  <SCORE.SYSTEM>
0

>  <SCORE.SYSTEM.CONST>
0

>  <SCORE.SYSTEM.DIHEDRAL>
0

>  <SCORE.SYSTEM.SOLV>
0

>  <SCORE.SYSTEM.norm>
0

>  <SCORE.heavy>
26

>  <SCORE.norm>
-0.684244

>  <RMSD>
11.209

$$$$
ligand
 OpenBabel11021811483D
libRbt.so/2013.1/901 2013/11/27
 26 28  0  0  0  0  0  0  0  0999 V2000
   50.3364   53.5861   19.4865 N   0  0  0  0  0  0  0  0  0  0  0  0
   51.0199   53.5285   18.1913 C   0  0  2  0  0  0  0  0  0  0  0  0
   50.1323   53.0669   17.0334 C   0  0  0  0  0  0  0  0  0  0  0  0
   50.0471   53.7919   16.0419 O   0  0  0  0  0  0  0  0  0  0  0  0
   52.2789   52.6523   18.1628 C   0  0  0  0  0  0  0  0  0  0  0  0
   53.4128   52.8767   19.1480 C   0  0  0  0  0  0  0  0  0  0  0  0
   52.8142   52.3118   20.7574 S   0  0  0  0  0  0  0  0  0  0  0  0
   54.3825   51.4249   20.9165 C   0  0  0  0  0  0  0  0  0  0  0  0
   54.5046   50.5757   22.1862 C   0  0  1  0  0  0  0  0  0  0  0  0
   54.4813   51.3524   23.3893 O   0  0  0  0  0  0  0  0  0  0  0  0
   53.3639   49.5725   22.2785 C   0  0  1  0  0  0  0  0  0  0  0  0
   53.7179   48.3364   21.6987 O   0  0  0  0  0  0  0  0  0  0  0  0
   53.0626   49.4729   23.7682 C   0  0  1  0  0  0  0  0  0  0  0  0
   53.8011   48.4356   24.3816 O   0  0  0  0  0  0  0  0  0  0  0  0
   53.5703   50.7906   24.3199 C   0  0  2  0  0  0  0  0  0  0  0  0
   49.5126   51.9960   17.0461 O   0  0  0  0  0  0  0  0  0  0  0  0
   48.5915   51.3228   25.9153 N   0  0  0  0  0  0  0  0  0  0  0  0
   49.3069   50.1657   25.7370 C   0  0  0  0  0  0  0  0  0  0  0  0
   50.6103   50.2251   25.2900 N   0  0  0  0  0  0  0  0  0  0  0  0
   51.2121   51.4049   25.0567 C   0  0  0  0  0  0  0  0  0  0  0  0
   50.5081   52.5841   25.2322 C   0  0  0  0  0  0  0  0  0  0  0  0
   49.1963   52.5278   25.6593 C   0  0  0  0  0  0  0  0  0  0  0  0
   48.5107   53.6391   25.8450 N   0  0  0  0  0  0  0  0  0  0  0  0
   51.3276   53.6166   24.9331 N   0  0  0  0  0  0  0  0  0  0  0  0
   52.5259   53.1091   24.5484 C   0  0  0  0  0  0  0  0  0  0  0  0
   52.4695   51.7345   24.6224 N   0  0  0  0  0  0  0  0  0  0  0  0
  2  1  1  1  0  0  0
  2  3  1  0  0  0  0
  2  5  1  0  0  0  0
  3  4  1  0  0  0  0
  3 16  1  0  0  0  0
  5  6  1  0  0  0  0
  6  7  1  0  0  0  0
  7  8  1  0  0  0  0
  9  8  1  6  0  0  0
  9 10  1  0  0  0  0
  9 11  1  0  0  0  0
 10 15  1  0  0  0  0
 11 12  1  1  0  0  0
 11 13  1  0  0  0  0
 13 14  1  1  0  0  0
 13 15  1  0  0  0  0
 15 26  1  6  0  0  0
 17 18  2  0  0  0  0
 17 22  1  0  0  0  0
 18 19  1  0  0  0  0
 19 20  2  0  0  0  0
 20 21  1  0  0  0  0
 20 26  1  0  0  0  0
 21 22  2  0  0  0  0
 21 24  1  0  0  0  0
 22 23  1  0  0  0  0
 24 25  2  0  0  0  0
 25 26  1  0  0  0  0
M  END
>  <CHROM.1>
125.13477096,-54.72194159,71.79789283,132.58515345,-176.69923784,-63.81540589
154.74742836,51.80909422,51.69933099,22.19838913,1.58604995,0.55446118,-1.34558254

>  <Name>
ligand

>  <RI>
0

>  <Rbt.Current_Directory>
/home/itssahil/PROJECTS/Mol_Feturizer/New_Systems/rnas/3GX3

>  <Rbt.Executable>
rbdock ($Id: //depot/dev/client3/rdock/2013.1/src/exe/rbdock.cxx#4 $)

>  <Rbt.Library>
libRbt.so (2013.1, Build901 2013/11/27)

>  <Rbt.Parameter_File>
/export/apps/rDock/src/rDock_2013.1_src/data/scripts/dock_solv.prm

>  <Rbt.Receptor>
prm/blind_docking_100.prm

>  <SCORE>
-17.9413

>  <SCORE.INTER>
-15.7

>  <SCORE.INTER.CONST>
1

>  <SCORE.INTER.POLAR>
0

>  <SCORE.INTER.ROT>
7

>  <SCORE.INTER.SOLV>
10.0286

>  <SCORE.INTER.VDW>
-22.0762

>  <SCORE.INTER.norm>
-0.603848

>  <SCORE.INTRA>
-2.24123

>  <SCORE.INTRA.DIHEDRAL>
-0.212896

>  <SCORE.INTRA.DIHEDRAL.0>
5.78979

>  <SCORE.INTRA.POLAR>
0

>  <SCORE.INTRA.POLAR.0>
0

>  <SCORE.INTRA.REPUL>
0

>  <SCORE.INTRA.REPUL.0>
0

>  <SCORE.INTRA.SOLV>
0.986795

>  <SCORE.INTRA.SOLV.lig_0>
-49.9151

>  <SCORE.INTRA.VDW>
-2.62818

>  <SCORE.INTRA.VDW.0>
-0.211125

>  <SCORE.INTRA.norm>
-0.0862013

>  <SCORE.RESTR>
0

>  <SCORE.RESTR.CAVITY>
0

>  <SCORE.RESTR.norm>
0

>  <SCORE.SYSTEM>
0

>  <SCORE.SYSTEM.CONST>
0

>  <SCORE.SYSTEM.DIHEDRAL>
0

>  <SCORE.SYSTEM.SOLV>
0

>  <SCORE.SYSTEM.norm>
0

>  <SCORE.heavy>
26

>  <SCORE.norm>
-0.690049

>  <RMSD>
11.303

$$$$
ligand
 OpenBabel11021811483D
libRbt.so/2013.1/901 2013/11/27
 26 28  0  0  0  0  0  0  0  0999 V2000
   49.8204   53.8979   19.2328 N   0  0  0  0  0  0  0  0  0  0  0  0
   50.7639   53.7362   18.1231 C   0  0  2  0  0  0  0  0  0  0  0  0
   50.1559   53.1028   16.8697 C   0  0  0  0  0  0  0  0  0  0  0  0
   49.6246   51.9972   16.9768 O   0  0  0  0  0  0  0  0  0  0  0  0
   52.0264   52.9321   18.4595 C   0  0  0  0  0  0  0  0  0  0  0  0
   52.9120   53.3171   19.6318 C   0  0  0  0  0  0  0  0  0  0  0  0
   54.1779   52.0333   19.7625 S   0  0  0  0  0  0  0  0  0  0  0  0
   54.1786   52.3568   21.5421 C   0  0  0  0  0  0  0  0  0  0  0  0
   54.4877   51.1316   22.4090 C   0  0  1  0  0  0  0  0  0  0  0  0
   54.4942   51.4198   23.8118 O   0  0  0  0  0  0  0  0  0  0  0  0
   53.4584   50.0339   22.1819 C   0  0  1  0  0  0  0  0  0  0  0  0
   53.8762   49.1369   21.1768 O   0  0  0  0  0  0  0  0  0  0  0  0
   53.2959   49.3748   23.5455 C   0  0  1  0  0  0  0  0  0  0  0  0
   54.1782   48.2823   23.7052 O   0  0  0  0  0  0  0  0  0  0  0  0
   53.7228   50.4595   24.5148 C   0  0  2  0  0  0  0  0  0  0  0  0
   50.1631   53.6581   15.7640 O   0  0  0  0  0  0  0  0  0  0  0  0
   50.4605   54.5780   24.6284 N   0  0  0  0  0  0  0  0  0  0  0  0
   51.5072   54.3472   23.7718 C   0  0  0  0  0  0  0  0  0  0  0  0
   52.2697   53.2063   23.9096 N   0  0  0  0  0  0  0  0  0  0  0  0
   51.9852   52.2895   24.8514 C   0  0  0  0  0  0  0  0  0  0  0  0
   50.9321   52.5027   25.7246 C   0  0  0  0  0  0  0  0  0  0  0  0
   50.1795   53.6538   25.6033 C   0  0  0  0  0  0  0  0  0  0  0  0
   49.1641   53.8715   26.4164 N   0  0  0  0  0  0  0  0  0  0  0  0
   50.8580   51.4476   26.5663 N   0  0  0  0  0  0  0  0  0  0  0  0
   51.8597   50.5865   26.2559 C   0  0  0  0  0  0  0  0  0  0  0  0
   52.5680   51.0961   25.1897 N   0  0  0  0  0  0  0  0  0  0  0  0
  2  1  1  1  0  0  0
  2  3  1  0  0  0  0
  2  5  1  0  0  0  0
  3  4  1  0  0  0  0
  3 16  1  0  0  0  0
  5  6  1  0  0  0  0
  6  7  1  0  0  0  0
  7  8  1  0  0  0  0
  9  8  1  6  0  0  0
  9 10  1  0  0  0  0
  9 11  1  0  0  0  0
 10 15  1  0  0  0  0
 11 12  1  6  0  0  0
 11 13  1  0  0  0  0
 13 14  1  6  0  0  0
 13 15  1  0  0  0  0
 15 26  1  6  0  0  0
 17 18  2  0  0  0  0
 17 22  1  0  0  0  0
 18 19  1  0  0  0  0
 19 20  2  0  0  0  0
 20 21  1  0  0  0  0
 20 26  1  0  0  0  0
 21 22  2  0  0  0  0
 21 24  1  0  0  0  0
 22 23  1  0  0  0  0
 24 25  2  0  0  0  0
 25 26  1  0  0  0  0
M  END
>  <CHROM.1>
-56.98853212,-54.16792414,174.73982740,-149.02111077,148.25630265,179.43258244
22.62353028,52.17265748,52.05393265,22.10748136,1.73107864,0.73557300,-1.50108520

>  <Name>
ligand

>  <RI>
0

>  <Rbt.Current_Directory>
/home/itssahil/PROJECTS/Mol_Feturizer/New_Systems/rnas/3GX3

>  <Rbt.Executable>
rbdock ($Id: //depot/dev/client3/rdock/2013.1/src/exe/rbdock.cxx#4 $)

>  <Rbt.Library>
libRbt.so (2013.1, Build901 2013/11/27)

>  <Rbt.Parameter_File>
/export/apps/rDock/src/rDock_2013.1_src/data/scripts/dock_solv.prm

>  <Rbt.Receptor>
prm/blind_docking_80.prm

>  <SCORE>
-17.5509

>  <SCORE.INTER>
-14.4157

>  <SCORE.INTER.CONST>
1

>  <SCORE.INTER.POLAR>
0

>  <SCORE.INTER.ROT>
7

>  <SCORE.INTER.SOLV>
8.86097

>  <SCORE.INTER.VDW>
-20.8308

>  <SCORE.INTER.norm>
-0.554451

>  <SCORE.INTRA>
-3.13515

>  <SCORE.INTRA.DIHEDRAL>
-0.235461

>  <SCORE.INTRA.DIHEDRAL.0>
5.78979

>  <SCORE.INTRA.POLAR>
0

>  <SCORE.INTRA.POLAR.0>
0

>  <SCORE.INTRA.REPUL>
0

>  <SCORE.INTRA.REPUL.0>
0

>  <SCORE.INTRA.SOLV>
-0.250888

>  <SCORE.INTRA.SOLV.lig_0>
-49.9151

>  <SCORE.INTRA.VDW>
-2.89197

>  <SCORE.INTRA.VDW.0>
-0.211125

>  <SCORE.INTRA.norm>
-0.120583

>  <SCORE.RESTR>
0

>  <SCORE.RESTR.CAVITY>
0

>  <SCORE.RESTR.norm>
0

>  <SCORE.SYSTEM>
0

>  <SCORE.SYSTEM.CONST>
0

>  <SCORE.SYSTEM.DIHEDRAL>
0

>  <SCORE.SYSTEM.SOLV>
0

>  <SCORE.SYSTEM.norm>
0

>  <SCORE.heavy>
26

>  <SCORE.norm>
-0.675033

>  <RMSD>
11.335

$$$$
ligand
 OpenBabel11021811483D
libRbt.so/2013.1/901 2013/11/27
 26 28  0  0  0  0  0  0  0  0999 V2000
   50.1612   54.3975   17.5855 N   0  0  0  0  0  0  0  0  0  0  0  0
   51.3840   54.2117   18.3716 C   0  0  2  0  0  0  0  0  0  0  0  0
   52.3260   53.1380   17.8224 C   0  0  0  0  0  0  0  0  0  0  0  0
   53.5357   53.3676   17.8297 O   0  0  0  0  0  0  0  0  0  0  0  0
   51.1571   53.8878   19.8539 C   0  0  0  0  0  0  0  0  0  0  0  0
   52.3239   53.7748   20.8194 C   0  0  0  0  0  0  0  0  0  0  0  0
   53.0264   52.1257   20.5855 S   0  0  0  0  0  0  0  0  0  0  0  0
   54.0529   52.4675   22.0349 C   0  0  0  0  0  0  0  0  0  0  0  0
   54.3227   51.2478   22.9225 C   0  0  1  0  0  0  0  0  0  0  0  0
   53.9632   51.4564   24.2930 O   0  0  0  0  0  0  0  0  0  0  0  0
   53.5398   50.0381   22.4331 C   0  0  1  0  0  0  0  0  0  0  0  0
   54.3015   49.2610   21.5357 O   0  0  0  0  0  0  0  0  0  0  0  0
   53.1605   49.2891   23.7040 C   0  0  1  0  0  0  0  0  0  0  0  0
   54.1271   48.3154   24.0437 O   0  0  0  0  0  0  0  0  0  0  0  0
   53.1935   50.3653   24.7712 C   0  0  2  0  0  0  0  0  0  0  0  0
   51.9263   52.0506   17.3880 O   0  0  0  0  0  0  0  0  0  0  0  0
   48.7590   52.7415   23.2522 N   0  0  0  0  0  0  0  0  0  0  0  0
   49.8983   52.5214   22.5199 C   0  0  0  0  0  0  0  0  0  0  0  0
   50.9783   51.8908   23.1013 N   0  0  0  0  0  0  0  0  0  0  0  0
   50.9259   51.4513   24.3712 C   0  0  0  0  0  0  0  0  0  0  0  0
   49.7849   51.6619   25.1265 C   0  0  0  0  0  0  0  0  0  0  0  0
   48.7093   52.3117   24.5546 C   0  0  0  0  0  0  0  0  0  0  0  0
   47.6078   52.5121   25.2519 N   0  0  0  0  0  0  0  0  0  0  0  0
   49.9850   51.1338   26.3546 N   0  0  0  0  0  0  0  0  0  0  0  0
   51.2392   50.6173   26.3947 C   0  0  0  0  0  0  0  0  0  0  0  0
   51.8357   50.8057   25.1672 N   0  0  0  0  0  0  0  0  0  0  0  0
  2  1  1  6  0  0  0
  2  3  1  0  0  0  0
  2  5  1  0  0  0  0
  3  4  1  0  0  0  0
  3 16  1  0  0  0  0
  5  6  1  0  0  0  0
  6  7  1  0  0  0  0
  7  8  1  0  0  0  0
  9  8  1  6  0  0  0
  9 10  1  0  0  0  0
  9 11  1  0  0  0  0
 10 15  1  0  0  0  0
 11 12  1  6  0  0  0
 11 13  1  0  0  0  0
 13 14  1  1  0  0  0
 13 15  1  0  0  0  0
 15 26  1  6  0  0  0
 17 18  2  0  0  0  0
 17 22  1  0  0  0  0
 18 19  1  0  0  0  0
 19 20  2  0  0  0  0
 20 21  1  0  0  0  0
 20 26  1  0  0  0  0
 21 22  2  0  0  0  0
 21 24  1  0  0  0  0
 22 23  1  0  0  0  0
 24 25  2  0  0  0  0
 25 26  1  0  0  0  0
M  END
>  <CHROM.1>
138.88322831,-175.19046881,-80.42479348,-171.68660649,144.77453212,-125.75158275
56.84743631,51.90937764,51.80611914,22.22965288,1.42048170,0.49362062,-1.15182953

>  <Name>
ligand

>  <RI>
0

>  <Rbt.Current_Directory>
/home/itssahil/PROJECTS/Mol_Feturizer/New_Systems/rnas/3GX3

>  <Rbt.Executable>
rbdock ($Id: //depot/dev/client3/rdock/2013.1/src/exe/rbdock.cxx#4 $)

>  <Rbt.Library>
libRbt.so (2013.1, Build901 2013/11/27)

>  <Rbt.Parameter_File>
/export/apps/rDock/src/rDock_2013.1_src/data/scripts/dock_solv.prm

>  <Rbt.Receptor>
prm/blind_docking_80.prm

>  <SCORE>
-12.2695

>  <SCORE.INTER>
-12.1933

>  <SCORE.INTER.CONST>
1

>  <SCORE.INTER.POLAR>
0

>  <SCORE.INTER.ROT>
7

>  <SCORE.INTER.SOLV>
9.78769

>  <SCORE.INTER.VDW>
-19.6581

>  <SCORE.INTER.norm>
-0.468974

>  <SCORE.INTRA>
-0.076201

>  <SCORE.INTRA.DIHEDRAL>
5.29069

>  <SCORE.INTRA.DIHEDRAL.0>
5.78979

>  <SCORE.INTRA.POLAR>
0

>  <SCORE.INTRA.POLAR.0>
0

>  <SCORE.INTRA.REPUL>
0

>  <SCORE.INTRA.REPUL.0>
0

>  <SCORE.INTRA.SOLV>
-0.554605

>  <SCORE.INTRA.SOLV.lig_0>
-49.9151

>  <SCORE.INTRA.VDW>
-2.44424

>  <SCORE.INTRA.VDW.0>
-0.211125

>  <SCORE.INTRA.norm>
-0.00293081

>  <SCORE.RESTR>
0

>  <SCORE.RESTR.CAVITY>
0

>  <SCORE.RESTR.norm>
0

>  <SCORE.SYSTEM>
0

>  <SCORE.SYSTEM.CONST>
0

>  <SCORE.SYSTEM.DIHEDRAL>
0

>  <SCORE.SYSTEM.SOLV>
0

>  <SCORE.SYSTEM.norm>
0

>  <SCORE.heavy>
26

>  <SCORE.norm>
-0.471905

>  <RMSD>
11.348

$$$$
ligand
 OpenBabel11021811483D
libRbt.so/2013.1/901 2013/11/27
 26 28  0  0  0  0  0  0  0  0999 V2000
   52.1849   54.0346   17.6671 N   0  0  0  0  0  0  0  0  0  0  0  0
   50.9659   53.3851   18.1569 C   0  0  2  0  0  0  0  0  0  0  0  0
   50.0455   52.8629   17.0514 C   0  0  0  0  0  0  0  0  0  0  0  0
   49.8788   53.5655   16.0542 O   0  0  0  0  0  0  0  0  0  0  0  0
   50.1010   54.2485   19.0843 C   0  0  0  0  0  0  0  0  0  0  0  0
   48.9337   53.6502   19.8498 C   0  0  0  0  0  0  0  0  0  0  0  0
   48.0222   55.0384   20.5639 S   0  0  0  0  0  0  0  0  0  0  0  0
   49.1056   54.8784   22.0033 C   0  0  0  0  0  0  0  0  0  0  0  0
   48.4338   54.2672   23.2376 C   0  0  1  0  0  0  0  0  0  0  0  0
   48.4425   52.8351   23.2339 O   0  0  0  0  0  0  0  0  0  0  0  0
   49.1328   54.7162   24.5127 C   0  0  1  0  0  0  0  0  0  0  0  0
   48.5319   55.8744   25.0482 O   0  0  0  0  0  0  0  0  0  0  0  0
   49.0465   53.5110   25.4401 C   0  0  1  0  0  0  0  0  0  0  0  0
   47.8926   53.5614   26.2547 O   0  0  0  0  0  0  0  0  0  0  0  0
   48.8888   52.3428   24.4869 C   0  0  2  0  0  0  0  0  0  0  0  0
   49.4776   51.7653   17.1113 O   0  0  0  0  0  0  0  0  0  0  0  0
   53.0706   51.3446   21.4647 N   0  0  0  0  0  0  0  0  0  0  0  0
   52.0301   52.2042   21.2176 C   0  0  0  0  0  0  0  0  0  0  0  0
   51.0024   52.3199   22.1300 N   0  0  0  0  0  0  0  0  0  0  0  0
   51.0156   51.6287   23.2835 C   0  0  0  0  0  0  0  0  0  0  0  0
   52.0574   50.7574   23.5526 C   0  0  0  0  0  0  0  0  0  0  0  0
   53.0775   50.6229   22.6319 C   0  0  0  0  0  0  0  0  0  0  0  0
   54.0860   49.8079   22.8733 N   0  0  0  0  0  0  0  0  0  0  0  0
   51.8361   50.1907   24.7596 N   0  0  0  0  0  0  0  0  0  0  0  0
   50.6624   50.6695   25.2440 C   0  0  0  0  0  0  0  0  0  0  0  0
   50.1417   51.5667   24.3373 N   0  0  0  0  0  0  0  0  0  0  0  0
  2  1  1  6  0  0  0
  2  3  1  0  0  0  0
  2  5  1  0  0  0  0
  3  4  1  0  0  0  0
  3 16  1  0  0  0  0
  5  6  1  0  0  0  0
  6  7  1  0  0  0  0
  7  8  1  0  0  0  0
  9  8  1  6  0  0  0
  9 10  1  0  0  0  0
  9 11  1  0  0  0  0
 10 15  1  0  0  0  0
 11 12  1  1  0  0  0
 11 13  1  0  0  0  0
 13 14  1  1  0  0  0
 13 15  1  0  0  0  0
 15 26  1  6  0  0  0
 17 18  2  0  0  0  0
 17 22  1  0  0  0  0
 18 19  1  0  0  0  0
 19 20  2  0  0  0  0
 20 21  1  0  0  0  0
 20 26  1  0  0  0  0
 21 22  2  0  0  0  0
 21 24  1  0  0  0  0
 22 23  1  0  0  0  0
 24 25  2  0  0  0  0
 25 26  1  0  0  0  0
M  END
>  <CHROM.1>
-41.26671730,-169.96728956,-169.96640612,-89.48350344,-106.35276074,84.99231663
19.73416769,50.13706220,52.91581517,21.86992359,-1.50300355,-0.74453765,1.73444830

>  <Name>
ligand

>  <RI>
0

>  <Rbt.Current_Directory>
/home/itssahil/PROJECTS/Mol_Feturizer/New_Systems/rnas/3GX3

>  <Rbt.Executable>
rbdock ($Id: //depot/dev/client3/rdock/2013.1/src/exe/rbdock.cxx#4 $)

>  <Rbt.Library>
libRbt.so (2013.1, Build901 2013/11/27)

>  <Rbt.Parameter_File>
/export/apps/rDock/src/rDock_2013.1_src/data/scripts/dock_solv.prm

>  <Rbt.Receptor>
prm/blind_docking_80.prm

>  <SCORE>
-17.4381

>  <SCORE.INTER>
-15.1093

>  <SCORE.INTER.CONST>
1

>  <SCORE.INTER.POLAR>
0

>  <SCORE.INTER.ROT>
7

>  <SCORE.INTER.SOLV>
5.73603

>  <SCORE.INTER.VDW>
-20.2516

>  <SCORE.INTER.norm>
-0.581129

>  <SCORE.INTRA>
-2.32876

>  <SCORE.INTRA.DIHEDRAL>
2.94204

>  <SCORE.INTRA.DIHEDRAL.0>
5.78979

>  <SCORE.INTRA.POLAR>
0

>  <SCORE.INTRA.POLAR.0>
0

>  <SCORE.INTRA.REPUL>
0

>  <SCORE.INTRA.REPUL.0>
0

>  <SCORE.INTRA.SOLV>
-1.02905

>  <SCORE.INTRA.SOLV.lig_0>
-49.9151

>  <SCORE.INTRA.VDW>
-3.28525

>  <SCORE.INTRA.VDW.0>
-0.211125

>  <SCORE.INTRA.norm>
-0.0895675

>  <SCORE.RESTR>
0

>  <SCORE.RESTR.CAVITY>
0

>  <SCORE.RESTR.norm>
0

>  <SCORE.SYSTEM>
0

>  <SCORE.SYSTEM.CONST>
0

>  <SCORE.SYSTEM.DIHEDRAL>
0

>  <SCORE.SYSTEM.SOLV>
0

>  <SCORE.SYSTEM.norm>
0

>  <SCORE.heavy>
26

>  <SCORE.norm>
-0.670696

>  <RMSD>
11.348

$$$$
ligand
 OpenBabel11021811483D
libRbt.so/2013.1/901 2013/11/27
 26 28  0  0  0  0  0  0  0  0999 V2000
   50.6101   54.9595   16.0941 N   0  0  0  0  0  0  0  0  0  0  0  0
   50.6133   54.5351   17.4968 C   0  0  2  0  0  0  0  0  0  0  0  0
   50.7114   53.0207   17.6940 C   0  0  0  0  0  0  0  0  0  0  0  0
   51.6983   52.5738   18.2791 O   0  0  0  0  0  0  0  0  0  0  0  0
   49.4103   55.0134   18.3200 C   0  0  0  0  0  0  0  0  0  0  0  0
   49.3202   54.7365   19.8106 C   0  0  0  0  0  0  0  0  0  0  0  0
   47.7348   55.4068   20.3627 S   0  0  0  0  0  0  0  0  0  0  0  0
   48.5385   55.7287   21.9507 C   0  0  0  0  0  0  0  0  0  0  0  0
   48.1318   54.7680   23.0732 C   0  0  1  0  0  0  0  0  0  0  0  0
   48.2711   53.3887   22.7139 O   0  0  0  0  0  0  0  0  0  0  0  0
   48.9814   54.9956   24.3151 C   0  0  1  0  0  0  0  0  0  0  0  0
   48.3702   55.9121   25.1958 O   0  0  0  0  0  0  0  0  0  0  0  0
   49.1555   53.6077   24.9181 C   0  0  1  0  0  0  0  0  0  0  0  0
   48.1471   53.3206   25.8659 O   0  0  0  0  0  0  0  0  0  0  0  0
   48.9554   52.6812   23.7350 C   0  0  2  0  0  0  0  0  0  0  0  0
   49.8393   52.2337   17.3055 O   0  0  0  0  0  0  0  0  0  0  0  0
   53.2747   49.9233   24.8993 N   0  0  0  0  0  0  0  0  0  0  0  0
   52.2339   50.2609   25.7272 C   0  0  0  0  0  0  0  0  0  0  0  0
   51.1850   51.0131   25.2414 N   0  0  0  0  0  0  0  0  0  0  0  0
   51.1424   51.3963   23.9531 C   0  0  0  0  0  0  0  0  0  0  0  0
   52.1818   51.0644   23.1008 C   0  0  0  0  0  0  0  0  0  0  0  0
   53.2440   50.3296   23.5888 C   0  0  0  0  0  0  0  0  0  0  0  0
   54.2390   49.9917   22.7917 N   0  0  0  0  0  0  0  0  0  0  0  0
   51.9027   51.5634   21.8760 N   0  0  0  0  0  0  0  0  0  0  0  0
   50.7198   52.2245   21.9470 C   0  0  0  0  0  0  0  0  0  0  0  0
   50.2341   52.1272   23.2326 N   0  0  0  0  0  0  0  0  0  0  0  0
  2  1  1  6  0  0  0
  2  3  1  0  0  0  0
  2  5  1  0  0  0  0
  3  4  1  0  0  0  0
  3 16  1  0  0  0  0
  5  6  1  0  0  0  0
  6  7  1  0  0  0  0
  7  8  1  0  0  0  0
  9  8  1  6  0  0  0
  9 10  1  0  0  0  0
  9 11  1  0  0  0  0
 10 15  1  0  0  0  0
 11 12  1  1  0  0  0
 11 13  1  0  0  0  0
 13 14  1  1  0  0  0
 13 15  1  0  0  0  0
 15 26  1  6  0  0  0
 17 18  2  0  0  0  0
 17 22  1  0  0  0  0
 18 19  1  0  0  0  0
 19 20  2  0  0  0  0
 20 21  1  0  0  0  0
 20 26  1  0  0  0  0
 21 22  2  0  0  0  0
 21 24  1  0  0  0  0
 22 23  1  0  0  0  0
 24 25  2  0  0  0  0
 25 26  1  0  0  0  0
M  END
>  <CHROM.1>
117.25437038,-175.69957042,-177.82048013,-148.78671811,-105.76816352,52.31879407
179.74205308,50.15806202,53.12023573,21.94244531,-1.89680062,-0.76434589
1.77026476

>  <Name>
ligand

>  <RI>
0

>  <Rbt.Current_Directory>
/home/itssahil/PROJECTS/Mol_Feturizer/New_Systems/rnas/3GX3

>  <Rbt.Executable>
rbdock ($Id: //depot/dev/client3/rdock/2013.1/src/exe/rbdock.cxx#4 $)

>  <Rbt.Library>
libRbt.so (2013.1, Build901 2013/11/27)

>  <Rbt.Parameter_File>
/export/apps/rDock/src/rDock_2013.1_src/data/scripts/dock_solv.prm

>  <Rbt.Receptor>
prm/blind_docking_80.prm

>  <SCORE>
-18.3502

>  <SCORE.INTER>
-15.3849

>  <SCORE.INTER.CONST>
1

>  <SCORE.INTER.POLAR>
0

>  <SCORE.INTER.ROT>
7

>  <SCORE.INTER.SOLV>
9.28541

>  <SCORE.INTER.VDW>
-21.6184

>  <SCORE.INTER.norm>
-0.591727

>  <SCORE.INTRA>
-2.96531

>  <SCORE.INTRA.DIHEDRAL>
0.669769

>  <SCORE.INTRA.DIHEDRAL.0>
5.78979

>  <SCORE.INTRA.POLAR>
0

>  <SCORE.INTRA.POLAR.0>
0

>  <SCORE.INTRA.REPUL>
0

>  <SCORE.INTRA.REPUL.0>
0

>  <SCORE.INTRA.SOLV>
-1.06365

>  <SCORE.INTRA.SOLV.lig_0>
-49.9151

>  <SCORE.INTRA.VDW>
-2.76837

>  <SCORE.INTRA.VDW.0>
-0.211125

>  <SCORE.INTRA.norm>
-0.11405

>  <SCORE.RESTR>
0

>  <SCORE.RESTR.CAVITY>
0

>  <SCORE.RESTR.norm>
0

>  <SCORE.SYSTEM>
0

>  <SCORE.SYSTEM.CONST>
0

>  <SCORE.SYSTEM.DIHEDRAL>
0

>  <SCORE.SYSTEM.SOLV>
0

>  <SCORE.SYSTEM.norm>
0

>  <SCORE.heavy>
26

>  <SCORE.norm>
-0.705777

>  <RMSD>
11.351

$$$$
ligand
 OpenBabel11021811483D
libRbt.so/2013.1/901 2013/11/27
 26 28  0  0  0  0  0  0  0  0999 V2000
   52.5474   50.2363   25.1026 N   0  0  0  0  0  0  0  0  0  0  0  0
   51.7609   51.3017   25.7304 C   0  0  2  0  0  0  0  0  0  0  0  0
   50.3742   50.8616   26.2049 C   0  0  0  0  0  0  0  0  0  0  0  0
   49.7476   50.0636   25.5072 O   0  0  0  0  0  0  0  0  0  0  0  0
   51.5583   52.5519   24.8646 C   0  0  0  0  0  0  0  0  0  0  0  0
   50.7317   53.7248   25.3624 C   0  0  0  0  0  0  0  0  0  0  0  0
   50.7426   54.9583   24.0410 S   0  0  0  0  0  0  0  0  0  0  0  0
   49.0770   55.4077   24.5842 C   0  0  0  0  0  0  0  0  0  0  0  0
   47.9816   55.1591   23.5418 C   0  0  1  0  0  0  0  0  0  0  0  0
   48.2992   55.6921   22.2511 O   0  0  0  0  0  0  0  0  0  0  0  0
   47.7332   53.6685   23.3622 C   0  0  1  0  0  0  0  0  0  0  0  0
   46.7032   53.2126   24.2111 O   0  0  0  0  0  0  0  0  0  0  0  0
   47.4062   53.5114   21.8829 C   0  0  1  0  0  0  0  0  0  0  0  0
   46.0161   53.6009   21.6436 O   0  0  0  0  0  0  0  0  0  0  0  0
   48.0637   54.7198   21.2458 C   0  0  2  0  0  0  0  0  0  0  0  0
   49.8663   51.2603   27.2603 O   0  0  0  0  0  0  0  0  0  0  0  0
   51.2389   55.7898   17.1972 N   0  0  0  0  0  0  0  0  0  0  0  0
   50.0509   56.3920   17.5270 C   0  0  0  0  0  0  0  0  0  0  0  0
   49.3422   55.9579   18.6276 N   0  0  0  0  0  0  0  0  0  0  0  0
   49.8118   54.9719   19.4122 C   0  0  0  0  0  0  0  0  0  0  0  0
   51.0094   54.3524   19.0978 C   0  0  0  0  0  0  0  0  0  0  0  0
   51.7115   54.7699   17.9846 C   0  0  0  0  0  0  0  0  0  0  0  0
   52.8606   54.2023   17.6734 N   0  0  0  0  0  0  0  0  0  0  0  0
   51.2551   53.4049   20.0300 N   0  0  0  0  0  0  0  0  0  0  0  0
   50.2229   53.3989   20.9108 C   0  0  0  0  0  0  0  0  0  0  0  0
   49.3184   54.3699   20.5403 N   0  0  0  0  0  0  0  0  0  0  0  0
  2  1  1  6  0  0  0
  2  3  1  0  0  0  0
  2  5  1  0  0  0  0
  3  4  1  0  0  0  0
  3 16  1  0  0  0  0
  5  6  1  0  0  0  0
  6  7  1  0  0  0  0
  7  8  1  0  0  0  0
  9  8  1  1  0  0  0
  9 10  1  0  0  0  0
  9 11  1  0  0  0  0
 10 15  1  0  0  0  0
 11 12  1  1  0  0  0
 11 13  1  0  0  0  0
 13 14  1  1  0  0  0
 13 15  1  0  0  0  0
 15 26  1  1  0  0  0
 17 18  2  0  0  0  0
 17 22  1  0  0  0  0
 18 19  1  0  0  0  0
 19 20  2  0  0  0  0
 20 21  1  0  0  0  0
 20 26  1  0  0  0  0
 21 22  2  0  0  0  0
 21 24  1  0  0  0  0
 22 23  1  0  0  0  0
 24 25  2  0  0  0  0
 25 26  1  0  0  0  0
M  END
>  <CHROM.1>
-37.93681212,178.24343042,-179.56331116,147.48858298,-116.47296295,-49.30916072
-90.73089070,49.81720057,53.77259866,22.34066754,-1.60681149,0.37212553,-1.12230689

>  <Name>
ligand

>  <RI>
0

>  <Rbt.Current_Directory>
/home/itssahil/PROJECTS/Mol_Feturizer/New_Systems/rnas/3GX3

>  <Rbt.Executable>
rbdock ($Id: //depot/dev/client3/rdock/2013.1/src/exe/rbdock.cxx#4 $)

>  <Rbt.Library>
libRbt.so (2013.1, Build901 2013/11/27)

>  <Rbt.Parameter_File>
/export/apps/rDock/src/rDock_2013.1_src/data/scripts/dock_solv.prm

>  <Rbt.Receptor>
prm/blind_docking_100.prm

>  <SCORE>
-14.4034

>  <SCORE.INTER>
-11.4877

>  <SCORE.INTER.CONST>
1

>  <SCORE.INTER.POLAR>
0

>  <SCORE.INTER.ROT>
7

>  <SCORE.INTER.SOLV>
12.0275

>  <SCORE.INTER.VDW>
-19.9343

>  <SCORE.INTER.norm>
-0.441834

>  <SCORE.INTRA>
-2.91569

>  <SCORE.INTRA.DIHEDRAL>
1.15835

>  <SCORE.INTRA.DIHEDRAL.0>
5.78979

>  <SCORE.INTRA.POLAR>
0

>  <SCORE.INTRA.POLAR.0>
0

>  <SCORE.INTRA.REPUL>
0

>  <SCORE.INTRA.REPUL.0>
0

>  <SCORE.INTRA.SOLV>
-0.797995

>  <SCORE.INTRA.SOLV.lig_0>
-49.9151

>  <SCORE.INTRA.VDW>
-3.09587

>  <SCORE.INTRA.VDW.0>
-0.211125

>  <SCORE.INTRA.norm>
-0.112142

>  <SCORE.RESTR>
0

>  <SCORE.RESTR.CAVITY>
0

>  <SCORE.RESTR.norm>
0

>  <SCORE.SYSTEM>
0

>  <SCORE.SYSTEM.CONST>
0

>  <SCORE.SYSTEM.DIHEDRAL>
0

>  <SCORE.SYSTEM.SOLV>
0

>  <SCORE.SYSTEM.norm>
0

>  <SCORE.heavy>
26

>  <SCORE.norm>
-0.553976

>  <RMSD>
11.439

$$$$
ligand
 OpenBabel11021811483D
libRbt.so/2013.1/901 2013/11/27
 26 28  0  0  0  0  0  0  0  0999 V2000
   51.3176   54.9560   17.6266 N   0  0  0  0  0  0  0  0  0  0  0  0
   52.6163   54.6001   17.0483 C   0  0  2  0  0  0  0  0  0  0  0  0
   52.5358   53.6002   15.8927 C   0  0  0  0  0  0  0  0  0  0  0  0
   51.7105   52.6896   15.9688 O   0  0  0  0  0  0  0  0  0  0  0  0
   53.6384   54.0430   18.0476 C   0  0  0  0  0  0  0  0  0  0  0  0
   53.3155   52.8332   18.9072 C   0  0  0  0  0  0  0  0  0  0  0  0
   54.6208   52.7254   20.1532 S   0  0  0  0  0  0  0  0  0  0  0  0
   53.7045   51.3284   20.8462 C   0  0  0  0  0  0  0  0  0  0  0  0
   54.0815   50.9763   22.2892 C   0  0  1  0  0  0  0  0  0  0  0  0
   53.8901   52.0619   23.2036 O   0  0  0  0  0  0  0  0  0  0  0  0
   53.2468   49.8098   22.7977 C   0  0  1  0  0  0  0  0  0  0  0  0
   53.8954   48.5774   22.5748 O   0  0  0  0  0  0  0  0  0  0  0  0
   53.0252   50.1137   24.2737 C   0  0  1  0  0  0  0  0  0  0  0  0
   54.0271   49.5308   25.0824 O   0  0  0  0  0  0  0  0  0  0  0  0
   53.1856   51.6192   24.3521 C   0  0  2  0  0  0  0  0  0  0  0  0
   53.2506   53.6768   14.8856 O   0  0  0  0  0  0  0  0  0  0  0  0
   48.1094   51.1886   25.6424 N   0  0  0  0  0  0  0  0  0  0  0  0
   49.0730   50.2118   25.6486 C   0  0  0  0  0  0  0  0  0  0  0  0
   50.3601   50.5132   25.2558 N   0  0  0  0  0  0  0  0  0  0  0  0
   50.7029   51.7632   24.8972 C   0  0  0  0  0  0  0  0  0  0  0  0
   49.7458   52.7635   24.8858 C   0  0  0  0  0  0  0  0  0  0  0  0
   48.4512   52.4610   25.2581 C   0  0  0  0  0  0  0  0  0  0  0  0
   47.5262   53.4011   25.2665 N   0  0  0  0  0  0  0  0  0  0  0  0
   50.3375   53.9130   24.4909 N   0  0  0  0  0  0  0  0  0  0  0  0
   51.6427   53.6498   24.2293 C   0  0  0  0  0  0  0  0  0  0  0  0
   51.8850   52.3168   24.4796 N   0  0  0  0  0  0  0  0  0  0  0  0
  2  1  1  1  0  0  0
  2  3  1  0  0  0  0
  2  5  1  0  0  0  0
  3  4  1  0  0  0  0
  3 16  1  0  0  0  0
  5  6  1  0  0  0  0
  6  7  1  0  0  0  0
  7  8  1  0  0  0  0
  9  8  1  6  0  0  0
  9 10  1  0  0  0  0
  9 11  1  0  0  0  0
 10 15  1  0  0  0  0
 11 12  1  1  0  0  0
 11 13  1  0  0  0  0
 13 14  1  1  0  0  0
 13 15  1  0  0  0  0
 15 26  1  6  0  0  0
 17 18  2  0  0  0  0
 17 22  1  0  0  0  0
 18 19  1  0  0  0  0
 19 20  2  0  0  0  0
 20 21  1  0  0  0  0
 20 26  1  0  0  0  0
 21 22  2  0  0  0  0
 21 24  1  0  0  0  0
 22 23  1  0  0  0  0
 24 25  2  0  0  0  0
 25 26  1  0  0  0  0
M  END
>  <CHROM.1>
-38.16396343,55.85376425,-168.62158698,176.55777655,-161.76533340,58.58293413
141.54719237,52.11989332,52.13521059,21.89267153,1.22714908,0.50284858,-1.14881494

>  <Name>
ligand

>  <RI>
0

>  <Rbt.Current_Directory>
/home/itssahil/PROJECTS/Mol_Feturizer/New_Systems/rnas/3GX3

>  <Rbt.Executable>
rbdock ($Id: //depot/dev/client3/rdock/2013.1/src/exe/rbdock.cxx#4 $)

>  <Rbt.Library>
libRbt.so (2013.1, Build901 2013/11/27)

>  <Rbt.Parameter_File>
/export/apps/rDock/src/rDock_2013.1_src/data/scripts/dock_solv.prm

>  <Rbt.Receptor>
prm/blind_docking_80.prm

>  <SCORE>
-15.7586

>  <SCORE.INTER>
-12.6698

>  <SCORE.INTER.CONST>
1

>  <SCORE.INTER.POLAR>
0

>  <SCORE.INTER.ROT>
7

>  <SCORE.INTER.SOLV>
8.90949

>  <SCORE.INTER.VDW>
-19.683

>  <SCORE.INTER.norm>
-0.4873

>  <SCORE.INTRA>
-3.10957

>  <SCORE.INTRA.DIHEDRAL>
-1.90451

>  <SCORE.INTRA.DIHEDRAL.0>
5.78979

>  <SCORE.INTRA.POLAR>
0

>  <SCORE.INTRA.POLAR.0>
0

>  <SCORE.INTRA.REPUL>
0

>  <SCORE.INTRA.REPUL.0>
0

>  <SCORE.INTRA.SOLV>
-0.492742

>  <SCORE.INTRA.SOLV.lig_0>
-49.9151

>  <SCORE.INTRA.VDW>
-1.91094

>  <SCORE.INTRA.VDW.0>
-0.211125

>  <SCORE.INTRA.norm>
-0.119599

>  <SCORE.RESTR>
0.0207613

>  <SCORE.RESTR.CAVITY>
0.0207613

>  <SCORE.RESTR.norm>
0.00079851

>  <SCORE.SYSTEM>
0

>  <SCORE.SYSTEM.CONST>
0

>  <SCORE.SYSTEM.DIHEDRAL>
0

>  <SCORE.SYSTEM.SOLV>
0

>  <SCORE.SYSTEM.norm>
0

>  <SCORE.heavy>
26

>  <SCORE.norm>
-0.6061

>  <RMSD>
11.479

$$$$
ligand
 OpenBabel11021811483D
libRbt.so/2013.1/901 2013/11/27
 26 28  0  0  0  0  0  0  0  0999 V2000
   52.8677   54.6623   16.7441 N   0  0  0  0  0  0  0  0  0  0  0  0
   52.6928   53.5850   17.7221 C   0  0  2  0  0  0  0  0  0  0  0  0
   51.5510   52.6200   17.3952 C   0  0  0  0  0  0  0  0  0  0  0  0
   51.8392   51.5083   16.9509 O   0  0  0  0  0  0  0  0  0  0  0  0
   52.4795   54.0522   19.1678 C   0  0  0  0  0  0  0  0  0  0  0  0
   52.4102   53.0557   20.3118 C   0  0  0  0  0  0  0  0  0  0  0  0
   54.1016   52.4871   20.6008 S   0  0  0  0  0  0  0  0  0  0  0  0
   53.3713   50.9703   21.2620 C   0  0  0  0  0  0  0  0  0  0  0  0
   54.0089   50.4753   22.5646 C   0  0  1  0  0  0  0  0  0  0  0  0
   53.7366   51.3249   23.6849 O   0  0  0  0  0  0  0  0  0  0  0  0
   53.5012   49.0859   22.9222 C   0  0  1  0  0  0  0  0  0  0  0  0
   54.3431   48.0809   22.4021 O   0  0  0  0  0  0  0  0  0  0  0  0
   53.4328   49.0843   24.4438 C   0  0  1  0  0  0  0  0  0  0  0  0
   54.6335   48.6102   25.0193 O   0  0  0  0  0  0  0  0  0  0  0  0
   53.3015   50.5537   24.7928 C   0  0  2  0  0  0  0  0  0  0  0  0
   50.3595   52.9031   17.5712 O   0  0  0  0  0  0  0  0  0  0  0  0
   48.7571   52.7071   23.2665 N   0  0  0  0  0  0  0  0  0  0  0  0
   49.9113   52.5556   22.5402 C   0  0  0  0  0  0  0  0  0  0  0  0
   51.0194   51.9772   23.1228 N   0  0  0  0  0  0  0  0  0  0  0  0
   50.9820   51.5219   24.3877 C   0  0  0  0  0  0  0  0  0  0  0  0
   49.8265   51.6636   25.1370 C   0  0  0  0  0  0  0  0  0  0  0  0
   48.7216   52.2614   24.5641 C   0  0  0  0  0  0  0  0  0  0  0  0
   47.6064   52.3955   25.2554 N   0  0  0  0  0  0  0  0  0  0  0  0
   50.0463   51.1337   26.3609 N   0  0  0  0  0  0  0  0  0  0  0  0
   51.3258   50.6841   26.4047 C   0  0  0  0  0  0  0  0  0  0  0  0
   51.9196   50.9171   25.1835 N   0  0  0  0  0  0  0  0  0  0  0  0
  2  1  1  6  0  0  0
  2  3  1  0  0  0  0
  2  5  1  0  0  0  0
  3  4  1  0  0  0  0
  3 16  1  0  0  0  0
  5  6  1  0  0  0  0
  6  7  1  0  0  0  0
  7  8  1  0  0  0  0
  9  8  1  6  0  0  0
  9 10  1  0  0  0  0
  9 11  1  0  0  0  0
 10 15  1  0  0  0  0
 11 12  1  1  0  0  0
 11 13  1  0  0  0  0
 13 14  1  1  0  0  0
 13 15  1  0  0  0  0
 15 26  1  6  0  0  0
 17 18  2  0  0  0  0
 17 22  1  0  0  0  0
 18 19  1  0  0  0  0
 19 20  2  0  0  0  0
 20 21  1  0  0  0  0
 20 26  1  0  0  0  0
 21 22  2  0  0  0  0
 21 24  1  0  0  0  0
 22 23  1  0  0  0  0
 24 25  2  0  0  0  0
 25 26  1  0  0  0  0
M  END
>  <CHROM.1>
104.51008096,-174.35050595,74.31933882,-153.92279617,-135.62980221,69.14561226
22.00205066,52.03909333,51.59090730,22.14822684,1.44503003,0.50186717,-1.17848369

>  <Name>
ligand

>  <RI>
0

>  <Rbt.Current_Directory>
/home/itssahil/PROJECTS/Mol_Feturizer/New_Systems/rnas/3GX3

>  <Rbt.Executable>
rbdock ($Id: //depot/dev/client3/rdock/2013.1/src/exe/rbdock.cxx#4 $)

>  <Rbt.Library>
libRbt.so (2013.1, Build901 2013/11/27)

>  <Rbt.Parameter_File>
/export/apps/rDock/src/rDock_2013.1_src/data/scripts/dock_solv.prm

>  <Rbt.Receptor>
prm/blind_docking_80.prm

>  <SCORE>
-17.0434

>  <SCORE.INTER>
-13.7905

>  <SCORE.INTER.CONST>
1

>  <SCORE.INTER.POLAR>
0

>  <SCORE.INTER.ROT>
7

>  <SCORE.INTER.SOLV>
11.2603

>  <SCORE.INTER.VDW>
-21.2138

>  <SCORE.INTER.norm>
-0.530404

>  <SCORE.INTRA>
-3.25286

>  <SCORE.INTRA.DIHEDRAL>
1.11377

>  <SCORE.INTRA.DIHEDRAL.0>
5.78979

>  <SCORE.INTRA.POLAR>
0

>  <SCORE.INTRA.POLAR.0>
0

>  <SCORE.INTRA.REPUL>
0

>  <SCORE.INTRA.REPUL.0>
0

>  <SCORE.INTRA.SOLV>
-1.00848

>  <SCORE.INTRA.SOLV.lig_0>
-49.9151

>  <SCORE.INTRA.VDW>
-3.3055

>  <SCORE.INTRA.VDW.0>
-0.211125

>  <SCORE.INTRA.norm>
-0.12511

>  <SCORE.RESTR>
0

>  <SCORE.RESTR.CAVITY>
0

>  <SCORE.RESTR.norm>
0

>  <SCORE.SYSTEM>
0

>  <SCORE.SYSTEM.CONST>
0

>  <SCORE.SYSTEM.DIHEDRAL>
0

>  <SCORE.SYSTEM.SOLV>
0

>  <SCORE.SYSTEM.norm>
0

>  <SCORE.heavy>
26

>  <SCORE.norm>
-0.655514

>  <RMSD>
11.483

$$$$
ligand
 OpenBabel11021811483D
libRbt.so/2013.1/901 2013/11/27
 26 28  0  0  0  0  0  0  0  0999 V2000
   51.2709   55.9059   16.4520 N   0  0  0  0  0  0  0  0  0  0  0  0
   50.8219   54.7760   17.2703 C   0  0  2  0  0  0  0  0  0  0  0  0
   50.1336   53.6621   16.4783 C   0  0  0  0  0  0  0  0  0  0  0  0
   49.5952   53.9557   15.4107 O   0  0  0  0  0  0  0  0  0  0  0  0
   49.8818   55.1467   18.4246 C   0  0  0  0  0  0  0  0  0  0  0  0
   49.3748   54.0919   19.3925 C   0  0  0  0  0  0  0  0  0  0  0  0
   48.5592   54.9801   20.7392 S   0  0  0  0  0  0  0  0  0  0  0  0
   48.5483   53.4085   21.6343 C   0  0  0  0  0  0  0  0  0  0  0  0
   48.4437   53.5469   23.1569 C   0  0  1  0  0  0  0  0  0  0  0  0
   48.5151   52.2924   23.8439 O   0  0  0  0  0  0  0  0  0  0  0  0
   49.5660   54.4196   23.6997 C   0  0  1  0  0  0  0  0  0  0  0  0
   49.1718   55.7712   23.7842 O   0  0  0  0  0  0  0  0  0  0  0  0
   49.9055   53.8072   25.0525 C   0  0  1  0  0  0  0  0  0  0  0  0
   49.1632   54.4045   26.0964 O   0  0  0  0  0  0  0  0  0  0  0  0
   49.4394   52.3711   24.9168 C   0  0  2  0  0  0  0  0  0  0  0  0
   50.1085   52.4843   16.8566 O   0  0  0  0  0  0  0  0  0  0  0  0
   53.2375   50.7360   21.6735 N   0  0  0  0  0  0  0  0  0  0  0  0
   52.3040   51.7188   21.4607 C   0  0  0  0  0  0  0  0  0  0  0  0
   51.3652   51.9973   22.4319 N   0  0  0  0  0  0  0  0  0  0  0  0
   51.3669   51.3449   23.6079 C   0  0  0  0  0  0  0  0  0  0  0  0
   52.3017   50.3510   23.8430 C   0  0  0  0  0  0  0  0  0  0  0  0
   53.2299   50.0547   22.8648 C   0  0  0  0  0  0  0  0  0  0  0  0
   54.1372   49.1202   23.0721 N   0  0  0  0  0  0  0  0  0  0  0  0
   52.0914   49.8548   25.0826 N   0  0  0  0  0  0  0  0  0  0  0  0
   51.0265   50.4997   25.6224 C   0  0  0  0  0  0  0  0  0  0  0  0
   50.5668   51.4310   24.7172 N   0  0  0  0  0  0  0  0  0  0  0  0
  2  1  1  6  0  0  0
  2  3  1  0  0  0  0
  2  5  1  0  0  0  0
  3  4  1  0  0  0  0
  3 16  1  0  0  0  0
  5  6  1  0  0  0  0
  6  7  1  0  0  0  0
  7  8  1  0  0  0  0
  9  8  1  6  0  0  0
  9 10  1  0  0  0  0
  9 11  1  0  0  0  0
 10 15  1  0  0  0  0
 11 12  1  1  0  0  0
 11 13  1  0  0  0  0
 13 14  1  1  0  0  0
 13 15  1  0  0  0  0
 15 26  1  6  0  0  0
 17 18  2  0  0  0  0
 17 22  1  0  0  0  0
 18 19  1  0  0  0  0
 19 20  2  0  0  0  0
 20 21  1  0  0  0  0
 20 26  1  0  0  0  0
 21 22  2  0  0  0  0
 21 24  1  0  0  0  0
 22 23  1  0  0  0  0
 24 25  2  0  0  0  0
 25 26  1  0  0  0  0
M  END
>  <CHROM.1>
-25.21542659,-177.63352785,170.15911091,-168.09324179,157.25772511,-176.59963602
53.38887151,50.38913697,52.94203124,21.73220347,-1.77614816,-0.83155912,1.79763800

>  <Name>
ligand

>  <RI>
0

>  <Rbt.Current_Directory>
/home/itssahil/PROJECTS/Mol_Feturizer/New_Systems/rnas/3GX3

>  <Rbt.Executable>
rbdock ($Id: //depot/dev/client3/rdock/2013.1/src/exe/rbdock.cxx#4 $)

>  <Rbt.Library>
libRbt.so (2013.1, Build901 2013/11/27)

>  <Rbt.Parameter_File>
/export/apps/rDock/src/rDock_2013.1_src/data/scripts/dock_solv.prm

>  <Rbt.Receptor>
prm/blind_docking_80.prm

>  <SCORE>
-19.7894

>  <SCORE.INTER>
-15.7147

>  <SCORE.INTER.CONST>
1

>  <SCORE.INTER.POLAR>
0

>  <SCORE.INTER.ROT>
7

>  <SCORE.INTER.SOLV>
8.93479

>  <SCORE.INTER.VDW>
-21.7214

>  <SCORE.INTER.norm>
-0.60441

>  <SCORE.INTRA>
-4.07469

>  <SCORE.INTRA.DIHEDRAL>
-1.57329

>  <SCORE.INTRA.DIHEDRAL.0>
5.78979

>  <SCORE.INTRA.POLAR>
0

>  <SCORE.INTRA.POLAR.0>
0

>  <SCORE.INTRA.REPUL>
0

>  <SCORE.INTRA.REPUL.0>
0

>  <SCORE.INTRA.SOLV>
-0.858018

>  <SCORE.INTRA.SOLV.lig_0>
-49.9151

>  <SCORE.INTRA.VDW>
-2.85904

>  <SCORE.INTRA.VDW.0>
-0.211125

>  <SCORE.INTRA.norm>
-0.156719

>  <SCORE.RESTR>
0

>  <SCORE.RESTR.CAVITY>
0

>  <SCORE.RESTR.norm>
0

>  <SCORE.SYSTEM>
0

>  <SCORE.SYSTEM.CONST>
0

>  <SCORE.SYSTEM.DIHEDRAL>
0

>  <SCORE.SYSTEM.SOLV>
0

>  <SCORE.SYSTEM.norm>
0

>  <SCORE.heavy>
26

>  <SCORE.norm>
-0.761129

>  <RMSD>
11.570

$$$$
ligand
 OpenBabel11021811483D
libRbt.so/2013.1/901 2013/11/27
 26 28  0  0  0  0  0  0  0  0999 V2000
   49.9660   53.8869   16.3858 N   0  0  0  0  0  0  0  0  0  0  0  0
   49.8601   54.9972   17.3365 C   0  0  2  0  0  0  0  0  0  0  0  0
   50.7897   56.1743   17.0328 C   0  0  0  0  0  0  0  0  0  0  0  0
   51.2943   56.2417   15.9117 O   0  0  0  0  0  0  0  0  0  0  0  0
   50.0909   54.6160   18.8045 C   0  0  0  0  0  0  0  0  0  0  0  0
   49.0939   53.7513   19.5562 C   0  0  0  0  0  0  0  0  0  0  0  0
   47.6446   54.7871   19.8631 S   0  0  0  0  0  0  0  0  0  0  0  0
   48.5127   55.3917   21.3301 C   0  0  0  0  0  0  0  0  0  0  0  0
   48.2686   54.5647   22.5970 C   0  0  1  0  0  0  0  0  0  0  0  0
   48.4891   53.1624   22.4069 O   0  0  0  0  0  0  0  0  0  0  0  0
   49.1886   55.0143   23.7228 C   0  0  1  0  0  0  0  0  0  0  0  0
   48.5747   55.9967   24.5275 O   0  0  0  0  0  0  0  0  0  0  0  0
   49.5166   53.7351   24.4818 C   0  0  1  0  0  0  0  0  0  0  0  0
   48.6081   53.5093   25.5407 O   0  0  0  0  0  0  0  0  0  0  0  0
   49.3019   52.6467   23.4484 C   0  0  2  0  0  0  0  0  0  0  0  0
   51.0418   57.0624   17.8565 O   0  0  0  0  0  0  0  0  0  0  0  0
   53.4327   49.5149   24.3126 N   0  0  0  0  0  0  0  0  0  0  0  0
   52.3671   49.7629   25.1407 C   0  0  0  0  0  0  0  0  0  0  0  0
   51.3778   50.6384   24.7447 N   0  0  0  0  0  0  0  0  0  0  0  0
   51.4171   51.2327   23.5390 C   0  0  0  0  0  0  0  0  0  0  0  0
   52.4828   50.9945   22.6880 C   0  0  0  0  0  0  0  0  0  0  0  0
   53.4860   50.1349   23.0894 C   0  0  0  0  0  0  0  0  0  0  0  0
   54.5043   49.8839   22.2897 N   0  0  0  0  0  0  0  0  0  0  0  0
   52.2879   51.7043   21.5542 N   0  0  0  0  0  0  0  0  0  0  0  0
   51.1329   52.4043   21.6856 C   0  0  0  0  0  0  0  0  0  0  0  0
   50.5791   52.1192   22.9145 N   0  0  0  0  0  0  0  0  0  0  0  0
  2  1  1  6  0  0  0
  2  3  1  0  0  0  0
  2  5  1  0  0  0  0
  3  4  1  0  0  0  0
  3 16  1  0  0  0  0
  5  6  1  0  0  0  0
  6  7  1  0  0  0  0
  7  8  1  0  0  0  0
  9  8  1  6  0  0  0
  9 10  1  0  0  0  0
  9 11  1  0  0  0  0
 10 15  1  0  0  0  0
 11 12  1  1  0  0  0
 11 13  1  0  0  0  0
 13 14  1  1  0  0  0
 13 15  1  0  0  0  0
 15 26  1  6  0  0  0
 17 18  2  0  0  0  0
 17 22  1  0  0  0  0
 18 19  1  0  0  0  0
 19 20  2  0  0  0  0
 20 21  1  0  0  0  0
 20 26  1  0  0  0  0
 21 22  2  0  0  0  0
 21 24  1  0  0  0  0
 22 23  1  0  0  0  0
 24 25  2  0  0  0  0
 25 26  1  0  0  0  0
M  END
>  <CHROM.1>
16.20192666,-68.83105982,-72.47379032,-84.71583189,-88.85519627,51.21828271
-160.30258088,50.32076763,53.38880623,21.52172245,-1.90809686,-0.69958218
1.97888981

>  <Name>
ligand

>  <RI>
0

>  <Rbt.Current_Directory>
/home/itssahil/PROJECTS/Mol_Feturizer/New_Systems/rnas/3GX3

>  <Rbt.Executable>
rbdock ($Id: //depot/dev/client3/rdock/2013.1/src/exe/rbdock.cxx#4 $)

>  <Rbt.Library>
libRbt.so (2013.1, Build901 2013/11/27)

>  <Rbt.Parameter_File>
/export/apps/rDock/src/rDock_2013.1_src/data/scripts/dock_solv.prm

>  <Rbt.Receptor>
prm/blind_docking_80.prm

>  <SCORE>
-16.7485

>  <SCORE.INTER>
-15.0824

>  <SCORE.INTER.CONST>
1

>  <SCORE.INTER.POLAR>
0

>  <SCORE.INTER.ROT>
7

>  <SCORE.INTER.SOLV>
11.5139

>  <SCORE.INTER.VDW>
-22.1595

>  <SCORE.INTER.norm>
-0.580091

>  <SCORE.INTRA>
-1.6661

>  <SCORE.INTRA.DIHEDRAL>
0.21095

>  <SCORE.INTRA.DIHEDRAL.0>
5.78979

>  <SCORE.INTRA.POLAR>
0

>  <SCORE.INTRA.POLAR.0>
0

>  <SCORE.INTRA.REPUL>
0

>  <SCORE.INTRA.REPUL.0>
0

>  <SCORE.INTRA.SOLV>
-0.0978631

>  <SCORE.INTRA.SOLV.lig_0>
-49.9151

>  <SCORE.INTRA.VDW>
-1.72264

>  <SCORE.INTRA.VDW.0>
-0.211125

>  <SCORE.INTRA.norm>
-0.0640806

>  <SCORE.RESTR>
0

>  <SCORE.RESTR.CAVITY>
0

>  <SCORE.RESTR.norm>
0

>  <SCORE.SYSTEM>
0

>  <SCORE.SYSTEM.CONST>
0

>  <SCORE.SYSTEM.DIHEDRAL>
0

>  <SCORE.SYSTEM.SOLV>
0

>  <SCORE.SYSTEM.norm>
0

>  <SCORE.heavy>
26

>  <SCORE.norm>
-0.644171

>  <RMSD>
11.661

$$$$
ligand
 OpenBabel11021811483D
libRbt.so/2013.1/901 2013/11/27
 26 28  0  0  0  0  0  0  0  0999 V2000
   50.6845   53.9114   16.5702 N   0  0  0  0  0  0  0  0  0  0  0  0
   50.4668   55.3082   16.9566 C   0  0  2  0  0  0  0  0  0  0  0  0
   51.6571   55.9554   17.6680 C   0  0  0  0  0  0  0  0  0  0  0  0
   51.9107   57.1346   17.4206 O   0  0  0  0  0  0  0  0  0  0  0  0
   49.2359   55.5506   17.8397 C   0  0  0  0  0  0  0  0  0  0  0  0
   49.0435   54.7928   19.1418 C   0  0  0  0  0  0  0  0  0  0  0  0
   47.3713   55.1717   19.7144 S   0  0  0  0  0  0  0  0  0  0  0  0
   47.5012   53.6963   20.7524 C   0  0  0  0  0  0  0  0  0  0  0  0
   47.8457   53.9808   22.2183 C   0  0  1  0  0  0  0  0  0  0  0  0
   48.2718   52.8161   22.9343 O   0  0  0  0  0  0  0  0  0  0  0  0
   48.9662   55.0054   22.3221 C   0  0  1  0  0  0  0  0  0  0  0  0
   48.4564   56.3160   22.4310 O   0  0  0  0  0  0  0  0  0  0  0  0
   49.7697   54.5703   23.5407 C   0  0  1  0  0  0  0  0  0  0  0  0
   49.3115   55.2006   24.7199 O   0  0  0  0  0  0  0  0  0  0  0  0
   49.4607   53.0907   23.6574 C   0  0  2  0  0  0  0  0  0  0  0  0
   52.3612   55.3513   18.4867 O   0  0  0  0  0  0  0  0  0  0  0  0
   53.2084   49.6570   24.9924 N   0  0  0  0  0  0  0  0  0  0  0  0
   52.2965   50.2784   25.8078 C   0  0  0  0  0  0  0  0  0  0  0  0
   51.3924   51.1719   25.2728 N   0  0  0  0  0  0  0  0  0  0  0  0
   51.3616   51.4231   23.9520 C   0  0  0  0  0  0  0  0  0  0  0  0
   52.2721   50.8050   23.1119 C   0  0  0  0  0  0  0  0  0  0  0  0
   53.1927   49.9259   23.6467 C   0  0  0  0  0  0  0  0  0  0  0  0
   54.0612   49.3165   22.8632 N   0  0  0  0  0  0  0  0  0  0  0  0
   52.0355   51.2227   21.8482 N   0  0  0  0  0  0  0  0  0  0  0  0
   51.0101   52.1109   21.8803 C   0  0  0  0  0  0  0  0  0  0  0  0
   50.5794   52.2439   23.1822 N   0  0  0  0  0  0  0  0  0  0  0  0
  2  1  1  1  0  0  0
  2  3  1  0  0  0  0
  2  5  1  0  0  0  0
  3  4  1  0  0  0  0
  3 16  1  0  0  0  0
  5  6  1  0  0  0  0
  6  7  1  0  0  0  0
  7  8  1  0  0  0  0
  9  8  1  6  0  0  0
  9 10  1  0  0  0  0
  9 11  1  0  0  0  0
 10 15  1  0  0  0  0
 11 12  1  1  0  0  0
 11 13  1  0  0  0  0
 13 14  1  1  0  0  0
 13 15  1  0  0  0  0
 15 26  1  6  0  0  0
 17 18  2  0  0  0  0
 17 22  1  0  0  0  0
 18 19  1  0  0  0  0
 19 20  2  0  0  0  0
 20 21  1  0  0  0  0
 20 26  1  0  0  0  0
 21 22  2  0  0  0  0
 21 24  1  0  0  0  0
 22 23  1  0  0  0  0
 24 25  2  0  0  0  0
 25 26  1  0  0  0  0
M  END
>  <CHROM.1>
142.23571687,54.73877953,-170.96597694,161.11624897,99.93987799,-165.13885422
-125.45724490,50.33363765,53.48788903,21.51173725,-1.93591248,-0.58201289
2.05450202

>  <Name>
ligand

>  <RI>
0

>  <Rbt.Current_Directory>
/home/itssahil/PROJECTS/Mol_Feturizer/New_Systems/rnas/3GX3

>  <Rbt.Executable>
rbdock ($Id: //depot/dev/client3/rdock/2013.1/src/exe/rbdock.cxx#4 $)

>  <Rbt.Library>
libRbt.so (2013.1, Build901 2013/11/27)

>  <Rbt.Parameter_File>
/export/apps/rDock/src/rDock_2013.1_src/data/scripts/dock_solv.prm

>  <Rbt.Receptor>
prm/blind_docking_80.prm

>  <SCORE>
-17.4191

>  <SCORE.INTER>
-15.4258

>  <SCORE.INTER.CONST>
1

>  <SCORE.INTER.POLAR>
0

>  <SCORE.INTER.ROT>
7

>  <SCORE.INTER.SOLV>
11.4177

>  <SCORE.INTER.VDW>
-22.3564

>  <SCORE.INTER.norm>
-0.593301

>  <SCORE.INTRA>
-1.99323

>  <SCORE.INTRA.DIHEDRAL>
0.536173

>  <SCORE.INTRA.DIHEDRAL.0>
5.78979

>  <SCORE.INTRA.POLAR>
0

>  <SCORE.INTRA.POLAR.0>
0

>  <SCORE.INTRA.REPUL>
0

>  <SCORE.INTRA.REPUL.0>
0

>  <SCORE.INTRA.SOLV>
-0.143954

>  <SCORE.INTRA.SOLV.lig_0>
-49.9151

>  <SCORE.INTRA.VDW>
-2.18934

>  <SCORE.INTRA.VDW.0>
-0.211125

>  <SCORE.INTRA.norm>
-0.0766627

>  <SCORE.RESTR>
0

>  <SCORE.RESTR.CAVITY>
0

>  <SCORE.RESTR.norm>
0

>  <SCORE.SYSTEM>
0

>  <SCORE.SYSTEM.CONST>
0

>  <SCORE.SYSTEM.DIHEDRAL>
0

>  <SCORE.SYSTEM.SOLV>
0

>  <SCORE.SYSTEM.norm>
0

>  <SCORE.heavy>
26

>  <SCORE.norm>
-0.669964

>  <RMSD>
11.713

$$$$
ligand
 OpenBabel11021811483D
libRbt.so/2013.1/901 2013/11/27
 26 28  0  0  0  0  0  0  0  0999 V2000
   50.7868   54.7162   18.2876 N   0  0  0  0  0  0  0  0  0  0  0  0
   51.7499   53.6416   18.0320 C   0  0  2  0  0  0  0  0  0  0  0  0
   51.1412   52.3930   17.3899 C   0  0  0  0  0  0  0  0  0  0  0  0
   49.9157   52.2739   17.3989 O   0  0  0  0  0  0  0  0  0  0  0  0
   52.5351   53.1704   19.2629 C   0  0  0  0  0  0  0  0  0  0  0  0
   53.8053   52.3509   19.1163 C   0  0  0  0  0  0  0  0  0  0  0  0
   54.6537   52.4288   20.7106 S   0  0  0  0  0  0  0  0  0  0  0  0
   53.9724   50.7858   21.0393 C   0  0  0  0  0  0  0  0  0  0  0  0
   54.4857   50.1327   22.3271 C   0  0  1  0  0  0  0  0  0  0  0  0
   54.2820   50.9425   23.4907 O   0  0  0  0  0  0  0  0  0  0  0  0
   53.7856   48.8049   22.5771 C   0  0  1  0  0  0  0  0  0  0  0  0
   54.5085   47.7293   22.0206 O   0  0  0  0  0  0  0  0  0  0  0  0
   53.6556   48.7212   24.0925 C   0  0  1  0  0  0  0  0  0  0  0  0
   54.7590   48.0571   24.6747 O   0  0  0  0  0  0  0  0  0  0  0  0
   53.7045   50.1714   24.5315 C   0  0  2  0  0  0  0  0  0  0  0  0
   51.8238   51.5117   16.8530 O   0  0  0  0  0  0  0  0  0  0  0  0
   49.3417   52.5736   22.8543 N   0  0  0  0  0  0  0  0  0  0  0  0
   50.4645   52.2522   22.1341 C   0  0  0  0  0  0  0  0  0  0  0  0
   51.5275   51.6331   22.7576 N   0  0  0  0  0  0  0  0  0  0  0  0
   51.4730   51.3025   24.0600 C   0  0  0  0  0  0  0  0  0  0  0  0
   50.3484   51.6164   24.8040 C   0  0  0  0  0  0  0  0  0  0  0  0
   49.2905   52.2554   24.1883 C   0  0  0  0  0  0  0  0  0  0  0  0
   48.2044   52.5529   24.8748 N   0  0  0  0  0  0  0  0  0  0  0  0
   50.5426   51.1849   26.0701 N   0  0  0  0  0  0  0  0  0  0  0  0
   51.7779   50.6281   26.1435 C   0  0  0  0  0  0  0  0  0  0  0  0
   52.3676   50.6922   24.9000 N   0  0  0  0  0  0  0  0  0  0  0  0
  2  1  1  1  0  0  0
  2  3  1  0  0  0  0
  2  5  1  0  0  0  0
  3  4  1  0  0  0  0
  3 16  1  0  0  0  0
  5  6  1  0  0  0  0
  6  7  1  0  0  0  0
  7  8  1  0  0  0  0
  9  8  1  6  0  0  0
  9 10  1  0  0  0  0
  9 11  1  0  0  0  0
 10 15  1  0  0  0  0
 11 12  1  1  0  0  0
 11 13  1  0  0  0  0
 13 14  1  1  0  0  0
 13 15  1  0  0  0  0
 15 26  1  6  0  0  0
 17 18  2  0  0  0  0
 17 22  1  0  0  0  0
 18 19  1  0  0  0  0
 19 20  2  0  0  0  0
 20 21  1  0  0  0  0
 20 26  1  0  0  0  0
 21 22  2  0  0  0  0
 21 24  1  0  0  0  0
 22 23  1  0  0  0  0
 24 25  2  0  0  0  0
 25 26  1  0  0  0  0
M  END
>  <CHROM.1>
-14.69548764,-163.46835554,163.65080699,100.43084639,173.41236102,55.37709035
31.74459046,52.28475762,51.34875763,21.96495756,1.69708280,0.53488946,-1.24226645

>  <Name>
ligand

>  <RI>
0

>  <Rbt.Current_Directory>
/home/itssahil/PROJECTS/Mol_Feturizer/New_Systems/rnas/3GX3

>  <Rbt.Executable>
rbdock ($Id: //depot/dev/client3/rdock/2013.1/src/exe/rbdock.cxx#4 $)

>  <Rbt.Library>
libRbt.so (2013.1, Build901 2013/11/27)

>  <Rbt.Parameter_File>
/export/apps/rDock/src/rDock_2013.1_src/data/scripts/dock_solv.prm

>  <Rbt.Receptor>
prm/blind_docking_80.prm

>  <SCORE>
-20.3081

>  <SCORE.INTER>
-17.0643

>  <SCORE.INTER.CONST>
1

>  <SCORE.INTER.POLAR>
0

>  <SCORE.INTER.ROT>
7

>  <SCORE.INTER.SOLV>
11.5112

>  <SCORE.INTER.VDW>
-23.48

>  <SCORE.INTER.norm>
-0.656321

>  <SCORE.INTRA>
-3.27554

>  <SCORE.INTRA.DIHEDRAL>
0.838948

>  <SCORE.INTRA.DIHEDRAL.0>
5.78979

>  <SCORE.INTRA.POLAR>
0

>  <SCORE.INTRA.POLAR.0>
0

>  <SCORE.INTRA.REPUL>
0

>  <SCORE.INTRA.REPUL.0>
0

>  <SCORE.INTRA.SOLV>
-1.02459

>  <SCORE.INTRA.SOLV.lig_0>
-49.9151

>  <SCORE.INTRA.VDW>
-3.18272

>  <SCORE.INTRA.VDW.0>
-0.211125

>  <SCORE.INTRA.norm>
-0.125982

>  <SCORE.RESTR>
0.0317951

>  <SCORE.RESTR.CAVITY>
0.0317951

>  <SCORE.RESTR.norm>
0.00122289

>  <SCORE.SYSTEM>
0

>  <SCORE.SYSTEM.CONST>
0

>  <SCORE.SYSTEM.DIHEDRAL>
0

>  <SCORE.SYSTEM.SOLV>
0

>  <SCORE.SYSTEM.norm>
0

>  <SCORE.heavy>
26

>  <SCORE.norm>
-0.781081

>  <RMSD>
11.806

$$$$
ligand
 OpenBabel11021811483D
libRbt.so/2013.1/901 2013/11/27
 26 28  0  0  0  0  0  0  0  0999 V2000
   48.6198   50.2931   25.2026 N   0  0  0  0  0  0  0  0  0  0  0  0
   48.9776   51.5160   25.9267 C   0  0  2  0  0  0  0  0  0  0  0  0
   50.1023   51.3340   26.9483 C   0  0  0  0  0  0  0  0  0  0  0  0
   51.2623   51.3052   26.5363 O   0  0  0  0  0  0  0  0  0  0  0  0
   47.8152   52.1958   26.6619 C   0  0  0  0  0  0  0  0  0  0  0  0
   46.6928   52.8742   25.8961 C   0  0  0  0  0  0  0  0  0  0  0  0
   47.4372   54.2723   25.0250 S   0  0  0  0  0  0  0  0  0  0  0  0
   47.2425   53.3024   23.5107 C   0  0  0  0  0  0  0  0  0  0  0  0
   47.8960   53.9236   22.2716 C   0  0  1  0  0  0  0  0  0  0  0  0
   49.2920   54.1926   22.4446 O   0  0  0  0  0  0  0  0  0  0  0  0
   47.7632   53.0005   21.0691 C   0  0  1  0  0  0  0  0  0  0  0  0
   46.6059   53.2960   20.3190 O   0  0  0  0  0  0  0  0  0  0  0  0
   49.0543   53.2041   20.2870 C   0  0  1  0  0  0  0  0  0  0  0  0
   48.9188   54.2180   19.3117 O   0  0  0  0  0  0  0  0  0  0  0  0
   50.0286   53.7001   21.3373 C   0  0  2  0  0  0  0  0  0  0  0  0
   49.8968   51.2300   28.1640 O   0  0  0  0  0  0  0  0  0  0  0  0
   54.5754   51.2696   20.3189 N   0  0  0  0  0  0  0  0  0  0  0  0
   53.9776   52.2830   19.6131 C   0  0  0  0  0  0  0  0  0  0  0  0
   52.7625   52.7862   20.0281 N   0  0  0  0  0  0  0  0  0  0  0  0
   52.1623   52.3253   21.1398 C   0  0  0  0  0  0  0  0  0  0  0  0
   52.7499   51.3043   21.8672 C   0  0  0  0  0  0  0  0  0  0  0  0
   53.9562   50.7833   21.4430 C   0  0  0  0  0  0  0  0  0  0  0  0
   54.5399   49.8188   22.1274 N   0  0  0  0  0  0  0  0  0  0  0  0
   51.9560   51.0248   22.9249 N   0  0  0  0  0  0  0  0  0  0  0  0
   50.8676   51.8329   22.8632 C   0  0  0  0  0  0  0  0  0  0  0  0
   50.9832   52.6488   21.7591 N   0  0  0  0  0  0  0  0  0  0  0  0
  2  1  1  1  0  0  0
  2  3  1  0  0  0  0
  2  5  1  0  0  0  0
  3  4  1  0  0  0  0
  3 16  1  0  0  0  0
  5  6  1  0  0  0  0
  6  7  1  0  0  0  0
  7  8  1  0  0  0  0
  9  8  1  1  0  0  0
  9 10  1  0  0  0  0
  9 11  1  0  0  0  0
 10 15  1  0  0  0  0
 11 12  1  6  0  0  0
 11 13  1  0  0  0  0
 13 14  1  6  0  0  0
 13 15  1  0  0  0  0
 15 26  1  1  0  0  0
 17 18  2  0  0  0  0
 17 22  1  0  0  0  0
 18 19  1  0  0  0  0
 19 20  2  0  0  0  0
 20 21  1  0  0  0  0
 20 26  1  0  0  0  0
 21 22  2  0  0  0  0
 21 24  1  0  0  0  0
 22 23  1  0  0  0  0
 24 25  2  0  0  0  0
 25 26  1  0  0  0  0
M  END
>  <CHROM.1>
79.36996611,-69.30550144,-65.00698035,106.87544571,-172.77762426,55.84404043
-152.86644411,50.02696062,52.42535147,23.02786309,-2.43843213,0.42581003
-1.27178952

>  <Name>
ligand

>  <RI>
0

>  <Rbt.Current_Directory>
/home/itssahil/PROJECTS/Mol_Feturizer/New_Systems/rnas/3GX3

>  <Rbt.Executable>
rbdock ($Id: //depot/dev/client3/rdock/2013.1/src/exe/rbdock.cxx#4 $)

>  <Rbt.Library>
libRbt.so (2013.1, Build901 2013/11/27)

>  <Rbt.Parameter_File>
/export/apps/rDock/src/rDock_2013.1_src/data/scripts/dock_solv.prm

>  <Rbt.Receptor>
prm/blind_docking_80.prm

>  <SCORE>
-12.8523

>  <SCORE.INTER>
-10.6339

>  <SCORE.INTER.CONST>
1

>  <SCORE.INTER.POLAR>
0

>  <SCORE.INTER.ROT>
7

>  <SCORE.INTER.SOLV>
13.1665

>  <SCORE.INTER.VDW>
-19.7448

>  <SCORE.INTER.norm>
-0.408995

>  <SCORE.INTRA>
-2.21846

>  <SCORE.INTRA.DIHEDRAL>
-0.180953

>  <SCORE.INTRA.DIHEDRAL.0>
5.78979

>  <SCORE.INTRA.POLAR>
0

>  <SCORE.INTRA.POLAR.0>
0

>  <SCORE.INTRA.REPUL>
0

>  <SCORE.INTRA.REPUL.0>
0

>  <SCORE.INTRA.SOLV>
0.790057

>  <SCORE.INTRA.SOLV.lig_0>
-49.9151

>  <SCORE.INTRA.VDW>
-2.52301

>  <SCORE.INTRA.VDW.0>
-0.211125

>  <SCORE.INTRA.norm>
-0.0853253

>  <SCORE.RESTR>
0

>  <SCORE.RESTR.CAVITY>
0

>  <SCORE.RESTR.norm>
0

>  <SCORE.SYSTEM>
0

>  <SCORE.SYSTEM.CONST>
0

>  <SCORE.SYSTEM.DIHEDRAL>
0

>  <SCORE.SYSTEM.SOLV>
0

>  <SCORE.SYSTEM.norm>
0

>  <SCORE.heavy>
26

>  <SCORE.norm>
-0.49432

>  <RMSD>
11.809

$$$$
ligand
 OpenBabel11021811483D
libRbt.so/2013.1/901 2013/11/27
 26 28  0  0  0  0  0  0  0  0999 V2000
   52.3018   54.6264   15.2752 N   0  0  0  0  0  0  0  0  0  0  0  0
   51.9388   53.6171   16.2739 C   0  0  2  0  0  0  0  0  0  0  0  0
   50.4976   53.7226   16.7775 C   0  0  0  0  0  0  0  0  0  0  0  0
   49.9389   54.8180   16.7144 O   0  0  0  0  0  0  0  0  0  0  0  0
   52.8413   53.5805   17.5140 C   0  0  0  0  0  0  0  0  0  0  0  0
   52.5005   52.7034   18.7062 C   0  0  0  0  0  0  0  0  0  0  0  0
   54.0724   52.2405   19.4694 S   0  0  0  0  0  0  0  0  0  0  0  0
   53.1819   52.2038   21.0432 C   0  0  0  0  0  0  0  0  0  0  0  0
   53.8131   51.3001   22.1078 C   0  0  1  0  0  0  0  0  0  0  0  0
   53.5632   51.7449   23.4460 O   0  0  0  0  0  0  0  0  0  0  0  0
   53.2765   49.8801   22.0000 C   0  0  1  0  0  0  0  0  0  0  0  0
   54.0945   49.0824   21.1731 O   0  0  0  0  0  0  0  0  0  0  0  0
   53.2135   49.3856   23.4393 C   0  0  1  0  0  0  0  0  0  0  0  0
   54.4055   48.7269   23.8172 O   0  0  0  0  0  0  0  0  0  0  0  0
   53.1154   50.6642   24.2479 C   0  0  2  0  0  0  0  0  0  0  0  0
   49.8701   52.7563   17.2287 O   0  0  0  0  0  0  0  0  0  0  0  0
   48.4154   52.7920   23.2477 N   0  0  0  0  0  0  0  0  0  0  0  0
   49.5343   52.7930   22.4537 C   0  0  0  0  0  0  0  0  0  0  0  0
   50.6937   52.1929   22.8984 N   0  0  0  0  0  0  0  0  0  0  0  0
   50.7415   51.5704   24.0895 C   0  0  0  0  0  0  0  0  0  0  0  0
   49.6228   51.5566   24.9050 C   0  0  0  0  0  0  0  0  0  0  0  0
   48.4665   52.1746   24.4723 C   0  0  0  0  0  0  0  0  0  0  0  0
   47.3853   52.1630   25.2276 N   0  0  0  0  0  0  0  0  0  0  0  0
   49.9280   50.8775   26.0332 N   0  0  0  0  0  0  0  0  0  0  0  0
   51.2247   50.4854   25.9544 C   0  0  0  0  0  0  0  0  0  0  0  0
   51.7430   50.9076   24.7498 N   0  0  0  0  0  0  0  0  0  0  0  0
  2  1  1  6  0  0  0
  2  3  1  0  0  0  0
  2  5  1  0  0  0  0
  3  4  1  0  0  0  0
  3 16  1  0  0  0  0
  5  6  1  0  0  0  0
  6  7  1  0  0  0  0
  7  8  1  0  0  0  0
  9  8  1  6  0  0  0
  9 10  1  0  0  0  0
  9 11  1  0  0  0  0
 10 15  1  0  0  0  0
 11 12  1  6  0  0  0
 11 13  1  0  0  0  0
 13 14  1  1  0  0  0
 13 15  1  0  0  0  0
 15 26  1  6  0  0  0
 17 18  2  0  0  0  0
 17 22  1  0  0  0  0
 18 19  1  0  0  0  0
 19 20  2  0  0  0  0
 20 21  1  0  0  0  0
 20 26  1  0  0  0  0
 21 22  2  0  0  0  0
 21 24  1  0  0  0  0
 22 23  1  0  0  0  0
 24 25  2  0  0  0  0
 25 26  1  0  0  0  0
M  END
>  <CHROM.1>
-25.02598571,172.83982860,150.15371743,149.05623362,155.24189572,150.69196032
33.99080837,51.72537507,51.88024695,21.48110125,1.46698471,0.42731166,-1.18708494

>  <Name>
ligand

>  <RI>
0

>  <Rbt.Current_Directory>
/home/itssahil/PROJECTS/Mol_Feturizer/New_Systems/rnas/3GX3

>  <Rbt.Executable>
rbdock ($Id: //depot/dev/client3/rdock/2013.1/src/exe/rbdock.cxx#4 $)

>  <Rbt.Library>
libRbt.so (2013.1, Build901 2013/11/27)

>  <Rbt.Parameter_File>
/export/apps/rDock/src/rDock_2013.1_src/data/scripts/dock_solv.prm

>  <Rbt.Receptor>
prm/blind_docking_100.prm

>  <SCORE>
-15.9351

>  <SCORE.INTER>
-15.2404

>  <SCORE.INTER.CONST>
1

>  <SCORE.INTER.POLAR>
0

>  <SCORE.INTER.ROT>
7

>  <SCORE.INTER.SOLV>
13.3953

>  <SCORE.INTER.VDW>
-22.892

>  <SCORE.INTER.norm>
-0.58617

>  <SCORE.INTRA>
-0.694695

>  <SCORE.INTRA.DIHEDRAL>
4.64142

>  <SCORE.INTRA.DIHEDRAL.0>
5.78979

>  <SCORE.INTRA.POLAR>
0

>  <SCORE.INTRA.POLAR.0>
0

>  <SCORE.INTRA.REPUL>
0

>  <SCORE.INTRA.REPUL.0>
0

>  <SCORE.INTRA.SOLV>
-0.953124

>  <SCORE.INTRA.SOLV.lig_0>
-49.9151

>  <SCORE.INTRA.VDW>
-2.53884

>  <SCORE.INTRA.VDW.0>
-0.211125

>  <SCORE.INTRA.norm>
-0.0267191

>  <SCORE.RESTR>
0

>  <SCORE.RESTR.CAVITY>
0

>  <SCORE.RESTR.norm>
0

>  <SCORE.SYSTEM>
0

>  <SCORE.SYSTEM.CONST>
0

>  <SCORE.SYSTEM.DIHEDRAL>
0

>  <SCORE.SYSTEM.SOLV>
0

>  <SCORE.SYSTEM.norm>
0

>  <SCORE.heavy>
26

>  <SCORE.norm>
-0.612889

>  <RMSD>
11.819

$$$$
ligand
 OpenBabel11021811483D
libRbt.so/2013.1/901 2013/11/27
 26 28  0  0  0  0  0  0  0  0999 V2000
   51.6326   52.7930   23.9585 N   0  0  0  0  0  0  0  0  0  0  0  0
   50.9666   52.6659   25.2577 C   0  0  2  0  0  0  0  0  0  0  0  0
   50.0457   51.4492   25.3745 C   0  0  0  0  0  0  0  0  0  0  0  0
   50.2707   50.6341   26.2696 O   0  0  0  0  0  0  0  0  0  0  0  0
   50.1440   53.8883   25.6852 C   0  0  0  0  0  0  0  0  0  0  0  0
   49.0386   54.4379   24.8005 C   0  0  0  0  0  0  0  0  0  0  0  0
   49.8510   55.1961   23.3747 S   0  0  0  0  0  0  0  0  0  0  0  0
   48.1927   55.5565   22.7489 C   0  0  0  0  0  0  0  0  0  0  0  0
   47.5133   54.3802   22.0397 C   0  0  1  0  0  0  0  0  0  0  0  0
   46.2408   54.7192   21.4767 O   0  0  0  0  0  0  0  0  0  0  0  0
   48.3811   53.8584   20.9036 C   0  0  1  0  0  0  0  0  0  0  0  0
   49.2194   52.8099   21.3364 O   0  0  0  0  0  0  0  0  0  0  0  0
   47.3885   53.4300   19.8307 C   0  0  1  0  0  0  0  0  0  0  0  0
   47.0346   52.0679   19.9615 O   0  0  0  0  0  0  0  0  0  0  0  0
   46.1571   54.2592   20.1377 C   0  0  2  0  0  0  0  0  0  0  0  0
   49.0826   51.2595   24.6212 O   0  0  0  0  0  0  0  0  0  0  0  0
   42.7672   57.2663   17.4762 N   0  0  0  0  0  0  0  0  0  0  0  0
   42.4933   56.2127   18.3114 C   0  0  0  0  0  0  0  0  0  0  0  0
   43.5267   55.5252   18.9126 N   0  0  0  0  0  0  0  0  0  0  0  0
   44.8071   55.8905   18.7242 C   0  0  0  0  0  0  0  0  0  0  0  0
   45.1046   56.9520   17.8866 C   0  0  0  0  0  0  0  0  0  0  0  0
   44.0739   57.6294   17.2662 C   0  0  0  0  0  0  0  0  0  0  0  0
   44.3335   58.6514   16.4739 N   0  0  0  0  0  0  0  0  0  0  0  0
   46.4465   57.1131   17.8653 N   0  0  0  0  0  0  0  0  0  0  0  0
   47.0008   56.1577   18.6535 C   0  0  0  0  0  0  0  0  0  0  0  0
   45.9929   55.3910   19.1961 N   0  0  0  0  0  0  0  0  0  0  0  0
  2  1  1  6  0  0  0
  2  3  1  0  0  0  0
  2  5  1  0  0  0  0
  3  4  1  0  0  0  0
  3 16  1  0  0  0  0
  5  6  1  0  0  0  0
  6  7  1  0  0  0  0
  7  8  1  0  0  0  0
  9  8  1  6  0  0  0
  9 10  1  0  0  0  0
  9 11  1  0  0  0  0
 10 15  1  0  0  0  0
 11 12  1  1  0  0  0
 11 13  1  0  0  0  0
 13 14  1  1  0  0  0
 13 15  1  0  0  0  0
 15 26  1  6  0  0  0
 17 18  2  0  0  0  0
 17 22  1  0  0  0  0
 18 19  1  0  0  0  0
 19 20  2  0  0  0  0
 20 21  1  0  0  0  0
 20 26  1  0  0  0  0
 21 22  2  0  0  0  0
 21 24  1  0  0  0  0
 22 23  1  0  0  0  0
 24 25  2  0  0  0  0
 25 26  1  0  0  0  0
M  END
>  <CHROM.1>
121.93507904,55.96434860,-70.56475068,178.02166031,-81.57652847,-176.05179625
-93.43801346,47.41760164,54.56575955,21.29936032,-0.64884963,-0.75130528
-0.29584325

>  <Name>
ligand

>  <RI>
0

>  <Rbt.Current_Directory>
/home/itssahil/PROJECTS/Mol_Feturizer/New_Systems/rnas/3GX3

>  <Rbt.Executable>
rbdock ($Id: //depot/dev/client3/rdock/2013.1/src/exe/rbdock.cxx#4 $)

>  <Rbt.Library>
libRbt.so (2013.1, Build901 2013/11/27)

>  <Rbt.Parameter_File>
/export/apps/rDock/src/rDock_2013.1_src/data/scripts/dock_solv.prm

>  <Rbt.Receptor>
prm/blind_docking_80.prm

>  <SCORE>
-21.0545

>  <SCORE.INTER>
-18.3934

>  <SCORE.INTER.CONST>
1

>  <SCORE.INTER.POLAR>
0

>  <SCORE.INTER.ROT>
7

>  <SCORE.INTER.SOLV>
12.7201

>  <SCORE.INTER.VDW>
-24.769

>  <SCORE.INTER.norm>
-0.707438

>  <SCORE.INTRA>
-2.66109

>  <SCORE.INTRA.DIHEDRAL>
-1.78513

>  <SCORE.INTRA.DIHEDRAL.0>
5.78979

>  <SCORE.INTRA.POLAR>
0

>  <SCORE.INTRA.POLAR.0>
0

>  <SCORE.INTRA.REPUL>
0

>  <SCORE.INTRA.REPUL.0>
0

>  <SCORE.INTRA.SOLV>
1.75403

>  <SCORE.INTRA.SOLV.lig_0>
-49.9151

>  <SCORE.INTRA.VDW>
-2.64555

>  <SCORE.INTRA.VDW.0>
-0.211125

>  <SCORE.INTRA.norm>
-0.10235

>  <SCORE.RESTR>
0

>  <SCORE.RESTR.CAVITY>
0

>  <SCORE.RESTR.norm>
0

>  <SCORE.SYSTEM>
0

>  <SCORE.SYSTEM.CONST>
0

>  <SCORE.SYSTEM.DIHEDRAL>
0

>  <SCORE.SYSTEM.SOLV>
0

>  <SCORE.SYSTEM.norm>
0

>  <SCORE.heavy>
26

>  <SCORE.norm>
-0.809788

>  <RMSD>
11.819

$$$$
ligand
 OpenBabel11021811483D
libRbt.so/2013.1/901 2013/11/27
 26 28  0  0  0  0  0  0  0  0999 V2000
   52.4270   55.7927   16.5775 N   0  0  0  0  0  0  0  0  0  0  0  0
   52.7968   54.3960   16.8227 C   0  0  2  0  0  0  0  0  0  0  0  0
   51.9088   53.3766   16.1057 C   0  0  0  0  0  0  0  0  0  0  0  0
   50.7980   53.1382   16.5804 O   0  0  0  0  0  0  0  0  0  0  0  0
   52.8375   53.9877   18.3010 C   0  0  0  0  0  0  0  0  0  0  0  0
   53.5348   52.7131   18.7435 C   0  0  0  0  0  0  0  0  0  0  0  0
   52.9991   52.3974   20.4409 S   0  0  0  0  0  0  0  0  0  0  0  0
   54.5712   51.5326   20.6691 C   0  0  0  0  0  0  0  0  0  0  0  0
   54.6813   50.7541   21.9844 C   0  0  1  0  0  0  0  0  0  0  0  0
   54.1607   51.4708   23.1098 O   0  0  0  0  0  0  0  0  0  0  0  0
   53.9211   49.4385   21.9004 C   0  0  1  0  0  0  0  0  0  0  0  0
   54.7596   48.3858   21.4785 O   0  0  0  0  0  0  0  0  0  0  0  0
   53.3574   49.2332   23.3005 C   0  0  1  0  0  0  0  0  0  0  0  0
   54.2363   48.4798   24.1113 O   0  0  0  0  0  0  0  0  0  0  0  0
   53.2967   50.6384   23.8661 C   0  0  2  0  0  0  0  0  0  0  0  0
   52.2526   52.7970   15.0679 O   0  0  0  0  0  0  0  0  0  0  0  0
   49.0731   51.7399   26.7930 N   0  0  0  0  0  0  0  0  0  0  0  0
   50.2606   51.1803   27.1923 C   0  0  0  0  0  0  0  0  0  0  0  0
   51.2566   50.9477   26.2672 N   0  0  0  0  0  0  0  0  0  0  0  0
   51.1014   51.2931   24.9768 C   0  0  0  0  0  0  0  0  0  0  0  0
   49.9115   51.8606   24.5539 C   0  0  0  0  0  0  0  0  0  0  0  0
   48.9039   52.0756   25.4731 C   0  0  0  0  0  0  0  0  0  0  0  0
   47.7668   52.6262   25.0946 N   0  0  0  0  0  0  0  0  0  0  0  0
   50.0072   52.1100   23.2288 N   0  0  0  0  0  0  0  0  0  0  0  0
   51.2249   51.6873   22.8047 C   0  0  0  0  0  0  0  0  0  0  0  0
   51.9174   51.1786   23.8817 N   0  0  0  0  0  0  0  0  0  0  0  0
  2  1  1  1  0  0  0
  2  3  1  0  0  0  0
  2  5  1  0  0  0  0
  3  4  1  0  0  0  0
  3 16  1  0  0  0  0
  5  6  1  0  0  0  0
  6  7  1  0  0  0  0
  7  8  1  0  0  0  0
  9  8  1  6  0  0  0
  9 10  1  0  0  0  0
  9 11  1  0  0  0  0
 10 15  1  0  0  0  0
 11 12  1  1  0  0  0
 11 13  1  0  0  0  0
 13 14  1  1  0  0  0
 13 15  1  0  0  0  0
 15 26  1  6  0  0  0
 17 18  2  0  0  0  0
 17 22  1  0  0  0  0
 18 19  1  0  0  0  0
 19 20  2  0  0  0  0
 20 21  1  0  0  0  0
 20 26  1  0  0  0  0
 21 22  2  0  0  0  0
 21 24  1  0  0  0  0
 22 23  1  0  0  0  0
 24 25  2  0  0  0  0
 25 26  1  0  0  0  0
M  END
>  <CHROM.1>
-77.64409589,-164.08057177,-165.98889094,-152.98599868,-170.44200839,-42.27294964
-134.53350880,52.17950745,51.75359764,21.73069553,1.34105659,0.58269677,-1.15575008

>  <Name>
ligand

>  <RI>
0

>  <Rbt.Current_Directory>
/home/itssahil/PROJECTS/Mol_Feturizer/New_Systems/rnas/3GX3

>  <Rbt.Executable>
rbdock ($Id: //depot/dev/client3/rdock/2013.1/src/exe/rbdock.cxx#4 $)

>  <Rbt.Library>
libRbt.so (2013.1, Build901 2013/11/27)

>  <Rbt.Parameter_File>
/export/apps/rDock/src/rDock_2013.1_src/data/scripts/dock_solv.prm

>  <Rbt.Receptor>
prm/blind_docking_80.prm

>  <SCORE>
-16.7898

>  <SCORE.INTER>
-14.484

>  <SCORE.INTER.CONST>
1

>  <SCORE.INTER.POLAR>
0

>  <SCORE.INTER.ROT>
7

>  <SCORE.INTER.SOLV>
9.69947

>  <SCORE.INTER.VDW>
-21.1558

>  <SCORE.INTER.norm>
-0.557078

>  <SCORE.INTRA>
-2.30577

>  <SCORE.INTRA.DIHEDRAL>
0.814022

>  <SCORE.INTRA.DIHEDRAL.0>
5.78979

>  <SCORE.INTRA.POLAR>
0

>  <SCORE.INTRA.POLAR.0>
0

>  <SCORE.INTRA.REPUL>
0

>  <SCORE.INTRA.REPUL.0>
0

>  <SCORE.INTRA.SOLV>
-0.894915

>  <SCORE.INTRA.SOLV.lig_0>
-49.9151

>  <SCORE.INTRA.VDW>
-2.26532

>  <SCORE.INTRA.VDW.0>
-0.211125

>  <SCORE.INTRA.norm>
-0.0886833

>  <SCORE.RESTR>
0

>  <SCORE.RESTR.CAVITY>
0

>  <SCORE.RESTR.norm>
0

>  <SCORE.SYSTEM>
0

>  <SCORE.SYSTEM.CONST>
0

>  <SCORE.SYSTEM.DIHEDRAL>
0

>  <SCORE.SYSTEM.SOLV>
0

>  <SCORE.SYSTEM.norm>
0

>  <SCORE.heavy>
26

>  <SCORE.norm>
-0.645761

>  <RMSD>
11.927

$$$$
ligand
 OpenBabel11021811483D
libRbt.so/2013.1/901 2013/11/27
 26 28  0  0  0  0  0  0  0  0999 V2000
   53.0898   53.7642   21.3439 N   0  0  0  0  0  0  0  0  0  0  0  0
   53.0260   52.4853   20.6310 C   0  0  2  0  0  0  0  0  0  0  0  0
   53.5320   51.2896   21.4409 C   0  0  0  0  0  0  0  0  0  0  0  0
   54.7204   51.2665   21.7620 O   0  0  0  0  0  0  0  0  0  0  0  0
   53.7652   52.4565   19.2870 C   0  0  0  0  0  0  0  0  0  0  0  0
   53.3451   53.3609   18.1415 C   0  0  0  0  0  0  0  0  0  0  0  0
   51.7614   52.7283   17.5419 S   0  0  0  0  0  0  0  0  0  0  0  0
   51.0113   54.2055   18.2676 C   0  0  0  0  0  0  0  0  0  0  0  0
   49.4962   54.1099   18.4760 C   0  0  1  0  0  0  0  0  0  0  0  0
   49.1042   52.9748   19.2563 O   0  0  0  0  0  0  0  0  0  0  0  0
   48.9684   55.3469   19.1881 C   0  0  1  0  0  0  0  0  0  0  0  0
   48.5444   56.3285   18.2682 O   0  0  0  0  0  0  0  0  0  0  0  0
   47.8430   54.8270   20.0731 C   0  0  1  0  0  0  0  0  0  0  0  0
   46.5940   54.8799   19.4136 O   0  0  0  0  0  0  0  0  0  0  0  0
   48.1981   53.3670   20.2745 C   0  0  2  0  0  0  0  0  0  0  0  0
   52.7983   50.3588   21.7963 O   0  0  0  0  0  0  0  0  0  0  0  0
   47.1598   52.4097   25.3364 N   0  0  0  0  0  0  0  0  0  0  0  0
   46.2713   52.6255   24.3134 C   0  0  0  0  0  0  0  0  0  0  0  0
   46.7370   52.8814   23.0407 N   0  0  0  0  0  0  0  0  0  0  0  0
   48.0544   52.8891   22.7710 C   0  0  0  0  0  0  0  0  0  0  0  0
   48.9673   52.6719   23.7889 C   0  0  0  0  0  0  0  0  0  0  0  0
   48.5055   52.4364   25.0686 C   0  0  0  0  0  0  0  0  0  0  0  0
   49.3570   52.2147   26.0511 N   0  0  0  0  0  0  0  0  0  0  0  0
   50.2114   52.7323   23.2638 N   0  0  0  0  0  0  0  0  0  0  0  0
   50.0998   53.0084   21.9399 C   0  0  0  0  0  0  0  0  0  0  0  0
   48.7637   53.1067   21.6186 N   0  0  0  0  0  0  0  0  0  0  0  0
  2  1  1  1  0  0  0
  2  3  1  0  0  0  0
  2  5  1  0  0  0  0
  3  4  1  0  0  0  0
  3 16  1  0  0  0  0
  5  6  1  0  0  0  0
  6  7  1  0  0  0  0
  7  8  1  0  0  0  0
  9  8  1  1  0  0  0
  9 10  1  0  0  0  0
  9 11  1  0  0  0  0
 10 15  1  0  0  0  0
 11 12  1  6  0  0  0
 11 13  1  0  0  0  0
 13 14  1  6  0  0  0
 13 15  1  0  0  0  0
 15 26  1  1  0  0  0
 17 18  2  0  0  0  0
 17 22  1  0  0  0  0
 18 19  1  0  0  0  0
 19 20  2  0  0  0  0
 20 21  1  0  0  0  0
 20 26  1  0  0  0  0
 21 22  2  0  0  0  0
 21 24  1  0  0  0  0
 22 23  1  0  0  0  0
 24 25  2  0  0  0  0
 25 26  1  0  0  0  0
M  END
>  <CHROM.1>
-64.51581854,-62.52125167,-70.67936168,109.16127449,-162.28766372,55.14053233
-154.36604163,50.12249787,53.09584734,20.99237799,-0.72255294,-0.35287318
1.94991416

>  <Name>
ligand

>  <RI>
0

>  <Rbt.Current_Directory>
/home/itssahil/PROJECTS/Mol_Feturizer/New_Systems/rnas/3GX3

>  <Rbt.Executable>
rbdock ($Id: //depot/dev/client3/rdock/2013.1/src/exe/rbdock.cxx#4 $)

>  <Rbt.Library>
libRbt.so (2013.1, Build901 2013/11/27)

>  <Rbt.Parameter_File>
/export/apps/rDock/src/rDock_2013.1_src/data/scripts/dock_solv.prm

>  <Rbt.Receptor>
prm/blind_docking_80.prm

>  <SCORE>
-14.9065

>  <SCORE.INTER>
-12.3497

>  <SCORE.INTER.CONST>
1

>  <SCORE.INTER.POLAR>
0

>  <SCORE.INTER.ROT>
7

>  <SCORE.INTER.SOLV>
7.89584

>  <SCORE.INTER.VDW>
-19.1318

>  <SCORE.INTER.norm>
-0.474989

>  <SCORE.INTRA>
-2.55676

>  <SCORE.INTRA.DIHEDRAL>
0.292671

>  <SCORE.INTRA.DIHEDRAL.0>
5.78979

>  <SCORE.INTRA.POLAR>
0

>  <SCORE.INTRA.POLAR.0>
0

>  <SCORE.INTRA.REPUL>
0

>  <SCORE.INTRA.REPUL.0>
0

>  <SCORE.INTRA.SOLV>
1.32441

>  <SCORE.INTRA.SOLV.lig_0>
-49.9151

>  <SCORE.INTRA.VDW>
-3.3653

>  <SCORE.INTRA.VDW.0>
-0.211125

>  <SCORE.INTRA.norm>
-0.0983368

>  <SCORE.RESTR>
0

>  <SCORE.RESTR.CAVITY>
0

>  <SCORE.RESTR.norm>
0

>  <SCORE.SYSTEM>
0

>  <SCORE.SYSTEM.CONST>
0

>  <SCORE.SYSTEM.DIHEDRAL>
0

>  <SCORE.SYSTEM.SOLV>
0

>  <SCORE.SYSTEM.norm>
0

>  <SCORE.heavy>
26

>  <SCORE.norm>
-0.573326

>  <RMSD>
11.957

$$$$
ligand
 OpenBabel11021811483D
libRbt.so/2013.1/901 2013/11/27
 26 28  0  0  0  0  0  0  0  0999 V2000
   52.6398   54.3845   16.8062 N   0  0  0  0  0  0  0  0  0  0  0  0
   52.0776   53.0823   17.1748 C   0  0  2  0  0  0  0  0  0  0  0  0
   50.6157   52.8911   16.7645 C   0  0  0  0  0  0  0  0  0  0  0  0
   50.0898   53.7590   16.0671 O   0  0  0  0  0  0  0  0  0  0  0  0
   52.1691   52.7372   18.6668 C   0  0  0  0  0  0  0  0  0  0  0  0
   53.5113   52.4930   19.3343 C   0  0  0  0  0  0  0  0  0  0  0  0
   53.1543   51.9105   21.0079 S   0  0  0  0  0  0  0  0  0  0  0  0
   54.8690   51.3381   21.0658 C   0  0  0  0  0  0  0  0  0  0  0  0
   55.1763   50.3717   22.2148 C   0  0  1  0  0  0  0  0  0  0  0  0
   54.9788   50.9524   23.5089 O   0  0  0  0  0  0  0  0  0  0  0  0
   54.2884   49.1382   22.1370 C   0  0  1  0  0  0  0  0  0  0  0  0
   54.9100   48.1019   21.4096 O   0  0  0  0  0  0  0  0  0  0  0  0
   54.0152   48.7721   23.5900 C   0  0  1  0  0  0  0  0  0  0  0  0
   54.9660   47.8500   24.0832 O   0  0  0  0  0  0  0  0  0  0  0  0
   54.2153   50.0815   24.3275 C   0  0  2  0  0  0  0  0  0  0  0  0
   49.9495   51.9006   17.0900 O   0  0  0  0  0  0  0  0  0  0  0  0
   51.2107   54.3868   24.0935 N   0  0  0  0  0  0  0  0  0  0  0  0
   52.4607   54.1937   23.5617 C   0  0  0  0  0  0  0  0  0  0  0  0
   53.1070   52.9891   23.7441 N   0  0  0  0  0  0  0  0  0  0  0  0
   52.5188   51.9781   24.4077 C   0  0  0  0  0  0  0  0  0  0  0  0
   51.2571   52.1520   24.9505 C   0  0  0  0  0  0  0  0  0  0  0  0
   50.6155   53.3638   24.7882 C   0  0  0  0  0  0  0  0  0  0  0  0
   49.4081   53.5474   25.2862 N   0  0  0  0  0  0  0  0  0  0  0  0
   50.8951   51.0017   25.5611 N   0  0  0  0  0  0  0  0  0  0  0  0
   51.9150   50.1156   25.4348 C   0  0  0  0  0  0  0  0  0  0  0  0
   52.9311   50.7084   24.7178 N   0  0  0  0  0  0  0  0  0  0  0  0
  2  1  1  1  0  0  0
  2  3  1  0  0  0  0
  2  5  1  0  0  0  0
  3  4  1  0  0  0  0
  3 16  1  0  0  0  0
  5  6  1  0  0  0  0
  6  7  1  0  0  0  0
  7  8  1  0  0  0  0
  9  8  1  6  0  0  0
  9 10  1  0  0  0  0
  9 11  1  0  0  0  0
 10 15  1  0  0  0  0
 11 12  1  1  0  0  0
 11 13  1  0  0  0  0
 13 14  1  1  0  0  0
 13 15  1  0  0  0  0
 15 26  1  6  0  0  0
 17 18  2  0  0  0  0
 17 22  1  0  0  0  0
 18 19  1  0  0  0  0
 19 20  2  0  0  0  0
 20 21  1  0  0  0  0
 20 26  1  0  0  0  0
 21 22  2  0  0  0  0
 21 24  1  0  0  0  0
 22 23  1  0  0  0  0
 24 25  2  0  0  0  0
 25 26  1  0  0  0  0
M  END
>  <CHROM.1>
6.90043249,-67.00733199,-172.67450014,163.65446550,-165.67383538,-61.97330225
-2.90039828,52.66498082,51.67338126,21.86200722,-1.88740638,-0.80509655,1.67808003

>  <Name>
ligand

>  <RI>
0

>  <Rbt.Current_Directory>
/home/itssahil/PROJECTS/Mol_Feturizer/New_Systems/rnas/3GX3

>  <Rbt.Executable>
rbdock ($Id: //depot/dev/client3/rdock/2013.1/src/exe/rbdock.cxx#4 $)

>  <Rbt.Library>
libRbt.so (2013.1, Build901 2013/11/27)

>  <Rbt.Parameter_File>
/export/apps/rDock/src/rDock_2013.1_src/data/scripts/dock_solv.prm

>  <Rbt.Receptor>
prm/blind_docking_80.prm

>  <SCORE>
-19.8996

>  <SCORE.INTER>
-16.0215

>  <SCORE.INTER.CONST>
1

>  <SCORE.INTER.POLAR>
0

>  <SCORE.INTER.ROT>
7

>  <SCORE.INTER.SOLV>
9.33497

>  <SCORE.INTER.VDW>
-22.0593

>  <SCORE.INTER.norm>
-0.616212

>  <SCORE.INTRA>
-3.88398

>  <SCORE.INTRA.DIHEDRAL>
-1.81416

>  <SCORE.INTRA.DIHEDRAL.0>
5.78979

>  <SCORE.INTRA.POLAR>
0

>  <SCORE.INTRA.POLAR.0>
0

>  <SCORE.INTRA.REPUL>
0

>  <SCORE.INTRA.REPUL.0>
0

>  <SCORE.INTRA.SOLV>
-0.170906

>  <SCORE.INTRA.SOLV.lig_0>
-49.9151

>  <SCORE.INTRA.VDW>
-2.89144

>  <SCORE.INTRA.VDW.0>
-0.211125

>  <SCORE.INTRA.norm>
-0.149384

>  <SCORE.RESTR>
0.00586668

>  <SCORE.RESTR.CAVITY>
0.00586668

>  <SCORE.RESTR.norm>
0.000225642

>  <SCORE.SYSTEM>
0

>  <SCORE.SYSTEM.CONST>
0

>  <SCORE.SYSTEM.DIHEDRAL>
0

>  <SCORE.SYSTEM.SOLV>
0

>  <SCORE.SYSTEM.norm>
0

>  <SCORE.heavy>
26

>  <SCORE.norm>
-0.76537

>  <RMSD>
11.959

$$$$
ligand
 OpenBabel11021811483D
libRbt.so/2013.1/901 2013/11/27
 26 28  0  0  0  0  0  0  0  0999 V2000
   52.2839   54.5351   17.0076 N   0  0  0  0  0  0  0  0  0  0  0  0
   52.2197   53.1433   17.4621 C   0  0  2  0  0  0  0  0  0  0  0  0
   50.8207   52.5264   17.3986 C   0  0  0  0  0  0  0  0  0  0  0  0
   50.6947   51.4267   16.8593 O   0  0  0  0  0  0  0  0  0  0  0  0
   52.7479   52.9016   18.8820 C   0  0  0  0  0  0  0  0  0  0  0  0
   54.2378   52.7948   19.1568 C   0  0  0  0  0  0  0  0  0  0  0  0
   54.4331   52.8366   20.9534 S   0  0  0  0  0  0  0  0  0  0  0  0
   54.1219   51.0550   20.9274 C   0  0  0  0  0  0  0  0  0  0  0  0
   54.6176   50.3068   22.1695 C   0  0  1  0  0  0  0  0  0  0  0  0
   54.3737   51.0153   23.3900 O   0  0  0  0  0  0  0  0  0  0  0  0
   53.9353   48.9522   22.2939 C   0  0  1  0  0  0  0  0  0  0  0  0
   54.6893   47.9372   21.6689 O   0  0  0  0  0  0  0  0  0  0  0  0
   53.7729   48.7427   23.7938 C   0  0  1  0  0  0  0  0  0  0  0  0
   54.8745   48.0505   24.3461 O   0  0  0  0  0  0  0  0  0  0  0  0
   53.7866   50.1527   24.3506 C   0  0  2  0  0  0  0  0  0  0  0  0
   49.8205   53.0763   17.8763 O   0  0  0  0  0  0  0  0  0  0  0  0
   49.3971   52.5608   22.7534 N   0  0  0  0  0  0  0  0  0  0  0  0
   50.5377   52.3091   22.0334 C   0  0  0  0  0  0  0  0  0  0  0  0
   51.6046   51.6752   22.6349 N   0  0  0  0  0  0  0  0  0  0  0  0
   51.5377   51.2628   23.9131 C   0  0  0  0  0  0  0  0  0  0  0  0
   50.3951   51.5055   24.6564 C   0  0  0  0  0  0  0  0  0  0  0  0
   49.3327   52.1588   24.0640 C   0  0  0  0  0  0  0  0  0  0  0  0
   48.2298   52.3895   24.7496 N   0  0  0  0  0  0  0  0  0  0  0  0
   50.5796   51.0001   25.8964 N   0  0  0  0  0  0  0  0  0  0  0  0
   51.8258   50.4664   25.9555 C   0  0  0  0  0  0  0  0  0  0  0  0
   52.4328   50.6207   24.7284 N   0  0  0  0  0  0  0  0  0  0  0  0
  2  1  1  1  0  0  0
  2  3  1  0  0  0  0
  2  5  1  0  0  0  0
  3  4  1  0  0  0  0
  3 16  1  0  0  0  0
  5  6  1  0  0  0  0
  6  7  1  0  0  0  0
  7  8  1  0  0  0  0
  9  8  1  6  0  0  0
  9 10  1  0  0  0  0
  9 11  1  0  0  0  0
 10 15  1  0  0  0  0
 11 12  1  1  0  0  0
 11 13  1  0  0  0  0
 13 14  1  1  0  0  0
 13 15  1  0  0  0  0
 15 26  1  6  0  0  0
 17 18  2  0  0  0  0
 17 22  1  0  0  0  0
 18 19  1  0  0  0  0
 19 20  2  0  0  0  0
 20 21  1  0  0  0  0
 20 26  1  0  0  0  0
 21 22  2  0  0  0  0
 21 24  1  0  0  0  0
 22 23  1  0  0  0  0
 24 25  2  0  0  0  0
 25 26  1  0  0  0  0
M  END
>  <CHROM.1>
130.60511796,-79.78106857,169.25753007,84.82690538,159.64238447,40.81468728
32.97288347,52.35706368,51.40810412,21.80839502,1.67328474,0.46033536,-1.21291538

>  <Name>
ligand

>  <RI>
0

>  <Rbt.Current_Directory>
/home/itssahil/PROJECTS/Mol_Feturizer/New_Systems/rnas/3GX3

>  <Rbt.Executable>
rbdock ($Id: //depot/dev/client3/rdock/2013.1/src/exe/rbdock.cxx#4 $)

>  <Rbt.Library>
libRbt.so (2013.1, Build901 2013/11/27)

>  <Rbt.Parameter_File>
/export/apps/rDock/src/rDock_2013.1_src/data/scripts/dock_solv.prm

>  <Rbt.Receptor>
prm/blind_docking_80.prm

>  <SCORE>
-19.4925

>  <SCORE.INTER>
-17.0035

>  <SCORE.INTER.CONST>
1

>  <SCORE.INTER.POLAR>
0

>  <SCORE.INTER.ROT>
7

>  <SCORE.INTER.SOLV>
10.7921

>  <SCORE.INTER.VDW>
-23.1997

>  <SCORE.INTER.norm>
-0.65398

>  <SCORE.INTRA>
-2.48906

>  <SCORE.INTRA.DIHEDRAL>
1.53038

>  <SCORE.INTRA.DIHEDRAL.0>
5.78979

>  <SCORE.INTRA.POLAR>
0

>  <SCORE.INTRA.POLAR.0>
0

>  <SCORE.INTRA.REPUL>
0

>  <SCORE.INTRA.REPUL.0>
0

>  <SCORE.INTRA.SOLV>
-0.56856

>  <SCORE.INTRA.SOLV.lig_0>
-49.9151

>  <SCORE.INTRA.VDW>
-2.96997

>  <SCORE.INTRA.VDW.0>
-0.211125

>  <SCORE.INTRA.norm>
-0.0957332

>  <SCORE.RESTR>
0

>  <SCORE.RESTR.CAVITY>
0

>  <SCORE.RESTR.norm>
0

>  <SCORE.SYSTEM>
0

>  <SCORE.SYSTEM.CONST>
0

>  <SCORE.SYSTEM.DIHEDRAL>
0

>  <SCORE.SYSTEM.SOLV>
0

>  <SCORE.SYSTEM.norm>
0

>  <SCORE.heavy>
26

>  <SCORE.norm>
-0.749713

>  <RMSD>
11.980

$$$$
ligand
 OpenBabel11021811483D
libRbt.so/2013.1/901 2013/11/27
 26 28  0  0  0  0  0  0  0  0999 V2000
   50.1144   52.6463   26.5814 N   0  0  0  0  0  0  0  0  0  0  0  0
   48.7944   53.2616   26.4178 C   0  0  2  0  0  0  0  0  0  0  0  0
   47.6728   52.2677   26.1077 C   0  0  0  0  0  0  0  0  0  0  0  0
   47.9081   51.3548   25.3157 O   0  0  0  0  0  0  0  0  0  0  0  0
   48.7212   54.3613   25.3506 C   0  0  0  0  0  0  0  0  0  0  0  0
   48.9522   54.0462   23.8829 C   0  0  0  0  0  0  0  0  0  0  0  0
   48.7539   55.6030   22.9860 S   0  0  0  0  0  0  0  0  0  0  0  0
   48.6503   54.6058   21.4806 C   0  0  0  0  0  0  0  0  0  0  0  0
   47.2867   53.9457   21.2501 C   0  0  1  0  0  0  0  0  0  0  0  0
   46.2085   54.8860   21.1829 O   0  0  0  0  0  0  0  0  0  0  0  0
   47.2784   53.1607   19.9464 C   0  0  1  0  0  0  0  0  0  0  0  0
   47.6342   51.8120   20.1557 O   0  0  0  0  0  0  0  0  0  0  0  0
   45.8645   53.3322   19.4064 C   0  0  1  0  0  0  0  0  0  0  0  0
   45.0105   52.2935   19.8416 O   0  0  0  0  0  0  0  0  0  0  0  0
   45.3934   54.6198   20.0532 C   0  0  2  0  0  0  0  0  0  0  0  0
   46.5519   52.3344   26.6274 O   0  0  0  0  0  0  0  0  0  0  0  0
   42.5480   57.6742   16.8607 N   0  0  0  0  0  0  0  0  0  0  0  0
   42.1238   56.6160   17.6241 C   0  0  0  0  0  0  0  0  0  0  0  0
   43.0299   55.9157   18.3927 N   0  0  0  0  0  0  0  0  0  0  0  0
   44.3256   56.2728   18.4380 C   0  0  0  0  0  0  0  0  0  0  0  0
   44.7735   57.3388   17.6764 C   0  0  0  0  0  0  0  0  0  0  0  0
   43.8734   58.0292   16.8894 C   0  0  0  0  0  0  0  0  0  0  0  0
   44.2757   59.0556   16.1654 N   0  0  0  0  0  0  0  0  0  0  0  0
   46.0988   57.4899   17.8952 N   0  0  0  0  0  0  0  0  0  0  0  0
   46.4986   56.5239   18.7602 C   0  0  0  0  0  0  0  0  0  0  0  0
   45.4058   55.7605   19.1081 N   0  0  0  0  0  0  0  0  0  0  0  0
  2  1  1  6  0  0  0
  2  3  1  0  0  0  0
  2  5  1  0  0  0  0
  3  4  1  0  0  0  0
  3 16  1  0  0  0  0
  5  6  1  0  0  0  0
  6  7  1  0  0  0  0
  7  8  1  0  0  0  0
  9  8  1  6  0  0  0
  9 10  1  0  0  0  0
  9 11  1  0  0  0  0
 10 15  1  0  0  0  0
 11 12  1  1  0  0  0
 11 13  1  0  0  0  0
 13 14  1  1  0  0  0
 13 15  1  0  0  0  0
 15 26  1  6  0  0  0
 17 18  2  0  0  0  0
 17 22  1  0  0  0  0
 18 19  1  0  0  0  0
 19 20  2  0  0  0  0
 20 21  1  0  0  0  0
 20 26  1  0  0  0  0
 21 22  2  0  0  0  0
 21 24  1  0  0  0  0
 22 23  1  0  0  0  0
 24 25  2  0  0  0  0
 25 26  1  0  0  0  0
M  END
>  <CHROM.1>
-41.20061867,64.54168315,179.28762031,-165.25041107,78.85253985,58.04532654
-138.10891373,46.46330712,54.76475344,21.12961333,-0.85553691,-0.81619911
-0.52468281

>  <Name>
ligand

>  <RI>
0

>  <Rbt.Current_Directory>
/home/itssahil/PROJECTS/Mol_Feturizer/New_Systems/rnas/3GX3

>  <Rbt.Executable>
rbdock ($Id: //depot/dev/client3/rdock/2013.1/src/exe/rbdock.cxx#4 $)

>  <Rbt.Library>
libRbt.so (2013.1, Build901 2013/11/27)

>  <Rbt.Parameter_File>
/export/apps/rDock/src/rDock_2013.1_src/data/scripts/dock_solv.prm

>  <Rbt.Receptor>
prm/blind_docking_80.prm

>  <SCORE>
-18.329

>  <SCORE.INTER>
-14.7955

>  <SCORE.INTER.CONST>
1

>  <SCORE.INTER.POLAR>
0

>  <SCORE.INTER.ROT>
7

>  <SCORE.INTER.SOLV>
13.6796

>  <SCORE.INTER.VDW>
-22.6902

>  <SCORE.INTER.norm>
-0.569059

>  <SCORE.INTRA>
-3.53344

>  <SCORE.INTRA.DIHEDRAL>
-1.95747

>  <SCORE.INTRA.DIHEDRAL.0>
5.78979

>  <SCORE.INTRA.POLAR>
0

>  <SCORE.INTRA.POLAR.0>
0

>  <SCORE.INTRA.REPUL>
0

>  <SCORE.INTRA.REPUL.0>
0

>  <SCORE.INTRA.SOLV>
-0.516451

>  <SCORE.INTRA.SOLV.lig_0>
-49.9151

>  <SCORE.INTRA.VDW>
-2.29648

>  <SCORE.INTRA.VDW.0>
-0.211125

>  <SCORE.INTRA.norm>
-0.135902

>  <SCORE.RESTR>
0

>  <SCORE.RESTR.CAVITY>
0

>  <SCORE.RESTR.norm>
0

>  <SCORE.SYSTEM>
0

>  <SCORE.SYSTEM.CONST>
0

>  <SCORE.SYSTEM.DIHEDRAL>
0

>  <SCORE.SYSTEM.SOLV>
0

>  <SCORE.SYSTEM.norm>
0

>  <SCORE.heavy>
26

>  <SCORE.norm>
-0.70496

>  <RMSD>
12.020

$$$$
ligand
 OpenBabel11021811483D
libRbt.so/2013.1/901 2013/11/27
 26 28  0  0  0  0  0  0  0  0999 V2000
   52.0550   53.9770   16.6791 N   0  0  0  0  0  0  0  0  0  0  0  0
   50.9560   54.8616   16.2823 C   0  0  2  0  0  0  0  0  0  0  0  0
   51.3651   56.3237   16.0911 C   0  0  0  0  0  0  0  0  0  0  0  0
   52.0287   56.8620   16.9777 O   0  0  0  0  0  0  0  0  0  0  0  0
   49.7489   54.8581   17.2291 C   0  0  0  0  0  0  0  0  0  0  0  0
   49.9053   55.2010   18.7004 C   0  0  0  0  0  0  0  0  0  0  0  0
   48.3319   54.7954   19.4924 S   0  0  0  0  0  0  0  0  0  0  0  0
   49.0829   55.3531   21.0404 C   0  0  0  0  0  0  0  0  0  0  0  0
   48.6923   54.5247   22.2691 C   0  0  1  0  0  0  0  0  0  0  0  0
   48.8713   53.1164   22.0804 O   0  0  0  0  0  0  0  0  0  0  0  0
   49.5252   54.9241   23.4785 C   0  0  1  0  0  0  0  0  0  0  0  0
   48.8825   55.9234   24.2385 O   0  0  0  0  0  0  0  0  0  0  0  0
   49.7310   53.6247   24.2463 C   0  0  1  0  0  0  0  0  0  0  0  0
   48.7226   53.4270   25.2167 O   0  0  0  0  0  0  0  0  0  0  0  0
   49.5655   52.5566   23.1832 C   0  0  2  0  0  0  0  0  0  0  0  0
   51.0713   56.9784   15.0831 O   0  0  0  0  0  0  0  0  0  0  0  0
   53.5645   49.3941   24.4574 N   0  0  0  0  0  0  0  0  0  0  0  0
   52.4536   49.7005   25.2022 C   0  0  0  0  0  0  0  0  0  0  0  0
   51.5107   50.5743   24.7029 N   0  0  0  0  0  0  0  0  0  0  0  0
   51.6398   51.1100   23.4762 C   0  0  0  0  0  0  0  0  0  0  0  0
   52.7525   50.8122   22.7080 C   0  0  0  0  0  0  0  0  0  0  0  0
   53.7093   49.9544   23.2130 C   0  0  0  0  0  0  0  0  0  0  0  0
   54.7712   49.6472   22.4936 N   0  0  0  0  0  0  0  0  0  0  0  0
   52.6459   51.4710   21.5325 N   0  0  0  0  0  0  0  0  0  0  0  0
   51.5000   52.1975   21.5561 C   0  0  0  0  0  0  0  0  0  0  0  0
   50.8626   51.9811   22.7583 N   0  0  0  0  0  0  0  0  0  0  0  0
  2  1  1  1  0  0  0
  2  3  1  0  0  0  0
  2  5  1  0  0  0  0
  3  4  1  0  0  0  0
  3 16  1  0  0  0  0
  5  6  1  0  0  0  0
  6  7  1  0  0  0  0
  7  8  1  0  0  0  0
  9  8  1  6  0  0  0
  9 10  1  0  0  0  0
  9 11  1  0  0  0  0
 10 15  1  0  0  0  0
 11 12  1  1  0  0  0
 11 13  1  0  0  0  0
 13 14  1  1  0  0  0
 13 15  1  0  0  0  0
 15 26  1  6  0  0  0
 17 18  2  0  0  0  0
 17 22  1  0  0  0  0
 18 19  1  0  0  0  0
 19 20  2  0  0  0  0
 20 21  1  0  0  0  0
 20 26  1  0  0  0  0
 21 22  2  0  0  0  0
 21 24  1  0  0  0  0
 22 23  1  0  0  0  0
 24 25  2  0  0  0  0
 25 26  1  0  0  0  0
M  END
>  <CHROM.1>
-48.89448595,57.18094764,-170.19513112,179.65136833,-142.11478815,50.94653541
-164.15630696,50.74370978,53.40378964,21.18779938,-1.77467615,-0.69000078
2.03931384

>  <Name>
ligand

>  <RI>
0

>  <Rbt.Current_Directory>
/home/itssahil/PROJECTS/Mol_Feturizer/New_Systems/rnas/3GX3

>  <Rbt.Executable>
rbdock ($Id: //depot/dev/client3/rdock/2013.1/src/exe/rbdock.cxx#4 $)

>  <Rbt.Library>
libRbt.so (2013.1, Build901 2013/11/27)

>  <Rbt.Parameter_File>
/export/apps/rDock/src/rDock_2013.1_src/data/scripts/dock_solv.prm

>  <Rbt.Receptor>
prm/blind_docking_80.prm

>  <SCORE>
-17.3282

>  <SCORE.INTER>
-14.3467

>  <SCORE.INTER.CONST>
1

>  <SCORE.INTER.POLAR>
0

>  <SCORE.INTER.ROT>
7

>  <SCORE.INTER.SOLV>
9.04357

>  <SCORE.INTER.VDW>
-20.8456

>  <SCORE.INTER.norm>
-0.551795

>  <SCORE.INTRA>
-2.98154

>  <SCORE.INTRA.DIHEDRAL>
-0.558106

>  <SCORE.INTRA.DIHEDRAL.0>
5.78979

>  <SCORE.INTRA.POLAR>
0

>  <SCORE.INTRA.POLAR.0>
0

>  <SCORE.INTRA.REPUL>
0

>  <SCORE.INTRA.REPUL.0>
0

>  <SCORE.INTRA.SOLV>
-0.494936

>  <SCORE.INTRA.SOLV.lig_0>
-49.9151

>  <SCORE.INTRA.VDW>
-2.45502

>  <SCORE.INTRA.VDW.0>
-0.211125

>  <SCORE.INTRA.norm>
-0.114674

>  <SCORE.RESTR>
0

>  <SCORE.RESTR.CAVITY>
0

>  <SCORE.RESTR.norm>
0

>  <SCORE.SYSTEM>
0

>  <SCORE.SYSTEM.CONST>
0

>  <SCORE.SYSTEM.DIHEDRAL>
0

>  <SCORE.SYSTEM.SOLV>
0

>  <SCORE.SYSTEM.norm>
0

>  <SCORE.heavy>
26

>  <SCORE.norm>
-0.666469

>  <RMSD>
12.061

$$$$
ligand
 OpenBabel11021811483D
libRbt.so/2013.1/901 2013/11/27
 26 28  0  0  0  0  0  0  0  0999 V2000
   55.4946   45.7928   19.7109 N   0  0  0  0  0  0  0  0  0  0  0  0
   54.1355   45.9870   20.2236 C   0  0  2  0  0  0  0  0  0  0  0  0
   53.0316   45.5786   19.2455 C   0  0  0  0  0  0  0  0  0  0  0  0
   52.5389   44.4562   19.3613 O   0  0  0  0  0  0  0  0  0  0  0  0
   53.8156   47.4152   20.6835 C   0  0  0  0  0  0  0  0  0  0  0  0
   54.5734   48.0571   21.8326 C   0  0  0  0  0  0  0  0  0  0  0  0
   54.1747   49.8198   21.7897 S   0  0  0  0  0  0  0  0  0  0  0  0
   53.3034   49.5576   23.3528 C   0  0  0  0  0  0  0  0  0  0  0  0
   53.1489   50.8174   24.2115 C   0  0  1  0  0  0  0  0  0  0  0  0
   53.3415   52.0301   23.4743 O   0  0  0  0  0  0  0  0  0  0  0  0
   51.7598   50.8846   24.8294 C   0  0  1  0  0  0  0  0  0  0  0  0
   51.7369   50.2926   26.1094 O   0  0  0  0  0  0  0  0  0  0  0  0
   51.4217   52.3697   24.8482 C   0  0  1  0  0  0  0  0  0  0  0  0
   51.8085   52.9773   26.0643 O   0  0  0  0  0  0  0  0  0  0  0  0
   52.2916   52.9437   23.7473 C   0  0  2  0  0  0  0  0  0  0  0  0
   52.6066   46.3297   18.3589 O   0  0  0  0  0  0  0  0  0  0  0  0
   48.4196   55.7899   21.6201 N   0  0  0  0  0  0  0  0  0  0  0  0
   48.8621   55.7945   22.9189 C   0  0  0  0  0  0  0  0  0  0  0  0
   49.8889   54.9557   23.2985 N   0  0  0  0  0  0  0  0  0  0  0  0
   50.4952   54.1516   22.4074 C   0  0  0  0  0  0  0  0  0  0  0  0
   50.0649   54.1332   21.0916 C   0  0  0  0  0  0  0  0  0  0  0  0
   49.0231   54.9561   20.7123 C   0  0  0  0  0  0  0  0  0  0  0  0
   48.6052   54.9639   19.4614 N   0  0  0  0  0  0  0  0  0  0  0  0
   50.8267   53.2504   20.4078 N   0  0  0  0  0  0  0  0  0  0  0  0
   51.7114   52.6942   21.2735 C   0  0  0  0  0  0  0  0  0  0  0  0
   51.5183   53.2468   22.5207 N   0  0  0  0  0  0  0  0  0  0  0  0
  2  1  1  6  0  0  0
  2  3  1  0  0  0  0
  2  5  1  0  0  0  0
  3  4  1  0  0  0  0
  3 16  1  0  0  0  0
  5  6  1  0  0  0  0
  6  7  1  0  0  0  0
  7  8  1  0  0  0  0
  9  8  1  6  0  0  0
  9 10  1  0  0  0  0
  9 11  1  0  0  0  0
 10 15  1  0  0  0  0
 11 12  1  1  0  0  0
 11 13  1  0  0  0  0
 13 14  1  1  0  0  0
 13 15  1  0  0  0  0
 15 26  1  6  0  0  0
 17 18  2  0  0  0  0
 17 22  1  0  0  0  0
 18 19  1  0  0  0  0
 19 20  2  0  0  0  0
 20 21  1  0  0  0  0
 20 26  1  0  0  0  0
 21 22  2  0  0  0  0
 21 24  1  0  0  0  0
 22 23  1  0  0  0  0
 24 25  2  0  0  0  0
 25 26  1  0  0  0  0
M  END
>  <CHROM.1>
96.40900288,-62.40765500,166.95102741,112.60971777,156.49114070,18.07957623
-175.51784132,52.02835116,50.96172494,22.06825769,0.76012114,0.96892657,-2.13679850

>  <Name>
ligand

>  <RI>
0

>  <Rbt.Current_Directory>
/home/itssahil/PROJECTS/Mol_Feturizer/New_Systems/rnas/3GX3

>  <Rbt.Executable>
rbdock ($Id: //depot/dev/client3/rdock/2013.1/src/exe/rbdock.cxx#4 $)

>  <Rbt.Library>
libRbt.so (2013.1, Build901 2013/11/27)

>  <Rbt.Parameter_File>
/export/apps/rDock/src/rDock_2013.1_src/data/scripts/dock_solv.prm

>  <Rbt.Receptor>
prm/blind_docking_80.prm

>  <SCORE>
-17.7128

>  <SCORE.INTER>
-18.1165

>  <SCORE.INTER.CONST>
1

>  <SCORE.INTER.POLAR>
0

>  <SCORE.INTER.ROT>
7

>  <SCORE.INTER.SOLV>
14.9456

>  <SCORE.INTER.VDW>
-25.3262

>  <SCORE.INTER.norm>
-0.696789

>  <SCORE.INTRA>
0.403734

>  <SCORE.INTRA.DIHEDRAL>
5.00707

>  <SCORE.INTRA.DIHEDRAL.0>
5.78979

>  <SCORE.INTRA.POLAR>
0

>  <SCORE.INTRA.POLAR.0>
0

>  <SCORE.INTRA.REPUL>
0

>  <SCORE.INTRA.REPUL.0>
0

>  <SCORE.INTRA.SOLV>
-0.489209

>  <SCORE.INTRA.SOLV.lig_0>
-49.9151

>  <SCORE.INTRA.VDW>
-1.8552

>  <SCORE.INTRA.VDW.0>
-0.211125

>  <SCORE.INTRA.norm>
0.0155282

>  <SCORE.RESTR>
0

>  <SCORE.RESTR.CAVITY>
0

>  <SCORE.RESTR.norm>
0

>  <SCORE.SYSTEM>
0

>  <SCORE.SYSTEM.CONST>
0

>  <SCORE.SYSTEM.DIHEDRAL>
0

>  <SCORE.SYSTEM.SOLV>
0

>  <SCORE.SYSTEM.norm>
0

>  <SCORE.heavy>
26

>  <SCORE.norm>
-0.681261

>  <RMSD>
12.184

$$$$
ligand
 OpenBabel11021811483D
libRbt.so/2013.1/901 2013/11/27
 26 28  0  0  0  0  0  0  0  0999 V2000
   53.9656   51.3517   22.5890 N   0  0  0  0  0  0  0  0  0  0  0  0
   53.5316   51.1400   23.9727 C   0  0  2  0  0  0  0  0  0  0  0  0
   53.5852   49.6809   24.4308 C   0  0  0  0  0  0  0  0  0  0  0  0
   53.7900   49.4536   25.6235 O   0  0  0  0  0  0  0  0  0  0  0  0
   52.1230   51.6554   24.2947 C   0  0  0  0  0  0  0  0  0  0  0  0
   51.7124   53.0781   23.9572 C   0  0  0  0  0  0  0  0  0  0  0  0
   50.0304   53.2899   24.5847 S   0  0  0  0  0  0  0  0  0  0  0  0
   49.8863   54.6820   23.4389 C   0  0  0  0  0  0  0  0  0  0  0  0
   48.4994   54.8421   22.8072 C   0  0  1  0  0  0  0  0  0  0  0  0
   48.4546   55.8513   21.7920 O   0  0  0  0  0  0  0  0  0  0  0  0
   48.0432   53.5400   22.1650 C   0  0  1  0  0  0  0  0  0  0  0  0
   47.2864   52.7604   23.0642 O   0  0  0  0  0  0  0  0  0  0  0  0
   47.2547   53.9758   20.9368 C   0  0  1  0  0  0  0  0  0  0  0  0
   45.8785   54.1201   21.2248 O   0  0  0  0  0  0  0  0  0  0  0  0
   47.8100   55.3529   20.6312 C   0  0  2  0  0  0  0  0  0  0  0  0
   53.4179   48.7272   23.6605 O   0  0  0  0  0  0  0  0  0  0  0  0
   52.2006   53.3301   18.5699 N   0  0  0  0  0  0  0  0  0  0  0  0
   51.6344   53.0631   19.7909 C   0  0  0  0  0  0  0  0  0  0  0  0
   50.4780   53.7125   20.1693 N   0  0  0  0  0  0  0  0  0  0  0  0
   49.8683   54.5833   19.3457 C   0  0  0  0  0  0  0  0  0  0  0  0
   50.4225   54.8652   18.1087 C   0  0  0  0  0  0  0  0  0  0  0  0
   51.5917   54.2330   17.7348 C   0  0  0  0  0  0  0  0  0  0  0  0
   52.1305   54.4772   16.5560 N   0  0  0  0  0  0  0  0  0  0  0  0
   49.6288   55.7621   17.4821 N   0  0  0  0  0  0  0  0  0  0  0  0
   48.5993   56.0692   18.3111 C   0  0  0  0  0  0  0  0  0  0  0  0
   48.7340   55.3418   19.4734 N   0  0  0  0  0  0  0  0  0  0  0  0
  2  1  1  6  0  0  0
  2  3  1  0  0  0  0
  2  5  1  0  0  0  0
  3  4  1  0  0  0  0
  3 16  1  0  0  0  0
  5  6  1  0  0  0  0
  6  7  1  0  0  0  0
  7  8  1  0  0  0  0
  9  8  1  6  0  0  0
  9 10  1  0  0  0  0
  9 11  1  0  0  0  0
 10 15  1  0  0  0  0
 11 12  1  1  0  0  0
 11 13  1  0  0  0  0
 13 14  1  1  0  0  0
 13 15  1  0  0  0  0
 15 26  1  6  0  0  0
 17 18  2  0  0  0  0
 17 22  1  0  0  0  0
 18 19  1  0  0  0  0
 19 20  2  0  0  0  0
 20 21  1  0  0  0  0
 20 26  1  0  0  0  0
 21 22  2  0  0  0  0
 21 24  1  0  0  0  0
 22 23  1  0  0  0  0
 24 25  2  0  0  0  0
 25 26  1  0  0  0  0
M  END
>  <CHROM.1>
150.29463619,-51.56721251,-176.84824125,-159.91656305,143.87999249,-173.19302206
64.93578027,50.37189114,53.36643781,21.58264654,-0.96958954,0.48868060,-1.17416339

>  <Name>
ligand

>  <RI>
0

>  <Rbt.Current_Directory>
/home/itssahil/PROJECTS/Mol_Feturizer/New_Systems/rnas/3GX3

>  <Rbt.Executable>
rbdock ($Id: //depot/dev/client3/rdock/2013.1/src/exe/rbdock.cxx#4 $)

>  <Rbt.Library>
libRbt.so (2013.1, Build901 2013/11/27)

>  <Rbt.Parameter_File>
/export/apps/rDock/src/rDock_2013.1_src/data/scripts/dock_solv.prm

>  <Rbt.Receptor>
prm/blind_docking_80.prm

>  <SCORE>
-16.0919

>  <SCORE.INTER>
-12.5753

>  <SCORE.INTER.CONST>
1

>  <SCORE.INTER.POLAR>
0

>  <SCORE.INTER.ROT>
7

>  <SCORE.INTER.SOLV>
6.23676

>  <SCORE.INTER.VDW>
-18.7291

>  <SCORE.INTER.norm>
-0.483666

>  <SCORE.INTRA>
-3.51657

>  <SCORE.INTRA.DIHEDRAL>
-0.374243

>  <SCORE.INTRA.DIHEDRAL.0>
5.78979

>  <SCORE.INTRA.POLAR>
0

>  <SCORE.INTRA.POLAR.0>
0

>  <SCORE.INTRA.REPUL>
0

>  <SCORE.INTRA.REPUL.0>
0

>  <SCORE.INTRA.SOLV>
-0.227123

>  <SCORE.INTRA.SOLV.lig_0>
-49.9151

>  <SCORE.INTRA.VDW>
-3.21588

>  <SCORE.INTRA.VDW.0>
-0.211125

>  <SCORE.INTRA.norm>
-0.135253

>  <SCORE.RESTR>
0

>  <SCORE.RESTR.CAVITY>
0

>  <SCORE.RESTR.norm>
0

>  <SCORE.SYSTEM>
0

>  <SCORE.SYSTEM.CONST>
0

>  <SCORE.SYSTEM.DIHEDRAL>
0

>  <SCORE.SYSTEM.SOLV>
0

>  <SCORE.SYSTEM.norm>
0

>  <SCORE.heavy>
26

>  <SCORE.norm>
-0.618918

>  <RMSD>
12.283

$$$$
ligand
 OpenBabel11021811483D
libRbt.so/2013.1/901 2013/11/27
 26 28  0  0  0  0  0  0  0  0999 V2000
   53.4577   55.1566   16.1333 N   0  0  0  0  0  0  0  0  0  0  0  0
   52.2697   54.5646   16.7545 C   0  0  2  0  0  0  0  0  0  0  0  0
   51.7757   53.2868   16.0727 C   0  0  0  0  0  0  0  0  0  0  0  0
   51.9984   53.1469   14.8698 O   0  0  0  0  0  0  0  0  0  0  0  0
   51.0620   55.5042   16.8660 C   0  0  0  0  0  0  0  0  0  0  0  0
   49.7741   55.0502   17.5307 C   0  0  0  0  0  0  0  0  0  0  0  0
   50.2193   54.5086   19.1969 S   0  0  0  0  0  0  0  0  0  0  0  0
   48.4553   54.5950   19.5872 C   0  0  0  0  0  0  0  0  0  0  0  0
   48.1168   54.3189   21.0561 C   0  0  1  0  0  0  0  0  0  0  0  0
   48.3923   52.9714   21.4552 O   0  0  0  0  0  0  0  0  0  0  0  0
   48.9151   55.2309   21.9764 C   0  0  1  0  0  0  0  0  0  0  0  0
   48.2022   56.4103   22.2767 O   0  0  0  0  0  0  0  0  0  0  0  0
   49.2057   54.3758   23.2030 C   0  0  1  0  0  0  0  0  0  0  0  0
   48.2088   54.5285   24.1933 O   0  0  0  0  0  0  0  0  0  0  0  0
   49.1181   52.9579   22.6735 C   0  0  2  0  0  0  0  0  0  0  0  0
   51.1789   52.3882   16.6788 O   0  0  0  0  0  0  0  0  0  0  0  0
   52.8006   49.8234   24.7307 N   0  0  0  0  0  0  0  0  0  0  0  0
   51.5934   50.1851   25.2734 C   0  0  0  0  0  0  0  0  0  0  0  0
   50.7590   51.0408   24.5854 N   0  0  0  0  0  0  0  0  0  0  0  0
   51.0900   51.5047   23.3673 C   0  0  0  0  0  0  0  0  0  0  0  0
   52.3028   51.1503   22.8014 C   0  0  0  0  0  0  0  0  0  0  0  0
   53.1503   50.3106   23.4963 C   0  0  0  0  0  0  0  0  0  0  0  0
   54.3051   49.9501   22.9709 N   0  0  0  0  0  0  0  0  0  0  0  0
   52.3956   51.7428   21.5900 N   0  0  0  0  0  0  0  0  0  0  0  0
   51.2757   52.4835   21.3935 C   0  0  0  0  0  0  0  0  0  0  0  0
   50.4535   52.3434   22.4900 N   0  0  0  0  0  0  0  0  0  0  0  0
  2  1  1  6  0  0  0
  2  3  1  0  0  0  0
  2  5  1  0  0  0  0
  3  4  1  0  0  0  0
  3 16  1  0  0  0  0
  5  6  1  0  0  0  0
  6  7  1  0  0  0  0
  7  8  1  0  0  0  0
  9  8  1  6  0  0  0
  9 10  1  0  0  0  0
  9 11  1  0  0  0  0
 10 15  1  0  0  0  0
 11 12  1  1  0  0  0
 11 13  1  0  0  0  0
 13 14  1  1  0  0  0
 13 15  1  0  0  0  0
 15 26  1  6  0  0  0
 17 18  2  0  0  0  0
 17 22  1  0  0  0  0
 18 19  1  0  0  0  0
 19 20  2  0  0  0  0
 20 21  1  0  0  0  0
 20 26  1  0  0  0  0
 21 22  2  0  0  0  0
 21 24  1  0  0  0  0
 22 23  1  0  0  0  0
 24 25  2  0  0  0  0
 25 26  1  0  0  0  0
M  END
>  <CHROM.1>
-28.25799562,-177.83987489,56.17564811,164.61389729,-175.37696989,-66.36530216
-140.58894812,50.71066238,53.18486929,20.74401927,-1.56147260,-0.69705980
1.95753385

>  <Name>
ligand

>  <RI>
0

>  <Rbt.Current_Directory>
/home/itssahil/PROJECTS/Mol_Feturizer/New_Systems/rnas/3GX3

>  <Rbt.Executable>
rbdock ($Id: //depot/dev/client3/rdock/2013.1/src/exe/rbdock.cxx#4 $)

>  <Rbt.Library>
libRbt.so (2013.1, Build901 2013/11/27)

>  <Rbt.Parameter_File>
/export/apps/rDock/src/rDock_2013.1_src/data/scripts/dock_solv.prm

>  <Rbt.Receptor>
prm/blind_docking_80.prm

>  <SCORE>
-20.0523

>  <SCORE.INTER>
-15.8694

>  <SCORE.INTER.CONST>
1

>  <SCORE.INTER.POLAR>
0

>  <SCORE.INTER.ROT>
7

>  <SCORE.INTER.SOLV>
8.87287

>  <SCORE.INTER.VDW>
-21.8039

>  <SCORE.INTER.norm>
-0.610362

>  <SCORE.INTRA>
-4.18288

>  <SCORE.INTRA.DIHEDRAL>
-2.28946

>  <SCORE.INTRA.DIHEDRAL.0>
5.78979

>  <SCORE.INTRA.POLAR>
0

>  <SCORE.INTRA.POLAR.0>
0

>  <SCORE.INTRA.REPUL>
0

>  <SCORE.INTRA.REPUL.0>
0

>  <SCORE.INTRA.SOLV>
-0.627466

>  <SCORE.INTRA.SOLV.lig_0>
-49.9151

>  <SCORE.INTRA.VDW>
-2.72442

>  <SCORE.INTRA.VDW.0>
-0.211125

>  <SCORE.INTRA.norm>
-0.16088

>  <SCORE.RESTR>
0

>  <SCORE.RESTR.CAVITY>
0

>  <SCORE.RESTR.norm>
0

>  <SCORE.SYSTEM>
0

>  <SCORE.SYSTEM.CONST>
0

>  <SCORE.SYSTEM.DIHEDRAL>
0

>  <SCORE.SYSTEM.SOLV>
0

>  <SCORE.SYSTEM.norm>
0

>  <SCORE.heavy>
26

>  <SCORE.norm>
-0.771242

>  <RMSD>
12.360

$$$$
ligand
 OpenBabel11021811483D
libRbt.so/2013.1/901 2013/11/27
 26 28  0  0  0  0  0  0  0  0999 V2000
   55.5118   45.4230   19.0981 N   0  0  0  0  0  0  0  0  0  0  0  0
   54.1815   45.6876   19.6532 C   0  0  2  0  0  0  0  0  0  0  0  0
   53.2778   46.5246   18.7451 C   0  0  0  0  0  0  0  0  0  0  0  0
   52.1153   46.1535   18.5809 O   0  0  0  0  0  0  0  0  0  0  0  0
   54.1781   46.3649   21.0297 C   0  0  0  0  0  0  0  0  0  0  0  0
   54.8026   47.7346   21.2312 C   0  0  0  0  0  0  0  0  0  0  0  0
   54.5091   48.1841   22.9574 S   0  0  0  0  0  0  0  0  0  0  0  0
   54.8638   49.8889   22.4685 C   0  0  0  0  0  0  0  0  0  0  0  0
   53.7365   50.5718   21.6867 C   0  0  1  0  0  0  0  0  0  0  0  0
   52.4299   50.2101   22.1483 O   0  0  0  0  0  0  0  0  0  0  0  0
   53.8453   52.0862   21.7912 C   0  0  1  0  0  0  0  0  0  0  0  0
   54.5944   52.6230   20.7235 O   0  0  0  0  0  0  0  0  0  0  0  0
   52.4018   52.5718   21.8162 C   0  0  1  0  0  0  0  0  0  0  0  0
   51.9272   52.8638   20.5173 O   0  0  0  0  0  0  0  0  0  0  0  0
   51.6338   51.3698   22.3297 C   0  0  2  0  0  0  0  0  0  0  0  0
   53.6599   47.5595   18.1848 O   0  0  0  0  0  0  0  0  0  0  0  0
   47.8829   52.9364   25.6604 N   0  0  0  0  0  0  0  0  0  0  0  0
   47.8709   52.9751   24.2890 C   0  0  0  0  0  0  0  0  0  0  0  0
   48.9670   52.5317   23.5790 N   0  0  0  0  0  0  0  0  0  0  0  0
   50.0430   52.0247   24.2064 C   0  0  0  0  0  0  0  0  0  0  0  0
   50.0742   51.9752   25.5896 C   0  0  0  0  0  0  0  0  0  0  0  0
   48.9874   52.4378   26.3046 C   0  0  0  0  0  0  0  0  0  0  0  0
   48.9905   52.3887   27.6226 N   0  0  0  0  0  0  0  0  0  0  0  0
   51.2523   51.4315   25.9688 N   0  0  0  0  0  0  0  0  0  0  0  0
   51.9735   51.1611   24.8516 C   0  0  0  0  0  0  0  0  0  0  0  0
   51.2330   51.5230   23.7475 N   0  0  0  0  0  0  0  0  0  0  0  0
  2  1  1  6  0  0  0
  2  3  1  0  0  0  0
  2  5  1  0  0  0  0
  3  4  1  0  0  0  0
  3 16  1  0  0  0  0
  5  6  1  0  0  0  0
  6  7  1  0  0  0  0
  7  8  1  0  0  0  0
  9  8  1  1  0  0  0
  9 10  1  0  0  0  0
  9 11  1  0  0  0  0
 10 15  1  0  0  0  0
 11 12  1  6  0  0  0
 11 13  1  0  0  0  0
 13 14  1  6  0  0  0
 13 15  1  0  0  0  0
 15 26  1  1  0  0  0
 17 18  2  0  0  0  0
 17 22  1  0  0  0  0
 18 19  1  0  0  0  0
 19 20  2  0  0  0  0
 20 21  1  0  0  0  0
 20 26  1  0  0  0  0
 21 22  2  0  0  0  0
 21 24  1  0  0  0  0
 22 23  1  0  0  0  0
 24 25  2  0  0  0  0
 25 26  1  0  0  0  0
M  END
>  <CHROM.1>
133.99575463,60.88842094,177.31648627,-162.03820419,75.09077462,37.12228971
-145.14746928,52.29274360,50.13420766,22.41410316,0.43629089,-0.96147168
2.86310347

>  <Name>
ligand

>  <RI>
0

>  <Rbt.Current_Directory>
/home/itssahil/PROJECTS/Mol_Feturizer/New_Systems/rnas/3GX3

>  <Rbt.Executable>
rbdock ($Id: //depot/dev/client3/rdock/2013.1/src/exe/rbdock.cxx#4 $)

>  <Rbt.Library>
libRbt.so (2013.1, Build901 2013/11/27)

>  <Rbt.Parameter_File>
/export/apps/rDock/src/rDock_2013.1_src/data/scripts/dock_solv.prm

>  <Rbt.Receptor>
prm/blind_docking_80.prm

>  <SCORE>
-17.0184

>  <SCORE.INTER>
-14.2855

>  <SCORE.INTER.CONST>
1

>  <SCORE.INTER.POLAR>
0

>  <SCORE.INTER.ROT>
7

>  <SCORE.INTER.SOLV>
14.2052

>  <SCORE.INTER.VDW>
-22.5254

>  <SCORE.INTER.norm>
-0.549444

>  <SCORE.INTRA>
-2.75547

>  <SCORE.INTRA.DIHEDRAL>
-0.390516

>  <SCORE.INTRA.DIHEDRAL.0>
5.78979

>  <SCORE.INTRA.POLAR>
0

>  <SCORE.INTRA.POLAR.0>
0

>  <SCORE.INTRA.REPUL>
0

>  <SCORE.INTRA.REPUL.0>
0

>  <SCORE.INTRA.SOLV>
-0.445636

>  <SCORE.INTRA.SOLV.lig_0>
-49.9151

>  <SCORE.INTRA.VDW>
-2.33739

>  <SCORE.INTRA.VDW.0>
-0.211125

>  <SCORE.INTRA.norm>
-0.10598

>  <SCORE.RESTR>
0.0225665

>  <SCORE.RESTR.CAVITY>
0.0225665

>  <SCORE.RESTR.norm>
0.000867943

>  <SCORE.SYSTEM>
0

>  <SCORE.SYSTEM.CONST>
0

>  <SCORE.SYSTEM.DIHEDRAL>
0

>  <SCORE.SYSTEM.SOLV>
0

>  <SCORE.SYSTEM.norm>
0

>  <SCORE.heavy>
26

>  <SCORE.norm>
-0.654555

>  <RMSD>
12.505

$$$$
ligand
 OpenBabel11021811483D
libRbt.so/2013.1/901 2013/11/27
 26 28  0  0  0  0  0  0  0  0999 V2000
   54.8447   45.8709   18.7915 N   0  0  0  0  0  0  0  0  0  0  0  0
   54.9004   46.1482   20.2294 C   0  0  2  0  0  0  0  0  0  0  0  0
   54.4398   44.9853   21.1111 C   0  0  0  0  0  0  0  0  0  0  0  0
   55.1264   44.6910   22.0899 O   0  0  0  0  0  0  0  0  0  0  0  0
   54.1142   47.3861   20.6803 C   0  0  0  0  0  0  0  0  0  0  0  0
   54.3506   48.0113   22.0441 C   0  0  0  0  0  0  0  0  0  0  0  0
   53.1991   49.3981   22.1799 S   0  0  0  0  0  0  0  0  0  0  0  0
   53.7598   49.5651   23.8913 C   0  0  0  0  0  0  0  0  0  0  0  0
   53.2978   50.8498   24.5873 C   0  0  1  0  0  0  0  0  0  0  0  0
   53.5755   52.0332   23.8301 O   0  0  0  0  0  0  0  0  0  0  0  0
   51.7970   50.8201   24.8381 C   0  0  1  0  0  0  0  0  0  0  0  0
   51.4989   50.2991   26.1144 O   0  0  0  0  0  0  0  0  0  0  0  0
   51.3516   52.2658   24.6603 C   0  0  1  0  0  0  0  0  0  0  0  0
   51.3723   52.9722   25.8843 O   0  0  0  0  0  0  0  0  0  0  0  0
   52.4234   52.8580   23.7665 C   0  0  2  0  0  0  0  0  0  0  0  0
   53.4057   44.3426   20.8910 O   0  0  0  0  0  0  0  0  0  0  0  0
   49.0440   55.2571   20.5351 N   0  0  0  0  0  0  0  0  0  0  0  0
   49.1497   55.3809   21.8975 C   0  0  0  0  0  0  0  0  0  0  0  0
   50.0964   54.6489   22.5830 N   0  0  0  0  0  0  0  0  0  0  0  0
   50.9494   53.8357   21.9353 C   0  0  0  0  0  0  0  0  0  0  0  0
   50.8605   53.6980   20.5606 C   0  0  0  0  0  0  0  0  0  0  0  0
   49.9001   54.4131   19.8731 C   0  0  0  0  0  0  0  0  0  0  0  0
   49.8055   54.3066   18.5619 N   0  0  0  0  0  0  0  0  0  0  0  0
   51.8169   52.8319   20.1576 N   0  0  0  0  0  0  0  0  0  0  0  0
   52.4896   52.4026   21.2551 C   0  0  0  0  0  0  0  0  0  0  0  0
   51.9623   53.0201   22.3680 N   0  0  0  0  0  0  0  0  0  0  0  0
  2  1  1  6  0  0  0
  2  3  1  0  0  0  0
  2  5  1  0  0  0  0
  3  4  1  0  0  0  0
  3 16  1  0  0  0  0
  5  6  1  0  0  0  0
  6  7  1  0  0  0  0
  7  8  1  0  0  0  0
  9  8  1  6  0  0  0
  9 10  1  0  0  0  0
  9 11  1  0  0  0  0
 10 15  1  0  0  0  0
 11 12  1  1  0  0  0
 11 13  1  0  0  0  0
 13 14  1  1  0  0  0
 13 15  1  0  0  0  0
 15 26  1  6  0  0  0
 17 18  2  0  0  0  0
 17 22  1  0  0  0  0
 18 19  1  0  0  0  0
 19 20  2  0  0  0  0
 20 21  1  0  0  0  0
 20 26  1  0  0  0  0
 21 22  2  0  0  0  0
 21 24  1  0  0  0  0
 22 23  1  0  0  0  0
 24 25  2  0  0  0  0
 25 26  1  0  0  0  0
M  END
>  <CHROM.1>
134.38118809,-164.19573893,-178.48820007,173.81036347,169.00938431,-50.96424602
-174.27351347,52.37797610,50.68659786,22.18649783,0.27089827,1.10582414,-1.78092732

>  <Name>
ligand

>  <RI>
0

>  <Rbt.Current_Directory>
/home/itssahil/PROJECTS/Mol_Feturizer/New_Systems/rnas/3GX3

>  <Rbt.Executable>
rbdock ($Id: //depot/dev/client3/rdock/2013.1/src/exe/rbdock.cxx#4 $)

>  <Rbt.Library>
libRbt.so (2013.1, Build901 2013/11/27)

>  <Rbt.Parameter_File>
/export/apps/rDock/src/rDock_2013.1_src/data/scripts/dock_solv.prm

>  <Rbt.Receptor>
prm/blind_docking_80.prm

>  <SCORE>
-19.5006

>  <SCORE.INTER>
-15.4212

>  <SCORE.INTER.CONST>
1

>  <SCORE.INTER.POLAR>
0

>  <SCORE.INTER.ROT>
7

>  <SCORE.INTER.SOLV>
14.3475

>  <SCORE.INTER.VDW>
-23.33

>  <SCORE.INTER.norm>
-0.593122

>  <SCORE.INTRA>
-4.07945

>  <SCORE.INTRA.DIHEDRAL>
-1.5862

>  <SCORE.INTRA.DIHEDRAL.0>
5.78979

>  <SCORE.INTRA.POLAR>
0

>  <SCORE.INTRA.POLAR.0>
0

>  <SCORE.INTRA.REPUL>
0

>  <SCORE.INTRA.REPUL.0>
0

>  <SCORE.INTRA.SOLV>
-0.885278

>  <SCORE.INTRA.SOLV.lig_0>
-49.9151

>  <SCORE.INTRA.VDW>
-2.84371

>  <SCORE.INTRA.VDW.0>
-0.211125

>  <SCORE.INTRA.norm>
-0.156902

>  <SCORE.RESTR>
0

>  <SCORE.RESTR.CAVITY>
0

>  <SCORE.RESTR.norm>
0

>  <SCORE.SYSTEM>
0

>  <SCORE.SYSTEM.CONST>
0

>  <SCORE.SYSTEM.DIHEDRAL>
0

>  <SCORE.SYSTEM.SOLV>
0

>  <SCORE.SYSTEM.norm>
0

>  <SCORE.heavy>
26

>  <SCORE.norm>
-0.750024

>  <RMSD>
12.538

$$$$
ligand
 OpenBabel11021811483D
libRbt.so/2013.1/901 2013/11/27
 26 28  0  0  0  0  0  0  0  0999 V2000
   51.9822   56.7983   15.9513 N   0  0  0  0  0  0  0  0  0  0  0  0
   51.6086   55.4186   15.6281 C   0  0  2  0  0  0  0  0  0  0  0  0
   50.4644   54.8626   16.4788 C   0  0  0  0  0  0  0  0  0  0  0  0
   49.8293   53.9025   16.0421 O   0  0  0  0  0  0  0  0  0  0  0  0
   52.7554   54.4025   15.7073 C   0  0  0  0  0  0  0  0  0  0  0  0
   53.5755   54.2430   16.9756 C   0  0  0  0  0  0  0  0  0  0  0  0
   52.6634   53.0984   18.0365 S   0  0  0  0  0  0  0  0  0  0  0  0
   54.0558   53.2122   19.1852 C   0  0  0  0  0  0  0  0  0  0  0  0
   53.6784   53.0287   20.6590 C   0  0  1  0  0  0  0  0  0  0  0  0
   52.6633   53.9381   21.0992 O   0  0  0  0  0  0  0  0  0  0  0  0
   53.1598   51.6208   20.9140 C   0  0  1  0  0  0  0  0  0  0  0  0
   54.1985   50.7546   21.3142 O   0  0  0  0  0  0  0  0  0  0  0  0
   52.0821   51.7974   21.9758 C   0  0  1  0  0  0  0  0  0  0  0  0
   52.6078   51.6590   23.2805 O   0  0  0  0  0  0  0  0  0  0  0  0
   51.6488   53.2398   21.8025 C   0  0  2  0  0  0  0  0  0  0  0  0
   50.1627   55.3255   17.5859 O   0  0  0  0  0  0  0  0  0  0  0  0
   46.4215   53.3753   22.3272 N   0  0  0  0  0  0  0  0  0  0  0  0
   47.3700   53.2301   23.3080 C   0  0  0  0  0  0  0  0  0  0  0  0
   48.7072   53.1988   22.9722 N   0  0  0  0  0  0  0  0  0  0  0  0
   49.1073   53.3444   21.6966 C   0  0  0  0  0  0  0  0  0  0  0  0
   48.1662   53.4939   20.6922 C   0  0  0  0  0  0  0  0  0  0  0  0
   46.8254   53.5044   21.0220 C   0  0  0  0  0  0  0  0  0  0  0  0
   45.9122   53.6579   20.0828 N   0  0  0  0  0  0  0  0  0  0  0  0
   48.8178   53.6173   19.5144 N   0  0  0  0  0  0  0  0  0  0  0  0
   50.1500   53.5231   19.7551 C   0  0  0  0  0  0  0  0  0  0  0  0
   50.3451   53.3552   21.1085 N   0  0  0  0  0  0  0  0  0  0  0  0
  2  1  1  1  0  0  0
  2  3  1  0  0  0  0
  2  5  1  0  0  0  0
  3  4  1  0  0  0  0
  3 16  1  0  0  0  0
  5  6  1  0  0  0  0
  6  7  1  0  0  0  0
  7  8  1  0  0  0  0
  9  8  1  6  0  0  0
  9 10  1  0  0  0  0
  9 11  1  0  0  0  0
 10 15  1  0  0  0  0
 11 12  1  1  0  0  0
 11 13  1  0  0  0  0
 13 14  1  1  0  0  0
 13 15  1  0  0  0  0
 15 26  1  6  0  0  0
 17 18  2  0  0  0  0
 17 22  1  0  0  0  0
 18 19  1  0  0  0  0
 19 20  2  0  0  0  0
 20 21  1  0  0  0  0
 20 26  1  0  0  0  0
 21 22  2  0  0  0  0
 21 24  1  0  0  0  0
 22 23  1  0  0  0  0
 24 25  2  0  0  0  0
 25 26  1  0  0  0  0
M  END
>  <CHROM.1>
158.93625962,55.43976316,84.81159200,176.26477008,150.03869517,-55.53359716
-149.86922021,50.89643863,53.49424349,19.70094807,0.92749248,0.21260696,-1.15171889

>  <Name>
ligand

>  <RI>
0

>  <Rbt.Current_Directory>
/home/itssahil/PROJECTS/Mol_Feturizer/New_Systems/rnas/3GX3

>  <Rbt.Executable>
rbdock ($Id: //depot/dev/client3/rdock/2013.1/src/exe/rbdock.cxx#4 $)

>  <Rbt.Library>
libRbt.so (2013.1, Build901 2013/11/27)

>  <Rbt.Parameter_File>
/export/apps/rDock/src/rDock_2013.1_src/data/scripts/dock_solv.prm

>  <Rbt.Receptor>
prm/blind_docking_100.prm

>  <SCORE>
-14.1901

>  <SCORE.INTER>
-10.6621

>  <SCORE.INTER.CONST>
1

>  <SCORE.INTER.POLAR>
0

>  <SCORE.INTER.ROT>
7

>  <SCORE.INTER.SOLV>
12.2294

>  <SCORE.INTER.VDW>
-19.4512

>  <SCORE.INTER.norm>
-0.410082

>  <SCORE.INTRA>
-3.52794

>  <SCORE.INTRA.DIHEDRAL>
0.452143

>  <SCORE.INTRA.DIHEDRAL.0>
5.78979

>  <SCORE.INTRA.POLAR>
0

>  <SCORE.INTRA.POLAR.0>
0

>  <SCORE.INTRA.REPUL>
0

>  <SCORE.INTRA.REPUL.0>
0

>  <SCORE.INTRA.SOLV>
0.135281

>  <SCORE.INTRA.SOLV.lig_0>
-49.9151

>  <SCORE.INTRA.VDW>
-3.82165

>  <SCORE.INTRA.VDW.0>
-0.211125

>  <SCORE.INTRA.norm>
-0.13569

>  <SCORE.RESTR>
0

>  <SCORE.RESTR.CAVITY>
0

>  <SCORE.RESTR.norm>
0

>  <SCORE.SYSTEM>
0

>  <SCORE.SYSTEM.CONST>
0

>  <SCORE.SYSTEM.DIHEDRAL>
0

>  <SCORE.SYSTEM.SOLV>
0

>  <SCORE.SYSTEM.norm>
0

>  <SCORE.heavy>
26

>  <SCORE.norm>
-0.545772

>  <RMSD>
12.541

$$$$
ligand
 OpenBabel11021811483D
libRbt.so/2013.1/901 2013/11/27
 26 28  0  0  0  0  0  0  0  0999 V2000
   47.4898   52.7465   26.9413 N   0  0  0  0  0  0  0  0  0  0  0  0
   47.9026   52.2309   25.6331 C   0  0  2  0  0  0  0  0  0  0  0  0
   48.8291   51.0149   25.7018 C   0  0  0  0  0  0  0  0  0  0  0  0
   48.5002   49.9986   25.0894 O   0  0  0  0  0  0  0  0  0  0  0  0
   48.5839   53.2575   24.7189 C   0  0  0  0  0  0  0  0  0  0  0  0
   49.0971   52.8648   23.3445 C   0  0  0  0  0  0  0  0  0  0  0  0
   50.2622   54.1531   22.8439 S   0  0  0  0  0  0  0  0  0  0  0  0
   50.9566   52.9385   21.6976 C   0  0  0  0  0  0  0  0  0  0  0  0
   52.2143   53.4099   20.9598 C   0  0  1  0  0  0  0  0  0  0  0  0
   53.3947   53.3630   21.7695 O   0  0  0  0  0  0  0  0  0  0  0  0
   52.4777   52.5482   19.7334 C   0  0  1  0  0  0  0  0  0  0  0  0
   51.8792   53.0975   18.5805 O   0  0  0  0  0  0  0  0  0  0  0  0
   53.9960   52.4681   19.6420 C   0  0  1  0  0  0  0  0  0  0  0  0
   54.5242   53.4945   18.8264 O   0  0  0  0  0  0  0  0  0  0  0  0
   54.4495   52.7287   21.0649 C   0  0  2  0  0  0  0  0  0  0  0  0
   49.8946   51.0155   26.3308 O   0  0  0  0  0  0  0  0  0  0  0  0
   53.0965   48.8878   24.3867 N   0  0  0  0  0  0  0  0  0  0  0  0
   52.3450   49.9601   23.9771 C   0  0  0  0  0  0  0  0  0  0  0  0
   52.8827   50.8840   23.1057 N   0  0  0  0  0  0  0  0  0  0  0  0
   54.1267   50.7363   22.6164 C   0  0  0  0  0  0  0  0  0  0  0  0
   54.9008   49.6601   23.0158 C   0  0  0  0  0  0  0  0  0  0  0  0
   54.3735   48.7445   23.9046 C   0  0  0  0  0  0  0  0  0  0  0  0
   55.0887   47.7052   24.2891 N   0  0  0  0  0  0  0  0  0  0  0  0
   56.0962   49.7414   22.3902 N   0  0  0  0  0  0  0  0  0  0  0  0
   56.0986   50.8616   21.6243 C   0  0  0  0  0  0  0  0  0  0  0  0
   54.8791   51.4895   21.7535 N   0  0  0  0  0  0  0  0  0  0  0  0
  2  1  1  1  0  0  0
  2  3  1  0  0  0  0
  2  5  1  0  0  0  0
  3  4  1  0  0  0  0
  3 16  1  0  0  0  0
  5  6  1  0  0  0  0
  6  7  1  0  0  0  0
  7  8  1  0  0  0  0
  9  8  1  1  0  0  0
  9 10  1  0  0  0  0
  9 11  1  0  0  0  0
 10 15  1  0  0  0  0
 11 12  1  6  0  0  0
 11 13  1  0  0  0  0
 13 14  1  6  0  0  0
 13 15  1  0  0  0  0
 15 26  1  1  0  0  0
 17 18  2  0  0  0  0
 17 22  1  0  0  0  0
 18 19  1  0  0  0  0
 19 20  2  0  0  0  0
 20 21  1  0  0  0  0
 20 26  1  0  0  0  0
 21 22  2  0  0  0  0
 21 24  1  0  0  0  0
 22 23  1  0  0  0  0
 24 25  2  0  0  0  0
 25 26  1  0  0  0  0
M  END
>  <CHROM.1>
125.38379049,178.54137884,-162.10520120,158.83029210,-174.30310813,77.37128962
23.64522336,52.09415288,51.71077756,22.82355855,-2.74839503,0.50391753,-0.84746134

>  <Name>
ligand

>  <RI>
0

>  <Rbt.Current_Directory>
/home/itssahil/PROJECTS/Mol_Feturizer/New_Systems/rnas/3GX3

>  <Rbt.Executable>
rbdock ($Id: //depot/dev/client3/rdock/2013.1/src/exe/rbdock.cxx#4 $)

>  <Rbt.Library>
libRbt.so (2013.1, Build901 2013/11/27)

>  <Rbt.Parameter_File>
/export/apps/rDock/src/rDock_2013.1_src/data/scripts/dock_solv.prm

>  <Rbt.Receptor>
prm/blind_docking_80.prm

>  <SCORE>
-13.3183

>  <SCORE.INTER>
-9.49393

>  <SCORE.INTER.CONST>
1

>  <SCORE.INTER.POLAR>
0

>  <SCORE.INTER.ROT>
7

>  <SCORE.INTER.SOLV>
15.9343

>  <SCORE.INTER.VDW>
-19.9074

>  <SCORE.INTER.norm>
-0.365151

>  <SCORE.INTRA>
-3.82439

>  <SCORE.INTRA.DIHEDRAL>
-0.152788

>  <SCORE.INTRA.DIHEDRAL.0>
5.78979

>  <SCORE.INTRA.POLAR>
0

>  <SCORE.INTRA.POLAR.0>
0

>  <SCORE.INTRA.REPUL>
0

>  <SCORE.INTRA.REPUL.0>
0

>  <SCORE.INTRA.SOLV>
-1.1505

>  <SCORE.INTRA.SOLV.lig_0>
-49.9151

>  <SCORE.INTRA.VDW>
-3.17275

>  <SCORE.INTRA.VDW.0>
-0.211125

>  <SCORE.INTRA.norm>
-0.147092

>  <SCORE.RESTR>
0

>  <SCORE.RESTR.CAVITY>
0

>  <SCORE.RESTR.norm>
0

>  <SCORE.SYSTEM>
0

>  <SCORE.SYSTEM.CONST>
0

>  <SCORE.SYSTEM.DIHEDRAL>
0

>  <SCORE.SYSTEM.SOLV>
0

>  <SCORE.SYSTEM.norm>
0

>  <SCORE.heavy>
26

>  <SCORE.norm>
-0.512243

>  <RMSD>
12.581

$$$$
ligand
 OpenBabel11021811483D
libRbt.so/2013.1/901 2013/11/27
 26 28  0  0  0  0  0  0  0  0999 V2000
   52.7324   51.9239   23.0402 N   0  0  0  0  0  0  0  0  0  0  0  0
   51.3103   52.2650   22.9457 C   0  0  2  0  0  0  0  0  0  0  0  0
   51.0336   53.6353   22.3232 C   0  0  0  0  0  0  0  0  0  0  0  0
   50.3596   53.6803   21.2938 O   0  0  0  0  0  0  0  0  0  0  0  0
   50.5442   52.2176   24.2741 C   0  0  0  0  0  0  0  0  0  0  0  0
   49.0288   52.3124   24.3092 C   0  0  0  0  0  0  0  0  0  0  0  0
   48.6156   54.0468   24.0114 S   0  0  0  0  0  0  0  0  0  0  0  0
   47.3742   53.4454   22.8415 C   0  0  0  0  0  0  0  0  0  0  0  0
   46.8581   54.5064   21.8636 C   0  0  1  0  0  0  0  0  0  0  0  0
   47.9062   55.1854   21.1626 O   0  0  0  0  0  0  0  0  0  0  0  0
   45.9500   53.8804   20.8150 C   0  0  1  0  0  0  0  0  0  0  0  0
   44.5976   53.9254   21.2128 O   0  0  0  0  0  0  0  0  0  0  0  0
   46.2295   54.6739   19.5452 C   0  0  1  0  0  0  0  0  0  0  0  0
   45.3480   55.7705   19.4108 O   0  0  0  0  0  0  0  0  0  0  0  0
   47.6228   55.2259   19.7735 C   0  0  2  0  0  0  0  0  0  0  0  0
   51.4440   54.6934   22.8160 O   0  0  0  0  0  0  0  0  0  0  0  0
   51.6391   55.5971   16.4045 N   0  0  0  0  0  0  0  0  0  0  0  0
   50.8660   56.6072   16.9188 C   0  0  0  0  0  0  0  0  0  0  0  0
   49.8341   56.3108   17.7845 N   0  0  0  0  0  0  0  0  0  0  0  0
   49.5893   55.0449   18.1667 C   0  0  0  0  0  0  0  0  0  0  0  0
   50.3590   54.0113   17.6606 C   0  0  0  0  0  0  0  0  0  0  0  0
   51.3795   54.3020   16.7772 C   0  0  0  0  0  0  0  0  0  0  0  0
   52.1332   53.3343   16.2923 N   0  0  0  0  0  0  0  0  0  0  0  0
   49.9146   52.8509   18.1926 N   0  0  0  0  0  0  0  0  0  0  0  0
   48.8639   53.1315   19.0041 C   0  0  0  0  0  0  0  0  0  0  0  0
   48.6514   54.4927   18.9995 N   0  0  0  0  0  0  0  0  0  0  0  0
  2  1  1  1  0  0  0
  2  3  1  0  0  0  0
  2  5  1  0  0  0  0
  3  4  1  0  0  0  0
  3 16  1  0  0  0  0
  5  6  1  0  0  0  0
  6  7  1  0  0  0  0
  7  8  1  0  0  0  0
  9  8  1  1  0  0  0
  9 10  1  0  0  0  0
  9 11  1  0  0  0  0
 10 15  1  0  0  0  0
 11 12  1  1  0  0  0
 11 13  1  0  0  0  0
 13 14  1  1  0  0  0
 13 15  1  0  0  0  0
 15 26  1  6  0  0  0
 17 18  2  0  0  0  0
 17 22  1  0  0  0  0
 18 19  1  0  0  0  0
 19 20  2  0  0  0  0
 20 21  1  0  0  0  0
 20 26  1  0  0  0  0
 21 22  2  0  0  0  0
 21 24  1  0  0  0  0
 22 23  1  0  0  0  0
 24 25  2  0  0  0  0
 25 26  1  0  0  0  0
M  END
>  <CHROM.1>
119.84159062,-169.51628479,-75.55510476,133.99684310,-163.02795743,52.75749072
-110.00346549,49.15941658,54.11792581,20.55304472,-1.81585158,0.21674994
-1.27118905

>  <Name>
ligand

>  <RI>
0

>  <Rbt.Current_Directory>
/home/itssahil/PROJECTS/Mol_Feturizer/New_Systems/rnas/3GX3

>  <Rbt.Executable>
rbdock ($Id: //depot/dev/client3/rdock/2013.1/src/exe/rbdock.cxx#4 $)

>  <Rbt.Library>
libRbt.so (2013.1, Build901 2013/11/27)

>  <Rbt.Parameter_File>
/export/apps/rDock/src/rDock_2013.1_src/data/scripts/dock_solv.prm

>  <Rbt.Receptor>
prm/blind_docking_80.prm

>  <SCORE>
-13.1863

>  <SCORE.INTER>
-9.44627

>  <SCORE.INTER.CONST>
1

>  <SCORE.INTER.POLAR>
0

>  <SCORE.INTER.ROT>
7

>  <SCORE.INTER.SOLV>
10.5754

>  <SCORE.INTER.VDW>
-18.0893

>  <SCORE.INTER.norm>
-0.363318

>  <SCORE.INTRA>
-3.74003

>  <SCORE.INTRA.DIHEDRAL>
0.963439

>  <SCORE.INTRA.DIHEDRAL.0>
5.78979

>  <SCORE.INTRA.POLAR>
0

>  <SCORE.INTRA.POLAR.0>
0

>  <SCORE.INTRA.REPUL>
0

>  <SCORE.INTRA.REPUL.0>
0

>  <SCORE.INTRA.SOLV>
-0.83834

>  <SCORE.INTRA.SOLV.lig_0>
-49.9151

>  <SCORE.INTRA.VDW>
-3.80258

>  <SCORE.INTRA.VDW.0>
-0.211125

>  <SCORE.INTRA.norm>
-0.143847

>  <SCORE.RESTR>
0

>  <SCORE.RESTR.CAVITY>
0

>  <SCORE.RESTR.norm>
0

>  <SCORE.SYSTEM>
0

>  <SCORE.SYSTEM.CONST>
0

>  <SCORE.SYSTEM.DIHEDRAL>
0

>  <SCORE.SYSTEM.SOLV>
0

>  <SCORE.SYSTEM.norm>
0

>  <SCORE.heavy>
26

>  <SCORE.norm>
-0.507165

>  <RMSD>
12.660

$$$$
ligand
 OpenBabel11021811483D
libRbt.so/2013.1/901 2013/11/27
 26 28  0  0  0  0  0  0  0  0999 V2000
   53.0551   53.0446   24.0156 N   0  0  0  0  0  0  0  0  0  0  0  0
   51.9251   52.8311   24.9242 C   0  0  2  0  0  0  0  0  0  0  0  0
   51.0740   51.6041   24.5896 C   0  0  0  0  0  0  0  0  0  0  0  0
   50.8913   50.7656   25.4725 O   0  0  0  0  0  0  0  0  0  0  0  0
   50.9624   54.0190   25.0492 C   0  0  0  0  0  0  0  0  0  0  0  0
   50.3754   54.6856   23.8172 C   0  0  0  0  0  0  0  0  0  0  0  0
   48.8087   55.4265   24.3313 S   0  0  0  0  0  0  0  0  0  0  0  0
   48.6010   55.9373   22.6088 C   0  0  0  0  0  0  0  0  0  0  0  0
   47.8026   54.9529   21.7475 C   0  0  1  0  0  0  0  0  0  0  0  0
   47.5563   55.4343   20.4213 O   0  0  0  0  0  0  0  0  0  0  0  0
   48.5404   53.6287   21.6136 C   0  0  1  0  0  0  0  0  0  0  0  0
   48.1429   52.7151   22.6120 O   0  0  0  0  0  0  0  0  0  0  0  0
   48.2194   53.1537   20.2025 C   0  0  1  0  0  0  0  0  0  0  0  0
   47.0742   52.3256   20.1788 O   0  0  0  0  0  0  0  0  0  0  0  0
   47.8786   54.4352   19.4677 C   0  0  2  0  0  0  0  0  0  0  0  0
   50.5535   51.4283   23.4810 O   0  0  0  0  0  0  0  0  0  0  0  0
   51.7045   52.9668   16.1777 N   0  0  0  0  0  0  0  0  0  0  0  0
   50.8312   52.1701   16.8741 C   0  0  0  0  0  0  0  0  0  0  0  0
   49.8973   52.7422   17.7123 N   0  0  0  0  0  0  0  0  0  0  0  0
   49.7999   54.0777   17.8361 C   0  0  0  0  0  0  0  0  0  0  0  0
   50.6706   54.8994   17.1406 C   0  0  0  0  0  0  0  0  0  0  0  0
   51.6208   54.3296   16.3167 C   0  0  0  0  0  0  0  0  0  0  0  0
   52.4524   55.0936   15.6353 N   0  0  0  0  0  0  0  0  0  0  0  0
   50.3696   56.1837   17.4356 N   0  0  0  0  0  0  0  0  0  0  0  0
   49.3428   56.1856   18.3227 C   0  0  0  0  0  0  0  0  0  0  0  0
   48.9765   54.8825   18.5795 N   0  0  0  0  0  0  0  0  0  0  0  0
  2  1  1  6  0  0  0
  2  3  1  0  0  0  0
  2  5  1  0  0  0  0
  3  4  1  0  0  0  0
  3 16  1  0  0  0  0
  5  6  1  0  0  0  0
  6  7  1  0  0  0  0
  7  8  1  0  0  0  0
  9  8  1  1  0  0  0
  9 10  1  0  0  0  0
  9 11  1  0  0  0  0
 10 15  1  0  0  0  0
 11 12  1  1  0  0  0
 11 13  1  0  0  0  0
 13 14  1  1  0  0  0
 13 15  1  0  0  0  0
 15 26  1  1  0  0  0
 17 18  2  0  0  0  0
 17 22  1  0  0  0  0
 18 19  1  0  0  0  0
 19 20  2  0  0  0  0
 20 21  1  0  0  0  0
 20 26  1  0  0  0  0
 21 22  2  0  0  0  0
 21 24  1  0  0  0  0
 22 23  1  0  0  0  0
 24 25  2  0  0  0  0
 25 26  1  0  0  0  0
M  END
>  <CHROM.1>
125.29781556,51.21378600,153.94799352,-177.94530612,93.24315806,174.99395610
159.11183274,49.80184726,53.88405647,20.91813278,-1.60148405,0.62038728,-1.39667414

>  <Name>
ligand

>  <RI>
0

>  <Rbt.Current_Directory>
/home/itssahil/PROJECTS/Mol_Feturizer/New_Systems/rnas/3GX3

>  <Rbt.Executable>
rbdock ($Id: //depot/dev/client3/rdock/2013.1/src/exe/rbdock.cxx#4 $)

>  <Rbt.Library>
libRbt.so (2013.1, Build901 2013/11/27)

>  <Rbt.Parameter_File>
/export/apps/rDock/src/rDock_2013.1_src/data/scripts/dock_solv.prm

>  <Rbt.Receptor>
prm/blind_docking_80.prm

>  <SCORE>
-15.2416

>  <SCORE.INTER>
-13.297

>  <SCORE.INTER.CONST>
1

>  <SCORE.INTER.POLAR>
0

>  <SCORE.INTER.ROT>
7

>  <SCORE.INTER.SOLV>
9.84487

>  <SCORE.INTER.VDW>
-20.4129

>  <SCORE.INTER.norm>
-0.511421

>  <SCORE.INTRA>
-1.95525

>  <SCORE.INTRA.DIHEDRAL>
0.98871

>  <SCORE.INTRA.DIHEDRAL.0>
5.78979

>  <SCORE.INTRA.POLAR>
0

>  <SCORE.INTRA.POLAR.0>
0

>  <SCORE.INTRA.REPUL>
0

>  <SCORE.INTRA.REPUL.0>
0

>  <SCORE.INTRA.SOLV>
0.115722

>  <SCORE.INTRA.SOLV.lig_0>
-49.9151

>  <SCORE.INTRA.VDW>
-2.50746

>  <SCORE.INTRA.VDW.0>
-0.211125

>  <SCORE.INTRA.norm>
-0.0752018

>  <SCORE.RESTR>
0.0106079

>  <SCORE.RESTR.CAVITY>
0.0106079

>  <SCORE.RESTR.norm>
0.000407996

>  <SCORE.SYSTEM>
0

>  <SCORE.SYSTEM.CONST>
0

>  <SCORE.SYSTEM.DIHEDRAL>
0

>  <SCORE.SYSTEM.SOLV>
0

>  <SCORE.SYSTEM.norm>
0

>  <SCORE.heavy>
26

>  <SCORE.norm>
-0.586215

>  <RMSD>
12.695

$$$$
ligand
 OpenBabel11021811483D
libRbt.so/2013.1/901 2013/11/27
 26 28  0  0  0  0  0  0  0  0999 V2000
   52.7728   55.5164   14.7573 N   0  0  0  0  0  0  0  0  0  0  0  0
   52.3812   56.8142   15.3141 C   0  0  2  0  0  0  0  0  0  0  0  0
   53.0261   58.0155   14.6193 C   0  0  0  0  0  0  0  0  0  0  0  0
   54.1901   57.9072   14.2328 O   0  0  0  0  0  0  0  0  0  0  0  0
   52.6410   56.9781   16.8172 C   0  0  0  0  0  0  0  0  0  0  0  0
   51.9803   56.0612   17.8317 C   0  0  0  0  0  0  0  0  0  0  0  0
   50.2126   56.4371   17.7892 S   0  0  0  0  0  0  0  0  0  0  0  0
   49.9975   55.0745   18.9589 C   0  0  0  0  0  0  0  0  0  0  0  0
   48.5724   54.5150   19.0253 C   0  0  1  0  0  0  0  0  0  0  0  0
   48.4950   53.2437   19.6801 O   0  0  0  0  0  0  0  0  0  0  0  0
   47.6525   55.4642   19.7795 C   0  0  1  0  0  0  0  0  0  0  0  0
   47.0088   56.3620   18.9025 O   0  0  0  0  0  0  0  0  0  0  0  0
   46.6850   54.5503   20.5201 C   0  0  1  0  0  0  0  0  0  0  0  0
   45.5215   54.2960   19.7590 O   0  0  0  0  0  0  0  0  0  0  0  0
   47.4520   53.2482   20.6412 C   0  0  2  0  0  0  0  0  0  0  0  0
   52.4258   59.0786   14.4182 O   0  0  0  0  0  0  0  0  0  0  0  0
   51.6734   52.0745   23.5428 N   0  0  0  0  0  0  0  0  0  0  0  0
   51.5813   52.1690   22.1771 C   0  0  0  0  0  0  0  0  0  0  0  0
   50.3715   52.4729   21.5889 N   0  0  0  0  0  0  0  0  0  0  0  0
   49.2781   52.7156   22.3333 C   0  0  0  0  0  0  0  0  0  0  0  0
   49.3504   52.6270   23.7130 C   0  0  0  0  0  0  0  0  0  0  0  0
   50.5549   52.3022   24.3047 C   0  0  0  0  0  0  0  0  0  0  0  0
   50.6496   52.2244   25.6179 N   0  0  0  0  0  0  0  0  0  0  0  0
   48.1305   52.9109   24.2214 N   0  0  0  0  0  0  0  0  0  0  0  0
   47.2857   53.1516   23.1871 C   0  0  0  0  0  0  0  0  0  0  0  0
   47.9862   53.0358   22.0065 N   0  0  0  0  0  0  0  0  0  0  0  0
  2  1  1  6  0  0  0
  2  3  1  0  0  0  0
  2  5  1  0  0  0  0
  3  4  1  0  0  0  0
  3 16  1  0  0  0  0
  5  6  1  0  0  0  0
  6  7  1  0  0  0  0
  7  8  1  0  0  0  0
  9  8  1  1  0  0  0
  9 10  1  0  0  0  0
  9 11  1  0  0  0  0
 10 15  1  0  0  0  0
 11 12  1  6  0  0  0
 11 13  1  0  0  0  0
 13 14  1  6  0  0  0
 13 15  1  0  0  0  0
 15 26  1  1  0  0  0
 17 18  2  0  0  0  0
 17 22  1  0  0  0  0
 18 19  1  0  0  0  0
 19 20  2  0  0  0  0
 20 21  1  0  0  0  0
 20 26  1  0  0  0  0
 21 22  2  0  0  0  0
 21 24  1  0  0  0  0
 22 23  1  0  0  0  0
 24 25  2  0  0  0  0
 25 26  1  0  0  0  0
M  END
>  <CHROM.1>
-36.87114592,-60.51358886,-67.58015903,175.54913891,-160.22435706,164.90884361
-7.35492800,49.93206445,54.74828014,19.62272778,-1.19874066,-0.04953407,2.13054484

>  <Name>
ligand

>  <RI>
0

>  <Rbt.Current_Directory>
/home/itssahil/PROJECTS/Mol_Feturizer/New_Systems/rnas/3GX3

>  <Rbt.Executable>
rbdock ($Id: //depot/dev/client3/rdock/2013.1/src/exe/rbdock.cxx#4 $)

>  <Rbt.Library>
libRbt.so (2013.1, Build901 2013/11/27)

>  <Rbt.Parameter_File>
/export/apps/rDock/src/rDock_2013.1_src/data/scripts/dock_solv.prm

>  <Rbt.Receptor>
prm/blind_docking_100.prm

>  <SCORE>
-13.3554

>  <SCORE.INTER>
-10.173

>  <SCORE.INTER.CONST>
1

>  <SCORE.INTER.POLAR>
0

>  <SCORE.INTER.ROT>
7

>  <SCORE.INTER.SOLV>
10.5208

>  <SCORE.INTER.VDW>
-18.5556

>  <SCORE.INTER.norm>
-0.391268

>  <SCORE.INTRA>
-3.18247

>  <SCORE.INTRA.DIHEDRAL>
-1.30884

>  <SCORE.INTRA.DIHEDRAL.0>
5.78979

>  <SCORE.INTRA.POLAR>
0

>  <SCORE.INTRA.POLAR.0>
0

>  <SCORE.INTRA.REPUL>
0

>  <SCORE.INTRA.REPUL.0>
0

>  <SCORE.INTRA.SOLV>
0.126547

>  <SCORE.INTRA.SOLV.lig_0>
-49.9151

>  <SCORE.INTRA.VDW>
-2.59132

>  <SCORE.INTRA.VDW.0>
-0.211125

>  <SCORE.INTRA.norm>
-0.122403

>  <SCORE.RESTR>
0

>  <SCORE.RESTR.CAVITY>
0

>  <SCORE.RESTR.norm>
0

>  <SCORE.SYSTEM>
0

>  <SCORE.SYSTEM.CONST>
0

>  <SCORE.SYSTEM.DIHEDRAL>
0

>  <SCORE.SYSTEM.SOLV>
0

>  <SCORE.SYSTEM.norm>
0

>  <SCORE.heavy>
26

>  <SCORE.norm>
-0.51367

>  <RMSD>
12.850

$$$$
ligand
 OpenBabel11021811483D
libRbt.so/2013.1/901 2013/11/27
 26 28  0  0  0  0  0  0  0  0999 V2000
   49.3224   54.6586   18.7588 N   0  0  0  0  0  0  0  0  0  0  0  0
   50.4178   54.2766   17.8632 C   0  0  2  0  0  0  0  0  0  0  0  0
   49.9865   53.4085   16.6791 C   0  0  0  0  0  0  0  0  0  0  0  0
   49.9878   53.9147   15.5567 O   0  0  0  0  0  0  0  0  0  0  0  0
   51.5864   53.5517   18.5434 C   0  0  0  0  0  0  0  0  0  0  0  0
   52.3825   54.2164   19.6529 C   0  0  0  0  0  0  0  0  0  0  0  0
   53.6205   53.0131   20.1886 S   0  0  0  0  0  0  0  0  0  0  0  0
   53.3510   53.6337   21.8660 C   0  0  0  0  0  0  0  0  0  0  0  0
   52.0689   53.1235   22.5324 C   0  0  1  0  0  0  0  0  0  0  0  0
   51.8318   51.7292   22.3067 O   0  0  0  0  0  0  0  0  0  0  0  0
   52.1223   53.3308   24.0391 C   0  0  1  0  0  0  0  0  0  0  0  0
   51.5459   54.5636   24.4095 O   0  0  0  0  0  0  0  0  0  0  0  0
   51.3887   52.1271   24.6163 C   0  0  1  0  0  0  0  0  0  0  0  0
   50.0125   52.3928   24.7977 O   0  0  0  0  0  0  0  0  0  0  0  0
   51.5179   51.0798   23.5278 C   0  0  2  0  0  0  0  0  0  0  0  0
   49.6529   52.2232   16.8001 O   0  0  0  0  0  0  0  0  0  0  0  0
   54.9426   47.5663   21.6449 N   0  0  0  0  0  0  0  0  0  0  0  0
   54.1048   48.3960   20.9432 C   0  0  0  0  0  0  0  0  0  0  0  0
   53.2548   49.2463   21.6188 N   0  0  0  0  0  0  0  0  0  0  0  0
   53.2543   49.3059   22.9623 C   0  0  0  0  0  0  0  0  0  0  0  0
   54.0933   48.4783   23.6889 C   0  0  0  0  0  0  0  0  0  0  0  0
   54.9307   47.6105   23.0165 C   0  0  0  0  0  0  0  0  0  0  0  0
   55.7470   46.8219   23.6883 N   0  0  0  0  0  0  0  0  0  0  0  0
   53.9018   48.7278   25.0035 N   0  0  0  0  0  0  0  0  0  0  0  0
   52.9405   49.6785   25.1190 C   0  0  0  0  0  0  0  0  0  0  0  0
   52.5298   50.0491   23.8572 N   0  0  0  0  0  0  0  0  0  0  0  0
  2  1  1  1  0  0  0
  2  3  1  0  0  0  0
  2  5  1  0  0  0  0
  3  4  1  0  0  0  0
  3 16  1  0  0  0  0
  5  6  1  0  0  0  0
  6  7  1  0  0  0  0
  7  8  1  0  0  0  0
  9  8  1  6  0  0  0
  9 10  1  0  0  0  0
  9 11  1  0  0  0  0
 10 15  1  0  0  0  0
 11 12  1  6  0  0  0
 11 13  1  0  0  0  0
 13 14  1  6  0  0  0
 13 15  1  0  0  0  0
 15 26  1  1  0  0  0
 17 18  2  0  0  0  0
 17 22  1  0  0  0  0
 18 19  1  0  0  0  0
 19 20  2  0  0  0  0
 20 21  1  0  0  0  0
 20 26  1  0  0  0  0
 21 22  2  0  0  0  0
 21 24  1  0  0  0  0
 22 23  1  0  0  0  0
 24 25  2  0  0  0  0
 25 26  1  0  0  0  0
M  END
>  <CHROM.1>
108.65397382,-60.16509280,178.70107393,-143.08460496,77.32354460,42.33027099
-31.04562762,52.32570238,51.58952835,21.56060110,2.43130881,1.02470523,-1.65765359

>  <Name>
ligand

>  <RI>
0

>  <Rbt.Current_Directory>
/home/itssahil/PROJECTS/Mol_Feturizer/New_Systems/rnas/3GX3

>  <Rbt.Executable>
rbdock ($Id: //depot/dev/client3/rdock/2013.1/src/exe/rbdock.cxx#4 $)

>  <Rbt.Library>
libRbt.so (2013.1, Build901 2013/11/27)

>  <Rbt.Parameter_File>
/export/apps/rDock/src/rDock_2013.1_src/data/scripts/dock_solv.prm

>  <Rbt.Receptor>
prm/blind_docking_80.prm

>  <SCORE>
-14.0606

>  <SCORE.INTER>
-12.0429

>  <SCORE.INTER.CONST>
1

>  <SCORE.INTER.POLAR>
0

>  <SCORE.INTER.ROT>
7

>  <SCORE.INTER.SOLV>
18.433

>  <SCORE.INTER.VDW>
-22.4396

>  <SCORE.INTER.norm>
-0.463189

>  <SCORE.INTRA>
-2.17501

>  <SCORE.INTRA.DIHEDRAL>
0.236487

>  <SCORE.INTRA.DIHEDRAL.0>
5.78979

>  <SCORE.INTRA.POLAR>
0

>  <SCORE.INTRA.POLAR.0>
0

>  <SCORE.INTRA.REPUL>
0

>  <SCORE.INTRA.REPUL.0>
0

>  <SCORE.INTRA.SOLV>
-0.401424

>  <SCORE.INTRA.SOLV.lig_0>
-49.9151

>  <SCORE.INTRA.VDW>
-2.09254

>  <SCORE.INTRA.VDW.0>
-0.211125

>  <SCORE.INTRA.norm>
-0.0836541

>  <SCORE.RESTR>
0.15728

>  <SCORE.RESTR.CAVITY>
0.15728

>  <SCORE.RESTR.norm>
0.00604925

>  <SCORE.SYSTEM>
0

>  <SCORE.SYSTEM.CONST>
0

>  <SCORE.SYSTEM.DIHEDRAL>
0

>  <SCORE.SYSTEM.SOLV>
0

>  <SCORE.SYSTEM.norm>
0

>  <SCORE.heavy>
26

>  <SCORE.norm>
-0.540793

>  <RMSD>
12.863

$$$$
ligand
 OpenBabel11021811483D
libRbt.so/2013.1/901 2013/11/27
 26 28  0  0  0  0  0  0  0  0999 V2000
   52.4843   56.5593   16.4864 N   0  0  0  0  0  0  0  0  0  0  0  0
   52.4112   55.1008   16.3627 C   0  0  2  0  0  0  0  0  0  0  0  0
   53.2668   54.5232   15.2331 C   0  0  0  0  0  0  0  0  0  0  0  0
   54.2331   55.1789   14.8427 O   0  0  0  0  0  0  0  0  0  0  0  0
   50.9959   54.5373   16.1808 C   0  0  0  0  0  0  0  0  0  0  0  0
   49.9006   54.8271   17.1922 C   0  0  0  0  0  0  0  0  0  0  0  0
   50.4735   54.1649   18.7737 S   0  0  0  0  0  0  0  0  0  0  0  0
   48.8215   54.5329   19.4114 C   0  0  0  0  0  0  0  0  0  0  0  0
   48.6118   54.1581   20.8824 C   0  0  1  0  0  0  0  0  0  0  0  0
   48.9634   52.8010   21.1748 O   0  0  0  0  0  0  0  0  0  0  0  0
   49.4507   55.0442   21.7918 C   0  0  1  0  0  0  0  0  0  0  0  0
   48.7254   56.1758   22.2193 O   0  0  0  0  0  0  0  0  0  0  0  0
   49.8676   54.1302   22.9368 C   0  0  1  0  0  0  0  0  0  0  0  0
   48.9492   54.1861   24.0097 O   0  0  0  0  0  0  0  0  0  0  0  0
   49.7851   52.7436   22.3294 C   0  0  2  0  0  0  0  0  0  0  0  0
   53.0380   53.4257   14.7095 O   0  0  0  0  0  0  0  0  0  0  0  0
   53.6431   49.4940   23.8037 N   0  0  0  0  0  0  0  0  0  0  0  0
   52.4605   49.7557   24.4483 C   0  0  0  0  0  0  0  0  0  0  0  0
   51.5708   50.6624   23.9114 N   0  0  0  0  0  0  0  0  0  0  0  0
   51.8234   51.2748   22.7411 C   0  0  0  0  0  0  0  0  0  0  0  0
   53.0102   51.0232   22.0740 C   0  0  0  0  0  0  0  0  0  0  0  0
   53.9130   50.1320   22.6190 C   0  0  0  0  0  0  0  0  0  0  0  0
   55.0443   49.8679   21.9944 N   0  0  0  0  0  0  0  0  0  0  0  0
   53.0226   51.7559   20.9381 N   0  0  0  0  0  0  0  0  0  0  0  0
   51.8778   52.4829   20.8901 C   0  0  0  0  0  0  0  0  0  0  0  0
   51.1211   52.1923   22.0042 N   0  0  0  0  0  0  0  0  0  0  0  0
  2  1  1  6  0  0  0
  2  3  1  0  0  0  0
  2  5  1  0  0  0  0
  3  4  1  0  0  0  0
  3 16  1  0  0  0  0
  5  6  1  0  0  0  0
  6  7  1  0  0  0  0
  7  8  1  0  0  0  0
  9  8  1  6  0  0  0
  9 10  1  0  0  0  0
  9 11  1  0  0  0  0
 10 15  1  0  0  0  0
 11 12  1  1  0  0  0
 11 13  1  0  0  0  0
 13 14  1  1  0  0  0
 13 15  1  0  0  0  0
 15 26  1  6  0  0  0
 17 18  2  0  0  0  0
 17 22  1  0  0  0  0
 18 19  1  0  0  0  0
 19 20  2  0  0  0  0
 20 21  1  0  0  0  0
 20 26  1  0  0  0  0
 21 22  2  0  0  0  0
 21 24  1  0  0  0  0
 22 23  1  0  0  0  0
 24 25  2  0  0  0  0
 25 26  1  0  0  0  0
M  END
>  <CHROM.1>
23.79237001,-56.57961909,-60.18339362,-172.06575790,179.65385416,-52.60940367
-136.92467765,51.35432705,53.22468920,20.24228968,1.51132116,0.62653130,-1.07728496

>  <Name>
ligand

>  <RI>
0

>  <Rbt.Current_Directory>
/home/itssahil/PROJECTS/Mol_Feturizer/New_Systems/rnas/3GX3

>  <Rbt.Executable>
rbdock ($Id: //depot/dev/client3/rdock/2013.1/src/exe/rbdock.cxx#4 $)

>  <Rbt.Library>
libRbt.so (2013.1, Build901 2013/11/27)

>  <Rbt.Parameter_File>
/export/apps/rDock/src/rDock_2013.1_src/data/scripts/dock_solv.prm

>  <Rbt.Receptor>
prm/blind_docking_100.prm

>  <SCORE>
-17.6777

>  <SCORE.INTER>
-14.5476

>  <SCORE.INTER.CONST>
1

>  <SCORE.INTER.POLAR>
0

>  <SCORE.INTER.ROT>
7

>  <SCORE.INTER.SOLV>
10.5169

>  <SCORE.INTER.VDW>
-21.4707

>  <SCORE.INTER.norm>
-0.559524

>  <SCORE.INTRA>
-3.13011

>  <SCORE.INTRA.DIHEDRAL>
-2.63538

>  <SCORE.INTRA.DIHEDRAL.0>
5.78979

>  <SCORE.INTRA.POLAR>
0

>  <SCORE.INTRA.POLAR.0>
0

>  <SCORE.INTRA.REPUL>
0

>  <SCORE.INTRA.REPUL.0>
0

>  <SCORE.INTRA.SOLV>
0.387177

>  <SCORE.INTRA.SOLV.lig_0>
-49.9151

>  <SCORE.INTRA.VDW>
-2.006

>  <SCORE.INTRA.VDW.0>
-0.211125

>  <SCORE.INTRA.norm>
-0.120389

>  <SCORE.RESTR>
0

>  <SCORE.RESTR.CAVITY>
0

>  <SCORE.RESTR.norm>
0

>  <SCORE.SYSTEM>
0

>  <SCORE.SYSTEM.CONST>
0

>  <SCORE.SYSTEM.DIHEDRAL>
0

>  <SCORE.SYSTEM.SOLV>
0

>  <SCORE.SYSTEM.norm>
0

>  <SCORE.heavy>
26

>  <SCORE.norm>
-0.679912

>  <RMSD>
12.970

$$$$
ligand
 OpenBabel11021811483D
libRbt.so/2013.1/901 2013/11/27
 26 28  0  0  0  0  0  0  0  0999 V2000
   49.1035   54.2179   23.7508 N   0  0  0  0  0  0  0  0  0  0  0  0
   47.7808   53.6315   23.5177 C   0  0  2  0  0  0  0  0  0  0  0  0
   47.5212   52.3395   24.2955 C   0  0  0  0  0  0  0  0  0  0  0  0
   46.3573   52.0575   24.5816 O   0  0  0  0  0  0  0  0  0  0  0  0
   47.4531   53.3388   22.0478 C   0  0  0  0  0  0  0  0  0  0  0  0
   47.2898   54.4646   21.0415 C   0  0  0  0  0  0  0  0  0  0  0  0
   48.9375   55.1587   20.7755 S   0  0  0  0  0  0  0  0  0  0  0  0
   49.1425   53.9137   19.4796 C   0  0  0  0  0  0  0  0  0  0  0  0
   50.3159   54.1751   18.5293 C   0  0  1  0  0  0  0  0  0  0  0  0
   51.5545   54.4032   19.2112 O   0  0  0  0  0  0  0  0  0  0  0  0
   50.5299   52.9930   17.5951 C   0  0  1  0  0  0  0  0  0  0  0  0
   49.8196   53.1564   16.3876 O   0  0  0  0  0  0  0  0  0  0  0  0
   52.0392   52.9286   17.4003 C   0  0  1  0  0  0  0  0  0  0  0  0
   52.4522   53.6772   16.2748 O   0  0  0  0  0  0  0  0  0  0  0  0
   52.5843   53.6147   18.6374 C   0  0  2  0  0  0  0  0  0  0  0  0
   48.4246   51.5647   24.6337 O   0  0  0  0  0  0  0  0  0  0  0  0
   51.7350   51.0174   23.1263 N   0  0  0  0  0  0  0  0  0  0  0  0
   50.9101   51.9136   22.4947 C   0  0  0  0  0  0  0  0  0  0  0  0
   51.3169   52.5139   21.3216 N   0  0  0  0  0  0  0  0  0  0  0  0
   52.5003   52.2107   20.7594 C   0  0  0  0  0  0  0  0  0  0  0  0
   53.3465   51.3075   21.3800 C   0  0  0  0  0  0  0  0  0  0  0  0
   52.9519   50.7203   22.5656 C   0  0  0  0  0  0  0  0  0  0  0  0
   53.7368   49.8479   23.1676 N   0  0  0  0  0  0  0  0  0  0  0  0
   54.4595   51.1794   20.6236 N   0  0  0  0  0  0  0  0  0  0  0  0
   54.3410   52.0034   19.5520 C   0  0  0  0  0  0  0  0  0  0  0  0
   53.1264   52.6499   19.6221 N   0  0  0  0  0  0  0  0  0  0  0  0
  2  1  1  6  0  0  0
  2  3  1  0  0  0  0
  2  5  1  0  0  0  0
  3  4  1  0  0  0  0
  3 16  1  0  0  0  0
  5  6  1  0  0  0  0
  6  7  1  0  0  0  0
  7  8  1  0  0  0  0
  9  8  1  1  0  0  0
  9 10  1  0  0  0  0
  9 11  1  0  0  0  0
 10 15  1  0  0  0  0
 11 12  1  6  0  0  0
 11 13  1  0  0  0  0
 13 14  1  6  0  0  0
 13 15  1  0  0  0  0
 15 26  1  1  0  0  0
 17 18  2  0  0  0  0
 17 22  1  0  0  0  0
 18 19  1  0  0  0  0
 19 20  2  0  0  0  0
 20 21  1  0  0  0  0
 20 26  1  0  0  0  0
 21 22  2  0  0  0  0
 21 24  1  0  0  0  0
 22 23  1  0  0  0  0
 24 25  2  0  0  0  0
 25 26  1  0  0  0  0
M  END
>  <CHROM.1>
152.66819223,-66.33022776,70.53034904,88.08812993,164.92722508,51.94222977
20.87013570,50.60738047,52.87570748,20.84565082,2.37975868,-0.43360553,1.98601896

>  <Name>
ligand

>  <RI>
0

>  <Rbt.Current_Directory>
/home/itssahil/PROJECTS/Mol_Feturizer/New_Systems/rnas/3GX3

>  <Rbt.Executable>
rbdock ($Id: //depot/dev/client3/rdock/2013.1/src/exe/rbdock.cxx#4 $)

>  <Rbt.Library>
libRbt.so (2013.1, Build901 2013/11/27)

>  <Rbt.Parameter_File>
/export/apps/rDock/src/rDock_2013.1_src/data/scripts/dock_solv.prm

>  <Rbt.Receptor>
prm/blind_docking_80.prm

>  <SCORE>
-18.5581

>  <SCORE.INTER>
-15.2643

>  <SCORE.INTER.CONST>
1

>  <SCORE.INTER.POLAR>
0

>  <SCORE.INTER.ROT>
7

>  <SCORE.INTER.SOLV>
8.5637

>  <SCORE.INTER.VDW>
-21.2974

>  <SCORE.INTER.norm>
-0.587087

>  <SCORE.INTRA>
-3.29387

>  <SCORE.INTRA.DIHEDRAL>
-0.79617

>  <SCORE.INTRA.DIHEDRAL.0>
5.78979

>  <SCORE.INTRA.POLAR>
0

>  <SCORE.INTRA.POLAR.0>
0

>  <SCORE.INTRA.REPUL>
0

>  <SCORE.INTRA.REPUL.0>
0

>  <SCORE.INTRA.SOLV>
1.61015

>  <SCORE.INTRA.SOLV.lig_0>
-49.9151

>  <SCORE.INTRA.VDW>
-3.70086

>  <SCORE.INTRA.VDW.0>
-0.211125

>  <SCORE.INTRA.norm>
-0.126687

>  <SCORE.RESTR>
0

>  <SCORE.RESTR.CAVITY>
0

>  <SCORE.RESTR.norm>
0

>  <SCORE.SYSTEM>
0

>  <SCORE.SYSTEM.CONST>
0

>  <SCORE.SYSTEM.DIHEDRAL>
0

>  <SCORE.SYSTEM.SOLV>
0

>  <SCORE.SYSTEM.norm>
0

>  <SCORE.heavy>
26

>  <SCORE.norm>
-0.713775

>  <RMSD>
13.025

$$$$
ligand
 OpenBabel11021811483D
libRbt.so/2013.1/901 2013/11/27
 26 28  0  0  0  0  0  0  0  0999 V2000
   53.6010   56.9723   15.5045 N   0  0  0  0  0  0  0  0  0  0  0  0
   53.6169   55.5728   15.0696 C   0  0  2  0  0  0  0  0  0  0  0  0
   53.8727   55.3838   13.5727 C   0  0  0  0  0  0  0  0  0  0  0  0
   53.5443   56.2913   12.8081 O   0  0  0  0  0  0  0  0  0  0  0  0
   52.3504   54.7759   15.4081 C   0  0  0  0  0  0  0  0  0  0  0  0
   51.8437   54.6785   16.8366 C   0  0  0  0  0  0  0  0  0  0  0  0
   50.1963   53.9396   16.7479 S   0  0  0  0  0  0  0  0  0  0  0  0
   49.7902   54.9150   18.2159 C   0  0  0  0  0  0  0  0  0  0  0  0
   48.6972   54.3048   19.0999 C   0  0  1  0  0  0  0  0  0  0  0  0
   49.0210   52.9924   19.5729 O   0  0  0  0  0  0  0  0  0  0  0  0
   48.4438   55.1724   20.3243 C   0  0  1  0  0  0  0  0  0  0  0  0
   47.4093   56.1023   20.0907 O   0  0  0  0  0  0  0  0  0  0  0  0
   48.1211   54.1810   21.4346 C   0  0  1  0  0  0  0  0  0  0  0  0
   46.7321   53.9369   21.5284 O   0  0  0  0  0  0  0  0  0  0  0  0
   48.7852   52.9004   20.9684 C   0  0  2  0  0  0  0  0  0  0  0  0
   54.4053   54.3701   13.1038 O   0  0  0  0  0  0  0  0  0  0  0  0
   50.9342   51.3286   25.4993 N   0  0  0  0  0  0  0  0  0  0  0  0
   49.6044   51.4824   25.1985 C   0  0  0  0  0  0  0  0  0  0  0  0
   49.2292   51.9271   23.9481 N   0  0  0  0  0  0  0  0  0  0  0  0
   50.1453   52.1819   22.9970 C   0  0  0  0  0  0  0  0  0  0  0  0
   51.4922   52.0313   23.2799 C   0  0  0  0  0  0  0  0  0  0  0  0
   51.8727   51.6065   24.5373 C   0  0  0  0  0  0  0  0  0  0  0  0
   53.1497   51.4443   24.8247 N   0  0  0  0  0  0  0  0  0  0  0  0
   52.1971   52.3484   22.1709 N   0  0  0  0  0  0  0  0  0  0  0  0
   51.3211   52.7199   21.2035 C   0  0  0  0  0  0  0  0  0  0  0  0
   50.0408   52.6193   21.7024 N   0  0  0  0  0  0  0  0  0  0  0  0
  2  1  1  6  0  0  0
  2  3  1  0  0  0  0
  2  5  1  0  0  0  0
  3  4  1  0  0  0  0
  3 16  1  0  0  0  0
  5  6  1  0  0  0  0
  6  7  1  0  0  0  0
  7  8  1  0  0  0  0
  9  8  1  1  0  0  0
  9 10  1  0  0  0  0
  9 11  1  0  0  0  0
 10 15  1  0  0  0  0
 11 12  1  6  0  0  0
 11 13  1  0  0  0  0
 13 14  1  6  0  0  0
 13 15  1  0  0  0  0
 15 26  1  1  0  0  0
 17 18  2  0  0  0  0
 17 22  1  0  0  0  0
 18 19  1  0  0  0  0
 19 20  2  0  0  0  0
 20 21  1  0  0  0  0
 20 26  1  0  0  0  0
 21 22  2  0  0  0  0
 21 24  1  0  0  0  0
 22 23  1  0  0  0  0
 24 25  2  0  0  0  0
 25 26  1  0  0  0  0
M  END
>  <CHROM.1>
-27.09732514,-55.56497267,169.40642184,-148.87769045,-152.65228096,58.28018437
-164.64494558,50.73945373,53.76506503,19.56298841,-1.27554993,-0.26060609
1.98193326

>  <Name>
ligand

>  <RI>
0

>  <Rbt.Current_Directory>
/home/itssahil/PROJECTS/Mol_Feturizer/New_Systems/rnas/3GX3

>  <Rbt.Executable>
rbdock ($Id: //depot/dev/client3/rdock/2013.1/src/exe/rbdock.cxx#4 $)

>  <Rbt.Library>
libRbt.so (2013.1, Build901 2013/11/27)

>  <Rbt.Parameter_File>
/export/apps/rDock/src/rDock_2013.1_src/data/scripts/dock_solv.prm

>  <Rbt.Receptor>
prm/blind_docking_80.prm

>  <SCORE>
-11.2948

>  <SCORE.INTER>
-8.64561

>  <SCORE.INTER.CONST>
1

>  <SCORE.INTER.POLAR>
0

>  <SCORE.INTER.ROT>
7

>  <SCORE.INTER.SOLV>
10.366

>  <SCORE.INTER.VDW>
-17.4858

>  <SCORE.INTER.norm>
-0.332524

>  <SCORE.INTRA>
-2.66061

>  <SCORE.INTRA.DIHEDRAL>
-0.127256

>  <SCORE.INTRA.DIHEDRAL.0>
5.78979

>  <SCORE.INTRA.POLAR>
0

>  <SCORE.INTRA.POLAR.0>
0

>  <SCORE.INTRA.REPUL>
0

>  <SCORE.INTRA.REPUL.0>
0

>  <SCORE.INTRA.SOLV>
-0.495386

>  <SCORE.INTRA.SOLV.lig_0>
-49.9151

>  <SCORE.INTRA.VDW>
-2.34929

>  <SCORE.INTRA.VDW.0>
-0.211125

>  <SCORE.INTRA.norm>
-0.102331

>  <SCORE.RESTR>
0.0113728

>  <SCORE.RESTR.CAVITY>
0.0113728

>  <SCORE.RESTR.norm>
0.000437417

>  <SCORE.SYSTEM>
0

>  <SCORE.SYSTEM.CONST>
0

>  <SCORE.SYSTEM.DIHEDRAL>
0

>  <SCORE.SYSTEM.SOLV>
0

>  <SCORE.SYSTEM.norm>
0

>  <SCORE.heavy>
26

>  <SCORE.norm>
-0.434417

>  <RMSD>
13.110

$$$$
ligand
 OpenBabel11021811483D
libRbt.so/2013.1/901 2013/11/27
 26 28  0  0  0  0  0  0  0  0999 V2000
   47.9074   53.6878   21.1448 N   0  0  0  0  0  0  0  0  0  0  0  0
   48.9880   53.6092   22.1317 C   0  0  2  0  0  0  0  0  0  0  0  0
   48.6405   52.7938   23.3791 C   0  0  0  0  0  0  0  0  0  0  0  0
   49.5150   52.0774   23.8672 O   0  0  0  0  0  0  0  0  0  0  0  0
   49.5180   54.9637   22.6197 C   0  0  0  0  0  0  0  0  0  0  0  0
   50.7945   55.0578   23.4372 C   0  0  0  0  0  0  0  0  0  0  0  0
   52.1527   54.6444   22.3182 S   0  0  0  0  0  0  0  0  0  0  0  0
   52.1760   53.0183   23.1099 C   0  0  0  0  0  0  0  0  0  0  0  0
   53.0968   51.9971   22.4334 C   0  0  1  0  0  0  0  0  0  0  0  0
   52.7590   51.7530   21.0633 O   0  0  0  0  0  0  0  0  0  0  0  0
   54.5430   52.4703   22.4609 C   0  0  1  0  0  0  0  0  0  0  0  0
   55.2227   51.9818   23.5961 O   0  0  0  0  0  0  0  0  0  0  0  0
   55.1325   51.9728   21.1474 C   0  0  1  0  0  0  0  0  0  0  0  0
   55.7235   50.6970   21.2911 O   0  0  0  0  0  0  0  0  0  0  0  0
   53.9194   51.8221   20.2507 C   0  0  2  0  0  0  0  0  0  0  0  0
   47.5295   52.8353   23.9223 O   0  0  0  0  0  0  0  0  0  0  0  0
   51.5886   53.5305   15.8614 N   0  0  0  0  0  0  0  0  0  0  0  0
   51.4033   52.3367   16.5118 C   0  0  0  0  0  0  0  0  0  0  0  0
   52.1265   52.0554   17.6519 N   0  0  0  0  0  0  0  0  0  0  0  0
   52.9913   52.9484   18.1647 C   0  0  0  0  0  0  0  0  0  0  0  0
   53.1915   54.1596   17.5245 C   0  0  0  0  0  0  0  0  0  0  0  0
   52.4849   54.4363   16.3710 C   0  0  0  0  0  0  0  0  0  0  0  0
   52.6507   55.5888   15.7516 N   0  0  0  0  0  0  0  0  0  0  0  0
   54.1002   54.8684   18.2309 N   0  0  0  0  0  0  0  0  0  0  0  0
   54.4946   54.1164   19.2894 C   0  0  0  0  0  0  0  0  0  0  0  0
   53.8116   52.9202   19.2622 N   0  0  0  0  0  0  0  0  0  0  0  0
  2  1  1  6  0  0  0
  2  3  1  0  0  0  0
  2  5  1  0  0  0  0
  3  4  1  0  0  0  0
  3 16  1  0  0  0  0
  5  6  1  0  0  0  0
  6  7  1  0  0  0  0
  7  8  1  0  0  0  0
  9  8  1  6  0  0  0
  9 10  1  0  0  0  0
  9 11  1  0  0  0  0
 10 15  1  0  0  0  0
 11 12  1  1  0  0  0
 11 13  1  0  0  0  0
 13 14  1  1  0  0  0
 13 15  1  0  0  0  0
 15 26  1  6  0  0  0
 17 18  2  0  0  0  0
 17 22  1  0  0  0  0
 18 19  1  0  0  0  0
 19 20  2  0  0  0  0
 20 21  1  0  0  0  0
 20 26  1  0  0  0  0
 21 22  2  0  0  0  0
 21 24  1  0  0  0  0
 22 23  1  0  0  0  0
 24 25  2  0  0  0  0
 25 26  1  0  0  0  0
M  END
>  <CHROM.1>
141.38349730,-168.58007319,69.62019549,-102.45687845,171.98286217,-58.95023166
-71.15001019,52.15625918,53.20472330,20.68673262,2.11973374,-0.27683066,1.78433374

>  <Name>
ligand

>  <RI>
0

>  <Rbt.Current_Directory>
/home/itssahil/PROJECTS/Mol_Feturizer/New_Systems/rnas/3GX3

>  <Rbt.Executable>
rbdock ($Id: //depot/dev/client3/rdock/2013.1/src/exe/rbdock.cxx#4 $)

>  <Rbt.Library>
libRbt.so (2013.1, Build901 2013/11/27)

>  <Rbt.Parameter_File>
/export/apps/rDock/src/rDock_2013.1_src/data/scripts/dock_solv.prm

>  <Rbt.Receptor>
prm/blind_docking_80.prm

>  <SCORE>
-12.9349

>  <SCORE.INTER>
-9.69052

>  <SCORE.INTER.CONST>
1

>  <SCORE.INTER.POLAR>
0

>  <SCORE.INTER.ROT>
7

>  <SCORE.INTER.SOLV>
9.94443

>  <SCORE.INTER.VDW>
-18.0418

>  <SCORE.INTER.norm>
-0.372712

>  <SCORE.INTRA>
-3.24459

>  <SCORE.INTRA.DIHEDRAL>
-0.209626

>  <SCORE.INTRA.DIHEDRAL.0>
5.78979

>  <SCORE.INTRA.POLAR>
0

>  <SCORE.INTRA.POLAR.0>
0

>  <SCORE.INTRA.REPUL>
0

>  <SCORE.INTRA.REPUL.0>
0

>  <SCORE.INTRA.SOLV>
-0.668523

>  <SCORE.INTRA.SOLV.lig_0>
-49.9151

>  <SCORE.INTRA.VDW>
-2.80552

>  <SCORE.INTRA.VDW.0>
-0.211125

>  <SCORE.INTRA.norm>
-0.124792

>  <SCORE.RESTR>
0.000199394

>  <SCORE.RESTR.CAVITY>
0.000199394

>  <SCORE.RESTR.norm>
7.66902e-06

>  <SCORE.SYSTEM>
0

>  <SCORE.SYSTEM.CONST>
0

>  <SCORE.SYSTEM.DIHEDRAL>
0

>  <SCORE.SYSTEM.SOLV>
0

>  <SCORE.SYSTEM.norm>
0

>  <SCORE.heavy>
26

>  <SCORE.norm>
-0.497497

>  <RMSD>
13.172

$$$$
ligand
 OpenBabel11021811483D
libRbt.so/2013.1/901 2013/11/27
 26 28  0  0  0  0  0  0  0  0999 V2000
   44.8829   53.4607   21.9478 N   0  0  0  0  0  0  0  0  0  0  0  0
   45.2512   54.1329   20.6987 C   0  0  2  0  0  0  0  0  0  0  0  0
   44.0607   54.6646   19.8975 C   0  0  0  0  0  0  0  0  0  0  0  0
   43.9657   55.8817   19.7368 O   0  0  0  0  0  0  0  0  0  0  0  0
   46.0944   53.2888   19.7343 C   0  0  0  0  0  0  0  0  0  0  0  0
   47.5880   53.1135   19.9462 C   0  0  0  0  0  0  0  0  0  0  0  0
   48.3389   54.7356   19.6767 S   0  0  0  0  0  0  0  0  0  0  0  0
   49.8889   54.0016   20.2511 C   0  0  0  0  0  0  0  0  0  0  0  0
   51.1224   54.4079   19.4377 C   0  0  1  0  0  0  0  0  0  0  0  0
   52.3265   54.4327   20.2126 O   0  0  0  0  0  0  0  0  0  0  0  0
   51.3521   53.4426   18.2838 C   0  0  1  0  0  0  0  0  0  0  0  0
   50.7177   53.8888   17.1057 O   0  0  0  0  0  0  0  0  0  0  0  0
   52.8673   53.3562   18.1542 C   0  0  1  0  0  0  0  0  0  0  0  0
   53.3675   54.3079   17.2368 O   0  0  0  0  0  0  0  0  0  0  0  0
   53.3621   53.7403   19.5347 C   0  0  2  0  0  0  0  0  0  0  0  0
   43.2038   53.9265   19.3958 O   0  0  0  0  0  0  0  0  0  0  0  0
   52.1654   50.2731   23.2983 N   0  0  0  0  0  0  0  0  0  0  0  0
   51.4051   51.3152   22.8308 C   0  0  0  0  0  0  0  0  0  0  0  0
   51.9002   52.1376   21.8406 N   0  0  0  0  0  0  0  0  0  0  0  0
   53.1087   51.9171   21.2935 C   0  0  0  0  0  0  0  0  0  0  0  0
   53.8908   50.8698   21.7499 C   0  0  0  0  0  0  0  0  0  0  0  0
   53.4074   50.0570   22.7558 C   0  0  0  0  0  0  0  0  0  0  0  0
   54.1303   49.0460   23.1973 N   0  0  0  0  0  0  0  0  0  0  0  0
   55.0457   50.8646   21.0474 N   0  0  0  0  0  0  0  0  0  0  0  0
   55.0161   51.9037   20.1752 C   0  0  0  0  0  0  0  0  0  0  0  0
   53.8163   52.5662   20.3156 N   0  0  0  0  0  0  0  0  0  0  0  0
  2  1  1  1  0  0  0
  2  3  1  0  0  0  0
  2  5  1  0  0  0  0
  3  4  1  0  0  0  0
  3 16  1  0  0  0  0
  5  6  1  0  0  0  0
  6  7  1  0  0  0  0
  7  8  1  0  0  0  0
  9  8  1  1  0  0  0
  9 10  1  0  0  0  0
  9 11  1  0  0  0  0
 10 15  1  0  0  0  0
 11 12  1  6  0  0  0
 11 13  1  0  0  0  0
 13 14  1  6  0  0  0
 13 15  1  0  0  0  0
 15 26  1  1  0  0  0
 17 18  2  0  0  0  0
 17 22  1  0  0  0  0
 18 19  1  0  0  0  0
 19 20  2  0  0  0  0
 20 21  1  0  0  0  0
 20 26  1  0  0  0  0
 21 22  2  0  0  0  0
 21 24  1  0  0  0  0
 22 23  1  0  0  0  0
 24 25  2  0  0  0  0
 25 26  1  0  0  0  0
M  END
>  <CHROM.1>
115.93823328,-79.44006368,-67.18023189,172.80429449,137.89073712,149.68153191
21.38450561,50.27547813,53.06636158,20.27891849,2.85072631,0.17845601,-0.90938799

>  <Name>
ligand

>  <RI>
0

>  <Rbt.Current_Directory>
/home/itssahil/PROJECTS/Mol_Feturizer/New_Systems/rnas/3GX3

>  <Rbt.Executable>
rbdock ($Id: //depot/dev/client3/rdock/2013.1/src/exe/rbdock.cxx#4 $)

>  <Rbt.Library>
libRbt.so (2013.1, Build901 2013/11/27)

>  <Rbt.Parameter_File>
/export/apps/rDock/src/rDock_2013.1_src/data/scripts/dock_solv.prm

>  <Rbt.Receptor>
prm/blind_docking_80.prm

>  <SCORE>
-14.1105

>  <SCORE.INTER>
-12.5503

>  <SCORE.INTER.CONST>
1

>  <SCORE.INTER.POLAR>
0

>  <SCORE.INTER.ROT>
7

>  <SCORE.INTER.SOLV>
14.5281

>  <SCORE.INTER.VDW>
-21.4762

>  <SCORE.INTER.norm>
-0.482704

>  <SCORE.INTRA>
-1.57736

>  <SCORE.INTRA.DIHEDRAL>
3.23877

>  <SCORE.INTRA.DIHEDRAL.0>
5.78979

>  <SCORE.INTRA.POLAR>
0

>  <SCORE.INTRA.POLAR.0>
0

>  <SCORE.INTRA.REPUL>
0

>  <SCORE.INTRA.REPUL.0>
0

>  <SCORE.INTRA.SOLV>
-0.217554

>  <SCORE.INTRA.SOLV.lig_0>
-49.9151

>  <SCORE.INTRA.VDW>
-3.08797

>  <SCORE.INTRA.VDW.0>
-0.211125

>  <SCORE.INTRA.norm>
-0.0606677

>  <SCORE.RESTR>
0.0171314

>  <SCORE.RESTR.CAVITY>
0.0171314

>  <SCORE.RESTR.norm>
0.000658901

>  <SCORE.SYSTEM>
0

>  <SCORE.SYSTEM.CONST>
0

>  <SCORE.SYSTEM.DIHEDRAL>
0

>  <SCORE.SYSTEM.SOLV>
0

>  <SCORE.SYSTEM.norm>
0

>  <SCORE.heavy>
26

>  <SCORE.norm>
-0.542713

>  <RMSD>
13.259

$$$$
ligand
 OpenBabel11021811483D
libRbt.so/2013.1/901 2013/11/27
 26 28  0  0  0  0  0  0  0  0999 V2000
   52.8609   50.1890   23.5927 N   0  0  0  0  0  0  0  0  0  0  0  0
   53.1208   50.3268   22.1570 C   0  0  2  0  0  0  0  0  0  0  0  0
   54.2561   49.4422   21.6370 C   0  0  0  0  0  0  0  0  0  0  0  0
   53.9608   48.4501   20.9703 O   0  0  0  0  0  0  0  0  0  0  0  0
   53.4212   51.7565   21.6884 C   0  0  0  0  0  0  0  0  0  0  0  0
   53.6077   52.0760   20.2154 C   0  0  0  0  0  0  0  0  0  0  0  0
   53.6530   53.8782   20.0824 S   0  0  0  0  0  0  0  0  0  0  0  0
   53.7460   53.6428   18.2915 C   0  0  0  0  0  0  0  0  0  0  0  0
   52.3956   53.7190   17.5712 C   0  0  1  0  0  0  0  0  0  0  0  0
   51.4300   52.7931   18.0825 O   0  0  0  0  0  0  0  0  0  0  0  0
   51.7924   55.1105   17.6970 C   0  0  1  0  0  0  0  0  0  0  0  0
   52.1556   55.9291   16.6073 O   0  0  0  0  0  0  0  0  0  0  0  0
   50.2916   54.8688   17.7928 C   0  0  1  0  0  0  0  0  0  0  0  0
   49.6760   54.9002   16.5209 O   0  0  0  0  0  0  0  0  0  0  0  0
   50.1954   53.4500   18.3182 C   0  0  2  0  0  0  0  0  0  0  0  0
   55.4506   49.6890   21.8450 O   0  0  0  0  0  0  0  0  0  0  0  0
   46.3025   53.5421   21.8473 N   0  0  0  0  0  0  0  0  0  0  0  0
   46.2121   53.6268   20.4808 C   0  0  0  0  0  0  0  0  0  0  0  0
   47.3575   53.6034   19.7132 N   0  0  0  0  0  0  0  0  0  0  0  0
   48.5700   53.4625   20.2776 C   0  0  0  0  0  0  0  0  0  0  0  0
   48.6827   53.3735   21.6546 C   0  0  0  0  0  0  0  0  0  0  0  0
   47.5398   53.4179   22.4280 C   0  0  0  0  0  0  0  0  0  0  0  0
   47.6227   53.3226   23.7408 N   0  0  0  0  0  0  0  0  0  0  0  0
   49.9914   53.2416   21.9661 N   0  0  0  0  0  0  0  0  0  0  0  0
   50.7066   53.2711   20.8133 C   0  0  0  0  0  0  0  0  0  0  0  0
   49.8354   53.4060   19.7545 N   0  0  0  0  0  0  0  0  0  0  0  0
  2  1  1  1  0  0  0
  2  3  1  0  0  0  0
  2  5  1  0  0  0  0
  3  4  1  0  0  0  0
  3 16  1  0  0  0  0
  5  6  1  0  0  0  0
  6  7  1  0  0  0  0
  7  8  1  0  0  0  0
  9  8  1  1  0  0  0
  9 10  1  0  0  0  0
  9 11  1  0  0  0  0
 10 15  1  0  0  0  0
 11 12  1  6  0  0  0
 11 13  1  0  0  0  0
 13 14  1  6  0  0  0
 13 15  1  0  0  0  0
 15 26  1  1  0  0  0
 17 18  2  0  0  0  0
 17 22  1  0  0  0  0
 18 19  1  0  0  0  0
 19 20  2  0  0  0  0
 20 21  1  0  0  0  0
 20 26  1  0  0  0  0
 21 22  2  0  0  0  0
 21 24  1  0  0  0  0
 22 23  1  0  0  0  0
 24 25  2  0  0  0  0
 25 26  1  0  0  0  0
M  END
>  <CHROM.1>
105.77861601,-175.36045935,170.44598780,-176.10338162,95.36641786,-56.05975846
-153.66729834,51.17125079,52.89489041,20.16492325,0.48417432,-0.32872879
2.20138292

>  <Name>
ligand

>  <RI>
0

>  <Rbt.Current_Directory>
/home/itssahil/PROJECTS/Mol_Feturizer/New_Systems/rnas/3GX3

>  <Rbt.Executable>
rbdock ($Id: //depot/dev/client3/rdock/2013.1/src/exe/rbdock.cxx#4 $)

>  <Rbt.Library>
libRbt.so (2013.1, Build901 2013/11/27)

>  <Rbt.Parameter_File>
/export/apps/rDock/src/rDock_2013.1_src/data/scripts/dock_solv.prm

>  <Rbt.Receptor>
prm/blind_docking_80.prm

>  <SCORE>
-16.3157

>  <SCORE.INTER>
-12.4101

>  <SCORE.INTER.CONST>
1

>  <SCORE.INTER.POLAR>
0

>  <SCORE.INTER.ROT>
7

>  <SCORE.INTER.SOLV>
9.88546

>  <SCORE.INTER.VDW>
-19.8352

>  <SCORE.INTER.norm>
-0.47731

>  <SCORE.INTRA>
-3.90569

>  <SCORE.INTRA.DIHEDRAL>
-0.892484

>  <SCORE.INTRA.DIHEDRAL.0>
5.78979

>  <SCORE.INTRA.POLAR>
0

>  <SCORE.INTRA.POLAR.0>
0

>  <SCORE.INTRA.REPUL>
0

>  <SCORE.INTRA.REPUL.0>
0

>  <SCORE.INTRA.SOLV>
-0.757434

>  <SCORE.INTRA.SOLV.lig_0>
-49.9151

>  <SCORE.INTRA.VDW>
-3.08073

>  <SCORE.INTRA.VDW.0>
-0.211125

>  <SCORE.INTRA.norm>
-0.150219

>  <SCORE.RESTR>
0

>  <SCORE.RESTR.CAVITY>
0

>  <SCORE.RESTR.norm>
0

>  <SCORE.SYSTEM>
0

>  <SCORE.SYSTEM.CONST>
0

>  <SCORE.SYSTEM.DIHEDRAL>
0

>  <SCORE.SYSTEM.SOLV>
0

>  <SCORE.SYSTEM.norm>
0

>  <SCORE.heavy>
26

>  <SCORE.norm>
-0.627529

>  <RMSD>
13.261

$$$$
ligand
 OpenBabel11021811483D
libRbt.so/2013.1/901 2013/11/27
 26 28  0  0  0  0  0  0  0  0999 V2000
   52.4443   50.0923   22.4202 N   0  0  0  0  0  0  0  0  0  0  0  0
   53.1586   50.5528   23.6142 C   0  0  2  0  0  0  0  0  0  0  0  0
   53.6784   49.4250   24.5084 C   0  0  0  0  0  0  0  0  0  0  0  0
   54.1662   48.4324   23.9672 O   0  0  0  0  0  0  0  0  0  0  0  0
   52.3631   51.5047   24.5168 C   0  0  0  0  0  0  0  0  0  0  0  0
   51.7721   52.7926   23.9704 C   0  0  0  0  0  0  0  0  0  0  0  0
   50.2735   52.3294   23.0719 S   0  0  0  0  0  0  0  0  0  0  0  0
   50.4050   53.9258   22.2319 C   0  0  0  0  0  0  0  0  0  0  0  0
   49.0859   54.4478   21.6524 C   0  0  1  0  0  0  0  0  0  0  0  0
   49.2453   55.6329   20.8642 O   0  0  0  0  0  0  0  0  0  0  0  0
   48.4342   53.4009   20.7606 C   0  0  1  0  0  0  0  0  0  0  0  0
   47.5281   52.5994   21.4858 O   0  0  0  0  0  0  0  0  0  0  0  0
   47.7698   54.2049   19.6506 C   0  0  1  0  0  0  0  0  0  0  0  0
   46.4303   54.5246   19.9683 O   0  0  0  0  0  0  0  0  0  0  0  0
   48.5612   55.4978   19.6292 C   0  0  2  0  0  0  0  0  0  0  0  0
   53.6425   49.4752   25.7442 O   0  0  0  0  0  0  0  0  0  0  0  0
   51.4177   52.7570   16.1729 N   0  0  0  0  0  0  0  0  0  0  0  0
   50.6077   52.2804   17.1726 C   0  0  0  0  0  0  0  0  0  0  0  0
   49.9453   53.1626   18.0002 N   0  0  0  0  0  0  0  0  0  0  0  0
   50.0491   54.4919   17.8249 C   0  0  0  0  0  0  0  0  0  0  0  0
   50.8600   54.9931   16.8209 C   0  0  0  0  0  0  0  0  0  0  0  0
   51.5415   54.1133   16.0036 C   0  0  0  0  0  0  0  0  0  0  0  0
   52.3097   54.5685   15.0330 N   0  0  0  0  0  0  0  0  0  0  0  0
   50.7943   56.3428   16.8559 N   0  0  0  0  0  0  0  0  0  0  0  0
   49.9775   56.7011   17.8785 C   0  0  0  0  0  0  0  0  0  0  0  0
   49.5050   55.5600   18.4891 N   0  0  0  0  0  0  0  0  0  0  0  0
  2  1  1  6  0  0  0
  2  3  1  0  0  0  0
  2  5  1  0  0  0  0
  3  4  1  0  0  0  0
  3 16  1  0  0  0  0
  5  6  1  0  0  0  0
  6  7  1  0  0  0  0
  7  8  1  0  0  0  0
  9  8  1  6  0  0  0
  9 10  1  0  0  0  0
  9 11  1  0  0  0  0
 10 15  1  0  0  0  0
 11 12  1  1  0  0  0
 11 13  1  0  0  0  0
 13 14  1  1  0  0  0
 13 15  1  0  0  0  0
 15 26  1  6  0  0  0
 17 18  2  0  0  0  0
 17 22  1  0  0  0  0
 18 19  1  0  0  0  0
 19 20  2  0  0  0  0
 20 21  1  0  0  0  0
 20 26  1  0  0  0  0
 21 22  2  0  0  0  0
 21 24  1  0  0  0  0
 22 23  1  0  0  0  0
 24 25  2  0  0  0  0
 25 26  1  0  0  0  0
M  END
>  <CHROM.1>
40.46409982,-56.02646062,78.17295853,-160.62311032,-157.08710468,-173.28851546
97.01873796,50.58676285,53.13200163,20.56033418,-1.16457259,0.58436949,-1.20442410

>  <Name>
ligand

>  <RI>
0

>  <Rbt.Current_Directory>
/home/itssahil/PROJECTS/Mol_Feturizer/New_Systems/rnas/3GX3

>  <Rbt.Executable>
rbdock ($Id: //depot/dev/client3/rdock/2013.1/src/exe/rbdock.cxx#4 $)

>  <Rbt.Library>
libRbt.so (2013.1, Build901 2013/11/27)

>  <Rbt.Parameter_File>
/export/apps/rDock/src/rDock_2013.1_src/data/scripts/dock_solv.prm

>  <Rbt.Receptor>
prm/blind_docking_80.prm

>  <SCORE>
-13.2968

>  <SCORE.INTER>
-12.3921

>  <SCORE.INTER.CONST>
1

>  <SCORE.INTER.POLAR>
0

>  <SCORE.INTER.ROT>
7

>  <SCORE.INTER.SOLV>
17.2202

>  <SCORE.INTER.VDW>
-22.2682

>  <SCORE.INTER.norm>
-0.476621

>  <SCORE.INTRA>
-0.904666

>  <SCORE.INTRA.DIHEDRAL>
-0.261428

>  <SCORE.INTRA.DIHEDRAL.0>
5.78979

>  <SCORE.INTRA.POLAR>
0

>  <SCORE.INTRA.POLAR.0>
0

>  <SCORE.INTRA.REPUL>
0

>  <SCORE.INTRA.REPUL.0>
0

>  <SCORE.INTRA.SOLV>
1.11714

>  <SCORE.INTRA.SOLV.lig_0>
-49.9151

>  <SCORE.INTRA.VDW>
-1.33252

>  <SCORE.INTRA.VDW.0>
-0.211125

>  <SCORE.INTRA.norm>
-0.0347948

>  <SCORE.RESTR>
0

>  <SCORE.RESTR.CAVITY>
0

>  <SCORE.RESTR.norm>
0

>  <SCORE.SYSTEM>
0

>  <SCORE.SYSTEM.CONST>
0

>  <SCORE.SYSTEM.DIHEDRAL>
0

>  <SCORE.SYSTEM.SOLV>
0

>  <SCORE.SYSTEM.norm>
0

>  <SCORE.heavy>
26

>  <SCORE.norm>
-0.511415

>  <RMSD>
13.336

$$$$
ligand
 OpenBabel11021811483D
libRbt.so/2013.1/901 2013/11/27
 26 28  0  0  0  0  0  0  0  0999 V2000
   55.1755   50.8180   22.7225 N   0  0  0  0  0  0  0  0  0  0  0  0
   53.7975   50.5628   23.1515 C   0  0  2  0  0  0  0  0  0  0  0  0
   53.4334   49.0792   23.2429 C   0  0  0  0  0  0  0  0  0  0  0  0
   53.1062   48.6280   24.3408 O   0  0  0  0  0  0  0  0  0  0  0  0
   52.7179   51.2331   22.2920 C   0  0  0  0  0  0  0  0  0  0  0  0
   52.6506   52.7443   22.1556 C   0  0  0  0  0  0  0  0  0  0  0  0
   51.4707   53.0883   20.8300 S   0  0  0  0  0  0  0  0  0  0  0  0
   50.3105   53.5802   22.1273 C   0  0  0  0  0  0  0  0  0  0  0  0
   49.0522   54.2903   21.6165 C   0  0  1  0  0  0  0  0  0  0  0  0
   49.3349   55.5129   20.9263 O   0  0  0  0  0  0  0  0  0  0  0  0
   48.2813   53.3997   20.6530 C   0  0  1  0  0  0  0  0  0  0  0  0
   47.2983   52.6441   21.3253 O   0  0  0  0  0  0  0  0  0  0  0  0
   47.7004   54.3622   19.6252 C   0  0  1  0  0  0  0  0  0  0  0  0
   46.4071   54.7987   19.9920 O   0  0  0  0  0  0  0  0  0  0  0  0
   48.6295   55.5579   19.6967 C   0  0  2  0  0  0  0  0  0  0  0  0
   53.4400   48.3232   22.2635 O   0  0  0  0  0  0  0  0  0  0  0  0
   51.3985   52.7939   16.1881 N   0  0  0  0  0  0  0  0  0  0  0  0
   50.5872   52.3240   17.1899 C   0  0  0  0  0  0  0  0  0  0  0  0
   49.9506   53.2112   18.0322 N   0  0  0  0  0  0  0  0  0  0  0  0
   50.0807   54.5398   17.8694 C   0  0  0  0  0  0  0  0  0  0  0  0
   50.8932   55.0343   16.8634 C   0  0  0  0  0  0  0  0  0  0  0  0
   51.5491   54.1489   16.0314 C   0  0  0  0  0  0  0  0  0  0  0  0
   52.3184   54.5980   15.0587 N   0  0  0  0  0  0  0  0  0  0  0  0
   50.8560   56.3846   16.9126 N   0  0  0  0  0  0  0  0  0  0  0  0
   50.0557   56.7493   17.9459 C   0  0  0  0  0  0  0  0  0  0  0  0
   49.5647   55.6122   18.5491 N   0  0  0  0  0  0  0  0  0  0  0  0
  2  1  1  6  0  0  0
  2  3  1  0  0  0  0
  2  5  1  0  0  0  0
  3  4  1  0  0  0  0
  3 16  1  0  0  0  0
  5  6  1  0  0  0  0
  6  7  1  0  0  0  0
  7  8  1  0  0  0  0
  9  8  1  6  0  0  0
  9 10  1  0  0  0  0
  9 11  1  0  0  0  0
 10 15  1  0  0  0  0
 11 12  1  1  0  0  0
 11 13  1  0  0  0  0
 13 14  1  1  0  0  0
 13 15  1  0  0  0  0
 15 26  1  6  0  0  0
 17 18  2  0  0  0  0
 17 22  1  0  0  0  0
 18 19  1  0  0  0  0
 19 20  2  0  0  0  0
 20 21  1  0  0  0  0
 20 26  1  0  0  0  0
 21 22  2  0  0  0  0
 21 24  1  0  0  0  0
 22 23  1  0  0  0  0
 24 25  2  0  0  0  0
 25 26  1  0  0  0  0
M  END
>  <CHROM.1>
118.29568925,-61.08362221,169.20600975,105.16703425,168.73641396,-61.19313753
90.37883649,50.78903529,53.17278123,20.04301086,-1.01624797,0.52730937,-1.09043328

>  <Name>
ligand

>  <RI>
0

>  <Rbt.Current_Directory>
/home/itssahil/PROJECTS/Mol_Feturizer/New_Systems/rnas/3GX3

>  <Rbt.Executable>
rbdock ($Id: //depot/dev/client3/rdock/2013.1/src/exe/rbdock.cxx#4 $)

>  <Rbt.Library>
libRbt.so (2013.1, Build901 2013/11/27)

>  <Rbt.Parameter_File>
/export/apps/rDock/src/rDock_2013.1_src/data/scripts/dock_solv.prm

>  <Rbt.Receptor>
prm/blind_docking_80.prm

>  <SCORE>
-17.2769

>  <SCORE.INTER>
-13.7131

>  <SCORE.INTER.CONST>
1

>  <SCORE.INTER.POLAR>
0

>  <SCORE.INTER.ROT>
7

>  <SCORE.INTER.SOLV>
12.3501

>  <SCORE.INTER.VDW>
-21.5254

>  <SCORE.INTER.norm>
-0.527427

>  <SCORE.INTRA>
-3.56385

>  <SCORE.INTRA.DIHEDRAL>
-0.220892

>  <SCORE.INTRA.DIHEDRAL.0>
5.78979

>  <SCORE.INTRA.POLAR>
0

>  <SCORE.INTRA.POLAR.0>
0

>  <SCORE.INTRA.REPUL>
0

>  <SCORE.INTRA.REPUL.0>
0

>  <SCORE.INTRA.SOLV>
-0.212358

>  <SCORE.INTRA.SOLV.lig_0>
-49.9151

>  <SCORE.INTRA.VDW>
-3.34723

>  <SCORE.INTRA.VDW.0>
-0.211125

>  <SCORE.INTRA.norm>
-0.137071

>  <SCORE.RESTR>
0

>  <SCORE.RESTR.CAVITY>
0

>  <SCORE.RESTR.norm>
0

>  <SCORE.SYSTEM>
0

>  <SCORE.SYSTEM.CONST>
0

>  <SCORE.SYSTEM.DIHEDRAL>
0

>  <SCORE.SYSTEM.SOLV>
0

>  <SCORE.SYSTEM.norm>
0

>  <SCORE.heavy>
26

>  <SCORE.norm>
-0.664498

>  <RMSD>
13.528

$$$$
ligand
 OpenBabel11021811483D
libRbt.so/2013.1/901 2013/11/27
 26 28  0  0  0  0  0  0  0  0999 V2000
   55.0456   46.7827   18.1124 N   0  0  0  0  0  0  0  0  0  0  0  0
   54.5572   45.8954   19.1715 C   0  0  2  0  0  0  0  0  0  0  0  0
   53.0590   45.5930   19.0955 C   0  0  0  0  0  0  0  0  0  0  0  0
   52.3212   46.4365   18.5854 O   0  0  0  0  0  0  0  0  0  0  0  0
   54.8414   46.3763   20.6004 C   0  0  0  0  0  0  0  0  0  0  0  0
   54.3467   47.7277   21.0859 C   0  0  0  0  0  0  0  0  0  0  0  0
   54.9628   47.9240   22.7739 S   0  0  0  0  0  0  0  0  0  0  0  0
   54.8453   49.7082   22.5016 C   0  0  0  0  0  0  0  0  0  0  0  0
   54.0705   50.4652   23.5856 C   0  0  1  0  0  0  0  0  0  0  0  0
   53.9153   51.8598   23.2988 O   0  0  0  0  0  0  0  0  0  0  0  0
   52.6741   49.8852   23.7580 C   0  0  1  0  0  0  0  0  0  0  0  0
   52.6490   48.8943   24.7614 O   0  0  0  0  0  0  0  0  0  0  0  0
   51.7979   51.0888   24.0803 C   0  0  1  0  0  0  0  0  0  0  0  0
   51.6984   51.3033   25.4738 O   0  0  0  0  0  0  0  0  0  0  0  0
   52.5658   52.2534   23.4869 C   0  0  2  0  0  0  0  0  0  0  0  0
   52.5638   44.5372   19.5092 O   0  0  0  0  0  0  0  0  0  0  0  0
   53.1825   52.7588   18.2925 N   0  0  0  0  0  0  0  0  0  0  0  0
   54.0563   52.2201   19.2029 C   0  0  0  0  0  0  0  0  0  0  0  0
   53.7237   52.1907   20.5410 N   0  0  0  0  0  0  0  0  0  0  0  0
   52.5358   52.6506   20.9724 C   0  0  0  0  0  0  0  0  0  0  0  0
   51.6393   53.1964   20.0695 C   0  0  0  0  0  0  0  0  0  0  0  0
   51.9775   53.2469   18.7318 C   0  0  0  0  0  0  0  0  0  0  0  0
   51.1336   53.7514   17.8526 N   0  0  0  0  0  0  0  0  0  0  0  0
   50.5355   53.5823   20.7476 N   0  0  0  0  0  0  0  0  0  0  0  0
   50.7303   53.3130   22.0632 C   0  0  0  0  0  0  0  0  0  0  0  0
   51.9696   52.7312   22.2178 N   0  0  0  0  0  0  0  0  0  0  0  0
  2  1  1  6  0  0  0
  2  3  1  0  0  0  0
  2  5  1  0  0  0  0
  3  4  1  0  0  0  0
  3 16  1  0  0  0  0
  5  6  1  0  0  0  0
  6  7  1  0  0  0  0
  7  8  1  0  0  0  0
  9  8  1  6  0  0  0
  9 10  1  0  0  0  0
  9 11  1  0  0  0  0
 10 15  1  0  0  0  0
 11 12  1  1  0  0  0
 11 13  1  0  0  0  0
 13 14  1  1  0  0  0
 13 15  1  0  0  0  0
 15 26  1  6  0  0  0
 17 18  2  0  0  0  0
 17 22  1  0  0  0  0
 18 19  1  0  0  0  0
 19 20  2  0  0  0  0
 20 21  1  0  0  0  0
 20 26  1  0  0  0  0
 21 22  2  0  0  0  0
 21 24  1  0  0  0  0
 22 23  1  0  0  0  0
 24 25  2  0  0  0  0
 25 26  1  0  0  0  0
M  END
>  <CHROM.1>
-28.31321873,57.54460324,-177.32298973,154.85463376,128.41656182,-176.00946524
8.61467723,53.08190255,50.04736607,21.29847652,0.39158707,1.26128494,-1.76254527

>  <Name>
ligand

>  <RI>
0

>  <Rbt.Current_Directory>
/home/itssahil/PROJECTS/Mol_Feturizer/New_Systems/rnas/3GX3

>  <Rbt.Executable>
rbdock ($Id: //depot/dev/client3/rdock/2013.1/src/exe/rbdock.cxx#4 $)

>  <Rbt.Library>
libRbt.so (2013.1, Build901 2013/11/27)

>  <Rbt.Parameter_File>
/export/apps/rDock/src/rDock_2013.1_src/data/scripts/dock_solv.prm

>  <Rbt.Receptor>
prm/blind_docking_80.prm

>  <SCORE>
-21.5271

>  <SCORE.INTER>
-18.8613

>  <SCORE.INTER.CONST>
1

>  <SCORE.INTER.POLAR>
0

>  <SCORE.INTER.ROT>
7

>  <SCORE.INTER.SOLV>
13.8916

>  <SCORE.INTER.VDW>
-25.4714

>  <SCORE.INTER.norm>
-0.725433

>  <SCORE.INTRA>
-2.66588

>  <SCORE.INTRA.DIHEDRAL>
0.332918

>  <SCORE.INTRA.DIHEDRAL.0>
5.78979

>  <SCORE.INTRA.POLAR>
0

>  <SCORE.INTRA.POLAR.0>
0

>  <SCORE.INTRA.REPUL>
0

>  <SCORE.INTRA.REPUL.0>
0

>  <SCORE.INTRA.SOLV>
-0.205452

>  <SCORE.INTRA.SOLV.lig_0>
-49.9151

>  <SCORE.INTRA.VDW>
-2.72962

>  <SCORE.INTRA.VDW.0>
-0.211125

>  <SCORE.INTRA.norm>
-0.102534

>  <SCORE.RESTR>
0

>  <SCORE.RESTR.CAVITY>
0

>  <SCORE.RESTR.norm>
0

>  <SCORE.SYSTEM>
0

>  <SCORE.SYSTEM.CONST>
0

>  <SCORE.SYSTEM.DIHEDRAL>
0

>  <SCORE.SYSTEM.SOLV>
0

>  <SCORE.SYSTEM.norm>
0

>  <SCORE.heavy>
26

>  <SCORE.norm>
-0.827967

>  <RMSD>
13.626

$$$$
ligand
 OpenBabel11021811483D
libRbt.so/2013.1/901 2013/11/27
 26 28  0  0  0  0  0  0  0  0999 V2000
   53.5387   48.9515   23.5001 N   0  0  0  0  0  0  0  0  0  0  0  0
   53.9844   49.9880   22.5649 C   0  0  2  0  0  0  0  0  0  0  0  0
   55.4896   50.2617   22.6022 C   0  0  0  0  0  0  0  0  0  0  0  0
   56.1063   49.9782   23.6295 O   0  0  0  0  0  0  0  0  0  0  0  0
   53.2824   51.3434   22.7191 C   0  0  0  0  0  0  0  0  0  0  0  0
   51.7800   51.4733   22.5388 C   0  0  0  0  0  0  0  0  0  0  0  0
   51.3877   53.2259   22.7443 S   0  0  0  0  0  0  0  0  0  0  0  0
   49.7695   52.8434   22.0326 C   0  0  0  0  0  0  0  0  0  0  0  0
   49.0197   54.0575   21.4740 C   0  0  1  0  0  0  0  0  0  0  0  0
   49.8468   54.9154   20.6797 O   0  0  0  0  0  0  0  0  0  0  0  0
   47.8563   53.6188   20.5964 C   0  0  1  0  0  0  0  0  0  0  0  0
   46.6616   53.5165   21.3391 O   0  0  0  0  0  0  0  0  0  0  0  0
   47.7912   54.6693   19.4954 C   0  0  1  0  0  0  0  0  0  0  0  0
   46.9172   55.7270   19.8348 O   0  0  0  0  0  0  0  0  0  0  0  0
   49.2000   55.2280   19.4569 C   0  0  2  0  0  0  0  0  0  0  0  0
   56.1106   50.7390   21.6443 O   0  0  0  0  0  0  0  0  0  0  0  0
   52.7491   56.3512   15.7474 N   0  0  0  0  0  0  0  0  0  0  0  0
   52.2392   57.1810   16.7138 C   0  0  0  0  0  0  0  0  0  0  0  0
   51.2919   56.7072   17.5971 N   0  0  0  0  0  0  0  0  0  0  0  0
   50.8794   55.4279   17.5539 C   0  0  0  0  0  0  0  0  0  0  0  0
   51.3830   54.5739   16.5876 C   0  0  0  0  0  0  0  0  0  0  0  0
   52.3158   55.0503   15.6880 C   0  0  0  0  0  0  0  0  0  0  0  0
   52.8181   54.2510   14.7669 N   0  0  0  0  0  0  0  0  0  0  0  0
   50.8135   53.3595   16.7555 N   0  0  0  0  0  0  0  0  0  0  0  0
   49.9426   53.4395   17.7929 C   0  0  0  0  0  0  0  0  0  0  0  0
   49.9744   54.7198   18.3008 N   0  0  0  0  0  0  0  0  0  0  0  0
  2  1  1  1  0  0  0
  2  3  1  0  0  0  0
  2  5  1  0  0  0  0
  3  4  1  0  0  0  0
  3 16  1  0  0  0  0
  5  6  1  0  0  0  0
  6  7  1  0  0  0  0
  7  8  1  0  0  0  0
  9  8  1  6  0  0  0
  9 10  1  0  0  0  0
  9 11  1  0  0  0  0
 10 15  1  0  0  0  0
 11 12  1  1  0  0  0
 11 13  1  0  0  0  0
 13 14  1  1  0  0  0
 13 15  1  0  0  0  0
 15 26  1  6  0  0  0
 17 18  2  0  0  0  0
 17 22  1  0  0  0  0
 18 19  1  0  0  0  0
 19 20  2  0  0  0  0
 20 21  1  0  0  0  0
 20 26  1  0  0  0  0
 21 22  2  0  0  0  0
 21 24  1  0  0  0  0
 22 23  1  0  0  0  0
 24 25  2  0  0  0  0
 25 26  1  0  0  0  0
M  END
>  <CHROM.1>
-23.68860260,-60.51591913,-177.93638543,166.14767101,-160.31396067,45.33086796
-95.32404967,51.27453636,53.46854992,20.01962486,1.02155162,-0.34706446,2.10108958

>  <Name>
ligand

>  <RI>
0

>  <Rbt.Current_Directory>
/home/itssahil/PROJECTS/Mol_Feturizer/New_Systems/rnas/3GX3

>  <Rbt.Executable>
rbdock ($Id: //depot/dev/client3/rdock/2013.1/src/exe/rbdock.cxx#4 $)

>  <Rbt.Library>
libRbt.so (2013.1, Build901 2013/11/27)

>  <Rbt.Parameter_File>
/export/apps/rDock/src/rDock_2013.1_src/data/scripts/dock_solv.prm

>  <Rbt.Receptor>
prm/blind_docking_80.prm

>  <SCORE>
-11.2231

>  <SCORE.INTER>
-8.19399

>  <SCORE.INTER.CONST>
1

>  <SCORE.INTER.POLAR>
0

>  <SCORE.INTER.ROT>
7

>  <SCORE.INTER.SOLV>
15.8078

>  <SCORE.INTER.VDW>
-18.9986

>  <SCORE.INTER.norm>
-0.315153

>  <SCORE.INTRA>
-3.04606

>  <SCORE.INTRA.DIHEDRAL>
-1.34705

>  <SCORE.INTRA.DIHEDRAL.0>
5.78979

>  <SCORE.INTRA.POLAR>
0

>  <SCORE.INTRA.POLAR.0>
0

>  <SCORE.INTRA.REPUL>
0

>  <SCORE.INTRA.REPUL.0>
0

>  <SCORE.INTRA.SOLV>
-0.506913

>  <SCORE.INTRA.SOLV.lig_0>
-49.9151

>  <SCORE.INTRA.VDW>
-2.11908

>  <SCORE.INTRA.VDW.0>
-0.211125

>  <SCORE.INTRA.norm>
-0.117156

>  <SCORE.RESTR>
0.0169733

>  <SCORE.RESTR.CAVITY>
0.0169733

>  <SCORE.RESTR.norm>
0.000652821

>  <SCORE.SYSTEM>
0

>  <SCORE.SYSTEM.CONST>
0

>  <SCORE.SYSTEM.DIHEDRAL>
0

>  <SCORE.SYSTEM.SOLV>
0

>  <SCORE.SYSTEM.norm>
0

>  <SCORE.heavy>
26

>  <SCORE.norm>
-0.431657

>  <RMSD>
13.838

$$$$
ligand
 OpenBabel11021811483D
libRbt.so/2013.1/901 2013/11/27
 26 28  0  0  0  0  0  0  0  0999 V2000
   55.7292   46.5178   19.8009 N   0  0  0  0  0  0  0  0  0  0  0  0
   54.3019   46.4945   20.1329 C   0  0  2  0  0  0  0  0  0  0  0  0
   53.3745   46.4939   18.9157 C   0  0  0  0  0  0  0  0  0  0  0  0
   53.8837   46.5707   17.7973 O   0  0  0  0  0  0  0  0  0  0  0  0
   53.8323   47.6322   21.0488 C   0  0  0  0  0  0  0  0  0  0  0  0
   54.6240   48.0211   22.2852 C   0  0  0  0  0  0  0  0  0  0  0  0
   53.5005   48.9686   23.3376 S   0  0  0  0  0  0  0  0  0  0  0  0
   53.9326   50.4076   22.3306 C   0  0  0  0  0  0  0  0  0  0  0  0
   53.1821   51.6906   22.7034 C   0  0  1  0  0  0  0  0  0  0  0  0
   53.4619   52.7845   21.8224 O   0  0  0  0  0  0  0  0  0  0  0  0
   51.6772   51.4656   22.6743 C   0  0  1  0  0  0  0  0  0  0  0  0
   51.1887   51.0893   23.9428 O   0  0  0  0  0  0  0  0  0  0  0  0
   51.1033   52.7859   22.1769 C   0  0  1  0  0  0  0  0  0  0  0  0
   50.7838   53.6519   23.2472 O   0  0  0  0  0  0  0  0  0  0  0  0
   52.2551   53.4047   21.4096 C   0  0  2  0  0  0  0  0  0  0  0  0
   52.1438   46.4053   19.0076 O   0  0  0  0  0  0  0  0  0  0  0  0
   49.5063   54.9852   17.2186 N   0  0  0  0  0  0  0  0  0  0  0  0
   49.3348   55.3448   18.5316 C   0  0  0  0  0  0  0  0  0  0  0  0
   50.1505   54.8059   19.5043 N   0  0  0  0  0  0  0  0  0  0  0  0
   51.1424   53.9551   19.1869 C   0  0  0  0  0  0  0  0  0  0  0  0
   51.3333   53.5810   17.8677 C   0  0  0  0  0  0  0  0  0  0  0  0
   50.5051   54.1019   16.8935 C   0  0  0  0  0  0  0  0  0  0  0  0
   50.6767   53.7689   15.6289 N   0  0  0  0  0  0  0  0  0  0  0  0
   52.3795   52.7267   17.8155 N   0  0  0  0  0  0  0  0  0  0  0  0
   52.8348   52.5363   19.0796 C   0  0  0  0  0  0  0  0  0  0  0  0
   52.0760   53.2958   19.9431 N   0  0  0  0  0  0  0  0  0  0  0  0
  2  1  1  6  0  0  0
  2  3  1  0  0  0  0
  2  5  1  0  0  0  0
  3  4  1  0  0  0  0
  3 16  1  0  0  0  0
  5  6  1  0  0  0  0
  6  7  1  0  0  0  0
  7  8  1  0  0  0  0
  9  8  1  6  0  0  0
  9 10  1  0  0  0  0
  9 11  1  0  0  0  0
 10 15  1  0  0  0  0
 11 12  1  1  0  0  0
 11 13  1  0  0  0  0
 13 14  1  1  0  0  0
 13 15  1  0  0  0  0
 15 26  1  6  0  0  0
 17 18  2  0  0  0  0
 17 22  1  0  0  0  0
 18 19  1  0  0  0  0
 19 20  2  0  0  0  0
 20 21  1  0  0  0  0
 20 26  1  0  0  0  0
 21 22  2  0  0  0  0
 21 24  1  0  0  0  0
 22 23  1  0  0  0  0
 24 25  2  0  0  0  0
 25 26  1  0  0  0  0
M  END
>  <CHROM.1>
-3.08091395,-45.42996869,-161.75186132,-83.45168562,177.11696849,-175.20554232
-169.07152514,52.35013018,51.10192918,20.37899356,-0.02814042,1.13738831
-1.84228328

>  <Name>
ligand

>  <RI>
0

>  <Rbt.Current_Directory>
/home/itssahil/PROJECTS/Mol_Feturizer/New_Systems/rnas/3GX3

>  <Rbt.Executable>
rbdock ($Id: //depot/dev/client3/rdock/2013.1/src/exe/rbdock.cxx#4 $)

>  <Rbt.Library>
libRbt.so (2013.1, Build901 2013/11/27)

>  <Rbt.Parameter_File>
/export/apps/rDock/src/rDock_2013.1_src/data/scripts/dock_solv.prm

>  <Rbt.Receptor>
prm/blind_docking_100.prm

>  <SCORE>
-18.0186

>  <SCORE.INTER>
-16.6377

>  <SCORE.INTER.CONST>
1

>  <SCORE.INTER.POLAR>
0

>  <SCORE.INTER.ROT>
7

>  <SCORE.INTER.SOLV>
17.8285

>  <SCORE.INTER.VDW>
-25.3013

>  <SCORE.INTER.norm>
-0.639912

>  <SCORE.INTRA>
-1.38093

>  <SCORE.INTRA.DIHEDRAL>
-0.167804

>  <SCORE.INTRA.DIHEDRAL.0>
5.78979

>  <SCORE.INTRA.POLAR>
0

>  <SCORE.INTRA.POLAR.0>
0

>  <SCORE.INTRA.REPUL>
0

>  <SCORE.INTRA.REPUL.0>
0

>  <SCORE.INTRA.SOLV>
-0.221248

>  <SCORE.INTRA.SOLV.lig_0>
-49.9151

>  <SCORE.INTRA.VDW>
-1.1864

>  <SCORE.INTRA.VDW.0>
-0.211125

>  <SCORE.INTRA.norm>
-0.0531126

>  <SCORE.RESTR>
0

>  <SCORE.RESTR.CAVITY>
0

>  <SCORE.RESTR.norm>
0

>  <SCORE.SYSTEM>
0

>  <SCORE.SYSTEM.CONST>
0

>  <SCORE.SYSTEM.DIHEDRAL>
0

>  <SCORE.SYSTEM.SOLV>
0

>  <SCORE.SYSTEM.norm>
0

>  <SCORE.heavy>
26

>  <SCORE.norm>
-0.693025

>  <RMSD>
13.860

$$$$
ligand
 OpenBabel11021811483D
libRbt.so/2013.1/901 2013/11/27
 26 28  0  0  0  0  0  0  0  0999 V2000
   52.7590   44.1777   19.5014 N   0  0  0  0  0  0  0  0  0  0  0  0
   53.1020   45.5847   19.7260 C   0  0  2  0  0  0  0  0  0  0  0  0
   52.8668   46.4891   18.5142 C   0  0  0  0  0  0  0  0  0  0  0  0
   51.8838   46.2680   17.8064 O   0  0  0  0  0  0  0  0  0  0  0  0
   54.5423   45.8328   20.1927 C   0  0  0  0  0  0  0  0  0  0  0  0
   54.8305   46.5620   21.4934 C   0  0  0  0  0  0  0  0  0  0  0  0
   54.0046   48.1658   21.3769 S   0  0  0  0  0  0  0  0  0  0  0  0
   54.6581   48.5089   23.0281 C   0  0  0  0  0  0  0  0  0  0  0  0
   54.2170   49.8528   23.6178 C   0  0  1  0  0  0  0  0  0  0  0  0
   54.7513   50.9803   22.9148 O   0  0  0  0  0  0  0  0  0  0  0  0
   52.7012   49.9848   23.5903 C   0  0  1  0  0  0  0  0  0  0  0  0
   52.1234   49.5322   24.7947 O   0  0  0  0  0  0  0  0  0  0  0  0
   52.4515   51.4634   23.3227 C   0  0  1  0  0  0  0  0  0  0  0  0
   52.3254   52.1969   24.5243 O   0  0  0  0  0  0  0  0  0  0  0  0
   53.7241   51.9174   22.6352 C   0  0  2  0  0  0  0  0  0  0  0  0
   53.6100   47.4356   18.2266 O   0  0  0  0  0  0  0  0  0  0  0  0
   50.5951   53.6864   18.8014 N   0  0  0  0  0  0  0  0  0  0  0  0
   50.3735   53.7058   20.1553 C   0  0  0  0  0  0  0  0  0  0  0  0
   51.3123   53.1729   21.0135 N   0  0  0  0  0  0  0  0  0  0  0  0
   52.4668   52.6618   20.5504 C   0  0  0  0  0  0  0  0  0  0  0  0
   52.7104   52.6343   19.1878 C   0  0  0  0  0  0  0  0  0  0  0  0
   51.7636   53.1477   18.3240 C   0  0  0  0  0  0  0  0  0  0  0  0
   51.9802   53.1430   17.0230 N   0  0  0  0  0  0  0  0  0  0  0  0
   53.9243   52.0754   18.9846 N   0  0  0  0  0  0  0  0  0  0  0  0
   54.4383   51.7276   20.1913 C   0  0  0  0  0  0  0  0  0  0  0  0
   53.5435   52.0883   21.1748 N   0  0  0  0  0  0  0  0  0  0  0  0
  2  1  1  6  0  0  0
  2  3  1  0  0  0  0
  2  5  1  0  0  0  0
  3  4  1  0  0  0  0
  3 16  1  0  0  0  0
  5  6  1  0  0  0  0
  6  7  1  0  0  0  0
  7  8  1  0  0  0  0
  9  8  1  6  0  0  0
  9 10  1  0  0  0  0
  9 11  1  0  0  0  0
 10 15  1  0  0  0  0
 11 12  1  1  0  0  0
 11 13  1  0  0  0  0
 13 14  1  1  0  0  0
 13 15  1  0  0  0  0
 15 26  1  6  0  0  0
 17 18  2  0  0  0  0
 17 22  1  0  0  0  0
 18 19  1  0  0  0  0
 19 20  2  0  0  0  0
 20 21  1  0  0  0  0
 20 26  1  0  0  0  0
 21 22  2  0  0  0  0
 21 24  1  0  0  0  0
 22 23  1  0  0  0  0
 24 25  2  0  0  0  0
 25 26  1  0  0  0  0
M  END
>  <CHROM.1>
37.17094836,-122.65233202,-56.62210412,-179.78197565,-176.97233534,-66.99099765
164.04895967,53.04907271,49.95205687,20.86421766,0.84589754,1.26427907,-2.33673525

>  <Name>
ligand

>  <RI>
0

>  <Rbt.Current_Directory>
/home/itssahil/PROJECTS/Mol_Feturizer/New_Systems/rnas/3GX3

>  <Rbt.Executable>
rbdock ($Id: //depot/dev/client3/rdock/2013.1/src/exe/rbdock.cxx#4 $)

>  <Rbt.Library>
libRbt.so (2013.1, Build901 2013/11/27)

>  <Rbt.Parameter_File>
/export/apps/rDock/src/rDock_2013.1_src/data/scripts/dock_solv.prm

>  <Rbt.Receptor>
prm/blind_docking_80.prm

>  <SCORE>
-22.2868

>  <SCORE.INTER>
-21.454

>  <SCORE.INTER.CONST>
1

>  <SCORE.INTER.POLAR>
0

>  <SCORE.INTER.ROT>
7

>  <SCORE.INTER.SOLV>
16.5332

>  <SCORE.INTER.VDW>
-28.0804

>  <SCORE.INTER.norm>
-0.825152

>  <SCORE.INTRA>
-0.832884

>  <SCORE.INTRA.DIHEDRAL>
2.69013

>  <SCORE.INTRA.DIHEDRAL.0>
5.78979

>  <SCORE.INTRA.POLAR>
0

>  <SCORE.INTRA.POLAR.0>
0

>  <SCORE.INTRA.REPUL>
0

>  <SCORE.INTRA.REPUL.0>
0

>  <SCORE.INTRA.SOLV>
-0.512939

>  <SCORE.INTRA.SOLV.lig_0>
-49.9151

>  <SCORE.INTRA.VDW>
-1.92148

>  <SCORE.INTRA.VDW.0>
-0.211125

>  <SCORE.INTRA.norm>
-0.032034

>  <SCORE.RESTR>
0

>  <SCORE.RESTR.CAVITY>
0

>  <SCORE.RESTR.norm>
0

>  <SCORE.SYSTEM>
0

>  <SCORE.SYSTEM.CONST>
0

>  <SCORE.SYSTEM.DIHEDRAL>
0

>  <SCORE.SYSTEM.SOLV>
0

>  <SCORE.SYSTEM.norm>
0

>  <SCORE.heavy>
26

>  <SCORE.norm>
-0.857186

>  <RMSD>
13.921

$$$$
ligand
 OpenBabel11021811483D
libRbt.so/2013.1/901 2013/11/27
 26 28  0  0  0  0  0  0  0  0999 V2000
   55.5605   46.4562   17.2860 N   0  0  0  0  0  0  0  0  0  0  0  0
   54.9301   45.9367   18.5028 C   0  0  2  0  0  0  0  0  0  0  0  0
   53.4312   46.2272   18.6062 C   0  0  0  0  0  0  0  0  0  0  0  0
   52.7001   45.3509   19.0682 O   0  0  0  0  0  0  0  0  0  0  0  0
   55.5666   46.4130   19.8149 C   0  0  0  0  0  0  0  0  0  0  0  0
   54.7935   46.3723   21.1215 C   0  0  0  0  0  0  0  0  0  0  0  0
   53.8882   47.9331   21.2315 S   0  0  0  0  0  0  0  0  0  0  0  0
   54.7238   48.1898   22.8150 C   0  0  0  0  0  0  0  0  0  0  0  0
   54.3637   49.5040   23.5160 C   0  0  1  0  0  0  0  0  0  0  0  0
   54.8785   50.6605   22.8462 O   0  0  0  0  0  0  0  0  0  0  0  0
   52.8541   49.6736   23.6066 C   0  0  1  0  0  0  0  0  0  0  0  0
   52.3506   49.1600   24.8199 O   0  0  0  0  0  0  0  0  0  0  0  0
   52.6280   51.1716   23.4485 C   0  0  1  0  0  0  0  0  0  0  0  0
   52.6082   51.8308   24.6986 O   0  0  0  0  0  0  0  0  0  0  0  0
   53.8609   51.6375   22.6995 C   0  0  2  0  0  0  0  0  0  0  0  0
   52.9292   47.3041   18.2607 O   0  0  0  0  0  0  0  0  0  0  0  0
   50.4394   53.5586   19.2037 N   0  0  0  0  0  0  0  0  0  0  0  0
   50.3043   53.4748   20.5665 C   0  0  0  0  0  0  0  0  0  0  0  0
   51.3123   52.9168   21.3245 N   0  0  0  0  0  0  0  0  0  0  0  0
   52.4502   52.4812   20.7554 C   0  0  0  0  0  0  0  0  0  0  0  0
   52.6071   52.5584   19.3820 C   0  0  0  0  0  0  0  0  0  0  0  0
   51.5913   53.0970   18.6175 C   0  0  0  0  0  0  0  0  0  0  0  0
   51.7244   53.1916   17.3087 N   0  0  0  0  0  0  0  0  0  0  0  0
   53.8224   52.0589   19.0645 N   0  0  0  0  0  0  0  0  0  0  0  0
   54.4231   51.6458   20.2090 C   0  0  0  0  0  0  0  0  0  0  0  0
   53.5821   51.9041   21.2692 N   0  0  0  0  0  0  0  0  0  0  0  0
  2  1  1  6  0  0  0
  2  3  1  0  0  0  0
  2  5  1  0  0  0  0
  3  4  1  0  0  0  0
  3 16  1  0  0  0  0
  5  6  1  0  0  0  0
  6  7  1  0  0  0  0
  7  8  1  0  0  0  0
  9  8  1  6  0  0  0
  9 10  1  0  0  0  0
  9 11  1  0  0  0  0
 10 15  1  0  0  0  0
 11 12  1  1  0  0  0
 11 13  1  0  0  0  0
 13 14  1  1  0  0  0
 13 15  1  0  0  0  0
 15 26  1  6  0  0  0
 17 18  2  0  0  0  0
 17 22  1  0  0  0  0
 18 19  1  0  0  0  0
 19 20  2  0  0  0  0
 20 21  1  0  0  0  0
 20 26  1  0  0  0  0
 21 22  2  0  0  0  0
 21 24  1  0  0  0  0
 22 23  1  0  0  0  0
 24 25  2  0  0  0  0
 25 26  1  0  0  0  0
M  END
>  <CHROM.1>
141.09778620,159.01625742,-87.60193586,-123.61840592,179.39443416,-69.58371977
160.54894403,53.28891824,49.85134050,20.83778445,0.46872325,1.17867041,-1.83854860

>  <Name>
ligand

>  <RI>
0

>  <Rbt.Current_Directory>
/home/itssahil/PROJECTS/Mol_Feturizer/New_Systems/rnas/3GX3

>  <Rbt.Executable>
rbdock ($Id: //depot/dev/client3/rdock/2013.1/src/exe/rbdock.cxx#4 $)

>  <Rbt.Library>
libRbt.so (2013.1, Build901 2013/11/27)

>  <Rbt.Parameter_File>
/export/apps/rDock/src/rDock_2013.1_src/data/scripts/dock_solv.prm

>  <Rbt.Receptor>
prm/blind_docking_100.prm

>  <SCORE>
-20.1258

>  <SCORE.INTER>
-19.5045

>  <SCORE.INTER.CONST>
1

>  <SCORE.INTER.POLAR>
0

>  <SCORE.INTER.ROT>
7

>  <SCORE.INTER.SOLV>
18.2738

>  <SCORE.INTER.VDW>
-27.3609

>  <SCORE.INTER.norm>
-0.750172

>  <SCORE.INTRA>
-0.621381

>  <SCORE.INTRA.DIHEDRAL>
3.65025

>  <SCORE.INTRA.DIHEDRAL.0>
5.78979

>  <SCORE.INTRA.POLAR>
0

>  <SCORE.INTRA.POLAR.0>
0

>  <SCORE.INTRA.REPUL>
0

>  <SCORE.INTRA.REPUL.0>
0

>  <SCORE.INTRA.SOLV>
-0.643178

>  <SCORE.INTRA.SOLV.lig_0>
-49.9151

>  <SCORE.INTRA.VDW>
-2.12492

>  <SCORE.INTRA.VDW.0>
-0.211125

>  <SCORE.INTRA.norm>
-0.0238993

>  <SCORE.RESTR>
0

>  <SCORE.RESTR.CAVITY>
0

>  <SCORE.RESTR.norm>
0

>  <SCORE.SYSTEM>
0

>  <SCORE.SYSTEM.CONST>
0

>  <SCORE.SYSTEM.DIHEDRAL>
0

>  <SCORE.SYSTEM.SOLV>
0

>  <SCORE.SYSTEM.norm>
0

>  <SCORE.heavy>
26

>  <SCORE.norm>
-0.774071

>  <RMSD>
14.007

$$$$
ligand
 OpenBabel11021811483D
libRbt.so/2013.1/901 2013/11/27
 26 28  0  0  0  0  0  0  0  0999 V2000
   42.9998   58.8406   16.7240 N   0  0  0  0  0  0  0  0  0  0  0  0
   44.1595   57.9572   16.5736 C   0  0  2  0  0  0  0  0  0  0  0  0
   44.6155   57.7613   15.1260 C   0  0  0  0  0  0  0  0  0  0  0  0
   45.3838   58.5925   14.6414 O   0  0  0  0  0  0  0  0  0  0  0  0
   43.9894   56.5579   17.1792 C   0  0  0  0  0  0  0  0  0  0  0  0
   44.1674   56.3213   18.6688 C   0  0  0  0  0  0  0  0  0  0  0  0
   45.9146   55.9330   18.9221 S   0  0  0  0  0  0  0  0  0  0  0  0
   45.3591   54.6489   20.0683 C   0  0  0  0  0  0  0  0  0  0  0  0
   46.4735   53.7285   20.5775 C   0  0  1  0  0  0  0  0  0  0  0  0
   47.2294   53.1209   19.5238 O   0  0  0  0  0  0  0  0  0  0  0  0
   47.4564   54.4984   21.4477 C   0  0  1  0  0  0  0  0  0  0  0  0
   47.0987   54.4317   22.8104 O   0  0  0  0  0  0  0  0  0  0  0  0
   48.8085   53.8636   21.1497 C   0  0  1  0  0  0  0  0  0  0  0  0
   49.0991   52.8103   22.0462 O   0  0  0  0  0  0  0  0  0  0  0  0
   48.6189   53.2593   19.7723 C   0  0  2  0  0  0  0  0  0  0  0  0
   44.2581   56.8012   14.4321 O   0  0  0  0  0  0  0  0  0  0  0  0
   51.9039   53.2263   15.6704 N   0  0  0  0  0  0  0  0  0  0  0  0
   51.5364   52.1755   16.4725 C   0  0  0  0  0  0  0  0  0  0  0  0
   50.6678   52.3836   17.5233 N   0  0  0  0  0  0  0  0  0  0  0  0
   50.1407   53.5980   17.7597 C   0  0  0  0  0  0  0  0  0  0  0  0
   50.4974   54.6711   16.9609 C   0  0  0  0  0  0  0  0  0  0  0  0
   51.3832   54.4712   15.9208 C   0  0  0  0  0  0  0  0  0  0  0  0
   51.7273   55.4766   15.1397 N   0  0  0  0  0  0  0  0  0  0  0  0
   49.8397   55.7664   17.4024 N   0  0  0  0  0  0  0  0  0  0  0  0
   49.0955   55.4086   18.4793 C   0  0  0  0  0  0  0  0  0  0  0  0
   49.2712   54.0621   18.7119 N   0  0  0  0  0  0  0  0  0  0  0  0
  2  1  1  6  0  0  0
  2  3  1  0  0  0  0
  2  5  1  0  0  0  0
  3  4  1  0  0  0  0
  3 16  1  0  0  0  0
  5  6  1  0  0  0  0
  6  7  1  0  0  0  0
  7  8  1  0  0  0  0
  9  8  1  6  0  0  0
  9 10  1  0  0  0  0
  9 11  1  0  0  0  0
 10 15  1  0  0  0  0
 11 12  1  1  0  0  0
 11 13  1  0  0  0  0
 13 14  1  1  0  0  0
 13 15  1  0  0  0  0
 15 26  1  6  0  0  0
 17 18  2  0  0  0  0
 17 22  1  0  0  0  0
 18 19  1  0  0  0  0
 19 20  2  0  0  0  0
 20 21  1  0  0  0  0
 20 26  1  0  0  0  0
 21 22  2  0  0  0  0
 21 24  1  0  0  0  0
 22 23  1  0  0  0  0
 24 25  2  0  0  0  0
 25 26  1  0  0  0  0
M  END
>  <CHROM.1>
85.27964160,-80.23766123,-89.81809827,-138.05135194,172.59659799,-54.13187262
-109.74470683,47.58955494,55.07732713,18.14003082,-2.67122604,-0.45598478
1.97769331

>  <Name>
ligand

>  <RI>
0

>  <Rbt.Current_Directory>
/home/itssahil/PROJECTS/Mol_Feturizer/New_Systems/rnas/3GX3

>  <Rbt.Executable>
rbdock ($Id: //depot/dev/client3/rdock/2013.1/src/exe/rbdock.cxx#4 $)

>  <Rbt.Library>
libRbt.so (2013.1, Build901 2013/11/27)

>  <Rbt.Parameter_File>
/export/apps/rDock/src/rDock_2013.1_src/data/scripts/dock_solv.prm

>  <Rbt.Receptor>
prm/blind_docking_80.prm

>  <SCORE>
-16.7491

>  <SCORE.INTER>
-15.783

>  <SCORE.INTER.CONST>
1

>  <SCORE.INTER.POLAR>
0

>  <SCORE.INTER.ROT>
7

>  <SCORE.INTER.SOLV>
16.6426

>  <SCORE.INTER.VDW>
-24.3362

>  <SCORE.INTER.norm>
-0.607039

>  <SCORE.INTRA>
-0.966059

>  <SCORE.INTRA.DIHEDRAL>
3.35198

>  <SCORE.INTRA.DIHEDRAL.0>
5.78979

>  <SCORE.INTRA.POLAR>
0

>  <SCORE.INTRA.POLAR.0>
0

>  <SCORE.INTRA.REPUL>
0

>  <SCORE.INTRA.REPUL.0>
0

>  <SCORE.INTRA.SOLV>
-0.406449

>  <SCORE.INTRA.SOLV.lig_0>
-49.9151

>  <SCORE.INTRA.VDW>
-2.43882

>  <SCORE.INTRA.VDW.0>
-0.211125

>  <SCORE.INTRA.norm>
-0.0371561

>  <SCORE.RESTR>
0

>  <SCORE.RESTR.CAVITY>
0

>  <SCORE.RESTR.norm>
0

>  <SCORE.SYSTEM>
0

>  <SCORE.SYSTEM.CONST>
0

>  <SCORE.SYSTEM.DIHEDRAL>
0

>  <SCORE.SYSTEM.SOLV>
0

>  <SCORE.SYSTEM.norm>
0

>  <SCORE.heavy>
26

>  <SCORE.norm>
-0.644195

>  <RMSD>
14.054

$$$$
ligand
 OpenBabel11021811483D
libRbt.so/2013.1/901 2013/11/27
 26 28  0  0  0  0  0  0  0  0999 V2000
   52.0568   53.4661   16.7878 N   0  0  0  0  0  0  0  0  0  0  0  0
   51.6546   54.7587   17.3493 C   0  0  2  0  0  0  0  0  0  0  0  0
   50.2533   55.2138   16.9356 C   0  0  0  0  0  0  0  0  0  0  0  0
   49.8116   54.8243   15.8543 O   0  0  0  0  0  0  0  0  0  0  0  0
   52.6077   55.9214   17.0436 C   0  0  0  0  0  0  0  0  0  0  0  0
   52.4597   57.2613   17.7431 C   0  0  0  0  0  0  0  0  0  0  0  0
   53.8034   58.3080   17.1377 S   0  0  0  0  0  0  0  0  0  0  0  0
   53.4107   59.4279   18.5026 C   0  0  0  0  0  0  0  0  0  0  0  0
   52.3131   60.4500   18.1882 C   0  0  1  0  0  0  0  0  0  0  0  0
   51.8190   61.1235   19.3515 O   0  0  0  0  0  0  0  0  0  0  0  0
   52.8263   61.5199   17.2353 C   0  0  1  0  0  0  0  0  0  0  0  0
   52.5682   61.1784   15.8914 O   0  0  0  0  0  0  0  0  0  0  0  0
   52.1205   62.7952   17.6773 C   0  0  1  0  0  0  0  0  0  0  0  0
   50.9087   62.9904   16.9764 O   0  0  0  0  0  0  0  0  0  0  0  0
   51.7766   62.5235   19.1286 C   0  0  2  0  0  0  0  0  0  0  0  0
   49.5451   55.9399   17.6443 O   0  0  0  0  0  0  0  0  0  0  0  0
   54.1505   62.4519   23.8166 N   0  0  0  0  0  0  0  0  0  0  0  0
   53.3052   61.5146   23.2784 C   0  0  0  0  0  0  0  0  0  0  0  0
   52.7595   61.7181   22.0282 N   0  0  0  0  0  0  0  0  0  0  0  0
   53.0685   62.8081   21.3038 C   0  0  0  0  0  0  0  0  0  0  0  0
   53.9208   63.7649   21.8281 C   0  0  0  0  0  0  0  0  0  0  0  0
   54.4525   63.5751   23.0881 C   0  0  0  0  0  0  0  0  0  0  0  0
   55.2763   64.4677   23.6022 N   0  0  0  0  0  0  0  0  0  0  0  0
   54.0664   64.7504   20.9145 N   0  0  0  0  0  0  0  0  0  0  0  0
   53.3024   64.4446   19.8356 C   0  0  0  0  0  0  0  0  0  0  0  0
   52.6774   63.2381   20.0627 N   0  0  0  0  0  0  0  0  0  0  0  0
  2  1  1  6  0  0  0
  2  3  1  0  0  0  0
  2  5  1  0  0  0  0
  3  4  1  0  0  0  0
  3 16  1  0  0  0  0
  5  6  1  0  0  0  0
  6  7  1  0  0  0  0
  7  8  1  0  0  0  0
  9  8  1  1  0  0  0
  9 10  1  0  0  0  0
  9 11  1  0  0  0  0
 10 15  1  0  0  0  0
 11 12  1  6  0  0  0
 11 13  1  0  0  0  0
 13 14  1  6  0  0  0
 13 15  1  0  0  0  0
 15 26  1  1  0  0  0
 17 18  2  0  0  0  0
 17 22  1  0  0  0  0
 18 19  1  0  0  0  0
 19 20  2  0  0  0  0
 20 21  1  0  0  0  0
 20 26  1  0  0  0  0
 21 22  2  0  0  0  0
 21 24  1  0  0  0  0
 22 23  1  0  0  0  0
 24 25  2  0  0  0  0
 25 26  1  0  0  0  0
M  END
>  <CHROM.1>
-27.93462372,-169.53740322,178.08837971,-166.49059266,-86.56403688,167.22545223
-26.32964078,52.57973466,60.22113218,19.00421479,-2.39145573,-1.23395007
-0.23415934

>  <Name>
ligand

>  <RI>
0

>  <Rbt.Current_Directory>
/home/itssahil/PROJECTS/Mol_Feturizer/New_Systems/rnas/3GX3

>  <Rbt.Executable>
rbdock ($Id: //depot/dev/client3/rdock/2013.1/src/exe/rbdock.cxx#4 $)

>  <Rbt.Library>
libRbt.so (2013.1, Build901 2013/11/27)

>  <Rbt.Parameter_File>
/export/apps/rDock/src/rDock_2013.1_src/data/scripts/dock_solv.prm

>  <Rbt.Receptor>
prm/blind_docking_100.prm

>  <SCORE>
-14.6345

>  <SCORE.INTER>
-11.8338

>  <SCORE.INTER.CONST>
1

>  <SCORE.INTER.POLAR>
0

>  <SCORE.INTER.ROT>
7

>  <SCORE.INTER.SOLV>
8.11486

>  <SCORE.INTER.VDW>
-18.8608

>  <SCORE.INTER.norm>
-0.455145

>  <SCORE.INTRA>
-2.80075

>  <SCORE.INTRA.DIHEDRAL>
-0.674894

>  <SCORE.INTRA.DIHEDRAL.0>
5.78979

>  <SCORE.INTRA.POLAR>
0

>  <SCORE.INTRA.POLAR.0>
0

>  <SCORE.INTRA.REPUL>
0

>  <SCORE.INTRA.REPUL.0>
0

>  <SCORE.INTRA.SOLV>
-0.857278

>  <SCORE.INTRA.SOLV.lig_0>
-49.9151

>  <SCORE.INTRA.VDW>
-2.03466

>  <SCORE.INTRA.VDW.0>
-0.211125

>  <SCORE.INTRA.norm>
-0.107721

>  <SCORE.RESTR>
0

>  <SCORE.RESTR.CAVITY>
0

>  <SCORE.RESTR.norm>
0

>  <SCORE.SYSTEM>
0

>  <SCORE.SYSTEM.CONST>
0

>  <SCORE.SYSTEM.DIHEDRAL>
0

>  <SCORE.SYSTEM.SOLV>
0

>  <SCORE.SYSTEM.norm>
0

>  <SCORE.heavy>
26

>  <SCORE.norm>
-0.562867

>  <RMSD>
14.262

$$$$
ligand
 OpenBabel11021811483D
libRbt.so/2013.1/901 2013/11/27
 26 28  0  0  0  0  0  0  0  0999 V2000
   53.9952   62.0653   19.1397 N   0  0  0  0  0  0  0  0  0  0  0  0
   54.6458   61.8056   17.8524 C   0  0  2  0  0  0  0  0  0  0  0  0
   54.7392   63.0294   16.9383 C   0  0  0  0  0  0  0  0  0  0  0  0
   54.3183   64.1056   17.3636 O   0  0  0  0  0  0  0  0  0  0  0  0
   54.0141   60.6794   17.0239 C   0  0  0  0  0  0  0  0  0  0  0  0
   53.8462   59.2833   17.5978 C   0  0  0  0  0  0  0  0  0  0  0  0
   53.2407   58.2431   16.2492 S   0  0  0  0  0  0  0  0  0  0  0  0
   52.9687   56.9606   17.4953 C   0  0  0  0  0  0  0  0  0  0  0  0
   52.2924   55.6927   16.9629 C   0  0  1  0  0  0  0  0  0  0  0  0
   52.1789   54.6580   17.9466 O   0  0  0  0  0  0  0  0  0  0  0  0
   50.8859   55.9964   16.4677 C   0  0  1  0  0  0  0  0  0  0  0  0
   50.8794   56.2970   15.0896 O   0  0  0  0  0  0  0  0  0  0  0  0
   50.0816   54.7501   16.8144 C   0  0  1  0  0  0  0  0  0  0  0  0
   50.0748   53.8208   15.7496 O   0  0  0  0  0  0  0  0  0  0  0  0
   50.8607   54.1348   17.9601 C   0  0  2  0  0  0  0  0  0  0  0  0
   55.2299   62.9857   15.8033 O   0  0  0  0  0  0  0  0  0  0  0  0
   50.6740   52.7964   23.0387 N   0  0  0  0  0  0  0  0  0  0  0  0
   51.4875   52.2903   22.0565 C   0  0  0  0  0  0  0  0  0  0  0  0
   51.3778   52.7584   20.7639 N   0  0  0  0  0  0  0  0  0  0  0  0
   50.5074   53.7341   20.4493 C   0  0  0  0  0  0  0  0  0  0  0  0
   49.6788   54.2594   21.4262 C   0  0  0  0  0  0  0  0  0  0  0  0
   49.7709   53.7785   22.7172 C   0  0  0  0  0  0  0  0  0  0  0  0
   48.9999   54.2730   23.6661 N   0  0  0  0  0  0  0  0  0  0  0  0
   48.9054   55.2124   20.8597 N   0  0  0  0  0  0  0  0  0  0  0  0
   49.2137   55.2794   19.5399 C   0  0  0  0  0  0  0  0  0  0  0  0
   50.2101   54.3669   19.2706 N   0  0  0  0  0  0  0  0  0  0  0  0
  2  1  1  1  0  0  0
  2  3  1  0  0  0  0
  2  5  1  0  0  0  0
  3  4  1  0  0  0  0
  3 16  1  0  0  0  0
  5  6  1  0  0  0  0
  6  7  1  0  0  0  0
  7  8  1  0  0  0  0
  9  8  1  1  0  0  0
  9 10  1  0  0  0  0
  9 11  1  0  0  0  0
 10 15  1  0  0  0  0
 11 12  1  6  0  0  0
 11 13  1  0  0  0  0
 13 14  1  6  0  0  0
 13 15  1  0  0  0  0
 15 26  1  1  0  0  0
 17 18  2  0  0  0  0
 17 22  1  0  0  0  0
 18 19  1  0  0  0  0
 19 20  2  0  0  0  0
 20 21  1  0  0  0  0
 20 26  1  0  0  0  0
 21 22  2  0  0  0  0
 21 24  1  0  0  0  0
 22 23  1  0  0  0  0
 24 25  2  0  0  0  0
 25 26  1  0  0  0  0
M  END
>  <CHROM.1>
2.49506073,-55.86589680,-173.95018330,-170.62462359,175.44745184,175.66518889
-71.70206219,51.85418385,56.82838151,18.48366635,-0.24467987,1.12564654,1.39311958

>  <Name>
ligand

>  <RI>
0

>  <Rbt.Current_Directory>
/home/itssahil/PROJECTS/Mol_Feturizer/New_Systems/rnas/3GX3

>  <Rbt.Executable>
rbdock ($Id: //depot/dev/client3/rdock/2013.1/src/exe/rbdock.cxx#4 $)

>  <Rbt.Library>
libRbt.so (2013.1, Build901 2013/11/27)

>  <Rbt.Parameter_File>
/export/apps/rDock/src/rDock_2013.1_src/data/scripts/dock_solv.prm

>  <Rbt.Receptor>
prm/blind_docking_100.prm

>  <SCORE>
-11.1309

>  <SCORE.INTER>
-8.10152

>  <SCORE.INTER.CONST>
1

>  <SCORE.INTER.POLAR>
0

>  <SCORE.INTER.ROT>
7

>  <SCORE.INTER.SOLV>
7.18411

>  <SCORE.INTER.VDW>
-16.0624

>  <SCORE.INTER.norm>
-0.311597

>  <SCORE.INTRA>
-3.02941

>  <SCORE.INTRA.DIHEDRAL>
-2.57584

>  <SCORE.INTRA.DIHEDRAL.0>
5.78979

>  <SCORE.INTRA.POLAR>
0

>  <SCORE.INTRA.POLAR.0>
0

>  <SCORE.INTRA.REPUL>
0

>  <SCORE.INTRA.REPUL.0>
0

>  <SCORE.INTRA.SOLV>
-0.316857

>  <SCORE.INTRA.SOLV.lig_0>
-49.9151

>  <SCORE.INTRA.VDW>
-1.58306

>  <SCORE.INTRA.VDW.0>
-0.211125

>  <SCORE.INTRA.norm>
-0.116516

>  <SCORE.RESTR>
0

>  <SCORE.RESTR.CAVITY>
0

>  <SCORE.RESTR.norm>
0

>  <SCORE.SYSTEM>
0

>  <SCORE.SYSTEM.CONST>
0

>  <SCORE.SYSTEM.DIHEDRAL>
0

>  <SCORE.SYSTEM.SOLV>
0

>  <SCORE.SYSTEM.norm>
0

>  <SCORE.heavy>
26

>  <SCORE.norm>
-0.428113

>  <RMSD>
14.287

$$$$
ligand
 OpenBabel11021811483D
libRbt.so/2013.1/901 2013/11/27
 26 28  0  0  0  0  0  0  0  0999 V2000
   46.4157   53.1245   25.2073 N   0  0  0  0  0  0  0  0  0  0  0  0
   47.4188   52.6663   24.2422 C   0  0  2  0  0  0  0  0  0  0  0  0
   48.6914   52.1035   24.8792 C   0  0  0  0  0  0  0  0  0  0  0  0
   48.8810   50.8883   24.8225 O   0  0  0  0  0  0  0  0  0  0  0  0
   47.8625   53.7211   23.2204 C   0  0  0  0  0  0  0  0  0  0  0  0
   48.8104   53.3661   22.0881 C   0  0  0  0  0  0  0  0  0  0  0  0
   49.0612   54.8809   21.1341 S   0  0  0  0  0  0  0  0  0  0  0  0
   50.0093   53.8713   19.9708 C   0  0  0  0  0  0  0  0  0  0  0  0
   49.5954   54.0364   18.5045 C   0  0  1  0  0  0  0  0  0  0  0  0
   49.6405   55.3954   18.0549 O   0  0  0  0  0  0  0  0  0  0  0  0
   50.5078   53.2315   17.5904 C   0  0  1  0  0  0  0  0  0  0  0  0
   49.9872   51.9431   17.3489 O   0  0  0  0  0  0  0  0  0  0  0  0
   50.6272   54.0773   16.3293 C   0  0  1  0  0  0  0  0  0  0  0  0
   49.6445   53.7313   15.3742 O   0  0  0  0  0  0  0  0  0  0  0  0
   50.3252   55.4810   16.8158 C   0  0  2  0  0  0  0  0  0  0  0  0
   49.5387   52.8158   25.4321 O   0  0  0  0  0  0  0  0  0  0  0  0
   53.5608   58.8734   14.4409 N   0  0  0  0  0  0  0  0  0  0  0  0
   52.4379   58.2721   13.9310 C   0  0  0  0  0  0  0  0  0  0  0  0
   51.7196   57.3866   14.7070 N   0  0  0  0  0  0  0  0  0  0  0  0
   52.0790   57.1243   15.9760 C   0  0  0  0  0  0  0  0  0  0  0  0
   53.2079   57.7221   16.5099 C   0  0  0  0  0  0  0  0  0  0  0  0
   53.9417   58.5929   15.7292 C   0  0  0  0  0  0  0  0  0  0  0  0
   55.0136   59.1831   16.2213 N   0  0  0  0  0  0  0  0  0  0  0  0
   53.3512   57.2967   17.7849 N   0  0  0  0  0  0  0  0  0  0  0  0
   52.3485   56.4233   18.0556 C   0  0  0  0  0  0  0  0  0  0  0  0
   51.5481   56.3078   16.9402 N   0  0  0  0  0  0  0  0  0  0  0  0
  2  1  1  1  0  0  0
  2  3  1  0  0  0  0
  2  5  1  0  0  0  0
  3  4  1  0  0  0  0
  3 16  1  0  0  0  0
  5  6  1  0  0  0  0
  6  7  1  0  0  0  0
  7  8  1  0  0  0  0
  9  8  1  1  0  0  0
  9 10  1  0  0  0  0
  9 11  1  0  0  0  0
 10 15  1  0  0  0  0
 11 12  1  6  0  0  0
 11 13  1  0  0  0  0
 13 14  1  6  0  0  0
 13 15  1  0  0  0  0
 15 26  1  1  0  0  0
 17 18  2  0  0  0  0
 17 22  1  0  0  0  0
 18 19  1  0  0  0  0
 19 20  2  0  0  0  0
 20 21  1  0  0  0  0
 20 26  1  0  0  0  0
 21 22  2  0  0  0  0
 21 24  1  0  0  0  0
 22 23  1  0  0  0  0
 24 25  2  0  0  0  0
 25 26  1  0  0  0  0
M  END
>  <CHROM.1>
108.17890329,-174.99406622,179.87732231,-174.53152481,129.71169195,55.47124675
-146.24592623,50.48433818,54.99370536,19.08617000,-2.31869129,-0.91145933
-1.68316705

>  <Name>
ligand

>  <RI>
0

>  <Rbt.Current_Directory>
/home/itssahil/PROJECTS/Mol_Feturizer/New_Systems/rnas/3GX3

>  <Rbt.Executable>
rbdock ($Id: //depot/dev/client3/rdock/2013.1/src/exe/rbdock.cxx#4 $)

>  <Rbt.Library>
libRbt.so (2013.1, Build901 2013/11/27)

>  <Rbt.Parameter_File>
/export/apps/rDock/src/rDock_2013.1_src/data/scripts/dock_solv.prm

>  <Rbt.Receptor>
prm/blind_docking_100.prm

>  <SCORE>
-12.7525

>  <SCORE.INTER>
-9.7813

>  <SCORE.INTER.CONST>
1

>  <SCORE.INTER.POLAR>
0

>  <SCORE.INTER.ROT>
7

>  <SCORE.INTER.SOLV>
12.6327

>  <SCORE.INTER.VDW>
-18.9984

>  <SCORE.INTER.norm>
-0.376204

>  <SCORE.INTRA>
-2.97119

>  <SCORE.INTRA.DIHEDRAL>
-0.462176

>  <SCORE.INTRA.DIHEDRAL.0>
5.78979

>  <SCORE.INTRA.POLAR>
0

>  <SCORE.INTRA.POLAR.0>
0

>  <SCORE.INTRA.REPUL>
0

>  <SCORE.INTRA.REPUL.0>
0

>  <SCORE.INTRA.SOLV>
-1.16872

>  <SCORE.INTRA.SOLV.lig_0>
-49.9151

>  <SCORE.INTRA.VDW>
-2.15574

>  <SCORE.INTRA.VDW.0>
-0.211125

>  <SCORE.INTRA.norm>
-0.114277

>  <SCORE.RESTR>
0

>  <SCORE.RESTR.CAVITY>
0

>  <SCORE.RESTR.norm>
0

>  <SCORE.SYSTEM>
0

>  <SCORE.SYSTEM.CONST>
0

>  <SCORE.SYSTEM.DIHEDRAL>
0

>  <SCORE.SYSTEM.SOLV>
0

>  <SCORE.SYSTEM.norm>
0

>  <SCORE.heavy>
26

>  <SCORE.norm>
-0.490481

>  <RMSD>
14.384

$$$$
ligand
 OpenBabel11021811483D
libRbt.so/2013.1/901 2013/11/27
 26 28  0  0  0  0  0  0  0  0999 V2000
   49.7472   53.8093   23.9857 N   0  0  0  0  0  0  0  0  0  0  0  0
   48.3276   53.8450   23.6234 C   0  0  2  0  0  0  0  0  0  0  0  0
   47.5339   52.6167   24.0739 C   0  0  0  0  0  0  0  0  0  0  0  0
   48.1495   51.6860   24.5943 O   0  0  0  0  0  0  0  0  0  0  0  0
   48.0466   54.0312   22.1267 C   0  0  0  0  0  0  0  0  0  0  0  0
   48.5733   55.2410   21.3746 C   0  0  0  0  0  0  0  0  0  0  0  0
   47.9569   55.1012   19.6810 S   0  0  0  0  0  0  0  0  0  0  0  0
   49.5410   54.3281   19.2755 C   0  0  0  0  0  0  0  0  0  0  0  0
   49.8257   54.2159   17.7740 C   0  0  1  0  0  0  0  0  0  0  0  0
   49.9654   55.4872   17.1294 O   0  0  0  0  0  0  0  0  0  0  0  0
   51.1121   53.4426   17.5230 C   0  0  1  0  0  0  0  0  0  0  0  0
   50.8583   52.0673   17.3400 O   0  0  0  0  0  0  0  0  0  0  0  0
   51.7252   54.1086   16.2980 C   0  0  1  0  0  0  0  0  0  0  0  0
   51.3121   53.4802   15.1012 O   0  0  0  0  0  0  0  0  0  0  0  0
   51.1287   55.5021   16.3182 C   0  0  2  0  0  0  0  0  0  0  0  0
   46.3060   52.5267   23.9510 O   0  0  0  0  0  0  0  0  0  0  0  0
   55.7045   57.9279   15.4266 N   0  0  0  0  0  0  0  0  0  0  0  0
   55.1093   56.9386   14.6853 C   0  0  0  0  0  0  0  0  0  0  0  0
   53.9035   56.4063   15.0912 N   0  0  0  0  0  0  0  0  0  0  0  0
   53.2754   56.8645   16.1885 C   0  0  0  0  0  0  0  0  0  0  0  0
   53.8584   57.8636   16.9493 C   0  0  0  0  0  0  0  0  0  0  0  0
   55.0758   58.3844   16.5578 C   0  0  0  0  0  0  0  0  0  0  0  0
   55.6434   59.3452   17.2608 N   0  0  0  0  0  0  0  0  0  0  0  0
   53.0378   58.1409   17.9870 N   0  0  0  0  0  0  0  0  0  0  0  0
   51.9616   57.3181   17.9080 C   0  0  0  0  0  0  0  0  0  0  0  0
   52.0948   56.5199   16.7930 N   0  0  0  0  0  0  0  0  0  0  0  0
  2  1  1  6  0  0  0
  2  3  1  0  0  0  0
  2  5  1  0  0  0  0
  3  4  1  0  0  0  0
  3 16  1  0  0  0  0
  5  6  1  0  0  0  0
  6  7  1  0  0  0  0
  7  8  1  0  0  0  0
  9  8  1  1  0  0  0
  9 10  1  0  0  0  0
  9 11  1  0  0  0  0
 10 15  1  0  0  0  0
 11 12  1  6  0  0  0
 11 13  1  0  0  0  0
 13 14  1  6  0  0  0
 13 15  1  0  0  0  0
 15 26  1  1  0  0  0
 17 18  2  0  0  0  0
 17 22  1  0  0  0  0
 18 19  1  0  0  0  0
 19 20  2  0  0  0  0
 20 21  1  0  0  0  0
 20 26  1  0  0  0  0
 21 22  2  0  0  0  0
 21 24  1  0  0  0  0
 22 23  1  0  0  0  0
 24 25  2  0  0  0  0
 25 26  1  0  0  0  0
M  END
>  <CHROM.1>
-5.28948103,-57.98501621,-177.54032775,-95.39606494,-166.33891839,64.80726919
-175.11394893,50.89953652,55.17876826,18.76412336,-2.63793962,-0.80551839
-1.97266155

>  <Name>
ligand

>  <RI>
0

>  <Rbt.Current_Directory>
/home/itssahil/PROJECTS/Mol_Feturizer/New_Systems/rnas/3GX3

>  <Rbt.Executable>
rbdock ($Id: //depot/dev/client3/rdock/2013.1/src/exe/rbdock.cxx#4 $)

>  <Rbt.Library>
libRbt.so (2013.1, Build901 2013/11/27)

>  <Rbt.Parameter_File>
/export/apps/rDock/src/rDock_2013.1_src/data/scripts/dock_solv.prm

>  <Rbt.Receptor>
prm/blind_docking_100.prm

>  <SCORE>
-13.4988

>  <SCORE.INTER>
-10.9122

>  <SCORE.INTER.CONST>
1

>  <SCORE.INTER.POLAR>
0

>  <SCORE.INTER.ROT>
7

>  <SCORE.INTER.SOLV>
9.03528

>  <SCORE.INTER.VDW>
-18.5532

>  <SCORE.INTER.norm>
-0.419698

>  <SCORE.INTRA>
-2.5866

>  <SCORE.INTRA.DIHEDRAL>
-1.01334

>  <SCORE.INTRA.DIHEDRAL.0>
5.78979

>  <SCORE.INTRA.POLAR>
0

>  <SCORE.INTRA.POLAR.0>
0

>  <SCORE.INTRA.REPUL>
0

>  <SCORE.INTRA.REPUL.0>
0

>  <SCORE.INTRA.SOLV>
-0.524195

>  <SCORE.INTRA.SOLV.lig_0>
-49.9151

>  <SCORE.INTRA.VDW>
-1.81783

>  <SCORE.INTRA.VDW.0>
-0.211125

>  <SCORE.INTRA.norm>
-0.0994847

>  <SCORE.RESTR>
0

>  <SCORE.RESTR.CAVITY>
0

>  <SCORE.RESTR.norm>
0

>  <SCORE.SYSTEM>
0

>  <SCORE.SYSTEM.CONST>
0

>  <SCORE.SYSTEM.DIHEDRAL>
0

>  <SCORE.SYSTEM.SOLV>
0

>  <SCORE.SYSTEM.norm>
0

>  <SCORE.heavy>
26

>  <SCORE.norm>
-0.519183

>  <RMSD>
14.602

$$$$
ligand
 OpenBabel11021811483D
libRbt.so/2013.1/901 2013/11/27
 26 28  0  0  0  0  0  0  0  0999 V2000
   50.9860   52.0903   24.8874 N   0  0  0  0  0  0  0  0  0  0  0  0
   51.4325   51.6403   23.5661 C   0  0  2  0  0  0  0  0  0  0  0  0
   52.7015   50.7854   23.5900 C   0  0  0  0  0  0  0  0  0  0  0  0
   52.7866   49.8494   22.7946 O   0  0  0  0  0  0  0  0  0  0  0  0
   51.6717   52.7622   22.5474 C   0  0  0  0  0  0  0  0  0  0  0  0
   52.0781   52.4498   21.1178 C   0  0  0  0  0  0  0  0  0  0  0  0
   52.0036   54.0110   20.2097 S   0  0  0  0  0  0  0  0  0  0  0  0
   50.2418   53.6749   19.9765 C   0  0  0  0  0  0  0  0  0  0  0  0
   49.7212   53.9711   18.5660 C   0  0  1  0  0  0  0  0  0  0  0  0
   49.8332   55.3515   18.2012 O   0  0  0  0  0  0  0  0  0  0  0  0
   50.4896   53.1690   17.5257 C   0  0  1  0  0  0  0  0  0  0  0  0
   49.8531   51.9410   17.2497 O   0  0  0  0  0  0  0  0  0  0  0  0
   50.5683   54.0902   16.3151 C   0  0  1  0  0  0  0  0  0  0  0  0
   49.4857   53.8826   15.4305 O   0  0  0  0  0  0  0  0  0  0  0  0
   50.4168   55.4744   16.9145 C   0  0  2  0  0  0  0  0  0  0  0  0
   53.6451   51.0033   24.3602 O   0  0  0  0  0  0  0  0  0  0  0  0
   55.1989   56.0861   14.8228 N   0  0  0  0  0  0  0  0  0  0  0  0
   54.2100   55.2151   14.4407 C   0  0  0  0  0  0  0  0  0  0  0  0
   53.0153   55.1863   15.1291 N   0  0  0  0  0  0  0  0  0  0  0  0
   52.7831   56.0255   16.1540 C   0  0  0  0  0  0  0  0  0  0  0  0
   53.7673   56.9132   16.5541 C   0  0  0  0  0  0  0  0  0  0  0  0
   54.9726   56.9304   15.8807 C   0  0  0  0  0  0  0  0  0  0  0  0
   55.9198   57.7763   16.2370 N   0  0  0  0  0  0  0  0  0  0  0  0
   53.2916   57.6346   17.5935 N   0  0  0  0  0  0  0  0  0  0  0  0
   52.0363   57.2007   17.8714 C   0  0  0  0  0  0  0  0  0  0  0  0
   51.7058   56.2013   16.9827 N   0  0  0  0  0  0  0  0  0  0  0  0
  2  1  1  1  0  0  0
  2  3  1  0  0  0  0
  2  5  1  0  0  0  0
  3  4  1  0  0  0  0
  3 16  1  0  0  0  0
  5  6  1  0  0  0  0
  6  7  1  0  0  0  0
  7  8  1  0  0  0  0
  9  8  1  1  0  0  0
  9 10  1  0  0  0  0
  9 11  1  0  0  0  0
 10 15  1  0  0  0  0
 11 12  1  6  0  0  0
 11 13  1  0  0  0  0
 13 14  1  6  0  0  0
 13 15  1  0  0  0  0
 15 26  1  1  0  0  0
 17 18  2  0  0  0  0
 17 22  1  0  0  0  0
 18 19  1  0  0  0  0
 19 20  2  0  0  0  0
 20 21  1  0  0  0  0
 20 26  1  0  0  0  0
 21 22  2  0  0  0  0
 21 24  1  0  0  0  0
 22 23  1  0  0  0  0
 24 25  2  0  0  0  0
 25 26  1  0  0  0  0
M  END
>  <CHROM.1>
143.14725945,-177.30701091,171.47468357,-84.89029427,-137.13705396,-62.56732030
149.59921796,52.05615810,54.18717305,18.79187591,-1.71785993,-0.42123226
-1.06364889

>  <Name>
ligand

>  <RI>
0

>  <Rbt.Current_Directory>
/home/itssahil/PROJECTS/Mol_Feturizer/New_Systems/rnas/3GX3

>  <Rbt.Executable>
rbdock ($Id: //depot/dev/client3/rdock/2013.1/src/exe/rbdock.cxx#4 $)

>  <Rbt.Library>
libRbt.so (2013.1, Build901 2013/11/27)

>  <Rbt.Parameter_File>
/export/apps/rDock/src/rDock_2013.1_src/data/scripts/dock_solv.prm

>  <Rbt.Receptor>
prm/blind_docking_100.prm

>  <SCORE>
-13.3892

>  <SCORE.INTER>
-11.2137

>  <SCORE.INTER.CONST>
1

>  <SCORE.INTER.POLAR>
0

>  <SCORE.INTER.ROT>
7

>  <SCORE.INTER.SOLV>
11.4689

>  <SCORE.INTER.VDW>
-19.5654

>  <SCORE.INTER.norm>
-0.431295

>  <SCORE.INTRA>
-2.17555

>  <SCORE.INTRA.DIHEDRAL>
0.0935021

>  <SCORE.INTRA.DIHEDRAL.0>
5.78979

>  <SCORE.INTRA.POLAR>
0

>  <SCORE.INTRA.POLAR.0>
0

>  <SCORE.INTRA.REPUL>
0

>  <SCORE.INTRA.REPUL.0>
0

>  <SCORE.INTRA.SOLV>
-0.848553

>  <SCORE.INTRA.SOLV.lig_0>
-49.9151

>  <SCORE.INTRA.VDW>
-1.79802

>  <SCORE.INTRA.VDW.0>
-0.211125

>  <SCORE.INTRA.norm>
-0.0836749

>  <SCORE.RESTR>
0

>  <SCORE.RESTR.CAVITY>
0

>  <SCORE.RESTR.norm>
0

>  <SCORE.SYSTEM>
0

>  <SCORE.SYSTEM.CONST>
0

>  <SCORE.SYSTEM.DIHEDRAL>
0

>  <SCORE.SYSTEM.SOLV>
0

>  <SCORE.SYSTEM.norm>
0

>  <SCORE.heavy>
26

>  <SCORE.norm>
-0.51497

>  <RMSD>
14.900

$$$$
ligand
 OpenBabel11021811483D
libRbt.so/2013.1/901 2013/11/27
 26 28  0  0  0  0  0  0  0  0999 V2000
   54.0439   63.5427   18.6032 N   0  0  0  0  0  0  0  0  0  0  0  0
   54.2309   62.6263   17.4749 C   0  0  2  0  0  0  0  0  0  0  0  0
   54.6027   63.3167   16.1608 C   0  0  0  0  0  0  0  0  0  0  0  0
   55.5812   62.8983   15.5414 O   0  0  0  0  0  0  0  0  0  0  0  0
   53.0326   61.7164   17.1753 C   0  0  0  0  0  0  0  0  0  0  0  0
   52.4884   60.7648   18.2265 C   0  0  0  0  0  0  0  0  0  0  0  0
   53.7881   59.5481   18.5400 S   0  0  0  0  0  0  0  0  0  0  0  0
   53.1547   58.6507   17.1030 C   0  0  0  0  0  0  0  0  0  0  0  0
   53.4972   57.1571   17.0870 C   0  0  1  0  0  0  0  0  0  0  0  0
   53.0462   56.4620   18.2551 O   0  0  0  0  0  0  0  0  0  0  0  0
   52.8659   56.4697   15.8849 C   0  0  1  0  0  0  0  0  0  0  0  0
   53.7480   56.4449   14.7846 O   0  0  0  0  0  0  0  0  0  0  0  0
   52.4962   55.0810   16.3899 C   0  0  1  0  0  0  0  0  0  0  0  0
   53.5356   54.1502   16.1643 O   0  0  0  0  0  0  0  0  0  0  0  0
   52.3649   55.2735   17.8879 C   0  0  2  0  0  0  0  0  0  0  0  0
   53.9568   64.2617   15.6909 O   0  0  0  0  0  0  0  0  0  0  0  0
   48.7909   53.4308   21.2715 N   0  0  0  0  0  0  0  0  0  0  0  0
   50.1195   53.1017   21.1767 C   0  0  0  0  0  0  0  0  0  0  0  0
   50.9040   53.6823   20.2023 N   0  0  0  0  0  0  0  0  0  0  0  0
   50.3988   54.5989   19.3578 C   0  0  0  0  0  0  0  0  0  0  0  0
   49.0610   54.9462   19.4380 C   0  0  0  0  0  0  0  0  0  0  0  0
   48.2674   54.3514   20.3986 C   0  0  0  0  0  0  0  0  0  0  0  0
   46.9932   54.6763   20.5010 N   0  0  0  0  0  0  0  0  0  0  0  0
   48.8054   55.8741   18.4889 N   0  0  0  0  0  0  0  0  0  0  0  0
   49.9505   56.0989   17.7965 C   0  0  0  0  0  0  0  0  0  0  0  0
   50.9508   55.3141   18.3272 N   0  0  0  0  0  0  0  0  0  0  0  0
  2  1  1  1  0  0  0
  2  3  1  0  0  0  0
  2  5  1  0  0  0  0
  3  4  1  0  0  0  0
  3 16  1  0  0  0  0
  5  6  1  0  0  0  0
  6  7  1  0  0  0  0
  7  8  1  0  0  0  0
  9  8  1  1  0  0  0
  9 10  1  0  0  0  0
  9 11  1  0  0  0  0
 10 15  1  0  0  0  0
 11 12  1  6  0  0  0
 11 13  1  0  0  0  0
 13 14  1  1  0  0  0
 13 15  1  0  0  0  0
 15 26  1  6  0  0  0
 17 18  2  0  0  0  0
 17 22  1  0  0  0  0
 18 19  1  0  0  0  0
 19 20  2  0  0  0  0
 20 21  1  0  0  0  0
 20 26  1  0  0  0  0
 21 22  2  0  0  0  0
 21 24  1  0  0  0  0
 22 23  1  0  0  0  0
 24 25  2  0  0  0  0
 25 26  1  0  0  0  0
M  END
>  <CHROM.1>
129.14669859,-58.61304669,-65.31228662,-84.14079412,-157.17869374,56.65398235
-107.27963668,52.12577280,57.66170480,17.95265762,0.86370779,0.76656670,0.20032581

>  <Name>
ligand

>  <RI>
0

>  <Rbt.Current_Directory>
/home/itssahil/PROJECTS/Mol_Feturizer/New_Systems/rnas/3GX3

>  <Rbt.Executable>
rbdock ($Id: //depot/dev/client3/rdock/2013.1/src/exe/rbdock.cxx#4 $)

>  <Rbt.Library>
libRbt.so (2013.1, Build901 2013/11/27)

>  <Rbt.Parameter_File>
/export/apps/rDock/src/rDock_2013.1_src/data/scripts/dock_solv.prm

>  <Rbt.Receptor>
prm/blind_docking_100.prm

>  <SCORE>
-10.0725

>  <SCORE.INTER>
-7.62609

>  <SCORE.INTER.CONST>
1

>  <SCORE.INTER.POLAR>
0

>  <SCORE.INTER.ROT>
7

>  <SCORE.INTER.SOLV>
8.11693

>  <SCORE.INTER.VDW>
-16.0564

>  <SCORE.INTER.norm>
-0.293311

>  <SCORE.INTRA>
-2.45342

>  <SCORE.INTRA.DIHEDRAL>
-1.26874

>  <SCORE.INTRA.DIHEDRAL.0>
5.78979

>  <SCORE.INTRA.POLAR>
0

>  <SCORE.INTRA.POLAR.0>
0

>  <SCORE.INTRA.REPUL>
0

>  <SCORE.INTRA.REPUL.0>
0

>  <SCORE.INTRA.SOLV>
-0.00823777

>  <SCORE.INTRA.SOLV.lig_0>
-49.9151

>  <SCORE.INTRA.VDW>
-1.81493

>  <SCORE.INTRA.VDW.0>
-0.211125

>  <SCORE.INTRA.norm>
-0.0943624

>  <SCORE.RESTR>
0.00700608

>  <SCORE.RESTR.CAVITY>
0.00700608

>  <SCORE.RESTR.norm>
0.000269465

>  <SCORE.SYSTEM>
0

>  <SCORE.SYSTEM.CONST>
0

>  <SCORE.SYSTEM.DIHEDRAL>
0

>  <SCORE.SYSTEM.SOLV>
0

>  <SCORE.SYSTEM.norm>
0

>  <SCORE.heavy>
26

>  <SCORE.norm>
-0.387404

>  <RMSD>
14.909

$$$$
ligand
 OpenBabel11021811483D
libRbt.so/2013.1/901 2013/11/27
 26 28  0  0  0  0  0  0  0  0999 V2000
   54.0389   63.0753   18.2869 N   0  0  0  0  0  0  0  0  0  0  0  0
   54.6104   62.0185   17.4476 C   0  0  2  0  0  0  0  0  0  0  0  0
   54.7174   62.3834   15.9653 C   0  0  0  0  0  0  0  0  0  0  0  0
   53.7473   62.1603   15.2406 O   0  0  0  0  0  0  0  0  0  0  0  0
   53.8835   60.6696   17.5218 C   0  0  0  0  0  0  0  0  0  0  0  0
   54.4820   59.4209   16.8978 C   0  0  0  0  0  0  0  0  0  0  0  0
   53.2886   58.0900   17.1663 S   0  0  0  0  0  0  0  0  0  0  0  0
   54.5902   56.9522   16.6345 C   0  0  0  0  0  0  0  0  0  0  0  0
   54.1094   55.5237   16.3578 C   0  0  1  0  0  0  0  0  0  0  0  0
   53.3428   54.9681   17.4324 O   0  0  0  0  0  0  0  0  0  0  0  0
   53.2348   55.4783   15.1132 C   0  0  1  0  0  0  0  0  0  0  0  0
   53.9957   55.1958   13.9597 O   0  0  0  0  0  0  0  0  0  0  0  0
   52.1900   54.4130   15.4195 C   0  0  1  0  0  0  0  0  0  0  0  0
   52.6004   53.1364   14.9729 O   0  0  0  0  0  0  0  0  0  0  0  0
   52.1509   54.3823   16.9347 C   0  0  2  0  0  0  0  0  0  0  0  0
   55.7258   62.9030   15.4713 O   0  0  0  0  0  0  0  0  0  0  0  0
   47.7429   53.8826   19.7521 N   0  0  0  0  0  0  0  0  0  0  0  0
   48.6623   52.9148   19.4349 C   0  0  0  0  0  0  0  0  0  0  0  0
   49.7587   53.2348   18.6619 N   0  0  0  0  0  0  0  0  0  0  0  0
   49.9668   54.4940   18.2381 C   0  0  0  0  0  0  0  0  0  0  0  0
   49.0520   55.4856   18.5489 C   0  0  0  0  0  0  0  0  0  0  0  0
   47.9420   55.1647   19.3047 C   0  0  0  0  0  0  0  0  0  0  0  0
   47.0640   56.0960   19.6230 N   0  0  0  0  0  0  0  0  0  0  0  0
   49.4852   56.6471   18.0101 N   0  0  0  0  0  0  0  0  0  0  0  0
   50.6419   56.4006   17.3449 C   0  0  0  0  0  0  0  0  0  0  0  0
   50.9549   55.0657   17.4798 N   0  0  0  0  0  0  0  0  0  0  0  0
  2  1  1  1  0  0  0
  2  3  1  0  0  0  0
  2  5  1  0  0  0  0
  3  4  1  0  0  0  0
  3 16  1  0  0  0  0
  5  6  1  0  0  0  0
  6  7  1  0  0  0  0
  7  8  1  0  0  0  0
  9  8  1  1  0  0  0
  9 10  1  0  0  0  0
  9 11  1  0  0  0  0
 10 15  1  0  0  0  0
 11 12  1  6  0  0  0
 11 13  1  0  0  0  0
 13 14  1  1  0  0  0
 13 15  1  0  0  0  0
 15 26  1  1  0  0  0
 17 18  2  0  0  0  0
 17 22  1  0  0  0  0
 18 19  1  0  0  0  0
 19 20  2  0  0  0  0
 20 21  1  0  0  0  0
 20 26  1  0  0  0  0
 21 22  2  0  0  0  0
 21 24  1  0  0  0  0
 22 23  1  0  0  0  0
 24 25  2  0  0  0  0
 25 26  1  0  0  0  0
M  END
>  <CHROM.1>
-87.64431429,-169.72687678,-178.17752475,-168.28066866,-168.15562395,-51.15564351
-119.60119854,52.15356249,57.03762039,17.13420195,0.80723777,0.62282741,0.25954296

>  <Name>
ligand

>  <RI>
0

>  <Rbt.Current_Directory>
/home/itssahil/PROJECTS/Mol_Feturizer/New_Systems/rnas/3GX3

>  <Rbt.Executable>
rbdock ($Id: //depot/dev/client3/rdock/2013.1/src/exe/rbdock.cxx#4 $)

>  <Rbt.Library>
libRbt.so (2013.1, Build901 2013/11/27)

>  <Rbt.Parameter_File>
/export/apps/rDock/src/rDock_2013.1_src/data/scripts/dock_solv.prm

>  <Rbt.Receptor>
prm/blind_docking_100.prm

>  <SCORE>
-13.0129

>  <SCORE.INTER>
-9.65582

>  <SCORE.INTER.CONST>
1

>  <SCORE.INTER.POLAR>
0

>  <SCORE.INTER.ROT>
7

>  <SCORE.INTER.SOLV>
12.984

>  <SCORE.INTER.VDW>
-19.0319

>  <SCORE.INTER.norm>
-0.371378

>  <SCORE.INTRA>
-3.35705

>  <SCORE.INTRA.DIHEDRAL>
-1.91777

>  <SCORE.INTRA.DIHEDRAL.0>
5.78979

>  <SCORE.INTRA.POLAR>
0

>  <SCORE.INTRA.POLAR.0>
0

>  <SCORE.INTRA.REPUL>
0

>  <SCORE.INTRA.REPUL.0>
0

>  <SCORE.INTRA.SOLV>
-0.896334

>  <SCORE.INTRA.SOLV.lig_0>
-49.9151

>  <SCORE.INTRA.VDW>
-1.95

>  <SCORE.INTRA.VDW.0>
-0.211125

>  <SCORE.INTRA.norm>
-0.129117

>  <SCORE.RESTR>
0

>  <SCORE.RESTR.CAVITY>
0

>  <SCORE.RESTR.norm>
0

>  <SCORE.SYSTEM>
0

>  <SCORE.SYSTEM.CONST>
0

>  <SCORE.SYSTEM.DIHEDRAL>
0

>  <SCORE.SYSTEM.SOLV>
0

>  <SCORE.SYSTEM.norm>
0

>  <SCORE.heavy>
26

>  <SCORE.norm>
-0.500495

>  <RMSD>
15.476

$$$$
ligand
 OpenBabel11021811483D
libRbt.so/2013.1/901 2013/11/27
 26 28  0  0  0  0  0  0  0  0999 V2000
   53.0324   59.5426   11.3517 N   0  0  0  0  0  0  0  0  0  0  0  0
   52.5012   58.4402   12.1581 C   0  0  2  0  0  0  0  0  0  0  0  0
   51.2076   58.7749   12.9039 C   0  0  0  0  0  0  0  0  0  0  0  0
   50.4633   57.8468   13.2214 O   0  0  0  0  0  0  0  0  0  0  0  0
   53.4768   57.8688   13.1951 C   0  0  0  0  0  0  0  0  0  0  0  0
   53.1761   56.5698   13.9223 C   0  0  0  0  0  0  0  0  0  0  0  0
   54.4947   56.3446   15.1381 S   0  0  0  0  0  0  0  0  0  0  0  0
   53.7744   54.7188   15.4688 C   0  0  0  0  0  0  0  0  0  0  0  0
   52.4079   54.7598   16.1610 C   0  0  1  0  0  0  0  0  0  0  0  0
   52.0214   53.5002   16.7224 O   0  0  0  0  0  0  0  0  0  0  0  0
   52.4052   55.7752   17.2945 C   0  0  1  0  0  0  0  0  0  0  0  0
   51.9583   57.0380   16.8529 O   0  0  0  0  0  0  0  0  0  0  0  0
   51.5062   55.1580   18.3579 C   0  0  1  0  0  0  0  0  0  0  0  0
   50.1629   55.5714   18.2093 O   0  0  0  0  0  0  0  0  0  0  0  0
   51.5694   53.6738   18.0554 C   0  0  2  0  0  0  0  0  0  0  0  0
   50.8879   59.9299   13.2118 O   0  0  0  0  0  0  0  0  0  0  0  0
   51.9766   51.5836   22.8599 N   0  0  0  0  0  0  0  0  0  0  0  0
   50.9099   52.2499   22.3113 C   0  0  0  0  0  0  0  0  0  0  0  0
   50.9966   52.7482   21.0283 N   0  0  0  0  0  0  0  0  0  0  0  0
   52.1009   52.5628   20.2836 C   0  0  0  0  0  0  0  0  0  0  0  0
   53.1875   51.8917   20.8180 C   0  0  0  0  0  0  0  0  0  0  0  0
   53.1125   51.4098   22.1097 C   0  0  0  0  0  0  0  0  0  0  0  0
   54.1311   50.7567   22.6345 N   0  0  0  0  0  0  0  0  0  0  0  0
   54.1592   51.8414   19.8796 N   0  0  0  0  0  0  0  0  0  0  0  0
   53.7145   52.4900   18.7737 C   0  0  0  0  0  0  0  0  0  0  0  0
   52.4347   52.9423   19.0097 N   0  0  0  0  0  0  0  0  0  0  0  0
  2  1  1  1  0  0  0
  2  3  1  0  0  0  0
  2  5  1  0  0  0  0
  3  4  1  0  0  0  0
  3 16  1  0  0  0  0
  5  6  1  0  0  0  0
  6  7  1  0  0  0  0
  7  8  1  0  0  0  0
  9  8  1  1  0  0  0
  9 10  1  0  0  0  0
  9 11  1  0  0  0  0
 10 15  1  0  0  0  0
 11 12  1  6  0  0  0
 11 13  1  0  0  0  0
 13 14  1  6  0  0  0
 13 15  1  0  0  0  0
 15 26  1  1  0  0  0
 17 18  2  0  0  0  0
 17 22  1  0  0  0  0
 18 19  1  0  0  0  0
 19 20  2  0  0  0  0
 20 21  1  0  0  0  0
 20 26  1  0  0  0  0
 21 22  2  0  0  0  0
 21 24  1  0  0  0  0
 22 23  1  0  0  0  0
 24 25  2  0  0  0  0
 25 26  1  0  0  0  0
M  END
>  <CHROM.1>
155.97754259,-168.48483239,-175.16286823,-173.41699428,-68.91487980,-164.58938477
-159.65156616,52.44796770,55.01149338,17.17165900,-1.59618053,-0.42015004
2.22193193

>  <Name>
ligand

>  <RI>
0

>  <Rbt.Current_Directory>
/home/itssahil/PROJECTS/Mol_Feturizer/New_Systems/rnas/3GX3

>  <Rbt.Executable>
rbdock ($Id: //depot/dev/client3/rdock/2013.1/src/exe/rbdock.cxx#4 $)

>  <Rbt.Library>
libRbt.so (2013.1, Build901 2013/11/27)

>  <Rbt.Parameter_File>
/export/apps/rDock/src/rDock_2013.1_src/data/scripts/dock_solv.prm

>  <Rbt.Receptor>
prm/blind_docking_100.prm

>  <SCORE>
-12.939

>  <SCORE.INTER>
-10.4596

>  <SCORE.INTER.CONST>
1

>  <SCORE.INTER.POLAR>
0

>  <SCORE.INTER.ROT>
7

>  <SCORE.INTER.SOLV>
8.35274

>  <SCORE.INTER.VDW>
-18.024

>  <SCORE.INTER.norm>
-0.402292

>  <SCORE.INTRA>
-2.47941

>  <SCORE.INTRA.DIHEDRAL>
-1.4166

>  <SCORE.INTRA.DIHEDRAL.0>
5.78979

>  <SCORE.INTRA.POLAR>
0

>  <SCORE.INTRA.POLAR.0>
0

>  <SCORE.INTRA.REPUL>
0

>  <SCORE.INTRA.REPUL.0>
0

>  <SCORE.INTRA.SOLV>
-0.626253

>  <SCORE.INTRA.SOLV.lig_0>
-49.9151

>  <SCORE.INTRA.VDW>
-1.45798

>  <SCORE.INTRA.VDW.0>
-0.211125

>  <SCORE.INTRA.norm>
-0.0953619

>  <SCORE.RESTR>
0

>  <SCORE.RESTR.CAVITY>
0

>  <SCORE.RESTR.norm>
0

>  <SCORE.SYSTEM>
0

>  <SCORE.SYSTEM.CONST>
0

>  <SCORE.SYSTEM.DIHEDRAL>
0

>  <SCORE.SYSTEM.SOLV>
0

>  <SCORE.SYSTEM.norm>
0

>  <SCORE.heavy>
26

>  <SCORE.norm>
-0.497654

>  <RMSD>
15.508

$$$$
ligand
 OpenBabel11021811483D
libRbt.so/2013.1/901 2013/11/27
 26 28  0  0  0  0  0  0  0  0999 V2000
   46.6818   54.4216   21.0242 N   0  0  0  0  0  0  0  0  0  0  0  0
   48.0705   54.1232   21.3850 C   0  0  2  0  0  0  0  0  0  0  0  0
   48.7795   55.2512   22.1378 C   0  0  0  0  0  0  0  0  0  0  0  0
   48.1966   56.3298   22.2515 O   0  0  0  0  0  0  0  0  0  0  0  0
   48.9757   53.7367   20.2082 C   0  0  0  0  0  0  0  0  0  0  0  0
   49.2410   54.7080   19.0711 C   0  0  0  0  0  0  0  0  0  0  0  0
   50.2967   53.8387   17.8889 S   0  0  0  0  0  0  0  0  0  0  0  0
   50.4106   55.4054   16.9924 C   0  0  0  0  0  0  0  0  0  0  0  0
   51.3629   55.3812   15.7920 C   0  0  1  0  0  0  0  0  0  0  0  0
   51.3565   56.6010   15.0417 O   0  0  0  0  0  0  0  0  0  0  0  0
   52.7962   55.1398   16.2427 C   0  0  1  0  0  0  0  0  0  0  0  0
   53.1161   53.7662   16.2270 O   0  0  0  0  0  0  0  0  0  0  0  0
   53.6426   55.9647   15.2819 C   0  0  1  0  0  0  0  0  0  0  0  0
   54.0458   55.2066   14.1592 O   0  0  0  0  0  0  0  0  0  0  0  0
   52.6845   57.0349   14.7971 C   0  0  2  0  0  0  0  0  0  0  0  0
   49.9001   55.1206   22.6458 O   0  0  0  0  0  0  0  0  0  0  0  0
   53.1516   62.2191   14.0731 N   0  0  0  0  0  0  0  0  0  0  0  0
   52.8985   61.2501   13.1352 C   0  0  0  0  0  0  0  0  0  0  0  0
   52.8288   59.9263   13.5158 N   0  0  0  0  0  0  0  0  0  0  0  0
   52.9697   59.5648   14.8034 C   0  0  0  0  0  0  0  0  0  0  0  0
   53.2239   60.5274   15.7654 C   0  0  0  0  0  0  0  0  0  0  0  0
   53.3155   61.8516   15.3852 C   0  0  0  0  0  0  0  0  0  0  0  0
   53.5447   62.7866   16.2867 N   0  0  0  0  0  0  0  0  0  0  0  0
   53.3248   59.9128   16.9651 N   0  0  0  0  0  0  0  0  0  0  0  0
   53.1641   58.5791   16.7730 C   0  0  0  0  0  0  0  0  0  0  0  0
   52.9403   58.3480   15.4334 N   0  0  0  0  0  0  0  0  0  0  0  0
  2  1  1  6  0  0  0
  2  3  1  0  0  0  0
  2  5  1  0  0  0  0
  3  4  1  0  0  0  0
  3 16  1  0  0  0  0
  5  6  1  0  0  0  0
  6  7  1  0  0  0  0
  7  8  1  0  0  0  0
  9  8  1  1  0  0  0
  9 10  1  0  0  0  0
  9 11  1  0  0  0  0
 10 15  1  0  0  0  0
 11 12  1  6  0  0  0
 11 13  1  0  0  0  0
 13 14  1  6  0  0  0
 13 15  1  0  0  0  0
 15 26  1  1  0  0  0
 17 18  2  0  0  0  0
 17 22  1  0  0  0  0
 18 19  1  0  0  0  0
 19 20  2  0  0  0  0
 20 21  1  0  0  0  0
 20 26  1  0  0  0  0
 21 22  2  0  0  0  0
 21 24  1  0  0  0  0
 22 23  1  0  0  0  0
 24 25  2  0  0  0  0
 25 26  1  0  0  0  0
M  END
>  <CHROM.1>
-7.27798044,61.82939151,-178.12498851,-173.88200425,175.19024864,175.53206478
-102.14192718,51.47749318,56.93109818,17.14440157,2.63884553,-0.99928712
-2.96236502

>  <Name>
ligand

>  <RI>
0

>  <Rbt.Current_Directory>
/home/itssahil/PROJECTS/Mol_Feturizer/New_Systems/rnas/3GX3

>  <Rbt.Executable>
rbdock ($Id: //depot/dev/client3/rdock/2013.1/src/exe/rbdock.cxx#4 $)

>  <Rbt.Library>
libRbt.so (2013.1, Build901 2013/11/27)

>  <Rbt.Parameter_File>
/export/apps/rDock/src/rDock_2013.1_src/data/scripts/dock_solv.prm

>  <Rbt.Receptor>
prm/blind_docking_100.prm

>  <SCORE>
-14.9035

>  <SCORE.INTER>
-11.2903

>  <SCORE.INTER.CONST>
1

>  <SCORE.INTER.POLAR>
0

>  <SCORE.INTER.ROT>
7

>  <SCORE.INTER.SOLV>
9.12281

>  <SCORE.INTER.VDW>
-18.8344

>  <SCORE.INTER.norm>
-0.434241

>  <SCORE.INTRA>
-3.61328

>  <SCORE.INTRA.DIHEDRAL>
-2.80994

>  <SCORE.INTRA.DIHEDRAL.0>
5.78979

>  <SCORE.INTRA.POLAR>
0

>  <SCORE.INTRA.POLAR.0>
0

>  <SCORE.INTRA.REPUL>
0

>  <SCORE.INTRA.REPUL.0>
0

>  <SCORE.INTRA.SOLV>
-0.384

>  <SCORE.INTRA.SOLV.lig_0>
-49.9151

>  <SCORE.INTRA.VDW>
-2.0163

>  <SCORE.INTRA.VDW.0>
-0.211125

>  <SCORE.INTRA.norm>
-0.138972

>  <SCORE.RESTR>
0

>  <SCORE.RESTR.CAVITY>
0

>  <SCORE.RESTR.norm>
0

>  <SCORE.SYSTEM>
0

>  <SCORE.SYSTEM.CONST>
0

>  <SCORE.SYSTEM.DIHEDRAL>
0

>  <SCORE.SYSTEM.SOLV>
0

>  <SCORE.SYSTEM.norm>
0

>  <SCORE.heavy>
26

>  <SCORE.norm>
-0.573213

>  <RMSD>
15.782

$$$$
ligand
 OpenBabel11021811483D
libRbt.so/2013.1/901 2013/11/27
 26 28  0  0  0  0  0  0  0  0999 V2000
   53.6841   63.9681   20.9433 N   0  0  0  0  0  0  0  0  0  0  0  0
   53.2588   62.6149   21.3116 C   0  0  2  0  0  0  0  0  0  0  0  0
   54.3456   61.7785   21.9906 C   0  0  0  0  0  0  0  0  0  0  0  0
   54.0061   60.9929   22.8758 O   0  0  0  0  0  0  0  0  0  0  0  0
   52.7083   61.7724   20.1536 C   0  0  0  0  0  0  0  0  0  0  0  0
   53.5879   61.3870   18.9770 C   0  0  0  0  0  0  0  0  0  0  0  0
   52.6499   60.1842   18.0068 S   0  0  0  0  0  0  0  0  0  0  0  0
   53.7050   60.6391   16.6100 C   0  0  0  0  0  0  0  0  0  0  0  0
   53.9477   59.5087   15.6043 C   0  0  1  0  0  0  0  0  0  0  0  0
   54.1248   58.2299   16.2243 O   0  0  0  0  0  0  0  0  0  0  0  0
   52.7771   59.3809   14.6403 C   0  0  1  0  0  0  0  0  0  0  0  0
   52.9848   60.1471   13.4744 O   0  0  0  0  0  0  0  0  0  0  0  0
   52.6698   57.8865   14.3658 C   0  0  1  0  0  0  0  0  0  0  0  0
   53.4261   57.5086   13.2332 O   0  0  0  0  0  0  0  0  0  0  0  0
   53.3157   57.2567   15.5842 C   0  0  2  0  0  0  0  0  0  0  0  0
   55.5411   61.8479   21.6790 O   0  0  0  0  0  0  0  0  0  0  0  0
   50.4820   53.0425   16.9364 N   0  0  0  0  0  0  0  0  0  0  0  0
   51.3682   53.1720   15.8969 C   0  0  0  0  0  0  0  0  0  0  0  0
   52.0104   54.3742   15.6866 N   0  0  0  0  0  0  0  0  0  0  0  0
   51.8120   55.4212   16.5069 C   0  0  0  0  0  0  0  0  0  0  0  0
   50.9232   55.3105   17.5626 C   0  0  0  0  0  0  0  0  0  0  0  0
   50.2623   54.1151   17.7638 C   0  0  0  0  0  0  0  0  0  0  0  0
   49.4205   53.9834   18.7706 N   0  0  0  0  0  0  0  0  0  0  0  0
   50.9024   56.4882   18.2258 N   0  0  0  0  0  0  0  0  0  0  0  0
   51.7420   57.3460   17.5927 C   0  0  0  0  0  0  0  0  0  0  0  0
   52.3165   56.6954   16.5228 N   0  0  0  0  0  0  0  0  0  0  0  0
  2  1  1  6  0  0  0
  2  3  1  0  0  0  0
  2  5  1  0  0  0  0
  3  4  1  0  0  0  0
  3 16  1  0  0  0  0
  5  6  1  0  0  0  0
  6  7  1  0  0  0  0
  7  8  1  0  0  0  0
  9  8  1  1  0  0  0
  9 10  1  0  0  0  0
  9 11  1  0  0  0  0
 10 15  1  0  0  0  0
 11 12  1  6  0  0  0
 11 13  1  0  0  0  0
 13 14  1  6  0  0  0
 13 15  1  0  0  0  0
 15 26  1  1  0  0  0
 17 18  2  0  0  0  0
 17 22  1  0  0  0  0
 18 19  1  0  0  0  0
 19 20  2  0  0  0  0
 20 21  1  0  0  0  0
 20 26  1  0  0  0  0
 21 22  2  0  0  0  0
 21 24  1  0  0  0  0
 22 23  1  0  0  0  0
 24 25  2  0  0  0  0
 25 26  1  0  0  0  0
M  END
>  <CHROM.1>
144.70540538,63.54061152,170.54324459,158.08209012,149.58147822,-39.04208631
-148.44709703,52.67357247,58.45531099,17.60779147,0.83841528,1.13543786,1.27208121

>  <Name>
ligand

>  <RI>
0

>  <Rbt.Current_Directory>
/home/itssahil/PROJECTS/Mol_Feturizer/New_Systems/rnas/3GX3

>  <Rbt.Executable>
rbdock ($Id: //depot/dev/client3/rdock/2013.1/src/exe/rbdock.cxx#4 $)

>  <Rbt.Library>
libRbt.so (2013.1, Build901 2013/11/27)

>  <Rbt.Parameter_File>
/export/apps/rDock/src/rDock_2013.1_src/data/scripts/dock_solv.prm

>  <Rbt.Receptor>
prm/blind_docking_100.prm

>  <SCORE>
-8.86607

>  <SCORE.INTER>
-6.46044

>  <SCORE.INTER.CONST>
1

>  <SCORE.INTER.POLAR>
0

>  <SCORE.INTER.ROT>
7

>  <SCORE.INTER.SOLV>
11.4017

>  <SCORE.INTER.VDW>
-16.3742

>  <SCORE.INTER.norm>
-0.248479

>  <SCORE.INTRA>
-2.40563

>  <SCORE.INTRA.DIHEDRAL>
0.778612

>  <SCORE.INTRA.DIHEDRAL.0>
5.78979

>  <SCORE.INTRA.POLAR>
0

>  <SCORE.INTRA.POLAR.0>
0

>  <SCORE.INTRA.REPUL>
0

>  <SCORE.INTRA.REPUL.0>
0

>  <SCORE.INTRA.SOLV>
-0.336428

>  <SCORE.INTRA.SOLV.lig_0>
-49.9151

>  <SCORE.INTRA.VDW>
-2.62672

>  <SCORE.INTRA.VDW.0>
-0.211125

>  <SCORE.INTRA.norm>
-0.0925242

>  <SCORE.RESTR>
0

>  <SCORE.RESTR.CAVITY>
0

>  <SCORE.RESTR.norm>
0

>  <SCORE.SYSTEM>
0

>  <SCORE.SYSTEM.CONST>
0

>  <SCORE.SYSTEM.DIHEDRAL>
0

>  <SCORE.SYSTEM.SOLV>
0

>  <SCORE.SYSTEM.norm>
0

>  <SCORE.heavy>
26

>  <SCORE.norm>
-0.341003

>  <RMSD>
15.979

$$$$
ligand
 OpenBabel11021811483D
libRbt.so/2013.1/901 2013/11/27
 26 28  0  0  0  0  0  0  0  0999 V2000
   56.4393   62.1573   24.0570 N   0  0  0  0  0  0  0  0  0  0  0  0
   55.0433   62.4956   23.7660 C   0  0  2  0  0  0  0  0  0  0  0  0
   54.2272   61.3417   23.1792 C   0  0  0  0  0  0  0  0  0  0  0  0
   53.0160   61.3161   23.3990 O   0  0  0  0  0  0  0  0  0  0  0  0
   54.8503   63.6967   22.8312 C   0  0  0  0  0  0  0  0  0  0  0  0
   53.4614   64.1931   22.4690 C   0  0  0  0  0  0  0  0  0  0  0  0
   53.6874   65.5013   21.2421 S   0  0  0  0  0  0  0  0  0  0  0  0
   53.9675   64.1829   20.0360 C   0  0  0  0  0  0  0  0  0  0  0  0
   52.7253   63.3464   19.7112 C   0  0  1  0  0  0  0  0  0  0  0  0
   51.6401   64.1248   19.1940 O   0  0  0  0  0  0  0  0  0  0  0  0
   53.0464   62.2804   18.6736 C   0  0  1  0  0  0  0  0  0  0  0  0
   53.4185   61.0644   19.2837 O   0  0  0  0  0  0  0  0  0  0  0  0
   51.7793   62.1691   17.8358 C   0  0  1  0  0  0  0  0  0  0  0  0
   50.9067   61.1776   18.3389 O   0  0  0  0  0  0  0  0  0  0  0  0
   51.1094   63.5154   18.0284 C   0  0  2  0  0  0  0  0  0  0  0  0
   54.7281   60.4476   22.4858 O   0  0  0  0  0  0  0  0  0  0  0  0
   49.4642   64.6386   13.1653 N   0  0  0  0  0  0  0  0  0  0  0  0
   49.0279   63.6410   14.0002 C   0  0  0  0  0  0  0  0  0  0  0  0
   49.5983   63.4889   15.2466 N   0  0  0  0  0  0  0  0  0  0  0  0
   50.5571   64.3266   15.6793 C   0  0  0  0  0  0  0  0  0  0  0  0
   51.0102   65.3408   14.8529 C   0  0  0  0  0  0  0  0  0  0  0  0
   50.4564   65.4832   13.5961 C   0  0  0  0  0  0  0  0  0  0  0  0
   50.8642   66.4500   12.7969 N   0  0  0  0  0  0  0  0  0  0  0  0
   51.9654   66.0324   15.5136 N   0  0  0  0  0  0  0  0  0  0  0  0
   52.1399   65.4575   16.7303 C   0  0  0  0  0  0  0  0  0  0  0  0
   51.2691   64.3964   16.8482 N   0  0  0  0  0  0  0  0  0  0  0  0
  2  1  1  6  0  0  0
  2  3  1  0  0  0  0
  2  5  1  0  0  0  0
  3  4  1  0  0  0  0
  3 16  1  0  0  0  0
  5  6  1  0  0  0  0
  6  7  1  0  0  0  0
  7  8  1  0  0  0  0
  9  8  1  6  0  0  0
  9 10  1  0  0  0  0
  9 11  1  0  0  0  0
 10 15  1  0  0  0  0
 11 12  1  1  0  0  0
 11 13  1  0  0  0  0
 13 14  1  1  0  0  0
 13 15  1  0  0  0  0
 15 26  1  6  0  0  0
 17 18  2  0  0  0  0
 17 22  1  0  0  0  0
 18 19  1  0  0  0  0
 19 20  2  0  0  0  0
 20 21  1  0  0  0  0
 20 26  1  0  0  0  0
 21 22  2  0  0  0  0
 21 24  1  0  0  0  0
 22 23  1  0  0  0  0
 24 25  2  0  0  0  0
 25 26  1  0  0  0  0
M  END
>  <CHROM.1>
150.99602726,-178.21913171,-174.76224570,77.63113048,68.74877290,58.61259273
-159.61120826,52.42923990,63.57914588,18.81413835,-0.64215605,-1.00954042
-0.44344300

>  <Name>
ligand

>  <RI>
0

>  <Rbt.Current_Directory>
/home/itssahil/PROJECTS/Mol_Feturizer/New_Systems/rnas/3GX3

>  <Rbt.Executable>
rbdock ($Id: //depot/dev/client3/rdock/2013.1/src/exe/rbdock.cxx#4 $)

>  <Rbt.Library>
libRbt.so (2013.1, Build901 2013/11/27)

>  <Rbt.Parameter_File>
/export/apps/rDock/src/rDock_2013.1_src/data/scripts/dock_solv.prm

>  <Rbt.Receptor>
prm/blind_docking_100.prm

>  <SCORE>
-11.3705

>  <SCORE.INTER>
-8.68504

>  <SCORE.INTER.CONST>
1

>  <SCORE.INTER.POLAR>
0

>  <SCORE.INTER.ROT>
7

>  <SCORE.INTER.SOLV>
8.37898

>  <SCORE.INTER.VDW>
-16.8497

>  <SCORE.INTER.norm>
-0.33404

>  <SCORE.INTRA>
-2.68549

>  <SCORE.INTRA.DIHEDRAL>
-2.24785

>  <SCORE.INTRA.DIHEDRAL.0>
5.78979

>  <SCORE.INTRA.POLAR>
0

>  <SCORE.INTRA.POLAR.0>
0

>  <SCORE.INTRA.REPUL>
0

>  <SCORE.INTRA.REPUL.0>
0

>  <SCORE.INTRA.SOLV>
-1.00251

>  <SCORE.INTRA.SOLV.lig_0>
-49.9151

>  <SCORE.INTRA.VDW>
-1.06031

>  <SCORE.INTRA.VDW.0>
-0.211125

>  <SCORE.INTRA.norm>
-0.103288

>  <SCORE.RESTR>
0

>  <SCORE.RESTR.CAVITY>
0

>  <SCORE.RESTR.norm>
0

>  <SCORE.SYSTEM>
0

>  <SCORE.SYSTEM.CONST>
0

>  <SCORE.SYSTEM.DIHEDRAL>
0

>  <SCORE.SYSTEM.SOLV>
0

>  <SCORE.SYSTEM.norm>
0

>  <SCORE.heavy>
26

>  <SCORE.norm>
-0.437328

>  <RMSD>
16.094

$$$$
ligand
 OpenBabel11021811483D
libRbt.so/2013.1/901 2013/11/27
 26 28  0  0  0  0  0  0  0  0999 V2000
   53.0031   50.3513   21.7505 N   0  0  0  0  0  0  0  0  0  0  0  0
   53.8830   50.5227   22.9099 C   0  0  2  0  0  0  0  0  0  0  0  0
   55.2563   51.1085   22.5743 C   0  0  0  0  0  0  0  0  0  0  0  0
   55.6098   51.1215   21.3949 O   0  0  0  0  0  0  0  0  0  0  0  0
   54.1311   49.2485   23.7274 C   0  0  0  0  0  0  0  0  0  0  0  0
   55.1157   48.1930   23.2549 C   0  0  0  0  0  0  0  0  0  0  0  0
   54.6433   47.7712   21.5618 S   0  0  0  0  0  0  0  0  0  0  0  0
   55.0814   46.0650   21.9721 C   0  0  0  0  0  0  0  0  0  0  0  0
   54.5588   45.0203   20.9802 C   0  0  1  0  0  0  0  0  0  0  0  0
   54.5727   43.6876   21.5043 O   0  0  0  0  0  0  0  0  0  0  0  0
   53.1243   45.3277   20.5757 C   0  0  1  0  0  0  0  0  0  0  0  0
   53.0770   46.1180   19.4084 O   0  0  0  0  0  0  0  0  0  0  0  0
   52.4753   43.9606   20.4022 C   0  0  1  0  0  0  0  0  0  0  0  0
   52.5750   43.5012   19.0693 O   0  0  0  0  0  0  0  0  0  0  0  0
   53.3262   43.0534   21.2688 C   0  0  2  0  0  0  0  0  0  0  0  0
   56.0145   51.5795   23.4311 O   0  0  0  0  0  0  0  0  0  0  0  0
   48.8108   43.0009   23.9571 N   0  0  0  0  0  0  0  0  0  0  0  0
   49.0359   43.4606   22.6840 C   0  0  0  0  0  0  0  0  0  0  0  0
   50.3057   43.4079   22.1484 N   0  0  0  0  0  0  0  0  0  0  0  0
   51.3305   42.8784   22.8398 C   0  0  0  0  0  0  0  0  0  0  0  0
   51.1240   42.4075   24.1252 C   0  0  0  0  0  0  0  0  0  0  0  0
   49.8585   42.4779   24.6729 C   0  0  0  0  0  0  0  0  0  0  0  0
   49.6364   42.0239   25.8911 N   0  0  0  0  0  0  0  0  0  0  0  0
   52.2984   41.9338   24.5979 N   0  0  0  0  0  0  0  0  0  0  0  0
   53.2455   42.1206   23.6442 C   0  0  0  0  0  0  0  0  0  0  0  0
   52.6574   42.7055   22.5441 N   0  0  0  0  0  0  0  0  0  0  0  0
  2  1  1  6  0  0  0
  2  3  1  0  0  0  0
  2  5  1  0  0  0  0
  3  4  1  0  0  0  0
  3 16  1  0  0  0  0
  5  6  1  0  0  0  0
  6  7  1  0  0  0  0
  7  8  1  0  0  0  0
  9  8  1  1  0  0  0
  9 10  1  0  0  0  0
  9 11  1  0  0  0  0
 10 15  1  0  0  0  0
 11 12  1  6  0  0  0
 11 13  1  0  0  0  0
 13 14  1  6  0  0  0
 13 15  1  0  0  0  0
 15 26  1  1  0  0  0
 17 18  2  0  0  0  0
 17 22  1  0  0  0  0
 18 19  1  0  0  0  0
 19 20  2  0  0  0  0
 20 21  1  0  0  0  0
 20 26  1  0  0  0  0
 21 22  2  0  0  0  0
 21 24  1  0  0  0  0
 22 23  1  0  0  0  0
 24 25  2  0  0  0  0
 25 26  1  0  0  0  0
M  END
>  <CHROM.1>
-14.77118865,78.42819710,-52.99301891,-142.33590495,164.85689817,-162.99927547
136.58813256,53.03154179,45.70097344,22.32266808,0.68905857,0.92047061,0.63300212

>  <Name>
ligand

>  <RI>
0

>  <Rbt.Current_Directory>
/home/itssahil/PROJECTS/Mol_Feturizer/New_Systems/rnas/3GX3

>  <Rbt.Executable>
rbdock ($Id: //depot/dev/client3/rdock/2013.1/src/exe/rbdock.cxx#4 $)

>  <Rbt.Library>
libRbt.so (2013.1, Build901 2013/11/27)

>  <Rbt.Parameter_File>
/export/apps/rDock/src/rDock_2013.1_src/data/scripts/dock_solv.prm

>  <Rbt.Receptor>
prm/blind_docking_80.prm

>  <SCORE>
-15.962

>  <SCORE.INTER>
-15.7159

>  <SCORE.INTER.CONST>
1

>  <SCORE.INTER.POLAR>
0

>  <SCORE.INTER.ROT>
7

>  <SCORE.INTER.SOLV>
18.9884

>  <SCORE.INTER.VDW>
-25.0734

>  <SCORE.INTER.norm>
-0.604457

>  <SCORE.INTRA>
-0.246103

>  <SCORE.INTRA.DIHEDRAL>
1.32929

>  <SCORE.INTRA.DIHEDRAL.0>
5.78979

>  <SCORE.INTRA.POLAR>
0

>  <SCORE.INTRA.POLAR.0>
0

>  <SCORE.INTRA.REPUL>
0

>  <SCORE.INTRA.REPUL.0>
0

>  <SCORE.INTRA.SOLV>
0.935031

>  <SCORE.INTRA.SOLV.lig_0>
-49.9151

>  <SCORE.INTRA.VDW>
-1.37827

>  <SCORE.INTRA.VDW.0>
-0.211125

>  <SCORE.INTRA.norm>
-0.00946551

>  <SCORE.RESTR>
0

>  <SCORE.RESTR.CAVITY>
0

>  <SCORE.RESTR.norm>
0

>  <SCORE.SYSTEM>
0

>  <SCORE.SYSTEM.CONST>
0

>  <SCORE.SYSTEM.DIHEDRAL>
0

>  <SCORE.SYSTEM.SOLV>
0

>  <SCORE.SYSTEM.norm>
0

>  <SCORE.heavy>
26

>  <SCORE.norm>
-0.613922

>  <RMSD>
16.213

$$$$
ligand
 OpenBabel11021811483D
libRbt.so/2013.1/901 2013/11/27
 26 28  0  0  0  0  0  0  0  0999 V2000
   52.1722   51.5338   25.6592 N   0  0  0  0  0  0  0  0  0  0  0  0
   51.8813   51.9967   24.2995 C   0  0  2  0  0  0  0  0  0  0  0  0
   50.4265   51.8000   23.8674 C   0  0  0  0  0  0  0  0  0  0  0  0
   49.6830   51.1546   24.6069 O   0  0  0  0  0  0  0  0  0  0  0  0
   52.7580   51.3767   23.2038 C   0  0  0  0  0  0  0  0  0  0  0  0
   52.9685   49.8747   23.1242 C   0  0  0  0  0  0  0  0  0  0  0  0
   53.8911   49.5654   21.6008 S   0  0  0  0  0  0  0  0  0  0  0  0
   54.0549   47.8553   22.1665 C   0  0  0  0  0  0  0  0  0  0  0  0
   54.6767   46.9042   21.1384 C   0  0  1  0  0  0  0  0  0  0  0  0
   54.9865   45.6142   21.6777 O   0  0  0  0  0  0  0  0  0  0  0  0
   53.7336   46.6842   19.9644 C   0  0  1  0  0  0  0  0  0  0  0  0
   53.9866   47.6007   18.9226 O   0  0  0  0  0  0  0  0  0  0  0  0
   53.9621   45.2343   19.5576 C   0  0  1  0  0  0  0  0  0  0  0  0
   54.9582   45.1229   18.5612 O   0  0  0  0  0  0  0  0  0  0  0  0
   54.4993   44.5934   20.8221 C   0  0  2  0  0  0  0  0  0  0  0  0
   49.9660   52.2716   22.8203 O   0  0  0  0  0  0  0  0  0  0  0  0
   53.4581   40.0036   23.1604 N   0  0  0  0  0  0  0  0  0  0  0  0
   54.6346   40.4176   22.5885 C   0  0  0  0  0  0  0  0  0  0  0  0
   54.7125   41.6628   22.0006 N   0  0  0  0  0  0  0  0  0  0  0  0
   53.6614   42.5016   22.0070 C   0  0  0  0  0  0  0  0  0  0  0  0
   52.4658   42.1036   22.5806 C   0  0  0  0  0  0  0  0  0  0  0  0
   52.3775   40.8495   23.1514 C   0  0  0  0  0  0  0  0  0  0  0  0
   51.2521   40.4544   23.7143 N   0  0  0  0  0  0  0  0  0  0  0  0
   51.5775   43.1148   22.4559 N   0  0  0  0  0  0  0  0  0  0  0  0
   52.1833   44.1319   21.7926 C   0  0  0  0  0  0  0  0  0  0  0  0
   53.4807   43.7655   21.5088 N   0  0  0  0  0  0  0  0  0  0  0  0
  2  1  1  1  0  0  0
  2  3  1  0  0  0  0
  2  5  1  0  0  0  0
  3  4  1  0  0  0  0
  3 16  1  0  0  0  0
  5  6  1  0  0  0  0
  6  7  1  0  0  0  0
  7  8  1  0  0  0  0
  9  8  1  1  0  0  0
  9 10  1  0  0  0  0
  9 11  1  0  0  0  0
 10 15  1  0  0  0  0
 11 12  1  6  0  0  0
 11 13  1  0  0  0  0
 13 14  1  6  0  0  0
 13 15  1  0  0  0  0
 15 26  1  1  0  0  0
 17 18  2  0  0  0  0
 17 22  1  0  0  0  0
 18 19  1  0  0  0  0
 19 20  2  0  0  0  0
 20 21  1  0  0  0  0
 20 26  1  0  0  0  0
 21 22  2  0  0  0  0
 21 24  1  0  0  0  0
 22 23  1  0  0  0  0
 24 25  2  0  0  0  0
 25 26  1  0  0  0  0
M  END
>  <CHROM.1>
-7.95850026,49.05471141,173.62329072,171.59149396,172.74485719,170.81709697
-104.34695892,53.05268410,46.37743607,22.13753944,1.85129505,0.89508284,-0.08215211

>  <Name>
ligand

>  <RI>
0

>  <Rbt.Current_Directory>
/home/itssahil/PROJECTS/Mol_Feturizer/New_Systems/rnas/3GX3

>  <Rbt.Executable>
rbdock ($Id: //depot/dev/client3/rdock/2013.1/src/exe/rbdock.cxx#4 $)

>  <Rbt.Library>
libRbt.so (2013.1, Build901 2013/11/27)

>  <Rbt.Parameter_File>
/export/apps/rDock/src/rDock_2013.1_src/data/scripts/dock_solv.prm

>  <Rbt.Receptor>
prm/blind_docking_100.prm

>  <SCORE>
-9.0646

>  <SCORE.INTER>
-5.87093

>  <SCORE.INTER.CONST>
1

>  <SCORE.INTER.POLAR>
0

>  <SCORE.INTER.ROT>
7

>  <SCORE.INTER.SOLV>
16.2738

>  <SCORE.INTER.VDW>
-17.6052

>  <SCORE.INTER.norm>
-0.225805

>  <SCORE.INTRA>
-3.19442

>  <SCORE.INTRA.DIHEDRAL>
-1.86212

>  <SCORE.INTRA.DIHEDRAL.0>
5.78979

>  <SCORE.INTRA.POLAR>
0

>  <SCORE.INTRA.POLAR.0>
0

>  <SCORE.INTRA.REPUL>
0

>  <SCORE.INTRA.REPUL.0>
0

>  <SCORE.INTRA.SOLV>
-0.316446

>  <SCORE.INTRA.SOLV.lig_0>
-49.9151

>  <SCORE.INTRA.VDW>
-2.10514

>  <SCORE.INTRA.VDW.0>
-0.211125

>  <SCORE.INTRA.norm>
-0.122862

>  <SCORE.RESTR>
0.000742131

>  <SCORE.RESTR.CAVITY>
0.000742131

>  <SCORE.RESTR.norm>
2.85435e-05

>  <SCORE.SYSTEM>
0

>  <SCORE.SYSTEM.CONST>
0

>  <SCORE.SYSTEM.DIHEDRAL>
0

>  <SCORE.SYSTEM.SOLV>
0

>  <SCORE.SYSTEM.norm>
0

>  <SCORE.heavy>
26

>  <SCORE.norm>
-0.348638

>  <RMSD>
16.407

$$$$
ligand
 OpenBabel11021811483D
libRbt.so/2013.1/901 2013/11/27
 26 28  0  0  0  0  0  0  0  0999 V2000
   55.9086   61.4111   23.1711 N   0  0  0  0  0  0  0  0  0  0  0  0
   55.0100   62.0977   22.2390 C   0  0  2  0  0  0  0  0  0  0  0  0
   53.5643   62.2093   22.7282 C   0  0  0  0  0  0  0  0  0  0  0  0
   53.0138   61.1921   23.1504 O   0  0  0  0  0  0  0  0  0  0  0  0
   54.9567   61.4946   20.8293 C   0  0  0  0  0  0  0  0  0  0  0  0
   54.3201   62.2510   19.6764 C   0  0  0  0  0  0  0  0  0  0  0  0
   52.5386   61.9703   19.7994 S   0  0  0  0  0  0  0  0  0  0  0  0
   52.3376   63.7276   19.4212 C   0  0  0  0  0  0  0  0  0  0  0  0
   51.8523   64.0180   17.9969 C   0  0  1  0  0  0  0  0  0  0  0  0
   52.7636   63.5690   16.9875 O   0  0  0  0  0  0  0  0  0  0  0  0
   50.5175   63.3373   17.7303 C   0  0  1  0  0  0  0  0  0  0  0  0
   49.4358   64.1937   18.0230 O   0  0  0  0  0  0  0  0  0  0  0  0
   50.5823   62.9310   16.2637 C   0  0  1  0  0  0  0  0  0  0  0  0
   50.0490   63.9326   15.4210 O   0  0  0  0  0  0  0  0  0  0  0  0
   52.0703   62.8392   15.9884 C   0  0  2  0  0  0  0  0  0  0  0  0
   52.9352   63.2747   22.7307 O   0  0  0  0  0  0  0  0  0  0  0  0
   53.4071   58.8126   12.8872 N   0  0  0  0  0  0  0  0  0  0  0  0
   52.9666   60.0586   12.5185 C   0  0  0  0  0  0  0  0  0  0  0  0
   52.6431   60.9875   13.4852 N   0  0  0  0  0  0  0  0  0  0  0  0
   52.7851   60.7081   14.7930 C   0  0  0  0  0  0  0  0  0  0  0  0
   53.2298   59.4573   15.1859 C   0  0  0  0  0  0  0  0  0  0  0  0
   53.5345   58.5174   14.2214 C   0  0  0  0  0  0  0  0  0  0  0  0
   53.9716   57.3237   14.5728 N   0  0  0  0  0  0  0  0  0  0  0  0
   53.2830   59.4302   16.5363 N   0  0  0  0  0  0  0  0  0  0  0  0
   52.8563   60.6314   17.0015 C   0  0  0  0  0  0  0  0  0  0  0  0
   52.5451   61.4373   15.9283 N   0  0  0  0  0  0  0  0  0  0  0  0
  2  1  1  1  0  0  0
  2  3  1  0  0  0  0
  2  5  1  0  0  0  0
  3  4  1  0  0  0  0
  3 16  1  0  0  0  0
  5  6  1  0  0  0  0
  6  7  1  0  0  0  0
  7  8  1  0  0  0  0
  9  8  1  1  0  0  0
  9 10  1  0  0  0  0
  9 11  1  0  0  0  0
 10 15  1  0  0  0  0
 11 12  1  6  0  0  0
 11 13  1  0  0  0  0
 13 14  1  6  0  0  0
 13 15  1  0  0  0  0
 15 26  1  1  0  0  0
 17 18  2  0  0  0  0
 17 22  1  0  0  0  0
 18 19  1  0  0  0  0
 19 20  2  0  0  0  0
 20 21  1  0  0  0  0
 20 26  1  0  0  0  0
 21 22  2  0  0  0  0
 21 24  1  0  0  0  0
 22 23  1  0  0  0  0
 24 25  2  0  0  0  0
 25 26  1  0  0  0  0
M  END
>  <CHROM.1>
-49.29546745,-166.62649675,-82.01982528,137.42939193,105.46712380,-62.14610310
-138.05018616,52.76623638,61.69287861,17.85606813,-1.39244373,0.84591831
-1.97570856

>  <Name>
ligand

>  <RI>
0

>  <Rbt.Current_Directory>
/home/itssahil/PROJECTS/Mol_Feturizer/New_Systems/rnas/3GX3

>  <Rbt.Executable>
rbdock ($Id: //depot/dev/client3/rdock/2013.1/src/exe/rbdock.cxx#4 $)

>  <Rbt.Library>
libRbt.so (2013.1, Build901 2013/11/27)

>  <Rbt.Parameter_File>
/export/apps/rDock/src/rDock_2013.1_src/data/scripts/dock_solv.prm

>  <Rbt.Receptor>
prm/blind_docking_100.prm

>  <SCORE>
-13.8039

>  <SCORE.INTER>
-11.4307

>  <SCORE.INTER.CONST>
1

>  <SCORE.INTER.POLAR>
0

>  <SCORE.INTER.ROT>
7

>  <SCORE.INTER.SOLV>
9.23107

>  <SCORE.INTER.VDW>
-18.9641

>  <SCORE.INTER.norm>
-0.439641

>  <SCORE.INTRA>
-2.37324

>  <SCORE.INTRA.DIHEDRAL>
3.34186

>  <SCORE.INTRA.DIHEDRAL.0>
5.78979

>  <SCORE.INTRA.POLAR>
0

>  <SCORE.INTRA.POLAR.0>
0

>  <SCORE.INTRA.REPUL>
0

>  <SCORE.INTRA.REPUL.0>
0

>  <SCORE.INTRA.SOLV>
-0.573035

>  <SCORE.INTRA.SOLV.lig_0>
-49.9151

>  <SCORE.INTRA.VDW>
-3.75765

>  <SCORE.INTRA.VDW.0>
-0.211125

>  <SCORE.INTRA.norm>
-0.0912786

>  <SCORE.RESTR>
0

>  <SCORE.RESTR.CAVITY>
0

>  <SCORE.RESTR.norm>
0

>  <SCORE.SYSTEM>
0

>  <SCORE.SYSTEM.CONST>
0

>  <SCORE.SYSTEM.DIHEDRAL>
0

>  <SCORE.SYSTEM.SOLV>
0

>  <SCORE.SYSTEM.norm>
0

>  <SCORE.heavy>
26

>  <SCORE.norm>
-0.530919

>  <RMSD>
16.590

$$$$
ligand
 OpenBabel11021811483D
libRbt.so/2013.1/901 2013/11/27
 26 28  0  0  0  0  0  0  0  0999 V2000
   51.7249   56.2854   15.5027 N   0  0  0  0  0  0  0  0  0  0  0  0
   52.4104   55.0173   15.2384 C   0  0  2  0  0  0  0  0  0  0  0  0
   52.7378   54.2073   16.4947 C   0  0  0  0  0  0  0  0  0  0  0  0
   53.4700   54.7195   17.3418 O   0  0  0  0  0  0  0  0  0  0  0  0
   53.7129   55.1409   14.4373 C   0  0  0  0  0  0  0  0  0  0  0  0
   54.8435   56.0369   14.9122 C   0  0  0  0  0  0  0  0  0  0  0  0
   54.2946   57.7392   14.6500 S   0  0  0  0  0  0  0  0  0  0  0  0
   55.5736   58.2270   15.8322 C   0  0  0  0  0  0  0  0  0  0  0  0
   55.1036   59.2196   16.9009 C   0  0  1  0  0  0  0  0  0  0  0  0
   54.9789   60.5595   16.4110 O   0  0  0  0  0  0  0  0  0  0  0  0
   53.7444   58.8165   17.4540 C   0  0  1  0  0  0  0  0  0  0  0  0
   53.8754   58.0044   18.5997 O   0  0  0  0  0  0  0  0  0  0  0  0
   53.0381   60.1372   17.7314 C   0  0  1  0  0  0  0  0  0  0  0  0
   53.2587   60.5785   19.0559 O   0  0  0  0  0  0  0  0  0  0  0  0
   53.7308   61.1107   16.7983 C   0  0  2  0  0  0  0  0  0  0  0  0
   52.2887   53.0727   16.6999 O   0  0  0  0  0  0  0  0  0  0  0  0
   49.5372   63.7082   14.9860 N   0  0  0  0  0  0  0  0  0  0  0  0
   50.0044   63.6434   16.2744 C   0  0  0  0  0  0  0  0  0  0  0  0
   51.1214   62.8879   16.5637 N   0  0  0  0  0  0  0  0  0  0  0  0
   51.7895   62.2359   15.5956 C   0  0  0  0  0  0  0  0  0  0  0  0
   51.3354   62.2899   14.2888 C   0  0  0  0  0  0  0  0  0  0  0  0
   50.2052   63.0281   13.9987 C   0  0  0  0  0  0  0  0  0  0  0  0
   49.7620   63.1035   12.7588 N   0  0  0  0  0  0  0  0  0  0  0  0
   52.1707   61.5580   13.5183 N   0  0  0  0  0  0  0  0  0  0  0  0
   53.1272   61.0237   14.3190 C   0  0  0  0  0  0  0  0  0  0  0  0
   52.9039   61.4385   15.6137 N   0  0  0  0  0  0  0  0  0  0  0  0
  2  1  1  1  0  0  0
  2  3  1  0  0  0  0
  2  5  1  0  0  0  0
  3  4  1  0  0  0  0
  3 16  1  0  0  0  0
  5  6  1  0  0  0  0
  6  7  1  0  0  0  0
  7  8  1  0  0  0  0
  9  8  1  6  0  0  0
  9 10  1  0  0  0  0
  9 11  1  0  0  0  0
 10 15  1  0  0  0  0
 11 12  1  1  0  0  0
 11 13  1  0  0  0  0
 13 14  1  1  0  0  0
 13 15  1  0  0  0  0
 15 26  1  6  0  0  0
 17 18  2  0  0  0  0
 17 22  1  0  0  0  0
 18 19  1  0  0  0  0
 19 20  2  0  0  0  0
 20 21  1  0  0  0  0
 20 26  1  0  0  0  0
 21 22  2  0  0  0  0
 21 24  1  0  0  0  0
 22 23  1  0  0  0  0
 24 25  2  0  0  0  0
 25 26  1  0  0  0  0
M  END
>  <CHROM.1>
-60.22015164,55.81279089,-72.06273547,161.10300019,-133.42553774,-76.46240426
-164.83663414,52.84581795,59.19720436,15.84374131,1.05187268,0.89954694,-2.86849447

>  <Name>
ligand

>  <RI>
0

>  <Rbt.Current_Directory>
/home/itssahil/PROJECTS/Mol_Feturizer/New_Systems/rnas/3GX3

>  <Rbt.Executable>
rbdock ($Id: //depot/dev/client3/rdock/2013.1/src/exe/rbdock.cxx#4 $)

>  <Rbt.Library>
libRbt.so (2013.1, Build901 2013/11/27)

>  <Rbt.Parameter_File>
/export/apps/rDock/src/rDock_2013.1_src/data/scripts/dock_solv.prm

>  <Rbt.Receptor>
prm/blind_docking_100.prm

>  <SCORE>
-8.76197

>  <SCORE.INTER>
-7.17611

>  <SCORE.INTER.CONST>
1

>  <SCORE.INTER.POLAR>
0

>  <SCORE.INTER.ROT>
7

>  <SCORE.INTER.SOLV>
9.85672

>  <SCORE.INTER.VDW>
-16.3363

>  <SCORE.INTER.norm>
-0.276004

>  <SCORE.INTRA>
-1.58586

>  <SCORE.INTRA.DIHEDRAL>
1.24804

>  <SCORE.INTRA.DIHEDRAL.0>
5.78979

>  <SCORE.INTRA.POLAR>
0

>  <SCORE.INTRA.POLAR.0>
0

>  <SCORE.INTRA.REPUL>
0

>  <SCORE.INTRA.REPUL.0>
0

>  <SCORE.INTRA.SOLV>
2.03419

>  <SCORE.INTRA.SOLV.lig_0>
-49.9151

>  <SCORE.INTRA.VDW>
-3.22697

>  <SCORE.INTRA.VDW.0>
-0.211125

>  <SCORE.INTRA.norm>
-0.0609945

>  <SCORE.RESTR>
0

>  <SCORE.RESTR.CAVITY>
0

>  <SCORE.RESTR.norm>
0

>  <SCORE.SYSTEM>
0

>  <SCORE.SYSTEM.CONST>
0

>  <SCORE.SYSTEM.DIHEDRAL>
0

>  <SCORE.SYSTEM.SOLV>
0

>  <SCORE.SYSTEM.norm>
0

>  <SCORE.heavy>
26

>  <SCORE.norm>
-0.336999

>  <RMSD>
16.808

$$$$
ligand
 OpenBabel11021811483D
libRbt.so/2013.1/901 2013/11/27
 26 28  0  0  0  0  0  0  0  0999 V2000
   48.7251   54.3165   20.1258 N   0  0  0  0  0  0  0  0  0  0  0  0
   48.5801   55.4957   19.2678 C   0  0  2  0  0  0  0  0  0  0  0  0
   47.1406   55.9951   19.1255 C   0  0  0  0  0  0  0  0  0  0  0  0
   46.9464   57.0368   18.4984 O   0  0  0  0  0  0  0  0  0  0  0  0
   49.1370   55.3344   17.8474 C   0  0  0  0  0  0  0  0  0  0  0  0
   50.5084   54.7278   17.6070 C   0  0  0  0  0  0  0  0  0  0  0  0
   50.6435   54.4531   15.8254 S   0  0  0  0  0  0  0  0  0  0  0  0
   52.1357   53.4974   16.1880 C   0  0  0  0  0  0  0  0  0  0  0  0
   53.4459   54.2641   15.9791 C   0  0  1  0  0  0  0  0  0  0  0  0
   53.5780   54.8074   14.6606 O   0  0  0  0  0  0  0  0  0  0  0  0
   53.5548   55.4263   16.9555 C   0  0  1  0  0  0  0  0  0  0  0  0
   54.2358   55.0483   18.1314 O   0  0  0  0  0  0  0  0  0  0  0  0
   54.2710   56.5181   16.1712 C   0  0  1  0  0  0  0  0  0  0  0  0
   55.6716   56.4557   16.3503 O   0  0  0  0  0  0  0  0  0  0  0  0
   53.9736   56.1678   14.7265 C   0  0  2  0  0  0  0  0  0  0  0  0
   46.1693   55.3921   19.5986 O   0  0  0  0  0  0  0  0  0  0  0  0
   52.8873   59.7542   11.0421 N   0  0  0  0  0  0  0  0  0  0  0  0
   54.0825   59.1284   11.2917 C   0  0  0  0  0  0  0  0  0  0  0  0
   54.1804   58.2197   12.3245 N   0  0  0  0  0  0  0  0  0  0  0  0
   53.1111   57.9044   13.0767 C   0  0  0  0  0  0  0  0  0  0  0  0
   51.8955   58.5233   12.8399 C   0  0  0  0  0  0  0  0  0  0  0  0
   51.7988   59.4494   11.8204 C   0  0  0  0  0  0  0  0  0  0  0  0
   50.6476   60.0420   11.5692 N   0  0  0  0  0  0  0  0  0  0  0  0
   50.9934   58.0395   13.7227 N   0  0  0  0  0  0  0  0  0  0  0  0
   51.6240   57.1466   14.5268 C   0  0  0  0  0  0  0  0  0  0  0  0
   52.9414   57.0507   14.1353 N   0  0  0  0  0  0  0  0  0  0  0  0
  2  1  1  6  0  0  0
  2  3  1  0  0  0  0
  2  5  1  0  0  0  0
  3  4  1  0  0  0  0
  3 16  1  0  0  0  0
  5  6  1  0  0  0  0
  6  7  1  0  0  0  0
  7  8  1  0  0  0  0
  9  8  1  6  0  0  0
  9 10  1  0  0  0  0
  9 11  1  0  0  0  0
 10 15  1  0  0  0  0
 11 12  1  1  0  0  0
 11 13  1  0  0  0  0
 13 14  1  6  0  0  0
 13 15  1  0  0  0  0
 15 26  1  1  0  0  0
 17 18  2  0  0  0  0
 17 22  1  0  0  0  0
 18 19  1  0  0  0  0
 19 20  2  0  0  0  0
 20 21  1  0  0  0  0
 20 26  1  0  0  0  0
 21 22  2  0  0  0  0
 21 24  1  0  0  0  0
 22 23  1  0  0  0  0
 24 25  2  0  0  0  0
 25 26  1  0  0  0  0
M  END
>  <CHROM.1>
174.95117844,-46.39195058,170.09868487,-169.12007802,-99.18948683,-55.66729596
-120.66306405,51.57851766,56.38941127,15.62299139,-2.20108334,0.29004505
-0.89334344

>  <Name>
ligand

>  <RI>
0

>  <Rbt.Current_Directory>
/home/itssahil/PROJECTS/Mol_Feturizer/New_Systems/rnas/3GX3

>  <Rbt.Executable>
rbdock ($Id: //depot/dev/client3/rdock/2013.1/src/exe/rbdock.cxx#4 $)

>  <Rbt.Library>
libRbt.so (2013.1, Build901 2013/11/27)

>  <Rbt.Parameter_File>
/export/apps/rDock/src/rDock_2013.1_src/data/scripts/dock_solv.prm

>  <Rbt.Receptor>
prm/blind_docking_100.prm

>  <SCORE>
-17.5589

>  <SCORE.INTER>
-14.9596

>  <SCORE.INTER.CONST>
1

>  <SCORE.INTER.POLAR>
0

>  <SCORE.INTER.ROT>
7

>  <SCORE.INTER.SOLV>
8.44245

>  <SCORE.INTER.VDW>
-21.0539

>  <SCORE.INTER.norm>
-0.575367

>  <SCORE.INTRA>
-2.59934

>  <SCORE.INTRA.DIHEDRAL>
0.018428

>  <SCORE.INTRA.DIHEDRAL.0>
5.78979

>  <SCORE.INTRA.POLAR>
0

>  <SCORE.INTRA.POLAR.0>
0

>  <SCORE.INTRA.REPUL>
0

>  <SCORE.INTRA.REPUL.0>
0

>  <SCORE.INTRA.SOLV>
-0.0360895

>  <SCORE.INTRA.SOLV.lig_0>
-49.9151

>  <SCORE.INTRA.VDW>
-2.59051

>  <SCORE.INTRA.VDW.0>
-0.211125

>  <SCORE.INTRA.norm>
-0.0999748

>  <SCORE.RESTR>
0

>  <SCORE.RESTR.CAVITY>
0

>  <SCORE.RESTR.norm>
0

>  <SCORE.SYSTEM>
0

>  <SCORE.SYSTEM.CONST>
0

>  <SCORE.SYSTEM.DIHEDRAL>
0

>  <SCORE.SYSTEM.SOLV>
0

>  <SCORE.SYSTEM.norm>
0

>  <SCORE.heavy>
26

>  <SCORE.norm>
-0.675342

>  <RMSD>
17.005

$$$$
ligand
 OpenBabel11021811483D
libRbt.so/2013.1/901 2013/11/27
 26 28  0  0  0  0  0  0  0  0999 V2000
   55.4417   63.0276   23.3172 N   0  0  0  0  0  0  0  0  0  0  0  0
   54.1894   62.6563   22.6526 C   0  0  2  0  0  0  0  0  0  0  0  0
   53.6282   61.2996   23.0842 C   0  0  0  0  0  0  0  0  0  0  0  0
   54.4132   60.3592   23.2088 O   0  0  0  0  0  0  0  0  0  0  0  0
   54.2494   62.6449   21.1197 C   0  0  0  0  0  0  0  0  0  0  0  0
   53.0154   62.3385   20.2889 C   0  0  0  0  0  0  0  0  0  0  0  0
   53.5555   62.2937   18.5644 S   0  0  0  0  0  0  0  0  0  0  0  0
   51.8097   62.4532   18.1190 C   0  0  0  0  0  0  0  0  0  0  0  0
   51.5356   63.4267   16.9677 C   0  0  1  0  0  0  0  0  0  0  0  0
   52.3678   63.1981   15.8248 O   0  0  0  0  0  0  0  0  0  0  0  0
   50.0917   63.3186   16.4993 C   0  0  1  0  0  0  0  0  0  0  0  0
   49.2631   64.2432   17.1686 O   0  0  0  0  0  0  0  0  0  0  0  0
   50.1596   63.5516   14.9956 C   0  0  1  0  0  0  0  0  0  0  0  0
   49.9863   64.9162   14.6709 O   0  0  0  0  0  0  0  0  0  0  0  0
   51.5839   63.1698   14.6433 C   0  0  2  0  0  0  0  0  0  0  0  0
   52.4290   61.1134   23.3257 O   0  0  0  0  0  0  0  0  0  0  0  0
   53.4016   58.2479   14.9411 N   0  0  0  0  0  0  0  0  0  0  0  0
   53.5712   59.2716   15.8389 C   0  0  0  0  0  0  0  0  0  0  0  0
   53.0292   60.5125   15.5772 N   0  0  0  0  0  0  0  0  0  0  0  0
   52.3016   60.7335   14.4681 C   0  0  0  0  0  0  0  0  0  0  0  0
   52.1172   59.7133   13.5505 C   0  0  0  0  0  0  0  0  0  0  0  0
   52.6761   58.4754   13.7986 C   0  0  0  0  0  0  0  0  0  0  0  0
   52.5028   57.4857   12.9441 N   0  0  0  0  0  0  0  0  0  0  0  0
   51.3608   60.1868   12.5352 N   0  0  0  0  0  0  0  0  0  0  0  0
   51.0867   61.4923   12.7838 C   0  0  0  0  0  0  0  0  0  0  0  0
   51.6638   61.8457   13.9839 N   0  0  0  0  0  0  0  0  0  0  0  0
  2  1  1  1  0  0  0
  2  3  1  0  0  0  0
  2  5  1  0  0  0  0
  3  4  1  0  0  0  0
  3 16  1  0  0  0  0
  5  6  1  0  0  0  0
  6  7  1  0  0  0  0
  7  8  1  0  0  0  0
  9  8  1  1  0  0  0
  9 10  1  0  0  0  0
  9 11  1  0  0  0  0
 10 15  1  0  0  0  0
 11 12  1  1  0  0  0
 11 13  1  0  0  0  0
 13 14  1  1  0  0  0
 13 15  1  0  0  0  0
 15 26  1  1  0  0  0
 17 18  2  0  0  0  0
 17 22  1  0  0  0  0
 18 19  1  0  0  0  0
 19 20  2  0  0  0  0
 20 21  1  0  0  0  0
 20 26  1  0  0  0  0
 21 22  2  0  0  0  0
 21 24  1  0  0  0  0
 22 23  1  0  0  0  0
 24 25  2  0  0  0  0
 25 26  1  0  0  0  0
M  END
>  <CHROM.1>
-42.73392649,-177.34641409,-175.36073013,-163.28900084,137.53087249,49.67229988
5.24433077,52.40716683,61.70289968,17.27479729,-1.08712146,0.99415013,-2.11055158

>  <Name>
ligand

>  <RI>
0

>  <Rbt.Current_Directory>
/home/itssahil/PROJECTS/Mol_Feturizer/New_Systems/rnas/3GX3

>  <Rbt.Executable>
rbdock ($Id: //depot/dev/client3/rdock/2013.1/src/exe/rbdock.cxx#4 $)

>  <Rbt.Library>
libRbt.so (2013.1, Build901 2013/11/27)

>  <Rbt.Parameter_File>
/export/apps/rDock/src/rDock_2013.1_src/data/scripts/dock_solv.prm

>  <Rbt.Receptor>
prm/blind_docking_100.prm

>  <SCORE>
-14.4167

>  <SCORE.INTER>
-11.1397

>  <SCORE.INTER.CONST>
1

>  <SCORE.INTER.POLAR>
0

>  <SCORE.INTER.ROT>
7

>  <SCORE.INTER.SOLV>
9.05451

>  <SCORE.INTER.VDW>
-18.7113

>  <SCORE.INTER.norm>
-0.428449

>  <SCORE.INTRA>
-3.27705

>  <SCORE.INTRA.DIHEDRAL>
-0.131045

>  <SCORE.INTRA.DIHEDRAL.0>
5.78979

>  <SCORE.INTRA.POLAR>
0

>  <SCORE.INTRA.POLAR.0>
0

>  <SCORE.INTRA.REPUL>
0

>  <SCORE.INTRA.REPUL.0>
0

>  <SCORE.INTRA.SOLV>
-1.02795

>  <SCORE.INTRA.SOLV.lig_0>
-49.9151

>  <SCORE.INTRA.VDW>
-2.69756

>  <SCORE.INTRA.VDW.0>
-0.211125

>  <SCORE.INTRA.norm>
-0.126041

>  <SCORE.RESTR>
0

>  <SCORE.RESTR.CAVITY>
0

>  <SCORE.RESTR.norm>
0

>  <SCORE.SYSTEM>
0

>  <SCORE.SYSTEM.CONST>
0

>  <SCORE.SYSTEM.DIHEDRAL>
0

>  <SCORE.SYSTEM.SOLV>
0

>  <SCORE.SYSTEM.norm>
0

>  <SCORE.heavy>
26

>  <SCORE.norm>
-0.55449

>  <RMSD>
17.083

$$$$
ligand
 OpenBabel11021811483D
libRbt.so/2013.1/901 2013/11/27
 26 28  0  0  0  0  0  0  0  0999 V2000
   58.7714   48.4577   14.6325 N   0  0  0  0  0  0  0  0  0  0  0  0
   59.4397   47.3295   15.2870 C   0  0  2  0  0  0  0  0  0  0  0  0
   60.6263   46.7631   14.5041 C   0  0  0  0  0  0  0  0  0  0  0  0
   60.6236   46.8819   13.2785 O   0  0  0  0  0  0  0  0  0  0  0  0
   58.5257   46.1452   15.6270 C   0  0  0  0  0  0  0  0  0  0  0  0
   57.1472   46.3651   16.2253 C   0  0  0  0  0  0  0  0  0  0  0  0
   57.3920   46.6273   17.9970 S   0  0  0  0  0  0  0  0  0  0  0  0
   55.6117   46.3650   18.1792 C   0  0  0  0  0  0  0  0  0  0  0  0
   55.2033   45.6725   19.4838 C   0  0  1  0  0  0  0  0  0  0  0  0
   55.6149   46.3869   20.6549 O   0  0  0  0  0  0  0  0  0  0  0  0
   53.6917   45.5152   19.5632 C   0  0  1  0  0  0  0  0  0  0  0  0
   53.2761   44.2706   19.0459 O   0  0  0  0  0  0  0  0  0  0  0  0
   53.3666   45.6904   21.0409 C   0  0  1  0  0  0  0  0  0  0  0  0
   53.3626   44.4533   21.7243 O   0  0  0  0  0  0  0  0  0  0  0  0
   54.5334   46.5043   21.5649 C   0  0  2  0  0  0  0  0  0  0  0  0
   61.5884   46.2078   15.0489 O   0  0  0  0  0  0  0  0  0  0  0  0
   53.6681   50.2936   25.1019 N   0  0  0  0  0  0  0  0  0  0  0  0
   53.9987   48.9811   25.3271 C   0  0  0  0  0  0  0  0  0  0  0  0
   54.1696   48.1225   24.2616 N   0  0  0  0  0  0  0  0  0  0  0  0
   54.0528   48.5558   22.9939 C   0  0  0  0  0  0  0  0  0  0  0  0
   53.7215   49.8769   22.7451 C   0  0  0  0  0  0  0  0  0  0  0  0
   53.5289   50.7346   23.8098 C   0  0  0  0  0  0  0  0  0  0  0  0
   53.2248   52.0000   23.5958 N   0  0  0  0  0  0  0  0  0  0  0  0
   53.6646   50.0557   21.4065 N   0  0  0  0  0  0  0  0  0  0  0  0
   53.9288   48.8667   20.8083 C   0  0  0  0  0  0  0  0  0  0  0  0
   54.1743   47.9248   21.7833 N   0  0  0  0  0  0  0  0  0  0  0  0
  2  1  1  6  0  0  0
  2  3  1  0  0  0  0
  2  5  1  0  0  0  0
  3  4  1  0  0  0  0
  3 16  1  0  0  0  0
  5  6  1  0  0  0  0
  6  7  1  0  0  0  0
  7  8  1  0  0  0  0
  9  8  1  6  0  0  0
  9 10  1  0  0  0  0
  9 11  1  0  0  0  0
 10 15  1  0  0  0  0
 11 12  1  1  0  0  0
 11 13  1  0  0  0  0
 13 14  1  1  0  0  0
 13 15  1  0  0  0  0
 15 26  1  6  0  0  0
 17 18  2  0  0  0  0
 17 22  1  0  0  0  0
 18 19  1  0  0  0  0
 19 20  2  0  0  0  0
 20 21  1  0  0  0  0
 20 26  1  0  0  0  0
 21 22  2  0  0  0  0
 21 24  1  0  0  0  0
 22 23  1  0  0  0  0
 24 25  2  0  0  0  0
 25 26  1  0  0  0  0
M  END
>  <CHROM.1>
-27.51298842,-43.09015793,-81.44784017,-165.76237763,146.24332174,58.60555012
-127.70567071,55.79407222,47.38140624,19.64178138,-0.63070421,0.79234001
0.52879260

>  <Name>
ligand

>  <RI>
0

>  <Rbt.Current_Directory>
/home/itssahil/PROJECTS/Mol_Feturizer/New_Systems/rnas/3GX3

>  <Rbt.Executable>
rbdock ($Id: //depot/dev/client3/rdock/2013.1/src/exe/rbdock.cxx#4 $)

>  <Rbt.Library>
libRbt.so (2013.1, Build901 2013/11/27)

>  <Rbt.Parameter_File>
/export/apps/rDock/src/rDock_2013.1_src/data/scripts/dock_solv.prm

>  <Rbt.Receptor>
prm/blind_docking_100.prm

>  <SCORE>
-11.2366

>  <SCORE.INTER>
-9.57507

>  <SCORE.INTER.CONST>
1

>  <SCORE.INTER.POLAR>
0

>  <SCORE.INTER.ROT>
7

>  <SCORE.INTER.SOLV>
19.2726

>  <SCORE.INTER.VDW>
-21.0742

>  <SCORE.INTER.norm>
-0.368272

>  <SCORE.INTRA>
-1.68513

>  <SCORE.INTRA.DIHEDRAL>
1.35821

>  <SCORE.INTRA.DIHEDRAL.0>
5.78979

>  <SCORE.INTRA.POLAR>
0

>  <SCORE.INTRA.POLAR.0>
0

>  <SCORE.INTRA.REPUL>
0

>  <SCORE.INTRA.REPUL.0>
0

>  <SCORE.INTRA.SOLV>
0.0187837

>  <SCORE.INTRA.SOLV.lig_0>
-49.9151

>  <SCORE.INTRA.VDW>
-2.37363

>  <SCORE.INTRA.VDW.0>
-0.211125

>  <SCORE.INTRA.norm>
-0.0648127

>  <SCORE.RESTR>
0.0235769

>  <SCORE.RESTR.CAVITY>
0.0235769

>  <SCORE.RESTR.norm>
0.000906805

>  <SCORE.SYSTEM>
0

>  <SCORE.SYSTEM.CONST>
0

>  <SCORE.SYSTEM.DIHEDRAL>
0

>  <SCORE.SYSTEM.SOLV>
0

>  <SCORE.SYSTEM.norm>
0

>  <SCORE.heavy>
26

>  <SCORE.norm>
-0.432178

>  <RMSD>
17.115

$$$$
ligand
 OpenBabel11021811483D
libRbt.so/2013.1/901 2013/11/27
 26 28  0  0  0  0  0  0  0  0999 V2000
   53.6244   65.7050   21.2173 N   0  0  0  0  0  0  0  0  0  0  0  0
   53.2638   65.5208   19.8088 C   0  0  2  0  0  0  0  0  0  0  0  0
   52.4121   66.6508   19.2262 C   0  0  0  0  0  0  0  0  0  0  0  0
   52.7677   67.1565   18.1613 O   0  0  0  0  0  0  0  0  0  0  0  0
   52.5354   64.2077   19.4941 C   0  0  0  0  0  0  0  0  0  0  0  0
   53.0984   62.8712   19.9452 C   0  0  0  0  0  0  0  0  0  0  0  0
   52.0355   61.5975   19.2270 S   0  0  0  0  0  0  0  0  0  0  0  0
   53.2996   61.4068   17.9475 C   0  0  0  0  0  0  0  0  0  0  0  0
   53.9172   60.0065   17.8703 C   0  0  1  0  0  0  0  0  0  0  0  0
   52.9770   58.9950   17.4907 O   0  0  0  0  0  0  0  0  0  0  0  0
   55.0497   59.9694   16.8543 C   0  0  1  0  0  0  0  0  0  0  0  0
   56.2952   60.2303   17.4626 O   0  0  0  0  0  0  0  0  0  0  0  0
   54.9625   58.5801   16.2359 C   0  0  1  0  0  0  0  0  0  0  0  0
   55.7748   57.6508   16.9245 O   0  0  0  0  0  0  0  0  0  0  0  0
   53.5161   58.1845   16.4593 C   0  0  2  0  0  0  0  0  0  0  0  0
   51.3802   67.0644   19.7694 O   0  0  0  0  0  0  0  0  0  0  0  0
   51.9819   61.2789   12.4983 N   0  0  0  0  0  0  0  0  0  0  0  0
   52.8060   61.5914   13.5499 C   0  0  0  0  0  0  0  0  0  0  0  0
   53.0825   60.6430   14.5122 N   0  0  0  0  0  0  0  0  0  0  0  0
   52.5859   59.3964   14.4227 C   0  0  0  0  0  0  0  0  0  0  0  0
   51.7538   59.0604   13.3684 C   0  0  0  0  0  0  0  0  0  0  0  0
   51.4576   60.0134   12.4143 C   0  0  0  0  0  0  0  0  0  0  0  0
   50.6770   59.7116   11.3949 N   0  0  0  0  0  0  0  0  0  0  0  0
   51.3921   57.7655   13.5088 N   0  0  0  0  0  0  0  0  0  0  0  0
   51.9602   57.2874   14.6446 C   0  0  0  0  0  0  0  0  0  0  0  0
   52.7074   58.2902   15.2226 N   0  0  0  0  0  0  0  0  0  0  0  0
  2  1  1  1  0  0  0
  2  3  1  0  0  0  0
  2  5  1  0  0  0  0
  3  4  1  0  0  0  0
  3 16  1  0  0  0  0
  5  6  1  0  0  0  0
  6  7  1  0  0  0  0
  7  8  1  0  0  0  0
  9  8  1  6  0  0  0
  9 10  1  0  0  0  0
  9 11  1  0  0  0  0
 10 15  1  0  0  0  0
 11 12  1  1  0  0  0
 11 13  1  0  0  0  0
 13 14  1  1  0  0  0
 13 15  1  0  0  0  0
 15 26  1  6  0  0  0
 17 18  2  0  0  0  0
 17 22  1  0  0  0  0
 18 19  1  0  0  0  0
 19 20  2  0  0  0  0
 20 21  1  0  0  0  0
 20 26  1  0  0  0  0
 21 22  2  0  0  0  0
 21 24  1  0  0  0  0
 22 23  1  0  0  0  0
 24 25  2  0  0  0  0
 25 26  1  0  0  0  0
M  END
>  <CHROM.1>
129.82177374,-51.48127602,-174.25522430,99.47168728,119.66675608,64.52128848
67.84432766,52.96196421,61.25968941,16.74197235,-1.55345699,0.99235245,-2.45820195

>  <Name>
ligand

>  <RI>
0

>  <Rbt.Current_Directory>
/home/itssahil/PROJECTS/Mol_Feturizer/New_Systems/rnas/3GX3

>  <Rbt.Executable>
rbdock ($Id: //depot/dev/client3/rdock/2013.1/src/exe/rbdock.cxx#4 $)

>  <Rbt.Library>
libRbt.so (2013.1, Build901 2013/11/27)

>  <Rbt.Parameter_File>
/export/apps/rDock/src/rDock_2013.1_src/data/scripts/dock_solv.prm

>  <Rbt.Receptor>
prm/blind_docking_100.prm

>  <SCORE>
-12.2605

>  <SCORE.INTER>
-10.062

>  <SCORE.INTER.CONST>
1

>  <SCORE.INTER.POLAR>
0

>  <SCORE.INTER.ROT>
7

>  <SCORE.INTER.SOLV>
8.73411

>  <SCORE.INTER.VDW>
-17.886

>  <SCORE.INTER.norm>
-0.387001

>  <SCORE.INTRA>
-2.19851

>  <SCORE.INTRA.DIHEDRAL>
1.63744

>  <SCORE.INTRA.DIHEDRAL.0>
5.78979

>  <SCORE.INTRA.POLAR>
0

>  <SCORE.INTRA.POLAR.0>
0

>  <SCORE.INTRA.REPUL>
0

>  <SCORE.INTRA.REPUL.0>
0

>  <SCORE.INTRA.SOLV>
-0.466927

>  <SCORE.INTRA.SOLV.lig_0>
-49.9151

>  <SCORE.INTRA.VDW>
-2.78377

>  <SCORE.INTRA.VDW.0>
-0.211125

>  <SCORE.INTRA.norm>
-0.0845582

>  <SCORE.RESTR>
0

>  <SCORE.RESTR.CAVITY>
0

>  <SCORE.RESTR.norm>
0

>  <SCORE.SYSTEM>
0

>  <SCORE.SYSTEM.CONST>
0

>  <SCORE.SYSTEM.DIHEDRAL>
0

>  <SCORE.SYSTEM.SOLV>
0

>  <SCORE.SYSTEM.norm>
0

>  <SCORE.heavy>
26

>  <SCORE.norm>
-0.471559

>  <RMSD>
17.192

$$$$
ligand
 OpenBabel11021811483D
libRbt.so/2013.1/901 2013/11/27
 26 28  0  0  0  0  0  0  0  0999 V2000
   53.7063   65.6621   14.0592 N   0  0  0  0  0  0  0  0  0  0  0  0
   55.1201   65.7932   13.6960 C   0  0  2  0  0  0  0  0  0  0  0  0
   55.4372   65.3926   12.2535 C   0  0  0  0  0  0  0  0  0  0  0  0
   54.5071   65.0269   11.5343 O   0  0  0  0  0  0  0  0  0  0  0  0
   56.0934   65.0208   14.5959 C   0  0  0  0  0  0  0  0  0  0  0  0
   56.2138   65.3394   16.0759 C   0  0  0  0  0  0  0  0  0  0  0  0
   54.8879   64.4334   16.9059 S   0  0  0  0  0  0  0  0  0  0  0  0
   55.0984   65.5872   18.2827 C   0  0  0  0  0  0  0  0  0  0  0  0
   54.6704   65.0326   19.6457 C   0  0  1  0  0  0  0  0  0  0  0  0
   53.3808   64.4102   19.6222 O   0  0  0  0  0  0  0  0  0  0  0  0
   55.6620   63.9901   20.1416 C   0  0  1  0  0  0  0  0  0  0  0  0
   56.6579   64.5723   20.9531 O   0  0  0  0  0  0  0  0  0  0  0  0
   54.8057   62.9698   20.8805 C   0  0  1  0  0  0  0  0  0  0  0  0
   54.6982   63.2773   22.2558 O   0  0  0  0  0  0  0  0  0  0  0  0
   53.4339   63.1442   20.2591 C   0  0  2  0  0  0  0  0  0  0  0  0
   56.5791   65.4347   11.7790 O   0  0  0  0  0  0  0  0  0  0  0  0
   55.2912   59.7281   16.7237 N   0  0  0  0  0  0  0  0  0  0  0  0
   55.9863   60.6655   17.4454 C   0  0  0  0  0  0  0  0  0  0  0  0
   55.3168   61.4938   18.3216 N   0  0  0  0  0  0  0  0  0  0  0  0
   53.9906   61.3779   18.5121 C   0  0  0  0  0  0  0  0  0  0  0  0
   53.2712   60.4372   17.7949 C   0  0  0  0  0  0  0  0  0  0  0  0
   53.9346   59.6204   16.9011 C   0  0  0  0  0  0  0  0  0  0  0  0
   53.2711   58.7090   16.2164 N   0  0  0  0  0  0  0  0  0  0  0  0
   51.9735   60.5235   18.1635 N   0  0  0  0  0  0  0  0  0  0  0  0
   51.8583   61.5174   19.0802 C   0  0  0  0  0  0  0  0  0  0  0  0
   53.1054   62.0566   19.3084 N   0  0  0  0  0  0  0  0  0  0  0  0
  2  1  1  1  0  0  0
  2  3  1  0  0  0  0
  2  5  1  0  0  0  0
  3  4  1  0  0  0  0
  3 16  1  0  0  0  0
  5  6  1  0  0  0  0
  6  7  1  0  0  0  0
  7  8  1  0  0  0  0
  9  8  1  6  0  0  0
  9 10  1  0  0  0  0
  9 11  1  0  0  0  0
 10 15  1  0  0  0  0
 11 12  1  1  0  0  0
 11 13  1  0  0  0  0
 13 14  1  1  0  0  0
 13 15  1  0  0  0  0
 15 26  1  6  0  0  0
 17 18  2  0  0  0  0
 17 22  1  0  0  0  0
 18 19  1  0  0  0  0
 19 20  2  0  0  0  0
 20 21  1  0  0  0  0
 20 26  1  0  0  0  0
 21 22  2  0  0  0  0
 21 24  1  0  0  0  0
 22 23  1  0  0  0  0
 24 25  2  0  0  0  0
 25 26  1  0  0  0  0
M  END
>  <CHROM.1>
1.15657267,-62.05674363,83.68039311,-160.19882976,-154.07787519,-48.21549370
89.42088125,54.61959313,63.26252476,17.32726172,-1.05632117,1.22813129,1.49619560

>  <Name>
ligand

>  <RI>
0

>  <Rbt.Current_Directory>
/home/itssahil/PROJECTS/Mol_Feturizer/New_Systems/rnas/3GX3

>  <Rbt.Executable>
rbdock ($Id: //depot/dev/client3/rdock/2013.1/src/exe/rbdock.cxx#4 $)

>  <Rbt.Library>
libRbt.so (2013.1, Build901 2013/11/27)

>  <Rbt.Parameter_File>
/export/apps/rDock/src/rDock_2013.1_src/data/scripts/dock_solv.prm

>  <Rbt.Receptor>
prm/blind_docking_100.prm

>  <SCORE>
-13.0201

>  <SCORE.INTER>
-10.4239

>  <SCORE.INTER.CONST>
1

>  <SCORE.INTER.POLAR>
0

>  <SCORE.INTER.ROT>
7

>  <SCORE.INTER.SOLV>
7.33546

>  <SCORE.INTER.VDW>
-17.6611

>  <SCORE.INTER.norm>
-0.400921

>  <SCORE.INTRA>
-2.59617

>  <SCORE.INTRA.DIHEDRAL>
0.98037

>  <SCORE.INTRA.DIHEDRAL.0>
5.78979

>  <SCORE.INTRA.POLAR>
0

>  <SCORE.INTRA.POLAR.0>
0

>  <SCORE.INTRA.REPUL>
0

>  <SCORE.INTRA.REPUL.0>
0

>  <SCORE.INTRA.SOLV>
0.999689

>  <SCORE.INTRA.SOLV.lig_0>
-49.9151

>  <SCORE.INTRA.VDW>
-3.5862

>  <SCORE.INTRA.VDW.0>
-0.211125

>  <SCORE.INTRA.norm>
-0.0998525

>  <SCORE.RESTR>
0

>  <SCORE.RESTR.CAVITY>
0

>  <SCORE.RESTR.norm>
0

>  <SCORE.SYSTEM>
0

>  <SCORE.SYSTEM.CONST>
0

>  <SCORE.SYSTEM.DIHEDRAL>
0

>  <SCORE.SYSTEM.SOLV>
0

>  <SCORE.SYSTEM.norm>
0

>  <SCORE.heavy>
26

>  <SCORE.norm>
-0.500774

>  <RMSD>
17.253

$$$$
ligand
 OpenBabel11021811483D
libRbt.so/2013.1/901 2013/11/27
 26 28  0  0  0  0  0  0  0  0999 V2000
   52.8105   67.7572   22.3982 N   0  0  0  0  0  0  0  0  0  0  0  0
   53.8621   68.3097   21.5398 C   0  0  2  0  0  0  0  0  0  0  0  0
   54.0120   69.8299   21.6308 C   0  0  0  0  0  0  0  0  0  0  0  0
   53.1500   70.4633   22.2406 O   0  0  0  0  0  0  0  0  0  0  0  0
   53.7294   67.9646   20.0509 C   0  0  0  0  0  0  0  0  0  0  0  0
   53.4550   66.5414   19.5973 C   0  0  0  0  0  0  0  0  0  0  0  0
   53.7022   66.5162   17.8068 S   0  0  0  0  0  0  0  0  0  0  0  0
   52.5380   65.1326   17.7670 C   0  0  0  0  0  0  0  0  0  0  0  0
   52.4214   64.4413   16.4043 C   0  0  1  0  0  0  0  0  0  0  0  0
   53.3568   63.3705   16.2326 O   0  0  0  0  0  0  0  0  0  0  0  0
   51.0300   63.8559   16.2114 C   0  0  1  0  0  0  0  0  0  0  0  0
   50.1738   64.7681   15.5601 O   0  0  0  0  0  0  0  0  0  0  0  0
   51.2606   62.5767   15.4174 C   0  0  1  0  0  0  0  0  0  0  0  0
   51.1747   62.8043   14.0252 O   0  0  0  0  0  0  0  0  0  0  0  0
   52.6975   62.2159   15.7392 C   0  0  2  0  0  0  0  0  0  0  0  0
   54.9645   70.4431   21.1330 O   0  0  0  0  0  0  0  0  0  0  0  0
   54.1663   57.2288   16.5070 N   0  0  0  0  0  0  0  0  0  0  0  0
   54.2407   57.9679   15.3534 C   0  0  0  0  0  0  0  0  0  0  0  0
   53.7841   59.2692   15.3399 N   0  0  0  0  0  0  0  0  0  0  0  0
   53.2958   59.8462   16.4521 C   0  0  0  0  0  0  0  0  0  0  0  0
   53.2138   59.1181   17.6268 C   0  0  0  0  0  0  0  0  0  0  0  0
   53.6502   57.8082   17.6389 C   0  0  0  0  0  0  0  0  0  0  0  0
   53.5929   57.0999   18.7500 N   0  0  0  0  0  0  0  0  0  0  0  0
   52.6921   59.9156   18.5854 N   0  0  0  0  0  0  0  0  0  0  0  0
   52.4207   61.1238   18.0303 C   0  0  0  0  0  0  0  0  0  0  0  0
   52.7930   61.0960   16.7042 N   0  0  0  0  0  0  0  0  0  0  0  0
  2  1  1  1  0  0  0
  2  3  1  0  0  0  0
  2  5  1  0  0  0  0
  3  4  1  0  0  0  0
  3 16  1  0  0  0  0
  5  6  1  0  0  0  0
  6  7  1  0  0  0  0
  7  8  1  0  0  0  0
  9  8  1  1  0  0  0
  9 10  1  0  0  0  0
  9 11  1  0  0  0  0
 10 15  1  0  0  0  0
 11 12  1  6  0  0  0
 11 13  1  0  0  0  0
 13 14  1  6  0  0  0
 13 15  1  0  0  0  0
 15 26  1  1  0  0  0
 17 18  2  0  0  0  0
 17 22  1  0  0  0  0
 18 19  1  0  0  0  0
 19 20  2  0  0  0  0
 20 21  1  0  0  0  0
 20 26  1  0  0  0  0
 21 22  2  0  0  0  0
 21 24  1  0  0  0  0
 22 23  1  0  0  0  0
 24 25  2  0  0  0  0
 25 26  1  0  0  0  0
M  END
>  <CHROM.1>
-10.00570396,-47.39526805,-168.95707955,-153.34382559,-171.75972438,89.39248090
-124.25827606,53.02400242,63.66094000,17.88412430,-1.46844885,1.11424807
-2.81340636

>  <Name>
ligand

>  <RI>
0

>  <Rbt.Current_Directory>
/home/itssahil/PROJECTS/Mol_Feturizer/New_Systems/rnas/3GX3

>  <Rbt.Executable>
rbdock ($Id: //depot/dev/client3/rdock/2013.1/src/exe/rbdock.cxx#4 $)

>  <Rbt.Library>
libRbt.so (2013.1, Build901 2013/11/27)

>  <Rbt.Parameter_File>
/export/apps/rDock/src/rDock_2013.1_src/data/scripts/dock_solv.prm

>  <Rbt.Receptor>
prm/blind_docking_100.prm

>  <SCORE>
-5.38705

>  <SCORE.INTER>
-3.92938

>  <SCORE.INTER.CONST>
1

>  <SCORE.INTER.POLAR>
0

>  <SCORE.INTER.ROT>
7

>  <SCORE.INTER.SOLV>
11.2436

>  <SCORE.INTER.VDW>
-14.6341

>  <SCORE.INTER.norm>
-0.15113

>  <SCORE.INTRA>
-1.45767

>  <SCORE.INTRA.DIHEDRAL>
1.69294

>  <SCORE.INTRA.DIHEDRAL.0>
5.78979

>  <SCORE.INTRA.POLAR>
0

>  <SCORE.INTRA.POLAR.0>
0

>  <SCORE.INTRA.REPUL>
0

>  <SCORE.INTRA.REPUL.0>
0

>  <SCORE.INTRA.SOLV>
-0.521363

>  <SCORE.INTRA.SOLV.lig_0>
-49.9151

>  <SCORE.INTRA.VDW>
-2.04346

>  <SCORE.INTRA.VDW.0>
-0.211125

>  <SCORE.INTRA.norm>
-0.0560642

>  <SCORE.RESTR>
0

>  <SCORE.RESTR.CAVITY>
0

>  <SCORE.RESTR.norm>
0

>  <SCORE.SYSTEM>
0

>  <SCORE.SYSTEM.CONST>
0

>  <SCORE.SYSTEM.DIHEDRAL>
0

>  <SCORE.SYSTEM.SOLV>
0

>  <SCORE.SYSTEM.norm>
0

>  <SCORE.heavy>
26

>  <SCORE.norm>
-0.207194

>  <RMSD>
17.309

$$$$
ligand
 OpenBabel11021811483D
libRbt.so/2013.1/901 2013/11/27
 26 28  0  0  0  0  0  0  0  0999 V2000
   53.9576   59.1640   17.3634 N   0  0  0  0  0  0  0  0  0  0  0  0
   54.0727   60.6189   17.4976 C   0  0  2  0  0  0  0  0  0  0  0  0
   55.2133   61.2357   16.6849 C   0  0  0  0  0  0  0  0  0  0  0  0
   55.0178   62.3236   16.1423 O   0  0  0  0  0  0  0  0  0  0  0  0
   54.2285   61.1253   18.9374 C   0  0  0  0  0  0  0  0  0  0  0  0
   54.1753   62.6091   19.2567 C   0  0  0  0  0  0  0  0  0  0  0  0
   54.4345   62.7604   21.0393 S   0  0  0  0  0  0  0  0  0  0  0  0
   54.0293   64.5127   20.8475 C   0  0  0  0  0  0  0  0  0  0  0  0
   55.2448   65.4287   20.6697 C   0  0  1  0  0  0  0  0  0  0  0  0
   56.0554   65.0784   19.5421 O   0  0  0  0  0  0  0  0  0  0  0  0
   54.8100   66.8743   20.4771 C   0  0  1  0  0  0  0  0  0  0  0  0
   54.7627   67.5653   21.7058 O   0  0  0  0  0  0  0  0  0  0  0  0
   55.8272   67.4522   19.5017 C   0  0  1  0  0  0  0  0  0  0  0  0
   56.9177   68.0465   20.1764 O   0  0  0  0  0  0  0  0  0  0  0  0
   56.3467   66.2311   18.7688 C   0  0  2  0  0  0  0  0  0  0  0  0
   56.3207   60.6974   16.5635 O   0  0  0  0  0  0  0  0  0  0  0  0
   52.0863   65.1574   15.8854 N   0  0  0  0  0  0  0  0  0  0  0  0
   52.2125   65.1440   17.2516 C   0  0  0  0  0  0  0  0  0  0  0  0
   53.4279   65.4391   17.8328 N   0  0  0  0  0  0  0  0  0  0  0  0
   54.4927   65.7773   17.0842 C   0  0  0  0  0  0  0  0  0  0  0  0
   54.3857   65.7984   15.7040 C   0  0  0  0  0  0  0  0  0  0  0  0
   53.1762   65.4830   15.1175 C   0  0  0  0  0  0  0  0  0  0  0  0
   53.0483   65.5088   13.8051 N   0  0  0  0  0  0  0  0  0  0  0  0
   55.5819   66.1627   15.1907 N   0  0  0  0  0  0  0  0  0  0  0  0
   56.4466   66.3467   16.2202 C   0  0  0  0  0  0  0  0  0  0  0  0
   55.7824   66.1124   17.4043 N   0  0  0  0  0  0  0  0  0  0  0  0
  2  1  1  1  0  0  0
  2  3  1  0  0  0  0
  2  5  1  0  0  0  0
  3  4  1  0  0  0  0
  3 16  1  0  0  0  0
  5  6  1  0  0  0  0
  6  7  1  0  0  0  0
  7  8  1  0  0  0  0
  9  8  1  6  0  0  0
  9 10  1  0  0  0  0
  9 11  1  0  0  0  0
 10 15  1  0  0  0  0
 11 12  1  1  0  0  0
 11 13  1  0  0  0  0
 13 14  1  1  0  0  0
 13 15  1  0  0  0  0
 15 26  1  6  0  0  0
 17 18  2  0  0  0  0
 17 22  1  0  0  0  0
 18 19  1  0  0  0  0
 19 20  2  0  0  0  0
 20 21  1  0  0  0  0
 20 26  1  0  0  0  0
 21 22  2  0  0  0  0
 21 24  1  0  0  0  0
 22 23  1  0  0  0  0
 24 25  2  0  0  0  0
 25 26  1  0  0  0  0
M  END
>  <CHROM.1>
141.66461589,-171.83890477,-178.82567522,-171.94910323,-94.56247380,58.00842635
50.53156121,54.71602681,64.45856395,18.15338679,-2.59519423,-1.36863654,-0.53533343

>  <Name>
ligand

>  <RI>
0

>  <Rbt.Current_Directory>
/home/itssahil/PROJECTS/Mol_Feturizer/New_Systems/rnas/3GX3

>  <Rbt.Executable>
rbdock ($Id: //depot/dev/client3/rdock/2013.1/src/exe/rbdock.cxx#4 $)

>  <Rbt.Library>
libRbt.so (2013.1, Build901 2013/11/27)

>  <Rbt.Parameter_File>
/export/apps/rDock/src/rDock_2013.1_src/data/scripts/dock_solv.prm

>  <Rbt.Receptor>
prm/blind_docking_100.prm

>  <SCORE>
-12.42

>  <SCORE.INTER>
-6.92786

>  <SCORE.INTER.CONST>
1

>  <SCORE.INTER.POLAR>
0

>  <SCORE.INTER.ROT>
7

>  <SCORE.INTER.SOLV>
4.70922

>  <SCORE.INTER.VDW>
-14.455

>  <SCORE.INTER.norm>
-0.266456

>  <SCORE.INTRA>
-5.49211

>  <SCORE.INTRA.DIHEDRAL>
-1.19729

>  <SCORE.INTRA.DIHEDRAL.0>
5.78979

>  <SCORE.INTRA.POLAR>
0

>  <SCORE.INTRA.POLAR.0>
0

>  <SCORE.INTRA.REPUL>
0

>  <SCORE.INTRA.REPUL.0>
0

>  <SCORE.INTRA.SOLV>
-0.976965

>  <SCORE.INTRA.SOLV.lig_0>
-49.9151

>  <SCORE.INTRA.VDW>
-4.40499

>  <SCORE.INTRA.VDW.0>
-0.211125

>  <SCORE.INTRA.norm>
-0.211235

>  <SCORE.RESTR>
0

>  <SCORE.RESTR.CAVITY>
0

>  <SCORE.RESTR.norm>
0

>  <SCORE.SYSTEM>
0

>  <SCORE.SYSTEM.CONST>
0

>  <SCORE.SYSTEM.DIHEDRAL>
0

>  <SCORE.SYSTEM.SOLV>
0

>  <SCORE.SYSTEM.norm>
0

>  <SCORE.heavy>
26

>  <SCORE.norm>
-0.477691

>  <RMSD>
17.383

$$$$
ligand
 OpenBabel11021811483D
libRbt.so/2013.1/901 2013/11/27
 26 28  0  0  0  0  0  0  0  0999 V2000
   53.0309   62.4998   16.9576 N   0  0  0  0  0  0  0  0  0  0  0  0
   52.0304   62.4089   18.0246 C   0  0  2  0  0  0  0  0  0  0  0  0
   50.8886   63.4204   17.9020 C   0  0  0  0  0  0  0  0  0  0  0  0
   51.1483   64.5383   17.4559 O   0  0  0  0  0  0  0  0  0  0  0  0
   52.5887   62.5392   19.4476 C   0  0  0  0  0  0  0  0  0  0  0  0
   53.1579   63.8549   19.9491 C   0  0  0  0  0  0  0  0  0  0  0  0
   53.8289   63.5298   21.5959 S   0  0  0  0  0  0  0  0  0  0  0  0
   53.8568   65.3233   21.8282 C   0  0  0  0  0  0  0  0  0  0  0  0
   55.1169   66.0123   21.2937 C   0  0  1  0  0  0  0  0  0  0  0  0
   55.4552   65.6145   19.9601 O   0  0  0  0  0  0  0  0  0  0  0  0
   54.9430   67.5241   21.2797 C   0  0  1  0  0  0  0  0  0  0  0  0
   55.4142   68.1071   22.4745 O   0  0  0  0  0  0  0  0  0  0  0  0
   55.7062   67.9848   20.0447 C   0  0  1  0  0  0  0  0  0  0  0  0
   57.0469   68.3105   20.3514 O   0  0  0  0  0  0  0  0  0  0  0  0
   55.7202   66.7545   19.1591 C   0  0  2  0  0  0  0  0  0  0  0  0
   49.7210   63.1586   18.2168 O   0  0  0  0  0  0  0  0  0  0  0  0
   54.9305   66.1371   14.0003 N   0  0  0  0  0  0  0  0  0  0  0  0
   56.0839   65.9292   14.7136 C   0  0  0  0  0  0  0  0  0  0  0  0
   56.1040   66.1646   16.0724 N   0  0  0  0  0  0  0  0  0  0  0  0
   54.9980   66.5632   16.7253 C   0  0  0  0  0  0  0  0  0  0  0  0
   53.8234   66.7769   16.0242 C   0  0  0  0  0  0  0  0  0  0  0  0
   53.8050   66.5627   14.6603 C   0  0  0  0  0  0  0  0  0  0  0  0
   52.6938   66.7482   13.9744 N   0  0  0  0  0  0  0  0  0  0  0  0
   52.8716   67.1702   16.8997 N   0  0  0  0  0  0  0  0  0  0  0  0
   53.4311   67.2325   18.1344 C   0  0  0  0  0  0  0  0  0  0  0  0
   54.7530   66.8556   18.0416 N   0  0  0  0  0  0  0  0  0  0  0  0
  2  1  1  6  0  0  0
  2  3  1  0  0  0  0
  2  5  1  0  0  0  0
  3  4  1  0  0  0  0
  3 16  1  0  0  0  0
  5  6  1  0  0  0  0
  6  7  1  0  0  0  0
  7  8  1  0  0  0  0
  9  8  1  6  0  0  0
  9 10  1  0  0  0  0
  9 11  1  0  0  0  0
 10 15  1  0  0  0  0
 11 12  1  1  0  0  0
 11 13  1  0  0  0  0
 13 14  1  1  0  0  0
 13 15  1  0  0  0  0
 15 26  1  6  0  0  0
 17 18  2  0  0  0  0
 17 22  1  0  0  0  0
 18 19  1  0  0  0  0
 19 20  2  0  0  0  0
 20 21  1  0  0  0  0
 20 26  1  0  0  0  0
 21 22  2  0  0  0  0
 21 24  1  0  0  0  0
 22 23  1  0  0  0  0
 24 25  2  0  0  0  0
 25 26  1  0  0  0  0
M  END
>  <CHROM.1>
-35.14490432,68.32072317,-175.06952899,-164.61837747,-85.55912508,48.49814885
-104.76481437,53.94932061,65.56608961,18.51298154,2.06316317,-0.82194381
-1.37984740

>  <Name>
ligand

>  <RI>
0

>  <Rbt.Current_Directory>
/home/itssahil/PROJECTS/Mol_Feturizer/New_Systems/rnas/3GX3

>  <Rbt.Executable>
rbdock ($Id: //depot/dev/client3/rdock/2013.1/src/exe/rbdock.cxx#4 $)

>  <Rbt.Library>
libRbt.so (2013.1, Build901 2013/11/27)

>  <Rbt.Parameter_File>
/export/apps/rDock/src/rDock_2013.1_src/data/scripts/dock_solv.prm

>  <Rbt.Receptor>
prm/blind_docking_100.prm

>  <SCORE>
-15.1687

>  <SCORE.INTER>
-11.5922

>  <SCORE.INTER.CONST>
1

>  <SCORE.INTER.POLAR>
0

>  <SCORE.INTER.ROT>
7

>  <SCORE.INTER.SOLV>
5.37127

>  <SCORE.INTER.VDW>
-17.7852

>  <SCORE.INTER.norm>
-0.445852

>  <SCORE.INTRA>
-3.5827

>  <SCORE.INTRA.DIHEDRAL>
-0.904845

>  <SCORE.INTRA.DIHEDRAL.0>
5.78979

>  <SCORE.INTRA.POLAR>
0

>  <SCORE.INTRA.POLAR.0>
0

>  <SCORE.INTRA.REPUL>
0

>  <SCORE.INTRA.REPUL.0>
0

>  <SCORE.INTRA.SOLV>
-0.431074

>  <SCORE.INTRA.SOLV.lig_0>
-49.9151

>  <SCORE.INTRA.VDW>
-2.91474

>  <SCORE.INTRA.VDW.0>
-0.211125

>  <SCORE.INTRA.norm>
-0.137796

>  <SCORE.RESTR>
0.00620087

>  <SCORE.RESTR.CAVITY>
0.00620087

>  <SCORE.RESTR.norm>
0.000238495

>  <SCORE.SYSTEM>
0

>  <SCORE.SYSTEM.CONST>
0

>  <SCORE.SYSTEM.DIHEDRAL>
0

>  <SCORE.SYSTEM.SOLV>
0

>  <SCORE.SYSTEM.norm>
0

>  <SCORE.heavy>
26

>  <SCORE.norm>
-0.58341

>  <RMSD>
17.461

$$$$
ligand
 OpenBabel11021811483D
libRbt.so/2013.1/901 2013/11/27
 26 28  0  0  0  0  0  0  0  0999 V2000
   48.7795   54.6351   20.5908 N   0  0  0  0  0  0  0  0  0  0  0  0
   49.5338   53.5328   19.9877 C   0  0  2  0  0  0  0  0  0  0  0  0
   50.9490   53.3623   20.5444 C   0  0  0  0  0  0  0  0  0  0  0  0
   51.7672   54.2585   20.3359 O   0  0  0  0  0  0  0  0  0  0  0  0
   49.6619   53.5964   18.4602 C   0  0  0  0  0  0  0  0  0  0  0  0
   50.3318   54.7764   17.7779 C   0  0  0  0  0  0  0  0  0  0  0  0
   50.2168   54.4745   15.9994 S   0  0  0  0  0  0  0  0  0  0  0  0
   51.2404   55.9501   15.7849 C   0  0  0  0  0  0  0  0  0  0  0  0
   52.6878   55.7926   16.2629 C   0  0  1  0  0  0  0  0  0  0  0  0
   53.5122   55.0727   15.3392 O   0  0  0  0  0  0  0  0  0  0  0  0
   53.3378   57.1516   16.4785 C   0  0  1  0  0  0  0  0  0  0  0  0
   53.1911   57.5863   17.8123 O   0  0  0  0  0  0  0  0  0  0  0  0
   54.7909   56.9491   16.0691 C   0  0  1  0  0  0  0  0  0  0  0  0
   55.5959   56.5770   17.1696 O   0  0  0  0  0  0  0  0  0  0  0  0
   54.7291   55.7677   15.1211 C   0  0  2  0  0  0  0  0  0  0  0  0
   51.2985   52.3750   21.2031 O   0  0  0  0  0  0  0  0  0  0  0  0
   53.5601   59.3907   11.4982 N   0  0  0  0  0  0  0  0  0  0  0  0
   53.2080   59.3713   12.8242 C   0  0  0  0  0  0  0  0  0  0  0  0
   53.5958   58.3162   13.6232 N   0  0  0  0  0  0  0  0  0  0  0  0
   54.3485   57.3144   13.1350 C   0  0  0  0  0  0  0  0  0  0  0  0
   54.7159   57.3161   11.8002 C   0  0  0  0  0  0  0  0  0  0  0  0
   54.3117   58.3600   10.9920 C   0  0  0  0  0  0  0  0  0  0  0  0
   54.6606   58.3883    9.7204 N   0  0  0  0  0  0  0  0  0  0  0  0
   55.4587   56.2121   11.5627 N   0  0  0  0  0  0  0  0  0  0  0  0
   55.5447   55.5027   12.7162 C   0  0  0  0  0  0  0  0  0  0  0  0
   54.8605   56.1774   13.7036 N   0  0  0  0  0  0  0  0  0  0  0  0
  2  1  1  1  0  0  0
  2  3  1  0  0  0  0
  2  5  1  0  0  0  0
  3  4  1  0  0  0  0
  3 16  1  0  0  0  0
  5  6  1  0  0  0  0
  6  7  1  0  0  0  0
  7  8  1  0  0  0  0
  9  8  1  6  0  0  0
  9 10  1  0  0  0  0
  9 11  1  0  0  0  0
 10 15  1  0  0  0  0
 11 12  1  1  0  0  0
 11 13  1  0  0  0  0
 13 14  1  1  0  0  0
 13 15  1  0  0  0  0
 15 26  1  6  0  0  0
 17 18  2  0  0  0  0
 17 22  1  0  0  0  0
 18 19  1  0  0  0  0
 19 20  2  0  0  0  0
 20 21  1  0  0  0  0
 20 26  1  0  0  0  0
 21 22  2  0  0  0  0
 21 24  1  0  0  0  0
 22 23  1  0  0  0  0
 24 25  2  0  0  0  0
 25 26  1  0  0  0  0
M  END
>  <CHROM.1>
-65.83257412,59.84789888,-178.13209241,-174.31624551,68.92428111,78.21482888
85.18606688,52.76163776,55.96119038,15.77318203,2.02757635,0.19806920,1.94556149

>  <Name>
ligand

>  <RI>
0

>  <Rbt.Current_Directory>
/home/itssahil/PROJECTS/Mol_Feturizer/New_Systems/rnas/3GX3

>  <Rbt.Executable>
rbdock ($Id: //depot/dev/client3/rdock/2013.1/src/exe/rbdock.cxx#4 $)

>  <Rbt.Library>
libRbt.so (2013.1, Build901 2013/11/27)

>  <Rbt.Parameter_File>
/export/apps/rDock/src/rDock_2013.1_src/data/scripts/dock_solv.prm

>  <Rbt.Receptor>
prm/blind_docking_100.prm

>  <SCORE>
-14.3225

>  <SCORE.INTER>
-11.4468

>  <SCORE.INTER.CONST>
1

>  <SCORE.INTER.POLAR>
0

>  <SCORE.INTER.ROT>
7

>  <SCORE.INTER.SOLV>
13.8119

>  <SCORE.INTER.VDW>
-20.5018

>  <SCORE.INTER.norm>
-0.440263

>  <SCORE.INTRA>
-2.87565

>  <SCORE.INTRA.DIHEDRAL>
-1.63558

>  <SCORE.INTRA.DIHEDRAL.0>
5.78979

>  <SCORE.INTRA.POLAR>
0

>  <SCORE.INTRA.POLAR.0>
0

>  <SCORE.INTRA.REPUL>
0

>  <SCORE.INTRA.REPUL.0>
0

>  <SCORE.INTRA.SOLV>
-0.422375

>  <SCORE.INTRA.SOLV.lig_0>
-49.9151

>  <SCORE.INTRA.VDW>
-1.84667

>  <SCORE.INTRA.VDW.0>
-0.211125

>  <SCORE.INTRA.norm>
-0.110602

>  <SCORE.RESTR>
0

>  <SCORE.RESTR.CAVITY>
0

>  <SCORE.RESTR.norm>
0

>  <SCORE.SYSTEM>
0

>  <SCORE.SYSTEM.CONST>
0

>  <SCORE.SYSTEM.DIHEDRAL>
0

>  <SCORE.SYSTEM.SOLV>
0

>  <SCORE.SYSTEM.norm>
0

>  <SCORE.heavy>
26

>  <SCORE.norm>
-0.550865

>  <RMSD>
17.481

$$$$
ligand
 OpenBabel11021811483D
libRbt.so/2013.1/901 2013/11/27
 26 28  0  0  0  0  0  0  0  0999 V2000
   52.7749   63.6867   19.0819 N   0  0  0  0  0  0  0  0  0  0  0  0
   52.2741   63.3574   17.7445 C   0  0  2  0  0  0  0  0  0  0  0  0
   50.7483   63.3029   17.6416 C   0  0  0  0  0  0  0  0  0  0  0  0
   50.1438   62.5237   18.3789 O   0  0  0  0  0  0  0  0  0  0  0  0
   52.8062   62.0424   17.1604 C   0  0  0  0  0  0  0  0  0  0  0  0
   52.7212   60.7447   17.9449 C   0  0  0  0  0  0  0  0  0  0  0  0
   53.4308   59.4595   16.8903 S   0  0  0  0  0  0  0  0  0  0  0  0
   52.9194   58.2769   18.1597 C   0  0  0  0  0  0  0  0  0  0  0  0
   52.7333   56.8430   17.6521 C   0  0  1  0  0  0  0  0  0  0  0  0
   51.7420   56.7321   16.6244 O   0  0  0  0  0  0  0  0  0  0  0  0
   54.0341   56.2978   17.0805 C   0  0  1  0  0  0  0  0  0  0  0  0
   54.7765   55.6059   18.0601 O   0  0  0  0  0  0  0  0  0  0  0  0
   53.5997   55.4126   15.9196 C   0  0  1  0  0  0  0  0  0  0  0  0
   53.4130   54.0723   16.3271 O   0  0  0  0  0  0  0  0  0  0  0  0
   52.2439   55.9727   15.5368 C   0  0  2  0  0  0  0  0  0  0  0  0
   50.1004   64.0148   16.8642 O   0  0  0  0  0  0  0  0  0  0  0  0
   55.0216   57.2142   11.2518 N   0  0  0  0  0  0  0  0  0  0  0  0
   55.3538   56.3391   12.2551 C   0  0  0  0  0  0  0  0  0  0  0  0
   54.4963   56.1559   13.3196 N   0  0  0  0  0  0  0  0  0  0  0  0
   53.3148   56.7955   13.3786 C   0  0  0  0  0  0  0  0  0  0  0  0
   52.9601   57.6814   12.3755 C   0  0  0  0  0  0  0  0  0  0  0  0
   53.8254   57.8835   11.3188 C   0  0  0  0  0  0  0  0  0  0  0  0
   53.5024   58.7135   10.3460 N   0  0  0  0  0  0  0  0  0  0  0  0
   51.7415   58.1881   12.6677 N   0  0  0  0  0  0  0  0  0  0  0  0
   51.3335   57.6573   13.8481 C   0  0  0  0  0  0  0  0  0  0  0  0
   52.3012   56.7876   14.3011 N   0  0  0  0  0  0  0  0  0  0  0  0
  2  1  1  1  0  0  0
  2  3  1  0  0  0  0
  2  5  1  0  0  0  0
  3  4  1  0  0  0  0
  3 16  1  0  0  0  0
  5  6  1  0  0  0  0
  6  7  1  0  0  0  0
  7  8  1  0  0  0  0
  9  8  1  6  0  0  0
  9 10  1  0  0  0  0
  9 11  1  0  0  0  0
 10 15  1  0  0  0  0
 11 12  1  1  0  0  0
 11 13  1  0  0  0  0
 13 14  1  1  0  0  0
 13 15  1  0  0  0  0
 15 26  1  6  0  0  0
 17 18  2  0  0  0  0
 17 22  1  0  0  0  0
 18 19  1  0  0  0  0
 19 20  2  0  0  0  0
 20 21  1  0  0  0  0
 20 26  1  0  0  0  0
 21 22  2  0  0  0  0
 21 24  1  0  0  0  0
 22 23  1  0  0  0  0
 24 25  2  0  0  0  0
 25 26  1  0  0  0  0
M  END
>  <CHROM.1>
-57.68009788,52.01598787,179.19248447,-174.44205159,156.53959002,-59.84685213
138.40031704,52.86022347,58.59652100,15.62907518,-2.77646580,1.27910146,-1.33700076

>  <Name>
ligand

>  <RI>
0

>  <Rbt.Current_Directory>
/home/itssahil/PROJECTS/Mol_Feturizer/New_Systems/rnas/3GX3

>  <Rbt.Executable>
rbdock ($Id: //depot/dev/client3/rdock/2013.1/src/exe/rbdock.cxx#4 $)

>  <Rbt.Library>
libRbt.so (2013.1, Build901 2013/11/27)

>  <Rbt.Parameter_File>
/export/apps/rDock/src/rDock_2013.1_src/data/scripts/dock_solv.prm

>  <Rbt.Receptor>
prm/blind_docking_100.prm

>  <SCORE>
-13.059

>  <SCORE.INTER>
-9.62042

>  <SCORE.INTER.CONST>
1

>  <SCORE.INTER.POLAR>
0

>  <SCORE.INTER.ROT>
7

>  <SCORE.INTER.SOLV>
10.2616

>  <SCORE.INTER.VDW>
-18.1008

>  <SCORE.INTER.norm>
-0.370016

>  <SCORE.INTRA>
-3.43861

>  <SCORE.INTRA.DIHEDRAL>
-1.89626

>  <SCORE.INTRA.DIHEDRAL.0>
5.78979

>  <SCORE.INTRA.POLAR>
0

>  <SCORE.INTRA.POLAR.0>
0

>  <SCORE.INTRA.REPUL>
0

>  <SCORE.INTRA.REPUL.0>
0

>  <SCORE.INTRA.SOLV>
-0.231217

>  <SCORE.INTRA.SOLV.lig_0>
-49.9151

>  <SCORE.INTRA.VDW>
-2.37487

>  <SCORE.INTRA.VDW.0>
-0.211125

>  <SCORE.INTRA.norm>
-0.132254

>  <SCORE.RESTR>
0

>  <SCORE.RESTR.CAVITY>
0

>  <SCORE.RESTR.norm>
0

>  <SCORE.SYSTEM>
0

>  <SCORE.SYSTEM.CONST>
0

>  <SCORE.SYSTEM.DIHEDRAL>
0

>  <SCORE.SYSTEM.SOLV>
0

>  <SCORE.SYSTEM.norm>
0

>  <SCORE.heavy>
26

>  <SCORE.norm>
-0.50227

>  <RMSD>
17.503

$$$$
ligand
 OpenBabel11021811483D
libRbt.so/2013.1/901 2013/11/27
 26 28  0  0  0  0  0  0  0  0999 V2000
   53.5575   54.8779   14.3148 N   0  0  0  0  0  0  0  0  0  0  0  0
   53.3846   54.4758   15.7134 C   0  0  2  0  0  0  0  0  0  0  0  0
   52.1358   53.6303   15.9734 C   0  0  0  0  0  0  0  0  0  0  0  0
   52.1471   52.8566   16.9312 O   0  0  0  0  0  0  0  0  0  0  0  0
   53.3552   55.6330   16.7202 C   0  0  0  0  0  0  0  0  0  0  0  0
   52.3095   56.7302   16.6235 C   0  0  0  0  0  0  0  0  0  0  0  0
   52.6535   57.8876   17.9687 S   0  0  0  0  0  0  0  0  0  0  0  0
   53.5649   58.8708   16.7545 C   0  0  0  0  0  0  0  0  0  0  0  0
   54.4249   59.9860   17.3587 C   0  0  1  0  0  0  0  0  0  0  0  0
   55.1325   60.7491   16.3748 O   0  0  0  0  0  0  0  0  0  0  0  0
   53.5673   60.9621   18.1512 C   0  0  1  0  0  0  0  0  0  0  0  0
   53.4979   60.5983   19.5121 O   0  0  0  0  0  0  0  0  0  0  0  0
   54.2235   62.3178   17.9245 C   0  0  1  0  0  0  0  0  0  0  0  0
   55.1800   62.6080   18.9238 O   0  0  0  0  0  0  0  0  0  0  0  0
   54.9642   62.1368   16.6142 C   0  0  2  0  0  0  0  0  0  0  0  0
   51.1172   53.7021   15.2747 O   0  0  0  0  0  0  0  0  0  0  0  0
   55.1704   65.9066   12.9585 N   0  0  0  0  0  0  0  0  0  0  0  0
   56.1013   65.6044   13.9201 C   0  0  0  0  0  0  0  0  0  0  0  0
   55.8607   64.5809   14.8126 N   0  0  0  0  0  0  0  0  0  0  0  0
   54.7390   63.8427   14.7379 C   0  0  0  0  0  0  0  0  0  0  0  0
   53.7880   64.1304   13.7738 C   0  0  0  0  0  0  0  0  0  0  0  0
   54.0157   65.1680   12.8919 C   0  0  0  0  0  0  0  0  0  0  0  0
   53.1289   65.4517   11.9576 N   0  0  0  0  0  0  0  0  0  0  0  0
   52.7665   63.2557   13.9104 N   0  0  0  0  0  0  0  0  0  0  0  0
   53.0448   62.4392   14.9580 C   0  0  0  0  0  0  0  0  0  0  0  0
   54.2697   62.7914   15.4812 N   0  0  0  0  0  0  0  0  0  0  0  0
  2  1  1  6  0  0  0
  2  3  1  0  0  0  0
  2  5  1  0  0  0  0
  3  4  1  0  0  0  0
  3 16  1  0  0  0  0
  5  6  1  0  0  0  0
  6  7  1  0  0  0  0
  7  8  1  0  0  0  0
  9  8  1  6  0  0  0
  9 10  1  0  0  0  0
  9 11  1  0  0  0  0
 10 15  1  0  0  0  0
 11 12  1  1  0  0  0
 11 13  1  0  0  0  0
 13 14  1  1  0  0  0
 13 15  1  0  0  0  0
 15 26  1  6  0  0  0
 17 18  2  0  0  0  0
 17 22  1  0  0  0  0
 18 19  1  0  0  0  0
 19 20  2  0  0  0  0
 20 21  1  0  0  0  0
 20 26  1  0  0  0  0
 21 22  2  0  0  0  0
 21 24  1  0  0  0  0
 22 23  1  0  0  0  0
 24 25  2  0  0  0  0
 25 26  1  0  0  0  0
M  END
>  <CHROM.1>
153.59075082,59.39286620,-179.07362347,96.25396886,-168.01242289,-179.88605026
-122.67012470,53.69884770,60.18681135,15.96480511,2.37553093,1.28331946,2.14354394

>  <Name>
ligand

>  <RI>
0

>  <Rbt.Current_Directory>
/home/itssahil/PROJECTS/Mol_Feturizer/New_Systems/rnas/3GX3

>  <Rbt.Executable>
rbdock ($Id: //depot/dev/client3/rdock/2013.1/src/exe/rbdock.cxx#4 $)

>  <Rbt.Library>
libRbt.so (2013.1, Build901 2013/11/27)

>  <Rbt.Parameter_File>
/export/apps/rDock/src/rDock_2013.1_src/data/scripts/dock_solv.prm

>  <Rbt.Receptor>
prm/blind_docking_100.prm

>  <SCORE>
-9.11847

>  <SCORE.INTER>
-6.31139

>  <SCORE.INTER.CONST>
1

>  <SCORE.INTER.POLAR>
0

>  <SCORE.INTER.ROT>
7

>  <SCORE.INTER.SOLV>
11.7174

>  <SCORE.INTER.VDW>
-16.3801

>  <SCORE.INTER.norm>
-0.242746

>  <SCORE.INTRA>
-2.80708

>  <SCORE.INTRA.DIHEDRAL>
-1.17412

>  <SCORE.INTRA.DIHEDRAL.0>
5.78979

>  <SCORE.INTRA.POLAR>
0

>  <SCORE.INTRA.POLAR.0>
0

>  <SCORE.INTRA.REPUL>
0

>  <SCORE.INTRA.REPUL.0>
0

>  <SCORE.INTRA.SOLV>
-0.365149

>  <SCORE.INTRA.SOLV.lig_0>
-49.9151

>  <SCORE.INTRA.VDW>
-2.03744

>  <SCORE.INTRA.VDW.0>
-0.211125

>  <SCORE.INTRA.norm>
-0.107964

>  <SCORE.RESTR>
0

>  <SCORE.RESTR.CAVITY>
0

>  <SCORE.RESTR.norm>
0

>  <SCORE.SYSTEM>
0

>  <SCORE.SYSTEM.CONST>
0

>  <SCORE.SYSTEM.DIHEDRAL>
0

>  <SCORE.SYSTEM.SOLV>
0

>  <SCORE.SYSTEM.norm>
0

>  <SCORE.heavy>
26

>  <SCORE.norm>
-0.35071

>  <RMSD>
17.688

$$$$
ligand
 OpenBabel11021811483D
libRbt.so/2013.1/901 2013/11/27
 26 28  0  0  0  0  0  0  0  0999 V2000
   61.3145   46.4179   15.3029 N   0  0  0  0  0  0  0  0  0  0  0  0
   60.0953   45.8451   14.7256 C   0  0  2  0  0  0  0  0  0  0  0  0
   60.0365   45.9045   13.1976 C   0  0  0  0  0  0  0  0  0  0  0  0
   60.1795   46.9994   12.6529 O   0  0  0  0  0  0  0  0  0  0  0  0
   58.7861   46.4539   15.2446 C   0  0  0  0  0  0  0  0  0  0  0  0
   58.4225   46.3921   16.7179 C   0  0  0  0  0  0  0  0  0  0  0  0
   56.7070   46.9469   16.8473 S   0  0  0  0  0  0  0  0  0  0  0  0
   56.8112   46.5317   18.6046 C   0  0  0  0  0  0  0  0  0  0  0  0
   55.6368   45.6992   19.1300 C   0  0  1  0  0  0  0  0  0  0  0  0
   55.7526   45.3739   20.5198 O   0  0  0  0  0  0  0  0  0  0  0  0
   54.3221   46.4450   18.9525 C   0  0  1  0  0  0  0  0  0  0  0  0
   53.7046   46.1149   17.7281 O   0  0  0  0  0  0  0  0  0  0  0  0
   53.4932   46.0523   20.1685 C   0  0  1  0  0  0  0  0  0  0  0  0
   52.6909   44.9180   19.9086 O   0  0  0  0  0  0  0  0  0  0  0  0
   54.5369   45.6553   21.1939 C   0  0  2  0  0  0  0  0  0  0  0  0
   59.8671   44.9028   12.4914 O   0  0  0  0  0  0  0  0  0  0  0  0
   53.4806   50.5839   22.6808 N   0  0  0  0  0  0  0  0  0  0  0  0
   53.0850   49.9390   21.5361 C   0  0  0  0  0  0  0  0  0  0  0  0
   53.4799   48.6373   21.3088 N   0  0  0  0  0  0  0  0  0  0  0  0
   54.2216   47.9685   22.2094 C   0  0  0  0  0  0  0  0  0  0  0  0
   54.6296   48.6006   23.3716 C   0  0  0  0  0  0  0  0  0  0  0  0
   54.2540   49.9107   23.5929 C   0  0  0  0  0  0  0  0  0  0  0  0
   54.6211   50.5285   24.6989 N   0  0  0  0  0  0  0  0  0  0  0  0
   55.3564   47.7236   24.0995 N   0  0  0  0  0  0  0  0  0  0  0  0
   55.4349   46.5598   23.4062 C   0  0  0  0  0  0  0  0  0  0  0  0
   54.7319   46.6967   22.2292 N   0  0  0  0  0  0  0  0  0  0  0  0
  2  1  1  1  0  0  0
  2  3  1  0  0  0  0
  2  5  1  0  0  0  0
  3  4  1  0  0  0  0
  3 16  1  0  0  0  0
  5  6  1  0  0  0  0
  6  7  1  0  0  0  0
  7  8  1  0  0  0  0
  9  8  1  1  0  0  0
  9 10  1  0  0  0  0
  9 11  1  0  0  0  0
 10 15  1  0  0  0  0
 11 12  1  6  0  0  0
 11 13  1  0  0  0  0
 13 14  1  6  0  0  0
 13 15  1  0  0  0  0
 15 26  1  1  0  0  0
 17 18  2  0  0  0  0
 17 22  1  0  0  0  0
 18 19  1  0  0  0  0
 19 20  2  0  0  0  0
 20 21  1  0  0  0  0
 20 26  1  0  0  0  0
 21 22  2  0  0  0  0
 21 24  1  0  0  0  0
 22 23  1  0  0  0  0
 24 25  2  0  0  0  0
 25 26  1  0  0  0  0
M  END
>  <CHROM.1>
-54.81525602,-60.30949915,-170.19338646,175.13643809,-131.98678106,179.39064023
112.16659561,56.06110270,47.00642076,19.08331573,-0.89308901,0.58265741,0.89250698

>  <Name>
ligand

>  <RI>
0

>  <Rbt.Current_Directory>
/home/itssahil/PROJECTS/Mol_Feturizer/New_Systems/rnas/3GX3

>  <Rbt.Executable>
rbdock ($Id: //depot/dev/client3/rdock/2013.1/src/exe/rbdock.cxx#4 $)

>  <Rbt.Library>
libRbt.so (2013.1, Build901 2013/11/27)

>  <Rbt.Parameter_File>
/export/apps/rDock/src/rDock_2013.1_src/data/scripts/dock_solv.prm

>  <Rbt.Receptor>
prm/blind_docking_80.prm

>  <SCORE>
-15.8745

>  <SCORE.INTER>
-13.6516

>  <SCORE.INTER.CONST>
1

>  <SCORE.INTER.POLAR>
0

>  <SCORE.INTER.ROT>
7

>  <SCORE.INTER.SOLV>
25.4477

>  <SCORE.INTER.VDW>
-25.8503

>  <SCORE.INTER.norm>
-0.525063

>  <SCORE.INTRA>
-2.24397

>  <SCORE.INTRA.DIHEDRAL>
-0.381111

>  <SCORE.INTRA.DIHEDRAL.0>
5.78979

>  <SCORE.INTRA.POLAR>
0

>  <SCORE.INTRA.POLAR.0>
0

>  <SCORE.INTRA.REPUL>
0

>  <SCORE.INTRA.REPUL.0>
0

>  <SCORE.INTRA.SOLV>
-0.343936

>  <SCORE.INTRA.SOLV.lig_0>
-49.9151

>  <SCORE.INTRA.VDW>
-1.88145

>  <SCORE.INTRA.VDW.0>
-0.211125

>  <SCORE.INTRA.norm>
-0.0863067

>  <SCORE.RESTR>
0.0210631

>  <SCORE.RESTR.CAVITY>
0.0210631

>  <SCORE.RESTR.norm>
0.00081012

>  <SCORE.SYSTEM>
0

>  <SCORE.SYSTEM.CONST>
0

>  <SCORE.SYSTEM.DIHEDRAL>
0

>  <SCORE.SYSTEM.SOLV>
0

>  <SCORE.SYSTEM.norm>
0

>  <SCORE.heavy>
26

>  <SCORE.norm>
-0.610559

>  <RMSD>
17.864

$$$$
ligand
 OpenBabel11021811483D
libRbt.so/2013.1/901 2013/11/27
 26 28  0  0  0  0  0  0  0  0999 V2000
   56.0700   67.0276   19.4384 N   0  0  0  0  0  0  0  0  0  0  0  0
   55.3577   65.8643   18.9024 C   0  0  2  0  0  0  0  0  0  0  0  0
   55.7938   64.5280   19.5074 C   0  0  0  0  0  0  0  0  0  0  0  0
   55.0005   63.5870   19.4703 O   0  0  0  0  0  0  0  0  0  0  0  0
   55.4310   65.7069   17.3781 C   0  0  0  0  0  0  0  0  0  0  0  0
   54.7117   66.6744   16.4544 C   0  0  0  0  0  0  0  0  0  0  0  0
   52.9599   66.5976   16.8938 S   0  0  0  0  0  0  0  0  0  0  0  0
   52.6166   67.1630   15.2104 C   0  0  0  0  0  0  0  0  0  0  0  0
   52.3434   66.0375   14.2070 C   0  0  1  0  0  0  0  0  0  0  0  0
   53.4319   65.1151   14.0831 O   0  0  0  0  0  0  0  0  0  0  0  0
   51.1184   65.2326   14.6164 C   0  0  1  0  0  0  0  0  0  0  0  0
   49.9468   65.7367   14.0144 O   0  0  0  0  0  0  0  0  0  0  0  0
   51.4424   63.8045   14.1974 C   0  0  1  0  0  0  0  0  0  0  0  0
   50.9802   63.5267   12.8909 O   0  0  0  0  0  0  0  0  0  0  0  0
   52.9579   63.7809   14.1664 C   0  0  2  0  0  0  0  0  0  0  0  0
   56.9080   64.3511   20.0155 O   0  0  0  0  0  0  0  0  0  0  0  0
   51.9625   61.3304   18.7075 N   0  0  0  0  0  0  0  0  0  0  0  0
   51.0685   61.8985   17.8354 C   0  0  0  0  0  0  0  0  0  0  0  0
   51.5239   62.5194   16.6912 N   0  0  0  0  0  0  0  0  0  0  0  0
   52.8345   62.5496   16.3912 C   0  0  0  0  0  0  0  0  0  0  0  0
   53.7527   61.9806   17.2572 C   0  0  0  0  0  0  0  0  0  0  0  0
   53.3024   61.3765   18.4142 C   0  0  0  0  0  0  0  0  0  0  0  0
   54.1584   60.8174   19.2473 N   0  0  0  0  0  0  0  0  0  0  0  0
   54.9882   62.1444   16.7339 N   0  0  0  0  0  0  0  0  0  0  0  0
   54.8675   62.8278   15.5677 C   0  0  0  0  0  0  0  0  0  0  0  0
   53.5331   63.0848   15.3407 N   0  0  0  0  0  0  0  0  0  0  0  0
  2  1  1  1  0  0  0
  2  3  1  0  0  0  0
  2  5  1  0  0  0  0
  3  4  1  0  0  0  0
  3 16  1  0  0  0  0
  5  6  1  0  0  0  0
  6  7  1  0  0  0  0
  7  8  1  0  0  0  0
  9  8  1  1  0  0  0
  9 10  1  0  0  0  0
  9 11  1  0  0  0  0
 10 15  1  0  0  0  0
 11 12  1  6  0  0  0
 11 13  1  0  0  0  0
 13 14  1  6  0  0  0
 13 15  1  0  0  0  0
 15 26  1  1  0  0  0
 17 18  2  0  0  0  0
 17 22  1  0  0  0  0
 18 19  1  0  0  0  0
 19 20  2  0  0  0  0
 20 21  1  0  0  0  0
 20 26  1  0  0  0  0
 21 22  2  0  0  0  0
 21 24  1  0  0  0  0
 22 23  1  0  0  0  0
 24 25  2  0  0  0  0
 25 26  1  0  0  0  0
M  END
>  <CHROM.1>
156.46126213,-69.60081144,-58.41011720,-155.46200883,94.28290481,-59.22602827
119.48651726,53.40324043,64.21936591,16.66614573,-0.45624620,-0.83248414
-0.41347471

>  <Name>
ligand

>  <RI>
0

>  <Rbt.Current_Directory>
/home/itssahil/PROJECTS/Mol_Feturizer/New_Systems/rnas/3GX3

>  <Rbt.Executable>
rbdock ($Id: //depot/dev/client3/rdock/2013.1/src/exe/rbdock.cxx#4 $)

>  <Rbt.Library>
libRbt.so (2013.1, Build901 2013/11/27)

>  <Rbt.Parameter_File>
/export/apps/rDock/src/rDock_2013.1_src/data/scripts/dock_solv.prm

>  <Rbt.Receptor>
prm/blind_docking_100.prm

>  <SCORE>
-10.9299

>  <SCORE.INTER>
-6.79792

>  <SCORE.INTER.CONST>
1

>  <SCORE.INTER.POLAR>
0

>  <SCORE.INTER.ROT>
7

>  <SCORE.INTER.SOLV>
8.28382

>  <SCORE.INTER.VDW>
-15.5599

>  <SCORE.INTER.norm>
-0.261458

>  <SCORE.INTRA>
-4.13195

>  <SCORE.INTRA.DIHEDRAL>
-0.283725

>  <SCORE.INTRA.DIHEDRAL.0>
5.78979

>  <SCORE.INTRA.POLAR>
0

>  <SCORE.INTRA.POLAR.0>
0

>  <SCORE.INTRA.REPUL>
0

>  <SCORE.INTRA.REPUL.0>
0

>  <SCORE.INTRA.SOLV>
1.27815

>  <SCORE.INTRA.SOLV.lig_0>
-49.9151

>  <SCORE.INTRA.VDW>
-4.62916

>  <SCORE.INTRA.VDW.0>
-0.211125

>  <SCORE.INTRA.norm>
-0.158921

>  <SCORE.RESTR>
0

>  <SCORE.RESTR.CAVITY>
0

>  <SCORE.RESTR.norm>
0

>  <SCORE.SYSTEM>
0

>  <SCORE.SYSTEM.CONST>
0

>  <SCORE.SYSTEM.DIHEDRAL>
0

>  <SCORE.SYSTEM.SOLV>
0

>  <SCORE.SYSTEM.norm>
0

>  <SCORE.heavy>
26

>  <SCORE.norm>
-0.420379

>  <RMSD>
18.114

$$$$
ligand
 OpenBabel11021811483D
libRbt.so/2013.1/901 2013/11/27
 26 28  0  0  0  0  0  0  0  0999 V2000
   50.4978   53.3489   19.2120 N   0  0  0  0  0  0  0  0  0  0  0  0
   50.0396   54.0583   18.0142 C   0  0  2  0  0  0  0  0  0  0  0  0
   50.2363   53.2809   16.7109 C   0  0  0  0  0  0  0  0  0  0  0  0
   49.7595   53.7499   15.6771 O   0  0  0  0  0  0  0  0  0  0  0  0
   50.6647   55.4435   17.8041 C   0  0  0  0  0  0  0  0  0  0  0  0
   52.1719   55.6247   17.7573 C   0  0  0  0  0  0  0  0  0  0  0  0
   52.7262   54.9147   16.1901 S   0  0  0  0  0  0  0  0  0  0  0  0
   52.1551   56.4440   15.4113 C   0  0  0  0  0  0  0  0  0  0  0  0
   52.6522   56.6486   13.9762 C   0  0  1  0  0  0  0  0  0  0  0  0
   51.9883   57.7200   13.2962 O   0  0  0  0  0  0  0  0  0  0  0  0
   54.1414   56.9613   13.9585 C   0  0  1  0  0  0  0  0  0  0  0  0
   54.9115   55.7891   13.8094 O   0  0  0  0  0  0  0  0  0  0  0  0
   54.3118   57.9426   12.8060 C   0  0  1  0  0  0  0  0  0  0  0  0
   54.6081   57.2777   11.5944 O   0  0  0  0  0  0  0  0  0  0  0  0
   52.9369   58.5660   12.6671 C   0  0  2  0  0  0  0  0  0  0  0  0
   50.8626   52.2155   16.6508 O   0  0  0  0  0  0  0  0  0  0  0  0
   53.2898   63.7120   11.6610 N   0  0  0  0  0  0  0  0  0  0  0  0
   53.4263   62.6643   10.7856 C   0  0  0  0  0  0  0  0  0  0  0  0
   53.3175   61.3676   11.2428 N   0  0  0  0  0  0  0  0  0  0  0  0
   53.0429   61.1061   12.5330 C   0  0  0  0  0  0  0  0  0  0  0  0
   52.8998   62.1492   13.4320 C   0  0  0  0  0  0  0  0  0  0  0  0
   53.0290   63.4482   12.9823 C   0  0  0  0  0  0  0  0  0  0  0  0
   52.8844   64.4576   13.8189 N   0  0  0  0  0  0  0  0  0  0  0  0
   52.6330   61.6268   14.6498 N   0  0  0  0  0  0  0  0  0  0  0  0
   52.6305   60.2743   14.5396 C   0  0  0  0  0  0  0  0  0  0  0  0
   52.8820   59.9359   13.2280 N   0  0  0  0  0  0  0  0  0  0  0  0
  2  1  1  1  0  0  0
  2  3  1  0  0  0  0
  2  5  1  0  0  0  0
  3  4  1  0  0  0  0
  3 16  1  0  0  0  0
  5  6  1  0  0  0  0
  6  7  1  0  0  0  0
  7  8  1  0  0  0  0
  9  8  1  1  0  0  0
  9 10  1  0  0  0  0
  9 11  1  0  0  0  0
 10 15  1  0  0  0  0
 11 12  1  6  0  0  0
 11 13  1  0  0  0  0
 13 14  1  6  0  0  0
 13 15  1  0  0  0  0
 15 26  1  1  0  0  0
 17 18  2  0  0  0  0
 17 22  1  0  0  0  0
 18 19  1  0  0  0  0
 19 20  2  0  0  0  0
 20 21  1  0  0  0  0
 20 26  1  0  0  0  0
 21 22  2  0  0  0  0
 21 24  1  0  0  0  0
 22 23  1  0  0  0  0
 24 25  2  0  0  0  0
 25 26  1  0  0  0  0
M  END
>  <CHROM.1>
173.01672936,55.03659726,71.71709328,78.95197969,165.98142656,168.63037672
-142.98017650,52.49198694,57.81867532,14.51199495,1.96876040,-0.96306772
2.96886482

>  <Name>
ligand

>  <RI>
0

>  <Rbt.Current_Directory>
/home/itssahil/PROJECTS/Mol_Feturizer/New_Systems/rnas/3GX3

>  <Rbt.Executable>
rbdock ($Id: //depot/dev/client3/rdock/2013.1/src/exe/rbdock.cxx#4 $)

>  <Rbt.Library>
libRbt.so (2013.1, Build901 2013/11/27)

>  <Rbt.Parameter_File>
/export/apps/rDock/src/rDock_2013.1_src/data/scripts/dock_solv.prm

>  <Rbt.Receptor>
prm/blind_docking_100.prm

>  <SCORE>
-13.2244

>  <SCORE.INTER>
-11.1919

>  <SCORE.INTER.CONST>
1

>  <SCORE.INTER.POLAR>
0

>  <SCORE.INTER.ROT>
7

>  <SCORE.INTER.SOLV>
9.21216

>  <SCORE.INTER.VDW>
-18.7986

>  <SCORE.INTER.norm>
-0.430457

>  <SCORE.INTRA>
-2.03247

>  <SCORE.INTRA.DIHEDRAL>
-1.01999

>  <SCORE.INTRA.DIHEDRAL.0>
5.78979

>  <SCORE.INTRA.POLAR>
0

>  <SCORE.INTRA.POLAR.0>
0

>  <SCORE.INTRA.REPUL>
0

>  <SCORE.INTRA.REPUL.0>
0

>  <SCORE.INTRA.SOLV>
0.235531

>  <SCORE.INTRA.SOLV.lig_0>
-49.9151

>  <SCORE.INTRA.VDW>
-1.64024

>  <SCORE.INTRA.VDW.0>
-0.211125

>  <SCORE.INTRA.norm>
-0.0781719

>  <SCORE.RESTR>
0

>  <SCORE.RESTR.CAVITY>
0

>  <SCORE.RESTR.norm>
0

>  <SCORE.SYSTEM>
0

>  <SCORE.SYSTEM.CONST>
0

>  <SCORE.SYSTEM.DIHEDRAL>
0

>  <SCORE.SYSTEM.SOLV>
0

>  <SCORE.SYSTEM.norm>
0

>  <SCORE.heavy>
26

>  <SCORE.norm>
-0.508629

>  <RMSD>
18.323

$$$$
ligand
 OpenBabel11021811483D
libRbt.so/2013.1/901 2013/11/27
 26 28  0  0  0  0  0  0  0  0999 V2000
   55.1877   68.6535   20.8955 N   0  0  0  0  0  0  0  0  0  0  0  0
   54.9072   67.8429   19.7073 C   0  0  2  0  0  0  0  0  0  0  0  0
   53.6130   67.0308   19.7928 C   0  0  0  0  0  0  0  0  0  0  0  0
   52.8706   67.0157   18.8107 O   0  0  0  0  0  0  0  0  0  0  0  0
   56.0211   66.8637   19.3146 C   0  0  0  0  0  0  0  0  0  0  0  0
   55.8603   65.9273   18.1298 C   0  0  0  0  0  0  0  0  0  0  0  0
   54.9480   64.4879   18.7328 S   0  0  0  0  0  0  0  0  0  0  0  0
   54.7421   64.0181   16.9983 C   0  0  0  0  0  0  0  0  0  0  0  0
   53.3723   64.3659   16.4057 C   0  0  1  0  0  0  0  0  0  0  0  0
   53.2715   64.0732   15.0074 O   0  0  0  0  0  0  0  0  0  0  0  0
   52.2663   63.5905   17.1066 C   0  0  1  0  0  0  0  0  0  0  0  0
   51.7263   64.3244   18.1833 O   0  0  0  0  0  0  0  0  0  0  0  0
   51.2508   63.2980   16.0097 C   0  0  1  0  0  0  0  0  0  0  0  0
   50.2635   64.3063   15.9307 O   0  0  0  0  0  0  0  0  0  0  0  0
   52.0761   63.3585   14.7395 C   0  0  2  0  0  0  0  0  0  0  0  0
   53.2912   66.3815   20.7957 O   0  0  0  0  0  0  0  0  0  0  0  0
   53.5976   60.5794   10.5467 N   0  0  0  0  0  0  0  0  0  0  0  0
   53.4174   61.9359   10.6465 C   0  0  0  0  0  0  0  0  0  0  0  0
   52.9920   62.4873   11.8369 N   0  0  0  0  0  0  0  0  0  0  0  0
   52.7821   61.7214   12.9221 C   0  0  0  0  0  0  0  0  0  0  0  0
   52.9601   60.3507   12.8428 C   0  0  0  0  0  0  0  0  0  0  0  0
   53.3654   59.7924   11.6468 C   0  0  0  0  0  0  0  0  0  0  0  0
   53.5530   58.4904   11.5520 N   0  0  0  0  0  0  0  0  0  0  0  0
   52.6862   59.8160   14.0537 N   0  0  0  0  0  0  0  0  0  0  0  0
   52.3149   60.8208   14.8866 C   0  0  0  0  0  0  0  0  0  0  0  0
   52.3719   62.0121   14.1970 N   0  0  0  0  0  0  0  0  0  0  0  0
  2  1  1  1  0  0  0
  2  3  1  0  0  0  0
  2  5  1  0  0  0  0
  3  4  1  0  0  0  0
  3 16  1  0  0  0  0
  5  6  1  0  0  0  0
  6  7  1  0  0  0  0
  7  8  1  0  0  0  0
  9  8  1  1  0  0  0
  9 10  1  0  0  0  0
  9 11  1  0  0  0  0
 10 15  1  0  0  0  0
 11 12  1  1  0  0  0
 11 13  1  0  0  0  0
 13 14  1  6  0  0  0
 13 15  1  0  0  0  0
 15 26  1  1  0  0  0
 17 18  2  0  0  0  0
 17 22  1  0  0  0  0
 18 19  1  0  0  0  0
 19 20  2  0  0  0  0
 20 21  1  0  0  0  0
 20 26  1  0  0  0  0
 21 22  2  0  0  0  0
 21 24  1  0  0  0  0
 22 23  1  0  0  0  0
 24 25  2  0  0  0  0
 25 26  1  0  0  0  0
M  END
>  <CHROM.1>
135.69419791,178.20199273,-83.68895508,167.92787550,-100.41602770,175.65941609
-75.94069376,53.36332924,63.72515022,16.07741271,-1.42394066,-0.12056963
-2.23855491

>  <Name>
ligand

>  <RI>
0

>  <Rbt.Current_Directory>
/home/itssahil/PROJECTS/Mol_Feturizer/New_Systems/rnas/3GX3

>  <Rbt.Executable>
rbdock ($Id: //depot/dev/client3/rdock/2013.1/src/exe/rbdock.cxx#4 $)

>  <Rbt.Library>
libRbt.so (2013.1, Build901 2013/11/27)

>  <Rbt.Parameter_File>
/export/apps/rDock/src/rDock_2013.1_src/data/scripts/dock_solv.prm

>  <Rbt.Receptor>
prm/blind_docking_100.prm

>  <SCORE>
-10.2493

>  <SCORE.INTER>
-7.53622

>  <SCORE.INTER.CONST>
1

>  <SCORE.INTER.POLAR>
0

>  <SCORE.INTER.ROT>
7

>  <SCORE.INTER.SOLV>
8.72437

>  <SCORE.INTER.VDW>
-16.1989

>  <SCORE.INTER.norm>
-0.289855

>  <SCORE.INTRA>
-2.71311

>  <SCORE.INTRA.DIHEDRAL>
0.974345

>  <SCORE.INTRA.DIHEDRAL.0>
5.78979

>  <SCORE.INTRA.POLAR>
0

>  <SCORE.INTRA.POLAR.0>
0

>  <SCORE.INTRA.REPUL>
0

>  <SCORE.INTRA.REPUL.0>
0

>  <SCORE.INTRA.SOLV>
-0.585514

>  <SCORE.INTRA.SOLV.lig_0>
-49.9151

>  <SCORE.INTRA.VDW>
-2.90753

>  <SCORE.INTRA.VDW.0>
-0.211125

>  <SCORE.INTRA.norm>
-0.10435

>  <SCORE.RESTR>
0

>  <SCORE.RESTR.CAVITY>
0

>  <SCORE.RESTR.norm>
0

>  <SCORE.SYSTEM>
0

>  <SCORE.SYSTEM.CONST>
0

>  <SCORE.SYSTEM.DIHEDRAL>
0

>  <SCORE.SYSTEM.SOLV>
0

>  <SCORE.SYSTEM.norm>
0

>  <SCORE.heavy>
26

>  <SCORE.norm>
-0.394205

>  <RMSD>
18.828

$$$$
ligand
 OpenBabel11021811483D
libRbt.so/2013.1/901 2013/11/27
 26 28  0  0  0  0  0  0  0  0999 V2000
   53.1447   62.5991   19.7857 N   0  0  0  0  0  0  0  0  0  0  0  0
   52.4825   62.8760   18.5080 C   0  0  2  0  0  0  0  0  0  0  0  0
   51.2444   62.0163   18.2436 C   0  0  0  0  0  0  0  0  0  0  0  0
   51.2804   60.8297   18.5705 O   0  0  0  0  0  0  0  0  0  0  0  0
   53.3829   62.7502   17.2722 C   0  0  0  0  0  0  0  0  0  0  0  0
   54.5103   63.7361   17.0199 C   0  0  0  0  0  0  0  0  0  0  0  0
   55.3890   63.1474   15.5539 S   0  0  0  0  0  0  0  0  0  0  0  0
   55.4986   64.8803   15.0477 C   0  0  0  0  0  0  0  0  0  0  0  0
   54.3481   65.3534   14.1528 C   0  0  1  0  0  0  0  0  0  0  0  0
   54.0779   64.4639   13.0634 O   0  0  0  0  0  0  0  0  0  0  0  0
   53.0600   65.4870   14.9522 C   0  0  1  0  0  0  0  0  0  0  0  0
   52.8986   66.7957   15.4528 O   0  0  0  0  0  0  0  0  0  0  0  0
   51.9625   65.0764   13.9791 C   0  0  1  0  0  0  0  0  0  0  0  0
   51.4446   66.1887   13.2775 O   0  0  0  0  0  0  0  0  0  0  0  0
   52.6876   64.1963   12.9801 C   0  0  2  0  0  0  0  0  0  0  0  0
   50.2108   62.4645   17.7319 O   0  0  0  0  0  0  0  0  0  0  0  0
   53.4129   59.3012   11.2111 N   0  0  0  0  0  0  0  0  0  0  0  0
   53.8692   60.4762   10.6693 C   0  0  0  0  0  0  0  0  0  0  0  0
   53.5588   61.6774   11.2715 N   0  0  0  0  0  0  0  0  0  0  0  0
   52.8417   61.7203   12.4084 C   0  0  0  0  0  0  0  0  0  0  0  0
   52.3734   60.5457   12.9722 C   0  0  0  0  0  0  0  0  0  0  0  0
   52.6642   59.3425   12.3605 C   0  0  0  0  0  0  0  0  0  0  0  0
   52.2387   58.2105   12.8869 N   0  0  0  0  0  0  0  0  0  0  0  0
   51.6872   60.8572   14.0944 N   0  0  0  0  0  0  0  0  0  0  0  0
   51.6933   62.2070   14.2340 C   0  0  0  0  0  0  0  0  0  0  0  0
   52.4095   62.7570   13.1936 N   0  0  0  0  0  0  0  0  0  0  0  0
  2  1  1  1  0  0  0
  2  3  1  0  0  0  0
  2  5  1  0  0  0  0
  3  4  1  0  0  0  0
  3 16  1  0  0  0  0
  5  6  1  0  0  0  0
  6  7  1  0  0  0  0
  7  8  1  0  0  0  0
  9  8  1  1  0  0  0
  9 10  1  0  0  0  0
  9 11  1  0  0  0  0
 10 15  1  0  0  0  0
 11 12  1  6  0  0  0
 11 13  1  0  0  0  0
 13 14  1  6  0  0  0
 13 15  1  0  0  0  0
 15 26  1  1  0  0  0
 17 18  2  0  0  0  0
 17 22  1  0  0  0  0
 18 19  1  0  0  0  0
 19 20  2  0  0  0  0
 20 21  1  0  0  0  0
 20 26  1  0  0  0  0
 21 22  2  0  0  0  0
 21 24  1  0  0  0  0
 22 23  1  0  0  0  0
 24 25  2  0  0  0  0
 25 26  1  0  0  0  0
M  END
>  <CHROM.1>
-39.52819121,-68.42465423,175.43244865,139.62096013,-91.96330468,-48.29450526
-62.61040304,52.97156529,62.77865991,14.75304334,1.68298996,1.26310004,0.96485011

>  <Name>
ligand

>  <RI>
0

>  <Rbt.Current_Directory>
/home/itssahil/PROJECTS/Mol_Feturizer/New_Systems/rnas/3GX3

>  <Rbt.Executable>
rbdock ($Id: //depot/dev/client3/rdock/2013.1/src/exe/rbdock.cxx#4 $)

>  <Rbt.Library>
libRbt.so (2013.1, Build901 2013/11/27)

>  <Rbt.Parameter_File>
/export/apps/rDock/src/rDock_2013.1_src/data/scripts/dock_solv.prm

>  <Rbt.Receptor>
prm/blind_docking_100.prm

>  <SCORE>
-13.1131

>  <SCORE.INTER>
-10.0274

>  <SCORE.INTER.CONST>
1

>  <SCORE.INTER.POLAR>
0

>  <SCORE.INTER.ROT>
7

>  <SCORE.INTER.SOLV>
7.56821

>  <SCORE.INTER.VDW>
-17.4743

>  <SCORE.INTER.norm>
-0.385668

>  <SCORE.INTRA>
-3.08569

>  <SCORE.INTRA.DIHEDRAL>
1.03581

>  <SCORE.INTRA.DIHEDRAL.0>
5.78979

>  <SCORE.INTRA.POLAR>
0

>  <SCORE.INTRA.POLAR.0>
0

>  <SCORE.INTRA.REPUL>
0

>  <SCORE.INTRA.REPUL.0>
0

>  <SCORE.INTRA.SOLV>
-0.103774

>  <SCORE.INTRA.SOLV.lig_0>
-49.9151

>  <SCORE.INTRA.VDW>
-3.55171

>  <SCORE.INTRA.VDW.0>
-0.211125

>  <SCORE.INTRA.norm>
-0.11868

>  <SCORE.RESTR>
0

>  <SCORE.RESTR.CAVITY>
0

>  <SCORE.RESTR.norm>
0

>  <SCORE.SYSTEM>
0

>  <SCORE.SYSTEM.CONST>
0

>  <SCORE.SYSTEM.DIHEDRAL>
0

>  <SCORE.SYSTEM.SOLV>
0

>  <SCORE.SYSTEM.norm>
0

>  <SCORE.heavy>
26

>  <SCORE.norm>
-0.504349

>  <RMSD>
19.291

$$$$
ligand
 OpenBabel11021811483D
libRbt.so/2013.1/901 2013/11/27
 26 28  0  0  0  0  0  0  0  0999 V2000
   56.0831   56.4292   11.6498 N   0  0  0  0  0  0  0  0  0  0  0  0
   54.7933   56.2092   12.3099 C   0  0  2  0  0  0  0  0  0  0  0  0
   54.5998   54.7914   12.8524 C   0  0  0  0  0  0  0  0  0  0  0  0
   55.1086   53.8575   12.2319 O   0  0  0  0  0  0  0  0  0  0  0  0
   53.5637   56.5273   11.4493 C   0  0  0  0  0  0  0  0  0  0  0  0
   53.3525   57.9134   10.8656 C   0  0  0  0  0  0  0  0  0  0  0  0
   53.5008   59.0777   12.2404 S   0  0  0  0  0  0  0  0  0  0  0  0
   52.0679   59.9309   11.5403 C   0  0  0  0  0  0  0  0  0  0  0  0
   51.8117   61.3241   12.1248 C   0  0  1  0  0  0  0  0  0  0  0  0
   51.6428   61.3172   13.5469 O   0  0  0  0  0  0  0  0  0  0  0  0
   52.9693   62.2623   11.8156 C   0  0  1  0  0  0  0  0  0  0  0  0
   52.7460   62.9786   10.6212 O   0  0  0  0  0  0  0  0  0  0  0  0
   53.0727   63.1584   13.0430 C   0  0  1  0  0  0  0  0  0  0  0  0
   52.3013   64.3337   12.8972 O   0  0  0  0  0  0  0  0  0  0  0  0
   52.4432   62.3255   14.1422 C   0  0  2  0  0  0  0  0  0  0  0  0
   53.9702   54.5478   13.8893 O   0  0  0  0  0  0  0  0  0  0  0  0
   54.2250   57.9433   16.4311 N   0  0  0  0  0  0  0  0  0  0  0  0
   53.1520   58.0848   15.5877 C   0  0  0  0  0  0  0  0  0  0  0  0
   52.8235   59.3308   15.0961 N   0  0  0  0  0  0  0  0  0  0  0  0
   53.5599   60.4143   15.3999 C   0  0  0  0  0  0  0  0  0  0  0  0
   54.6475   60.2925   16.2478 C   0  0  0  0  0  0  0  0  0  0  0  0
   54.9669   59.0503   16.7589 C   0  0  0  0  0  0  0  0  0  0  0  0
   56.0062   58.9089   17.5586 N   0  0  0  0  0  0  0  0  0  0  0  0
   55.2111   61.5124   16.3938 N   0  0  0  0  0  0  0  0  0  0  0  0
   54.4841   62.4041   15.6742 C   0  0  0  0  0  0  0  0  0  0  0  0
   53.4548   61.7349   15.0489 N   0  0  0  0  0  0  0  0  0  0  0  0
  2  1  1  6  0  0  0
  2  3  1  0  0  0  0
  2  5  1  0  0  0  0
  3  4  1  0  0  0  0
  3 16  1  0  0  0  0
  5  6  1  0  0  0  0
  6  7  1  0  0  0  0
  7  8  1  0  0  0  0
  9  8  1  1  0  0  0
  9 10  1  0  0  0  0
  9 11  1  0  0  0  0
 10 15  1  0  0  0  0
 11 12  1  6  0  0  0
 11 13  1  0  0  0  0
 13 14  1  6  0  0  0
 13 15  1  0  0  0  0
 15 26  1  6  0  0  0
 17 18  2  0  0  0  0
 17 22  1  0  0  0  0
 18 19  1  0  0  0  0
 19 20  2  0  0  0  0
 20 21  1  0  0  0  0
 20 26  1  0  0  0  0
 21 22  2  0  0  0  0
 21 24  1  0  0  0  0
 22 23  1  0  0  0  0
 24 25  2  0  0  0  0
 25 26  1  0  0  0  0
M  END
>  <CHROM.1>
-33.54408094,-58.53362343,-51.99766361,-137.45317381,-166.78503697,-56.95425594
-6.04194237,53.68106140,59.45429166,13.60505183,0.89700149,1.17765013,-2.43296440

>  <Name>
ligand

>  <RI>
0

>  <Rbt.Current_Directory>
/home/itssahil/PROJECTS/Mol_Feturizer/New_Systems/rnas/3GX3

>  <Rbt.Executable>
rbdock ($Id: //depot/dev/client3/rdock/2013.1/src/exe/rbdock.cxx#4 $)

>  <Rbt.Library>
libRbt.so (2013.1, Build901 2013/11/27)

>  <Rbt.Parameter_File>
/export/apps/rDock/src/rDock_2013.1_src/data/scripts/dock_solv.prm

>  <Rbt.Receptor>
prm/blind_docking_100.prm

>  <SCORE>
-11.5555

>  <SCORE.INTER>
-8.03541

>  <SCORE.INTER.CONST>
1

>  <SCORE.INTER.POLAR>
0

>  <SCORE.INTER.ROT>
7

>  <SCORE.INTER.SOLV>
12.188

>  <SCORE.INTER.VDW>
-17.6863

>  <SCORE.INTER.norm>
-0.309054

>  <SCORE.INTRA>
-3.5201

>  <SCORE.INTRA.DIHEDRAL>
-0.448372

>  <SCORE.INTRA.DIHEDRAL.0>
5.78979

>  <SCORE.INTRA.POLAR>
0

>  <SCORE.INTRA.POLAR.0>
0

>  <SCORE.INTRA.REPUL>
0

>  <SCORE.INTRA.REPUL.0>
0

>  <SCORE.INTRA.SOLV>
0.602215

>  <SCORE.INTRA.SOLV.lig_0>
-49.9151

>  <SCORE.INTRA.VDW>
-3.59702

>  <SCORE.INTRA.VDW.0>
-0.211125

>  <SCORE.INTRA.norm>
-0.135389

>  <SCORE.RESTR>
0

>  <SCORE.RESTR.CAVITY>
0

>  <SCORE.RESTR.norm>
0

>  <SCORE.SYSTEM>
0

>  <SCORE.SYSTEM.CONST>
0

>  <SCORE.SYSTEM.DIHEDRAL>
0

>  <SCORE.SYSTEM.SOLV>
0

>  <SCORE.SYSTEM.norm>
0

>  <SCORE.heavy>
26

>  <SCORE.norm>
-0.444443

>  <RMSD>
19.299

$$$$
ligand
 OpenBabel11021811483D
libRbt.so/2013.1/901 2013/11/27
 26 28  0  0  0  0  0  0  0  0999 V2000
   52.3130   53.9466   17.7203 N   0  0  0  0  0  0  0  0  0  0  0  0
   51.7337   54.8934   16.7633 C   0  0  2  0  0  0  0  0  0  0  0  0
   50.2366   54.6973   16.5145 C   0  0  0  0  0  0  0  0  0  0  0  0
   49.8908   53.8540   15.6866 O   0  0  0  0  0  0  0  0  0  0  0  0
   52.4130   54.9199   15.3880 C   0  0  0  0  0  0  0  0  0  0  0  0
   53.8124   55.4843   15.2154 C   0  0  0  0  0  0  0  0  0  0  0  0
   54.3122   55.1084   13.5193 S   0  0  0  0  0  0  0  0  0  0  0  0
   53.4747   56.6384   13.0406 C   0  0  0  0  0  0  0  0  0  0  0  0
   53.6351   57.0135   11.5635 C   0  0  1  0  0  0  0  0  0  0  0  0
   52.7085   58.0165   11.1319 O   0  0  0  0  0  0  0  0  0  0  0  0
   55.0335   57.5477   11.2893 C   0  0  1  0  0  0  0  0  0  0  0  0
   55.9067   56.5179   10.8811 O   0  0  0  0  0  0  0  0  0  0  0  0
   54.8310   58.6200   10.2266 C   0  0  1  0  0  0  0  0  0  0  0  0
   54.9590   58.0921    8.9218 O   0  0  0  0  0  0  0  0  0  0  0  0
   53.3859   59.0370   10.4170 C   0  0  2  0  0  0  0  0  0  0  0  0
   49.3650   55.3361   17.1171 O   0  0  0  0  0  0  0  0  0  0  0  0
   52.7115   61.4943   15.0132 N   0  0  0  0  0  0  0  0  0  0  0  0
   52.7596   60.1446   14.7708 C   0  0  0  0  0  0  0  0  0  0  0  0
   52.9271   59.6829   13.4821 N   0  0  0  0  0  0  0  0  0  0  0  0
   53.0813   60.5348   12.4530 C   0  0  0  0  0  0  0  0  0  0  0  0
   53.0376   61.9004   12.6766 C   0  0  0  0  0  0  0  0  0  0  0  0
   52.8488   62.3664   13.9625 C   0  0  0  0  0  0  0  0  0  0  0  0
   52.8163   63.6633   14.2002 N   0  0  0  0  0  0  0  0  0  0  0  0
   53.2139   62.5303   11.4937 N   0  0  0  0  0  0  0  0  0  0  0  0
   53.3424   61.5875   10.5263 C   0  0  0  0  0  0  0  0  0  0  0  0
   53.2640   60.3413   11.1086 N   0  0  0  0  0  0  0  0  0  0  0  0
  2  1  1  1  0  0  0
  2  3  1  0  0  0  0
  2  5  1  0  0  0  0
  3  4  1  0  0  0  0
  3 16  1  0  0  0  0
  5  6  1  0  0  0  0
  6  7  1  0  0  0  0
  7  8  1  0  0  0  0
  9  8  1  1  0  0  0
  9 10  1  0  0  0  0
  9 11  1  0  0  0  0
 10 15  1  0  0  0  0
 11 12  1  6  0  0  0
 11 13  1  0  0  0  0
 13 14  1  6  0  0  0
 13 15  1  0  0  0  0
 15 26  1  1  0  0  0
 17 18  2  0  0  0  0
 17 22  1  0  0  0  0
 18 19  1  0  0  0  0
 19 20  2  0  0  0  0
 20 21  1  0  0  0  0
 20 26  1  0  0  0  0
 21 22  2  0  0  0  0
 21 24  1  0  0  0  0
 22 23  1  0  0  0  0
 24 25  2  0  0  0  0
 25 26  1  0  0  0  0
M  END
>  <CHROM.1>
-83.86800319,-69.84898487,172.05982022,86.01915158,174.92061841,165.14799770
26.99180451,53.05693269,57.97708552,13.27990170,2.07290301,-1.01097692,2.95596599

>  <Name>
ligand

>  <RI>
0

>  <Rbt.Current_Directory>
/home/itssahil/PROJECTS/Mol_Feturizer/New_Systems/rnas/3GX3

>  <Rbt.Executable>
rbdock ($Id: //depot/dev/client3/rdock/2013.1/src/exe/rbdock.cxx#4 $)

>  <Rbt.Library>
libRbt.so (2013.1, Build901 2013/11/27)

>  <Rbt.Parameter_File>
/export/apps/rDock/src/rDock_2013.1_src/data/scripts/dock_solv.prm

>  <Rbt.Receptor>
prm/blind_docking_100.prm

>  <SCORE>
-17.7801

>  <SCORE.INTER>
-15.39

>  <SCORE.INTER.CONST>
1

>  <SCORE.INTER.POLAR>
0

>  <SCORE.INTER.ROT>
7

>  <SCORE.INTER.SOLV>
9.83641

>  <SCORE.INTER.VDW>
-21.8054

>  <SCORE.INTER.norm>
-0.591922

>  <SCORE.INTRA>
-2.39018

>  <SCORE.INTRA.DIHEDRAL>
-0.666467

>  <SCORE.INTRA.DIHEDRAL.0>
5.78979

>  <SCORE.INTRA.POLAR>
0

>  <SCORE.INTRA.POLAR.0>
0

>  <SCORE.INTRA.REPUL>
0

>  <SCORE.INTRA.REPUL.0>
0

>  <SCORE.INTRA.SOLV>
-0.420059

>  <SCORE.INTRA.SOLV.lig_0>
-49.9151

>  <SCORE.INTRA.VDW>
-1.84692

>  <SCORE.INTRA.VDW.0>
-0.211125

>  <SCORE.INTRA.norm>
-0.09193

>  <SCORE.RESTR>
0

>  <SCORE.RESTR.CAVITY>
0

>  <SCORE.RESTR.norm>
0

>  <SCORE.SYSTEM>
0

>  <SCORE.SYSTEM.CONST>
0

>  <SCORE.SYSTEM.DIHEDRAL>
0

>  <SCORE.SYSTEM.SOLV>
0

>  <SCORE.SYSTEM.norm>
0

>  <SCORE.heavy>
26

>  <SCORE.norm>
-0.683852

>  <RMSD>
19.454

$$$$
ligand
 OpenBabel11021811483D
libRbt.so/2013.1/901 2013/11/27
 26 28  0  0  0  0  0  0  0  0999 V2000
   52.3851   53.8739   17.7925 N   0  0  0  0  0  0  0  0  0  0  0  0
   51.6801   54.3329   16.5925 C   0  0  2  0  0  0  0  0  0  0  0  0
   50.4096   53.5430   16.2704 C   0  0  0  0  0  0  0  0  0  0  0  0
   50.2039   52.4971   16.8867 O   0  0  0  0  0  0  0  0  0  0  0  0
   52.5267   54.3538   15.3132 C   0  0  0  0  0  0  0  0  0  0  0  0
   53.6883   55.3197   15.1574 C   0  0  0  0  0  0  0  0  0  0  0  0
   54.3634   55.0484   13.5026 S   0  0  0  0  0  0  0  0  0  0  0  0
   53.4745   56.5429   13.0048 C   0  0  0  0  0  0  0  0  0  0  0  0
   53.6666   56.9351   11.5359 C   0  0  1  0  0  0  0  0  0  0  0  0
   52.7510   57.9451   11.0970 O   0  0  0  0  0  0  0  0  0  0  0  0
   55.0714   57.4695   11.2973 C   0  0  1  0  0  0  0  0  0  0  0  0
   55.9510   56.4428   10.8953 O   0  0  0  0  0  0  0  0  0  0  0  0
   54.8931   58.5547   10.2435 C   0  0  1  0  0  0  0  0  0  0  0  0
   55.0475   58.0420    8.9355 O   0  0  0  0  0  0  0  0  0  0  0  0
   53.4452   58.9725   10.4085 C   0  0  2  0  0  0  0  0  0  0  0  0
   49.5792   53.9167   15.4327 O   0  0  0  0  0  0  0  0  0  0  0  0
   52.7508   61.3784   15.0288 N   0  0  0  0  0  0  0  0  0  0  0  0
   52.8117   60.0317   14.7733 C   0  0  0  0  0  0  0  0  0  0  0  0
   52.9826   59.5842   13.4801 N   0  0  0  0  0  0  0  0  0  0  0  0
   53.1277   60.4474   12.4592 C   0  0  0  0  0  0  0  0  0  0  0  0
   53.0711   61.8103   12.6960 C   0  0  0  0  0  0  0  0  0  0  0  0
   52.8788   62.2620   13.9865 C   0  0  0  0  0  0  0  0  0  0  0  0
   52.8340   63.5562   14.2369 N   0  0  0  0  0  0  0  0  0  0  0  0
   53.2403   62.4534   11.5192 N   0  0  0  0  0  0  0  0  0  0  0  0
   53.3772   61.5213   10.5426 C   0  0  0  0  0  0  0  0  0  0  0  0
   53.3113   60.2688   11.1128 N   0  0  0  0  0  0  0  0  0  0  0  0
  2  1  1  1  0  0  0
  2  3  1  0  0  0  0
  2  5  1  0  0  0  0
  3  4  1  0  0  0  0
  3 16  1  0  0  0  0
  5  6  1  0  0  0  0
  6  7  1  0  0  0  0
  7  8  1  0  0  0  0
  9  8  1  1  0  0  0
  9 10  1  0  0  0  0
  9 11  1  0  0  0  0
 10 15  1  0  0  0  0
 11 12  1  6  0  0  0
 11 13  1  0  0  0  0
 13 14  1  6  0  0  0
 13 15  1  0  0  0  0
 15 26  1  1  0  0  0
 17 18  2  0  0  0  0
 17 22  1  0  0  0  0
 18 19  1  0  0  0  0
 19 20  2  0  0  0  0
 20 21  1  0  0  0  0
 20 26  1  0  0  0  0
 21 22  2  0  0  0  0
 21 24  1  0  0  0  0
 22 23  1  0  0  0  0
 24 25  2  0  0  0  0
 25 26  1  0  0  0  0
M  END
>  <CHROM.1>
-11.13677746,-67.08276973,-178.11612737,101.66790137,178.97111838,167.92501050
28.40745670,53.11709135,57.71300129,13.24497304,2.04190951,-1.03395828,3.01393142

>  <Name>
ligand

>  <RI>
0

>  <Rbt.Current_Directory>
/home/itssahil/PROJECTS/Mol_Feturizer/New_Systems/rnas/3GX3

>  <Rbt.Executable>
rbdock ($Id: //depot/dev/client3/rdock/2013.1/src/exe/rbdock.cxx#4 $)

>  <Rbt.Library>
libRbt.so (2013.1, Build901 2013/11/27)

>  <Rbt.Parameter_File>
/export/apps/rDock/src/rDock_2013.1_src/data/scripts/dock_solv.prm

>  <Rbt.Receptor>
prm/blind_docking_100.prm

>  <SCORE>
-19.3553

>  <SCORE.INTER>
-16.2982

>  <SCORE.INTER.CONST>
1

>  <SCORE.INTER.POLAR>
0

>  <SCORE.INTER.ROT>
7

>  <SCORE.INTER.SOLV>
11.0038

>  <SCORE.INTER.VDW>
-22.8001

>  <SCORE.INTER.norm>
-0.626854

>  <SCORE.INTRA>
-3.05709

>  <SCORE.INTRA.DIHEDRAL>
-0.376591

>  <SCORE.INTRA.DIHEDRAL.0>
5.78979

>  <SCORE.INTRA.POLAR>
0

>  <SCORE.INTRA.POLAR.0>
0

>  <SCORE.INTRA.REPUL>
0

>  <SCORE.INTRA.REPUL.0>
0

>  <SCORE.INTRA.SOLV>
-0.360315

>  <SCORE.INTRA.SOLV.lig_0>
-49.9151

>  <SCORE.INTRA.VDW>
-2.68864

>  <SCORE.INTRA.VDW.0>
-0.211125

>  <SCORE.INTRA.norm>
-0.11758

>  <SCORE.RESTR>
0

>  <SCORE.RESTR.CAVITY>
0

>  <SCORE.RESTR.norm>
0

>  <SCORE.SYSTEM>
0

>  <SCORE.SYSTEM.CONST>
0

>  <SCORE.SYSTEM.DIHEDRAL>
0

>  <SCORE.SYSTEM.SOLV>
0

>  <SCORE.SYSTEM.norm>
0

>  <SCORE.heavy>
26

>  <SCORE.norm>
-0.744435

>  <RMSD>
19.513

$$$$
ligand
 OpenBabel11021811483D
libRbt.so/2013.1/901 2013/11/27
 26 28  0  0  0  0  0  0  0  0999 V2000
   52.9284   53.9145   17.9755 N   0  0  0  0  0  0  0  0  0  0  0  0
   52.0190   53.8879   16.8265 C   0  0  2  0  0  0  0  0  0  0  0  0
   51.1569   52.6266   16.7376 C   0  0  0  0  0  0  0  0  0  0  0  0
   49.9374   52.7624   16.6360 O   0  0  0  0  0  0  0  0  0  0  0  0
   52.6968   54.0600   15.4611 C   0  0  0  0  0  0  0  0  0  0  0  0
   53.4294   55.3419   15.1053 C   0  0  0  0  0  0  0  0  0  0  0  0
   54.1873   55.0683   13.4872 S   0  0  0  0  0  0  0  0  0  0  0  0
   53.3663   56.5905   12.9576 C   0  0  0  0  0  0  0  0  0  0  0  0
   53.6335   56.9808   11.5000 C   0  0  1  0  0  0  0  0  0  0  0  0
   52.7403   57.9886   11.0127 O   0  0  0  0  0  0  0  0  0  0  0  0
   55.0479   57.5173   11.3336 C   0  0  1  0  0  0  0  0  0  0  0  0
   55.9489   56.4915   10.9794 O   0  0  0  0  0  0  0  0  0  0  0  0
   54.9227   58.6006   10.2703 C   0  0  1  0  0  0  0  0  0  0  0  0
   55.1454   58.0862    8.9728 O   0  0  0  0  0  0  0  0  0  0  0  0
   53.4675   59.0161   10.3594 C   0  0  2  0  0  0  0  0  0  0  0  0
   51.6326   51.4844   16.7488 O   0  0  0  0  0  0  0  0  0  0  0  0
   52.7599   61.4396   14.9685 N   0  0  0  0  0  0  0  0  0  0  0  0
   52.8691   60.0938   14.7247 C   0  0  0  0  0  0  0  0  0  0  0  0
   53.0349   59.6403   13.4329 N   0  0  0  0  0  0  0  0  0  0  0  0
   53.1282   60.4982   12.4014 C   0  0  0  0  0  0  0  0  0  0  0  0
   53.0223   61.8601   12.6265 C   0  0  0  0  0  0  0  0  0  0  0  0
   52.8350   62.3170   13.9159 C   0  0  0  0  0  0  0  0  0  0  0  0
   52.7438   63.6109   14.1548 N   0  0  0  0  0  0  0  0  0  0  0  0
   53.1457   62.4974   11.4408 N   0  0  0  0  0  0  0  0  0  0  0  0
   53.3019   61.5615   10.4707 C   0  0  0  0  0  0  0  0  0  0  0  0
   53.2951   60.3133   11.0538 N   0  0  0  0  0  0  0  0  0  0  0  0
  2  1  1  1  0  0  0
  2  3  1  0  0  0  0
  2  5  1  0  0  0  0
  3  4  1  0  0  0  0
  3 16  1  0  0  0  0
  5  6  1  0  0  0  0
  6  7  1  0  0  0  0
  7  8  1  0  0  0  0
  9  8  1  1  0  0  0
  9 10  1  0  0  0  0
  9 11  1  0  0  0  0
 10 15  1  0  0  0  0
 11 12  1  6  0  0  0
 11 13  1  0  0  0  0
 13 14  1  6  0  0  0
 13 15  1  0  0  0  0
 15 26  1  1  0  0  0
 17 18  2  0  0  0  0
 17 22  1  0  0  0  0
 18 19  1  0  0  0  0
 19 20  2  0  0  0  0
 20 21  1  0  0  0  0
 20 26  1  0  0  0  0
 21 22  2  0  0  0  0
 21 24  1  0  0  0  0
 22 23  1  0  0  0  0
 24 25  2  0  0  0  0
 25 26  1  0  0  0  0
M  END
>  <CHROM.1>
126.98662000,-63.32305211,175.26082262,126.97589120,179.77461950,166.00683574
32.95189322,53.22153764,57.60084721,13.29920432,1.93709813,-1.10384712,2.94375714

>  <Name>
ligand

>  <RI>
0

>  <Rbt.Current_Directory>
/home/itssahil/PROJECTS/Mol_Feturizer/New_Systems/rnas/3GX3

>  <Rbt.Executable>
rbdock ($Id: //depot/dev/client3/rdock/2013.1/src/exe/rbdock.cxx#4 $)

>  <Rbt.Library>
libRbt.so (2013.1, Build901 2013/11/27)

>  <Rbt.Parameter_File>
/export/apps/rDock/src/rDock_2013.1_src/data/scripts/dock_solv.prm

>  <Rbt.Receptor>
prm/blind_docking_100.prm

>  <SCORE>
-19.3469

>  <SCORE.INTER>
-16.167

>  <SCORE.INTER.CONST>
1

>  <SCORE.INTER.POLAR>
0

>  <SCORE.INTER.ROT>
7

>  <SCORE.INTER.SOLV>
11.5873

>  <SCORE.INTER.VDW>
-22.9071

>  <SCORE.INTER.norm>
-0.621808

>  <SCORE.INTRA>
-3.17993

>  <SCORE.INTRA.DIHEDRAL>
0.107225

>  <SCORE.INTRA.DIHEDRAL.0>
5.78979

>  <SCORE.INTRA.POLAR>
0

>  <SCORE.INTRA.POLAR.0>
0

>  <SCORE.INTRA.REPUL>
0

>  <SCORE.INTRA.REPUL.0>
0

>  <SCORE.INTRA.SOLV>
-0.391652

>  <SCORE.INTRA.SOLV.lig_0>
-49.9151

>  <SCORE.INTRA.VDW>
-3.03772

>  <SCORE.INTRA.VDW.0>
-0.211125

>  <SCORE.INTRA.norm>
-0.122305

>  <SCORE.RESTR>
0

>  <SCORE.RESTR.CAVITY>
0

>  <SCORE.RESTR.norm>
0

>  <SCORE.SYSTEM>
0

>  <SCORE.SYSTEM.CONST>
0

>  <SCORE.SYSTEM.DIHEDRAL>
0

>  <SCORE.SYSTEM.SOLV>
0

>  <SCORE.SYSTEM.norm>
0

>  <SCORE.heavy>
26

>  <SCORE.norm>
-0.744113

>  <RMSD>
19.551

$$$$
ligand
 OpenBabel11021811483D
libRbt.so/2013.1/901 2013/11/27
 26 28  0  0  0  0  0  0  0  0999 V2000
   52.5001   53.9323   16.6666 N   0  0  0  0  0  0  0  0  0  0  0  0
   53.6255   54.6590   16.0722 C   0  0  2  0  0  0  0  0  0  0  0  0
   53.8164   56.0757   16.6185 C   0  0  0  0  0  0  0  0  0  0  0  0
   52.8149   56.7096   16.9519 O   0  0  0  0  0  0  0  0  0  0  0  0
   53.5857   54.7740   14.5429 C   0  0  0  0  0  0  0  0  0  0  0  0
   54.6377   55.5684   13.7887 C   0  0  0  0  0  0  0  0  0  0  0  0
   54.5724   55.0069   12.0717 S   0  0  0  0  0  0  0  0  0  0  0  0
   55.1303   56.6653   11.6139 C   0  0  0  0  0  0  0  0  0  0  0  0
   54.2995   57.3321   10.5123 C   0  0  1  0  0  0  0  0  0  0  0  0
   53.0705   57.8897   10.9915 O   0  0  0  0  0  0  0  0  0  0  0  0
   55.0785   58.4626    9.8558 C   0  0  1  0  0  0  0  0  0  0  0  0
   55.7868   58.0095    8.7234 O   0  0  0  0  0  0  0  0  0  0  0  0
   54.0241   59.5110    9.5250 C   0  0  1  0  0  0  0  0  0  0  0  0
   53.5060   59.3365    8.2217 O   0  0  0  0  0  0  0  0  0  0  0  0
   52.9099   59.2137   10.5091 C   0  0  2  0  0  0  0  0  0  0  0  0
   54.9286   56.6013   16.7517 O   0  0  0  0  0  0  0  0  0  0  0  0
   53.0918   59.8855   15.7181 N   0  0  0  0  0  0  0  0  0  0  0  0
   53.1523   58.7115   15.0107 C   0  0  0  0  0  0  0  0  0  0  0  0
   53.0695   58.7330   13.6342 N   0  0  0  0  0  0  0  0  0  0  0  0
   52.9653   59.8931   12.9621 C   0  0  0  0  0  0  0  0  0  0  0  0
   52.9044   61.0889   13.6571 C   0  0  0  0  0  0  0  0  0  0  0  0
   52.9657   61.0699   15.0363 C   0  0  0  0  0  0  0  0  0  0  0  0
   52.9219   62.1981   15.7181 N   0  0  0  0  0  0  0  0  0  0  0  0
   52.8004   62.0959   12.7615 N   0  0  0  0  0  0  0  0  0  0  0  0
   52.7692   61.5552   11.5173 C   0  0  0  0  0  0  0  0  0  0  0  0
   52.8730   60.1857   11.6264 N   0  0  0  0  0  0  0  0  0  0  0  0
  2  1  1  1  0  0  0
  2  3  1  0  0  0  0
  2  5  1  0  0  0  0
  3  4  1  0  0  0  0
  3 16  1  0  0  0  0
  5  6  1  0  0  0  0
  6  7  1  0  0  0  0
  7  8  1  0  0  0  0
  9  8  1  1  0  0  0
  9 10  1  0  0  0  0
  9 11  1  0  0  0  0
 10 15  1  0  0  0  0
 11 12  1  6  0  0  0
 11 13  1  0  0  0  0
 13 14  1  6  0  0  0
 13 15  1  0  0  0  0
 15 26  1  1  0  0  0
 17 18  2  0  0  0  0
 17 22  1  0  0  0  0
 18 19  1  0  0  0  0
 19 20  2  0  0  0  0
 20 21  1  0  0  0  0
 20 26  1  0  0  0  0
 21 22  2  0  0  0  0
 21 24  1  0  0  0  0
 22 23  1  0  0  0  0
 24 25  2  0  0  0  0
 25 26  1  0  0  0  0
M  END
>  <CHROM.1>
-33.23788136,176.33919893,161.30292809,150.69378121,-130.48790007,79.29150699
-0.55596046,53.67655989,58.06219763,13.03797329,-1.67532865,1.28626450,-0.88848353

>  <Name>
ligand

>  <RI>
0

>  <Rbt.Current_Directory>
/home/itssahil/PROJECTS/Mol_Feturizer/New_Systems/rnas/3GX3

>  <Rbt.Executable>
rbdock ($Id: //depot/dev/client3/rdock/2013.1/src/exe/rbdock.cxx#4 $)

>  <Rbt.Library>
libRbt.so (2013.1, Build901 2013/11/27)

>  <Rbt.Parameter_File>
/export/apps/rDock/src/rDock_2013.1_src/data/scripts/dock_solv.prm

>  <Rbt.Receptor>
prm/blind_docking_100.prm

>  <SCORE>
-16.0889

>  <SCORE.INTER>
-13.7192

>  <SCORE.INTER.CONST>
1

>  <SCORE.INTER.POLAR>
0

>  <SCORE.INTER.ROT>
7

>  <SCORE.INTER.SOLV>
11.7509

>  <SCORE.INTER.VDW>
-21.3298

>  <SCORE.INTER.norm>
-0.527663

>  <SCORE.INTRA>
-2.36962

>  <SCORE.INTRA.DIHEDRAL>
2.9533

>  <SCORE.INTRA.DIHEDRAL.0>
5.78979

>  <SCORE.INTRA.POLAR>
0

>  <SCORE.INTRA.POLAR.0>
0

>  <SCORE.INTRA.REPUL>
0

>  <SCORE.INTRA.REPUL.0>
0

>  <SCORE.INTRA.SOLV>
-1.09199

>  <SCORE.INTRA.SOLV.lig_0>
-49.9151

>  <SCORE.INTRA.VDW>
-3.30027

>  <SCORE.INTRA.VDW.0>
-0.211125

>  <SCORE.INTRA.norm>
-0.0911392

>  <SCORE.RESTR>
0

>  <SCORE.RESTR.CAVITY>
0

>  <SCORE.RESTR.norm>
0

>  <SCORE.SYSTEM>
0

>  <SCORE.SYSTEM.CONST>
0

>  <SCORE.SYSTEM.DIHEDRAL>
0

>  <SCORE.SYSTEM.SOLV>
0

>  <SCORE.SYSTEM.norm>
0

>  <SCORE.heavy>
26

>  <SCORE.norm>
-0.618802

>  <RMSD>
19.772

$$$$
ligand
 OpenBabel11021811483D
libRbt.so/2013.1/901 2013/11/27
 26 28  0  0  0  0  0  0  0  0999 V2000
   52.5561   53.8413   16.7436 N   0  0  0  0  0  0  0  0  0  0  0  0
   52.8637   54.9560   15.8433 C   0  0  2  0  0  0  0  0  0  0  0  0
   51.6504   55.8061   15.4598 C   0  0  0  0  0  0  0  0  0  0  0  0
   50.5320   55.3008   15.5598 O   0  0  0  0  0  0  0  0  0  0  0  0
   53.5587   54.5578   14.5349 C   0  0  0  0  0  0  0  0  0  0  0  0
   54.1695   55.6058   13.6209 C   0  0  0  0  0  0  0  0  0  0  0  0
   54.9169   54.7103   12.2399 S   0  0  0  0  0  0  0  0  0  0  0  0
   55.4879   56.3176   11.6383 C   0  0  0  0  0  0  0  0  0  0  0  0
   54.5469   56.9887   10.6322 C   0  0  1  0  0  0  0  0  0  0  0  0
   53.2726   57.3281   11.1907 O   0  0  0  0  0  0  0  0  0  0  0  0
   55.1573   58.2748   10.0944 C   0  0  1  0  0  0  0  0  0  0  0  0
   55.8823   58.0429    8.9070 O   0  0  0  0  0  0  0  0  0  0  0  0
   53.9699   59.2090    9.9005 C   0  0  1  0  0  0  0  0  0  0  0  0
   53.4386   59.1132    8.5943 O   0  0  0  0  0  0  0  0  0  0  0  0
   52.9323   58.6654   10.8628 C   0  0  2  0  0  0  0  0  0  0  0  0
   51.7450   56.9766   15.0701 O   0  0  0  0  0  0  0  0  0  0  0  0
   52.9992   63.5266   12.8582 N   0  0  0  0  0  0  0  0  0  0  0  0
   53.1860   63.1411   11.5547 C   0  0  0  0  0  0  0  0  0  0  0  0
   53.1507   61.8033   11.2216 N   0  0  0  0  0  0  0  0  0  0  0  0
   52.8998   60.8622   12.1490 C   0  0  0  0  0  0  0  0  0  0  0  0
   52.7068   61.2306   13.4695 C   0  0  0  0  0  0  0  0  0  0  0  0
   52.7624   62.5673   13.8107 C   0  0  0  0  0  0  0  0  0  0  0  0
   52.5693   62.9418   15.0605 N   0  0  0  0  0  0  0  0  0  0  0  0
   52.4773   60.1122   14.1932 N   0  0  0  0  0  0  0  0  0  0  0  0
   52.5471   59.0450   13.3581 C   0  0  0  0  0  0  0  0  0  0  0  0
   52.8073   59.4965   12.0827 N   0  0  0  0  0  0  0  0  0  0  0  0
  2  1  1  6  0  0  0
  2  3  1  0  0  0  0
  2  5  1  0  0  0  0
  3  4  1  0  0  0  0
  3 16  1  0  0  0  0
  5  6  1  0  0  0  0
  6  7  1  0  0  0  0
  7  8  1  0  0  0  0
  9  8  1  1  0  0  0
  9 10  1  0  0  0  0
  9 11  1  0  0  0  0
 10 15  1  0  0  0  0
 11 12  1  6  0  0  0
 11 13  1  0  0  0  0
 13 14  1  6  0  0  0
 13 15  1  0  0  0  0
 15 26  1  1  0  0  0
 17 18  2  0  0  0  0
 17 22  1  0  0  0  0
 18 19  1  0  0  0  0
 19 20  2  0  0  0  0
 20 21  1  0  0  0  0
 20 26  1  0  0  0  0
 21 22  2  0  0  0  0
 21 24  1  0  0  0  0
 22 23  1  0  0  0  0
 24 25  2  0  0  0  0
 25 26  1  0  0  0  0
M  END
>  <CHROM.1>
-21.89027503,-168.61085222,178.31055879,-177.15542105,-93.38803622,64.28293374
158.54505065,53.34515197,58.21480902,12.66967350,1.60283896,-1.08520870,2.79741375

>  <Name>
ligand

>  <RI>
0

>  <Rbt.Current_Directory>
/home/itssahil/PROJECTS/Mol_Feturizer/New_Systems/rnas/3GX3

>  <Rbt.Executable>
rbdock ($Id: //depot/dev/client3/rdock/2013.1/src/exe/rbdock.cxx#4 $)

>  <Rbt.Library>
libRbt.so (2013.1, Build901 2013/11/27)

>  <Rbt.Parameter_File>
/export/apps/rDock/src/rDock_2013.1_src/data/scripts/dock_solv.prm

>  <Rbt.Receptor>
prm/blind_docking_100.prm

>  <SCORE>
-21.7649

>  <SCORE.INTER>
-18.2267

>  <SCORE.INTER.CONST>
1

>  <SCORE.INTER.POLAR>
0

>  <SCORE.INTER.ROT>
7

>  <SCORE.INTER.SOLV>
11.3934

>  <SCORE.INTER.VDW>
-24.2156

>  <SCORE.INTER.norm>
-0.701028

>  <SCORE.INTRA>
-3.53812

>  <SCORE.INTRA.DIHEDRAL>
-1.05454

>  <SCORE.INTRA.DIHEDRAL.0>
5.78979

>  <SCORE.INTRA.POLAR>
0

>  <SCORE.INTRA.POLAR.0>
0

>  <SCORE.INTRA.REPUL>
0

>  <SCORE.INTRA.REPUL.0>
0

>  <SCORE.INTRA.SOLV>
-0.98351

>  <SCORE.INTRA.SOLV.lig_0>
-49.9151

>  <SCORE.INTRA.VDW>
-2.5191

>  <SCORE.INTRA.VDW.0>
-0.211125

>  <SCORE.INTRA.norm>
-0.136082

>  <SCORE.RESTR>
0

>  <SCORE.RESTR.CAVITY>
0

>  <SCORE.RESTR.norm>
0

>  <SCORE.SYSTEM>
0

>  <SCORE.SYSTEM.CONST>
0

>  <SCORE.SYSTEM.DIHEDRAL>
0

>  <SCORE.SYSTEM.SOLV>
0

>  <SCORE.SYSTEM.norm>
0

>  <SCORE.heavy>
26

>  <SCORE.norm>
-0.83711

>  <RMSD>
19.994

$$$$
ligand
 OpenBabel11021811483D
libRbt.so/2013.1/901 2013/11/27
 26 28  0  0  0  0  0  0  0  0999 V2000
   52.4903   53.9400   16.6655 N   0  0  0  0  0  0  0  0  0  0  0  0
   52.8479   55.0561   15.7856 C   0  0  2  0  0  0  0  0  0  0  0  0
   51.6630   55.9291   15.3663 C   0  0  0  0  0  0  0  0  0  0  0  0
   50.5262   55.4969   15.5584 O   0  0  0  0  0  0  0  0  0  0  0  0
   53.5821   54.6559   14.4993 C   0  0  0  0  0  0  0  0  0  0  0  0
   54.1837   55.7053   13.5810 C   0  0  0  0  0  0  0  0  0  0  0  0
   55.0357   54.8074   12.2636 S   0  0  0  0  0  0  0  0  0  0  0  0
   55.5804   56.4209   11.6541 C   0  0  0  0  0  0  0  0  0  0  0  0
   54.6391   57.0621   10.6289 C   0  0  1  0  0  0  0  0  0  0  0  0
   53.3733   57.4388   11.1830 O   0  0  0  0  0  0  0  0  0  0  0  0
   55.2599   58.3182   10.0351 C   0  0  1  0  0  0  0  0  0  0  0  0
   55.9726   58.0302    8.8525 O   0  0  0  0  0  0  0  0  0  0  0  0
   54.0819   59.2579    9.8128 C   0  0  1  0  0  0  0  0  0  0  0  0
   53.5390   59.1159    8.5156 O   0  0  0  0  0  0  0  0  0  0  0  0
   53.0459   58.7657   10.8041 C   0  0  2  0  0  0  0  0  0  0  0  0
   51.7990   57.0496   14.8593 O   0  0  0  0  0  0  0  0  0  0  0  0
   53.1369   63.7058   12.5943 N   0  0  0  0  0  0  0  0  0  0  0  0
   53.3018   63.2667   11.3049 C   0  0  0  0  0  0  0  0  0  0  0  0
   53.2637   61.9161   11.0283 N   0  0  0  0  0  0  0  0  0  0  0  0
   53.0310   61.0141   11.9982 C   0  0  0  0  0  0  0  0  0  0  0  0
   52.8602   61.4368   13.3055 C   0  0  0  0  0  0  0  0  0  0  0  0
   52.9189   62.7866   13.5898 C   0  0  0  0  0  0  0  0  0  0  0  0
   52.7467   63.2125   14.8261 N   0  0  0  0  0  0  0  0  0  0  0  0
   52.6458   60.3491   14.0790 N   0  0  0  0  0  0  0  0  0  0  0  0
   52.7034   59.2482   13.2877 C   0  0  0  0  0  0  0  0  0  0  0  0
   52.9403   59.6467   11.9903 N   0  0  0  0  0  0  0  0  0  0  0  0
  2  1  1  6  0  0  0
  2  3  1  0  0  0  0
  2  5  1  0  0  0  0
  3  4  1  0  0  0  0
  3 16  1  0  0  0  0
  5  6  1  0  0  0  0
  6  7  1  0  0  0  0
  7  8  1  0  0  0  0
  9  8  1  1  0  0  0
  9 10  1  0  0  0  0
  9 11  1  0  0  0  0
 10 15  1  0  0  0  0
 11 12  1  6  0  0  0
 11 13  1  0  0  0  0
 13 14  1  6  0  0  0
 13 15  1  0  0  0  0
 15 26  1  1  0  0  0
 17 18  2  0  0  0  0
 17 22  1  0  0  0  0
 18 19  1  0  0  0  0
 19 20  2  0  0  0  0
 20 21  1  0  0  0  0
 20 26  1  0  0  0  0
 21 22  2  0  0  0  0
 21 24  1  0  0  0  0
 22 23  1  0  0  0  0
 24 25  2  0  0  0  0
 25 26  1  0  0  0  0
M  END
>  <CHROM.1>
-14.15433961,-171.60813614,176.34504559,-176.24100067,-90.83109881,67.14836733
159.49818400,53.43668003,58.33486683,12.57834847,1.62652892,-1.07380383,2.81219597

>  <Name>
ligand

>  <RI>
0

>  <Rbt.Current_Directory>
/home/itssahil/PROJECTS/Mol_Feturizer/New_Systems/rnas/3GX3

>  <Rbt.Executable>
rbdock ($Id: //depot/dev/client3/rdock/2013.1/src/exe/rbdock.cxx#4 $)

>  <Rbt.Library>
libRbt.so (2013.1, Build901 2013/11/27)

>  <Rbt.Parameter_File>
/export/apps/rDock/src/rDock_2013.1_src/data/scripts/dock_solv.prm

>  <Rbt.Receptor>
prm/blind_docking_100.prm

>  <SCORE>
-21.5036

>  <SCORE.INTER>
-18.1032

>  <SCORE.INTER.CONST>
1

>  <SCORE.INTER.POLAR>
0

>  <SCORE.INTER.ROT>
7

>  <SCORE.INTER.SOLV>
11.6699

>  <SCORE.INTER.VDW>
-24.2254

>  <SCORE.INTER.norm>
-0.696277

>  <SCORE.INTRA>
-3.40038

>  <SCORE.INTRA.DIHEDRAL>
-1.2581

>  <SCORE.INTRA.DIHEDRAL.0>
5.78979

>  <SCORE.INTRA.POLAR>
0

>  <SCORE.INTRA.POLAR.0>
0

>  <SCORE.INTRA.REPUL>
0

>  <SCORE.INTRA.REPUL.0>
0

>  <SCORE.INTRA.SOLV>
-0.985604

>  <SCORE.INTRA.SOLV.lig_0>
-49.9151

>  <SCORE.INTRA.VDW>
-2.27853

>  <SCORE.INTRA.VDW.0>
-0.211125

>  <SCORE.INTRA.norm>
-0.130784

>  <SCORE.RESTR>
0

>  <SCORE.RESTR.CAVITY>
0

>  <SCORE.RESTR.norm>
0

>  <SCORE.SYSTEM>
0

>  <SCORE.SYSTEM.CONST>
0

>  <SCORE.SYSTEM.DIHEDRAL>
0

>  <SCORE.SYSTEM.SOLV>
0

>  <SCORE.SYSTEM.norm>
0

>  <SCORE.heavy>
26

>  <SCORE.norm>
-0.827061

>  <RMSD>
20.122

$$$$
ligand
 OpenBabel11021811483D
libRbt.so/2013.1/901 2013/11/27
 26 28  0  0  0  0  0  0  0  0999 V2000
   52.1240   69.0213   10.7620 N   0  0  0  0  0  0  0  0  0  0  0  0
   53.5629   69.2077   10.5552 C   0  0  2  0  0  0  0  0  0  0  0  0
   53.9300   69.7936    9.1900 C   0  0  0  0  0  0  0  0  0  0  0  0
   53.6680   69.1327    8.1847 O   0  0  0  0  0  0  0  0  0  0  0  0
   54.4118   67.9430   10.7387 C   0  0  0  0  0  0  0  0  0  0  0  0
   54.5588   67.2882   12.1012 C   0  0  0  0  0  0  0  0  0  0  0  0
   55.4694   65.7493   11.8359 S   0  0  0  0  0  0  0  0  0  0  0  0
   54.0991   64.9129   12.6690 C   0  0  0  0  0  0  0  0  0  0  0  0
   54.0974   65.0638   14.1940 C   0  0  1  0  0  0  0  0  0  0  0  0
   53.0869   64.2793   14.8377 O   0  0  0  0  0  0  0  0  0  0  0  0
   55.4357   64.6401   14.7816 C   0  0  1  0  0  0  0  0  0  0  0  0
   56.3127   65.7375   14.9080 O   0  0  0  0  0  0  0  0  0  0  0  0
   55.0805   63.9982   16.1165 C   0  0  1  0  0  0  0  0  0  0  0  0
   55.1058   64.9390   17.1708 O   0  0  0  0  0  0  0  0  0  0  0  0
   53.6427   63.5574   15.9246 C   0  0  2  0  0  0  0  0  0  0  0  0
   54.4621   70.9025    9.0548 O   0  0  0  0  0  0  0  0  0  0  0  0
   55.8588   58.8477   16.6496 N   0  0  0  0  0  0  0  0  0  0  0  0
   56.3360   60.0777   17.0261 C   0  0  0  0  0  0  0  0  0  0  0  0
   55.6148   61.2153   16.7297 N   0  0  0  0  0  0  0  0  0  0  0  0
   54.4260   61.1417   16.1053 C   0  0  0  0  0  0  0  0  0  0  0  0
   53.9260   59.9100   15.7186 C   0  0  0  0  0  0  0  0  0  0  0  0
   54.6552   58.7705   15.9948 C   0  0  0  0  0  0  0  0  0  0  0  0
   54.1921   57.5857   15.6465 N   0  0  0  0  0  0  0  0  0  0  0  0
   52.7321   60.1064   15.1159 N   0  0  0  0  0  0  0  0  0  0  0  0
   52.4830   61.4401   15.0933 C   0  0  0  0  0  0  0  0  0  0  0  0
   53.5272   62.0966   15.7071 N   0  0  0  0  0  0  0  0  0  0  0  0
  2  1  1  6  0  0  0
  2  3  1  0  0  0  0
  2  5  1  0  0  0  0
  3  4  1  0  0  0  0
  3 16  1  0  0  0  0
  5  6  1  0  0  0  0
  6  7  1  0  0  0  0
  7  8  1  0  0  0  0
  9  8  1  6  0  0  0
  9 10  1  0  0  0  0
  9 11  1  0  0  0  0
 10 15  1  0  0  0  0
 11 12  1  1  0  0  0
 11 13  1  0  0  0  0
 13 14  1  1  0  0  0
 13 15  1  0  0  0  0
 15 26  1  6  0  0  0
 17 18  2  0  0  0  0
 17 22  1  0  0  0  0
 18 19  1  0  0  0  0
 19 20  2  0  0  0  0
 20 21  1  0  0  0  0
 20 26  1  0  0  0  0
 21 22  2  0  0  0  0
 21 24  1  0  0  0  0
 22 23  1  0  0  0  0
 24 25  2  0  0  0  0
 25 26  1  0  0  0  0
M  END
>  <CHROM.1>
-63.76971452,-66.95398668,173.74734635,-125.43799617,-76.80736684,-173.84063969
145.79526723,54.39895699,64.34088632,13.78878079,1.66583342,-0.99219103,-0.53115022

>  <Name>
ligand

>  <RI>
0

>  <Rbt.Current_Directory>
/home/itssahil/PROJECTS/Mol_Feturizer/New_Systems/rnas/3GX3

>  <Rbt.Executable>
rbdock ($Id: //depot/dev/client3/rdock/2013.1/src/exe/rbdock.cxx#4 $)

>  <Rbt.Library>
libRbt.so (2013.1, Build901 2013/11/27)

>  <Rbt.Parameter_File>
/export/apps/rDock/src/rDock_2013.1_src/data/scripts/dock_solv.prm

>  <Rbt.Receptor>
prm/blind_docking_100.prm

>  <SCORE>
-11.7474

>  <SCORE.INTER>
-10.2512

>  <SCORE.INTER.CONST>
1

>  <SCORE.INTER.POLAR>
0

>  <SCORE.INTER.ROT>
7

>  <SCORE.INTER.SOLV>
8.18074

>  <SCORE.INTER.VDW>
-17.8277

>  <SCORE.INTER.norm>
-0.394277

>  <SCORE.INTRA>
-1.49617

>  <SCORE.INTRA.DIHEDRAL>
0.245118

>  <SCORE.INTRA.DIHEDRAL.0>
5.78979

>  <SCORE.INTRA.POLAR>
0

>  <SCORE.INTRA.POLAR.0>
0

>  <SCORE.INTRA.REPUL>
0

>  <SCORE.INTRA.REPUL.0>
0

>  <SCORE.INTRA.SOLV>
-0.212221

>  <SCORE.INTRA.SOLV.lig_0>
-49.9151

>  <SCORE.INTRA.VDW>
-1.51262

>  <SCORE.INTRA.VDW.0>
-0.211125

>  <SCORE.INTRA.norm>
-0.0575449

>  <SCORE.RESTR>
0

>  <SCORE.RESTR.CAVITY>
0

>  <SCORE.RESTR.norm>
0

>  <SCORE.SYSTEM>
0

>  <SCORE.SYSTEM.CONST>
0

>  <SCORE.SYSTEM.DIHEDRAL>
0

>  <SCORE.SYSTEM.SOLV>
0

>  <SCORE.SYSTEM.norm>
0

>  <SCORE.heavy>
26

>  <SCORE.norm>
-0.451821

>  <RMSD>
20.601

$$$$
ligand
 OpenBabel11021811483D
libRbt.so/2013.1/901 2013/11/27
 26 28  0  0  0  0  0  0  0  0999 V2000
   51.3999   69.5136   11.4893 N   0  0  0  0  0  0  0  0  0  0  0  0
   52.5877   70.0506   10.8196 C   0  0  2  0  0  0  0  0  0  0  0  0
   52.2880   71.1437    9.7914 C   0  0  0  0  0  0  0  0  0  0  0  0
   53.1868   71.9356    9.5066 O   0  0  0  0  0  0  0  0  0  0  0  0
   53.4610   69.0047   10.1145 C   0  0  0  0  0  0  0  0  0  0  0  0
   54.3480   68.0607   10.9073 C   0  0  0  0  0  0  0  0  0  0  0  0
   53.2518   67.1091   11.9846 S   0  0  0  0  0  0  0  0  0  0  0  0
   54.6517   66.9750   13.1220 C   0  0  0  0  0  0  0  0  0  0  0  0
   54.9447   65.5492   13.6013 C   0  0  1  0  0  0  0  0  0  0  0  0
   56.1463   65.4492   14.3740 O   0  0  0  0  0  0  0  0  0  0  0  0
   53.8093   65.0255   14.4688 C   0  0  1  0  0  0  0  0  0  0  0  0
   52.8579   64.3218   13.7013 O   0  0  0  0  0  0  0  0  0  0  0  0
   54.4970   64.1585   15.5153 C   0  0  1  0  0  0  0  0  0  0  0  0
   54.5794   62.8093   15.1025 O   0  0  0  0  0  0  0  0  0  0  0  0
   55.9067   64.7143   15.5631 C   0  0  2  0  0  0  0  0  0  0  0  0
   51.1922   71.2549    9.2277 O   0  0  0  0  0  0  0  0  0  0  0  0
   53.7529   67.8863   19.1573 N   0  0  0  0  0  0  0  0  0  0  0  0
   53.1404   67.2601   18.1012 C   0  0  0  0  0  0  0  0  0  0  0  0
   53.8812   66.4726   17.2451 N   0  0  0  0  0  0  0  0  0  0  0  0
   55.1963   66.2748   17.4450 C   0  0  0  0  0  0  0  0  0  0  0  0
   55.8329   66.8963   18.5059 C   0  0  0  0  0  0  0  0  0  0  0  0
   55.0988   67.7024   19.3529 C   0  0  0  0  0  0  0  0  0  0  0  0
   55.6823   68.2943   20.3770 N   0  0  0  0  0  0  0  0  0  0  0  0
   57.1371   66.5414   18.4855 N   0  0  0  0  0  0  0  0  0  0  0  0
   57.3387   65.7288   17.4175 C   0  0  0  0  0  0  0  0  0  0  0  0
   56.1397   65.5524   16.7622 N   0  0  0  0  0  0  0  0  0  0  0  0
  2  1  1  6  0  0  0
  2  3  1  0  0  0  0
  2  5  1  0  0  0  0
  3  4  1  0  0  0  0
  3 16  1  0  0  0  0
  5  6  1  0  0  0  0
  6  7  1  0  0  0  0
  7  8  1  0  0  0  0
  9  8  1  1  0  0  0
  9 10  1  0  0  0  0
  9 11  1  0  0  0  0
 10 15  1  0  0  0  0
 11 12  1  6  0  0  0
 11 13  1  0  0  0  0
 13 14  1  6  0  0  0
 13 15  1  0  0  0  0
 15 26  1  1  0  0  0
 17 18  2  0  0  0  0
 17 22  1  0  0  0  0
 18 19  1  0  0  0  0
 19 20  2  0  0  0  0
 20 21  1  0  0  0  0
 20 26  1  0  0  0  0
 21 22  2  0  0  0  0
 21 24  1  0  0  0  0
 22 23  1  0  0  0  0
 24 25  2  0  0  0  0
 25 26  1  0  0  0  0
M  END
>  <CHROM.1>
156.87595257,-74.26069107,60.28974276,-151.61440215,-129.90981385,173.20411580
93.66639907,54.23265340,67.14552061,14.44833874,2.87607981,1.23239050,-2.39959303

>  <Name>
ligand

>  <RI>
0

>  <Rbt.Current_Directory>
/home/itssahil/PROJECTS/Mol_Feturizer/New_Systems/rnas/3GX3

>  <Rbt.Executable>
rbdock ($Id: //depot/dev/client3/rdock/2013.1/src/exe/rbdock.cxx#4 $)

>  <Rbt.Library>
libRbt.so (2013.1, Build901 2013/11/27)

>  <Rbt.Parameter_File>
/export/apps/rDock/src/rDock_2013.1_src/data/scripts/dock_solv.prm

>  <Rbt.Receptor>
prm/blind_docking_100.prm

>  <SCORE>
-12.8977

>  <SCORE.INTER>
-11.5961

>  <SCORE.INTER.CONST>
1

>  <SCORE.INTER.POLAR>
0

>  <SCORE.INTER.ROT>
7

>  <SCORE.INTER.SOLV>
13.3222

>  <SCORE.INTER.VDW>
-20.4381

>  <SCORE.INTER.norm>
-0.446003

>  <SCORE.INTRA>
-1.30161

>  <SCORE.INTRA.DIHEDRAL>
1.33612

>  <SCORE.INTRA.DIHEDRAL.0>
5.78979

>  <SCORE.INTRA.POLAR>
0

>  <SCORE.INTRA.POLAR.0>
0

>  <SCORE.INTRA.REPUL>
0

>  <SCORE.INTRA.REPUL.0>
0

>  <SCORE.INTRA.SOLV>
0.996159

>  <SCORE.INTRA.SOLV.lig_0>
-49.9151

>  <SCORE.INTRA.VDW>
-2.46775

>  <SCORE.INTRA.VDW.0>
-0.211125

>  <SCORE.INTRA.norm>
-0.0500618

>  <SCORE.RESTR>
0

>  <SCORE.RESTR.CAVITY>
0

>  <SCORE.RESTR.norm>
0

>  <SCORE.SYSTEM>
0

>  <SCORE.SYSTEM.CONST>
0

>  <SCORE.SYSTEM.DIHEDRAL>
0

>  <SCORE.SYSTEM.SOLV>
0

>  <SCORE.SYSTEM.norm>
0

>  <SCORE.heavy>
26

>  <SCORE.norm>
-0.496064

>  <RMSD>
20.853

$$$$
ligand
 OpenBabel11021811483D
libRbt.so/2013.1/901 2013/11/27
 26 28  0  0  0  0  0  0  0  0999 V2000
   51.3623   69.0262    9.3975 N   0  0  0  0  0  0  0  0  0  0  0  0
   51.9292   70.0153   10.3186 C   0  0  2  0  0  0  0  0  0  0  0  0
   53.3357   70.4878    9.9441 C   0  0  0  0  0  0  0  0  0  0  0  0
   54.1811   69.6356    9.6703 O   0  0  0  0  0  0  0  0  0  0  0  0
   51.9848   69.5743   11.7870 C   0  0  0  0  0  0  0  0  0  0  0  0
   52.7931   68.3603   12.2110 C   0  0  0  0  0  0  0  0  0  0  0  0
   52.3455   68.0198   13.9290 S   0  0  0  0  0  0  0  0  0  0  0  0
   53.8002   66.9467   13.9894 C   0  0  0  0  0  0  0  0  0  0  0  0
   53.9626   66.1725   15.3019 C   0  0  1  0  0  0  0  0  0  0  0  0
   52.9085   65.2318   15.5364 O   0  0  0  0  0  0  0  0  0  0  0  0
   55.2695   65.3927   15.3124 C   0  0  1  0  0  0  0  0  0  0  0  0
   56.3111   66.1424   15.8977 O   0  0  0  0  0  0  0  0  0  0  0  0
   54.9459   64.1155   16.0766 C   0  0  1  0  0  0  0  0  0  0  0  0
   55.2116   64.2527   17.4580 O   0  0  0  0  0  0  0  0  0  0  0  0
   53.4463   63.9726   15.9062 C   0  0  2  0  0  0  0  0  0  0  0  0
   53.6522   71.6828    9.8912 O   0  0  0  0  0  0  0  0  0  0  0  0
   53.1582   62.7099   10.8130 N   0  0  0  0  0  0  0  0  0  0  0  0
   53.5686   63.8936   11.3725 C   0  0  0  0  0  0  0  0  0  0  0  0
   53.5581   64.0464   12.7431 N   0  0  0  0  0  0  0  0  0  0  0  0
   53.1846   63.0391   13.5521 C   0  0  0  0  0  0  0  0  0  0  0  0
   52.7687   61.8361   13.0075 C   0  0  0  0  0  0  0  0  0  0  0  0
   52.7577   61.6864   11.6349 C   0  0  0  0  0  0  0  0  0  0  0  0
   52.3771   60.5449   11.0949 N   0  0  0  0  0  0  0  0  0  0  0  0
   52.4484   60.9996   14.0198 N   0  0  0  0  0  0  0  0  0  0  0  0
   52.6306   61.6615   15.1904 C   0  0  0  0  0  0  0  0  0  0  0  0
   53.0903   62.9307   14.9150 N   0  0  0  0  0  0  0  0  0  0  0  0
  2  1  1  6  0  0  0
  2  3  1  0  0  0  0
  2  5  1  0  0  0  0
  3  4  1  0  0  0  0
  3 16  1  0  0  0  0
  5  6  1  0  0  0  0
  6  7  1  0  0  0  0
  7  8  1  0  0  0  0
  9  8  1  6  0  0  0
  9 10  1  0  0  0  0
  9 11  1  0  0  0  0
 10 15  1  0  0  0  0
 11 12  1  1  0  0  0
 11 13  1  0  0  0  0
 13 14  1  1  0  0  0
 13 15  1  0  0  0  0
 15 26  1  6  0  0  0
 17 18  2  0  0  0  0
 17 22  1  0  0  0  0
 18 19  1  0  0  0  0
 19 20  2  0  0  0  0
 20 21  1  0  0  0  0
 20 26  1  0  0  0  0
 21 22  2  0  0  0  0
 21 24  1  0  0  0  0
 22 23  1  0  0  0  0
 24 25  2  0  0  0  0
 25 26  1  0  0  0  0
M  END
>  <CHROM.1>
-48.31739725,61.06357070,-169.77599461,-165.63287185,-175.22013742,64.52883267
46.59979791,53.32896599,65.69812367,13.17052203,1.78852320,-1.21436038,-0.26906228

>  <Name>
ligand

>  <RI>
0

>  <Rbt.Current_Directory>
/home/itssahil/PROJECTS/Mol_Feturizer/New_Systems/rnas/3GX3

>  <Rbt.Executable>
rbdock ($Id: //depot/dev/client3/rdock/2013.1/src/exe/rbdock.cxx#4 $)

>  <Rbt.Library>
libRbt.so (2013.1, Build901 2013/11/27)

>  <Rbt.Parameter_File>
/export/apps/rDock/src/rDock_2013.1_src/data/scripts/dock_solv.prm

>  <Rbt.Receptor>
prm/blind_docking_100.prm

>  <SCORE>
-14.0614

>  <SCORE.INTER>
-9.57949

>  <SCORE.INTER.CONST>
1

>  <SCORE.INTER.POLAR>
0

>  <SCORE.INTER.ROT>
7

>  <SCORE.INTER.SOLV>
5.79168

>  <SCORE.INTER.VDW>
-16.5836

>  <SCORE.INTER.norm>
-0.368442

>  <SCORE.INTRA>
-4.48654

>  <SCORE.INTRA.DIHEDRAL>
-2.17353

>  <SCORE.INTRA.DIHEDRAL.0>
5.78979

>  <SCORE.INTRA.POLAR>
0

>  <SCORE.INTRA.POLAR.0>
0

>  <SCORE.INTRA.REPUL>
0

>  <SCORE.INTRA.REPUL.0>
0

>  <SCORE.INTRA.SOLV>
-0.51563

>  <SCORE.INTRA.SOLV.lig_0>
-49.9151

>  <SCORE.INTRA.VDW>
-3.14196

>  <SCORE.INTRA.VDW.0>
-0.211125

>  <SCORE.INTRA.norm>
-0.172559

>  <SCORE.RESTR>
0.00467999

>  <SCORE.RESTR.CAVITY>
0.00467999

>  <SCORE.RESTR.norm>
0.00018

>  <SCORE.SYSTEM>
0

>  <SCORE.SYSTEM.CONST>
0

>  <SCORE.SYSTEM.DIHEDRAL>
0

>  <SCORE.SYSTEM.SOLV>
0

>  <SCORE.SYSTEM.norm>
0

>  <SCORE.heavy>
26

>  <SCORE.norm>
-0.540821

>  <RMSD>
21.388

$$$$
