@<TRIPOS>MOLECULE
3GX3_rdock.pdb
 2029 2275 0 0 0
SMALL
GASTEIGER

@<TRIPOS>ATOM
      1  P         65.9290   54.8020   32.4110 P.3     1  G1          0.1280
      2  C5'       67.1380   52.4620   32.8090 C.3     1  G1          0.1795
      3  O5'       67.1730   53.8900   32.8960 O.3     1  G1         -0.3259
      4  C4'       68.2340   51.7370   33.6080 C.3     1  G1          0.1772
      5  O4'       69.0530   52.6210   34.4310 O.3     1  G1         -0.3307
      6  C3'       67.7260   50.6820   34.6010 C.3     1  G1          0.1860
      7  O3'       67.6110   49.4070   33.9880 O.3     1  G1         -0.3112
      8  C2'       68.7480   50.6680   35.7440 C.3     1  G1          0.2309
      9  O2'       69.8690   49.8370   35.4920 O.3     1  G1         -0.2156
     10  C1'       69.1290   52.1460   35.7830 C.3     1  G1          0.2408
     11  N1        66.9880   52.7340   40.4310 N.ar    1  G1         -0.1709
     12  C2        67.8860   51.7700   40.0050 C.ar    1  G1          0.2606
     13  N2        68.2680   50.8420   40.9040 N.pl3   1  G1         -0.0859
     14  N3        68.3840   51.7160   38.7600 N.ar    1  G1         -0.1918
     15  C4        67.9070   52.7110   37.9660 C.ar    1  G1          0.1723
     16  C5        67.0170   53.7120   38.3080 C.ar    1  G1          0.1748
     17  C6        66.5030   53.7710   39.6280 C.ar    1  G1          0.3023
     18  O6        65.6910   54.5900   40.0730 O.2     1  G1         -0.2633
     19  N7        66.7660   54.5550   37.2390 N.ar    1  G1         -0.2173
     20  C8        67.5000   54.0450   36.2950 C.ar    1  G1          0.1817
     21  N9        68.2280   52.9290   36.6470 N.ar    1  G1         -0.2693
     22  OP1       65.3770   54.2400   31.1420 O.3     1  G1         -0.1955
     23  OP2       66.3800   56.2270   32.4080 O.co2   1  G1         -0.7863
     24  P         66.3160   48.5510   34.3790 P.3     2  G2          0.2141
     25  C5'       67.0720   46.8230   36.2770 C.3     2  G2          0.1812
     26  O5'       66.5670   48.0990   35.9000 O.3     2  G2         -0.3114
     27  C4'       67.0500   46.6840   37.7760 C.3     2  G2          0.1773
     28  O4'       67.3830   47.9630   38.3830 O.3     2  G2         -0.3307
     29  C3'       65.7010   46.3430   38.3900 C.3     2  G2          0.1860
     30  O3'       65.3820   44.9680   38.3010 O.3     2  G2         -0.3112
     31  C2'       65.8460   46.8570   39.8180 C.3     2  G2          0.2309
     32  O2'       66.6540   45.9820   40.5880 O.3     2  G2         -0.2156
     33  C1'       66.6630   48.1280   39.5900 C.3     2  G2          0.2408
     34  N1        63.3120   51.3360   41.8390 N.ar    2  G2         -0.1709
     35  C2        63.9380   50.2330   42.3900 C.ar    2  G2          0.2606
     36  N2        63.6310   49.9570   43.6660 N.pl3   2  G2         -0.0859
     37  N3        64.8020   49.4530   41.7400 N.ar    2  G2         -0.1918
     38  C4        64.9900   49.8810   40.4460 C.ar    2  G2          0.1723
     39  C5        64.3990   50.9730   39.8160 C.ar    2  G2          0.1748
     40  C6        63.4840   51.7950   40.5220 C.ar    2  G2          0.3023
     41  O6        62.8900   52.8010   40.0890 O.2     2  G2         -0.2633
     42  N7        64.8300   51.0860   38.5040 N.ar    2  G2         -0.2173
     43  C8        65.6610   50.0940   38.3540 C.ar    2  G2          0.1817
     44  N9        65.8100   49.3210   39.4730 N.ar    2  G2         -0.2693
     45  OP1       66.3260   47.2780   33.6240 O.2     2  G2         -0.5172
     46  OP2       65.1350   49.4470   34.3240 O.co2   2  G2         -0.4373
     47  P         63.8400   44.6000   38.1620 P.3     3  C3          0.2141
     48  C5'       63.6750   44.1700   40.6970 C.3     3  C3          0.1812
     49  O5'       63.3830   45.0510   39.6200 O.3     3  C3         -0.3114
     50  C4'       62.8430   44.5110   41.8980 C.3     3  C3          0.1773
     51  O4'       63.0930   45.8910   42.2410 O.3     3  C3         -0.3307
     52  C3'       61.3400   44.4700   41.6960 C.3     3  C3          0.1860
     53  O3'       60.8130   43.1580   41.7430 O.3     3  C3         -0.3112
     54  C2'       60.8490   45.3700   42.8170 C.3     3  C3          0.2309
     55  O2'       60.9440   44.7070   44.0690 O.3     3  C3         -0.2156
     56  C1'       61.9220   46.4560   42.7840 C.3     3  C3          0.2420
     57  N1        61.5650   47.6450   41.9880 N.ar    3  C3         -0.2535
     58  C2        60.7670   48.6460   42.5690 C.ar    3  C3          0.3532
     59  O2        60.3670   48.5210   43.7360 O.2     3  C3         -0.2443
     60  N3        60.4410   49.7370   41.8370 N.ar    3  C3         -0.1739
     61  C4        60.8820   49.8260   40.5830 C.ar    3  C3          0.1759
     62  N4        60.5470   50.9140   39.8940 N.pl3   3  C3         -0.1070
     63  C5        61.6990   48.8250   39.9710 C.ar    3  C3          0.0566
     64  C6        62.0130   47.7520   40.7050 C.ar    3  C3          0.0850
     65  OP1       63.6550   43.1270   38.1750 O.3     3  C3         -0.4373
     66  OP2       63.1770   45.4940   37.1800 O.co2   3  C3         -0.5172
     67  P         59.2920   42.8860   41.3590 P.3     4  U4          0.2141
     68  C5'       57.8240   43.5880   43.3900 C.3     4  U4          0.1812
     69  O5'       58.3750   43.9500   42.1340 O.3     4  U4         -0.3114
     70  C4'       56.9800   44.6810   43.9960 C.3     4  U4          0.1773
     71  O4'       57.6180   45.9760   43.8190 O.3     4  U4         -0.3307
     72  C3'       55.6000   44.8960   43.3940 C.3     4  U4          0.1860
     73  O3'       54.6470   43.9050   43.7540 O.3     4  U4         -0.3112
     74  C2'       55.2690   46.3070   43.8700 C.3     4  U4          0.2309
     75  O2'       54.9620   46.3140   45.2520 O.3     4  U4         -0.2156
     76  C1'       56.6280   46.9860   43.7100 C.3     4  U4          0.2420
     77  N1        56.8820   47.7820   42.4510 N.ar    4  U4         -0.2534
     78  C2        56.2320   48.9830   42.2340 C.ar    4  U4          0.3546
     79  O2        55.4020   49.4600   42.9800 O.2     4  U4         -0.2443
     80  N3        56.5790   49.6270   41.0780 N.ar    4  U4         -0.1530
     81  C4        57.4980   49.2120   40.1430 C.ar    4  U4          0.2846
     82  O4        57.6970   49.8960   39.1530 O.2     4  U4         -0.2650
     83  C5        58.1480   47.9700   40.4370 C.ar    4  U4          0.0814
     84  C6        57.8180   47.3180   41.5550 C.ar    4  U4          0.0870
     85  OP1       58.9240   41.5850   41.9650 O.3     4  U4         -0.4373
     86  OP2       59.1710   43.1450   39.9050 O.co2   4  U4         -0.5172
     87  P         53.8420   43.1320   42.5900 P.3     5  U5          0.2141
     88  C5'       52.0380   44.8310   43.3770 C.3     5  U5          0.1812
     89  O5'       52.6710   44.1810   42.2900 O.3     5  U5         -0.3114
     90  C4'       51.3390   46.1050   42.9710 C.3     5  U5          0.1773
     91  O4'       52.3160   47.1190   42.6380 O.3     5  U5         -0.3307
     92  C3'       50.4550   46.0660   41.7350 C.3     5  U5          0.1860
     93  O3'       49.1860   45.4790   41.9400 O.3     5  U5         -0.3112
     94  C2'       50.3610   47.5350   41.3610 C.3     5  U5          0.2309
     95  O2'       49.5330   48.2170   42.2880 O.3     5  U5         -0.2156
     96  C1'       51.7830   47.9830   41.6520 C.3     5  U5          0.2420
     97  N1        52.7480   48.0050   40.5440 N.ar    5  U5         -0.2534
     98  C2        52.7650   49.0830   39.6940 C.ar    5  U5          0.3546
     99  O2        51.9650   50.0030   39.7980 O.2     5  U5         -0.2443
    100  N3        53.7450   49.0090   38.7310 N.ar    5  U5         -0.1530
    101  C4        54.6800   47.9910   38.5570 C.ar    5  U5          0.2846
    102  O4        55.5030   48.0370   37.6450 O.2     5  U5         -0.2650
    103  C5        54.5880   46.9100   39.4940 C.ar    5  U5          0.0814
    104  C6        53.6510   46.9660   40.4370 C.ar    5  U5          0.0870
    105  OP1       53.1520   41.9480   43.1520 O.3     5  U5         -0.4373
    106  OP2       54.7220   42.9430   41.4050 O.co2   5  U5         -0.5172
    107  P         48.4570   44.8330   40.6680 P.3     6  A6          0.2141
    108  C5'       46.7440   46.7930   40.3690 C.3     6  A6          0.1812
    109  O5'       47.8740   46.0910   39.8590 O.3     6  A6         -0.3114
    110  C4'       46.4260   48.0430   39.5730 C.3     6  A6          0.1773
    111  O4'       47.6050   48.8800   39.4950 O.3     6  A6         -0.3307
    112  C3'       46.0270   47.8650   38.1170 C.3     6  A6          0.1860
    113  O3'       44.6580   47.5240   37.9530 O.3     6  A6         -0.3112
    114  C2'       46.4050   49.1950   37.4830 C.3     6  A6          0.2309
    115  O2'       45.4140   50.1780   37.7240 O.3     6  A6         -0.2156
    116  C1'       47.6440   49.5770   38.2800 C.3     6  A6          0.2408
    117  N1        51.5210   51.1720   35.3270 N.ar    6  A6         -0.2040
    118  C2        50.4050   51.7930   35.7490 C.ar    6  A6          0.2016
    119  N3        49.4330   51.3180   36.5200 N.ar    6  A6         -0.2048
    120  C4        49.6980   50.0400   36.8730 C.ar    6  A6          0.1692
    121  C5        50.8020   49.2740   36.5170 C.ar    6  A6          0.1518
    122  C6        51.7640   49.8920   35.6980 C.ar    6  A6          0.1919
    123  N6        52.8920   49.2950   35.2770 N.pl3   6  A6         -0.1054
    124  N7        50.7180   48.0050   37.0610 N.ar    6  A6         -0.2193
    125  C8        49.5730   48.0240   37.7270 C.ar    6  A6          0.1816
    126  N9        48.9100   49.2140   37.6410 N.ar    6  A6         -0.2693
    127  OP1       47.2550   44.0980   41.1240 O.3     6  A6         -0.4373
    128  OP2       49.4880   44.1170   39.8830 O.co2   6  A6         -0.5172
    129  P         44.3080   46.4680   36.7890 P.3     7  U7          0.2141
    130  C5'       44.7790   48.0340   34.9740 C.3     7  U7          0.1812
    131  O5'       43.7050   47.4270   35.6590 O.3     7  U7         -0.3114
    132  C4'       44.4350   49.1890   34.0690 C.3     7  U7          0.1773
    133  O4'       45.4890   50.1630   34.2540 O.3     7  U7         -0.3307
    134  C3'       44.4730   48.8240   32.5890 C.3     7  U7          0.1860
    135  O3'       43.2000   48.5790   32.0300 O.3     7  U7         -0.3112
    136  C2'       45.2520   49.9380   31.9030 C.3     7  U7          0.2309
    137  O2'       44.4040   50.9800   31.4240 O.3     7  U7         -0.2156
    138  C1'       46.1460   50.4210   33.0370 C.3     7  U7          0.2420
    139  N1        47.3530   49.5570   33.1410 N.ar    7  U7         -0.2534
    140  C2        48.4330   49.7190   32.2970 C.ar    7  U7          0.3546
    141  O2        48.4840   50.5910   31.4360 O.2     7  U7         -0.2443
    142  N3        49.4660   48.8150   32.5400 N.ar    7  U7         -0.1530
    143  C4        49.5310   47.7990   33.5020 C.ar    7  U7          0.2846
    144  O4        50.5050   47.0550   33.6220 O.2     7  U7         -0.2650
    145  C5        48.3660   47.7040   34.3130 C.ar    7  U7          0.0814
    146  C6        47.3780   48.5700   34.1050 C.ar    7  U7          0.0870
    147  OP1       43.1840   45.5800   37.2000 O.3     7  U7         -0.4373
    148  OP2       45.6050   45.9400   36.2900 O.co2   7  U7         -0.5172
    149  P         42.9920   47.1670   31.3100 P.3     8  C8          0.2141
    150  C5'       43.4320   48.6210   29.2190 C.3     8  C8          0.1812
    151  O5'       43.6900   47.3920   29.8810 O.3     8  C8         -0.3114
    152  C4'       44.4660   48.9560   28.1810 C.3     8  C8          0.1773
    153  O4'       45.7320   49.2920   28.7930 O.3     8  C8         -0.3307
    154  C3'       44.8170   47.8710   27.1860 C.3     8  C8          0.1860
    155  O3'       43.8470   47.7670   26.1620 O.3     8  C8         -0.3112
    156  C2'       46.1540   48.3830   26.6750 C.3     8  C8          0.2309
    157  O2'       45.9410   49.5130   25.8320 O.3     8  C8         -0.2156
    158  C1'       46.7910   48.8810   27.9680 C.3     8  C8          0.2420
    159  N1        47.5660   47.8840   28.7730 N.ar    8  C8         -0.2535
    160  C2        48.9650   47.8280   28.6820 C.ar    8  C8          0.3532
    161  O2        49.5110   48.6000   27.8940 O.2     8  C8         -0.2443
    162  N3        49.6710   46.9390   29.4390 N.ar    8  C8         -0.1739
    163  C4        49.0240   46.1260   30.2710 C.ar    8  C8          0.1759
    164  N4        49.7490   45.2610   30.9860 N.pl3   8  C8         -0.1070
    165  C5        47.5960   46.1640   30.4020 C.ar    8  C8          0.0566
    166  C6        46.9120   47.0420   29.6440 C.ar    8  C8          0.0850
    167  OP1       41.5350   47.0140   31.0730 O.2     8  C8         -0.5172
    168  OP2       43.7630   46.0860   31.9630 O.co2   8  C8         -0.4373
    169  P         43.4200   46.3200   25.6500 P.3     9  A9          0.2141
    170  C5'       42.9940   46.6390   22.9840 C.3     9  A9          0.1812
    171  O5'       42.5470   46.7050   24.3420 O.3     9  A9         -0.3114
    172  C4'       41.9790   47.1670   21.9840 C.3     9  A9          0.1773
    173  O4'       40.8140   46.3240   22.0370 O.3     9  A9         -0.3307
    174  C3'       41.4900   48.6090   22.1390 C.3     9  A9          0.1860
    175  O3'       42.0940   49.4700   21.1830 O.3     9  A9         -0.3112
    176  C2'       39.9850   48.5490   21.9630 C.3     9  A9          0.2309
    177  O2'       39.6690   48.7860   20.6030 O.3     9  A9         -0.2156
    178  C1'       39.6770   47.0980   22.3230 C.3     9  A9          0.2408
    179  N1        39.8270   49.0190   27.1910 N.ar    9  A9         -0.2040
    180  C2        39.9720   49.6560   26.0120 C.ar    9  A9          0.2016
    181  N3        39.9270   49.1160   24.7820 N.ar    9  A9         -0.2048
    182  C4        39.6920   47.7800   24.8150 C.ar    9  A9          0.1692
    183  C5        39.5150   46.9940   25.9610 C.ar    9  A9          0.1518
    184  C6        39.5840   47.6670   27.2250 C.ar    9  A9          0.1919
    185  N6        39.4330   47.0370   28.4130 N.pl3   9  A9         -0.1054
    186  N7        39.2910   45.6500   25.6100 N.ar    9  A9         -0.2193
    187  C8        39.3330   45.6450   24.3000 C.ar    9  A9          0.1816
    188  N9        39.5470   46.8900   23.7650 N.ar    9  A9         -0.2693
    189  OP1       42.5620   45.6330   26.6370 O.3     9  A9         -0.4373
    190  OP2       44.6470   45.6350   25.1870 O.co2   9  A9         -0.5172
    191  P         41.4940   50.8490   20.6300 P.3    10  A10         0.2141
    192  C5'       38.8690   51.1300   20.9880 C.3    10  A10         0.1812
    193  O5'       40.1970   51.2760   21.4740 O.3    10  A10        -0.3114
    194  C4'       37.9250   52.2250   21.4260 C.3    10  A10         0.1773
    195  O4'       37.7740   52.1950   22.8720 O.3    10  A10        -0.3307
    196  C3'       38.3600   53.6390   21.0760 C.3    10  A10         0.1860
    197  O3'       37.6360   54.1930   19.9900 O.3    10  A10        -0.3112
    198  C2'       38.0890   54.4720   22.3260 C.3    10  A10         0.2309
    199  O2'       36.9070   55.2340   22.2460 O.3    10  A10        -0.2156
    200  C1'       37.9490   53.4750   23.4520 C.3    10  A10         0.2408
    201  N1        41.0910   56.1490   26.5870 N.ar   10  A10        -0.2040
    202  C2        39.8920   56.4370   26.0800 C.ar   10  A10         0.2016
    203  N3        39.1300   55.6950   25.2770 N.ar   10  A10        -0.2048
    204  C4        39.7040   54.5150   24.9870 C.ar   10  A10         0.1692
    205  C5        40.9260   54.0780   25.4360 C.ar   10  A10         0.1518
    206  C6        41.6450   54.9480   26.2910 C.ar   10  A10         0.1919
    207  N6        42.8380   54.6330   26.8230 N.pl3  10  A10        -0.1054
    208  N7        41.2080   52.8150   24.9450 N.ar   10  A10        -0.2193
    209  C8        40.1700   52.5210   24.2250 C.ar   10  A10         0.1816
    210  N9        39.2080   53.4860   24.2120 N.ar   10  A10        -0.2693
    211  OP1       40.9250   50.5750   19.2960 O.2    10  A10        -0.5172
    212  OP2       42.5900   51.8360   20.8140 O.co2  10  A10        -0.4373
    213  P         38.5900   55.0310   19.0100 P.3    11  G11         0.2141
    214  C5'       37.7390   57.1710   20.3780 C.3    11  G11         0.1812
    215  O5'       38.7540   56.5100   19.6170 O.3    11  G11        -0.3114
    216  C4'       38.2790   58.3560   21.1440 C.3    11  G11         0.1773
    217  O4'       38.8400   57.9170   22.4050 O.3    11  G11        -0.3307
    218  C3'       39.4170   59.1080   20.4730 C.3    11  G11         0.1860
    219  O3'       38.9620   60.0920   19.5610 O.3    11  G11        -0.3112
    220  C2'       40.1660   59.7170   21.6370 C.3    11  G11         0.2309
    221  O2'       39.4250   60.8470   22.0760 O.3    11  G11        -0.2156
    222  C1'       40.0370   58.6060   22.6770 C.3    11  G11         0.2408
    223  N1        44.3910   57.0780   24.8580 N.ar   11  G11        -0.1709
    224  C2        43.6210   58.1960   25.1110 C.ar   11  G11         0.2606
    225  N2        44.0400   59.0310   26.0710 N.pl3  11  G11        -0.0859
    226  N3        42.5020   58.4810   24.4680 N.ar   11  G11        -0.1918
    227  C4        42.2150   57.5560   23.5150 C.ar   11  G11         0.1723
    228  C5        42.9140   56.4050   23.1920 C.ar   11  G11         0.1748
    229  C6        44.1200   56.0920   23.8960 C.ar   11  G11         0.3023
    230  O6        44.9020   55.1190   23.7710 O.2    11  G11        -0.2633
    231  N7        42.2480   55.7300   22.1760 N.ar   11  G11        -0.2173
    232  C8        41.2060   56.4720   21.9170 C.ar   11  G11         0.1817
    233  N9        41.1200   57.6010   22.6780 N.ar   11  G11        -0.2693
    234  OP1       37.8160   55.1990   17.7580 O.2    11  G11        -0.5172
    235  OP2       39.9470   54.4440   18.9950 O.co2  11  G11        -0.4373
    236  P         39.2080   59.8790   18.0010 P.3    12  A12         0.2141
    237  C5'       39.7590   62.4540   18.1040 C.3    12  A12         0.1812
    238  O5'       40.0650   61.1710   17.5740 O.3    12  A12        -0.3114
    239  C4'       40.9340   63.0990   18.7960 C.3    12  A12         0.1773
    240  O4'       41.2930   62.3610   19.9890 O.3    12  A12        -0.3307
    241  C3'       42.2350   63.1710   18.0070 C.3    12  A12         0.1860
    242  O3'       42.2570   64.2690   17.1150 O.3    12  A12        -0.3112
    243  C2'       43.3300   63.2280   19.0660 C.3    12  A12         0.2309
    244  O2'       43.5560   64.5340   19.5740 O.3    12  A12        -0.2156
    245  C1'       42.6890   62.4170   20.1850 C.3    12  A12         0.2408
    246  N1        45.7720   59.3620   22.7590 N.ar   12  A12        -0.2040
    247  C2        45.4150   60.6430   22.9150 C.ar   12  A12         0.2016
    248  N3        44.5930   61.3740   22.1810 N.ar   12  A12        -0.2048
    249  C4        44.1050   60.6260   21.1750 C.ar   12  A12         0.1692
    250  C5        44.3630   59.3020   20.8800 C.ar   12  A12         0.1518
    251  C6        45.2630   58.6420   21.7390 C.ar   12  A12         0.1919
    252  N6        45.6280   57.3640   21.6150 N.pl3  12  A12        -0.1054
    253  N7        43.6510   58.9260   19.7440 N.ar   12  A12        -0.2193
    254  C8        42.9870   60.0020   19.3780 C.ar   12  A12         0.1816
    255  N9        43.2250   61.0530   20.2170 N.ar   12  A12        -0.2693
    256  OP1       37.8970   60.0320   17.3290 O.2    12  A12        -0.5172
    257  OP2       40.0490   58.6660   17.8440 O.co2  12  A12        -0.4373
    258  P         42.0290   64.0180   15.5610 P.3    13  G13         0.2141
    259  C5'       41.9670   66.6840   15.1980 C.3    13  G13         0.1812
    260  O5'       42.5330   65.4080   14.9500 O.3    13  G13        -0.3114
    261  C4'       42.7330   67.6580   14.3470 C.3    13  G13         0.1773
    262  O4'       43.9850   67.9840   14.9800 O.3    13  G13        -0.3307
    263  C3'       43.0870   67.0310   13.0180 C.3    13  G13         0.1860
    264  O3'       42.1710   67.4810   12.0510 O.3    13  G13        -0.3112
    265  C2'       44.5340   67.4020   12.7110 C.3    13  G13         0.2309
    266  O2'       44.5700   68.4560   11.7620 O.3    13  G13        -0.2156
    267  C1'       45.0460   67.9290   14.0440 C.3    13  G13         0.2408
    268  N1        48.8180   68.9060   16.9680 N.ar   13  G13        -0.1709
    269  C2        47.8470   69.6920   16.3710 C.ar   13  G13         0.2606
    270  N2        47.8650   71.0160   16.5900 N.pl3  13  G13        -0.0859
    271  N3        46.8960   69.2190   15.5920 N.ar   13  G13        -0.1918
    272  C4        47.0090   67.8800   15.4580 C.ar   13  G13         0.1723
    273  C5        47.9160   66.9870   15.9850 C.ar   13  G13         0.1748
    274  C6        48.9360   67.5140   16.8270 C.ar   13  G13         0.3023
    275  O6        49.8520   66.9080   17.4120 O.2    13  G13        -0.2633
    276  N7        47.6090   65.6920   15.5480 N.ar   13  G13        -0.2173
    277  C8        46.5360   65.8470   14.7880 C.ar   13  G13         0.1817
    278  N9        46.1450   67.1740   14.6870 N.ar   13  G13        -0.2693
    279  OP1       40.5900   63.9590   15.2050 O.3    13  G13        -0.4373
    280  OP2       42.9750   62.9520   15.1490 O.co2  13  G13        -0.5172
    281  P         41.9140   66.6150   10.7470 P.3    14  A14         0.2141
    282  C5'       42.9340   67.2010    8.2850 C.3    14  A14         0.1812
    283  O5'       42.6630   67.5250    9.6510 O.3    14  A14        -0.3114
    284  C4'       42.7420   68.4160    7.4010 C.3    14  A14         0.1773
    285  O4'       41.3980   68.4120    6.8510 O.3    14  A14        -0.3307
    286  C3'       42.9360   69.7490    8.1150 C.3    14  A14         0.1860
    287  O3'       44.1340   70.3910    7.6940 O.3    14  A14        -0.3112
    288  C2'       41.6880   70.5860    7.8180 C.3    14  A14         0.2309
    289  O2'       41.9830   71.6780    6.9550 O.3    14  A14        -0.2156
    290  C1'       40.7230   69.6230    7.1110 C.3    14  A14         0.2408
    291  N1        36.4720   70.9940    9.9360 N.ar   14  A14        -0.2040
    292  C2        37.4250   71.7650    9.3840 C.ar   14  A14         0.2016
    293  N3        38.4940   71.3870    8.6740 N.ar   14  A14        -0.2048
    294  C4        38.5470   70.0430    8.5380 C.ar   14  A14         0.1692
    295  C5        37.6310   69.1300    9.0610 C.ar   14  A14         0.1518
    296  C6        36.5380   69.6480    9.7920 C.ar   14  A14         0.1919
    297  N6        35.5940   68.8740   10.3510 N.pl3  14  A14        -0.1054
    298  N7        37.9850   67.8290    8.7360 N.ar   14  A14        -0.2193
    299  C8        39.0860   67.9760    8.0400 C.ar   14  A14         0.1816
    300  N9        39.5040   69.2710    7.8800 N.ar   14  A14        -0.2693
    301  OP1       40.4540   66.7480   10.5060 O.2    14  A14        -0.5172
    302  OP2       42.5750   65.2880   10.8370 O.co2  14  A14        -0.4373
    303  P         45.6240   70.1960    8.2690 P.3    15  G15         0.2141
    304  C5'       47.0350   71.8790    9.3900 C.3    15  G15         0.1812
    305  O5'       45.7190   71.3720    9.3290 O.3    15  G15        -0.3114
    306  C4'       47.0190   73.3620    9.6020 C.3    15  G15         0.1773
    307  O4'       46.5900   73.5680   10.9730 O.3    15  G15        -0.3307
    308  C3'       48.3920   73.9980    9.4520 C.3    15  G15         0.1860
    309  O3'       48.4670   74.9310    8.3840 O.3    15  G15        -0.3112
    310  C2'       48.6880   74.6680   10.7940 C.3    15  G15         0.2309
    311  O2'       48.7030   76.0830   10.7530 O.3    15  G15        -0.2156
    312  C1'       47.6280   74.1230   11.7540 C.3    15  G15         0.2408
    313  N1        51.0150   72.5820   15.2360 N.ar   15  G15        -0.1709
    314  C2        50.6210   73.8600   14.9240 C.ar   15  G15         0.2606
    315  N2        51.2130   74.8470   15.6170 N.pl3  15  G15        -0.0859
    316  N3        49.7120   74.1490   14.0000 N.ar   15  G15        -0.1918
    317  C4        49.2310   73.0290   13.4110 C.ar   15  G15         0.1723
    318  C5        49.5630   71.7190   13.6560 C.ar   15  G15         0.1748
    319  C6        50.5250   71.4310   14.6350 C.ar   15  G15         0.3023
    320  O6        50.9360   70.3220   14.9800 O.2    15  G15        -0.2633
    321  N7        48.8470   70.8560   12.8380 N.ar   15  G15        -0.2173
    322  C8        48.1010   71.6500   12.1280 C.ar   15  G15         0.1817
    323  N9        48.2570   72.9850   12.4360 N.ar   15  G15        -0.2693
    324  OP1       46.5900   70.5310    7.1970 O.2    15  G15        -0.5172
    325  OP2       45.7840   68.9870    9.1040 O.co2  15  G15        -0.4373
    326  P         49.9250   74.9450    7.7050 P.3    16  G16         0.2141
    327  C5'       52.1060   75.6360    8.9210 C.3    16  G16         0.1812
    328  O5'       50.7240   75.8720    8.7290 O.3    16  G16        -0.3114
    329  C4'       52.7010   76.7220    9.7710 C.3    16  G16         0.1773
    330  O4'       52.1080   76.6400   11.0970 O.3    16  G16        -0.3307
    331  C3'       54.2010   76.5820    9.9720 C.3    16  G16         0.1860
    332  O3'       54.9280   77.5190    9.1960 O.3    16  G16        -0.3112
    333  C2'       54.4420   76.7530   11.4720 C.3    16  G16         0.2309
    334  O2'       54.8630   78.0500   11.8450 O.3    16  G16        -0.2156
    335  C1'       53.0900   76.4280   12.0940 C.3    16  G16         0.2408
    336  N1        55.3920   72.5520   14.4600 N.ar   16  G16        -0.1709
    337  C2        55.6810   73.8940   14.5210 C.ar   16  G16         0.2606
    338  N2        56.7240   74.2360   15.2950 N.pl3  16  G16        -0.0859
    339  N3        55.0040   74.8270   13.8590 N.ar   16  G16        -0.1918
    340  C4        53.9940   74.2860   13.1320 C.ar   16  G16         0.1723
    341  C5        53.6340   72.9630   13.0180 C.ar   16  G16         0.1748
    342  C6        54.3630   71.9900   13.7230 C.ar   16  G16         0.3023
    343  O6        54.1880   70.7720   13.7430 O.2    16  G16        -0.2633
    344  N7        52.5480   72.8140   12.1760 N.ar   16  G16        -0.2173
    345  C8        52.2730   74.0320   11.7960 C.ar   16  G16         0.1817
    346  N9        53.0920   74.9860   12.3560 N.ar   16  G16        -0.2693
    347  OP1       49.8940   75.7210    6.4400 O.2    16  G16        -0.5172
    348  OP2       50.5300   73.5930    7.7470 O.co2  16  G16        -0.4373
    349  P         55.8020   76.7010    8.1360 P.3    17  U17         0.2141
    350  C5'       57.7880   77.2760    9.6600 C.3    17  U17         0.1812
    351  O5'       57.0600   76.2410    9.0190 O.3    17  U17        -0.3114
    352  C4'       58.6230   76.7850   10.8170 C.3    17  U17         0.1773
    353  O4'       57.8100   76.0930   11.8020 O.3    17  U17        -0.3307
    354  C3'       59.7000   75.7700   10.4730 C.3    17  U17         0.1860
    355  O3'       60.8450   76.3530    9.8790 O.3    17  U17        -0.3112
    356  C2'       59.9700   75.0810   11.8070 C.3    17  U17         0.2309
    357  O2'       60.8470   75.8260   12.6400 O.3    17  U17        -0.2156
    358  C1'       58.5700   75.0670   12.4130 C.3    17  U17         0.2420
    359  N1        57.9620   73.7720   12.0810 N.ar   17  U17        -0.2534
    360  C2        58.4900   72.6240   12.6510 C.ar   17  U17         0.3546
    361  O2        59.4310   72.6100   13.4350 O.2    17  U17        -0.2443
    362  N3        57.8600   71.4650   12.2700 N.ar   17  U17        -0.1530
    363  C4        56.7920   71.3400   11.3950 C.ar   17  U17         0.2846
    364  O4        56.3330   70.2240   11.1550 O.2    17  U17        -0.2650
    365  C5        56.3090   72.5850   10.8380 C.ar   17  U17         0.0814
    366  C6        56.9030   73.7330   11.1940 C.ar   17  U17         0.0870
    367  OP1       56.3680   77.6450    7.1460 O.2    17  U17        -0.5172
    368  OP2       55.0120   75.5210    7.7020 O.co2  17  U17        -0.4373
    369  P         61.2240   75.8090    8.4300 P.3    18  G18         0.2141
    370  C5'       62.8210   74.4820   10.0190 C.3    18  G18         0.1812
    371  O5'       62.1220   74.5240    8.7790 O.3    18  G18        -0.3114
    372  C4'       63.2000   73.0670   10.3790 C.3    18  G18         0.1773
    373  O4'       62.0630   72.3670   10.9530 O.3    18  G18        -0.3307
    374  C3'       63.6100   72.2020    9.1990 C.3    18  G18         0.1860
    375  O3'       64.9770   72.3880    8.8530 O.3    18  G18        -0.3112
    376  C2'       63.2410   70.7910    9.6510 C.3    18  G18         0.2309
    377  O2'       64.2090   70.2780   10.5590 O.3    18  G18        -0.2156
    378  C1'       61.9550   71.0590   10.4320 C.3    18  G18         0.2408
    379  N1        57.6310   68.6880    8.9460 N.ar   18  G18        -0.1709
    380  C2        58.6150   68.2350    9.7930 C.ar   18  G18         0.2606
    381  N2        58.4190   67.0090   10.3100 N.pl3  18  G18        -0.0859
    382  N3        59.7080   68.9260   10.1110 N.ar   18  G18        -0.1918
    383  C4        59.7350   70.1260    9.4960 C.ar   18  G18         0.1723
    384  C5        58.7950   70.6610    8.6380 C.ar   18  G18         0.1748
    385  C6        57.6300   69.9220    8.3020 C.ar   18  G18         0.3023
    386  O6        56.6830   70.2340    7.5480 O.2    18  G18        -0.2633
    387  N7        59.1890   71.9240    8.2240 N.ar   18  G18        -0.2173
    388  C8        60.3280   72.1240    8.8250 C.ar   18  G18         0.1817
    389  N9        60.7350   71.0690    9.6040 N.ar   18  G18        -0.2693
    390  OP1       62.1470   76.7430    7.7440 O.2    18  G18        -0.5172
    391  OP2       59.9470   75.4490    7.7670 O.co2  18  G18        -0.4373
    392  P         65.5790   72.0580    7.3970 P.3    19  G19         0.2141
    393  C5'       66.8210   69.7580    7.6250 C.3    19  G19         0.1812
    394  O5'       66.0740   70.7860    8.2500 O.3    19  G19        -0.3114
    395  C4'       66.0070   68.4860    7.5160 C.3    19  G19         0.1773
    396  O4'       64.5980   68.7780    7.6430 O.3    19  G19        -0.3307
    397  C3'       66.1940   67.7290    6.2090 C.3    19  G19         0.1860
    398  O3'       67.2420   66.7780    6.3790 O.3    19  G19        -0.3112
    399  C2'       64.8020   67.1890    5.8490 C.3    19  G19         0.2309
    400  O2'       64.7310   65.8120    6.1630 O.3    19  G19        -0.2156
    401  C1'       63.8520   67.9410    6.7850 C.3    19  G19         0.2408
    402  N1        58.8440   68.4380    5.7240 N.ar   19  G19        -0.1709
    403  C2        59.4980   67.4430    6.4210 C.ar   19  G19         0.2606
    404  N2        58.7280   66.4450    6.8790 N.pl3  19  G19        -0.0859
    405  N3        60.8120   67.4110    6.6430 N.ar   19  G19        -0.1918
    406  C4        61.4420   68.4900    6.1030 C.ar   19  G19         0.1723
    407  C5        60.8730   69.5390    5.4050 C.ar   19  G19         0.1748
    408  C6        59.4680   69.5670    5.1870 C.ar   19  G19         0.3023
    409  O6        58.8030   70.4220    4.5750 O.2    19  G19        -0.2633
    410  N7        61.8570   70.4450    5.0190 N.ar   19  G19        -0.2173
    411  C8        62.9760   69.9450    5.4800 C.ar   19  G19         0.1817
    412  N9        62.8040   68.7540    6.1320 N.ar   19  G19        -0.2693
    413  OP1       66.5660   73.1530    7.6030 O.3    19  G19        -0.4373
    414  OP2       64.1900   72.1800    6.8710 O.co2  19  G19        -0.5172
    415  P         67.3710   65.3230    5.7340 P.3    20  A20         0.2141
    416  C5'       67.5050   63.3050    7.3800 C.3    20  A20         0.1812
    417  O5'       66.6870   64.2930    6.7510 O.3    20  A20        -0.3114
    418  C4'       66.9290   61.8990    7.3790 C.3    20  A20         0.1773
    419  O4'       65.4750   61.9500    7.5660 O.3    20  A20        -0.3307
    420  C3'       67.1790   61.0560    6.1240 C.3    20  A20         0.1860
    421  O3'       67.9840   59.8760    6.3570 O.3    20  A20        -0.3112
    422  C2'       65.8040   60.6800    5.5620 C.3    20  A20         0.2309
    423  O2'       65.6310   59.3070    5.2690 O.3    20  A20        -0.2156
    424  C1'       64.7830   61.1540    6.6300 C.3    20  A20         0.2408
    425  N1        59.6940   61.5320    5.4860 N.ar   20  A20        -0.2040
    426  C2        60.4210   60.5910    6.1120 C.ar   20  A20         0.2016
    427  N3        61.7300   60.5390    6.3880 N.ar   20  A20        -0.2048
    428  C4        62.3440   61.6360    5.9310 C.ar   20  A20         0.1692
    429  C5        61.7340   62.6910    5.2700 C.ar   20  A20         0.1518
    430  C6        60.3430   62.6250    5.0430 C.ar   20  A20         0.1919
    431  N6        59.6510   63.5820    4.4170 N.pl3  20  A20        -0.1054
    432  N7        62.6630   63.6500    4.9520 N.ar   20  A20        -0.2193
    433  C8        63.7910   63.1580    5.4110 C.ar   20  A20         0.1816
    434  N9        63.6860   61.9460    6.0360 N.ar   20  A20        -0.2693
    435  OP1       68.7910   64.9030    5.7800 O.3    20  A20        -0.4373
    436  OP2       66.6140   65.3880    4.4580 O.co2  20  A20        -0.5172
    437  P         68.2050   59.0700    7.7290 P.3    21  G21         0.2141
    438  C5'       66.4060   58.2830    9.4130 C.3    21  G21         0.1812
    439  O5'       66.7690   59.1930    8.3930 O.3    21  G21        -0.3114
    440  C4'       65.1500   58.7940   10.0570 C.3    21  G21         0.1773
    441  O4'       64.2740   59.2210    8.9760 O.3    21  G21        -0.3307
    442  C3'       64.3760   57.7740   10.8800 C.3    21  G21         0.1860
    443  O3'       64.4510   57.9860   12.2750 O.3    21  G21        -0.3112
    444  C2'       62.9260   57.9940   10.4870 C.3    21  G21         0.2309
    445  O2'       62.2050   58.7170   11.4610 O.3    21  G21        -0.2156
    446  C1'       62.9570   58.7270    9.1470 C.3    21  G21         0.2408
    447  N1        59.4390   55.4210    7.6730 N.ar   21  G21        -0.1709
    448  C2        59.3610   56.4570    8.5640 C.ar   21  G21         0.2606
    449  N2        58.1870   56.6390    9.1830 N.pl3  21  G21        -0.0859
    450  N3        60.3770   57.2630    8.8380 N.ar   21  G21        -0.1918
    451  C4        61.5050   56.9550    8.1390 C.ar   21  G21         0.1723
    452  C5        61.6830   55.9440    7.2310 C.ar   21  G21         0.1748
    453  C6        60.5810   55.0890    6.9400 C.ar   21  G21         0.3023
    454  O6        60.5330   54.1270    6.1570 O.2    21  G21        -0.2633
    455  N7        62.9890   55.9760    6.7430 N.ar   21  G21        -0.2173
    456  C8        63.5680   56.9770    7.3570 C.ar   21  G21         0.1817
    457  N9        62.7030   57.6480    8.1890 N.ar   21  G21        -0.2693
    458  OP1       69.0660   59.8090    8.6850 O.3    21  G21        -0.4373
    459  OP2       68.4820   57.6450    7.4080 O.co2  21  G21        -0.5172
    460  P         64.4970   56.6180   13.0980 P.3    22  G22         0.2141
    461  C5'       62.1590   57.4130   13.9530 C.3    22  G22         0.1812
    462  O5'       62.9610   56.3500   13.4560 O.3    22  G22        -0.3114
    463  C4'       60.6840   57.1150   13.8490 C.3    22  G22         0.1773
    464  O4'       60.2420   57.1500   12.4640 O.3    22  G22        -0.3307
    465  C3'       60.2750   55.7390   14.3260 C.3    22  G22         0.1860
    466  O3'       60.1730   55.6600   15.7210 O.3    22  G22        -0.3112
    467  C2'       58.9440   55.5490   13.6300 C.3    22  G22         0.2309
    468  O2'       57.9530   56.3160   14.3020 O.3    22  G22        -0.2156
    469  C1'       59.2610   56.1540   12.2540 C.3    22  G22         0.2408
    470  N1        58.3190   51.9040    9.5200 N.ar   22  G22        -0.1709
    471  C2        57.4570   52.6820   10.2370 C.ar   22  G22         0.2606
    472  N2        56.1760   52.2980   10.2530 N.pl3  22  G22        -0.0859
    473  N3        57.8260   53.7730   10.8860 N.ar   22  G22        -0.1918
    474  C4        59.1530   54.0320   10.7890 C.ar   22  G22         0.1723
    475  C5        60.0870   53.3060   10.0890 C.ar   22  G22         0.1748
    476  C6        59.6790   52.1450    9.3870 C.ar   22  G22         0.3023
    477  O6        60.3620   51.3680    8.7040 O.2    22  G22        -0.2633
    478  N7        61.3360   53.8930   10.2110 N.ar   22  G22        -0.2173
    479  C8        61.1360   54.9310   10.9830 C.ar   22  G22         0.1817
    480  N9        59.8230   55.1060   11.3630 N.ar   22  G22        -0.2693
    481  OP1       65.1510   56.8680   14.4030 O.3    22  G22        -0.4373
    482  OP2       65.0140   55.5540   12.2050 O.co2  22  G22        -0.5172
    483  P         60.3170   54.2170   16.3610 P.3    23  G23         0.2141
    484  C5'       57.7610   54.1120   16.4870 C.3    23  G23         0.1812
    485  O5'       58.9410   53.5060   15.9950 O.3    23  G23        -0.3114
    486  C4'       56.5730   53.2390   16.2000 C.3    23  G23         0.1773
    487  O4'       56.3090   53.2500   14.7770 O.3    23  G23        -0.3307
    488  C3'       56.7510   51.7660   16.5200 C.3    23  G23         0.1860
    489  O3'       56.5990   51.4670   17.8910 O.3    23  G23        -0.3112
    490  C2'       55.6590   51.1600   15.6620 C.3    23  G23         0.2309
    491  O2'       54.3960   51.5030   16.2080 O.3    23  G23        -0.2156
    492  C1'       55.8630   51.9700   14.3870 C.3    23  G23         0.2408
    493  N1        56.8590   48.4290   10.8770 N.ar   23  G23        -0.1709
    494  C2        55.6570   48.7690   11.4460 C.ar   23  G23         0.2606
    495  N2        54.5740   48.0770   11.0490 N.pl3  23  G23        -0.0859
    496  N3        55.5340   49.7260   12.3560 N.ar   23  G23        -0.1918
    497  C4        56.7170   50.3200   12.6480 C.ar   23  G23         0.1723
    498  C5        57.9550   50.0500   12.1240 C.ar   23  G23         0.1748
    499  C6        58.0830   49.0320   11.1530 C.ar   23  G23         0.3023
    500  O6        59.1070   48.6490   10.5650 O.2    23  G23        -0.2633
    501  N7        58.9140   50.8780   12.6870 N.ar   23  G23        -0.2173
    502  C8        58.2500   51.6290   13.5240 C.ar   23  G23         0.1817
    503  N9        56.9050   51.3490   13.5470 N.ar   23  G23        -0.2693
    504  OP1       60.2190   54.3540   17.8320 O.3    23  G23        -0.4373
    505  OP2       61.4480   53.5140   15.7060 O.co2  23  G23        -0.5172
    506  P         56.9840   50.0160   18.4100 P.3    24  A24         0.2141
    507  C5'       59.1070   51.2100   19.1550 C.3    24  A24         0.1812
    508  O5'       58.0000   50.4240   19.5580 O.3    24  A24        -0.3114
    509  C4'       60.2930   50.8150   19.9830 C.3    24  A24         0.1773
    510  O4'       59.7920   50.3550   21.2560 O.3    24  A24        -0.3307
    511  C3'       61.0730   49.6340   19.4430 C.3    24  A24         0.1860
    512  O3'       62.0580   50.0440   18.5170 O.3    24  A24        -0.3112
    513  C2'       61.6420   48.9750   20.6940 C.3    24  A24         0.2309
    514  O2'       62.8430   49.6150   21.0980 O.3    24  A24        -0.2156
    515  C1'       60.5620   49.2770   21.7240 C.3    24  A24         0.2408
    516  N1        59.8110   44.5900   23.7270 N.ar   24  A24        -0.2040
    517  C2        60.8770   45.4010   23.6830 C.ar   24  A24         0.2016
    518  N3        61.0260   46.6210   23.1440 N.ar   24  A24        -0.2048
    519  C4        59.8870   47.0030   22.5730 C.ar   24  A24         0.1692
    520  C5        58.7020   46.3060   22.5310 C.ar   24  A24         0.1518
    521  C6        58.6740   45.0300   23.1460 C.ar   24  A24         0.1919
    522  N6        57.5840   44.2490   23.1630 N.pl3  24  A24        -0.1054
    523  N7        57.7350   47.0380   21.8630 N.ar   24  A24        -0.2193
    524  C8        58.3410   48.1470   21.5330 C.ar   24  A24         0.1816
    525  N9        59.6370   48.1680   21.9230 N.ar   24  A24        -0.2693
    526  OP1       57.8510   49.3750   17.3980 O.2    24  A24        -0.5172
    527  OP2       55.8360   49.2980   19.0070 O.co2  24  A24        -0.4373
    528  P         62.4720   49.1380   17.2740 P.3    25  C25         0.2141
    529  C5'       64.1780   47.5900   18.5200 C.3    25  C25         0.1812
    530  O5'       62.8910   47.7420   17.9470 O.3    25  C25        -0.3114
    531  C4'       64.3820   46.2290   19.1390 C.3    25  C25         0.1773
    532  O4'       63.3900   45.9570   20.1580 O.3    25  C25        -0.3307
    533  C3'       64.2390   45.0410   18.2160 C.3    25  C25         0.1860
    534  O3'       65.3780   44.8670   17.4140 O.3    25  C25        -0.3112
    535  C2'       64.0180   43.8820   19.1720 C.3    25  C25         0.2309
    536  O2'       65.2510   43.4590   19.7370 O.3    25  C25        -0.2156
    537  C1'       63.1880   44.5610   20.2560 C.3    25  C25         0.2420
    538  N1        61.7510   44.3570   20.1240 N.ar   25  C25        -0.2535
    539  C2        61.1740   43.2020   20.6420 C.ar   25  C25         0.3532
    540  O2        61.8900   42.3570   21.2050 O.2    25  C25        -0.2443
    541  N3        59.8390   43.0510   20.5180 N.ar   25  C25        -0.1739
    542  C4        59.1230   43.9980   19.9280 C.ar   25  C25         0.1759
    543  N4        57.8150   43.7930   19.8300 N.pl3  25  C25        -0.1070
    544  C5        59.6950   45.1780   19.4000 C.ar   25  C25         0.0566
    545  C6        61.0060   45.3180   19.5230 C.ar   25  C25         0.0850
    546  OP1       63.7310   49.7420   16.7850 O.3    25  C25        -0.4373
    547  OP2       61.3240   48.9250   16.3550 O.co2  25  C25        -0.5172
    548  P         65.1100   44.3630   15.9380 P.3    26  U26         0.2141
    549  C5'       65.6330   41.8050   16.3860 C.3    26  U26         0.1812
    550  O5'       64.6790   42.8320   16.1550 O.3    26  U26        -0.3114
    551  C4'       64.9620   40.4520   16.4940 C.3    26  U26         0.1773
    552  O4'       63.9200   40.5120   17.5020 O.3    26  U26        -0.3307
    553  C3'       64.2360   39.9560   15.2460 C.3    26  U26         0.1860
    554  O3'       65.0890   39.3660   14.2850 O.3    26  U26        -0.3112
    555  C2'       63.1690   39.0140   15.8000 C.3    26  U26         0.2309
    556  O2'       63.7010   37.7410   16.1680 O.3    26  U26        -0.2156
    557  C1'       62.7880   39.7740   17.0710 C.3    26  U26         0.2420
    558  N1        61.6550   40.7670   16.9220 N.ar   26  U26        -0.2534
    559  C2        60.3640   40.3210   17.1230 C.ar   26  U26         0.3546
    560  O2        60.1270   39.1560   17.4040 O.2    26  U26        -0.2443
    561  N3        59.3770   41.2730   16.9990 N.ar   26  U26        -0.1530
    562  C4        59.5720   42.6050   16.6800 C.ar   26  U26         0.2846
    563  O4        58.6110   43.3610   16.5870 O.2    26  U26        -0.2650
    564  C5        60.9430   42.9990   16.4790 C.ar   26  U26         0.0814
    565  C6        61.9170   42.0910   16.6100 C.ar   26  U26         0.0870
    566  OP1       66.4230   44.3170   15.2450 O.2    26  U26        -0.5172
    567  OP2       63.9640   45.1280   15.3820 O.co2  26  U26        -0.4373
    568  P         65.1730   40.0000   12.8100 P.3    27  G27         0.2141
    569  C5'       63.7360   37.8580   12.2250 C.3    27  G27         0.1812
    570  O5'       63.7730   39.2360   12.5770 O.3    27  G27        -0.3114
    571  C4'       62.3720   37.4400   11.7350 C.3    27  G27         0.1773
    572  O4'       61.4240   37.5020   12.8360 O.3    27  G27        -0.3307
    573  C3'       61.7340   38.3200   10.6660 C.3    27  G27         0.1860
    574  O3'       62.2860   38.1710    9.3630 O.3    27  G27        -0.3112
    575  C2'       60.2680   37.9400   10.8180 C.3    27  G27         0.2309
    576  O2'       60.0120   36.6320   10.3280 O.3    27  G27        -0.2156
    577  C1'       60.1790   37.9570   12.3510 C.3    27  G27         0.2408
    578  N1        56.8710   41.4830   13.9590 N.ar   27  G27        -0.1709
    579  C2        56.6700   40.1370   13.7390 C.ar   27  G27         0.2606
    580  N2        55.4410   39.6540   13.9680 N.pl3  27  G27        -0.0859
    581  N3        57.6200   39.3100   13.3360 N.ar   27  G27        -0.1918
    582  C4        58.7990   39.9570   13.1630 C.ar   27  G27         0.1723
    583  C5        59.0920   41.2930   13.3540 C.ar   27  G27         0.1748
    584  C6        58.0790   42.1660   13.7930 C.ar   27  G27         0.3023
    585  O6        58.1780   43.3860   14.0170 O.2    27  G27        -0.2633
    586  N7        60.4240   41.5610   13.0680 N.ar   27  G27        -0.2173
    587  C8        60.9000   40.4000   12.7050 C.ar   27  G27         0.1817
    588  N9        59.9810   39.3660   12.7620 N.ar   27  G27        -0.2693
    589  OP1       66.2990   39.0400   12.6790 O.2    27  G27        -0.5172
    590  OP2       65.1570   41.3440   13.4410 O.co2  27  G27        -0.4373
    591  P         61.6990   38.8130    7.9970 P.3    28  G28         0.2141
    592  C5'       59.2420   39.6920    7.5150 C.3    28  G28         0.1812
    593  O5'       60.2420   39.3070    8.4480 O.3    28  G28        -0.3114
    594  C4'       57.8680   39.3180    8.0180 C.3    28  G28         0.1773
    595  O4'       57.7990   39.4940    9.4540 O.3    28  G28        -0.3307
    596  C3'       56.7310   40.1620    7.4710 C.3    28  G28         0.1860
    597  O3'       56.3480   39.7170    6.1770 O.3    28  G28        -0.3112
    598  C2'       55.6760   40.0620    8.5810 C.3    28  G28         0.2309
    599  O2'       55.0040   38.8090    8.6030 O.3    28  G28        -0.2156
    600  C1'       56.5640   40.0650    9.8170 C.3    28  G28         0.2408
    601  N1        54.8500   44.3000   12.1580 N.ar   28  G28        -0.1709
    602  C2        54.1320   43.1920   11.8030 C.ar   28  G28         0.2606
    603  N2        52.8250   43.2140   12.1130 N.pl3  28  G28        -0.0859
    604  N3        54.6710   42.1430   11.1980 N.ar   28  G28        -0.1918
    605  C4        55.9990   42.3040   10.9640 C.ar   28  G28         0.1723
    606  C5        56.7810   43.3850   11.2770 C.ar   28  G28         0.1748
    607  C6        56.2040   44.4900   11.9270 C.ar   28  G28         0.3023
    608  O6        56.7500   45.5420   12.2840 O.2    28  G28        -0.2633
    609  N7        58.0920   43.1850   10.8750 N.ar   28  G28        -0.2173
    610  C8        58.0880   42.0050   10.3310 C.ar   28  G28         0.1817
    611  N9        56.8510   41.4140   10.3370 N.ar   28  G28        -0.2693
    612  OP1       61.4480   37.6250    7.1450 O.2    28  G28        -0.5172
    613  OP2       62.4870   39.9600    7.4590 O.co2  28  G28        -0.4373
    614  P         56.2940   40.6740    4.8980 P.3    29  C29         0.2141
    615  C5'       53.8430   41.0530    5.7020 C.3    29  C29         0.1812
    616  O5'       55.0920   41.6290    5.3480 O.3    29  C29        -0.3114
    617  C4'       52.9450   42.0780    6.3360 C.3    29  C29         0.1773
    618  O4'       53.4180   42.3270    7.6780 O.3    29  C29        -0.3307
    619  C3'       52.9420   43.4620    5.7000 C.3    29  C29         0.1860
    620  O3'       52.0720   43.5770    4.5840 O.3    29  C29        -0.3112
    621  C2'       52.5420   44.3620    6.8560 C.3    29  C29         0.2309
    622  O2'       51.1510   44.2630    7.1090 O.3    29  C29        -0.2156
    623  C1'       53.2780   43.6880    8.0020 C.3    29  C29         0.2420
    624  N1        54.6210   44.2240    8.1200 N.ar   29  C29        -0.2535
    625  C2        54.8460   45.3270    8.9430 C.ar   29  C29         0.3532
    626  O2        53.8990   45.8430    9.5490 O.2    29  C29        -0.2443
    627  N3        56.1000   45.8030    9.0330 N.ar   29  C29        -0.1739
    628  C4        57.0810   45.2150    8.3470 C.ar   29  C29         0.1759
    629  N4        58.3050   45.7280    8.4790 N.pl3  29  C29        -0.1070
    630  C5        56.8680   44.0740    7.5220 C.ar   29  C29         0.0566
    631  C6        55.6210   43.6170    7.4370 C.ar   29  C29         0.0850
    632  OP1       55.7360   39.8520    3.7970 O.2    29  C29        -0.5172
    633  OP2       57.4930   41.5140    4.6720 O.co2  29  C29        -0.4373
    634  P         52.1370   44.8820    3.6560 P.3    30  C30         0.2141
    635  C5'       51.9880   47.3070    4.5190 C.3    30  C30         0.1812
    636  O5'       51.4180   46.0130    4.5180 O.3    30  C30        -0.3114
    637  C4'       51.5290   48.0890    5.7190 C.3    30  C30         0.1773
    638  O4'       52.2540   47.6610    6.9000 O.3    30  C30        -0.3307
    639  C3'       51.7690   49.5830    5.6330 C.3    30  C30         0.1860
    640  O3'       50.7250   50.2170    4.9250 O.3    30  C30        -0.3112
    641  C2'       51.8730   49.9900    7.0980 C.3    30  C30         0.2309
    642  O2'       50.5880   50.0430    7.6940 O.3    30  C30        -0.2156
    643  C1'       52.5830   48.7770    7.6890 C.3    30  C30         0.2420
    644  N1        54.0280   48.8120    7.5890 N.ar   30  C30        -0.2535
    645  C2        54.7410   49.9030    8.0590 C.ar   30  C30         0.3532
    646  O2        54.1200   50.8370    8.5570 O.2    30  C30        -0.2443
    647  N3        56.0870   49.9110    7.9590 N.ar   30  C30        -0.1739
    648  C4        56.7080   48.8700    7.4030 C.ar   30  C30         0.1759
    649  N4        58.0450   48.9210    7.3140 N.pl3  30  C30        -0.1070
    650  C5        55.9890   47.7390    6.9080 C.ar   30  C30         0.0566
    651  C6        54.6610   47.7540    7.0240 C.ar   30  C30         0.0850
    652  OP1       51.2050   44.6640    2.5280 O.2    30  C30        -0.5172
    653  OP2       53.5390   45.3050    3.4440 O.co2  30  C30        -0.4373
    654  P         50.9920   51.5590    4.1140 P.3    31  C31         0.2141
    655  C5'       50.7210   53.0180    6.2160 C.3    31  C31         0.1812
    656  O5'       51.5800   52.5900    5.1760 O.3    31  C31        -0.3114
    657  C4'       51.3960   54.0690    7.0350 C.3    31  C31         0.1773
    658  O4'       52.4790   53.4740    7.7820 O.3    31  C31        -0.3307
    659  C3'       52.0880   55.1500    6.2380 C.3    31  C31         0.1860
    660  O3'       51.1810   56.1010    5.7240 O.3    31  C31        -0.3112
    661  C2'       53.0240   55.7160    7.2860 C.3    31  C31         0.2309
    662  O2'       52.2530   56.3970    8.2580 O.3    31  C31        -0.2156
    663  C1'       53.4910   54.4350    7.9570 C.3    31  C31         0.2420
    664  N1        54.6920   53.8760    7.4090 N.ar   31  C31        -0.2535
    665  C2        55.8680   54.5100    7.7360 C.ar   31  C31         0.3532
    666  O2        55.7970   55.5140    8.4520 O.2    31  C31        -0.2443
    667  N3        57.0180   54.0140    7.2380 N.ar   31  C31        -0.1739
    668  C4        56.9850   52.9270    6.4690 C.ar   31  C31         0.1759
    669  N4        58.1510   52.4740    6.0120 N.pl3  31  C31        -0.1070
    670  C5        55.7760   52.2600    6.1330 C.ar   31  C31         0.0566
    671  C6        54.6510   52.7700    6.6250 C.ar   31  C31         0.0850
    672  OP1       49.6710   52.1160    3.7380 O.3    31  C31        -0.4373
    673  OP2       52.0970   51.3500    3.1550 O.co2  31  C31        -0.5172
    674  P         51.5370   56.8060    4.3440 P.3    32  G32         0.2141
    675  C5'       53.0320   58.6970    5.2930 C.3    32  G32         0.1812
    676  O5'       52.9720   57.4610    4.6040 O.3    32  G32        -0.3114
    677  C4'       54.4400   59.2190    5.3340 C.3    32  G32         0.1773
    678  O4'       55.2850   58.2610    6.0110 O.3    32  G32        -0.3307
    679  C3'       55.1400   59.4050    3.9950 C.3    32  G32         0.1860
    680  O3'       54.7410   60.5660    3.2960 O.3    32  G32        -0.3112
    681  C2'       56.6010   59.4240    4.4160 C.3    32  G32         0.2309
    682  O2'       56.9690   60.6740    4.9880 O.3    32  G32        -0.2156
    683  C1'       56.5980   58.3610    5.5060 C.3    32  G32         0.2408
    684  N1        60.4720   55.5840    3.8420 N.ar   32  G32        -0.1709
    685  C2        60.4650   56.8600    4.3570 C.ar   32  G32         0.2606
    686  N2        61.6470   57.4930    4.4300 N.pl3  32  G32        -0.0859
    687  N3        59.3610   57.4720    4.7490 N.ar   32  G32        -0.1918
    688  C4        58.2640   56.6940    4.5990 C.ar   32  G32         0.1723
    689  C5        58.1670   55.4160    4.1020 C.ar   32  G32         0.1748
    690  C6        59.3540   54.7560    3.6650 C.ar   32  G32         0.3023
    691  O6        59.4940   53.6080    3.1800 O.2    32  G32        -0.2633
    692  N7        56.8370   55.0010    4.1290 N.ar   32  G32        -0.2173
    693  C8        56.1780   56.0130    4.6200 C.ar   32  G32         0.1817
    694  N9        56.9890   57.0650    4.9390 N.ar   32  G32        -0.2693
    695  OP1       50.6280   57.9680    4.1750 O.3    32  G32        -0.4373
    696  OP2       51.6880   55.7540    3.3100 O.co2  32  G32        -0.5172
    697  P         54.3900   60.3850    1.7570 P.3    33  A33         0.2141
    698  C5'       56.1070   62.3460    1.3080 C.3    33  A33         0.1812
    699  O5'       54.8300   61.7620    1.0460 O.3    33  A33        -0.3114
    700  C4'       56.5810   63.3910    0.3090 C.3    33  A33         0.1773
    701  O4'       57.7650   64.0050    0.8700 O.3    33  A33        -0.3307
    702  C3'       56.9880   62.8920   -1.0830 C.3    33  A33         0.1860
    703  O3'       55.9900   63.1210   -2.0760 O.3    33  A33        -0.3112
    704  C2'       58.3350   63.5410   -1.4190 C.3    33  A33         0.2309
    705  O2'       58.1920   64.5310   -2.4270 O.3    33  A33        -0.2156
    706  C1'       58.7600   64.2120   -0.1070 C.3    33  A33         0.2408
    707  N1        61.6920   60.5930    2.3360 N.ar   33  A33        -0.2040
    708  C2        60.4160   60.6130    1.9300 C.ar   33  A33         0.2016
    709  N3        59.6980   61.5570    1.3030 N.ar   33  A33        -0.2048
    710  C4        60.4430   62.6370    1.0890 C.ar   33  A33         0.1692
    711  C5        61.7780   62.7760    1.4560 C.ar   33  A33         0.1518
    712  C6        62.4230   61.6950    2.1120 C.ar   33  A33         0.1919
    713  N6        63.7010   61.6930    2.5190 N.pl3  33  A33        -0.1054
    714  N7        62.2350   64.0240    1.0750 N.ar   33  A33        -0.2193
    715  C8        61.1930   64.5860    0.4980 C.ar   33  A33         0.1816
    716  N9        60.0700   63.8020    0.4470 N.ar   33  A33        -0.2693
    717  OP1       52.9190   60.3240    1.5740 O.3    33  A33        -0.4373
    718  OP2       55.2450   59.2470    1.3450 O.co2  33  A33        -0.5172
    719  P         55.2410   64.5340   -2.2980 P.3    34  C34         0.2141
    720  C5'       53.1070   65.5100   -1.1550 C.3    34  C34         0.1812
    721  O5'       53.8110   64.3550   -1.6060 O.3    34  C34        -0.3114
    722  C4'       51.8850   65.1630   -0.3340 C.3    34  C34         0.1773
    723  O4'       50.7970   64.7670   -1.2090 O.3    34  C34        -0.3307
    724  C3'       52.0520   64.0250    0.6640 C.3    34  C34         0.1860
    725  O3'       51.2410   64.3120    1.7980 O.3    34  C34        -0.3112
    726  C2'       51.4970   62.8120   -0.0820 C.3    34  C34         0.2309
    727  O2'       50.9830   61.7820    0.7380 O.3    34  C34        -0.2156
    728  C1'       50.4070   63.4310   -0.9510 C.3    34  C34         0.2420
    729  N1        50.4060   62.9330   -2.3320 N.ar   34  C34        -0.2535
    730  C2        49.1990   62.7310   -2.9870 C.ar   34  C34         0.3532
    731  O2        48.1390   62.9310   -2.3800 O.2    34  C34        -0.2443
    732  N3        49.2340   62.3000   -4.2700 N.ar   34  C34        -0.1739
    733  C4        50.3990   62.1000   -4.8980 C.ar   34  C34         0.1759
    734  N4        50.3730   61.6730   -6.1750 N.pl3  34  C34        -0.1070
    735  C5        51.6440   62.3190   -4.2370 C.ar   34  C34         0.0566
    736  C6        51.5960   62.7390   -2.9720 C.ar   34  C34         0.0850
    737  OP1       55.0170   64.8050   -3.7400 O.2    34  C34        -0.5172
    738  OP2       55.9190   65.5380   -1.4490 O.co2  34  C34        -0.4373
    739  P         51.8530   65.2760    2.9080 P.3    35  G35         0.2141
    740  C5'       53.5480   63.6550    4.0100 C.3    35  G35         0.1812
    741  O5'       53.3400   64.7460    3.1270 O.3    35  G35        -0.3114
    742  C4'       54.8560   63.8120    4.7300 C.3    35  G35         0.1773
    743  O4'       55.8570   64.2780    3.7900 O.3    35  G35        -0.3307
    744  C3'       54.8390   64.8320    5.8630 C.3    35  G35         0.1860
    745  O3'       55.8470   64.4490    6.7860 O.3    35  G35        -0.3112
    746  C2'       55.3120   66.0930    5.1670 C.3    35  G35         0.2309
    747  O2'       55.8330   67.0910    6.0260 O.3    35  G35        -0.2156
    748  C1'       56.3930   65.4920    4.2730 C.3    35  G35         0.2408
    749  N1        60.3630   67.5130    2.0370 N.ar   35  G35        -0.1709
    750  C2        60.2920   66.5950    3.0550 C.ar   35  G35         0.2606
    751  N2        61.4620   66.1750    3.5470 N.pl3  35  G35        -0.0859
    752  N3        59.1500   66.1380    3.5480 N.ar   35  G35        -0.1918
    753  C4        58.0900   66.6840    2.9070 C.ar   35  G35         0.1723
    754  C5        58.0490   67.5970    1.8830 C.ar   35  G35         0.1748
    755  C6        59.2750   68.0880    1.3730 C.ar   35  G35         0.3023
    756  O6        59.4590   68.9100    0.4570 O.2    35  G35        -0.2633
    757  N7        56.7320   67.8830    1.5340 N.ar   35  G35        -0.2173
    758  C8        56.0130   67.1520    2.3400 C.ar   35  G35         0.1817
    759  N9        56.7890   66.3880    3.1890 N.ar   35  G35        -0.2693
    760  OP1       51.1560   64.9330    4.1720 O.3    35  G35        -0.4373
    761  OP2       51.9570   66.6590    2.3920 O.co2  35  G35        -0.5172
    762  P         55.6150   64.5870    8.3430 P.3    36  A36         0.2141
    763  C5'       55.8910   62.0860    8.7040 C.3    36  A36         0.1812
    764  O5'       56.4810   63.3600    8.8700 O.3    36  A36        -0.3114
    765  C4'       56.8210   60.9970    9.1400 C.3    36  A36         0.1773
    766  O4'       57.9500   61.0300    8.2320 O.3    36  A36        -0.3307
    767  C3'       57.4200   61.1930   10.5210 C.3    36  A36         0.1860
    768  O3'       56.7740   60.4300   11.5280 O.3    36  A36        -0.3112
    769  C2'       58.8820   60.7730   10.3880 C.3    36  A36         0.2309
    770  O2'       59.1130   59.4260   10.7520 O.3    36  A36        -0.2156
    771  C1'       59.1900   60.9540    8.9130 C.3    36  A36         0.2408
    772  N1        63.4030   63.6910   10.0220 N.ar   36  A36        -0.2040
    773  C2        63.0250   62.4630   10.3890 C.ar   36  A36         0.2016
    774  N3        61.9140   61.8080   10.0640 N.ar   36  A36        -0.2048
    775  C4        61.1410   62.5590    9.2580 C.ar   36  A36         0.1692
    776  C5        61.3980   63.8430    8.8100 C.ar   36  A36         0.1518
    777  C6        62.6010   64.4230    9.2340 C.ar   36  A36         0.1919
    778  N6        63.0060   65.6440    8.8790 N.pl3  36  A36        -0.1054
    779  N7        60.3810   64.3120    7.9930 N.ar   36  A36        -0.2193
    780  C8        59.5230   63.3150    7.9730 C.ar   36  A36         0.1816
    781  N9        59.9210   62.2170    8.7010 N.ar   36  A36        -0.2693
    782  OP1       54.2070   64.2190    8.6230 O.2    36  A36        -0.5172
    783  OP2       56.2120   65.8480    8.8430 O.co2  36  A36        -0.4373
    784  P         56.4780   61.2740   12.8530 P.3    37  A37         0.2141
    785  C5'       58.4540   60.3770   14.2870 C.3    37  A37         0.1812
    786  O5'       57.9240   61.4420   13.5180 O.3    37  A37        -0.3114
    787  C4'       59.8150   60.7110   14.8460 C.3    37  A37         0.1773
    788  O4'       60.6780   61.1690   13.7780 O.3    37  A37        -0.3307
    789  C3'       59.8960   61.8360   15.8730 C.3    37  A37         0.1860
    790  O3'       59.5410   61.4530   17.1890 O.3    37  A37        -0.3112
    791  C2'       61.3510   62.2770   15.7700 C.3    37  A37         0.2309
    792  O2'       62.2000   61.3480   16.4380 O.3    37  A37        -0.2156
    793  C1'       61.5820   62.1360   14.2680 C.3    37  A37         0.2408
    794  N1        63.5160   66.7240   12.8620 N.ar   37  A37        -0.2040
    795  C2        63.9870   65.7500   13.6690 C.ar   37  A37         0.2016
    796  N3        63.4290   64.5760   14.0010 N.ar   37  A37        -0.2048
    797  C4        62.2320   64.4400   13.3970 C.ar   37  A37         0.1692
    798  C5        61.6170   65.3520   12.5380 C.ar   37  A37         0.1518
    799  C6        62.3070   66.5600   12.2650 C.ar   37  A37         0.1919
    800  N6        61.8270   67.5250   11.4650 N.pl3  37  A37        -0.1054
    801  N7        60.3910   64.8640   12.1110 N.ar   37  A37        -0.2193
    802  C8        60.2930   63.6910   12.7050 C.ar   37  A37         0.1816
    803  N9        61.3700   63.3730   13.4950 N.ar   37  A37        -0.2693
    804  OP1       55.7680   60.3220   13.7350 O.3    37  A37        -0.4373
    805  OP2       55.9200   62.6150   12.5400 O.co2  37  A37        -0.5172
    806  P         58.8680   62.5870   18.0910 P.3    38  A38         0.2141
    807  C5'       61.0110   63.9240   18.9280 C.3    38  A38         0.1812
    808  O5'       59.9270   63.7950   18.0110 O.3    38  A38        -0.3114
    809  C4'       61.7750   65.2180   18.7510 C.3    38  A38         0.1773
    810  O4'       62.1510   65.3570   17.3550 O.3    38  A38        -0.3307
    811  C3'       61.0250   66.5090   19.0720 C.3    38  A38         0.1860
    812  O3'       60.9940   66.8390   20.4600 O.3    38  A38        -0.3112
    813  C2'       61.7530   67.5280   18.1950 C.3    38  A38         0.2309
    814  O2'       63.0140   67.8740   18.7510 O.3    38  A38        -0.2156
    815  C1'       62.0070   66.6990   16.9370 C.3    38  A38         0.2408
    816  N1        59.1780   69.4310   13.5100 N.ar   38  A38        -0.2040
    817  C2        60.2750   69.7500   14.2030 C.ar   38  A38         0.2016
    818  N3        60.9750   69.0050   15.0650 N.ar   38  A38        -0.2048
    819  C4        60.4310   67.7930   15.2200 C.ar   38  A38         0.1692
    820  C5        59.3050   67.3280   14.5800 C.ar   38  A38         0.1518
    821  C6        58.6550   68.1960   13.6860 C.ar   38  A38         0.1919
    822  N6        57.5540   67.8300   13.0160 N.pl3  38  A38        -0.1054
    823  N7        59.0240   66.0340   14.9660 N.ar   38  A38        -0.2193
    824  C8        59.9710   65.7460   15.8240 C.ar   38  A38         0.1816
    825  N9        60.8600   66.7550   16.0180 N.ar   38  A38        -0.2693
    826  OP1       58.9340   62.1170   19.4930 O.3    38  A38        -0.4373
    827  OP2       57.5710   63.0110   17.5050 O.co2  38  A38        -0.5172
    828  P         59.6460   66.9570   21.3410 P.3    39  C39         0.2141
    829  C5'       60.8690   69.3420   21.3460 C.3    39  C39         0.1812
    830  O5'       59.7190   68.5440   21.1070 O.3    39  C39        -0.3114
    831  C4'       60.7100   70.7020   20.6990 C.3    39  C39         0.1773
    832  O4'       60.8540   70.5890   19.2570 O.3    39  C39        -0.3307
    833  C3'       59.3440   71.3640   20.8560 C.3    39  C39         0.1860
    834  O3'       59.1140   71.9610   22.1180 O.3    39  C39        -0.3112
    835  C2'       59.2960   72.3500   19.6910 C.3    39  C39         0.2309
    836  O2'       60.0090   73.5540   19.9550 O.3    39  C39        -0.2156
    837  C1'       60.0260   71.5460   18.6150 C.3    39  C39         0.2420
    838  N1        58.9970   70.9120   17.7200 N.ar   39  C39        -0.2535
    839  C2        58.4740   71.6400   16.6200 C.ar   39  C39         0.3532
    840  O2        58.8790   72.7850   16.3610 O.2    39  C39        -0.2443
    841  N3        57.5310   71.0670   15.8290 N.ar   39  C39        -0.1739
    842  C4        57.0970   69.8400   16.1100 C.ar   39  C39         0.1759
    843  N4        56.1660   69.3240   15.3130 N.pl3  39  C39        -0.1070
    844  C5        57.5960   69.0890   17.2170 C.ar   39  C39         0.0566
    845  C6        58.5320   69.6550   17.9970 C.ar   39  C39         0.0850
    846  OP1       60.5590   66.5900   22.4520 O.3    39  C39        -0.4373
    847  OP2       58.9800   66.1210   20.3140 O.co2  39  C39        -0.5172
    848  P         57.6320   71.9390   22.7180 P.3    40  C40         0.2141
    849  C5'       57.1750   74.3600   21.8150 C.3    40  C40         0.1812
    850  O5'       56.7930   72.9920   21.8490 O.3    40  C40        -0.3114
    851  C4'       56.2870   75.1790   20.9080 C.3    40  C40         0.1773
    852  O4'       56.4480   74.7540   19.5280 O.3    40  C40        -0.3307
    853  C3'       54.7930   75.0480   21.1560 C.3    40  C40         0.1860
    854  O3'       54.3350   75.8270   22.2460 O.3    40  C40        -0.3112
    855  C2'       54.1950   75.4410   19.8120 C.3    40  C40         0.2309
    856  O2'       54.2000   76.8460   19.6440 O.3    40  C40        -0.2156
    857  C1'       55.2110   74.8370   18.8440 C.3    40  C40         0.2420
    858  N1        54.7190   73.4890   18.3180 N.ar   40  C40        -0.2535
    859  C2        53.6900   73.4400   17.3410 C.ar   40  C40         0.3532
    860  O2        53.1780   74.4690   16.8800 O.2    40  C40        -0.2443
    861  N3        53.2510   72.2430   16.9000 N.ar   40  C40        -0.1739
    862  C4        53.7910   71.1260   17.3800 C.ar   40  C40         0.1759
    863  N4        53.3240   69.9740   16.8940 N.pl3  40  C40        -0.1070
    864  C5        54.8270   71.1290   18.3630 C.ar   40  C40         0.0566
    865  C6        55.2500   72.3200   18.8020 C.ar   40  C40         0.0850
    866  OP1       57.7240   72.5640   24.0510 O.3    40  C40        -0.4373
    867  OP2       57.0790   70.5670   22.6300 O.co2  40  C40        -0.5172
    868  P         53.1780   75.2130   23.1660 P.3    41  C41         0.2141
    869  C5'       51.5960   76.8090   21.8090 C.3    41  C41         0.1812
    870  O5'       51.8450   75.5060   22.3240 O.3    41  C41        -0.3114
    871  C4'       50.5840   76.8060   20.6850 C.3    41  C41         0.1773
    872  O4'       51.1540   76.1390   19.5270 O.3    41  C41        -0.3307
    873  C3'       49.2730   76.0710   20.9470 C.3    41  C41         0.1860
    874  O3'       48.3030   76.8360   21.6410 O.3    41  C41        -0.3112
    875  C2'       48.8290   75.7060   19.5420 C.3    41  C41         0.2309
    876  O2'       48.3110   76.8580   18.8970 O.3    41  C41        -0.2156
    877  C1'       50.1700   75.3400   18.9060 C.3    41  C41         0.2420
    878  N1        50.5390   73.8890   19.1300 N.ar   41  C41        -0.2535
    879  C2        49.8400   72.8700   18.4590 C.ar   41  C41         0.3532
    880  O2        48.9250   73.1890   17.6980 O.2    41  C41        -0.2443
    881  N3        50.1650   71.5660   18.6580 N.ar   41  C41        -0.1739
    882  C4        51.1580   71.2600   19.4870 C.ar   41  C41         0.1759
    883  N4        51.4430   69.9670   19.6590 N.pl3  41  C41        -0.1070
    884  C5        51.8900   72.2710   20.1890 C.ar   41  C41         0.0566
    885  C6        51.5610   73.5560   19.9780 C.ar   41  C41         0.0850
    886  OP1       53.0370   76.0540   24.3740 O.3    41  C41        -0.4373
    887  OP2       53.4060   73.7570   23.3370 O.co2  41  C41        -0.5172
    888  P         47.1830   76.0900   22.5010 P.3    42  G42         0.2141
    889  C5'       45.3830   75.3090   20.7900 C.3    42  G42         0.1812
    890  O5'       46.5690   75.0020   21.5080 O.3    42  G42        -0.3114
    891  C4'       44.8770   74.1220   20.0090 C.3    42  G42         0.1773
    892  O4'       45.9940   73.4580   19.3660 O.3    42  G42        -0.3307
    893  C3'       44.2150   73.0120   20.8120 C.3    42  G42         0.1860
    894  O3'       42.8690   73.2970   21.1530 O.3    42  G42        -0.3112
    895  C2'       44.3740   71.8040   19.8930 C.3    42  G42         0.2309
    896  O2'       43.4200   71.8310   18.8360 O.3    42  G42        -0.2156
    897  C1'       45.7500   72.0720   19.2850 C.3    42  G42         0.2408
    898  N1        47.8330   67.5500   20.3410 N.ar   42  G42        -0.1709
    899  C2        46.7290   67.8510   19.5780 C.ar   42  G42         0.2606
    900  N2        46.1000   66.8050   19.0270 N.pl3  42  G42        -0.0859
    901  N3        46.2740   69.0840   19.3710 N.ar   42  G42        -0.1918
    902  C4        47.0380   70.0070   19.9980 C.ar   42  G42         0.1723
    903  C5        48.1560   69.8110   20.7720 C.ar   42  G42         0.1748
    904  C6        48.6210   68.4930   20.9900 C.ar   42  G42         0.3023
    905  O6        49.6040   68.1210   21.6380 O.2    42  G42        -0.2633
    906  N7        48.6430   71.0230   21.2360 N.ar   42  G42        -0.2173
    907  C8        47.8260   71.9110   20.7430 C.ar   42  G42         0.1817
    908  N9        46.8300   71.3610   19.9840 N.ar   42  G42        -0.2693
    909  OP1       46.0460   77.0240   22.6820 O.2    42  G42        -0.5172
    910  OP2       47.8390   75.4140   23.6520 O.co2  42  G42        -0.4373
    911  P         42.4070   72.9180   22.6300 P.3    43  G43         0.2141
    912  C5'       41.1990   70.7540   21.6470 C.3    43  G43         0.1812
    913  O5'       42.1610   71.3300   22.5270 O.3    43  G43        -0.3114
    914  C4'       41.5120   69.3170   21.2970 C.3    43  G43         0.1773
    915  O4'       42.9070   69.2020   20.9170 O.3    43  G43        -0.3307
    916  C3'       41.3490   68.3000   22.4180 C.3    43  G43         0.1860
    917  O3'       40.0010   67.8920   22.6250 O.3    43  G43        -0.3112
    918  C2'       42.2780   67.1720   21.9830 C.3    43  G43         0.2309
    919  O2'       41.6810   66.3860   20.9610 O.3    43  G43        -0.2156
    920  C1'       43.4160   67.9480   21.3270 C.3    43  G43         0.2408
    921  N1        47.2690   65.8530   24.1120 N.ar   43  G43        -0.1709
    922  C2        46.2440   65.2270   23.4430 C.ar   43  G43         0.2606
    923  N2        46.2320   63.8940   23.5120 N.pl3  43  G43        -0.0859
    924  N3        45.2890   65.8470   22.7560 N.ar   43  G43        -0.1918
    925  C4        45.4380   67.1940   22.7810 C.ar   43  G43         0.1723
    926  C5        46.4350   67.9040   23.4250 C.ar   43  G43         0.1748
    927  C6        47.4450   67.2300   24.1520 C.ar   43  G43         0.3023
    928  O6        48.3950   67.7360   24.7610 O.2    43  G43        -0.2633
    929  N7        46.2680   69.2670   23.2270 N.ar   43  G43        -0.2173
    930  C8        45.1930   69.3550   22.4850 C.ar   43  G43         0.1817
    931  N9        44.6190   68.1420   22.1740 N.ar   43  G43        -0.2693
    932  OP1       41.1640   73.6150   23.0580 O.2    43  G43        -0.5172
    933  OP2       43.6630   73.0570   23.4070 O.co2  43  G43        -0.4373
    934  P         39.4800   67.3730   24.0660 P.3    44  C44         0.2141
    935  C5'       39.7670   64.9300   22.9760 C.3    44  C44         0.1812
    936  O5'       40.2960   66.0310   23.7070 O.3    44  C44        -0.3114
    937  C4'       40.5050   63.6500   23.2830 C.3    44  C44         0.1773
    938  O4'       41.9280   63.8970   23.2930 O.3    44  C44        -0.3307
    939  C3'       40.2190   63.0510   24.6460 C.3    44  C44         0.1860
    940  O3'       39.1140   62.1850   24.6200 O.3    44  C44        -0.3112
    941  C2'       41.4870   62.3040   24.9970 C.3    44  C44         0.2309
    942  O2'       41.4850   61.0500   24.3430 O.3    44  C44        -0.2156
    943  C1'       42.5450   63.1620   24.3290 C.3    44  C44         0.2420
    944  N1        43.3420   64.1200   25.1510 N.ar   44  C44        -0.2535
    945  C2        44.3040   63.6920   26.0680 C.ar   44  C44         0.3532
    946  O2        44.4540   62.4780   26.2690 O.2    44  C44        -0.2443
    947  N3        45.0320   64.6400   26.7130 N.ar   44  C44        -0.1739
    948  C4        44.8370   65.9410   26.4660 C.ar   44  C44         0.1759
    949  N4        45.5630   66.8580   27.1240 N.pl3  44  C44        -0.1070
    950  C5        43.8610   66.3720   25.5270 C.ar   44  C44         0.0566
    951  C6        43.1550   65.4400   24.8930 C.ar   44  C44         0.0850
    952  OP1       38.1000   67.2890   23.5220 O.2    44  C44        -0.5172
    953  OP2       40.2070   68.5800   24.5400 O.co2  44  C44        -0.4373
    954  P         38.2730   62.1950   25.9470 P.3    45  A45         0.2141
    955  C5'       39.7120   60.2490   26.7920 C.3    45  A45         0.1812
    956  O5'       39.3010   61.5850   27.0030 O.3    45  A45        -0.3114
    957  C4'       40.8240   59.9130   27.7350 C.3    45  A45         0.1773
    958  O4'       41.9150   60.8420   27.5480 O.3    45  A45        -0.3307
    959  C3'       40.4430   60.0400   29.1850 C.3    45  A45         0.1860
    960  O3'       39.8950   58.8140   29.6180 O.3    45  A45        -0.3112
    961  C2'       41.7590   60.3750   29.8540 C.3    45  A45         0.2309
    962  O2'       42.4940   59.1660   29.9660 O.3    45  A45        -0.2156
    963  C1'       42.4570   61.2120   28.7910 C.3    45  A45         0.2408
    964  N1        44.5430   65.8440   30.0190 N.ar   45  A45        -0.2040
    965  C2        44.9460   64.5890   30.2540 C.ar   45  A45         0.2016
    966  N3        44.3790   63.4160   29.9480 N.ar   45  A45        -0.2048
    967  C4        43.2290   63.6200   29.2970 C.ar   45  A45         0.1692
    968  C5        42.6840   64.8490   28.9820 C.ar   45  A45         0.1518
    969  C6        43.3830   66.0040   29.3750 C.ar   45  A45         0.1919
    970  N6        42.9730   67.2480   29.1380 N.pl3  45  A45        -0.1054
    971  N7        41.4940   64.6940   28.3020 N.ar   45  A45        -0.2193
    972  C8        41.3370   63.3960   28.2220 C.ar   45  A45         0.1816
    973  N9        42.3280   62.6810   28.8300 N.ar   45  A45        -0.2693
    974  OP1       37.1790   61.1910   25.9150 O.2    45  A45        -0.5172
    975  OP2       38.0640   63.6330   26.2480 O.co2  45  A45        -0.4373
    976  P         39.1800   58.7080   31.0350 P.3    46  A46         0.2141
    977  C5'       40.8380   58.0090   33.0360 C.3    46  A46         0.1812
    978  O5'       40.4700   58.8580   31.9620 O.3    46  A46        -0.3114
    979  C4'       41.5910   58.8500   34.0210 C.3    46  A46         0.1773
    980  O4'       42.0050   60.0580   33.3410 O.3    46  A46        -0.3307
    981  C3'       40.7620   59.2800   35.2180 C.3    46  A46         0.1860
    982  O3'       41.1300   58.5580   36.3870 O.3    46  A46        -0.3112
    983  C2'       40.9800   60.7780   35.3910 C.3    46  A46         0.2309
    984  O2'       41.6610   61.0600   36.6110 O.3    46  A46        -0.2156
    985  C1'       41.8360   61.1720   34.1670 C.3    46  A46         0.2408
    986  N1        42.4990   65.9740   32.4910 N.ar   46  A46        -0.2040
    987  C2        43.2620   65.1540   33.2230 C.ar   46  A46         0.2016
    988  N3        43.0200   63.9020   33.6200 N.ar   46  A46        -0.2048
    989  C4        41.8240   63.4830   33.1860 C.ar   46  A46         0.1692
    990  C5        40.9290   64.2010   32.4300 C.ar   46  A46         0.1518
    991  C6        41.3070   65.5090   32.0780 C.ar   46  A46         0.1919
    992  N6        40.5400   66.3170   31.3570 N.pl3  46  A46        -0.1054
    993  N7        39.8000   63.4410   32.1630 N.ar   46  A46        -0.2193
    994  C8        40.0280   62.2880   32.7640 C.ar   46  A46         0.1816
    995  N9        41.2420   62.2590   33.3860 N.ar   46  A46        -0.2693
    996  OP1       38.7240   57.3090   31.2490 O.2    46  A46        -0.5172
    997  OP2       38.3310   59.9010   31.2620 O.co2  46  A46        -0.4373
    998  P         42.0690   57.2510   36.4480 P.3    47  C47         0.2141
    999  C5'       44.1380   56.4860   37.4350 C.3    47  C47         0.1812
   1000  O5'       43.5160   57.6780   36.9770 O.3    47  C47        -0.3114
   1001  C4'       45.6340   56.5450   37.5580 C.3    47  C47         0.1773
   1002  O4'       46.2460   56.9080   36.2880 O.3    47  C47        -0.3307
   1003  C3'       46.1240   57.5790   38.5460 C.3    47  C47         0.1860
   1004  O3'       46.2770   57.0410   39.8550 O.3    47  C47        -0.3112
   1005  C2'       47.4500   58.0710   37.9670 C.3    47  C47         0.2309
   1006  O2'       48.5720   57.3810   38.4620 O.3    47  C47        -0.2156
   1007  C1'       47.3280   57.8000   36.4810 C.3    47  C47         0.2420
   1008  N1        46.9550   59.1110   35.9390 N.ar   47  C47        -0.2535
   1009  C2        47.8780   60.1720   35.9630 C.ar   47  C47         0.3532
   1010  O2        49.0210   59.9760   36.4060 O.2    47  C47        -0.2443
   1011  N3        47.5000   61.3780   35.4690 N.ar   47  C47        -0.1739
   1012  C4        46.2450   61.5250   35.0060 C.ar   47  C47         0.1759
   1013  N4        45.8570   62.7190   34.5250 N.pl3  47  C47        -0.1070
   1014  C5        45.2950   60.4540   35.0050 C.ar   47  C47         0.0566
   1015  C6        45.6930   59.2770   35.4820 C.ar   47  C47         0.0850
   1016  OP1       42.1860   56.6160   35.1140 O.2    47  C47        -0.5172
   1017  OP2       41.5780   56.3830   37.5420 O.co2  47  C47        -0.4373
   1018  P         45.4630   57.8740   40.9900 P.3    48  C48         0.2141
   1019  C5'       47.8360   58.3760   41.8380 C.3    48  C48         0.1812
   1020  O5'       46.5820   58.9200   41.4560 O.3    48  C48        -0.3114
   1021  C4'       48.8650   59.4590   42.0610 C.3    48  C48         0.1773
   1022  O4'       49.3180   59.9890   40.7900 O.3    48  C48        -0.3307
   1023  C3'       48.3710   60.6920   42.8090 C.3    48  C48         0.1860
   1024  O3'       48.2970   60.5450   44.2170 O.3    48  C48        -0.3112
   1025  C2'       49.3570   61.7590   42.3740 C.3    48  C48         0.2309
   1026  O2'       50.6080   61.5450   43.0120 O.3    48  C48        -0.2156
   1027  C1'       49.4920   61.3840   40.9030 C.3    48  C48         0.2420
   1028  N1        48.4230   61.9420   40.0660 N.ar   48  C48        -0.2535
   1029  C2        48.5680   63.2410   39.6020 C.ar   48  C48         0.3532
   1030  O2        49.5790   63.8570   39.9690 O.2    48  C48        -0.2443
   1031  N3        47.5970   63.7660   38.8090 N.ar   48  C48        -0.1739
   1032  C4        46.5340   63.0220   38.4940 C.ar   48  C48         0.1759
   1033  N4        45.6050   63.5890   37.7160 N.pl3  48  C48        -0.1070
   1034  C5        46.3710   61.6840   38.9690 C.ar   48  C48         0.0566
   1035  C6        47.3380   61.1880   39.7420 C.ar   48  C48         0.0850
   1036  OP1       45.3010   56.9400   42.1270 O.3    48  C48        -0.4373
   1037  OP2       44.3080   58.6340   40.4270 O.co2  48  C48        -0.5172
   1038  P         47.0730   61.3280   44.8960 P.3    49  A49         0.2141
   1039  C5'       48.7210   63.2060   45.5300 C.3    49  A49         0.1812
   1040  O5'       47.5200   62.8630   44.8720 O.3    49  A49        -0.3114
   1041  C4'       48.9780   64.6670   45.3340 C.3    49  A49         0.1773
   1042  O4'       49.1030   64.9130   43.9160 O.3    49  A49        -0.3307
   1043  C3'       47.8390   65.5820   45.7390 C.3    49  A49         0.1860
   1044  O3'       47.7380   65.7710   47.1480 O.3    49  A49        -0.3112
   1045  C2'       48.1660   66.8320   44.9200 C.3    49  A49         0.2309
   1046  O2'       49.2700   67.5530   45.4450 O.3    49  A49        -0.2156
   1047  C1'       48.6110   66.1990   43.6000 C.3    49  A49         0.2408
   1048  N1        45.6560   68.8380   40.3720 N.ar   49  A49        -0.2040
   1049  C2        46.7160   69.1570   41.1180 C.ar   49  A49         0.2016
   1050  N3        47.4390   68.3950   41.9370 N.ar   49  A49        -0.2048
   1051  C4        46.9710   67.1480   41.9500 C.ar   49  A49         0.1692
   1052  C5        45.8960   66.6580   41.2430 C.ar   49  A49         0.1518
   1053  C6        45.2220   67.5700   40.4190 C.ar   49  A49         0.1919
   1054  N6        44.1760   67.2450   39.6730 N.pl3  49  A49        -0.1054
   1055  N7        45.7060   65.3110   41.5000 N.ar   49  A49        -0.2193
   1056  C8        46.6680   65.0220   42.3620 C.ar   49  A49         0.1816
   1057  N9        47.4710   66.0960   42.6660 N.ar   49  A49        -0.2693
   1058  OP1       47.0700   60.9250   46.3190 O.3    49  A49        -0.4373
   1059  OP2       45.8470   61.2540   44.0570 O.co2  49  A49        -0.5172
   1060  P         46.3900   65.6370   48.0270 P.3    50  G50         0.2141
   1061  C5'       46.2270   68.2050   47.6100 C.3    50  G50         0.1812
   1062  O5'       45.5830   66.9390   47.5620 O.3    50  G50        -0.3114
   1063  C4'       45.3560   69.2740   47.0090 C.3    50  G50         0.1773
   1064  O4'       45.5140   69.2890   45.5590 O.3    50  G50        -0.3307
   1065  C3'       43.8610   69.0610   47.1990 C.3    50  G50         0.1860
   1066  O3'       43.3810   69.3660   48.5010 O.3    50  G50        -0.3112
   1067  C2'       43.2760   69.9170   46.0820 C.3    50  G50         0.2309
   1068  O2'       43.2780   71.2940   46.4290 O.3    50  G50        -0.2156
   1069  C1'       44.2850   69.6420   44.9460 C.3    50  G50         0.2408
   1070  N1        41.4420   68.4610   40.8840 N.ar   50  G50        -0.1709
   1071  C2        41.8510   69.6960   41.3220 C.ar   50  G50         0.2606
   1072  N2        41.4350   70.7520   40.5990 N.pl3  50  G50        -0.0859
   1073  N3        42.6200   69.8670   42.3950 N.ar   50  G50        -0.1918
   1074  C4        42.9400   68.6930   43.0020 C.ar   50  G50         0.1723
   1075  C5        42.5750   67.4210   42.6390 C.ar   50  G50         0.1748
   1076  C6        41.7670   67.2540   41.5020 C.ar   50  G50         0.3023
   1077  O6        41.3530   66.1870   41.0430 O.2    50  G50        -0.2633
   1078  N7        43.0880   66.4620   43.5000 N.ar   50  G50        -0.2173
   1079  C8        43.7500   67.1720   44.3720 C.ar   50  G50         0.1817
   1080  N9        43.7370   68.5370   44.1180 N.ar   50  G50        -0.2693
   1081  OP1       46.7630   65.8950   49.4380 O.3    50  G50        -0.4373
   1082  OP2       45.6250   64.4080   47.7240 O.co2  50  G50        -0.5172
   1083  P         42.3680   68.3410   49.2260 P.3    51  A51         0.2141
   1084  C5'       39.9340   67.5810   48.4920 C.3    51  A51         0.1812
   1085  O5'       41.1290   68.3010   48.2140 O.3    51  A51        -0.3114
   1086  C4'       38.7130   68.3930   48.1300 C.3    51  A51         0.1773
   1087  O4'       38.6770   69.5850   48.9510 O.3    51  A51        -0.3307
   1088  C3'       38.6650   68.9240   46.7070 C.3    51  A51         0.1860
   1089  O3'       38.1510   67.9800   45.7840 O.3    51  A51        -0.3112
   1090  C2'       37.8360   70.2030   46.7980 C.3    51  A51         0.2309
   1091  O2'       36.4470   69.9330   46.6430 O.3    51  A51        -0.2156
   1092  C1'       38.1250   70.6650   48.2310 C.3    51  A51         0.2408
   1093  N1        38.7340   75.6610   47.2890 N.ar   51  A51        -0.2040
   1094  C2        37.7150   74.8150   47.0780 C.ar   51  A51         0.2016
   1095  N3        37.6380   73.5140   47.3620 N.ar   51  A51        -0.2048
   1096  C4        38.7840   73.0820   47.9150 C.ar   51  A51         0.1692
   1097  C5        39.9290   73.8150   48.1890 C.ar   51  A51         0.1518
   1098  C6        39.8870   75.1870   47.8320 C.ar   51  A51         0.1919
   1099  N6        40.9090   76.0280   48.0460 N.pl3  51  A51        -0.1054
   1100  N7        40.9080   73.0010   48.7660 N.ar   51  A51        -0.2193
   1101  C8        40.3420   71.8150   48.8240 C.ar   51  A51         0.1816
   1102  N9        39.0610   71.8010   48.3210 N.ar   51  A51        -0.2693
   1103  OP1       41.8210   69.0320   50.4120 O.3    51  A51        -0.4373
   1104  OP2       42.9630   66.9860   49.3630 O.co2  51  A51        -0.5172
   1105  P         38.7530   67.9780   44.2990 P.3    52  A52         0.2141
   1106  C5'       37.9760   69.5920   42.3280 C.3    52  A52         0.1812
   1107  O5'       37.6830   68.8970   43.5300 O.3    52  A52        -0.3114
   1108  C4'       37.3430   70.9590   42.3280 C.3    52  A52         0.1773
   1109  O4'       37.5830   71.5730   43.6210 O.3    52  A52        -0.3307
   1110  C3'       37.9010   71.9550   41.3130 C.3    52  A52         0.1860
   1111  O3'       37.3220   71.8630   40.0140 O.3    52  A52        -0.3112
   1112  C2'       37.6550   73.3010   41.9790 C.3    52  A52         0.2309
   1113  O2'       36.3120   73.7140   41.7470 O.3    52  A52        -0.2156
   1114  C1'       37.8360   72.9490   43.4590 C.3    52  A52         0.2408
   1115  N1        41.4680   76.4490   44.8090 N.ar   52  A52        -0.2040
   1116  C2        40.2420   76.6140   44.2930 C.ar   52  A52         0.2016
   1117  N3        39.3500   75.6710   43.9570 N.ar   52  A52        -0.2048
   1118  C4        39.8210   74.4230   44.2020 C.ar   52  A52         0.1692
   1119  C5        41.0620   74.1090   44.7250 C.ar   52  A52         0.1518
   1120  C6        41.9130   75.1910   45.0410 C.ar   52  A52         0.1919
   1121  N6        43.1350   75.0360   45.5540 N.pl3  52  A52        -0.1054
   1122  N7        41.2040   72.7380   44.8410 N.ar   52  A52        -0.2193
   1123  C8        40.0750   72.2480   44.3890 C.ar   52  A52         0.1816
   1124  N9        39.1950   73.2050   43.9750 N.ar   52  A52        -0.2693
   1125  OP1       38.5820   66.6210   43.7330 O.2    52  A52        -0.5172
   1126  OP2       40.1020   68.5950   44.3500 O.co2  52  A52        -0.4373
   1127  P         38.1550   72.1790   38.6620 P.3    53  A53         0.2141
   1128  C5'       37.8330   74.7390   38.1770 C.3    53  A53         0.1812
   1129  O5'       38.1570   73.7210   39.1100 O.3    53  A53        -0.3114
   1130  C4'       38.6710   75.9770   38.3850 C.3    53  A53         0.1773
   1131  O4'       38.9940   76.1480   39.7890 O.3    53  A53        -0.3307
   1132  C3'       40.0240   75.9810   37.6960 C.3    53  A53         0.1860
   1133  O3'       39.9250   76.3300   36.3320 O.3    53  A53        -0.3112
   1134  C2'       40.8270   76.9760   38.5180 C.3    53  A53         0.2309
   1135  O2'       40.4510   78.3060   38.1820 O.3    53  A53        -0.2156
   1136  C1'       40.3140   76.6360   39.9170 C.3    53  A53         0.2408
   1137  N1        44.5870   75.2800   42.4860 N.ar   53  A53        -0.2040
   1138  C2        44.1190   76.4800   42.0890 C.ar   53  A53         0.2016
   1139  N3        42.9930   76.7680   41.4250 N.ar   53  A53        -0.2048
   1140  C4        42.3040   75.6430   41.1600 C.ar   53  A53         0.1692
   1141  C5        42.6510   74.3420   41.4970 C.ar   53  A53         0.1518
   1142  C6        43.8680   74.1630   42.2070 C.ar   53  A53         0.1919
   1143  N6        44.3340   72.9630   42.5930 N.pl3  53  A53        -0.1054
   1144  N7        41.6830   73.4520   41.0410 N.ar   53  A53        -0.2193
   1145  C8        40.7910   74.2160   40.4560 C.ar   53  A53         0.1816
   1146  N9        41.1090   75.5430   40.4890 N.ar   53  A53        -0.2693
   1147  OP1       36.8790   71.9190   37.9420 O.2    53  A53        -0.5172
   1148  OP2       39.1520   71.2560   39.2750 O.co2  53  A53        -0.4373
   1149  P         40.4350   75.2380   35.2990 P.3    54  U54         0.2141
   1150  C5'       42.8990   76.2050   35.7650 C.3    54  U54         0.1812
   1151  O5'       42.0090   75.1030   35.6160 O.3    54  U54        -0.3114
   1152  C4'       44.0070   75.8720   36.7360 C.3    54  U54         0.1773
   1153  O4'       43.4330   75.1400   37.8510 O.3    54  U54        -0.3307
   1154  C3'       45.1150   74.9450   36.2380 C.3    54  U54         0.1860
   1155  O3'       46.1310   75.5820   35.4780 O.3    54  U54        -0.3112
   1156  C2'       45.6410   74.3090   37.5200 C.3    54  U54         0.2309
   1157  O2'       46.5170   75.1810   38.2260 O.3    54  U54        -0.2156
   1158  C1'       44.3520   74.1720   38.3200 C.3    54  U54         0.2420
   1159  N1        43.7880   72.8110   38.1910 N.ar   54  U54        -0.2534
   1160  C2        44.4810   71.7830   38.7910 C.ar   54  U54         0.3546
   1161  O2        45.5200   71.9500   39.3960 O.2    54  U54        -0.2443
   1162  N3        43.9290   70.5380   38.6610 N.ar   54  U54        -0.1530
   1163  C4        42.7630   70.2340   37.9930 C.ar   54  U54         0.2846
   1164  O4        42.3880   69.0660   37.9560 O.2    54  U54        -0.2650
   1165  C5        42.0890   71.3620   37.3850 C.ar   54  U54         0.0814
   1166  C6        42.6150   72.5910   37.4990 C.ar   54  U54         0.0870
   1167  OP1       40.3540   75.8370   33.9490 O.2    54  U54        -0.5172
   1168  OP2       39.7420   73.9610   35.6010 O.co2  54  U54        -0.4373
   1169  P         47.0340   74.7130   34.4560 P.3    55  G55         0.2141
   1170  C5'       48.8040   74.5610   36.3150 C.3    55  G55         0.1812
   1171  O5'       48.0110   73.8500   35.3840 O.3    55  G55        -0.3114
   1172  C4'       49.5380   73.6180   37.2230 C.3    55  G55         0.1773
   1173  O4'       48.6060   72.8520   38.0300 O.3    55  G55        -0.3307
   1174  C3'       50.3380   72.5510   36.5080 C.3    55  G55         0.1860
   1175  O3'       51.5600   73.0410   35.9940 O.3    55  G55        -0.3112
   1176  C2'       50.4990   71.4830   37.5860 C.3    55  G55         0.2309
   1177  O2'       51.4940   71.8630   38.5210 O.3    55  G55        -0.2156
   1178  C1'       49.1460   71.5670   38.2930 C.3    55  G55         0.2408
   1179  N1        47.7140   66.6000   38.2340 N.ar   55  G55        -0.1709
   1180  C2        48.7990   67.1730   38.8420 C.ar   55  G55         0.2606
   1181  N2        49.5930   66.3280   39.5070 N.pl3  55  G55        -0.0859
   1182  N3        49.0840   68.4720   38.8050 N.ar   55  G55        -0.1918
   1183  C4        48.1770   69.1710   38.0820 C.ar   55  G55         0.1723
   1184  C5        47.0610   68.6820   37.4360 C.ar   55  G55         0.1748
   1185  C6        46.7690   67.2960   37.4870 C.ar   55  G55         0.3023
   1186  O6        45.8130   66.6890   36.9670 O.2    55  G55        -0.2633
   1187  N7        46.3760   69.7120   36.7940 N.ar   55  G55        -0.2173
   1188  C8        47.0720   70.7870   37.0640 C.ar   55  G55         0.1817
   1189  N9        48.1830   70.5390   37.8390 N.ar   55  G55        -0.2693
   1190  OP1       47.9660   75.6200   33.7390 O.3    55  G55        -0.4373
   1191  OP2       46.1350   73.7830   33.7270 O.co2  55  G55        -0.5172
   1192  P         52.2500   72.1470   34.8700 P.3    56  G56         0.2141
   1193  C5'       53.8430   70.5140   36.1130 C.3    56  G56         0.1812
   1194  O5'       52.5610   70.7280   35.5440 O.3    56  G56        -0.3114
   1195  C4'       54.0010   69.1090   36.6300 C.3    56  G56         0.1773
   1196  O4'       52.7680   68.6870   37.2690 O.3    56  G56        -0.3307
   1197  C3'       54.2620   68.0340   35.5910 C.3    56  G56         0.1860
   1198  O3'       55.6230   67.9240   35.2240 O.3    56  G56        -0.3112
   1199  C2'       53.7590   66.7710   36.2700 C.3    56  G56         0.2309
   1200  O2'       54.7610   66.1930   37.0920 O.3    56  G56        -0.2156
   1201  C1'       52.6120   67.2930   37.1370 C.3    56  G56         0.2408
   1202  N1        49.0710   63.8360   35.7820 N.ar   56  G56        -0.1709
   1203  C2        50.2430   63.6450   36.4890 C.ar   56  G56         0.2606
   1204  N2        50.5060   62.3850   36.8690 N.pl3  56  G56        -0.0859
   1205  N3        51.1070   64.6120   36.7940 N.ar   56  G56        -0.1918
   1206  C4        50.6910   65.8140   36.3330 C.ar   56  G56         0.1723
   1207  C5        49.5410   66.1000   35.6220 C.ar   56  G56         0.1748
   1208  C6        48.6460   65.0700   35.3050 C.ar   56  G56         0.3023
   1209  O6        47.5890   65.1960   34.7020 O.2    56  G56        -0.2633
   1210  N7        49.4500   67.4550   35.3220 N.ar   56  G56        -0.2173
   1211  C8        50.5380   67.9670   35.8490 C.ar   56  G56         0.1817
   1212  N9        51.3250   67.0320   36.4840 N.ar   56  G56        -0.2693
   1213  OP1       53.5870   72.6880   34.5250 O.3    56  G56        -0.4373
   1214  OP2       51.2160   71.8850   33.8500 O.co2  56  G56        -0.5172
   1215  P         56.0480   68.1970   33.7020 P.3    57  U57         0.2141
   1216  C5'       54.3460   66.3250   32.8410 C.3    57  U57         0.1812
   1217  O5'       55.6520   66.8800   32.8760 O.3    57  U57        -0.3114
   1218  C4'       54.3680   64.8820   33.2690 C.3    57  U57         0.1773
   1219  O4'       53.1570   64.5860   34.0030 O.3    57  U57        -0.3307
   1220  C3'       54.3830   63.8290   32.1770 C.3    57  U57         0.1860
   1221  O3'       55.6540   63.6280   31.5780 O.3    57  U57        -0.3112
   1222  C2'       53.8600   62.6080   32.9330 C.3    57  U57         0.2309
   1223  O2'       54.8460   62.0220   33.7700 O.3    57  U57        -0.2156
   1224  C1'       52.8100   63.2380   33.8360 C.3    57  U57         0.2420
   1225  N1        51.4920   63.2940   33.2440 N.ar   57  U57        -0.2534
   1226  C2        50.7210   62.1380   33.1800 C.ar   57  U57         0.3546
   1227  O2        51.0920   61.0500   33.5960 O.2    57  U57        -0.2443
   1228  N3        49.4870   62.3100   32.6100 N.ar   57  U57        -0.1530
   1229  C4        49.0000   63.5050   32.1100 C.ar   57  U57         0.2846
   1230  O4        47.8760   63.4990   31.6370 O.2    57  U57        -0.2650
   1231  C5        49.8630   64.6690   32.2100 C.ar   57  U57         0.0814
   1232  C6        51.0670   64.5200   32.7670 C.ar   57  U57         0.0870
   1233  OP1       57.5300   68.1620   33.6820 O.3    57  U57        -0.4373
   1234  OP2       55.3300   69.3910   33.1860 O.co2  57  U57        -0.5172
   1235  P         55.8310   63.2930   29.9960 P.3    58  G58         0.2141
   1236  C5'       54.7850   60.9100   29.9590 C.3    58  G58         0.1812
   1237  O5'       54.6450   62.2800   29.6130 O.3    58  G58        -0.3114
   1238  C4'       53.4770   60.1860   29.8100 C.3    58  G58         0.1773
   1239  O4'       52.4450   60.8860   30.5490 O.3    58  G58        -0.3307
   1240  C3'       52.9020   60.1330   28.3970 C.3    58  G58         0.1860
   1241  O3'       53.5060   59.1530   27.5890 O.3    58  G58        -0.3112
   1242  C2'       51.4400   59.8270   28.6710 C.3    58  G58         0.2309
   1243  O2'       51.2890   58.4820   29.1120 O.3    58  G58        -0.2156
   1244  C1'       51.2120   60.7550   29.8640 C.3    58  G58         0.2408
   1245  N1        47.3440   63.2320   27.9080 N.ar   58  G58        -0.1709
   1246  C2        47.5020   61.9020   28.1970 C.ar   58  G58         0.2606
   1247  N2        46.4600   61.0910   27.9320 N.pl3  58  G58        -0.0859
   1248  N3        48.5990   61.3920   28.7170 N.ar   58  G58        -0.1918
   1249  C4        49.5240   62.3380   28.9060 C.ar   58  G58         0.1723
   1250  C5        49.4790   63.6770   28.6440 C.ar   58  G58         0.1748
   1251  C6        48.3000   64.2130   28.0970 C.ar   58  G58         0.3023
   1252  O6        48.0390   65.3840   27.7970 O.2    58  G58        -0.2633
   1253  N7        50.6710   64.2820   29.0050 N.ar   58  G58        -0.2173
   1254  C8        51.4030   63.2960   29.4650 C.ar   58  G58         0.1817
   1255  N9        50.7500   62.0870   29.4310 N.ar   58  G58        -0.2693
   1256  OP1       57.0410   62.4510   29.8480 O.3    58  G58        -0.4373
   1257  OP2       55.7150   64.5730   29.2480 O.co2  58  G58        -0.5172
   1258  P         54.1270   59.4680   26.1680 P.3    59  C59         0.2141
   1259  C5'       52.1630   58.0510   25.3370 C.3    59  C59         0.1812
   1260  O5'       52.8330   59.2990   25.2530 O.3    59  C59        -0.3114
   1261  C4'       50.7130   58.2220   25.0010 C.3    59  C59         0.1773
   1262  O4'       50.1130   59.1450   25.9460 O.3    59  C59        -0.3307
   1263  C3'       50.4770   58.8920   23.6670 C.3    59  C59         0.1860
   1264  O3'       50.5830   57.9810   22.5970 O.3    59  C59        -0.3112
   1265  C2'       49.0920   59.4950   23.8380 C.3    59  C59         0.2309
   1266  O2'       48.0990   58.4880   23.7720 O.3    59  C59        -0.2156
   1267  C1'       49.1760   59.9630   25.2800 C.3    59  C59         0.2420
   1268  N1        49.6480   61.3180   25.3510 N.ar   59  C59        -0.2535
   1269  C2        48.7340   62.3000   25.0840 C.ar   59  C59         0.3532
   1270  O2        47.6060   61.9120   24.8210 O.2    59  C59        -0.2443
   1271  N3        49.1080   63.6020   25.1360 N.ar   59  C59        -0.1739
   1272  C4        50.3700   63.9180   25.4620 C.ar   59  C59         0.1759
   1273  N4        50.7040   65.2240   25.5200 N.pl3  59  C59        -0.1070
   1274  C5        51.3320   62.8870   25.7390 C.ar   59  C59         0.0566
   1275  C6        50.9320   61.6090   25.6680 C.ar   59  C59         0.0850
   1276  OP1       54.9260   58.2500   25.9030 O.2    59  C59        -0.5172
   1277  OP2       54.7140   60.8220   26.0220 O.co2  59  C59        -0.4373
   1278  P         51.2930   58.3790   21.2220 P.3    60  C60         0.2141
   1279  C5'       48.8710   58.5750   20.2440 C.3    60  C60         0.1812
   1280  O5'       50.1530   59.1620   20.4080 O.3    60  C60        -0.3114
   1281  C4'       47.8530   59.5160   19.6470 C.3    60  C60         0.1773
   1282  O4'       47.4890   60.5270   20.6130 O.3    60  C60        -0.3307
   1283  C3'       48.2580   60.2910   18.3910 C.3    60  C60         0.1860
   1284  O3'       48.0640   59.5490   17.1850 O.3    60  C60        -0.3112
   1285  C2'       47.3710   61.5220   18.4510 C.3    60  C60         0.2309
   1286  O2'       46.0860   61.2080   17.9360 O.3    60  C60        -0.2156
   1287  C1'       47.2440   61.7470   19.9570 C.3    60  C60         0.2420
   1288  N1        48.1990   62.6870   20.5410 N.ar   60  C60        -0.2535
   1289  C2        47.9120   64.0360   20.4750 C.ar   60  C60         0.3532
   1290  O2        46.8780   64.3590   19.8860 O.2    60  C60        -0.2443
   1291  N3        48.7660   64.9200   21.0370 N.ar   60  C60        -0.1739
   1292  C4        49.8580   64.4740   21.6550 C.ar   60  C60         0.1759
   1293  N4        50.6980   65.3610   22.1960 N.pl3  60  C60        -0.1070
   1294  C5        50.1590   63.0870   21.7380 C.ar   60  C60         0.0566
   1295  C6        49.3060   62.2280   21.1780 C.ar   60  C60         0.0850
   1296  OP1       51.4100   57.0430   20.6120 O.2    60  C60        -0.5172
   1297  OP2       52.5080   59.2290   21.3280 O.co2  60  C60        -0.4373
   1298  P         49.0630   59.6090   15.9270 P.3    61  A61         0.2141
   1299  C5'       47.9850   57.2400   15.3650 C.3    61  A61         0.1812
   1300  O5'       48.4730   58.4980   14.9410 O.3    61  A61        -0.3114
   1301  C4'       47.3530   56.4880   14.2210 C.3    61  A61         0.1773
   1302  O4'       48.2140   56.5080   13.0550 O.3    61  A61        -0.3307
   1303  C3'       47.1100   55.0130   14.4750 C.3    61  A61         0.1860
   1304  O3'       45.9200   54.7910   15.2060 O.3    61  A61        -0.3112
   1305  C2'       47.0310   54.4460   13.0720 C.3    61  A61         0.2309
   1306  O2'       45.7450   54.7230   12.5530 O.3    61  A61        -0.2156
   1307  C1'       48.0280   55.3210   12.3220 C.3    61  A61         0.2408
   1308  N1        50.2060   51.5210    9.8350 N.ar   61  A61        -0.2040
   1309  C2        48.9470   51.9620    9.8720 C.ar   61  A61         0.2016
   1310  N3        48.4790   52.9870   10.5740 N.ar   61  A61        -0.2048
   1311  C4        49.4650   53.5720   11.2920 C.ar   61  A61         0.1692
   1312  C5        50.8060   53.2390   11.3620 C.ar   61  A61         0.1518
   1313  C6        51.1710   52.1320   10.5560 C.ar   61  A61         0.1919
   1314  N6        52.4020   51.6280   10.4830 N.pl3  61  A61        -0.1054
   1315  N7        51.4820   54.1030   12.2290 N.ar   61  A61        -0.2193
   1316  C8        50.5430   54.9230   12.6480 C.ar   61  A61         0.1816
   1317  N9        49.3150   54.6450   12.1240 N.ar   61  A61        -0.2693
   1318  OP1       50.4360   59.2480   16.3430 O.3    61  A61        -0.4373
   1319  OP2       48.8310   60.8770   15.1930 O.co2  61  A61        -0.5172
   1320  P         45.8760   53.6210   16.2820 P.3    62  A62         0.2141
   1321  C5'       44.5630   51.9950   14.6730 C.3    62  A62         0.1812
   1322  O5'       45.6910   52.2440   15.4930 O.3    62  A62        -0.3114
   1323  C4'       44.8540   50.8350   13.7670 C.3    62  A62         0.1773
   1324  O4'       45.9900   51.1830   12.9430 O.3    62  A62        -0.3307
   1325  C3'       45.2680   49.5450   14.4510 C.3    62  A62         0.1860
   1326  O3'       44.1430   48.7740   14.8300 O.3    62  A62        -0.3112
   1327  C2'       46.1290   48.8650   13.3970 C.3    62  A62         0.2309
   1328  O2'       45.3050   48.2160   12.4420 O.3    62  A62        -0.2156
   1329  C1'       46.7860   50.0550   12.7010 C.3    62  A62         0.2408
   1330  N1        51.7960   49.0520   12.1140 N.ar   62  A62        -0.2040
   1331  C2        50.7020   48.5720   11.5200 C.ar   62  A62         0.2016
   1332  N3        49.4320   48.8840   11.7390 N.ar   62  A62        -0.2048
   1333  C4        49.3200   49.8190   12.6930 C.ar   62  A62         0.1692
   1334  C5        50.3480   50.4230   13.3970 C.ar   62  A62         0.1518
   1335  C6        51.6620   50.0040   13.0740 C.ar   62  A62         0.1919
   1336  N6        52.7580   50.4950   13.6800 N.pl3  62  A62        -0.1054
   1337  N7        49.8250   51.3420   14.2950 N.ar   62  A62        -0.2193
   1338  C8        48.5230   51.2730   14.1070 C.ar   62  A62         0.1816
   1339  N9        48.1480   50.3610   13.1660 N.ar   62  A62        -0.2693
   1340  OP1       44.5950   53.8020   17.0010 O.3    62  A62        -0.4373
   1341  OP2       47.1950   53.5520   16.9570 O.co2  62  A62        -0.5172
   1342  P         44.2930   47.4270   15.6710 P.3    63  U63         0.2141
   1343  C5'       43.6070   48.4530   18.0400 C.3    63  U63         0.1812
   1344  O5'       44.6150   48.0780   17.1030 O.3    63  U63        -0.3114
   1345  C4'       43.9910   47.9100   19.3850 C.3    63  U63         0.1773
   1346  O4'       43.5710   46.5390   19.4220 O.3    63  U63        -0.3307
   1347  C3'       45.4940   47.8970   19.5480 C.3    63  U63         0.1860
   1348  O3'       45.9810   48.9110   20.4250 O.3    63  U63        -0.3112
   1349  C2'       45.9110   46.4670   19.8700 C.3    63  U63         0.2309
   1350  O2'       46.5790   46.3800   21.1130 O.3    63  U63        -0.2156
   1351  C1'       44.5880   45.7100   19.9140 C.3    63  U63         0.2420
   1352  N1        44.4580   44.4060   19.2220 N.ar   63  U63        -0.2534
   1353  C2        44.4660   43.2610   19.9990 C.ar   63  U63         0.3546
   1354  O2        44.5890   43.2610   21.2100 O.2    63  U63        -0.2443
   1355  N3        44.3290   42.0800   19.3220 N.ar   63  U63        -0.1530
   1356  C4        44.1670   41.9190   17.9680 C.ar   63  U63         0.2846
   1357  O4        44.0560   40.7720   17.5350 O.2    63  U63        -0.2650
   1358  C5        44.1560   43.1640   17.2260 C.ar   63  U63         0.0814
   1359  C6        44.2860   44.3400   17.8580 C.ar   63  U63         0.0870
   1360  OP1       45.5240   46.6700   15.3240 O.2    63  U63        -0.5172
   1361  OP2       42.9680   46.7670   15.7150 O.co2  63  U63        -0.4373
   1362  P         45.5770   49.4670   21.8870 P.3    64  U64         0.2141
   1363  C5'       48.1090   49.9060   22.0990 C.3    64  U64         0.1812
   1364  O5'       47.0060   49.1210   22.5170 O.3    64  U64        -0.3114
   1365  C4'       49.4610   49.2140   22.0100 C.3    64  U64         0.1773
   1366  O4'       49.9460   48.6810   23.2760 O.3    64  U64        -0.3307
   1367  C3'       49.6620   48.1000   20.9850 C.3    64  U64         0.1860
   1368  O3'       50.9190   48.3270   20.3630 O.3    64  U64        -0.3112
   1369  C2'       49.8430   46.8580   21.8350 C.3    64  U64         0.2309
   1370  O2'       50.6040   45.8410   21.2190 O.3    64  U64        -0.2156
   1371  C1'       50.6160   47.4740   22.9840 C.3    64  U64         0.2420
   1372  N1        50.6730   46.6080   24.1220 N.ar   64  U64        -0.2534
   1373  C2        51.8270   45.8870   24.3130 C.ar   64  U64         0.3546
   1374  O2        52.7700   45.9900   23.5460 O.2    64  U64        -0.2443
   1375  N3        51.8220   45.0700   25.4140 N.ar   64  U64        -0.1530
   1376  C4        50.7690   44.9240   26.3090 C.ar   64  U64         0.2846
   1377  O4        50.8660   44.1670   27.2810 O.2    64  U64        -0.2650
   1378  C5        49.6020   45.7300   26.0200 C.ar   64  U64         0.0814
   1379  C6        49.5810   46.5240   24.9430 C.ar   64  U64         0.0870
   1380  OP1       44.5860   48.7140   22.6650 O.3    64  U64        -0.4373
   1381  OP2       45.4510   50.9380   21.8160 O.co2  64  U64        -0.5172
   1382  P         50.9990   49.4940   19.3080 P.3    65  C65         0.2141
   1383  C5'       48.9350   48.6980   17.9150 C.3    65  C65         0.1812
   1384  O5'       50.3520   48.7460   18.0490 O.3    65  C65        -0.3114
   1385  C4'       48.5030   47.7030   16.8730 C.3    65  C65         0.1773
   1386  O4'       49.0840   48.1350   15.6150 O.3    65  C65        -0.3307
   1387  C3'       49.0110   46.2840   17.0790 C.3    65  C65         0.1860
   1388  O3'       48.0250   45.3980   17.5840 O.3    65  C65        -0.3112
   1389  C2'       49.5170   45.8130   15.7070 C.3    65  C65         0.2309
   1390  O2'       48.6710   44.9290   14.9900 O.3    65  C65        -0.2156
   1391  C1'       49.6740   47.0730   14.8880 C.3    65  C65         0.2420
   1392  N1        51.1800   47.1330   14.8020 N.ar   65  C65        -0.2535
   1393  C2        51.8500   46.1960   13.9900 C.ar   65  C65         0.3532
   1394  O2        51.2100   45.3700   13.3420 O.2    65  C65        -0.2443
   1395  N3        53.2000   46.2010   13.9080 N.ar   65  C65        -0.1739
   1396  C4        53.9020   47.0780   14.6050 C.ar   65  C65         0.1759
   1397  N4        55.2250   47.0350   14.4760 N.pl3  65  C65        -0.1070
   1398  C5        53.2610   48.0340   15.4530 C.ar   65  C65         0.0566
   1399  C6        51.9190   48.0220   15.5390 C.ar   65  C65         0.0850
   1400  OP1       52.4250   49.6980   18.9720 O.2    65  C65        -0.5172
   1401  OP2       50.1050   50.6250   19.6270 O.co2  65  C65        -0.4373
   1402  P         48.6790   44.3090   18.5550 P.3    66  C66         0.2141
   1403  C5'       48.1780   42.4560   16.7280 C.3    66  C66         0.1812
   1404  O5'       49.0950   43.0760   17.6240 O.3    66  C66        -0.3114
   1405  C4'       48.9000   41.5330   15.7830 C.3    66  C66         0.1773
   1406  O4'       49.8500   42.2960   15.0120 O.3    66  C66        -0.3307
   1407  C3'       49.7650   40.4830   16.4490 C.3    66  C66         0.1860
   1408  O3'       49.0310   39.3490   16.8690 O.3    66  C66        -0.3112
   1409  C2'       50.8450   40.1790   15.4220 C.3    66  C66         0.2309
   1410  O2'       50.3730   39.2770   14.4440 O.3    66  C66        -0.2156
   1411  C1'       51.0070   41.5330   14.7620 C.3    66  C66         0.2420
   1412  N1        52.2030   42.2470   15.2170 N.ar   66  C66        -0.2535
   1413  C2        53.4060   41.7690   14.7300 C.ar   66  C66         0.3532
   1414  O2        53.3430   40.7990   13.9890 O.2    66  C66        -0.2443
   1415  N3        54.5710   42.3660   15.0790 N.ar   66  C66        -0.1739
   1416  C4        54.5460   43.4210   15.8900 C.ar   66  C66         0.1759
   1417  N4        55.7170   43.9770   16.2070 N.pl3  66  C66        -0.1070
   1418  C5        53.3170   43.9390   16.4000 C.ar   66  C66         0.0566
   1419  C6        52.1710   43.3340   16.0490 C.ar   66  C66         0.0850
   1420  OP1       47.6350   43.8010   19.4770 O.3    66  C66        -0.4373
   1421  OP2       49.9570   44.8460   19.0440 O.co2  66  C66        -0.5172
   1422  P         49.4750   38.5980   18.2090 P.3    67  U67         0.2141
   1423  C5'       51.0550   36.7910   17.1910 C.3    67  U67         0.1812
   1424  O5'       50.9270   38.0520   17.8280 O.3    67  U67        -0.3114
   1425  C4'       52.4860   36.5570   16.8040 C.3    67  U67         0.1773
   1426  O4'       53.0190   37.8260   16.3570 O.3    67  U67        -0.3307
   1427  C3'       53.4340   36.1120   17.9140 C.3    67  U67         0.1860
   1428  O3'       53.4180   34.7030   18.1600 O.3    67  U67        -0.3112
   1429  C2'       54.7780   36.6670   17.4510 C.3    67  U67         0.2309
   1430  O2'       55.4180   35.7940   16.5370 O.3    67  U67        -0.2156
   1431  C1'       54.3860   37.9260   16.6780 C.3    67  U67         0.2420
   1432  N1        54.6240   39.2320   17.3280 N.ar   67  U67        -0.2534
   1433  C2        55.8740   39.7930   17.2480 C.ar   67  U67         0.3546
   1434  O2        56.7920   39.2390   16.6900 O.2    67  U67        -0.2443
   1435  N3        56.0130   41.0130   17.8480 N.ar   67  U67        -0.1530
   1436  C4        55.0140   41.7060   18.4990 C.ar   67  U67         0.2846
   1437  O4        55.2490   42.7930   18.9930 O.2    67  U67        -0.2650
   1438  C5        53.7320   41.0680   18.5440 C.ar   67  U67         0.0814
   1439  C6        53.5840   39.8770   17.9620 C.ar   67  U67         0.0870
   1440  OP1       48.6400   37.3820   18.3410 O.2    67  U67        -0.5172
   1441  OP2       49.6160   39.5790   19.3090 O.co2  67  U67        -0.4373
   1442  P         53.5450   33.9500   19.5890 P.3    68  G68         0.2141
   1443  C5'       55.9300   32.8170   19.6360 C.3    68  G68         0.1812
   1444  O5'       54.8140   33.2720   18.8850 O.3    68  G68        -0.3114
   1445  C4'       57.1560   33.5630   19.1990 C.3    68  G68         0.1773
   1446  O4'       56.7770   34.9450   19.0540 O.3    68  G68        -0.3307
   1447  C3'       58.3470   33.5690   20.1540 C.3    68  G68         0.1860
   1448  O3'       59.2310   32.4800   19.9060 O.3    68  G68        -0.3112
   1449  C2'       59.0050   34.9380   19.9540 C.3    68  G68         0.2309
   1450  O2'       60.0170   34.8790   18.9540 O.3    68  G68        -0.2156
   1451  C1'       57.8730   35.7730   19.3600 C.3    68  G68         0.2408
   1452  N1        59.0100   40.5320   20.7630 N.ar   68  G68        -0.1709
   1453  C2        59.7780   39.6070   20.1020 C.ar   68  G68         0.2606
   1454  N2        61.0120   39.9960   19.7490 N.pl3  68  G68        -0.0859
   1455  N3        59.3650   38.3860   19.8010 N.ar   68  G68        -0.1918
   1456  C4        58.1060   38.1580   20.2260 C.ar   68  G68         0.1723
   1457  C5        57.2540   39.0120   20.8910 C.ar   68  G68         0.1748
   1458  C6        57.7070   40.3170   21.1960 C.ar   68  G68         0.3023
   1459  O6        57.1030   41.2200   21.7950 O.2    68  G68        -0.2633
   1460  N7        56.0300   38.3920   21.1480 N.ar   68  G68        -0.2173
   1461  C8        56.1740   37.1920   20.6460 C.ar   68  G68         0.1817
   1462  N9        57.4200   36.9730   20.0910 N.ar   68  G68        -0.2693
   1463  OP1       52.3160   33.1940   19.2450 O.2    68  G68        -0.5172
   1464  OP2       53.6870   35.3080   20.1660 O.co2  68  G68        -0.4373
   1465  P         59.1170   31.0420   20.6260 P.3    69  C69         0.2141
   1466  C5'       59.9760   30.6900   23.1060 C.3    69  C69         0.1812
   1467  O5'       59.1380   31.3980   22.1950 O.3    69  C69        -0.3114
   1468  C4'       59.2830   30.3220   24.4000 C.3    69  C69         0.1773
   1469  O4'       58.7500   31.5070   25.0440 O.3    69  C69        -0.3307
   1470  C3'       58.0730   29.4140   24.2520 C.3    69  C69         0.1860
   1471  O3'       58.4120   28.0470   24.1010 O.3    69  C69        -0.3112
   1472  C2'       57.2270   29.7330   25.4820 C.3    69  C69         0.2309
   1473  O2'       57.7230   29.1260   26.6640 O.3    69  C69        -0.2156
   1474  C1'       57.4750   31.2310   25.6000 C.3    69  C69         0.2420
   1475  N1        56.3930   31.9240   24.8530 N.ar   69  C69        -0.2535
   1476  C2        55.0860   31.8820   25.3460 C.ar   69  C69         0.3532
   1477  O2        54.8570   31.2990   26.4060 O.2    69  C69        -0.2443
   1478  N3        54.1070   32.4990   24.6450 N.ar   69  C69        -0.1739
   1479  C4        54.3920   33.1210   23.5050 C.ar   69  C69         0.1759
   1480  N4        53.3810   33.7110   22.8750 N.pl3  69  C69        -0.1070
   1481  C5        55.7110   33.1620   22.9710 C.ar   69  C69         0.0566
   1482  C6        56.6710   32.5530   23.6710 C.ar   69  C69         0.0850
   1483  OP1       60.4140   30.3660   20.3810 O.3    69  C69        -0.4373
   1484  OP2       57.8320   30.3600   20.3040 O.co2  69  C69        -0.5172
   1485  P         57.2330   26.9590   24.0650 P.3    70  A70         0.2141
   1486  C5'       55.9060   25.7750   25.8490 C.3    70  A70         0.1812
   1487  O5'       56.8020   26.8300   25.5910 O.3    70  A70        -0.3114
   1488  C4'       54.8430   26.2120   26.8100 C.3    70  A70         0.1773
   1489  O4'       54.6680   27.6500   26.7940 O.3    70  A70        -0.3307
   1490  C3'       53.4810   25.6630   26.4670 C.3    70  A70         0.1860
   1491  O3'       53.3540   24.3060   26.8410 O.3    70  A70        -0.3112
   1492  C2'       52.5160   26.6510   27.1230 C.3    70  A70         0.2309
   1493  O2'       52.2560   26.3490   28.4840 O.3    70  A70        -0.2156
   1494  C1'       53.3050   27.9660   27.0230 C.3    70  A70         0.2408
   1495  N1        49.2820   30.3460   24.7870 N.ar   70  A70        -0.2040
   1496  C2        49.3610   29.6410   25.9220 C.ar   70  A70         0.2016
   1497  N3        50.4440   29.0490   26.4380 N.ar   70  A70        -0.2048
   1498  C4        51.5420   29.2430   25.6720 C.ar   70  A70         0.1692
   1499  C5        51.6070   29.9500   24.4890 C.ar   70  A70         0.1518
   1500  C6        50.3950   30.5250   24.0340 C.ar   70  A70         0.1919
   1501  N6        50.2780   31.2430   22.9090 N.pl3  70  A70        -0.1054
   1502  N7        52.8980   29.9470   23.9950 N.ar   70  A70        -0.2193
   1503  C8        53.5830   29.2420   24.8550 C.ar   70  A70         0.1816
   1504  N9        52.8280   28.7910   25.8960 N.ar   70  A70        -0.2693
   1505  OP1       57.8110   25.6320   23.7600 O.3    70  A70        -0.4373
   1506  OP2       56.0590   27.4610   23.3130 O.co2  70  A70        -0.5172
   1507  P         52.5670   23.3690   25.8290 P.3    71  G71         0.2141
   1508  C5'       50.7540   23.4610   27.5930 C.3    71  G71         0.1812
   1509  O5'       51.0880   23.7830   26.2660 O.3    71  G71        -0.3114
   1510  C4'       49.3830   23.9480   27.9210 C.3    71  G71         0.1773
   1511  O4'       49.3350   25.3870   27.7330 O.3    71  G71        -0.3307
   1512  C3'       48.3000   23.4490   26.9950 C.3    71  G71         0.1860
   1513  O3'       47.9430   22.0980   27.2360 O.3    71  G71        -0.3112
   1514  C2'       47.1900   24.4640   27.2150 C.3    71  G71         0.2309
   1515  O2'       46.5210   24.2330   28.4500 O.3    71  G71        -0.2156
   1516  C1'       48.0300   25.7460   27.3150 C.3    71  G71         0.2408
   1517  N1        45.5520   28.5490   23.8130 N.ar   71  G71        -0.1709
   1518  C2        45.0650   27.9700   24.9740 C.ar   71  G71         0.2606
   1519  N2        43.7590   28.1600   25.2260 N.pl3  71  G71        -0.0859
   1520  N3        45.8040   27.2460   25.8120 N.ar   71  G71        -0.1918
   1521  C4        47.0970   27.1640   25.3880 C.ar   71  G71         0.1723
   1522  C5        47.6790   27.7110   24.2520 C.ar   71  G71         0.1748
   1523  C6        46.8740   28.4700   23.3580 C.ar   71  G71         0.3023
   1524  O6        47.2100   29.0330   22.2990 O.2    71  G71        -0.2633
   1525  N7        49.0320   27.3970   24.1810 N.ar   71  G71        -0.2173
   1526  C8        49.2410   26.6810   25.2500 C.ar   71  G71         0.1817
   1527  N9        48.1220   26.5010   26.0360 N.ar   71  G71        -0.2693
   1528  OP1       52.6350   21.9480   26.2230 O.3    71  G71        -0.4373
   1529  OP2       52.9020   23.7800   24.4390 O.co2  71  G71        -0.5172
   1530  P         47.8880   21.0590   26.0220 P.3    72  C72         0.2141
   1531  C5'       45.3330   21.1410   26.3390 C.3    72  C72         0.1812
   1532  O5'       46.4270   21.3790   25.4700 O.3    72  C72        -0.3114
   1533  C4'       44.1360   21.9270   25.8780 C.3    72  C72         0.1773
   1534  O4'       44.5250   23.3210   25.7980 O.3    72  C72        -0.3307
   1535  C3'       43.6610   21.6440   24.4610 C.3    72  C72         0.1860
   1536  O3'       42.8660   20.4800   24.3080 O.3    72  C72        -0.3112
   1537  C2'       42.9660   22.9390   24.0680 C.3    72  C72         0.2309
   1538  O2'       41.6960   23.0530   24.6970 O.3    72  C72        -0.2156
   1539  C1'       43.9250   23.9500   24.6810 C.3    72  C72         0.2420
   1540  N1        45.0110   24.4240   23.7470 N.ar   72  C72        -0.2535
   1541  C2        44.6950   25.3420   22.7510 C.ar   72  C72         0.3532
   1542  O2        43.5080   25.7000   22.6900 O.2    72  C72        -0.2443
   1543  N3        45.6750   25.7910   21.9050 N.ar   72  C72        -0.1739
   1544  C4        46.9350   25.3590   22.0250 C.ar   72  C72         0.1759
   1545  N4        47.8800   25.8180   21.1780 N.pl3  72  C72        -0.1070
   1546  C5        47.2660   24.4210   23.0540 C.ar   72  C72         0.0566
   1547  C6        46.2950   23.9920   23.8750 C.ar   72  C72         0.0850
   1548  OP1       47.7500   19.6950   26.5790 O.3    72  C72        -0.4373
   1549  OP2       48.9620   21.3110   25.0320 O.co2  72  C72        -0.5172
   1550  P         43.2440   19.5680   23.0360 P.3    73  G73         0.2141
   1551  C5'       41.1310   20.4830   21.9540 C.3    73  G73         0.1812
   1552  O5'       42.5440   20.3980   21.8620 O.3    73  G73        -0.3114
   1553  C4'       40.5750   21.2470   20.7890 C.3    73  G73         0.1773
   1554  O4'       41.0260   22.6190   20.8600 O.3    73  G73        -0.3307
   1555  C3'       41.0370   20.7840   19.4190 C.3    73  G73         0.1860
   1556  O3'       40.3400   19.6470   18.9560 O.3    73  G73        -0.3112
   1557  C2'       40.7420   22.0200   18.5970 C.3    73  G73         0.2309
   1558  O2'       39.3310   22.1310   18.4540 O.3    73  G73        -0.2156
   1559  C1'       41.2370   23.0990   19.5630 C.3    73  G73         0.2408
   1560  N1        44.4850   25.6710   16.8520 N.ar   73  G73        -0.1709
   1561  C2        43.0960   25.6210   16.8200 C.ar   73  G73         0.2606
   1562  N2        42.4400   26.3720   15.9040 N.pl3  73  G73        -0.0859
   1563  N3        42.3790   24.8630   17.6320 N.ar   73  G73        -0.1918
   1564  C4        43.1810   24.1730   18.4730 C.ar   73  G73         0.1723
   1565  C5        44.5490   24.1510   18.6070 C.ar   73  G73         0.1748
   1566  C6        45.3080   24.9640   17.7270 C.ar   73  G73         0.3023
   1567  O6        46.5360   25.1100   17.6480 O.2    73  G73        -0.2633
   1568  N7        44.9100   23.2760   19.6380 N.ar   73  G73        -0.2173
   1569  C8        43.7650   22.8050   20.0910 C.ar   73  G73         0.1817
   1570  N9        42.6830   23.3300   19.4210 N.ar   73  G73        -0.2693
   1571  OP1       42.4080   18.3430   23.0930 O.3    73  G73        -0.4373
   1572  OP2       44.7230   19.5210   22.8500 O.co2  73  G73        -0.5172
   1573  P         41.1660   18.4210   18.3450 P.3    74  G74         0.2141
   1574  C5'       40.6180   19.1470   15.8650 C.3    74  G74         0.1812
   1575  O5'       41.5680   18.9760   16.9030 O.3    74  G74        -0.3114
   1576  C4'       41.2550   19.9390   14.7640 C.3    74  G74         0.1773
   1577  O4'       41.6970   21.2220   15.2860 O.3    74  G74        -0.3307
   1578  C3'       42.5340   19.3440   14.2060 C.3    74  G74         0.1860
   1579  O3'       42.3350   18.2470   13.3200 O.3    74  G74        -0.3112
   1580  C2'       43.1690   20.5700   13.5590 C.3    74  G74         0.2309
   1581  O2'       42.5230   20.9290   12.3450 O.3    74  G74        -0.2156
   1582  C1'       42.8680   21.6360   14.6090 C.3    74  G74         0.2408
   1583  N1        47.6440   23.1940   15.1350 N.ar   74  G74        -0.1709
   1584  C2        46.7520   23.4250   14.1220 C.ar   74  G74         0.2606
   1585  N2        47.2220   24.1640   13.0980 N.pl3  74  G74        -0.0859
   1586  N3        45.5040   22.9690   14.1240 N.ar   74  G74        -0.1918
   1587  C4        45.2330   22.2400   15.2240 C.ar   74  G74         0.1723
   1588  C5        46.0490   21.9620   16.2860 C.ar   74  G74         0.1748
   1589  C6        47.3740   22.4580   16.2840 C.ar   74  G74         0.3023
   1590  O6        48.2540   22.3240   17.1530 O.2    74  G74        -0.2633
   1591  N7        45.3800   21.1850   17.2210 N.ar   74  G74        -0.2173
   1592  C8        44.1840   21.0110   16.7220 C.ar   74  G74         0.1817
   1593  N9        44.0230   21.6560   15.5190 N.ar   74  G74        -0.2693
   1594  OP1       40.1940   17.3270   18.0770 O.2    74  G74        -0.5172
   1595  OP2       42.4760   18.2360   19.0240 O.co2  74  G74        -0.4373
   1596  P         43.2090   16.9180   13.5150 P.3    75  A75         0.2141
   1597  C5'       45.7770   16.5350   13.0110 C.3    75  A75         0.1812
   1598  O5'       44.6020   17.3030   12.8220 O.3    75  A75        -0.3114
   1599  C4'       46.7260   16.6900   11.8490 C.3    75  A75         0.1773
   1600  O4'       46.0510   16.2380   10.6500 O.3    75  A75        -0.3307
   1601  C3'       47.1860   18.1110   11.5460 C.3    75  A75         0.1860
   1602  O3'       48.3870   18.4590   12.2160 O.3    75  A75        -0.3112
   1603  C2'       47.3270   18.1540   10.0270 C.3    75  A75         0.2309
   1604  O2'       48.6220   17.7140    9.6410 O.3    75  A75        -0.2156
   1605  C1'       46.2910   17.1210    9.5670 C.3    75  A75         0.2408
   1606  N1        43.5370   20.2760    6.3990 N.ar   75  A75        -0.2040
   1607  C2        44.8620   20.0100    6.4390 C.ar   75  A75         0.2016
   1608  N3        45.5280   19.1920    7.2720 N.ar   75  A75        -0.2048
   1609  C4        44.6770   18.5970    8.1470 C.ar   75  A75         0.1692
   1610  C5        43.2910   18.7710    8.2160 C.ar   75  A75         0.1518
   1611  C6        42.7090   19.6580    7.2840 C.ar   75  A75         0.1919
   1612  N6        41.4000   19.9140    7.2710 N.pl3  75  A75        -0.1054
   1613  N7        42.7350   18.0060    9.2290 N.ar   75  A75        -0.2193
   1614  C8        43.7780   17.3980    9.7360 C.ar   75  A75         0.1816
   1615  N9        44.9840   17.7010    9.1570 N.ar   75  A75        -0.2693
   1616  OP1       42.6380   15.8380   12.6790 O.2    75  A75        -0.5172
   1617  OP2       43.3490   16.6790   14.9760 O.co2  75  A75        -0.4373
   1618  P         48.3950   19.7930   13.1040 P.3    76  A76         0.2141
   1619  C5'       49.7630   21.2280   11.3930 C.3    76  A76         0.1812
   1620  O5'       48.5120   20.9990   12.0430 O.3    76  A76        -0.3114
   1621  C4'       49.6530   21.8970   10.0410 C.3    76  A76         0.1773
   1622  O4'       48.6050   21.2940    9.2300 O.3    76  A76        -0.3307
   1623  C3'       49.3400   23.3880   10.0360 C.3    76  A76         0.1860
   1624  O3'       50.5140   24.1710   10.2180 O.3    76  A76        -0.3112
   1625  C2'       48.6940   23.5910    8.6740 C.3    76  A76         0.2309
   1626  O2'       49.6970   23.6390    7.6700 O.3    76  A76        -0.2156
   1627  C1'       47.9350   22.2740    8.4840 C.3    76  A76         0.2408
   1628  N1        42.9970   23.4200    7.3930 N.ar   76  A76        -0.2040
   1629  C2        44.1380   23.6210    6.7200 C.ar   76  A76         0.2016
   1630  N3        45.3880   23.3110    7.0480 N.ar   76  A76        -0.2048
   1631  C4        45.4170   22.7170    8.2520 C.ar   76  A76         0.1692
   1632  C5        44.3270   22.4490    9.0710 C.ar   76  A76         0.1518
   1633  C6        43.0520   22.8240    8.5930 C.ar   76  A76         0.1919
   1634  N6        41.8940   22.6490    9.2440 N.pl3  76  A76        -0.1054
   1635  N7        44.7350   21.8270   10.2400 N.ar   76  A76        -0.2193
   1636  C8        46.0400   21.7450   10.1040 C.ar   76  A76         0.1816
   1637  N9        46.5310   22.2730    8.9360 N.ar   76  A76        -0.2693
   1638  OP1       49.6780   19.8630   13.8450 O.3    76  A76        -0.4373
   1639  OP2       47.1070   19.8160   13.8440 O.co2  76  A76        -0.5172
   1640  P         50.4190   25.5880   10.9340 P.3    77  A77         0.2141
   1641  C5'       49.8620   27.1830    8.8860 C.3    77  A77         0.1812
   1642  O5'       49.4190   26.4610   10.0300 O.3    77  A77        -0.3114
   1643  C4'       48.7170   27.5840    7.9880 C.3    77  A77         0.1773
   1644  O4'       47.7850   26.4850    7.8260 O.3    77  A77        -0.3307
   1645  C3'       47.8360   28.7330    8.4510 C.3    77  A77         0.1860
   1646  O3'       48.3990   30.0070    8.2010 O.3    77  A77        -0.3112
   1647  C2'       46.5390   28.5090    7.6850 C.3    77  A77         0.2309
   1648  O2'       46.6440   29.0120    6.3630 O.3    77  A77        -0.2156
   1649  C1'       46.4740   26.9860    7.6390 C.3    77  A77         0.2408
   1650  N1        41.8100   25.5140    9.5260 N.ar   77  A77        -0.2040
   1651  C2        42.1600   26.0060    8.3280 C.ar   77  A77         0.2016
   1652  N3        43.3670   26.3770    7.8740 N.ar   77  A77        -0.2048
   1653  C4        44.3100   26.1990    8.8110 C.ar   77  A77         0.1692
   1654  C5        44.1000   25.7040   10.0880 C.ar   77  A77         0.1518
   1655  C6        42.7730   25.3500   10.4410 C.ar   77  A77         0.1919
   1656  N6        42.3980   24.8600   11.6190 N.pl3  77  A77        -0.1054
   1657  N7        45.2990   25.6610   10.7920 N.ar   77  A77        -0.2193
   1658  C8        46.1920   26.1180    9.9520 C.ar   77  A77         0.1816
   1659  N9        45.6630   26.4570    8.7410 N.ar   77  A77        -0.2693
   1660  OP1       51.7150   26.2970   10.8260 O.2    77  A77        -0.5172
   1661  OP2       49.7600   25.3120   12.2320 O.co2  77  A77        -0.4373
   1662  P         48.9370   30.8570    9.4420 P.3    78  C78         0.2141
   1663  C5'       46.5030   31.6740   10.1130 C.3    78  C78         0.1812
   1664  O5'       47.6500   30.8870   10.4150 O.3    78  C78        -0.3114
   1665  C4'       45.1730   31.0700   10.5270 C.3    78  C78         0.1773
   1666  O4'       45.2330   29.6230   10.6270 O.3    78  C78        -0.3307
   1667  C3'       44.6180   31.4970   11.8790 C.3    78  C78         0.1860
   1668  O3'       44.0370   32.7880   11.8670 O.3    78  C78        -0.3112
   1669  C2'       43.6420   30.3790   12.2400 C.3    78  C78         0.2309
   1670  O2'       42.3690   30.5500   11.6240 O.3    78  C78        -0.2156
   1671  C1'       44.3590   29.1660   11.6430 C.3    78  C78         0.2420
   1672  N1        45.2550   28.5220   12.6140 N.ar   78  C78        -0.2535
   1673  C2        44.7510   27.7410   13.6540 C.ar   78  C78         0.3532
   1674  O2        43.5370   27.5900   13.7360 O.2    78  C78        -0.2443
   1675  N3        45.6080   27.1720   14.5410 N.ar   78  C78        -0.1739
   1676  C4        46.9260   27.3730   14.3980 C.ar   78  C78         0.1759
   1677  N4        47.7700   26.8120   15.2680 N.pl3  78  C78        -0.1070
   1678  C5        47.4590   28.1670   13.3330 C.ar   78  C78         0.0566
   1679  C6        46.5970   28.7190   12.4780 C.ar   78  C78         0.0850
   1680  OP1       49.2030   32.2620    9.0650 O.2    78  C78        -0.5172
   1681  OP2       50.0650   30.1050   10.0340 O.co2  78  C78        -0.4373
   1682  P         44.3160   33.7720   13.0930 P.3    79  G79         0.2141
   1683  C5'       41.9950   32.9440   13.9280 C.3    79  G79         0.1812
   1684  O5'       43.3770   33.1200   14.2080 O.3    79  G79        -0.3114
   1685  C4'       41.3020   32.0620   14.9380 C.3    79  G79         0.1773
   1686  O4'       41.8730   30.7290   14.9160 O.3    79  G79        -0.3307
   1687  C3'       41.4240   32.4470   16.4060 C.3    79  G79         0.1860
   1688  O3'       40.6160   33.5560   16.7850 O.3    79  G79        -0.3112
   1689  C2'       41.0830   31.1320   17.1030 C.3    79  G79         0.2309
   1690  O2'       39.6990   30.8210   17.0170 O.3    79  G79        -0.2156
   1691  C1'       41.8070   30.1410   16.2020 C.3    79  G79         0.2408
   1692  N1        44.5000   27.6110   19.7160 N.ar   79  G79        -0.1709
   1693  C2        43.1280   27.7090   19.5460 C.ar   79  G79         0.2606
   1694  N2        42.3320   27.0480   20.4260 N.pl3  79  G79        -0.0859
   1695  N3        42.5530   28.4110   18.5700 N.ar   79  G79        -0.1918
   1696  C4        43.4650   29.0240   17.7830 C.ar   79  G79         0.1723
   1697  C5        44.8410   28.9920   17.8800 C.ar   79  G79         0.1748
   1698  C6        45.4520   28.2370   18.9210 C.ar   79  G79         0.3023
   1699  O6        46.6600   28.0880   19.1760 O.2    79  G79        -0.2633
   1700  N7        45.4060   29.7500   16.8600 N.ar   79  G79        -0.2173
   1701  C8        44.3800   30.2120   16.2050 C.ar   79  G79         0.1817
   1702  N9        43.1630   29.8150   16.7000 N.ar   79  G79        -0.2693
   1703  OP1       43.6860   35.0920   12.8370 O.2    79  G79        -0.5172
   1704  OP2       45.7460   33.6710   13.4730 O.co2  79  G79        -0.4373
   1705  P         41.1830   34.7480   17.6930 P.3    80  U80         0.2141
   1706  C5'       39.8320   33.4690   19.5430 C.3    80  U80         0.1812
   1707  O5'       41.0690   34.0370   19.1230 O.3    80  U80        -0.3114
   1708  C4'       40.0060   32.5760   20.7510 C.3    80  U80         0.1773
   1709  O4'       40.7410   31.3830   20.3690 O.3    80  U80        -0.3307
   1710  C3'       40.8090   33.1550   21.9160 C.3    80  U80         0.1860
   1711  O3'       40.0690   33.9880   22.7950 O.3    80  U80        -0.3112
   1712  C2'       41.3480   31.9170   22.6110 C.3    80  U80         0.2309
   1713  O2'       40.3580   31.3260   23.4510 O.3    80  U80        -0.2156
   1714  C1'       41.6140   31.0110   21.4130 C.3    80  U80         0.2420
   1715  N1        43.0010   31.1870   20.9600 N.ar   80  U80        -0.2534
   1716  C2        43.9520   30.4200   21.5570 C.ar   80  U80         0.3546
   1717  O2        43.6460   29.6300   22.4120 O.2    80  U80        -0.2443
   1718  N3        45.2430   30.5790   21.1280 N.ar   80  U80        -0.1530
   1719  C4        45.6780   31.4500   20.1550 C.ar   80  U80         0.2846
   1720  O4        46.8750   31.5030   19.8660 O.2    80  U80        -0.2650
   1721  C5        44.6160   32.2410   19.5710 C.ar   80  U80         0.0814
   1722  C6        43.3450   32.0870   19.9850 C.ar   80  U80         0.0870
   1723  OP1       40.2200   35.8680   17.6100 O.3    80  U80        -0.4373
   1724  OP2       42.6380   34.9740   17.5270 O.co2  80  U80        -0.5172
   1725  P         40.8790   34.9550   23.7990 P.3    81  U81         0.2141
   1726  C5'       40.8050   33.3280   25.8520 C.3    81  U81         0.1812
   1727  O5'       41.5750   33.9890   24.8650 O.3    81  U81        -0.3114
   1728  C4'       41.7110   32.6440   26.8380 C.3    81  U81         0.1773
   1729  O4'       42.4860   31.6420   26.1390 O.3    81  U81        -0.3307
   1730  C3'       42.7650   33.5190   27.4980 C.3    81  U81         0.1860
   1731  O3'       42.2570   34.3070   28.5640 O.3    81  U81        -0.3112
   1732  C2'       43.7670   32.4700   27.9400 C.3    81  U81         0.2309
   1733  O2'       43.2080   31.7300   29.0180 O.3    81  U81        -0.2156
   1734  C1'       43.7690   31.5730   26.7070 C.3    81  U81         0.2420
   1735  N1        44.6990   31.9990   25.6680 N.ar   81  U81        -0.2534
   1736  C2        45.9330   31.3950   25.6750 C.ar   81  U81         0.3546
   1737  O2        46.2310   30.5600   26.5080 O.2    81  U81        -0.2443
   1738  N3        46.7970   31.7930   24.6790 N.ar   81  U81        -0.1530
   1739  C4        46.5330   32.7380   23.7000 C.ar   81  U81         0.2846
   1740  O4        47.4070   33.0140   22.8770 O.2    81  U81        -0.2650
   1741  C5        45.2080   33.3300   23.7640 C.ar   81  U81         0.0814
   1742  C6        44.3470   32.9450   24.7220 C.ar   81  U81         0.0870
   1743  OP1       39.8720   35.7530   24.5400 O.3    81  U81        -0.4373
   1744  OP2       42.0410   35.5630   23.0970 O.co2  81  U81        -0.5172
   1745  P         42.9670   35.6860   28.9610 P.3    82  G82         0.2141
   1746  C5'       44.3300   34.4020   30.6800 C.3    82  G82         0.1812
   1747  O5'       44.3930   35.2110   29.5160 O.3    82  G82        -0.3114
   1748  C4'       45.6130   33.6760   30.9820 C.3    82  G82         0.1773
   1749  O4'       46.0410   32.8520   29.8650 O.3    82  G82        -0.3307
   1750  C3'       46.8240   34.5430   31.2590 C.3    82  G82         0.1860
   1751  O3'       46.7720   35.0800   32.5620 O.3    82  G82        -0.3112
   1752  C2'       47.9730   33.5700   31.0540 C.3    82  G82         0.2309
   1753  O2'       48.1470   32.7550   32.2010 O.3    82  G82        -0.2156
   1754  C1'       47.4450   32.7070   29.8980 C.3    82  G82         0.2408
   1755  N1        51.3990   32.7000   26.6050 N.ar   82  G82        -0.1709
   1756  C2        51.2780   32.0410   27.7880 C.ar   82  G82         0.2606
   1757  N2        52.3510   31.3120   28.1140 N.pl3  82  G82        -0.0859
   1758  N3        50.2060   32.1030   28.5780 N.ar   82  G82        -0.1918
   1759  C4        49.2300   32.8930   28.0790 C.ar   82  G82         0.1723
   1760  C5        49.2590   33.5830   26.9010 C.ar   82  G82         0.1748
   1761  C6        50.4110   33.5040   26.0710 C.ar   82  G82         0.3023
   1762  O6        50.6270   34.0500   24.9860 O.2    82  G82        -0.2633
   1763  N7        48.0710   34.2900   26.7280 N.ar   82  G82        -0.2173
   1764  C8        47.3480   34.0180   27.7710 C.ar   82  G82         0.1817
   1765  N9        47.9940   33.1740   28.6260 N.ar   82  G82        -0.2693
   1766  OP1       42.2370   36.2420   30.1260 O.3    82  G82        -0.4373
   1767  OP2       43.1820   36.5400   27.7790 O.co2  82  G82        -0.5172
   1768  P         47.8770   36.1220   33.0170 P.3    83  A83         0.2141
   1769  C5'       50.4690   35.9460   33.1120 C.3    83  A83         0.1812
   1770  O5'       49.2330   35.2670   33.0140 O.3    83  A83        -0.3114
   1771  C4'       51.6230   35.1240   32.5940 C.3    83  A83         0.1773
   1772  O4'       51.2880   34.4810   31.3350 O.3    83  A83        -0.3307
   1773  C3'       52.8590   35.9420   32.2590 C.3    83  A83         0.1860
   1774  O3'       53.6430   36.2690   33.3880 O.3    83  A83        -0.3112
   1775  C2'       53.5900   35.0940   31.2260 C.3    83  A83         0.2309
   1776  O2'       54.4310   34.1290   31.8340 O.3    83  A83        -0.2156
   1777  C1'       52.4300   34.4130   30.4950 C.3    83  A83         0.2408
   1778  N1        54.4820   35.5470   25.9210 N.ar   83  A83        -0.2040
   1779  C2        54.9270   34.8240   26.9510 C.ar   83  A83         0.2016
   1780  N3        54.3190   34.5730   28.1050 N.ar   83  A83        -0.2048
   1781  C4        53.1100   35.1560   28.1660 C.ar   83  A83         0.1692
   1782  C5        52.5230   35.9280   27.1910 C.ar   83  A83         0.1518
   1783  C6        53.2640   36.1240   26.0180 C.ar   83  A83         0.1919
   1784  N6        52.7920   36.8430   24.9980 N.pl3  83  A83        -0.1054
   1785  N7        51.2680   36.3720   27.5850 N.ar   83  A83        -0.2193
   1786  C8        51.1280   35.8650   28.7960 C.ar   83  A83         0.1816
   1787  N9        52.2010   35.1110   29.2080 N.ar   83  A83        -0.2693
   1788  OP1       47.5960   36.3970   34.4510 O.3    83  A83        -0.4373
   1789  OP2       47.9570   37.2190   32.0240 O.co2  83  A83        -0.5172
   1790  P         54.4260   37.6610   33.4540 P.3    84  A84         0.2141
   1791  C5'       56.6900   36.6070   32.5720 C.3    84  A84         0.1812
   1792  O5'       55.6440   37.5540   32.4030 O.3    84  A84        -0.3114
   1793  C4'       57.5360   36.4590   31.3320 C.3    84  A84         0.1773
   1794  O4'       56.7300   35.8970   30.2660 O.3    84  A84        -0.3307
   1795  C3'       58.0960   37.7450   30.7420 C.3    84  A84         0.1860
   1796  O3'       59.3140   38.1360   31.3380 O.3    84  A84        -0.3112
   1797  C2'       58.2190   37.4500   29.2520 C.3    84  A84         0.2309
   1798  O2'       59.3990   36.7140   28.9660 O.3    84  A84        -0.2156
   1799  C1'       57.0090   36.5490   29.0470 C.3    84  A84         0.2408
   1800  N1        54.7270   39.5130   25.5470 N.ar   84  A84        -0.2040
   1801  C2        55.8990   38.8550   25.5390 C.ar   84  A84         0.2016
   1802  N3        56.4430   38.1020   26.4970 N.ar   84  A84        -0.2048
   1803  C4        55.6170   38.0490   27.5600 C.ar   84  A84         0.1692
   1804  C5        54.3770   38.6580   27.7170 C.ar   84  A84         0.1518
   1805  C6        53.9160   39.4330   26.6370 C.ar   84  A84         0.1919
   1806  N6        52.7340   40.0750   26.6680 N.pl3  84  A84        -0.1054
   1807  N7        53.8260   38.3700   28.9620 N.ar   84  A84        -0.2193
   1808  C8        54.7280   37.5970   29.5230 C.ar   84  A84         0.1816
   1809  N9        55.8240   37.3610   28.7300 N.ar   84  A84        -0.2693
   1810  OP1       55.0850   37.6430   34.7810 O.3    84  A84        -0.4373
   1811  OP2       53.4850   38.7690   33.1280 O.co2  84  A84        -0.5172
   1812  P         59.3100   39.5820   31.9910 P.3    85  A85         0.2141
   1813  C5'       60.6460   40.2530   29.8590 C.3    85  A85         0.1812
   1814  O5'       59.5560   40.5350   30.7240 O.3    85  A85        -0.3114
   1815  C4'       60.4260   40.8650   28.4970 C.3    85  A85         0.1773
   1816  O4'       59.2620   40.2610   27.8610 O.3    85  A85        -0.3307
   1817  C3'       60.1200   42.3520   28.4920 C.3    85  A85         0.1860
   1818  O3'       61.2700   43.1780   28.5980 O.3    85  A85        -0.3112
   1819  C2'       59.3440   42.5330   27.1890 C.3    85  A85         0.2309
   1820  O2'       60.2190   42.5960   26.0790 O.3    85  A85        -0.2156
   1821  C1'       58.5630   41.2310   27.1080 C.3    85  A85         0.2408
   1822  N1        53.8550   43.4310   26.9150 N.ar   85  A85        -0.2040
   1823  C2        54.9050   43.5520   26.0920 C.ar   85  A85         0.2016
   1824  N3        56.1040   42.9700   26.1770 N.ar   85  A85        -0.2048
   1825  C4        56.1840   42.1700   27.2680 C.ar   85  A85         0.1692
   1826  C5        55.1880   41.9550   28.2020 C.ar   85  A85         0.1518
   1827  C6        53.9720   42.6300   28.0010 C.ar   85  A85         0.1919
   1828  N6        52.9350   42.4930   28.8360 N.pl3  85  A85        -0.1054
   1829  N7        55.5900   41.0790   29.1870 N.ar   85  A85        -0.2193
   1830  C8        56.8180   40.7760   28.8440 C.ar   85  A85         0.1816
   1831  N9        57.2360   41.3920   27.7090 N.ar   85  A85        -0.2693
   1832  OP1       60.5650   39.6870   32.7770 O.3    85  A85        -0.4373
   1833  OP2       57.9800   39.8430   32.6030 O.co2  85  A85        -0.5172
   1834  P         61.0940   44.5450   29.4270 P.3    86  G86         0.2141
   1835  C5'       60.5590   45.9750   27.2890 C.3    86  G86         0.1812
   1836  O5'       60.1730   45.5490   28.5870 O.3    86  G86        -0.3114
   1837  C4'       59.4040   46.6120   26.5650 C.3    86  G86         0.1773
   1838  O4'       58.2470   45.7390   26.5790 O.3    86  G86        -0.3307
   1839  C3'       58.8770   47.8830   27.1900 C.3    86  G86         0.1860
   1840  O3'       59.7260   48.9760   26.9180 O.3    86  G86        -0.3112
   1841  C2'       57.4820   47.9880   26.5910 C.3    86  G86         0.2309
   1842  O2'       57.5820   48.4140   25.2450 O.3    86  G86        -0.2156
   1843  C1'       57.0730   46.5180   26.5550 C.3    86  G86         0.2408
   1844  N1        52.4800   46.5310   28.8970 N.ar   86  G86        -0.1709
   1845  C2        52.8890   47.2240   27.7850 C.ar   86  G86         0.2606
   1846  N2        51.9420   47.9980   27.2460 N.pl3  86  G86        -0.0859
   1847  N3        54.1120   47.1700   27.2480 N.ar   86  G86        -0.1918
   1848  C4        54.9170   46.3390   27.9450 C.ar   86  G86         0.1723
   1849  C5        54.6080   45.5970   29.0650 C.ar   86  G86         0.1748
   1850  C6        53.3020   45.6710   29.6220 C.ar   86  G86         0.3023
   1851  O6        52.8420   45.0820   30.6190 O.2    86  G86        -0.2633
   1852  N7        55.7060   44.8510   29.4660 N.ar   86  G86        -0.2173
   1853  C8        56.6410   45.1520   28.6080 C.ar   86  G86         0.1817
   1854  N9        56.2340   46.0580   27.6690 N.ar   86  G86        -0.2693
   1855  OP1       62.4120   45.2370   29.4690 O.2    86  G86        -0.5172
   1856  OP2       60.2670   44.1890   30.6050 O.co2  86  G86        -0.4373
   1857  P         59.8340   50.1230   28.0020 P.3    87  A87         0.2141
   1858  C5'       58.1140   51.5510   26.6660 C.3    87  A87         0.1812
   1859  O5'       58.4230   50.8860   27.8840 O.3    87  A87        -0.3114
   1860  C4'       56.7350   52.1600   26.6290 C.3    87  A87         0.1773
   1861  O4'       55.7320   51.1280   26.7040 O.3    87  A87        -0.3307
   1862  C3'       56.3810   53.0820   27.7750 C.3    87  A87         0.1860
   1863  O3'       56.8910   54.3900   27.6000 O.3    87  A87        -0.3112
   1864  C2'       54.8590   53.0100   27.8410 C.3    87  A87         0.2309
   1865  O2'       54.2560   53.8520   26.8690 O.3    87  A87        -0.2156
   1866  C1'       54.6180   51.5590   27.4480 C.3    87  A87         0.2408
   1867  N1        51.8920   49.0140   31.1040 N.ar   87  A87        -0.2040
   1868  C2        51.5230   49.9560   30.2100 C.ar   87  A87         0.2016
   1869  N3        52.2450   50.6010   29.2820 N.ar   87  A87        -0.2048
   1870  C4        53.5100   50.1860   29.3310 C.ar   87  A87         0.1692
   1871  C5        54.0430   49.2390   30.1850 C.ar   87  A87         0.1518
   1872  C6        53.1880   48.6280   31.1180 C.ar   87  A87         0.1919
   1873  N6        53.6130   47.7110   31.9890 N.pl3  87  A87        -0.1054
   1874  N7        55.3850   49.0660   29.9510 N.ar   87  A87        -0.2193
   1875  C8        55.6350   49.9000   28.9830 C.ar   87  A87         0.1816
   1876  N9        54.5580   50.6180   28.5710 N.ar   87  A87        -0.2693
   1877  OP1       60.8440   51.1010   27.5520 O.2    87  A87        -0.5172
   1878  OP2       59.9730   49.4710   29.3240 O.co2  87  A87        -0.4373
   1879  P         57.6610   55.0900   28.8210 P.3    88  U88         0.2141
   1880  C5'       55.6230   56.5070   29.2510 C.3    88  U88         0.1812
   1881  O5'       56.4360   55.4740   29.7670 O.3    88  U88        -0.3114
   1882  C4'       54.3360   56.5950   30.0060 C.3    88  U88         0.1773
   1883  O4'       53.6840   55.3090   29.9870 O.3    88  U88        -0.3307
   1884  C3'       54.4590   56.8550   31.4900 C.3    88  U88         0.1860
   1885  O3'       54.7530   58.1960   31.8090 O.3    88  U88        -0.3112
   1886  C2'       53.0770   56.4510   31.9330 C.3    88  U88         0.2309
   1887  O2'       52.1760   57.4030   31.3950 O.3    88  U88        -0.2156
   1888  C1'       52.9050   55.1660   31.1450 C.3    88  U88         0.2420
   1889  N1        53.4070   53.9810   31.7950 N.ar   88  U88        -0.2534
   1890  C2        52.6240   53.4070   32.7570 C.ar   88  U88         0.3546
   1891  O2        51.5550   53.8870   33.0780 O.2    88  U88        -0.2443
   1892  N3        53.1330   52.2740   33.3270 N.ar   88  U88        -0.1530
   1893  C4        54.3400   51.6940   33.0100 C.ar   88  U88         0.2846
   1894  O4        54.6670   50.6810   33.5980 O.2    88  U88        -0.2650
   1895  C5        55.1120   52.3590   31.9890 C.ar   88  U88         0.0814
   1896  C6        54.6190   53.4620   31.4220 C.ar   88  U88         0.0870
   1897  OP1       58.1310   56.4050   28.3130 O.2    88  U88        -0.5172
   1898  OP2       58.5140   54.0910   29.5210 O.co2  88  U88        -0.4373
   1899  P         55.6030   58.4250   33.1350 P.3    89  G89         0.2141
   1900  C5'       53.3150   59.1770   34.2970 C.3    89  G89         0.1812
   1901  O5'       54.4550   58.3300   34.2480 O.3    89  G89        -0.3114
   1902  C4'       52.3040   58.6490   35.2910 C.3    89  G89         0.1773
   1903  O4'       51.9730   57.2750   34.9720 O.3    89  G89        -0.3307
   1904  C3'       52.7510   58.5500   36.7480 C.3    89  G89         0.1860
   1905  O3'       52.7440   59.7840   37.4480 O.3    89  G89        -0.3112
   1906  C2'       51.8060   57.5080   37.3390 C.3    89  G89         0.2309
   1907  O2'       50.5180   58.0710   37.5960 O.3    89  G89        -0.2156
   1908  C1'       51.7030   56.5480   36.1540 C.3    89  G89         0.2408
   1909  N1        52.5650   52.0340   38.3150 N.ar   89  G89        -0.1709
   1910  C2        51.5120   52.9140   38.4460 C.ar   89  G89         0.2606
   1911  N2        50.5080   52.5830   39.2730 N.pl3  89  G89        -0.0859
   1912  N3        51.4210   54.0790   37.8120 N.ar   89  G89        -0.1918
   1913  C4        52.4730   54.3060   37.0100 C.ar   89  G89         0.1723
   1914  C5        53.5630   53.5020   36.8070 C.ar   89  G89         0.1748
   1915  C6        53.6610   52.2580   37.4930 C.ar   89  G89         0.3023
   1916  O6        54.5690   51.4120   37.4360 O.2    89  G89        -0.2633
   1917  N7        54.4240   54.1180   35.9070 N.ar   89  G89        -0.2173
   1918  C8        53.8450   55.2560   35.6100 C.ar   89  G89         0.1817
   1919  N9        52.6510   55.4290   36.2540 N.ar   89  G89        -0.2693
   1920  OP1       56.0920   59.8200   33.1530 O.2    89  G89        -0.5172
   1921  OP2       56.5750   57.3270   33.3250 O.co2  89  G89        -0.4373
   1922  P         54.0230   60.1770   38.3240 P.3    90  A90         0.2141
   1923  C5'       52.5960   59.6520   40.4560 C.3    90  A90         0.1812
   1924  O5'       53.7710   59.3960   39.7040 O.3    90  A90        -0.3114
   1925  C4'       52.3280   58.5210   41.4110 C.3    90  A90         0.1773
   1926  O4'       52.1470   57.3150   40.6280 O.3    90  A90        -0.3307
   1927  C3'       53.4590   58.1360   42.3590 C.3    90  A90         0.1860
   1928  O3'       53.6500   58.9850   43.4870 O.3    90  A90        -0.3112
   1929  C2'       53.0650   56.7090   42.7150 C.3    90  A90         0.2309
   1930  O2'       51.9360   56.7230   43.5660 O.3    90  A90        -0.2156
   1931  C1'       52.6130   56.1980   41.3530 C.3    90  A90         0.2408
   1932  N1        55.1670   51.8560   40.7630 N.ar   90  A90        -0.2040
   1933  C2        54.1370   52.2020   41.5460 C.ar   90  A90         0.2016
   1934  N3        53.5410   53.3880   41.6220 N.ar   90  A90        -0.2048
   1935  C4        54.0980   54.2630   40.7770 C.ar   90  A90         0.1692
   1936  C5        55.1530   54.0580   39.9160 C.ar   90  A90         0.1518
   1937  C6        55.7090   52.7650   39.9200 C.ar   90  A90         0.1919
   1938  N6        56.7370   52.3820   39.1530 N.pl3  90  A90        -0.1054
   1939  N7        55.4530   55.2110   39.2190 N.ar   90  A90        -0.2193
   1940  C8        54.5630   56.0780   39.6640 C.ar   90  A90         0.1816
   1941  N9        53.7200   55.5620   40.6140 N.ar   90  A90        -0.2693
   1942  OP1       53.8160   61.6140   38.6230 O.3    90  A90        -0.4373
   1943  OP2       55.2950   59.6760   37.7390 O.co2  90  A90        -0.5172
   1944  P         55.1060   59.6080   43.8590 P.3    91  G91         0.2141
   1945  C5'       54.3510   57.7990   45.7510 C.3    91  G91         0.1812
   1946  O5'       55.2850   58.3200   44.8190 O.3    91  G91        -0.3114
   1947  C4'       54.7910   56.4680   46.3500 C.3    91  G91         0.1773
   1948  O4'       54.4930   55.3740   45.4390 O.3    91  G91        -0.3307
   1949  C3'       56.2670   56.2640   46.6690 C.3    91  G91         0.1860
   1950  O3'       56.6930   56.8890   47.8680 O.3    91  G91        -0.3112
   1951  C2'       56.3780   54.7370   46.7030 C.3    91  G91         0.2309
   1952  O2'       55.8650   54.1890   47.9020 O.3    91  G91        -0.2156
   1953  C1'       55.4560   54.3430   45.5580 C.3    91  G91         0.2408
   1954  N1        58.7780   51.6780   42.8790 N.ar   91  G91        -0.1709
   1955  C2        58.1080   51.3020   44.0020 C.ar   91  G91         0.2606
   1956  N2        58.3700   50.0720   44.4550 N.pl3  91  G91        -0.0859
   1957  N3        57.2400   52.0890   44.6090 N.ar   91  G91        -0.1918
   1958  C4        57.1230   53.2870   43.9830 C.ar   91  G91         0.1723
   1959  C5        57.7610   53.7480   42.8660 C.ar   91  G91         0.1748
   1960  C6        58.6800   52.9040   42.2310 C.ar   91  G91         0.3023
   1961  O6        59.3480   53.1260   41.2130 O.2    91  G91        -0.2633
   1962  N7        57.3750   55.0420   42.5600 N.ar   91  G91        -0.2173
   1963  C8        56.5060   55.3470   43.4710 C.ar   91  G91         0.1817
   1964  N9        56.3040   54.3220   44.3600 N.ar   91  G91        -0.2693
   1965  OP1       54.2920   60.6710   44.4960 O.3    91  G91        -0.4373
   1966  OP2       55.5110   59.4380   42.4430 O.co2  91  G91        -0.5172
   1967  P         58.2340   57.2270   48.1980 P.3    92  C92         0.2141
   1968  C5'       59.6630   55.3330   49.0170 C.3    92  C92         0.1812
   1969  O5'       59.0830   55.9190   47.8800 O.3    92  C92        -0.3114
   1970  C4'       60.0110   53.9040   48.7450 C.3    92  C92         0.1773
   1971  O4'       59.3160   53.4670   47.5500 O.3    92  C92        -0.3307
   1972  C3'       61.4770   53.6280   48.4600 C.3    92  C92         0.1860
   1973  O3'       62.2730   53.5520   49.6370 O.3    92  C92        -0.3112
   1974  C2'       61.3860   52.3220   47.6770 C.3    92  C92         0.2309
   1975  O2'       61.1660   51.2100   48.5360 O.3    92  C92        -0.2156
   1976  C1'       60.1340   52.5720   46.8380 C.3    92  C92         0.2420
   1977  N1        60.5450   53.2920   45.6260 N.ar   92  C92        -0.2535
   1978  C2        61.2830   52.6160   44.6560 C.ar   92  C92         0.3532
   1979  O2        61.5800   51.4210   44.8210 O.2    92  C92        -0.2443
   1980  N3        61.6490   53.3090   43.5610 N.ar   92  C92        -0.1739
   1981  C4        61.3020   54.5890   43.4360 C.ar   92  C92         0.1759
   1982  N4        61.6900   55.2230   42.3350 N.pl3  92  C92        -0.1070
   1983  C5        60.5480   55.2940   44.4040 C.ar   92  C92         0.0566
   1984  C6        60.2040   54.6050   45.4810 C.ar   92  C92         0.0850
   1985  OP1       58.3340   57.3500   49.6680 O.3    92  C92        -0.4373
   1986  OP2       58.7110   58.3380   47.3470 O.co2  92  C92        -0.5172
   1987  P         63.6840   54.2970   49.8280 P.3    93  C93         0.2141
   1988  C5'       65.2610   52.2920   49.6890 C.3    93  C93         0.1812
   1989  O5'       64.7850   53.4570   49.0360 O.3    93  C93        -0.3114
   1990  C4'       65.9650   51.3420   48.7500 C.3    93  C93         0.1773
   1991  O4'       65.1510   51.0660   47.5830 O.3    93  C93        -0.3307
   1992  C3'       67.3050   51.7890   48.1920 C.3    93  C93         0.1860
   1993  O3'       68.3440   51.5010   49.0960 O.3    93  C93        -0.3112
   1994  C2'       67.4230   50.9300   46.9500 C.3    93  C93         0.2309
   1995  O2'       67.7690   49.6090   47.3300 O.3    93  C93        -0.2156
   1996  C1'       65.9810   50.9270   46.4570 C.3    93  C93         0.2420
   1997  N1        65.6630   52.0890   45.5900 N.ar   93  C93        -0.2535
   1998  C2        66.1520   52.1540   44.2800 C.ar   93  C93         0.3532
   1999  O2        66.8450   51.2280   43.8480 O.2    93  C93        -0.2443
   2000  N3        65.8420   53.2210   43.5180 N.ar   93  C93        -0.1739
   2001  C4        65.0820   54.1940   44.0120 C.ar   93  C93         0.1759
   2002  N4        64.8100   55.2320   43.2060 N.pl3  93  C93        -0.1070
   2003  C5        64.5720   54.1480   45.3470 C.ar   93  C93         0.0566
   2004  C6        64.8830   53.0850   46.0910 C.ar   93  C93         0.0850
   2005  OP1       63.9980   53.9990   51.2400 O.3    93  C93        -0.4373
   2006  OP2       63.6810   55.7110   49.4040 O.co2  93  C93        -0.5172
   2007  P         69.4190   52.5450   49.6130 P.3    94  G94         0.2141
   2008  C5'       70.9560   51.0550   48.0540 C.3    94  G94         0.1813
   2009  O5'       70.5660   52.3590   48.4990 O.3    94  G94        -0.3114
   2010  C4'       71.7700   51.0680   46.7710 C.3    94  G94         0.1801
   2011  O4'       70.8720   51.0090   45.6240 O.3    94  G94        -0.3306
   2012  C3'       72.6660   52.2840   46.5070 C.3    94  G94         0.2161
   2013  O3'       73.9630   52.2030   47.0690 O.3    94  G94        -0.2175
   2014  C2'       72.7380   52.3220   44.9920 C.3    94  G94         0.2337
   2015  O2'       73.6740   51.3370   44.5440 O.3    94  G94        -0.2155
   2016  C1'       71.2930   51.9200   44.6350 C.3    94  G94         0.2409
   2017  N1        68.5950   55.6940   42.2800 N.ar   94  G94        -0.1709
   2018  C2        69.4240   54.7310   41.7380 C.ar   94  G94         0.2606
   2019  N2        69.5530   54.7600   40.4160 N.pl3  94  G94        -0.0859
   2020  N3        70.0780   53.7930   42.4140 N.ar   94  G94        -0.1918
   2021  C4        69.8300   53.8970   43.7350 C.ar   94  G94         0.1723
   2022  C5        69.0150   54.8250   44.3740 C.ar   94  G94         0.1748
   2023  C6        68.3240   55.8210   43.6320 C.ar   94  G94         0.3023
   2024  O6        67.5640   56.7320   44.0140 O.2    94  G94        -0.2633
   2025  N7        69.0260   54.5970   45.7410 N.ar   94  G94        -0.2173
   2026  C8        69.8250   53.5710   45.8790 C.ar   94  G94         0.1817
   2027  N9        70.3570   53.0700   44.7160 N.ar   94  G94        -0.2693
   2028  OP1       69.8870   52.0440   50.9310 O.3    94  G94        -0.4373
   2029  OP2       68.9110   53.9330   49.4920 O.co2  94  G94        -0.5172
@<TRIPOS>BOND
     1   734   733    1
     2   733   732   ar
     3   733   735   ar
     4   732   730   ar
     5   735   736   ar
     6   737   719    2
     7   730   731    2
     8   730   729   ar
     9   736   729   ar
    10   705   704    1
    11   729   728    1
    12   719   703    1
    13   719   721    1
    14   719   738    1
    15   703   702    1
    16   721   720    1
    17   704   702    1
    18   704   706    1
    19   723   728    1
    20   723   722    1
    21   720   722    1
    22   702   700    1
    23   728   726    1
    24   722   724    1
    25   706   716    1
    26   706   701    1
    27   726   724    1
    28   726   727    1
    29   700   701    1
    30   700   698    1
    31   716   715   ar
    32   716   710   ar
    33   756   755    2
    34   715   714   ar
    35   724   725    1
    36   699   698    1
    37   699   697    1
    38   714   711   ar
    39   710   709   ar
    40   710   711   ar
    41   709   708   ar
    42   718   697    2
    43   755   754   ar
    44   755   749   ar
    45   711   712   ar
    46   757   754   ar
    47   757   758   ar
    48   717   697    1
    49   697   680    1
    50   725   739    1
    51   754   753   ar
    52   708   707   ar
    53   749   750   ar
    54   712   707   ar
    55   712   713    1
    56   758   759   ar
    57   761   739    2
    58   652   634    2
    59   753   759   ar
    60   753   752   ar
    61   739   741    1
    62   739   760    1
    63   750   751    1
    64   750   752   ar
    65   741   740    1
    66   673   654    2
    67   691   690    2
    68   759   748    1
    69   680   679    1
    70   696   674    2
    71   653   634    1
    72   634   636    1
    73   634   620    1
    74   690   684   ar
    75   690   689   ar
    76   672   654    1
    77   743   748    1
    78   743   742    1
    79   632   614    2
    80   684   685   ar
    81   679   681    1
    82   679   677    1
    83   740   742    1
    84   689   692   ar
    85   689   688   ar
    86   654   640    1
    87   654   656    1
    88   692   693   ar
    89   695   674    1
    90   748   746    1
    91   674   676    1
    92   674   660    1
    93   685   686    1
    94   685   687   ar
    95   681   682    1
    96   681   683    1
    97   431   430    1
    98   436   415    2
    99   636   635    1
   100   635   637    1
   101   409   408    2
   102   620   619    1
   103   688   687   ar
   104   688   694   ar
   105   676   675    1
   106   693   694   ar
   107   633   614    1
   108   742   744    1
   109   614   616    1
   110   614   597    1
   111   640   639    1
   112   694   683    1
   113   432   429   ar
   114   432   433   ar
   115   410   407   ar
   116   410   411   ar
   117   430   429   ar
   118   430   425   ar
   119   746   744    1
   120   746   747    1
   121   656   655    1
   122   408   407   ar
   123   408   402   ar
   124   423   422    1
   125   429   428   ar
   126   675   677    1
   127   677   678    1
   128   616   615    1
   129   407   406   ar
   130   433   434   ar
   131   411   412   ar
   132   425   426   ar
   133   683   678    1
   134   422   420    1
   135   422   424    1
   136   639   637    1
   137   639   641    1
   138   619   617    1
   139   619   621    1
   140   615   617    1
   141   637   638    1
   142   402   403   ar
   143   660   659    1
   144   415   435    1
   145   415   398    1
   146   415   417    1
   147   399   400    1
   148   399   397    1
   149   399   401    1
   150   744   745    1
   151   428   434   ar
   152   428   427   ar
   153   669   668    1
   154   434   424    1
   155   406   412   ar
   156   406   405   ar
   157   426   427   ar
   158   420   421    1
   159   420   418    1
   160   412   401    1
   161   670   668   ar
   162   670   671   ar
   163   454   453    2
   164   597   596    1
   165   397   398    1
   166   397   395    1
   167   655   657    1
   168   659   657    1
   169   659   661    1
   170   617   618    1
   171   421   437    1
   172  1648  1647    1
   173  1606  1607   ar
   174  1606  1611   ar
   175   403   405   ar
   176   403   404    1
   177  1607  1608   ar
   178   347   326    2
   179   668   667   ar
   180   671   664   ar
   181   424   419    1
   182  1629  1630   ar
   183  1629  1628   ar
   184   455   452   ar
   185   455   456   ar
   186   417   416    1
   187   401   396    1
   188   745   762    1
   189   285   290    1
   190   285   284    1
   191   621   622    1
   192   621   623    1
   193   414   392    2
   194   638   643    1
   195   650   651   ar
   196   650   648   ar
   197   453   452   ar
   198   453   447   ar
   199   289   288    1
   200   651   644   ar
   201   657   658    1
   202  1630  1631   ar
   203   641   643    1
   204   641   642    1
   205   290   288    1
   206   290   300    1
   207   612   591    2
   208   367   349    2
   209   324   303    2
   210   452   451   ar
   211   667   665   ar
   212  1612  1611    1
   213  1608  1609   ar
   214  1611  1610   ar
   215   661   663    1
   216   661   662    1
   217   649   648    1
   218   456   457   ar
   219   418   416    1
   220   418   419    1
   221  1628  1633   ar
   222   392   413    1
   223   392   394    1
   224   392   375    1
   225   284   286    1
   226   284   282    1
   227   648   647   ar
   228   459   437    2
   229   664   665   ar
   230   664   663    1
   231   631   630   ar
   232   631   624   ar
   233   613   591    1
   234   596   594    1
   235   596   598    1
   236   592   594    1
   237   592   593    1
   238   395   393    1
   239   395   396    1
   240   630   628   ar
   241   386   385    2
   242   644   643    1
   243   644   645   ar
   244   393   394    1
   245  1649  1647    1
   246  1649  1644    1
   247  1649  1659    1
   248  1626  1625    1
   249   447   448   ar
   250   618   623    1
   251  1647  1645    1
   252   287   286    1
   253   287   303    1
   254   368   349    1
   255   326   348    1
   256   326   309    1
   257   326   328    1
   258   437   439    1
   259   437   458    1
   260   665   666    2
   261   390   369    2
   262   391   369    1
   263   658   663    1
   264   288   286    1
   265  1644  1643    1
   266  1652  1651   ar
   267  1652  1653   ar
   268   300   299   ar
   269   300   294   ar
   270   647   645   ar
   271   780   779   ar
   272   780   781   ar
   273  1643  1645    1
   274  1643  1641    1
   275   779   776   ar
   276   591   593    1
   277   591   574    1
   278   623   624    1
   279   594   595    1
   280   299   298   ar
   281   645   646    2
   282   624   625   ar
   283   349   351    1
   284   349   332    1
   285   451   457   ar
   286   451   450   ar
   287  1609  1610   ar
   288  1609  1615   ar
   289   457   446    1
   290  1646  1645    1
   291  1646  1662    1
   292  1610  1613   ar
   293   387   384   ar
   294   387   388   ar
   295   766   771    1
   296   766   765    1
   297  1631  1637   ar
   298  1631  1632   ar
   299   303   325    1
   300   303   305    1
   301   282   283    1
   302   385   384   ar
   303   385   379   ar
   304  1651  1650   ar
   305   762   782    2
   306   762   783    1
   307   762   764    1
   308   628   629    1
   309   628   627   ar
   310   309   308    1
   311   439   438    1
   312   369   371    1
   313   369   355    1
   314  1627  1625    1
   315  1627  1637    1
   316  1627  1622    1
   317   294   293   ar
   318   294   295   ar
   319   448   450   ar
   320   448   449    1
   321   598   599    1
   322   598   600    1
   323  1633  1632   ar
   324  1633  1634    1
   325   384   383   ar
   326   293   292   ar
   327  1625  1623    1
   328   781   771    1
   329   781   775   ar
   330   477   476    2
   331   763   764    1
   332   763   765    1
   333   328   327    1
   334   298   295   ar
   335  1659  1653   ar
   336  1659  1658   ar
   337   371   370    1
   338   776   777   ar
   339   776   775   ar
   340  1653  1654   ar
   341   388   389   ar
   342   375   374    1
   343   778   777    1
   344  1641  1642    1
   345   771   769    1
   346   327   329    1
   347  1637  1636   ar
   348   625   627   ar
   349   625   626    2
   350   379   380   ar
   351   441   446    1
   352   441   440    1
   353   351   350    1
   354   295   296   ar
   355  1680  1662    2
   356  1632  1635   ar
   357   765   767    1
   358   446   444    1
   359  1615  1605    1
   360  1615  1614   ar
   361   332   331    1
   362   374   376    1
   363   374   372    1
   364  1613  1614   ar
   365  1622  1621    1
   366   777   772   ar
   367   775   774   ar
   368   305   304    1
   369   574   573    1
   370   292   291   ar
   371   476   470   ar
   372   476   475   ar
   373   304   306    1
   374   438   440    1
   375  1662  1681    1
   376  1662  1664    1
   377   308   306    1
   378   308   310    1
   379   595   600    1
   380   383   389   ar
   381   383   382   ar
   382   470   471   ar
   383  1650  1655   ar
   384  1605  1603    1
   385  1605  1600    1
   386   306   307    1
   387   389   378    1
   388  1604  1603    1
   389   376   378    1
   390   376   377    1
   391   283   281    1
   392   350   352    1
   393   329   331    1
   394   329   330    1
   395   296   291   ar
   396   296   297    1
   397   380   382   ar
   398   380   381    1
   399   600   611    1
   400  1308  1309   ar
   401  1308  1313   ar
   402  1309  1310   ar
   403   355   354    1
   404  1658  1657   ar
   405   331   333    1
   406   370   372    1
   407   772   773   ar
   408  1603  1601    1
   409  1642  1640    1
   410  1623  1621    1
   411  1623  1624    1
   412  1621  1619    1
   413   440   442    1
   414   774   773   ar
   415  1654  1655   ar
   416  1654  1657   ar
   417   475   478   ar
   418   475   474   ar
   419  1636  1635   ar
   420  1663  1664    1
   421  1663  1665    1
   422   478   479   ar
   423  1624  1640    1
   424   471   472    1
   425   471   473   ar
   426   576   575    1
   427   610   611   ar
   428   610   609   ar
   429   611   605   ar
   430   372   373    1
   431   769   767    1
   432   769   770    1
   433   378   373    1
   434  1655  1656    1
   435   354   352    1
   436   354   356    1
   437  1314  1313    1
   438   444   442    1
   439   444   445    1
   440   301   281    2
   441   767   768    1
   442  1665  1666    1
   443  1665  1667    1
   444  1313  1312   ar
   445   500   499    2
   446  1310  1311   ar
   447  1666  1671    1
   448  1600  1599    1
   449   573   575    1
   450   573   571    1
   451   281   302    1
   452   281   264    1
   453   311   310    1
   454   474   473   ar
   455   474   480   ar
   456   310   312    1
   457   352   353    1
   458   575   577    1
   459  1660  1640    2
   460   365   366   ar
   461   365   363   ar
   462   609   606   ar
   463   493   499   ar
   464   493   494   ar
   465   442   443    1
   466  1640  1661    1
   467   605   604   ar
   468   605   606   ar
   469   307   312    1
   470   479   480   ar
   471   495   494    1
   472   330   335    1
   473   499   498   ar
   474   364   363    2
   475   366   359   ar
   476   604   602   ar
   477   606   607   ar
   478  1311  1312   ar
   479  1311  1317   ar
   480  1312  1315   ar
   481   480   469    1
   482  1619  1620    1
   483   363   362   ar
   484   494   496   ar
   485   800   799    1
   486   333   334    1
   487   333   335    1
   488  1331  1332   ar
   489  1331  1330   ar
   490   768   784    1
   491  1601  1599    1
   492  1601  1602    1
   493  1670  1669    1
   494  1671  1669    1
   495  1671  1672    1
   496   571   569    1
   497   571   572    1
   498  1332  1333   ar
   499   312   323    1
   500   266   265    1
   501   345   344   ar
   502   345   346   ar
   503   353   358    1
   504   602   603    1
   505   602   601   ar
   506   356   358    1
   507   356   357    1
   508  1599  1597    1
   509  1668  1667    1
   510  1668  1682    1
   511  1667  1669    1
   512   607   601   ar
   513   607   608    2
   514  1620  1618    1
   515   264   263    1
   516   359   358    1
   517   359   360   ar
   518   335   346    1
   519   801   798   ar
   520   801   802   ar
   521  1330  1335   ar
   522  1317  1307    1
   523  1317  1316   ar
   524   498   497   ar
   525   498   501   ar
   526   322   323   ar
   527   322   321   ar
   528   344   341   ar
   529   482   460    2
   530  1602  1618    1
   531   569   570    1
   532  1315  1316   ar
   533   469   464    1
   534   469   467    1
   535   799   798   ar
   536   799   794   ar
   537   362   360   ar
   538   443   460    1
   539  1307  1302    1
   540  1307  1305    1
   541  1581  1580    1
   542   577   588    1
   543   577   572    1
   544   496   497   ar
   545   346   340   ar
   546   323   317   ar
   547  1328  1327    1
   548   464   463    1
   549  1679  1672   ar
   550  1679  1678   ar
   551   798   797   ar
   552   805   784    2
   553  1306  1305    1
   554   570   568    1
   555  1672  1673   ar
   556   497   503   ar
   557   360   361    2
   558  1616  1596    2
   559   589   568    2
   560   501   502   ar
   561  1333  1339   ar
   562  1333  1334   ar
   563  1329  1324    1
   564  1329  1339    1
   565  1329  1327    1
   566   802   803   ar
   567   587   588   ar
   568   587   586   ar
   569   265   263    1
   570   265   267    1
   571   588   582   ar
   572   568   590    1
   573   568   554    1
   574  1598  1597    1
   575  1598  1596    1
   576  1703  1682    2
   577   321   318   ar
   578   784   786    1
   579   784   804    1
   580   794   795   ar
   581  1324  1323    1
   582   822   821    1
   583   341   340   ar
   584   341   342   ar
   585   263   261    1
   586  1302  1301    1
   587   586   583   ar
   588  1305  1303    1
   589  1335  1334   ar
   590  1335  1336    1
   591  1682  1704    1
   592  1682  1684    1
   593  1585  1584    1
   594   460   462    1
   595   460   481    1
   596  1618  1639    2
   597  1618  1638    1
   598   340   339   ar
   599   582   581   ar
   600   582   583   ar
   601  1339  1338   ar
   602  1579  1596    1
   603  1579  1578    1
   604  1678  1676   ar
   605   581   579   ar
   606  1394  1393    2
   607   583   584   ar
   608   797   803   ar
   609   797   796   ar
   610  1334  1337   ar
   611  1327  1325    1
   612   317   318   ar
   613   317   316   ar
   614   462   461    1
   615   803   793    1
   616   816   821   ar
   617   816   817   ar
   618  1596  1617    1
   619   786   785    1
   620   502   503   ar
   621   503   492    1
   622  1580  1578    1
   623  1580  1582    1
   624   467   468    1
   625   467   465    1
   626  1673  1674    2
   627  1673  1675   ar
   628   318   319   ar
   629   795   796   ar
   630   821   820   ar
   631   342   343    2
   632   342   336   ar
   633   579   578   ar
   634   579   580    1
   635  1323  1325    1
   636  1323  1321    1
   637   788   793    1
   638   788   787    1
   639   584   578   ar
   640   584   585    2
   641   463   461    1
   642   463   465    1
   643   339   337   ar
   644  1395  1393   ar
   645  1395  1396   ar
   646  1683  1684    1
   647  1683  1685    1
   648  1414  1413    2
   649  1393  1392   ar
   650   316   314   ar
   651   267   278    1
   652   267   262    1
   653  1338  1337   ar
   654  1584  1586   ar
   655  1584  1583   ar
   656  1586  1587   ar
   657   817   818   ar
   658  1578  1576    1
   659  1301  1303    1
   660  1301  1299    1
   661   793   791    1
   662   554   553    1
   663   785   787    1
   664   465   466    1
   665   261   262    1
   666   261   259    1
   667   492   487    1
   668   492   490    1
   669  1676  1675   ar
   670  1676  1677    1
   671  1410  1409    1
   672  1325  1326    1
   673   336   337   ar
   674  1303  1304    1
   675  1397  1396    1
   676   337   338    1
   677   820   823   ar
   678   820   819   ar
   679  1396  1398   ar
   680  1582  1577    1
   681  1582  1593    1
   682   319   320    2
   683   319   313   ar
   684  1321  1322    1
   685   278   277   ar
   686   278   272   ar
   687  1413  1415   ar
   688  1413  1412   ar
   689  1411  1406    1
   690  1411  1412    1
   691  1411  1409    1
   692  1576  1577    1
   693  1576  1574    1
   694   487   486    1
   695   277   276   ar
   696  1392  1391    1
   697  1392  1399   ar
   698  1326  1342    1
   699   787   789    1
   700  1391  1386    1
   701  1391  1389    1
   702  1686  1685    1
   703  1686  1691    1
   704   314   313   ar
   705   314   315    1
   706  1685  1687    1
   707  1300  1299    1
   708  1300  1298    1
   709   260   259    1
   710   260   258    1
   711   823   824   ar
   712  1390  1389    1
   713  1406  1405    1
   714   818   819   ar
   715  1415  1416   ar
   716  1583  1589   ar
   717   280   258    2
   718  1319  1298    2
   719   279   258    1
   720  1304  1320    1
   721  1412  1419   ar
   722   819   825   ar
   723  1587  1593   ar
   724  1587  1588   ar
   725   566   548    2
   726   553   555    1
   727   553   551    1
   728   843   842    1
   729  1360  1342    2
   730   567   548    1
   731  1409  1407    1
   732  1398  1399   ar
   733   272   271   ar
   734   272   273   ar
   735  1322  1320    1
   736  1593  1592   ar
   737   276   273   ar
   738   258   242    1
   739   271   269   ar
   740  1386  1385    1
   741   490   491    1
   742   490   488    1
   743  1342  1361    1
   744  1342  1344    1
   745   505   483    2
   746  1389  1387    1
   747   466   483    1
   748   791   789    1
   749   791   792    1
   750  1405  1407    1
   751  1405  1403    1
   752   555   556    1
   753   555   557    1
   754   824   825   ar
   755   841   842   ar
   756   841   839   ar
   757  1574  1575    1
   758   789   790    1
   759  1416  1417    1
   760  1416  1418   ar
   761  1562  1561    1
   762  1298  1318    1
   763  1298  1284    1
   764   548   550    1
   765   548   534    1
   766   273   274   ar
   767   485   483    1
   768   485   484    1
   769   825   815    1
   770  1419  1418   ar
   771   842   844   ar
   772   550   549    1
   773   486   484    1
   774   486   488    1
   775  1691  1702    1
   776  1691  1689    1
   777  1701  1702   ar
   778  1701  1700   ar
   779  1320  1341    2
   780  1320  1340    1
   781  1589  1588   ar
   782  1589  1590    2
   783  1588  1591   ar
   784   547   528    2
   785  1426  1431    1
   786  1426  1425    1
   787   840   839    2
   788   483   504    1
   789   269   270    1
   790   269   268   ar
   791   549   551    1
   792  1687  1688    1
   793  1687  1689    1
   794  1407  1408    1
   795   564   565   ar
   796   564   562   ar
   797   551   552    1
   798   488   489    1
   799  1430  1429    1
   800   563   562    2
   801   565   558   ar
   802   839   838   ar
   803  1431  1432    1
   804  1431  1429    1
   805   562   561   ar
   806  1434  1433    2
   807  1702  1696   ar
   808  1592  1591   ar
   809  1403  1404    1
   810  1688  1705    1
   811   546   528    1
   812  1425  1423    1
   813  1425  1427    1
   814  1561  1560   ar
   815  1561  1563   ar
   816   274   268   ar
   817   274   275    2
   818  1560  1566   ar
   819  1700  1697   ar
   820  1408  1422    1
   821  1385  1387    1
   822  1385  1383    1
   823   860   859    2
   824   863   862    1
   825   861   859   ar
   826   861   862   ar
   827  1575  1573    1
   828   558   557    1
   829   558   559   ar
   830   815   810    1
   831   815   813    1
   832   561   559   ar
   833  1690  1689    1
   834   557   552    1
   835  1387  1388    1
   836  1344  1343    1
   837   242   241    1
   838   559   560    2
   839  1284  1283    1
   840   790   806    1
   841  1423  1424    1
   842   844   845   ar
   843  1358  1359   ar
   844  1358  1356   ar
   845  1433  1432   ar
   846  1433  1435   ar
   847   528   530    1
   848   528   512    1
   849  1432  1439   ar
   850   256   236    2
   851   859   858   ar
   852   810   809    1
   853   862   864   ar
   854   526   506    2
   855   534   533    1
   856  1429  1427    1
   857   827   806    2
   858  1724  1705    2
   859  1357  1356    2
   860   238   236    1
   861   238   237    1
   862  1388  1402    1
   863  1723  1705    1
   864  1404  1402    1
   865  1563  1564   ar
   866  1567  1566    2
   867  1705  1707    1
   868   880   879    2
   869   838   845   ar
   870   838   837    1
   871  1566  1565   ar
   872   234   213    2
   873  1696  1697   ar
   874  1696  1695   ar
   875  1424  1422    1
   876   257   236    1
   877  1435  1436   ar
   878  1359  1352   ar
   879  1697  1698   ar
   880   489   506    1
   881  1427  1428    1
   882  1383  1384    1
   883  1286  1285    1
   884   530   529    1
   885  1439  1438   ar
   886  1356  1355   ar
   887   236   219    1
   888   241   239    1
   889   241   243    1
   890   808   806    1
   891   808   807    1
   892  1343  1345    1
   893  1384  1382    1
   894  1594  1573    2
   895   806   826    1
   896   237   239    1
   897  1428  1442    1
   898   813   814    1
   899   813   811    1
   900  1422  1440    2
   901  1422  1441    1
   902   533   531    1
   903   533   535    1
   904   858   865   ar
   905   858   857    1
   906  1573  1556    1
   907  1573  1595    1
   908   864   865   ar
   909  1283  1285    1
   910  1283  1281    1
   911   506   527    1
   912   506   508    1
   913  1285  1287    1
   914  1558  1557    1
   915   879   881   ar
   916   879   878   ar
   917  1564  1565   ar
   918  1564  1570   ar
   919  1436  1438   ar
   920  1436  1437    2
   921   512   511    1
   922   529   531    1
   923  1402  1421    2
   924  1402  1420    1
   925  1695  1693   ar
   926  1557  1555    1
   927  1557  1559    1
   928  1565  1568   ar
   929   837   832    1
   930   837   835    1
   931   881   882   ar
   932   809   807    1
   933   809   811    1
   934   239   240    1
   935   896   895    1
   936   857   852    1
   937   857   855    1
   938  1444  1442    1
   939  1444  1443    1
   940   876   875    1
   941   877   878    1
   942   877   872    1
   943   877   875    1
   944  1698  1699    2
   945  1698  1692   ar
   946  1450  1449    1
   947  1556  1555    1
   948  1400  1382    2
   949   235   213    1
   950   213   215    1
   951   213   197    1
   952   900   899    1
   953  1446  1445    1
   954  1446  1451    1
   955   243   244    1
   956   243   245    1
   957   811   812    1
   958  1707  1706    1
   959   878   885   ar
   960   531   532    1
   961   507   508    1
   962   507   509    1
   963   535   536    1
   964   535   537    1
   965  1445  1443    1
   966  1445  1447    1
   967  1352  1351    1
   968  1352  1353   ar
   969  1463  1442    2
   970   832   831    1
   971   897   892    1
   972   897   895    1
   973   897   908    1
   974   211   191    2
   975  1382  1401    1
   976  1382  1368    1
   977  1355  1353   ar
   978  1451  1449    1
   979  1451  1462    1
   980   892   891    1
   981   901   899   ar
   982   901   902   ar
   983   254   253   ar
   984   254   255   ar
   985  1345  1346    1
   986  1345  1347    1
   987   544   545   ar
   988   544   542   ar
   989  1555  1553    1
   990  1570  1559    1
   991  1570  1569   ar
   992  1346  1351    1
   993   511   509    1
   994   511   513    1
   995   882   883    1
   996   882   884   ar
   997   545   538   ar
   998   872   871    1
   999   852   851    1
  1000   875   873    1
  1001  1706  1708    1
  1002  1693  1692   ar
  1003  1693  1694    1
  1004  1347  1349    1
  1005  1347  1348    1
  1006   219   218    1
  1007  1559  1554    1
  1008  1721  1722   ar
  1009  1721  1719   ar
  1010   899   898   ar
  1011  1442  1464    1
  1012   215   214    1
  1013  1568  1569   ar
  1014   856   855    1
  1015  1281  1279    1
  1016  1281  1282    1
  1017   835   836    1
  1018   835   833    1
  1019   253   250   ar
  1020  1454  1453    1
  1021  1455  1453   ar
  1022  1455  1456   ar
  1023   855   853    1
  1024   543   542    1
  1025  1720  1719    2
  1026  1349  1351    1
  1027  1349  1350    1
  1028  1290  1289    2
  1029   895   893    1
  1030  1448  1447    1
  1031  1448  1465    1
  1032   542   541   ar
  1033  1449  1447    1
  1034  1287  1288    1
  1035  1287  1282    1
  1036   885   884   ar
  1037   509   510    1
  1038   908   902   ar
  1039   908   907   ar
  1040  1722  1715   ar
  1041   240   245    1
  1042   197   196    1
  1043   902   903   ar
  1044  1353  1354    2
  1045   891   889    1
  1046   891   893    1
  1047  1462  1456   ar
  1048  1462  1461   ar
  1049  1453  1452   ar
  1050   538   537    1
  1051   538   539   ar
  1052  1719  1718   ar
  1053   532   537    1
  1054   245   255    1
  1055   255   249   ar
  1056  1456  1457   ar
  1057  1279  1280    1
  1058  1484  1465    2
  1059   847   828    2
  1060   898   904   ar
  1061  1368  1367    1
  1062  1709  1708    1
  1063  1709  1714    1
  1064   214   216    1
  1065  1483  1465    1
  1066  1280  1278    1
  1067  1348  1362    1
  1068   812   828    1
  1069   218   216    1
  1070   218   220    1
  1071  1289  1288   ar
  1072  1289  1291   ar
  1073   541   539   ar
  1074  1288  1295   ar
  1075   177   176    1
  1076  1296  1278    2
  1077  1465  1467    1
  1078   191   212    1
  1079   191   175    1
  1080   191   193    1
  1081   539   540    2
  1082  1461  1460   ar
  1083   871   873    1
  1084   871   869    1
  1085   513   514    1
  1086   513   515    1
  1087   831   833    1
  1088   831   829    1
  1089   907   906   ar
  1090  1708  1710    1
  1091  1452  1458   ar
  1092   903   904   ar
  1093   903   906   ar
  1094  1553  1554    1
  1095  1553  1551    1
  1096   889   890    1
  1097   893   894    1
  1098   833   834    1
  1099   250   249   ar
  1100   250   251   ar
  1101  1457  1460   ar
  1102  1457  1458   ar
  1103   851   853    1
  1104   851   849    1
  1105   915   914    1
  1106   915   920    1
  1107   873   874    1
  1108  1715  1714    1
  1109  1715  1716   ar
  1110   919   918    1
  1111  1367  1369    1
  1112  1367  1365    1
  1113   192   194    1
  1114   192   193    1
  1115   904   905    2
  1116  1291  1292   ar
  1117   196   194    1
  1118   196   198    1
  1119   830   828    1
  1120   830   829    1
  1121  1718  1716   ar
  1122   216   217    1
  1123   894   911    1
  1124   853   854    1
  1125   249   248   ar
  1126  1295  1294   ar
  1127  1545  1544    1
  1128   175   174    1
  1129  1458  1459    2
  1130  1370  1369    1
  1131  1278  1297    1
  1132  1278  1264    1
  1133   510   515    1
  1134   914   912    1
  1135   914   916    1
  1136   920   918    1
  1137   920   931    1
  1138   828   846    1
  1139  1714  1712    1
  1140   194   195    1
  1141   890   888    1
  1142   524   523   ar
  1143   524   525   ar
  1144  1716  1717    2
  1145   252   251    1
  1146   220   221    1
  1147   220   222    1
  1148   874   888    1
  1149   912   913    1
  1150  1292  1294   ar
  1151  1292  1293    1
  1152   515   525    1
  1153   251   246   ar
  1154   869   870    1
  1155   849   850    1
  1156  1381  1362    2
  1157  1369  1371    1
  1158   850   848    1
  1159  1552  1551    1
  1160  1552  1550    1
  1161   523   520   ar
  1162  1362  1364    1
  1163  1362  1380    1
  1164  1543  1544   ar
  1165  1543  1541   ar
  1166  1710  1712    1
  1167  1710  1711    1
  1168   232   231   ar
  1169   232   233   ar
  1170   525   519   ar
  1171   176   174    1
  1172   176   178    1
  1173   918   916    1
  1174   172   173    1
  1175   172   174    1
  1176   172   170    1
  1177  1365  1363    1
  1178  1365  1366    1
  1179  1544  1546   ar
  1180   173   178    1
  1181  1363  1364    1
  1182   834   848    1
  1183   931   930   ar
  1184   931   925   ar
  1185   231   228   ar
  1186   248   247   ar
  1187  1467  1466    1
  1188   854   868    1
  1189   199   198    1
  1190  1524  1523    2
  1191   178   188    1
  1192   870   868    1
  1193   198   200    1
  1194   217   222    1
  1195   916   917    1
  1196   930   929   ar
  1197   888   909    2
  1198   888   910    1
  1199   913   911    1
  1200   520   519   ar
  1201   520   521   ar
  1202   519   518   ar
  1203  1264  1263    1
  1204  1712  1713    1
  1205   917   934    1
  1206   911   932    2
  1207   911   933    1
  1208   867   848    2
  1209   222   233    1
  1210   233   227   ar
  1211  1542  1541    2
  1212   848   866    1
  1213  1541  1540   ar
  1214   924   925   ar
  1215   924   922   ar
  1216   246   247   ar
  1217   925   926   ar
  1218  1711  1725    1
  1219  1572  1550    2
  1220   195   200    1
  1221  1480  1479    1
  1222  1740  1739    2
  1223  1501  1500    1
  1224  1481  1479   ar
  1225  1481  1482   ar
  1226   935   937    1
  1227   935   936    1
  1228   170   171    1
  1229  1371  1366    1
  1230  1371  1372    1
  1231  1550  1571    1
  1232  1550  1536    1
  1233  1546  1547   ar
  1234  1744  1725    2
  1235  1466  1468    1
  1236   518   517   ar
  1237   521   522    1
  1238   521   516   ar
  1239   868   887    2
  1240   868   886    1
  1241   228   227   ar
  1242   228   229   ar
  1243   929   926   ar
  1244   937   938    1
  1245   937   939    1
  1246   938   943    1
  1247  1506  1485    2
  1248  1523  1517   ar
  1249  1523  1522   ar
  1250   926   927   ar
  1251   922   923    1
  1252   922   921   ar
  1253   200   210    1
  1254  1479  1478   ar
  1255   227   226   ar
  1256   952   934    2
  1257  1374  1373    2
  1258  1263  1265    1
  1259  1263  1261    1
  1260  1482  1475   ar
  1261   517   516   ar
  1262  1739  1741   ar
  1263  1739  1738   ar
  1264   936   934    1
  1265  1540  1547   ar
  1266  1540  1539    1
  1267  1505  1485    1
  1268  1741  1742   ar
  1269   188   187   ar
  1270   188   182   ar
  1271   230   229    2
  1272  1266  1265    1
  1273  1725  1743    1
  1274  1725  1727    1
  1275  1517  1518   ar
  1276  1265  1267    1
  1277   229   223   ar
  1278  1502  1499   ar
  1279  1502  1503   ar
  1280  1500  1499   ar
  1281  1500  1495   ar
  1282  1485  1471    1
  1283  1485  1487    1
  1284   934   953    1
  1285  1537  1535    1
  1286  1537  1539    1
  1287  1537  1538    1
  1288  1471  1470    1
  1289   921   927   ar
  1290  1372  1373   ar
  1291  1372  1379   ar
  1292   927   928    2
  1293  1525  1522   ar
  1294  1525  1526   ar
  1295   210   209   ar
  1296   210   204   ar
  1297   209   208   ar
  1298  1522  1521   ar
  1299  1470  1468    1
  1300  1470  1472    1
  1301   187   186   ar
  1302  1536  1535    1
  1303  1373  1375   ar
  1304   943   941    1
  1305   943   944    1
  1306   171   169    1
  1307   942   941    1
  1308  1468  1469    1
  1309  1529  1507    2
  1310  1535  1533    1
  1311   226   224   ar
  1312  1499  1498   ar
  1313   940   939    1
  1314   940   954    1
  1315  1478  1476   ar
  1316   939   941    1
  1317  1738  1736   ar
  1318  1539  1534    1
  1319  1742  1735   ar
  1320   181   182   ar
  1321   181   180   ar
  1322  1495  1496   ar
  1323   182   183   ar
  1324  1270  1269    2
  1325  1475  1476   ar
  1326  1475  1474    1
  1327  1503  1504   ar
  1328   223   224   ar
  1329  1727  1726    1
  1330   951   944   ar
  1331   951   950   ar
  1332  1379  1378   ar
  1333   208   205   ar
  1334  1518  1519    1
  1335  1518  1520   ar
  1336  1762  1761    2
  1337   204   203   ar
  1338   204   205   ar
  1339  1784  1783    1
  1340  1261  1259    1
  1341  1261  1262    1
  1342  1549  1530    2
  1343  1469  1474    1
  1344  1269  1271   ar
  1345  1269  1268   ar
  1346   224   225    1
  1347  1271  1272   ar
  1348   944   945   ar
  1349   190   169    2
  1350  1842  1841    1
  1351  1526  1527   ar
  1352  1260  1259    1
  1353  1260  1258    1
  1354   203   202   ar
  1355  1267  1268    1
  1356  1267  1262    1
  1357  1476  1477    2
  1358  1268  1275   ar
  1359  1521  1520   ar
  1360  1521  1527   ar
  1361  1375  1376   ar
  1362   205   206   ar
  1363  1272  1273    1
  1364  1272  1274   ar
  1365  1532  1530    1
  1366  1532  1531    1
  1367  1472  1474    1
  1368  1472  1473    1
  1369   950   948   ar
  1370  1801  1800   ar
  1371  1801  1802   ar
  1372  1800  1805   ar
  1373  1487  1486    1
  1374   186   183   ar
  1375   169   155    1
  1376   169   189    1
  1377  1735  1736   ar
  1378  1735  1734    1
  1379  1275  1274   ar
  1380  1498  1504   ar
  1381  1498  1497   ar
  1382  1736  1737    2
  1383  1534  1533    1
  1384  1507  1528    1
  1385  1507  1509    1
  1386  1507  1491    1
  1387   157   156    1
  1388  1486  1488    1
  1389  1726  1728    1
  1390  1533  1531    1
  1391  1504  1494    1
  1392  1276  1258    2
  1393   974   954    2
  1394  1778  1783   ar
  1395  1778  1779   ar
  1396  1496  1497   ar
  1397   954   975    1
  1398   954   956    1
  1399   183   184   ar
  1400   180   179   ar
  1401  1783  1782   ar
  1402  1378  1376   ar
  1403  1277  1258    1
  1404  1530  1548    1
  1405  1530  1513    1
  1406  1527  1516    1
  1407   945   946    2
  1408   945   947   ar
  1409  1761  1755   ar
  1410  1761  1760   ar
  1411  1820  1819    1
  1412   202   201   ar
  1413  1823  1824   ar
  1414  1823  1822   ar
  1415  1729  1734    1
  1416  1729  1728    1
  1417   155   154    1
  1418  1258  1241    1
  1419  1824  1825   ar
  1420  1509  1508    1
  1421   206   201   ar
  1422   206   207    1
  1423  1376  1377    2
  1424   948   947   ar
  1425   948   949    1
  1426  1490  1488    1
  1427  1490  1491    1
  1428  1490  1492    1
  1429  1802  1803   ar
  1430  1843  1838    1
  1431  1843  1841    1
  1432  1843  1854    1
  1433  1837  1838    1
  1434  1837  1839    1
  1435  1837  1835    1
  1436  1841  1839    1
  1437  1755  1756   ar
  1438  1860  1858    1
  1439  1860  1861    1
  1440  1860  1862    1
  1441  1805  1806    1
  1442  1805  1804   ar
  1443  1858  1859    1
  1444   156   154    1
  1445   156   158    1
  1446  1861  1866    1
  1447  1734  1732    1
  1448  1763  1760   ar
  1449  1763  1764   ar
  1450   955   956    1
  1451   955   957    1
  1452  1489  1488    1
  1453  1489  1494    1
  1454  1728  1730    1
  1455  1865  1864    1
  1456  1760  1759   ar
  1457  1822  1827   ar
  1458  1840  1839    1
  1459  1840  1857    1
  1460  1779  1780   ar
  1461  1512  1514    1
  1462  1512  1513    1
  1463  1512  1510    1
  1464  1494  1492    1
  1465  1821  1819    1
  1466  1821  1831    1
  1467  1821  1816    1
  1468  1492  1493    1
  1469   154   152    1
  1470  1819  1817    1
  1471  1782  1785   ar
  1472  1782  1781   ar
  1473   179   184   ar
  1474  1514  1516    1
  1475  1514  1515    1
  1476   184   185    1
  1477  1846  1845    1
  1478  1847  1845   ar
  1479  1847  1848   ar
  1480  1825  1831   ar
  1481  1825  1826   ar
  1482  1835  1836    1
  1483  1516  1511    1
  1484  1866  1864    1
  1485  1866  1876    1
  1486  1730  1732    1
  1487  1730  1731    1
  1488   958   957    1
  1489   958   963    1
  1490  1877  1857    2
  1491  1803  1804   ar
  1492  1803  1809   ar
  1493  1785  1786   ar
  1494  1241  1240    1
  1495  1508  1510    1
  1496  1863  1862    1
  1497  1863  1879    1
  1498  1854  1848   ar
  1499  1854  1853   ar
  1500  1831  1830   ar
  1501  1804  1807   ar
  1502  1511  1510    1
  1503   957   959    1
  1504  1764  1765   ar
  1505  1862  1864    1
  1506  1767  1745    2
  1507  1845  1844   ar
  1508  1756  1757    1
  1509  1756  1758   ar
  1510  1252  1251    2
  1511  1816  1815    1
  1512  1859  1857    1
  1513   161   160    2
  1514  1245  1251   ar
  1515  1245  1246   ar
  1516  1247  1246    1
  1517  1732  1733    1
  1518  1848  1849   ar
  1519   158   159    1
  1520   158   153    1
  1521  1827  1826   ar
  1522  1827  1828    1
  1523  1857  1878    1
  1524  1759  1758   ar
  1525  1759  1765   ar
  1526  1251  1250   ar
  1527  1780  1781   ar
  1528  1781  1787   ar
  1529   152   153    1
  1530   152   150    1
  1531  1246  1248   ar
  1532  1826  1829   ar
  1533   972   971   ar
  1534   972   973   ar
  1535   971   968   ar
  1536  1897  1879    2
  1537  1240  1242    1
  1538  1240  1238    1
  1539  1817  1815    1
  1540  1817  1818    1
  1541  1815  1813    1
  1542  1731  1745    1
  1543  1876  1875   ar
  1544  1876  1870   ar
  1545  1836  1834    1
  1546  1818  1834    1
  1547  1853  1852   ar
  1548  1765  1754    1
  1549  1250  1249   ar
  1550  1250  1253   ar
  1551  1242  1243    1
  1552  1242  1244    1
  1553   160   159   ar
  1554   160   162   ar
  1555  1248  1249   ar
  1556  1809  1799    1
  1557  1809  1808   ar
  1558   159   166   ar
  1559   963   973    1
  1560   963   961    1
  1561  1786  1787   ar
  1562  1879  1898    1
  1563  1879  1881    1
  1564   973   967   ar
  1565  1830  1829   ar
  1566  1844  1850   ar
  1567  1249  1255   ar
  1568  1745  1747    1
  1569  1745  1766    1
  1570  1807  1808   ar
  1571  1798  1797    1
  1572   968   967   ar
  1573   968   969   ar
  1574  1875  1874   ar
  1575  1253  1254   ar
  1576  1799  1797    1
  1577  1799  1794    1
  1578  1849  1852   ar
  1579  1849  1850   ar
  1580   970   969    1
  1581   959   960    1
  1582   959   961    1
  1583  1787  1777    1
  1584   150   151    1
  1585  1257  1235    2
  1586  1880  1881    1
  1587  1880  1882    1
  1588  1797  1795    1
  1589  1869  1870   ar
  1590  1869  1868   ar
  1591   967   966   ar
  1592  1870  1871   ar
  1593   969   964   ar
  1594  1834  1855    2
  1595  1834  1856    1
  1596  1255  1254   ar
  1597  1255  1244    1
  1598   162   163   ar
  1599  1747  1746    1
  1600  1237  1236    1
  1601  1237  1235    1
  1602   960   976    1
  1603  1850  1851    2
  1604   166   165   ar
  1605  1238  1236    1
  1606  1238  1239    1
  1607  1256  1235    1
  1608   961   962    1
  1609  1813  1814    1
  1610  1244  1239    1
  1611  1749  1754    1
  1612  1749  1748    1
  1613   151   149    1
  1614  1754  1752    1
  1615   966   965   ar
  1616  1874  1871   ar
  1617  1883  1882    1
  1618  1883  1888    1
  1619  1235  1221    1
  1620  1882  1884    1
  1621   964   965   ar
  1622  1871  1872   ar
  1623  1868  1867   ar
  1624  1794  1793    1
  1625   163   165   ar
  1626   163   164    1
  1627  1777  1775    1
  1628  1777  1772    1
  1629  1746  1748    1
  1630  1814  1812    1
  1631  1795  1793    1
  1632  1795  1796    1
  1633  1748  1750    1
  1634   976   996    2
  1635   976   997    1
  1636   976   978    1
  1637  1752  1750    1
  1638  1752  1753    1
  1639   167   149    2
  1640  1867  1872   ar
  1641  1872  1873    1
  1642    22     1    1
  1643  1888  1889    1
  1644  1888  1886    1
  1645  1775  1776    1
  1646  1775  1773    1
  1647  1750  1751    1
  1648   149   168    1
  1649   149   135    1
  1650  1793  1791    1
  1651  1772  1771    1
  1652  1796  1812    1
  1653   992   991    1
  1654  1887  1886    1
  1655  1896  1889   ar
  1656  1896  1895   ar
  1657   137   136    1
  1658   141   140    2
  1659  1884  1885    1
  1660  1884  1886    1
  1661  1221  1220    1
  1662  1230  1229    2
  1663  1889  1890   ar
  1664  1885  1899    1
  1665   136   134    1
  1666   136   138    1
  1667   978   977    1
  1668  1895  1893   ar
  1669  1812  1833    2
  1670  1812  1832    1
  1671  1789  1768    2
  1672   135   134    1
  1673   991   990   ar
  1674   991   986   ar
  1675  1229  1231   ar
  1676  1229  1228   ar
  1677   993   990   ar
  1678   993   994   ar
  1679  1220  1222    1
  1680  1220  1218    1
  1681  1231  1232   ar
  1682  1773  1771    1
  1683  1773  1774    1
  1684   140   142   ar
  1685   140   139   ar
  1686  1792  1791    1
  1687  1792  1790    1
  1688    23     1    1
  1689     1     3    1
  1690   990   989   ar
  1691   986   987   ar
  1692   142   143   ar
  1693  1751  1768    1
  1694   134   132    1
  1695  1771  1769    1
  1696  1228  1226   ar
  1697  1890  1891    2
  1698  1890  1892   ar
  1699   994   995   ar
  1700  1232  1225   ar
  1701     2     3    1
  1702     2     4    1
  1703  1216  1217    1
  1704  1216  1218    1
  1705  1217  1215    1
  1706  1222  1223    1
  1707  1222  1224    1
  1708  1893  1892   ar
  1709  1893  1894    2
  1710  1770  1768    1
  1711  1770  1769    1
  1712  1768  1788    1
  1713   977   979    1
  1714   138   139    1
  1715   138   133    1
  1716  1811  1790    2
  1717  1899  1920    2
  1718  1899  1921    1
  1719  1899  1901    1
  1720   139   146   ar
  1721  1226  1225   ar
  1722  1226  1227    2
  1723   989   995   ar
  1724   989   988   ar
  1725  1234  1215    2
  1726   987   988   ar
  1727  1225  1224    1
  1728  1218  1219    1
  1729   980   979    1
  1730   980   985    1
  1731   995   985    1
  1732  1774  1790    1
  1733  1790  1810    1
  1734   143   144    2
  1735   143   145   ar
  1736     4     5    1
  1737     4     6    1
  1738    45    24    2
  1739  1233  1215    1
  1740  1215  1198    1
  1741  1191  1169    2
  1742  1190  1169    1
  1743  1224  1219    1
  1744  1214  1192    2
  1745  1167  1149    2
  1746     7    24    1
  1747     7     6    1
  1748   979   981    1
  1749   132   133    1
  1750   132   130    1
  1751   146   145   ar
  1752   985   983    1
  1753  1901  1900    1
  1754  1900  1902    1
  1755    46    24    1
  1756    24    26    1
  1757     5    10    1
  1758  1169  1171    1
  1759  1169  1155    1
  1760  1213  1192    1
  1761  1013  1012    1
  1762     6     8    1
  1763  1209  1208    2
  1764  1192  1194    1
  1765  1192  1175    1
  1766  1903  1902    1
  1767  1903  1908    1
  1768   130   131    1
  1769  1014  1012   ar
  1770  1014  1015   ar
  1771  1012  1011   ar
  1772  1016   998    2
  1773   981   983    1
  1774   981   982    1
  1775  1198  1197    1
  1776   123   122    1
  1777  1902  1904    1
  1778  1149  1168    1
  1779  1149  1151    1
  1780  1149  1133    1
  1781  1208  1207   ar
  1782  1208  1202   ar
  1783  1210  1207   ar
  1784  1210  1211   ar
  1785   117   122   ar
  1786   117   118   ar
  1787  1171  1170    1
  1788   983   984    1
  1789  1011  1009   ar
  1790  1155  1154    1
  1791  1015  1008   ar
  1792     9     8    1
  1793  1194  1193    1
  1794  1197  1199    1
  1795  1197  1195    1
  1796  1918  1917   ar
  1797  1918  1919   ar
  1798  1151  1150    1
  1799  1207  1206   ar
  1800   131   129    1
  1801   122   121   ar
  1802     8    10    1
  1803   118   119   ar
  1804  1150  1152    1
  1805  1202  1203   ar
  1806    10    21    1
  1807  1211  1212   ar
  1808    26    25    1
  1809  1917  1914   ar
  1810  1008  1009   ar
  1811  1008  1007    1
  1812  1009  1010    2
  1813  1175  1174    1
  1814  1193  1195    1
  1815  1908  1919    1
  1816  1908  1906    1
  1817  1154  1152    1
  1818  1154  1156    1
  1819  1919  1913   ar
  1820  1199  1200    1
  1821  1199  1201    1
  1822    25    27    1
  1823  1002  1007    1
  1824  1002  1001    1
  1825   148   129    2
  1826    20    21   ar
  1827    20    19   ar
  1828  1170  1172    1
  1829  1133  1132    1
  1830  1206  1212   ar
  1831  1206  1205   ar
  1832   982   998    1
  1833   998  1000    1
  1834   998  1017    1
  1835  1007  1005    1
  1836  1212  1201    1
  1837  1203  1205   ar
  1838  1203  1204    1
  1839  1174  1172    1
  1840  1174  1176    1
  1841   121   120   ar
  1842   121   124   ar
  1843   119   120   ar
  1844  1195  1196    1
  1845    21    15   ar
  1846  1152  1153    1
  1847  1904  1906    1
  1848  1904  1905    1
  1849   129   147    1
  1850   129   113    1
  1851  1187  1188   ar
  1852  1187  1184   ar
  1853  1914  1913   ar
  1854  1914  1915   ar
  1855   120   126   ar
  1856  1186  1185    2
  1857  1000   999    1
  1858  1913  1912   ar
  1859   124   125   ar
  1860  1188  1189   ar
  1861  1201  1196    1
  1862    66    47    2
  1863  1172  1173    1
  1864    19    16   ar
  1865  1906  1907    1
  1866  1165  1166   ar
  1867  1165  1163   ar
  1868   999  1001    1
  1869  1184  1185   ar
  1870  1184  1183   ar
  1871  1916  1915    2
  1872  1905  1922    1
  1873   114   115    1
  1874   114   112    1
  1875   114   116    1
  1876  1185  1179   ar
  1877  1915  1909   ar
  1878  1166  1159   ar
  1879  1156  1157    1
  1880  1156  1158    1
  1881  1001  1003    1
  1882  1176  1178    1
  1883  1176  1177    1
  1884   126   125   ar
  1885   126   116    1
  1886   102   101    2
  1887  1132  1130    1
  1888  1132  1134    1
  1889  1033  1032    1
  1890  1943  1922    2
  1891    27    28    1
  1892    27    29    1
  1893  1912  1910   ar
  1894  1189  1183   ar
  1895  1189  1178    1
  1896  1153  1158    1
  1897  1147  1127    2
  1898   113   112    1
  1899  1164  1163    2
  1900    15    16   ar
  1901    15    14   ar
  1902  1005  1006    1
  1903  1005  1003    1
  1904  1163  1162   ar
  1905  1173  1178    1
  1906  1183  1182   ar
  1907   112   110    1
  1908    47    65    1
  1909    47    30    1
  1910    47    49    1
  1911  1128  1130    1
  1912  1128  1129    1
  1913  1135  1134    1
  1914  1159  1158    1
  1915  1159  1160   ar
  1916  1179  1180   ar
  1917   116   111    1
  1918    30    29    1
  1919    16    17   ar
  1920  1909  1910   ar
  1921  1922  1942    1
  1922  1922  1924    1
  1923    43    42   ar
  1924    43    44   ar
  1925    28    33    1
  1926  1130  1131    1
  1927    29    31    1
  1928  1910  1911    1
  1929  1032  1031   ar
  1930  1032  1034   ar
  1931    42    39   ar
  1932  1134  1136    1
  1933  1003  1004    1
  1934   101   100   ar
  1935   101   103   ar
  1936  1162  1160   ar
  1937  1127  1129    1
  1938  1127  1148    1
  1939  1127  1111    1
  1940   100    98   ar
  1941    14    12   ar
  1942  1160  1161    2
  1943  1182  1180   ar
  1944  1031  1029   ar
  1945  1180  1181    1
  1946  1034  1035   ar
  1947    82    81    2
  1948  1938  1937    1
  1949  1939  1940   ar
  1950  1939  1936   ar
  1951    44    33    1
  1952    44    38   ar
  1953   103   104   ar
  1954   111   110    1
  1955   110   108    1
  1956    33    31    1
  1957  1029  1030    2
  1958  1029  1028   ar
  1959    49    48    1
  1960    17    18    2
  1961    17    11   ar
  1962  1940  1941   ar
  1963  1054  1053    1
  1964    98    99    2
  1965    98    97   ar
  1966  1924  1923    1
  1967  1035  1028   ar
  1968  1131  1136    1
  1969    39    38   ar
  1970    39    40   ar
  1971    31    32    1
  1972  1004  1018    1
  1973   109   108    1
  1974   109   107    1
  1975   128   107    2
  1976    62    61    1
  1977    86    67    2
  1978  1936  1937   ar
  1979  1936  1935   ar
  1980  1136  1146    1
  1981  1937  1932   ar
  1982    63    61   ar
  1983    63    64   ar
  1984    12    11   ar
  1985    12    13    1
  1986  1111  1110    1
  1987  1028  1027    1
  1988    41    40    2
  1989    81    83   ar
  1990    81    80   ar
  1991  1048  1053   ar
  1992  1048  1049   ar
  1993  2019  2018    1
  1994  1053  1052   ar
  1995  1037  1018    2
  1996   104    97   ar
  1997    83    84   ar
  1998    38    37   ar
  1999  1923  1925    1
  2000  1145  1146   ar
  2001  1145  1144   ar
  2002  1146  1140   ar
  2003    40    34   ar
  2004    97    96    1
  2005    61    60   ar
  2006  1072  1071    1
  2007  1941  1935   ar
  2008  1941  1931    1
  2009  1926  1931    1
  2010  1926  1925    1
  2011   107   127    1
  2012   107    93    1
  2013    48    50    1
  2014    64    57   ar
  2015  1932  1933   ar
  2016  1935  1934   ar
  2017  1022  1027    1
  2018  1022  1021    1
  2019  1070  1071   ar
  2020  1070  1076   ar
  2021  1027  1025    1
  2022  1018  1020    1
  2023  1018  1036    1
  2024  1144  1141   ar
  2025  1077  1076    2
  2026    80    78   ar
  2027  1049  1050   ar
  2028  1140  1139   ar
  2029  1140  1141   ar
  2030  1961  1960    2
  2031  1052  1055   ar
  2032  1052  1051   ar
  2033  1110  1112    1
  2034  1110  1108    1
  2035  1071  1073   ar
  2036  1931  1929    1
  2037    67    53    1
  2038    67    85    1
  2039    67    69    1
  2040    94    96    1
  2041    94    92    1
  2042    94    95    1
  2043   106    87    2
  2044  1925  1927    1
  2045  1139  1138   ar
  2046  1020  1019    1
  2047  1141  1142   ar
  2048  1055  1056   ar
  2049  1076  1075   ar
  2050  1933  1934   ar
  2051    84    77   ar
  2052    96    91    1
  2053    52    53    1
  2054    52    50    1
  2055    52    54    1
  2056    92    93    1
  2057    92    90    1
  2058  2018  2017   ar
  2059  2018  2020   ar
  2060    37    35   ar
  2061  1113  1112    1
  2062    60    58   ar
  2063  1019  1021    1
  2064    34    35   ar
  2065    50    51    1
  2066  1050  1051   ar
  2067  1051  1057   ar
  2068  1112  1114    1
  2069    57    58   ar
  2070    57    56    1
  2071  1021  1023    1
  2072  1138  1137   ar
  2073    69    68    1
  2074  1142  1137   ar
  2075  1142  1143    1
  2076  1960  1959   ar
  2077  1960  1954   ar
  2078    78    77   ar
  2079    78    79    2
  2080    51    56    1
  2081  2017  2023   ar
  2082    89    87    1
  2083    89    88    1
  2084  1106  1108    1
  2085  1106  1107    1
  2086  1108  1109    1
  2087  1982  1981    1
  2088  1927  1929    1
  2089  1927  1928    1
  2090  1056  1057   ar
  2091  1025  1023    1
  2092  1025  1026    1
  2093    35    36    1
  2094  1073  1074   ar
  2095  2020  2021   ar
  2096  1966  1944    2
  2097    77    76    1
  2098  1962  1959   ar
  2099  1962  1963   ar
  2100    58    59    2
  2101    87   105    1
  2102    87    73    1
  2103    91    90    1
  2104  1075  1074   ar
  2105  1075  1078   ar
  2106  1057  1047    1
  2107  1929  1930    1
  2108    56    54    1
  2109  1023  1024    1
  2110    54    55    1
  2111  1959  1958   ar
  2112  1954  1955   ar
  2113    90    88    1
  2114  1074  1080   ar
  2115  2002  2001    1
  2116    68    70    1
  2117    72    73    1
  2118    72    74    1
  2119    72    70    1
  2120  1981  1980   ar
  2121  1981  1983   ar
  2122  1114  1109    1
  2123  1114  1124    1
  2124  1963  1964   ar
  2125  1928  1944    1
  2126  1078  1079   ar
  2127  2000  2001   ar
  2128  2000  1998   ar
  2129  1107  1105    1
  2130  1980  1978   ar
  2131  1047  1042    1
  2132  1047  1045    1
  2133  2023  2024    2
  2134  2023  2022   ar
  2135    76    71    1
  2136    76    74    1
  2137  1125  1105    2
  2138  2021  2022   ar
  2139  2021  2027   ar
  2140    71    70    1
  2141  1999  1998    2
  2142  1944  1965    1
  2143  1944  1946    1
  2144    74    75    1
  2145  1042  1041    1
  2146  1117  1118   ar
  2147  1117  1116   ar
  2148  1124  1118   ar
  2149  1124  1123   ar
  2150  1958  1964   ar
  2151  1958  1957   ar
  2152  1955  1956    1
  2153  1955  1957   ar
  2154  2001  2003   ar
  2155  1059  1038    2
  2156  1080  1079   ar
  2157  1080  1069    1
  2158  1118  1119   ar
  2159  1024  1038    1
  2160  1998  1997   ar
  2161  1116  1115   ar
  2162  1105  1126    1
  2163  1105  1089    1
  2164  1964  1953    1
  2165  2022  2025   ar
  2166  1123  1122   ar
  2167  1983  1984   ar
  2168  2015  2014    1
  2169  2016  2027    1
  2170  2016  2014    1
  2171  2016  2011    1
  2172  1978  1979    2
  2173  1978  1977   ar
  2174  2027  2026   ar
  2175  1119  1122   ar
  2176  1119  1120   ar
  2177  1115  1120   ar
  2178  1946  1945    1
  2179  1040  1038    1
  2180  1040  1039    1
  2181  1038  1058    1
  2182  1045  1046    1
  2183  1045  1043    1
  2184  1069  1064    1
  2185  1069  1067    1
  2186  2014  2012    1
  2187  1120  1121    1
  2188  1041  1039    1
  2189  1041  1043    1
  2190  2003  2004   ar
  2191  1948  1953    1
  2192  1948  1947    1
  2193  1984  1977   ar
  2194  1953  1951    1
  2195  1064  1063    1
  2196  1997  2004   ar
  2197  1997  1996    1
  2198  2011  2010    1
  2199  1977  1976    1
  2200  1043  1044    1
  2201  2025  2026   ar
  2202  1945  1947    1
  2203  1089  1088    1
  2204  1067  1068    1
  2205  1067  1065    1
  2206  1947  1949    1
  2207  1996  1994    1
  2208  1996  1991    1
  2209  2012  2010    1
  2210  2012  2013    1
  2211  1091  1090    1
  2212  1949  1951    1
  2213  1949  1950    1
  2214  1951  1952    1
  2215  1088  1090    1
  2216  1088  1086    1
  2217  2010  2008    1
  2218  1090  1092    1
  2219  1976  1971    1
  2220  1976  1974    1
  2221  1994  1995    1
  2222  1994  1992    1
  2223  1063  1065    1
  2224  1063  1061    1
  2225  1094  1093   ar
  2226  1094  1095   ar
  2227  1044  1060    1
  2228  1065  1066    1
  2229  1093  1098   ar
  2230  1986  1967    2
  2231  1095  1096   ar
  2232  1971  1970    1
  2233  1062  1061    1
  2234  1062  1060    1
  2235  1991  1990    1
  2236  1974  1972    1
  2237  1974  1975    1
  2238  1082  1060    2
  2239  1098  1099    1
  2240  1098  1097   ar
  2241  1950  1967    1
  2242  1969  1967    1
  2243  1969  1968    1
  2244  1096  1097   ar
  2245  1096  1102   ar
  2246  1060  1081    1
  2247  2008  2009    1
  2248  1086  1084    1
  2249  1086  1087    1
  2250  1097  1100   ar
  2251  1992  1990    1
  2252  1992  1993    1
  2253  1967  1985    1
  2254  1085  1084    1
  2255  1085  1083    1
  2256  1092  1102    1
  2257  1092  1087    1
  2258  1102  1101   ar
  2259  1972  1970    1
  2260  1972  1973    1
  2261  2009  2007    1
  2262  1066  1083    1
  2263  1970  1968    1
  2264  1990  1988    1
  2265  1100  1101   ar
  2266  1989  1988    1
  2267  1989  1987    1
  2268  1993  2007    1
  2269  1083  1104    2
  2270  1083  1103    1
  2271  2006  1987    2
  2272  2029  2007    2
  2273  2007  2028    1
  2274  1973  1987    1
  2275  1987  2005    1
