ligand
  PyMOL2.2          3D                             0

 29 31  0  0  0  0  0  0  0  0999 V2000
   28.3450   41.5560   16.3850 C   0  0  0  0  0  0  0  0  0  0  0  0
   29.2040   41.6630   15.2450 O   0  0  0  0  0  0  0  0  0  0  0  0
   28.7300   40.3230   17.1910 C   0  0  0  0  0  0  0  0  0  0  0  0
   28.2330   40.4750   18.5170 O   0  0  0  0  0  0  0  0  0  0  0  0
   28.1560   39.0650   16.5520 C   0  0  0  0  0  0  0  0  0  0  0  0
   29.1540   38.5420   15.6830 O   0  0  0  0  0  0  0  0  0  0  0  0
   27.7030   37.9860   17.5400 C   0  0  0  0  0  0  0  0  0  0  0  0
   27.0210   36.9640   16.8120 O   0  0  0  0  0  0  0  0  0  0  0  0
   28.8560   37.3370   18.3030 C   0  0  0  0  0  0  0  0  0  0  0  0
   28.5330   34.6600   17.4660 N   0  0  0  0  0  0  0  0  0  0  0  0
   28.3940   33.3760   17.0300 C   0  0  0  0  0  0  0  0  0  0  0  0
   28.6770   33.0730   15.8440 O   0  0  0  0  0  0  0  0  0  0  0  0
   27.9430   32.4110   17.8710 N   0  0  0  0  0  0  0  0  0  0  0  0
   27.6230   32.7020   19.1570 C   0  0  0  0  0  0  0  0  0  0  0  0
   27.7610   34.0070   19.6160 C   0  0  0  0  0  0  0  0  0  0  0  0
   27.2040   31.8060   19.9310 O   0  0  0  0  0  0  0  0  0  0  0  0
   27.5860   35.5720   21.3410 C   0  0  0  0  0  0  0  0  0  0  0  0
   27.4500   34.3060   20.8960 N   0  0  0  0  0  0  0  0  0  0  0  0
   27.2630   35.8710   22.6600 C   0  0  0  0  0  0  0  0  0  0  0  0
   27.3950   37.1660   23.1490 C   0  0  0  0  0  0  0  0  0  0  0  0
   27.0260   37.4200   24.5880 C   0  0  0  0  0  0  0  0  0  0  0  0
   27.8590   38.1830   22.3050 C   0  0  0  0  0  0  0  0  0  0  0  0
   28.0140   39.4780   22.7150 N   0  0  0  0  0  0  0  0  0  0  0  0
   28.1790   37.8670   20.9790 C   0  0  0  0  0  0  0  0  0  0  0  0
   28.0470   36.5700   20.4840 C   0  0  0  0  0  0  0  0  0  0  0  0
   28.2270   35.0020   18.7510 C   0  0  0  0  0  0  0  0  0  0  0  0
   28.3560   36.2770   19.2000 N   0  0  0  0  0  0  0  0  0  0  0  0
   28.5000   40.4750   21.7800 C   0  0  0  0  0  0  0  0  0  0  0  0
   27.7060   39.9140   24.0670 C   0  0  0  0  0  0  0  0  0  0  0  0
  1  2  1  0  0  0  0
  1  3  1  0  0  0  0
  3  4  1  0  0  0  0
  3  5  1  0  0  0  0
  5  6  1  0  0  0  0
  5  7  1  0  0  0  0
  7  8  1  0  0  0  0
  7  9  1  0  0  0  0
 10 11  4  0  0  0  0
 11 12  2  0  0  0  0
 11 13  4  0  0  0  0
 13 14  4  0  0  0  0
 14 15  4  0  0  0  0
 15 18  4  0  0  0  0
 15 26  4  0  0  0  0
 14 16  2  0  0  0  0
 17 19  4  0  0  0  0
 17 25  4  0  0  0  0
 17 18  4  0  0  0  0
 19 20  4  0  0  0  0
 20 21  1  0  0  0  0
 20 22  4  0  0  0  0
 22 23  1  0  0  0  0
 22 24  4  0  0  0  0
 23 28  1  0  0  0  0
 23 29  1  0  0  0  0
 24 25  4  0  0  0  0
 25 27  4  0  0  0  0
 10 26  4  0  0  0  0
 26 27  4  0  0  0  0
  9 27  1  0  0  0  0
M  END
$$$$
