ligand
 OpenBabel11021811473D
libRbt.so/2013.1/901 2013/11/27
 29 31  0  0  0  0  0  0  0  0999 V2000
   28.9407   41.0294   16.5671 C   0  0  0  0  0  0  0  0  0  0  0  0
   29.8863   40.6252   15.5715 O   0  0  0  0  0  0  0  0  0  0  0  0
   28.7703   39.9087   17.5836 C   0  0  1  0  0  0  0  0  0  0  0  0
   28.0131   40.4052   18.6829 O   0  0  0  0  0  0  0  0  0  0  0  0
   28.0652   38.7154   16.9517 C   0  0  1  0  0  0  0  0  0  0  0  0
   28.9509   38.1695   15.9810 O   0  0  0  0  0  0  0  0  0  0  0  0
   27.6291   37.6258   17.9355 C   0  0  1  0  0  0  0  0  0  0  0  0
   26.9420   36.6076   17.2070 O   0  0  0  0  0  0  0  0  0  0  0  0
   28.7942   36.9747   18.6781 C   0  0  0  0  0  0  0  0  0  0  0  0
   28.6194   34.2404   17.9968 N   0  0  0  0  0  0  0  0  0  0  0  0
   28.5529   32.9275   17.6362 C   0  0  0  0  0  0  0  0  0  0  0  0
   28.8960   32.5667   16.4827 O   0  0  0  0  0  0  0  0  0  0  0  0
   28.1100   31.9956   18.5178 N   0  0  0  0  0  0  0  0  0  0  0  0
   27.7265   32.3487   19.7704 C   0  0  0  0  0  0  0  0  0  0  0  0
   27.7902   33.6839   20.1526 C   0  0  1  0  0  0  0  0  0  0  0  0
   27.3153   31.4830   20.5822 O   0  0  0  0  0  0  0  0  0  0  0  0
   27.4795   35.3404   21.7697 C   0  0  1  0  0  0  0  0  0  0  0  0
   27.4156   34.0451   21.3991 N   0  0  0  0  0  0  0  0  0  0  0  0
   27.0914   35.7034   23.0546 C   0  0  0  0  0  0  0  0  0  0  0  0
   27.1483   37.0301   23.4672 C   0  0  2  0  0  0  0  0  0  0  0  0
   26.7113   37.3534   24.8728 C   0  0  0  0  0  0  0  0  0  0  0  0
   27.6021   38.0143   22.5798 C   0  0  2  0  0  0  0  0  0  0  0  0
   27.6852   39.3373   22.9144 N   0  0  0  0  0  0  0  0  0  0  0  0
   27.9883   37.6338   21.2889 C   0  0  0  0  0  0  0  0  0  0  0  0
   27.9316   36.3048   20.8705 C   0  0  2  0  0  0  0  0  0  0  0  0
   28.2478   34.6450   19.2458 C   0  0  2  0  0  0  0  0  0  0  0  0
   28.3042   35.9492   19.6196 N   0  0  0  0  0  0  0  0  0  0  0  0
   26.8480   40.3056   22.2317 C   0  0  0  0  0  0  0  0  0  0  0  0
   28.5859   39.8302   23.9433 C   0  0  0  0  0  0  0  0  0  0  0  0
  1  2  1  0  0  0  0
  3  1  1  6  0  0  0
  3  4  1  0  0  0  0
  3  5  1  0  0  0  0
  5  6  1  6  0  0  0
  5  7  1  0  0  0  0
  7  8  1  6  0  0  0
  7  9  1  0  0  0  0
  9 27  1  0  0  0  0
 10 11  1  0  0  0  0
 11 12  2  0  0  0  0
 11 13  1  0  0  0  0
 13 14  1  0  0  0  0
 14 16  2  0  0  0  0
 15 14  1  1  0  0  0
 15 18  1  0  0  0  0
 15 26  1  0  0  0  0
 17 19  1  1  0  0  0
 17 25  1  0  0  0  0
 17 18  1  0  0  0  0
 19 20  1  0  0  0  0
 20 21  1  6  0  0  0
 20 22  1  0  0  0  0
 22 23  1  6  0  0  0
 22 24  1  0  0  0  0
 23 28  1  0  0  0  0
 23 29  1  0  0  0  0
 25 24  1  6  0  0  0
 25 27  1  0  0  0  0
 26 10  1  6  0  0  0
 26 27  1  0  0  0  0
M  END
>  <CHROM.1>
170.09335108,67.21064841,177.75467968,179.27317806,-115.20804776,-86.56181464
28.01785539,36.64624561,19.69352145,-1.30029198,-1.36108265,-2.88773120

>  <Name>
ligand

>  <RI>
0

>  <Rbt.Current_Directory>
/home/itssahil/PROJECTS/Mol_Feturizer/New_Systems/rnas/3F4H

>  <Rbt.Executable>
rbdock ($Id: //depot/dev/client3/rdock/2013.1/src/exe/rbdock.cxx#4 $)

>  <Rbt.Library>
libRbt.so (2013.1, Build901 2013/11/27)

>  <Rbt.Parameter_File>
/export/apps/rDock/src/rDock_2013.1_src/data/scripts/dock_solv.prm

>  <Rbt.Receptor>
prm/pocket_docking_2.prm

>  <SCORE>
-47.5333

>  <SCORE.INTER>
-30.3019

>  <SCORE.INTER.CONST>
1

>  <SCORE.INTER.POLAR>
0

>  <SCORE.INTER.ROT>
6

>  <SCORE.INTER.SOLV>
10.4035

>  <SCORE.INTER.VDW>
-31.2691

>  <SCORE.INTER.norm>
-1.04489

>  <SCORE.INTRA>
-17.2516

>  <SCORE.INTRA.DIHEDRAL>
-4.20749

>  <SCORE.INTRA.DIHEDRAL.0>
6.83446

>  <SCORE.INTRA.POLAR>
0

>  <SCORE.INTRA.POLAR.0>
0

>  <SCORE.INTRA.REPUL>
0

>  <SCORE.INTRA.REPUL.0>
0

>  <SCORE.INTRA.SOLV>
-0.0459982

>  <SCORE.INTRA.SOLV.lig_0>
-26.4601

>  <SCORE.INTRA.VDW>
-15.1249

>  <SCORE.INTRA.VDW.0>
13.7853

>  <SCORE.INTRA.norm>
-0.594883

>  <SCORE.RESTR>
0.0202628

>  <SCORE.RESTR.CAVITY>
0.0202628

>  <SCORE.RESTR.norm>
0.000698716

>  <SCORE.SYSTEM>
0

>  <SCORE.SYSTEM.CONST>
0

>  <SCORE.SYSTEM.DIHEDRAL>
0

>  <SCORE.SYSTEM.SOLV>
0

>  <SCORE.SYSTEM.norm>
0

>  <SCORE.heavy>
29

>  <SCORE.norm>
-1.63908

>  <RMSD>
0.702

$$$$
ligand
 OpenBabel11021811473D
libRbt.so/2013.1/901 2013/11/27
 29 31  0  0  0  0  0  0  0  0999 V2000
   28.8505   40.9451   16.3564 C   0  0  0  0  0  0  0  0  0  0  0  0
   29.8353   40.5011   15.4172 O   0  0  0  0  0  0  0  0  0  0  0  0
   28.6804   39.8917   17.4425 C   0  0  1  0  0  0  0  0  0  0  0  0
   27.8754   40.4388   18.4822 O   0  0  0  0  0  0  0  0  0  0  0  0
   28.0296   38.6371   16.8743 C   0  0  1  0  0  0  0  0  0  0  0  0
   28.9546   38.0615   15.9590 O   0  0  0  0  0  0  0  0  0  0  0  0
   27.6078   37.5978   17.9170 C   0  0  1  0  0  0  0  0  0  0  0  0
   26.9512   36.5228   17.2440 O   0  0  0  0  0  0  0  0  0  0  0  0
   28.7794   37.0185   18.7073 C   0  0  0  0  0  0  0  0  0  0  0  0
   28.6295   34.2872   18.0082 N   0  0  0  0  0  0  0  0  0  0  0  0
   28.5746   32.9762   17.6388 C   0  0  0  0  0  0  0  0  0  0  0  0
   28.9092   32.6278   16.4790 O   0  0  0  0  0  0  0  0  0  0  0  0
   28.1525   32.0328   18.5184 N   0  0  0  0  0  0  0  0  0  0  0  0
   27.7786   32.3725   19.7777 C   0  0  0  0  0  0  0  0  0  0  0  0
   27.8307   33.7055   20.1688 C   0  0  1  0  0  0  0  0  0  0  0  0
   27.3866   31.4961   20.5875 O   0  0  0  0  0  0  0  0  0  0  0  0
   27.5182   35.3467   21.8012 C   0  0  1  0  0  0  0  0  0  0  0  0
   27.4655   34.0533   21.4219 N   0  0  0  0  0  0  0  0  0  0  0  0
   27.1399   35.6958   23.0928 C   0  0  0  0  0  0  0  0  0  0  0  0
   27.1857   37.0202   23.5143 C   0  0  2  0  0  0  0  0  0  0  0  0
   26.7604   37.3282   24.9270 C   0  0  0  0  0  0  0  0  0  0  0  0
   27.6180   38.0160   22.6293 C   0  0  2  0  0  0  0  0  0  0  0  0
   27.6891   39.3375   22.9725 N   0  0  0  0  0  0  0  0  0  0  0  0
   27.9945   37.6493   21.3314 C   0  0  0  0  0  0  0  0  0  0  0  0
   27.9490   36.3227   20.9041 C   0  0  2  0  0  0  0  0  0  0  0  0
   28.2669   34.6784   19.2640 C   0  0  2  0  0  0  0  0  0  0  0  0
   28.3119   35.9805   19.6466 N   0  0  0  0  0  0  0  0  0  0  0  0
   26.8595   40.3057   22.2808 C   0  0  0  0  0  0  0  0  0  0  0  0
   28.5695   39.8287   24.0196 C   0  0  0  0  0  0  0  0  0  0  0  0
  1  2  1  0  0  0  0
  3  1  1  6  0  0  0
  3  4  1  0  0  0  0
  3  5  1  0  0  0  0
  5  6  1  6  0  0  0
  5  7  1  0  0  0  0
  7  8  1  6  0  0  0
  7  9  1  0  0  0  0
  9 27  1  0  0  0  0
 10 11  1  0  0  0  0
 11 12  2  0  0  0  0
 11 13  1  0  0  0  0
 13 14  1  0  0  0  0
 14 16  2  0  0  0  0
 15 14  1  1  0  0  0
 15 18  1  0  0  0  0
 15 26  1  0  0  0  0
 17 19  1  1  0  0  0
 17 25  1  0  0  0  0
 17 18  1  0  0  0  0
 19 20  1  0  0  0  0
 20 21  1  6  0  0  0
 20 22  1  0  0  0  0
 22 23  1  6  0  0  0
 22 24  1  0  0  0  0
 23 28  1  0  0  0  0
 23 29  1  0  0  0  0
 25 24  1  6  0  0  0
 25 27  1  0  0  0  0
 26 10  1  6  0  0  0
 26 27  1  0  0  0  0
M  END
>  <CHROM.1>
170.25478433,66.58041079,176.78446383,-177.30945296,-116.88470745,-90.22115727
28.02034495,36.64030686,19.68542988,-1.30238904,-1.37587695,-2.93999771

>  <Name>
ligand

>  <RI>
0

>  <Rbt.Current_Directory>
/home/itssahil/PROJECTS/Mol_Feturizer/New_Systems/rnas/3F4H

>  <Rbt.Executable>
rbdock ($Id: //depot/dev/client3/rdock/2013.1/src/exe/rbdock.cxx#4 $)

>  <Rbt.Library>
libRbt.so (2013.1, Build901 2013/11/27)

>  <Rbt.Parameter_File>
/export/apps/rDock/src/rDock_2013.1_src/data/scripts/dock_solv.prm

>  <Rbt.Receptor>
prm/pocket_docking_2.prm

>  <SCORE>
-47.5821

>  <SCORE.INTER>
-30.6154

>  <SCORE.INTER.CONST>
1

>  <SCORE.INTER.POLAR>
0

>  <SCORE.INTER.ROT>
6

>  <SCORE.INTER.SOLV>
10.4601

>  <SCORE.INTER.VDW>
-31.497

>  <SCORE.INTER.norm>
-1.05571

>  <SCORE.INTRA>
-16.9833

>  <SCORE.INTRA.DIHEDRAL>
-4.20509

>  <SCORE.INTRA.DIHEDRAL.0>
6.83446

>  <SCORE.INTRA.POLAR>
0

>  <SCORE.INTRA.POLAR.0>
0

>  <SCORE.INTRA.REPUL>
0

>  <SCORE.INTRA.REPUL.0>
0

>  <SCORE.INTRA.SOLV>
-0.0619816

>  <SCORE.INTRA.SOLV.lig_0>
-26.4601

>  <SCORE.INTRA.VDW>
-14.8497

>  <SCORE.INTRA.VDW.0>
13.7853

>  <SCORE.INTRA.norm>
-0.58563

>  <SCORE.RESTR>
0.0166053

>  <SCORE.RESTR.CAVITY>
0.0166053

>  <SCORE.RESTR.norm>
0.000572598

>  <SCORE.SYSTEM>
0

>  <SCORE.SYSTEM.CONST>
0

>  <SCORE.SYSTEM.DIHEDRAL>
0

>  <SCORE.SYSTEM.SOLV>
0

>  <SCORE.SYSTEM.norm>
0

>  <SCORE.heavy>
29

>  <SCORE.norm>
-1.64076

>  <RMSD>
0.710

$$$$
ligand
 OpenBabel11021811473D
libRbt.so/2013.1/901 2013/11/27
 29 31  0  0  0  0  0  0  0  0999 V2000
   28.7669   41.0281   16.5144 C   0  0  0  0  0  0  0  0  0  0  0  0
   29.8515   40.6577   15.6568 O   0  0  0  0  0  0  0  0  0  0  0  0
   28.5792   39.9564   17.5795 C   0  0  1  0  0  0  0  0  0  0  0  0
   27.6895   40.4559   18.5731 O   0  0  0  0  0  0  0  0  0  0  0  0
   28.0205   38.6806   16.9625 C   0  0  1  0  0  0  0  0  0  0  0  0
   29.0135   38.1704   16.0803 O   0  0  0  0  0  0  0  0  0  0  0  0
   27.6083   37.6017   17.9685 C   0  0  1  0  0  0  0  0  0  0  0  0
   26.9671   36.5420   17.2575 O   0  0  0  0  0  0  0  0  0  0  0  0
   28.7846   37.0107   18.7429 C   0  0  0  0  0  0  0  0  0  0  0  0
   28.6483   34.2853   18.0182 N   0  0  0  0  0  0  0  0  0  0  0  0
   28.5999   32.9776   17.6366 C   0  0  0  0  0  0  0  0  0  0  0  0
   28.9364   32.6417   16.4737 O   0  0  0  0  0  0  0  0  0  0  0  0
   28.1823   32.0240   18.5073 N   0  0  0  0  0  0  0  0  0  0  0  0
   27.8066   32.3500   19.7696 C   0  0  0  0  0  0  0  0  0  0  0  0
   27.8521   33.6796   20.1732 C   0  0  1  0  0  0  0  0  0  0  0  0
   27.4188   31.4642   20.5711 O   0  0  0  0  0  0  0  0  0  0  0  0
   27.5313   35.3038   21.8208 C   0  0  1  0  0  0  0  0  0  0  0  0
   27.4851   34.0138   21.4294 N   0  0  0  0  0  0  0  0  0  0  0  0
   27.1511   35.6390   23.1156 C   0  0  0  0  0  0  0  0  0  0  0  0
   27.1903   36.9595   23.5495 C   0  0  2  0  0  0  0  0  0  0  0  0
   26.7633   37.2522   24.9649 C   0  0  0  0  0  0  0  0  0  0  0  0
   27.6178   37.9657   22.6738 C   0  0  2  0  0  0  0  0  0  0  0  0
   27.6824   39.2843   23.0294 N   0  0  0  0  0  0  0  0  0  0  0  0
   27.9963   37.6131   21.3727 C   0  0  0  0  0  0  0  0  0  0  0  0
   27.9574   36.2903   20.9329 C   0  0  2  0  0  0  0  0  0  0  0  0
   28.2836   34.6630   19.2776 C   0  0  2  0  0  0  0  0  0  0  0  0
   28.3222   35.9617   19.6724 N   0  0  0  0  0  0  0  0  0  0  0  0
   28.5817   39.7001   24.0890 C   0  0  0  0  0  0  0  0  0  0  0  0
   26.8813   40.3103   22.3827 C   0  0  0  0  0  0  0  0  0  0  0  0
  1  2  1  0  0  0  0
  3  1  1  6  0  0  0
  3  4  1  0  0  0  0
  3  5  1  0  0  0  0
  5  6  1  6  0  0  0
  5  7  1  0  0  0  0
  7  8  1  6  0  0  0
  7  9  1  0  0  0  0
  9 27  1  0  0  0  0
 10 11  1  0  0  0  0
 11 12  2  0  0  0  0
 11 13  1  0  0  0  0
 13 14  1  0  0  0  0
 14 16  2  0  0  0  0
 15 14  1  1  0  0  0
 15 18  1  0  0  0  0
 15 26  1  0  0  0  0
 17 19  1  1  0  0  0
 17 25  1  0  0  0  0
 17 18  1  0  0  0  0
 19 20  1  0  0  0  0
 20 21  1  6  0  0  0
 20 22  1  0  0  0  0
 22 23  1  6  0  0  0
 22 24  1  0  0  0  0
 23 28  1  0  0  0  0
 23 29  1  0  0  0  0
 25 24  1  6  0  0  0
 25 27  1  0  0  0  0
 26 10  1  6  0  0  0
 26 27  1  0  0  0  0
M  END
>  <CHROM.1>
168.53716145,65.47766544,173.38178292,-178.86543579,62.93506786,-89.62750952
28.02041221,36.63586187,19.73616231,-1.36616508,-1.37880999,-2.96959409

>  <Name>
ligand

>  <RI>
0

>  <Rbt.Current_Directory>
/home/itssahil/PROJECTS/Mol_Feturizer/New_Systems/rnas/3F4H

>  <Rbt.Executable>
rbdock ($Id: //depot/dev/client3/rdock/2013.1/src/exe/rbdock.cxx#4 $)

>  <Rbt.Library>
libRbt.so (2013.1, Build901 2013/11/27)

>  <Rbt.Parameter_File>
/export/apps/rDock/src/rDock_2013.1_src/data/scripts/dock_solv.prm

>  <Rbt.Receptor>
prm/pocket_docking_2.prm

>  <SCORE>
-47.3124

>  <SCORE.INTER>
-30.5491

>  <SCORE.INTER.CONST>
1

>  <SCORE.INTER.POLAR>
0

>  <SCORE.INTER.ROT>
6

>  <SCORE.INTER.SOLV>
10.2976

>  <SCORE.INTER.VDW>
-31.3986

>  <SCORE.INTER.norm>
-1.05342

>  <SCORE.INTRA>
-16.7753

>  <SCORE.INTRA.DIHEDRAL>
-4.02482

>  <SCORE.INTRA.DIHEDRAL.0>
6.83446

>  <SCORE.INTRA.POLAR>
0

>  <SCORE.INTRA.POLAR.0>
0

>  <SCORE.INTRA.REPUL>
0

>  <SCORE.INTRA.REPUL.0>
0

>  <SCORE.INTRA.SOLV>
-0.0814861

>  <SCORE.INTRA.SOLV.lig_0>
-26.4601

>  <SCORE.INTRA.VDW>
-14.7222

>  <SCORE.INTRA.VDW.0>
13.7853

>  <SCORE.INTRA.norm>
-0.578459

>  <SCORE.RESTR>
0.0120836

>  <SCORE.RESTR.CAVITY>
0.0120836

>  <SCORE.RESTR.norm>
0.000416675

>  <SCORE.SYSTEM>
0

>  <SCORE.SYSTEM.CONST>
0

>  <SCORE.SYSTEM.DIHEDRAL>
0

>  <SCORE.SYSTEM.SOLV>
0

>  <SCORE.SYSTEM.norm>
0

>  <SCORE.heavy>
29

>  <SCORE.norm>
-1.63146

>  <RMSD>
0.724

$$$$
ligand
 OpenBabel11021811473D
libRbt.so/2013.1/901 2013/11/27
 29 31  0  0  0  0  0  0  0  0999 V2000
   29.0955   41.0163   16.5401 C   0  0  0  0  0  0  0  0  0  0  0  0
   29.9270   40.5464   15.4739 O   0  0  0  0  0  0  0  0  0  0  0  0
   28.9408   39.9150   17.5801 C   0  0  1  0  0  0  0  0  0  0  0  0
   28.3126   40.4659   18.7334 O   0  0  0  0  0  0  0  0  0  0  0  0
   28.1102   38.7658   17.0234 C   0  0  1  0  0  0  0  0  0  0  0  0
   28.8874   38.1374   16.0107 O   0  0  0  0  0  0  0  0  0  0  0  0
   27.6619   37.7303   18.0589 C   0  0  1  0  0  0  0  0  0  0  0  0
   26.8479   36.7576   17.4024 O   0  0  0  0  0  0  0  0  0  0  0  0
   28.8229   37.0016   18.7327 C   0  0  0  0  0  0  0  0  0  0  0  0
   28.6462   34.2718   18.0340 N   0  0  0  0  0  0  0  0  0  0  0  0
   28.5790   32.9612   17.6651 C   0  0  0  0  0  0  0  0  0  0  0  0
   28.9311   32.6061   16.5125 O   0  0  0  0  0  0  0  0  0  0  0  0
   28.1258   32.0255   18.5374 N   0  0  0  0  0  0  0  0  0  0  0  0
   27.7324   32.3725   19.7887 C   0  0  0  0  0  0  0  0  0  0  0  0
   27.7967   33.7052   20.1792 C   0  0  1  0  0  0  0  0  0  0  0  0
   27.3117   31.5032   20.5917 O   0  0  0  0  0  0  0  0  0  0  0  0
   27.4767   35.3531   21.8032 C   0  0  1  0  0  0  0  0  0  0  0  0
   27.4122   34.0602   21.4245 N   0  0  0  0  0  0  0  0  0  0  0  0
   27.0784   35.7098   23.0868 C   0  0  0  0  0  0  0  0  0  0  0  0
   27.1355   37.0339   23.5075 C   0  0  2  0  0  0  0  0  0  0  0  0
   26.6872   37.3503   24.9112 C   0  0  0  0  0  0  0  0  0  0  0  0
   27.5998   38.0219   22.6299 C   0  0  2  0  0  0  0  0  0  0  0  0
   27.6838   39.3427   22.9730 N   0  0  0  0  0  0  0  0  0  0  0  0
   27.9961   37.6478   21.3402 C   0  0  0  0  0  0  0  0  0  0  0  0
   27.9394   36.3214   20.9135 C   0  0  2  0  0  0  0  0  0  0  0  0
   28.2648   34.6702   19.2820 C   0  0  2  0  0  0  0  0  0  0  0  0
   28.3217   35.9720   19.6639 N   0  0  0  0  0  0  0  0  0  0  0  0
   26.8641   40.3190   22.2805 C   0  0  0  0  0  0  0  0  0  0  0  0
   28.5684   39.8254   24.0205 C   0  0  0  0  0  0  0  0  0  0  0  0
  1  2  1  0  0  0  0
  3  1  1  6  0  0  0
  3  4  1  0  0  0  0
  3  5  1  0  0  0  0
  5  6  1  6  0  0  0
  5  7  1  0  0  0  0
  7  8  1  6  0  0  0
  7  9  1  0  0  0  0
  9 27  1  0  0  0  0
 10 11  1  0  0  0  0
 11 12  2  0  0  0  0
 11 13  1  0  0  0  0
 13 14  1  0  0  0  0
 14 16  2  0  0  0  0
 15 14  1  1  0  0  0
 15 18  1  0  0  0  0
 15 26  1  0  0  0  0
 17 19  1  1  0  0  0
 17 25  1  0  0  0  0
 17 18  1  0  0  0  0
 19 20  1  0  0  0  0
 20 21  1  6  0  0  0
 20 22  1  0  0  0  0
 22 23  1  6  0  0  0
 22 24  1  0  0  0  0
 23 28  1  0  0  0  0
 23 29  1  0  0  0  0
 25 24  1  6  0  0  0
 25 27  1  0  0  0  0
 26 10  1  6  0  0  0
 26 27  1  0  0  0  0
M  END
>  <CHROM.1>
170.03101830,68.62023126,177.35714501,-177.03384849,-115.75628787,-82.44523133
28.04324062,36.66726065,19.73305672,-1.23817094,-1.34972909,-2.86295424

>  <Name>
ligand

>  <RI>
0

>  <Rbt.Current_Directory>
/home/itssahil/PROJECTS/Mol_Feturizer/New_Systems/rnas/3F4H

>  <Rbt.Executable>
rbdock ($Id: //depot/dev/client3/rdock/2013.1/src/exe/rbdock.cxx#4 $)

>  <Rbt.Library>
libRbt.so (2013.1, Build901 2013/11/27)

>  <Rbt.Parameter_File>
/export/apps/rDock/src/rDock_2013.1_src/data/scripts/dock_solv.prm

>  <Rbt.Receptor>
prm/pocket_docking_2.prm

>  <SCORE>
-47.6188

>  <SCORE.INTER>
-30.487

>  <SCORE.INTER.CONST>
1

>  <SCORE.INTER.POLAR>
0

>  <SCORE.INTER.ROT>
6

>  <SCORE.INTER.SOLV>
10.6941

>  <SCORE.INTER.VDW>
-31.4894

>  <SCORE.INTER.norm>
-1.05128

>  <SCORE.INTRA>
-17.146

>  <SCORE.INTRA.DIHEDRAL>
-4.08874

>  <SCORE.INTRA.DIHEDRAL.0>
6.83446

>  <SCORE.INTRA.POLAR>
0

>  <SCORE.INTRA.POLAR.0>
0

>  <SCORE.INTRA.REPUL>
0

>  <SCORE.INTRA.REPUL.0>
0

>  <SCORE.INTRA.SOLV>
-0.0673102

>  <SCORE.INTRA.SOLV.lig_0>
-26.4601

>  <SCORE.INTRA.VDW>
-15.068

>  <SCORE.INTRA.VDW.0>
13.7853

>  <SCORE.INTRA.norm>
-0.591243

>  <SCORE.RESTR>
0.0142815

>  <SCORE.RESTR.CAVITY>
0.0142815

>  <SCORE.RESTR.norm>
0.000492467

>  <SCORE.SYSTEM>
0

>  <SCORE.SYSTEM.CONST>
0

>  <SCORE.SYSTEM.DIHEDRAL>
0

>  <SCORE.SYSTEM.SOLV>
0

>  <SCORE.SYSTEM.norm>
0

>  <SCORE.heavy>
29

>  <SCORE.norm>
-1.64203

>  <RMSD>
0.727

$$$$
ligand
 OpenBabel11021811473D
libRbt.so/2013.1/901 2013/11/27
 29 31  0  0  0  0  0  0  0  0999 V2000
   29.0625   41.0329   16.5439 C   0  0  0  0  0  0  0  0  0  0  0  0
   29.9060   40.5600   15.4885 O   0  0  0  0  0  0  0  0  0  0  0  0
   28.9088   39.9402   17.5930 C   0  0  1  0  0  0  0  0  0  0  0  0
   28.2357   40.4878   18.7224 O   0  0  0  0  0  0  0  0  0  0  0  0
   28.1237   38.7631   17.0288 C   0  0  1  0  0  0  0  0  0  0  0  0
   28.9464   38.1397   16.0494 O   0  0  0  0  0  0  0  0  0  0  0  0
   27.6694   37.7315   18.0657 C   0  0  1  0  0  0  0  0  0  0  0  0
   26.8855   36.7389   17.4025 O   0  0  0  0  0  0  0  0  0  0  0  0
   28.8267   37.0289   18.7725 C   0  0  0  0  0  0  0  0  0  0  0  0
   28.6336   34.3038   18.0600 N   0  0  0  0  0  0  0  0  0  0  0  0
   28.5585   32.9956   17.6845 C   0  0  0  0  0  0  0  0  0  0  0  0
   28.9061   32.6446   16.5293 O   0  0  0  0  0  0  0  0  0  0  0  0
   28.1021   32.0578   18.5529 N   0  0  0  0  0  0  0  0  0  0  0  0
   27.7133   32.4004   19.8068 C   0  0  0  0  0  0  0  0  0  0  0  0
   27.7857   33.7307   20.2041 C   0  0  1  0  0  0  0  0  0  0  0  0
   27.2896   31.5293   20.6062 O   0  0  0  0  0  0  0  0  0  0  0  0
   27.4782   35.3719   21.8374 C   0  0  1  0  0  0  0  0  0  0  0  0
   27.4059   34.0813   21.4521 N   0  0  0  0  0  0  0  0  0  0  0  0
   27.0846   35.7240   23.1237 C   0  0  0  0  0  0  0  0  0  0  0  0
   27.1499   37.0455   23.5512 C   0  0  2  0  0  0  0  0  0  0  0  0
   26.7064   37.3570   24.9575 C   0  0  0  0  0  0  0  0  0  0  0  0
   27.6177   38.0356   22.6777 C   0  0  2  0  0  0  0  0  0  0  0  0
   27.7096   39.3541   23.0275 N   0  0  0  0  0  0  0  0  0  0  0  0
   28.0092   37.6660   21.3852 C   0  0  0  0  0  0  0  0  0  0  0  0
   27.9442   36.3422   20.9518 C   0  0  2  0  0  0  0  0  0  0  0  0
   28.2572   34.6978   19.3110 C   0  0  2  0  0  0  0  0  0  0  0  0
   28.3220   35.9973   19.6994 N   0  0  0  0  0  0  0  0  0  0  0  0
   26.8901   40.3377   22.3455 C   0  0  0  0  0  0  0  0  0  0  0  0
   28.6028   39.8272   24.0721 C   0  0  0  0  0  0  0  0  0  0  0  0
  1  2  1  0  0  0  0
  3  1  1  6  0  0  0
  3  4  1  0  0  0  0
  3  5  1  0  0  0  0
  5  6  1  6  0  0  0
  5  7  1  0  0  0  0
  7  8  1  6  0  0  0
  7  9  1  0  0  0  0
  9 27  1  0  0  0  0
 10 11  1  0  0  0  0
 11 12  2  0  0  0  0
 11 13  1  0  0  0  0
 13 14  1  0  0  0  0
 14 16  2  0  0  0  0
 15 14  1  1  0  0  0
 15 18  1  0  0  0  0
 15 26  1  0  0  0  0
 17 19  1  1  0  0  0
 17 25  1  0  0  0  0
 17 18  1  0  0  0  0
 19 20  1  0  0  0  0
 20 21  1  6  0  0  0
 20 22  1  0  0  0  0
 22 23  1  6  0  0  0
 22 24  1  0  0  0  0
 23 28  1  0  0  0  0
 23 29  1  0  0  0  0
 25 24  1  6  0  0  0
 25 27  1  0  0  0  0
 26 10  1  6  0  0  0
 26 27  1  0  0  0  0
M  END
>  <CHROM.1>
171.53869619,68.89279072,176.63860658,-176.77905073,-115.51882723,-84.58512247
28.04231529,36.68467111,19.76027490,-1.21702109,-1.35385483,-2.84595137

>  <Name>
ligand

>  <RI>
0

>  <Rbt.Current_Directory>
/home/itssahil/PROJECTS/Mol_Feturizer/New_Systems/rnas/3F4H

>  <Rbt.Executable>
rbdock ($Id: //depot/dev/client3/rdock/2013.1/src/exe/rbdock.cxx#4 $)

>  <Rbt.Library>
libRbt.so (2013.1, Build901 2013/11/27)

>  <Rbt.Parameter_File>
/export/apps/rDock/src/rDock_2013.1_src/data/scripts/dock_solv.prm

>  <Rbt.Receptor>
prm/pocket_docking_2.prm

>  <SCORE>
-47.5961

>  <SCORE.INTER>
-30.4408

>  <SCORE.INTER.CONST>
1

>  <SCORE.INTER.POLAR>
0

>  <SCORE.INTER.ROT>
6

>  <SCORE.INTER.SOLV>
10.5122

>  <SCORE.INTER.VDW>
-31.398

>  <SCORE.INTER.norm>
-1.04968

>  <SCORE.INTRA>
-17.1643

>  <SCORE.INTRA.DIHEDRAL>
-4.14519

>  <SCORE.INTRA.DIHEDRAL.0>
6.83446

>  <SCORE.INTRA.POLAR>
0

>  <SCORE.INTRA.POLAR.0>
0

>  <SCORE.INTRA.REPUL>
0

>  <SCORE.INTRA.REPUL.0>
0

>  <SCORE.INTRA.SOLV>
-0.0603715

>  <SCORE.INTRA.SOLV.lig_0>
-26.4601

>  <SCORE.INTRA.VDW>
-15.0616

>  <SCORE.INTRA.VDW.0>
13.7853

>  <SCORE.INTRA.norm>
-0.591874

>  <SCORE.RESTR>
0.00905608

>  <SCORE.RESTR.CAVITY>
0.00905608

>  <SCORE.RESTR.norm>
0.000312279

>  <SCORE.SYSTEM>
0

>  <SCORE.SYSTEM.CONST>
0

>  <SCORE.SYSTEM.DIHEDRAL>
0

>  <SCORE.SYSTEM.SOLV>
0

>  <SCORE.SYSTEM.norm>
0

>  <SCORE.heavy>
29

>  <SCORE.norm>
-1.64124

>  <RMSD>
0.729

$$$$
ligand
 OpenBabel11021811473D
libRbt.so/2013.1/901 2013/11/27
 29 31  0  0  0  0  0  0  0  0999 V2000
   28.6073   40.9062   16.2060 C   0  0  0  0  0  0  0  0  0  0  0  0
   29.0197   42.1497   16.7827 O   0  0  0  0  0  0  0  0  0  0  0  0
   28.4001   39.8823   17.3136 C   0  0  1  0  0  0  0  0  0  0  0  0
   27.3807   40.3590   18.1866 O   0  0  0  0  0  0  0  0  0  0  0  0
   28.0061   38.5324   16.7278 C   0  0  1  0  0  0  0  0  0  0  0  0
   29.1121   38.0671   15.9630 O   0  0  0  0  0  0  0  0  0  0  0  0
   27.5979   37.4744   17.7571 C   0  0  1  0  0  0  0  0  0  0  0  0
   27.0647   36.3476   17.0602 O   0  0  0  0  0  0  0  0  0  0  0  0
   28.7579   36.9907   18.6252 C   0  0  0  0  0  0  0  0  0  0  0  0
   28.6205   34.2500   17.9610 N   0  0  0  0  0  0  0  0  0  0  0  0
   28.5714   32.9342   17.6084 C   0  0  0  0  0  0  0  0  0  0  0  0
   28.9026   32.5732   16.4515 O   0  0  0  0  0  0  0  0  0  0  0  0
   28.1588   31.9996   18.5017 N   0  0  0  0  0  0  0  0  0  0  0  0
   27.7889   32.3529   19.7584 C   0  0  0  0  0  0  0  0  0  0  0  0
   27.8351   33.6910   20.1326 C   0  0  1  0  0  0  0  0  0  0  0  0
   27.4057   31.4845   20.5810 O   0  0  0  0  0  0  0  0  0  0  0  0
   27.5208   35.3507   21.7457 C   0  0  1  0  0  0  0  0  0  0  0  0
   27.4738   34.0524   21.3829 N   0  0  0  0  0  0  0  0  0  0  0  0
   27.1465   35.7139   23.0346 C   0  0  0  0  0  0  0  0  0  0  0  0
   27.1866   37.0436   23.4393 C   0  0  2  0  0  0  0  0  0  0  0  0
   26.7661   37.3670   24.8500 C   0  0  0  0  0  0  0  0  0  0  0  0
   27.6090   38.0307   22.5398 C   0  0  2  0  0  0  0  0  0  0  0  0
   27.6741   39.3568   22.8661 N   0  0  0  0  0  0  0  0  0  0  0  0
   27.9815   37.6500   21.2449 C   0  0  0  0  0  0  0  0  0  0  0  0
   27.9417   36.3178   20.8344 C   0  0  2  0  0  0  0  0  0  0  0  0
   28.2614   34.6549   19.2136 C   0  0  2  0  0  0  0  0  0  0  0  0
   28.3008   35.9620   19.5796 N   0  0  0  0  0  0  0  0  0  0  0  0
   28.5745   39.7958   23.9154 C   0  0  0  0  0  0  0  0  0  0  0  0
   26.8725   40.3685   22.1976 C   0  0  0  0  0  0  0  0  0  0  0  0
  1  2  1  0  0  0  0
  3  1  1  6  0  0  0
  3  4  1  0  0  0  0
  3  5  1  0  0  0  0
  5  6  1  1  0  0  0
  5  7  1  0  0  0  0
  7  8  1  6  0  0  0
  7  9  1  0  0  0  0
  9 27  1  0  0  0  0
 10 11  1  0  0  0  0
 11 12  2  0  0  0  0
 11 13  1  0  0  0  0
 13 14  1  0  0  0  0
 14 16  2  0  0  0  0
 15 14  1  1  0  0  0
 15 18  1  0  0  0  0
 15 26  1  0  0  0  0
 17 19  1  1  0  0  0
 17 25  1  0  0  0  0
 17 18  1  0  0  0  0
 19 20  1  0  0  0  0
 20 21  1  6  0  0  0
 20 22  1  0  0  0  0
 22 23  1  6  0  0  0
 22 24  1  0  0  0  0
 23 28  1  0  0  0  0
 23 29  1  0  0  0  0
 25 24  1  6  0  0  0
 25 27  1  0  0  0  0
 26 10  1  6  0  0  0
 26 27  1  0  0  0  0
M  END
>  <CHROM.1>
60.78792954,64.80733431,171.19312195,-179.21382696,62.70706703,-94.68319118
27.95929971,36.68252840,19.66049123,-1.48710448,-1.40772910,-3.06603672

>  <Name>
ligand

>  <RI>
0

>  <Rbt.Current_Directory>
/home/itssahil/PROJECTS/Mol_Feturizer/New_Systems/rnas/3F4H

>  <Rbt.Executable>
rbdock ($Id: //depot/dev/client3/rdock/2013.1/src/exe/rbdock.cxx#4 $)

>  <Rbt.Library>
libRbt.so (2013.1, Build901 2013/11/27)

>  <Rbt.Parameter_File>
/export/apps/rDock/src/rDock_2013.1_src/data/scripts/dock_solv.prm

>  <Rbt.Receptor>
prm/pocket_docking_2.prm

>  <SCORE>
-47.4208

>  <SCORE.INTER>
-30.4034

>  <SCORE.INTER.CONST>
1

>  <SCORE.INTER.POLAR>
0

>  <SCORE.INTER.ROT>
6

>  <SCORE.INTER.SOLV>
10.0342

>  <SCORE.INTER.VDW>
-31.2137

>  <SCORE.INTER.norm>
-1.04839

>  <SCORE.INTRA>
-17.0246

>  <SCORE.INTRA.DIHEDRAL>
-4.39341

>  <SCORE.INTRA.DIHEDRAL.0>
6.83446

>  <SCORE.INTRA.POLAR>
0

>  <SCORE.INTRA.POLAR.0>
0

>  <SCORE.INTRA.REPUL>
0

>  <SCORE.INTRA.REPUL.0>
0

>  <SCORE.INTRA.SOLV>
-0.385527

>  <SCORE.INTRA.SOLV.lig_0>
-26.4601

>  <SCORE.INTRA.VDW>
-14.6351

>  <SCORE.INTRA.VDW.0>
13.7853

>  <SCORE.INTRA.norm>
-0.587055

>  <SCORE.RESTR>
0.00717115

>  <SCORE.RESTR.CAVITY>
0.00717115

>  <SCORE.RESTR.norm>
0.000247281

>  <SCORE.SYSTEM>
0

>  <SCORE.SYSTEM.CONST>
0

>  <SCORE.SYSTEM.DIHEDRAL>
0

>  <SCORE.SYSTEM.SOLV>
0

>  <SCORE.SYSTEM.norm>
0

>  <SCORE.heavy>
29

>  <SCORE.norm>
-1.6352

>  <RMSD>
0.731

$$$$
ligand
 OpenBabel11021811473D
libRbt.so/2013.1/901 2013/11/27
 29 31  0  0  0  0  0  0  0  0999 V2000
   28.6121   40.8285   16.0920 C   0  0  0  0  0  0  0  0  0  0  0  0
   29.0336   42.0921   16.6160 O   0  0  0  0  0  0  0  0  0  0  0  0
   28.4295   39.8440   17.2390 C   0  0  1  0  0  0  0  0  0  0  0  0
   27.4285   40.3509   18.1162 O   0  0  0  0  0  0  0  0  0  0  0  0
   28.0245   38.4744   16.7096 C   0  0  1  0  0  0  0  0  0  0  0  0
   29.1286   37.9665   15.9695 O   0  0  0  0  0  0  0  0  0  0  0  0
   27.6026   37.4649   17.7813 C   0  0  1  0  0  0  0  0  0  0  0  0
   27.0481   36.3206   17.1312 O   0  0  0  0  0  0  0  0  0  0  0  0
   28.7574   36.9966   18.6644 C   0  0  0  0  0  0  0  0  0  0  0  0
   28.6089   34.2619   17.9786 N   0  0  0  0  0  0  0  0  0  0  0  0
   28.5543   32.9492   17.6155 C   0  0  0  0  0  0  0  0  0  0  0  0
   28.8790   32.5966   16.4541 O   0  0  0  0  0  0  0  0  0  0  0  0
   28.1432   32.0084   18.5031 N   0  0  0  0  0  0  0  0  0  0  0  0
   27.7801   32.3525   19.7643 C   0  0  0  0  0  0  0  0  0  0  0  0
   27.8320   33.6874   20.1491 C   0  0  1  0  0  0  0  0  0  0  0  0
   27.3983   31.4786   20.5816 O   0  0  0  0  0  0  0  0  0  0  0  0
   27.5301   35.3348   21.7772 C   0  0  1  0  0  0  0  0  0  0  0  0
   27.4776   34.0397   21.4041 N   0  0  0  0  0  0  0  0  0  0  0  0
   27.1629   35.6885   23.0708 C   0  0  0  0  0  0  0  0  0  0  0  0
   27.2088   37.0148   23.4861 C   0  0  2  0  0  0  0  0  0  0  0  0
   26.7958   37.3278   24.9013 C   0  0  0  0  0  0  0  0  0  0  0  0
   27.6299   38.0080   22.5927 C   0  0  2  0  0  0  0  0  0  0  0  0
   27.7004   39.3312   22.9295 N   0  0  0  0  0  0  0  0  0  0  0  0
   27.9953   37.6367   21.2930 C   0  0  0  0  0  0  0  0  0  0  0  0
   27.9496   36.3081   20.8718 C   0  0  2  0  0  0  0  0  0  0  0  0
   28.2569   34.6576   19.2361 C   0  0  2  0  0  0  0  0  0  0  0  0
   28.3018   35.9615   19.6125 N   0  0  0  0  0  0  0  0  0  0  0  0
   26.8515   40.2921   22.2510 C   0  0  0  0  0  0  0  0  0  0  0  0
   28.5989   39.8314   23.9568 C   0  0  0  0  0  0  0  0  0  0  0  0
  1  2  1  0  0  0  0
  3  1  1  6  0  0  0
  3  4  1  0  0  0  0
  3  5  1  0  0  0  0
  5  6  1  1  0  0  0
  5  7  1  0  0  0  0
  7  8  1  6  0  0  0
  7  9  1  0  0  0  0
  9 27  1  0  0  0  0
 10 11  1  0  0  0  0
 11 12  2  0  0  0  0
 11 13  1  0  0  0  0
 13 14  1  0  0  0  0
 14 16  2  0  0  0  0
 15 14  1  1  0  0  0
 15 18  1  0  0  0  0
 15 26  1  0  0  0  0
 17 19  1  1  0  0  0
 17 25  1  0  0  0  0
 17 18  1  0  0  0  0
 19 20  1  0  0  0  0
 20 21  1  6  0  0  0
 20 22  1  0  0  0  0
 22 23  1  6  0  0  0
 22 24  1  0  0  0  0
 23 28  1  0  0  0  0
 23 29  1  0  0  0  0
 25 24  1  6  0  0  0
 25 27  1  0  0  0  0
 26 10  1  6  0  0  0
 26 27  1  0  0  0  0
M  END
>  <CHROM.1>
60.71023308,66.40945128,170.59764918,-176.19292012,-116.24824329,-96.14113061
27.96550839,36.66274165,19.66884714,-1.43012147,-1.41101877,-3.04352554

>  <Name>
ligand

>  <RI>
0

>  <Rbt.Current_Directory>
/home/itssahil/PROJECTS/Mol_Feturizer/New_Systems/rnas/3F4H

>  <Rbt.Executable>
rbdock ($Id: //depot/dev/client3/rdock/2013.1/src/exe/rbdock.cxx#4 $)

>  <Rbt.Library>
libRbt.so (2013.1, Build901 2013/11/27)

>  <Rbt.Parameter_File>
/export/apps/rDock/src/rDock_2013.1_src/data/scripts/dock_solv.prm

>  <Rbt.Receptor>
prm/pocket_docking_2.prm

>  <SCORE>
-47.6241

>  <SCORE.INTER>
-30.5051

>  <SCORE.INTER.CONST>
1

>  <SCORE.INTER.POLAR>
0

>  <SCORE.INTER.ROT>
6

>  <SCORE.INTER.SOLV>
10.0665

>  <SCORE.INTER.VDW>
-31.2922

>  <SCORE.INTER.norm>
-1.0519

>  <SCORE.INTRA>
-17.1377

>  <SCORE.INTRA.DIHEDRAL>
-4.24024

>  <SCORE.INTRA.DIHEDRAL.0>
6.83446

>  <SCORE.INTRA.POLAR>
0

>  <SCORE.INTRA.POLAR.0>
0

>  <SCORE.INTRA.REPUL>
0

>  <SCORE.INTRA.REPUL.0>
0

>  <SCORE.INTRA.SOLV>
-0.376795

>  <SCORE.INTRA.SOLV.lig_0>
-26.4601

>  <SCORE.INTRA.VDW>
-14.8292

>  <SCORE.INTRA.VDW.0>
13.7853

>  <SCORE.INTRA.norm>
-0.590956

>  <SCORE.RESTR>
0.0186602

>  <SCORE.RESTR.CAVITY>
0.0186602

>  <SCORE.RESTR.norm>
0.000643455

>  <SCORE.SYSTEM>
0

>  <SCORE.SYSTEM.CONST>
0

>  <SCORE.SYSTEM.DIHEDRAL>
0

>  <SCORE.SYSTEM.SOLV>
0

>  <SCORE.SYSTEM.norm>
0

>  <SCORE.heavy>
29

>  <SCORE.norm>
-1.64221

>  <RMSD>
0.739

$$$$
ligand
 OpenBabel11021811473D
libRbt.so/2013.1/901 2013/11/27
 29 31  0  0  0  0  0  0  0  0999 V2000
   28.9357   41.0729   16.6616 C   0  0  0  0  0  0  0  0  0  0  0  0
   27.6521   41.5695   16.2684 O   0  0  0  0  0  0  0  0  0  0  0  0
   28.7519   39.9368   17.6585 C   0  0  1  0  0  0  0  0  0  0  0  0
   28.0184   40.4286   18.7758 O   0  0  0  0  0  0  0  0  0  0  0  0
   28.0132   38.7719   17.0122 C   0  0  1  0  0  0  0  0  0  0  0  0
   28.8588   38.2514   15.9930 O   0  0  0  0  0  0  0  0  0  0  0  0
   27.6011   37.6533   17.9738 C   0  0  1  0  0  0  0  0  0  0  0  0
   26.9410   36.6328   17.2239 O   0  0  0  0  0  0  0  0  0  0  0  0
   28.7797   37.0167   18.7075 C   0  0  0  0  0  0  0  0  0  0  0  0
   28.6244   34.2857   18.0085 N   0  0  0  0  0  0  0  0  0  0  0  0
   28.5668   32.9748   17.6393 C   0  0  0  0  0  0  0  0  0  0  0  0
   28.9008   32.6256   16.4795 O   0  0  0  0  0  0  0  0  0  0  0  0
   28.1427   32.0323   18.5189 N   0  0  0  0  0  0  0  0  0  0  0  0
   27.7695   32.3728   19.7781 C   0  0  0  0  0  0  0  0  0  0  0  0
   27.8243   33.7058   20.1692 C   0  0  1  0  0  0  0  0  0  0  0  0
   27.3757   31.4973   20.5880 O   0  0  0  0  0  0  0  0  0  0  0  0
   27.5150   35.3476   21.8014 C   0  0  1  0  0  0  0  0  0  0  0  0
   27.4598   34.0544   21.4222 N   0  0  0  0  0  0  0  0  0  0  0  0
   27.1374   35.6977   23.0931 C   0  0  0  0  0  0  0  0  0  0  0  0
   27.1858   37.0219   23.5145 C   0  0  2  0  0  0  0  0  0  0  0  0
   26.7611   37.3309   24.9271 C   0  0  0  0  0  0  0  0  0  0  0  0
   27.6202   38.0168   22.6294 C   0  0  2  0  0  0  0  0  0  0  0  0
   27.6939   39.3382   22.9725 N   0  0  0  0  0  0  0  0  0  0  0  0
   27.9960   37.6493   21.3316 C   0  0  0  0  0  0  0  0  0  0  0  0
   27.9478   36.3227   20.9043 C   0  0  2  0  0  0  0  0  0  0  0  0
   28.2624   34.6777   19.2644 C   0  0  2  0  0  0  0  0  0  0  0  0
   28.3101   35.9798   19.6469 N   0  0  0  0  0  0  0  0  0  0  0  0
   26.8641   40.3077   22.2827 C   0  0  0  0  0  0  0  0  0  0  0  0
   28.5774   39.8281   24.0177 C   0  0  0  0  0  0  0  0  0  0  0  0
  1  2  1  0  0  0  0
  3  1  1  6  0  0  0
  3  4  1  0  0  0  0
  3  5  1  0  0  0  0
  5  6  1  6  0  0  0
  5  7  1  0  0  0  0
  7  8  1  6  0  0  0
  7  9  1  0  0  0  0
  9 27  1  0  0  0  0
 10 11  1  0  0  0  0
 11 12  2  0  0  0  0
 11 13  1  0  0  0  0
 13 14  1  0  0  0  0
 14 16  2  0  0  0  0
 15 14  1  1  0  0  0
 15 18  1  0  0  0  0
 15 26  1  0  0  0  0
 17 19  1  1  0  0  0
 17 25  1  0  0  0  0
 17 18  1  0  0  0  0
 19 20  1  0  0  0  0
 20 21  1  6  0  0  0
 20 22  1  0  0  0  0
 22 23  1  6  0  0  0
 22 24  1  0  0  0  0
 23 28  1  0  0  0  0
 23 29  1  0  0  0  0
 25 24  1  6  0  0  0
 25 27  1  0  0  0  0
 26 10  1  6  0  0  0
 26 27  1  0  0  0  0
M  END
>  <CHROM.1>
-58.21840379,65.44940138,-179.20676311,178.18141143,-116.74923272,-87.03742343
27.93690385,36.70717376,19.75631859,-1.58730656,-1.42561626,-3.13021317

>  <Name>
ligand

>  <RI>
0

>  <Rbt.Current_Directory>
/home/itssahil/PROJECTS/Mol_Feturizer/New_Systems/rnas/3F4H

>  <Rbt.Executable>
rbdock ($Id: //depot/dev/client3/rdock/2013.1/src/exe/rbdock.cxx#4 $)

>  <Rbt.Library>
libRbt.so (2013.1, Build901 2013/11/27)

>  <Rbt.Parameter_File>
/export/apps/rDock/src/rDock_2013.1_src/data/scripts/dock_solv.prm

>  <Rbt.Receptor>
prm/pocket_docking_2.prm

>  <SCORE>
-47.4825

>  <SCORE.INTER>
-30.1675

>  <SCORE.INTER.CONST>
1

>  <SCORE.INTER.POLAR>
0

>  <SCORE.INTER.ROT>
6

>  <SCORE.INTER.SOLV>
9.49651

>  <SCORE.INTER.VDW>
-30.8772

>  <SCORE.INTER.norm>
-1.04026

>  <SCORE.INTRA>
-17.3282

>  <SCORE.INTRA.DIHEDRAL>
-4.63625

>  <SCORE.INTRA.DIHEDRAL.0>
6.83446

>  <SCORE.INTRA.POLAR>
0

>  <SCORE.INTRA.POLAR.0>
0

>  <SCORE.INTRA.REPUL>
0

>  <SCORE.INTRA.REPUL.0>
0

>  <SCORE.INTRA.SOLV>
-0.00548279

>  <SCORE.INTRA.SOLV.lig_0>
-26.4601

>  <SCORE.INTRA.VDW>
-15.0074

>  <SCORE.INTRA.VDW.0>
13.7853

>  <SCORE.INTRA.norm>
-0.597525

>  <SCORE.RESTR>
0.0131853

>  <SCORE.RESTR.CAVITY>
0.0131853

>  <SCORE.RESTR.norm>
0.000454666

>  <SCORE.SYSTEM>
0

>  <SCORE.SYSTEM.CONST>
0

>  <SCORE.SYSTEM.DIHEDRAL>
0

>  <SCORE.SYSTEM.SOLV>
0

>  <SCORE.SYSTEM.norm>
0

>  <SCORE.heavy>
29

>  <SCORE.norm>
-1.63733

>  <RMSD>
0.748

$$$$
ligand
 OpenBabel11021811473D
libRbt.so/2013.1/901 2013/11/27
 29 31  0  0  0  0  0  0  0  0999 V2000
   28.9081   41.0985   16.6790 C   0  0  0  0  0  0  0  0  0  0  0  0
   27.6312   41.5591   16.2246 O   0  0  0  0  0  0  0  0  0  0  0  0
   28.7084   39.9694   17.6807 C   0  0  1  0  0  0  0  0  0  0  0  0
   27.9202   40.4571   18.7620 O   0  0  0  0  0  0  0  0  0  0  0  0
   28.0212   38.7819   17.0188 C   0  0  1  0  0  0  0  0  0  0  0  0
   28.9144   38.2747   16.0341 O   0  0  0  0  0  0  0  0  0  0  0  0
   27.6029   37.6608   17.9747 C   0  0  1  0  0  0  0  0  0  0  0  0
   26.9369   36.6479   17.2197 O   0  0  0  0  0  0  0  0  0  0  0  0
   28.7780   37.0138   18.7049 C   0  0  0  0  0  0  0  0  0  0  0  0
   28.6185   34.2810   18.0136 N   0  0  0  0  0  0  0  0  0  0  0  0
   28.5591   32.9692   17.6480 C   0  0  0  0  0  0  0  0  0  0  0  0
   28.8968   32.6157   16.4906 O   0  0  0  0  0  0  0  0  0  0  0  0
   28.1291   32.0304   18.5287 N   0  0  0  0  0  0  0  0  0  0  0  0
   27.7517   32.3757   19.7854 C   0  0  0  0  0  0  0  0  0  0  0  0
   27.8083   33.7097   20.1727 C   0  0  1  0  0  0  0  0  0  0  0  0
   27.3525   31.5036   20.5964 O   0  0  0  0  0  0  0  0  0  0  0  0
   27.4967   35.3572   21.7988 C   0  0  1  0  0  0  0  0  0  0  0  0
   27.4397   34.0630   21.4232 N   0  0  0  0  0  0  0  0  0  0  0  0
   27.1148   35.7121   23.0878 C   0  0  0  0  0  0  0  0  0  0  0  0
   27.1649   37.0375   23.5054 C   0  0  2  0  0  0  0  0  0  0  0  0
   26.7353   37.3518   24.9154 C   0  0  0  0  0  0  0  0  0  0  0  0
   27.6053   38.0286   22.6191 C   0  0  2  0  0  0  0  0  0  0  0  0
   27.6811   39.3508   22.9586 N   0  0  0  0  0  0  0  0  0  0  0  0
   27.9854   37.6562   21.3239 C   0  0  0  0  0  0  0  0  0  0  0  0
   27.9355   36.3285   20.9004 C   0  0  2  0  0  0  0  0  0  0  0  0
   28.2525   34.6778   19.2668 C   0  0  2  0  0  0  0  0  0  0  0  0
   28.3020   35.9808   19.6455 N   0  0  0  0  0  0  0  0  0  0  0  0
   28.5950   39.7739   24.0027 C   0  0  0  0  0  0  0  0  0  0  0  0
   26.8780   40.3737   22.3093 C   0  0  0  0  0  0  0  0  0  0  0  0
  1  2  1  0  0  0  0
  3  1  1  6  0  0  0
  3  4  1  0  0  0  0
  3  5  1  0  0  0  0
  5  6  1  6  0  0  0
  5  7  1  0  0  0  0
  7  8  1  6  0  0  0
  7  9  1  0  0  0  0
  9 27  1  0  0  0  0
 10 11  1  0  0  0  0
 11 12  2  0  0  0  0
 11 13  1  0  0  0  0
 13 14  1  0  0  0  0
 14 16  2  0  0  0  0
 15 14  1  1  0  0  0
 15 18  1  0  0  0  0
 15 26  1  0  0  0  0
 17 19  1  1  0  0  0
 17 25  1  0  0  0  0
 17 18  1  0  0  0  0
 19 20  1  0  0  0  0
 20 21  1  6  0  0  0
 20 22  1  0  0  0  0
 22 23  1  6  0  0  0
 22 24  1  0  0  0  0
 23 28  1  0  0  0  0
 23 29  1  0  0  0  0
 25 24  1  6  0  0  0
 25 27  1  0  0  0  0
 26 10  1  6  0  0  0
 26 27  1  0  0  0  0
M  END
>  <CHROM.1>
-58.46537514,65.05950823,178.04105353,177.81181402,63.85906936,-86.47362437
27.92449601,36.71550050,19.75727978,-1.59099170,-1.42457308,-3.13996909

>  <Name>
ligand

>  <RI>
0

>  <Rbt.Current_Directory>
/home/itssahil/PROJECTS/Mol_Feturizer/New_Systems/rnas/3F4H

>  <Rbt.Executable>
rbdock ($Id: //depot/dev/client3/rdock/2013.1/src/exe/rbdock.cxx#4 $)

>  <Rbt.Library>
libRbt.so (2013.1, Build901 2013/11/27)

>  <Rbt.Parameter_File>
/export/apps/rDock/src/rDock_2013.1_src/data/scripts/dock_solv.prm

>  <Rbt.Receptor>
prm/pocket_docking_2.prm

>  <SCORE>
-47.2402

>  <SCORE.INTER>
-29.996

>  <SCORE.INTER.CONST>
1

>  <SCORE.INTER.POLAR>
0

>  <SCORE.INTER.ROT>
6

>  <SCORE.INTER.SOLV>
9.48257

>  <SCORE.INTER.VDW>
-30.7582

>  <SCORE.INTER.norm>
-1.03434

>  <SCORE.INTRA>
-17.2546

>  <SCORE.INTRA.DIHEDRAL>
-4.63512

>  <SCORE.INTRA.DIHEDRAL.0>
6.83446

>  <SCORE.INTRA.POLAR>
0

>  <SCORE.INTRA.POLAR.0>
0

>  <SCORE.INTRA.REPUL>
0

>  <SCORE.INTRA.REPUL.0>
0

>  <SCORE.INTRA.SOLV>
-0.0169093

>  <SCORE.INTRA.SOLV.lig_0>
-26.4601

>  <SCORE.INTRA.VDW>
-14.9286

>  <SCORE.INTRA.VDW.0>
13.7853

>  <SCORE.INTRA.norm>
-0.594985

>  <SCORE.RESTR>
0.0102798

>  <SCORE.RESTR.CAVITY>
0.0102798

>  <SCORE.RESTR.norm>
0.000354477

>  <SCORE.SYSTEM>
0

>  <SCORE.SYSTEM.CONST>
0

>  <SCORE.SYSTEM.DIHEDRAL>
0

>  <SCORE.SYSTEM.SOLV>
0

>  <SCORE.SYSTEM.norm>
0

>  <SCORE.heavy>
29

>  <SCORE.norm>
-1.62897

>  <RMSD>
0.748

$$$$
ligand
 OpenBabel11021811473D
libRbt.so/2013.1/901 2013/11/27
 29 31  0  0  0  0  0  0  0  0999 V2000
   28.8220   40.9104   16.3073 C   0  0  0  0  0  0  0  0  0  0  0  0
   27.5439   41.4759   15.9983 O   0  0  0  0  0  0  0  0  0  0  0  0
   28.6644   39.8941   17.4299 C   0  0  1  0  0  0  0  0  0  0  0  0
   28.0698   40.5437   18.5492 O   0  0  0  0  0  0  0  0  0  0  0  0
   27.7996   38.7250   16.9761 C   0  0  1  0  0  0  0  0  0  0  0  0
   28.4958   38.0718   15.9210 O   0  0  0  0  0  0  0  0  0  0  0  0
   27.4456   37.7173   18.0737 C   0  0  1  0  0  0  0  0  0  0  0  0
   26.6283   36.6950   17.5024 O   0  0  0  0  0  0  0  0  0  0  0  0
   28.6666   37.0518   18.7055 C   0  0  0  0  0  0  0  0  0  0  0  0
   28.5028   34.3239   17.9966 N   0  0  0  0  0  0  0  0  0  0  0  0
   28.4395   33.0148   17.6217 C   0  0  0  0  0  0  0  0  0  0  0  0
   28.7191   32.6762   16.4446 O   0  0  0  0  0  0  0  0  0  0  0  0
   28.0683   32.0627   18.5148 N   0  0  0  0  0  0  0  0  0  0  0  0
   27.7545   32.3916   19.7932 C   0  0  0  0  0  0  0  0  0  0  0  0
   27.8159   33.7226   20.1901 C   0  0  1  0  0  0  0  0  0  0  0  0
   27.4095   31.5072   20.6156 O   0  0  0  0  0  0  0  0  0  0  0  0
   27.5721   35.3510   21.8466 C   0  0  1  0  0  0  0  0  0  0  0  0
   27.5104   34.0597   21.4619 N   0  0  0  0  0  0  0  0  0  0  0  0
   27.2554   35.6892   23.1577 C   0  0  0  0  0  0  0  0  0  0  0  0
   27.3121   37.0112   23.5851 C   0  0  2  0  0  0  0  0  0  0  0  0
   26.9547   37.3072   25.0190 C   0  0  0  0  0  0  0  0  0  0  0  0
   27.6928   38.0159   22.6864 C   0  0  2  0  0  0  0  0  0  0  0  0
   27.7709   39.3357   23.0345 N   0  0  0  0  0  0  0  0  0  0  0  0
   28.0075   37.6602   21.3692 C   0  0  0  0  0  0  0  0  0  0  0  0
   27.9508   36.3360   20.9359 C   0  0  2  0  0  0  0  0  0  0  0  0
   28.1996   34.7045   19.2714 C   0  0  2  0  0  0  0  0  0  0  0  0
   28.2538   36.0045   19.6598 N   0  0  0  0  0  0  0  0  0  0  0  0
   26.5752   40.0397   23.4576 C   0  0  0  0  0  0  0  0  0  0  0  0
   29.0182   40.0814   23.0044 C   0  0  0  0  0  0  0  0  0  0  0  0
  1  2  1  0  0  0  0
  3  1  1  6  0  0  0
  3  4  1  0  0  0  0
  3  5  1  0  0  0  0
  5  6  1  6  0  0  0
  5  7  1  0  0  0  0
  7  8  1  6  0  0  0
  7  9  1  0  0  0  0
  9 27  1  0  0  0  0
 10 11  1  0  0  0  0
 11 12  2  0  0  0  0
 11 13  1  0  0  0  0
 13 14  1  0  0  0  0
 14 16  2  0  0  0  0
 15 14  1  1  0  0  0
 15 18  1  0  0  0  0
 15 26  1  0  0  0  0
 17 19  1  1  0  0  0
 17 25  1  0  0  0  0
 17 18  1  0  0  0  0
 19 20  1  0  0  0  0
 20 21  1  6  0  0  0
 20 22  1  0  0  0  0
 22 23  1  6  0  0  0
 22 24  1  0  0  0  0
 23 28  1  0  0  0  0
 23 29  1  0  0  0  0
 25 24  1  6  0  0  0
 25 27  1  0  0  0  0
 26 10  1  6  0  0  0
 26 27  1  0  0  0  0
M  END
>  <CHROM.1>
-56.91547741,63.80476395,179.47085237,-174.62409114,-62.79366538,-84.92393554
27.89257337,36.70568443,19.74948085,-1.50613845,-1.45801702,-3.11774816

>  <Name>
ligand

>  <RI>
0

>  <Rbt.Current_Directory>
/home/itssahil/PROJECTS/Mol_Feturizer/New_Systems/rnas/3F4H

>  <Rbt.Executable>
rbdock ($Id: //depot/dev/client3/rdock/2013.1/src/exe/rbdock.cxx#4 $)

>  <Rbt.Library>
libRbt.so (2013.1, Build901 2013/11/27)

>  <Rbt.Parameter_File>
/export/apps/rDock/src/rDock_2013.1_src/data/scripts/dock_solv.prm

>  <Rbt.Receptor>
prm/pocket_docking_2.prm

>  <SCORE>
-46.035

>  <SCORE.INTER>
-29.1309

>  <SCORE.INTER.CONST>
1

>  <SCORE.INTER.POLAR>
0

>  <SCORE.INTER.ROT>
6

>  <SCORE.INTER.SOLV>
10.1569

>  <SCORE.INTER.VDW>
-30.4063

>  <SCORE.INTER.norm>
-1.00451

>  <SCORE.INTRA>
-16.9197

>  <SCORE.INTRA.DIHEDRAL>
-4.58008

>  <SCORE.INTRA.DIHEDRAL.0>
6.83446

>  <SCORE.INTRA.POLAR>
0

>  <SCORE.INTRA.POLAR.0>
0

>  <SCORE.INTRA.REPUL>
0

>  <SCORE.INTRA.REPUL.0>
0

>  <SCORE.INTRA.SOLV>
-0.126696

>  <SCORE.INTRA.SOLV.lig_0>
-26.4601

>  <SCORE.INTRA.VDW>
-14.5663

>  <SCORE.INTRA.VDW.0>
13.7853

>  <SCORE.INTRA.norm>
-0.583436

>  <SCORE.RESTR>
0.0155537

>  <SCORE.RESTR.CAVITY>
0.0155537

>  <SCORE.RESTR.norm>
0.000536333

>  <SCORE.SYSTEM>
0

>  <SCORE.SYSTEM.CONST>
0

>  <SCORE.SYSTEM.DIHEDRAL>
0

>  <SCORE.SYSTEM.SOLV>
0

>  <SCORE.SYSTEM.norm>
0

>  <SCORE.heavy>
29

>  <SCORE.norm>
-1.58741

>  <RMSD>
0.762

$$$$
ligand
 OpenBabel11021811473D
libRbt.so/2013.1/901 2013/11/27
 29 31  0  0  0  0  0  0  0  0999 V2000
   28.9126   40.7441   16.0875 C   0  0  0  0  0  0  0  0  0  0  0  0
   29.6968   40.2245   15.0086 O   0  0  0  0  0  0  0  0  0  0  0  0
   28.8427   39.7095   17.2023 C   0  0  1  0  0  0  0  0  0  0  0  0
   28.1346   40.2747   18.3013 O   0  0  0  0  0  0  0  0  0  0  0  0
   28.1443   38.4458   16.7169 C   0  0  1  0  0  0  0  0  0  0  0  0
   29.0510   37.7698   15.8534 O   0  0  0  0  0  0  0  0  0  0  0  0
   27.6722   37.5005   17.8256 C   0  0  1  0  0  0  0  0  0  0  0  0
   27.1283   36.3278   17.2186 O   0  0  0  0  0  0  0  0  0  0  0  0
   28.7889   37.0701   18.7745 C   0  0  0  0  0  0  0  0  0  0  0  0
   28.6352   34.3468   18.0455 N   0  0  0  0  0  0  0  0  0  0  0  0
   28.5787   33.0400   17.6619 C   0  0  0  0  0  0  0  0  0  0  0  0
   28.9199   32.7028   16.5008 O   0  0  0  0  0  0  0  0  0  0  0  0
   28.1478   32.0887   18.5287 N   0  0  0  0  0  0  0  0  0  0  0  0
   27.7666   32.4162   19.7890 C   0  0  0  0  0  0  0  0  0  0  0  0
   27.8202   33.7448   20.1946 C   0  0  1  0  0  0  0  0  0  0  0  0
   27.3666   31.5325   20.5869 O   0  0  0  0  0  0  0  0  0  0  0  0
   27.5020   35.3696   21.8421 C   0  0  1  0  0  0  0  0  0  0  0  0
   27.4479   34.0805   21.4488 N   0  0  0  0  0  0  0  0  0  0  0  0
   27.1162   35.7063   23.1349 C   0  0  0  0  0  0  0  0  0  0  0  0
   27.1633   37.0259   23.5707 C   0  0  2  0  0  0  0  0  0  0  0  0
   26.7295   37.3203   24.9837 C   0  0  0  0  0  0  0  0  0  0  0  0
   27.6045   38.0297   22.6991 C   0  0  2  0  0  0  0  0  0  0  0  0
   27.6774   39.3472   23.0568 N   0  0  0  0  0  0  0  0  0  0  0  0
   27.9885   37.6756   21.4000 C   0  0  0  0  0  0  0  0  0  0  0  0
   27.9417   36.3537   20.9583 C   0  0  2  0  0  0  0  0  0  0  0  0
   28.2654   34.7259   19.3031 C   0  0  2  0  0  0  0  0  0  0  0  0
   28.3120   36.0237   19.6997 N   0  0  0  0  0  0  0  0  0  0  0  0
   26.8309   40.3204   22.3930 C   0  0  0  0  0  0  0  0  0  0  0  0
   28.5762   39.8293   24.0925 C   0  0  0  0  0  0  0  0  0  0  0  0
  1  2  1  0  0  0  0
  3  1  1  6  0  0  0
  3  4  1  0  0  0  0
  3  5  1  0  0  0  0
  5  6  1  6  0  0  0
  5  7  1  0  0  0  0
  7  8  1  6  0  0  0
  7  9  1  0  0  0  0
  9 27  1  0  0  0  0
 10 11  1  0  0  0  0
 11 12  2  0  0  0  0
 11 13  1  0  0  0  0
 13 14  1  0  0  0  0
 14 16  2  0  0  0  0
 15 14  1  1  0  0  0
 15 18  1  0  0  0  0
 15 26  1  0  0  0  0
 17 19  1  1  0  0  0
 17 25  1  0  0  0  0
 17 18  1  0  0  0  0
 19 20  1  0  0  0  0
 20 21  1  6  0  0  0
 20 22  1  0  0  0  0
 22 23  1  6  0  0  0
 22 24  1  0  0  0  0
 23 28  1  0  0  0  0
 23 29  1  0  0  0  0
 25 24  1  6  0  0  0
 25 27  1  0  0  0  0
 26 10  1  6  0  0  0
 26 27  1  0  0  0  0
M  END
>  <CHROM.1>
176.23257246,73.45942868,-175.92301031,-172.25197951,-115.34003204,-99.45055450
28.04321714,36.60321196,19.66383361,-0.05877991,1.37048167,0.22899259

>  <Name>
ligand

>  <RI>
0

>  <Rbt.Current_Directory>
/home/itssahil/PROJECTS/Mol_Feturizer/New_Systems/rnas/3F4H

>  <Rbt.Executable>
rbdock ($Id: //depot/dev/client3/rdock/2013.1/src/exe/rbdock.cxx#4 $)

>  <Rbt.Library>
libRbt.so (2013.1, Build901 2013/11/27)

>  <Rbt.Parameter_File>
/export/apps/rDock/src/rDock_2013.1_src/data/scripts/dock_solv.prm

>  <Rbt.Receptor>
prm/pocket_docking_2.prm

>  <SCORE>
-46.8301

>  <SCORE.INTER>
-30.4581

>  <SCORE.INTER.CONST>
1

>  <SCORE.INTER.POLAR>
0

>  <SCORE.INTER.ROT>
6

>  <SCORE.INTER.SOLV>
10.7399

>  <SCORE.INTER.VDW>
-31.4854

>  <SCORE.INTER.norm>
-1.05028

>  <SCORE.INTRA>
-16.4394

>  <SCORE.INTRA.DIHEDRAL>
-3.80722

>  <SCORE.INTRA.DIHEDRAL.0>
6.83446

>  <SCORE.INTRA.POLAR>
0

>  <SCORE.INTRA.POLAR.0>
0

>  <SCORE.INTRA.REPUL>
0

>  <SCORE.INTRA.REPUL.0>
0

>  <SCORE.INTRA.SOLV>
0.0504099

>  <SCORE.INTRA.SOLV.lig_0>
-26.4601

>  <SCORE.INTRA.VDW>
-14.561

>  <SCORE.INTRA.VDW.0>
13.7853

>  <SCORE.INTRA.norm>
-0.566877

>  <SCORE.RESTR>
0.0674229

>  <SCORE.RESTR.CAVITY>
0.0674229

>  <SCORE.RESTR.norm>
0.00232493

>  <SCORE.SYSTEM>
0

>  <SCORE.SYSTEM.CONST>
0

>  <SCORE.SYSTEM.DIHEDRAL>
0

>  <SCORE.SYSTEM.SOLV>
0

>  <SCORE.SYSTEM.norm>
0

>  <SCORE.heavy>
29

>  <SCORE.norm>
-1.61483

>  <RMSD>
0.764

$$$$
ligand
 OpenBabel11021811473D
libRbt.so/2013.1/901 2013/11/27
 29 31  0  0  0  0  0  0  0  0999 V2000
   29.0747   41.0119   16.5921 C   0  0  0  0  0  0  0  0  0  0  0  0
   27.7897   41.5343   16.2391 O   0  0  0  0  0  0  0  0  0  0  0  0
   28.9019   39.9060   17.6242 C   0  0  1  0  0  0  0  0  0  0  0  0
   28.2226   40.4432   18.7548 O   0  0  0  0  0  0  0  0  0  0  0  0
   28.1125   38.7435   17.0360 C   0  0  1  0  0  0  0  0  0  0  0  0
   28.9312   38.1402   16.0408 O   0  0  0  0  0  0  0  0  0  0  0  0
   27.6584   37.6902   18.0509 C   0  0  1  0  0  0  0  0  0  0  0  0
   26.9005   36.6953   17.3614 O   0  0  0  0  0  0  0  0  0  0  0  0
   28.8155   36.9954   18.7658 C   0  0  0  0  0  0  0  0  0  0  0  0
   28.6184   34.2692   18.0584 N   0  0  0  0  0  0  0  0  0  0  0  0
   28.5413   32.9604   17.6854 C   0  0  0  0  0  0  0  0  0  0  0  0
   28.8869   32.6070   16.5303 O   0  0  0  0  0  0  0  0  0  0  0  0
   28.0850   32.0247   18.5560 N   0  0  0  0  0  0  0  0  0  0  0  0
   27.6984   32.3700   19.8099 C   0  0  0  0  0  0  0  0  0  0  0  0
   27.7727   33.7009   20.2048 C   0  0  1  0  0  0  0  0  0  0  0  0
   27.2748   31.5008   20.6115 O   0  0  0  0  0  0  0  0  0  0  0  0
   27.4694   35.3453   21.8354 C   0  0  1  0  0  0  0  0  0  0  0  0
   27.3951   34.0542   21.4526 N   0  0  0  0  0  0  0  0  0  0  0  0
   27.0780   35.7002   23.1217 C   0  0  0  0  0  0  0  0  0  0  0  0
   27.1454   37.0225   23.5467 C   0  0  2  0  0  0  0  0  0  0  0  0
   26.7042   37.3370   24.9531 C   0  0  0  0  0  0  0  0  0  0  0  0
   27.6130   38.0104   22.6708 C   0  0  2  0  0  0  0  0  0  0  0  0
   27.7069   39.3294   23.0181 N   0  0  0  0  0  0  0  0  0  0  0  0
   28.0023   37.6381   21.3784 C   0  0  0  0  0  0  0  0  0  0  0  0
   27.9353   36.3136   20.9475 C   0  0  2  0  0  0  0  0  0  0  0  0
   28.2441   34.6659   19.3092 C   0  0  2  0  0  0  0  0  0  0  0  0
   28.3109   35.9660   19.6952 N   0  0  0  0  0  0  0  0  0  0  0  0
   26.8892   40.3131   22.3338 C   0  0  0  0  0  0  0  0  0  0  0  0
   28.6004   39.8031   24.0622 C   0  0  0  0  0  0  0  0  0  0  0  0
  1  2  1  0  0  0  0
  3  1  1  6  0  0  0
  3  4  1  0  0  0  0
  3  5  1  0  0  0  0
  5  6  1  6  0  0  0
  5  7  1  0  0  0  0
  7  8  1  6  0  0  0
  7  9  1  0  0  0  0
  9 27  1  0  0  0  0
 10 11  1  0  0  0  0
 11 12  2  0  0  0  0
 11 13  1  0  0  0  0
 13 14  1  0  0  0  0
 14 16  2  0  0  0  0
 15 14  1  1  0  0  0
 15 18  1  0  0  0  0
 15 26  1  0  0  0  0
 17 19  1  1  0  0  0
 17 25  1  0  0  0  0
 17 18  1  0  0  0  0
 19 20  1  0  0  0  0
 20 21  1  6  0  0  0
 20 22  1  0  0  0  0
 22 23  1  6  0  0  0
 22 24  1  0  0  0  0
 23 28  1  0  0  0  0
 23 29  1  0  0  0  0
 25 24  1  6  0  0  0
 25 27  1  0  0  0  0
 26 10  1  6  0  0  0
 26 27  1  0  0  0  0
M  END
>  <CHROM.1>
-57.92397234,67.98804303,178.17202666,-178.20583171,-115.63060922,-85.04474554
27.94931457,36.69619179,19.79012185,-1.44511696,-1.40907358,-3.01091279

>  <Name>
ligand

>  <RI>
0

>  <Rbt.Current_Directory>
/home/itssahil/PROJECTS/Mol_Feturizer/New_Systems/rnas/3F4H

>  <Rbt.Executable>
rbdock ($Id: //depot/dev/client3/rdock/2013.1/src/exe/rbdock.cxx#4 $)

>  <Rbt.Library>
libRbt.so (2013.1, Build901 2013/11/27)

>  <Rbt.Parameter_File>
/export/apps/rDock/src/rDock_2013.1_src/data/scripts/dock_solv.prm

>  <Rbt.Receptor>
prm/pocket_docking_2.prm

>  <SCORE>
-47.5915

>  <SCORE.INTER>
-30.2285

>  <SCORE.INTER.CONST>
1

>  <SCORE.INTER.POLAR>
0

>  <SCORE.INTER.ROT>
6

>  <SCORE.INTER.SOLV>
9.63475

>  <SCORE.INTER.VDW>
-30.9639

>  <SCORE.INTER.norm>
-1.04236

>  <SCORE.INTRA>
-17.3748

>  <SCORE.INTRA.DIHEDRAL>
-4.49845

>  <SCORE.INTRA.DIHEDRAL.0>
6.83446

>  <SCORE.INTRA.POLAR>
0

>  <SCORE.INTRA.POLAR.0>
0

>  <SCORE.INTRA.REPUL>
0

>  <SCORE.INTRA.REPUL.0>
0

>  <SCORE.INTRA.SOLV>
-0.0285513

>  <SCORE.INTRA.SOLV.lig_0>
-26.4601

>  <SCORE.INTRA.VDW>
-15.1113

>  <SCORE.INTRA.VDW.0>
13.7853

>  <SCORE.INTRA.norm>
-0.599132

>  <SCORE.RESTR>
0.0118414

>  <SCORE.RESTR.CAVITY>
0.0118414

>  <SCORE.RESTR.norm>
0.000408324

>  <SCORE.SYSTEM>
0

>  <SCORE.SYSTEM.CONST>
0

>  <SCORE.SYSTEM.DIHEDRAL>
0

>  <SCORE.SYSTEM.SOLV>
0

>  <SCORE.SYSTEM.norm>
0

>  <SCORE.heavy>
29

>  <SCORE.norm>
-1.64109

>  <RMSD>
0.767

$$$$
ligand
 OpenBabel11021811473D
libRbt.so/2013.1/901 2013/11/27
 29 31  0  0  0  0  0  0  0  0999 V2000
   29.0687   41.0360   16.6869 C   0  0  0  0  0  0  0  0  0  0  0  0
   27.8065   41.5705   16.2742 O   0  0  0  0  0  0  0  0  0  0  0  0
   28.8371   39.9295   17.7067 C   0  0  1  0  0  0  0  0  0  0  0  0
   28.1072   40.4697   18.8038 O   0  0  0  0  0  0  0  0  0  0  0  0
   28.0689   38.7741   17.0779 C   0  0  1  0  0  0  0  0  0  0  0  0
   28.9015   38.2159   16.0680 O   0  0  0  0  0  0  0  0  0  0  0  0
   27.6270   37.6819   18.0564 C   0  0  1  0  0  0  0  0  0  0  0  0
   26.9045   36.6881   17.3284 O   0  0  0  0  0  0  0  0  0  0  0  0
   28.7909   36.9964   18.7692 C   0  0  0  0  0  0  0  0  0  0  0  0
   28.6140   34.2732   18.0450 N   0  0  0  0  0  0  0  0  0  0  0  0
   28.5465   32.9662   17.6639 C   0  0  0  0  0  0  0  0  0  0  0  0
   28.8924   32.6229   16.5058 O   0  0  0  0  0  0  0  0  0  0  0  0
   28.0997   32.0214   18.5296 N   0  0  0  0  0  0  0  0  0  0  0  0
   27.7131   32.3557   19.7865 C   0  0  0  0  0  0  0  0  0  0  0  0
   27.7778   33.6846   20.1896 C   0  0  1  0  0  0  0  0  0  0  0  0
   27.2983   31.4781   20.5835 O   0  0  0  0  0  0  0  0  0  0  0  0
   27.4649   35.3163   21.8313 C   0  0  1  0  0  0  0  0  0  0  0  0
   27.4001   34.0270   21.4404 N   0  0  0  0  0  0  0  0  0  0  0  0
   27.0736   35.6599   23.1206 C   0  0  0  0  0  0  0  0  0  0  0  0
   27.1314   36.9799   23.5538 C   0  0  2  0  0  0  0  0  0  0  0  0
   26.6908   37.2820   24.9631 C   0  0  0  0  0  0  0  0  0  0  0  0
   27.5892   37.9771   22.6832 C   0  0  2  0  0  0  0  0  0  0  0  0
   27.6733   39.2946   23.0386 N   0  0  0  0  0  0  0  0  0  0  0  0
   27.9785   37.6161   21.3876 C   0  0  0  0  0  0  0  0  0  0  0  0
   27.9211   36.2938   20.9484 C   0  0  2  0  0  0  0  0  0  0  0  0
   28.2394   34.6590   19.2991 C   0  0  2  0  0  0  0  0  0  0  0  0
   28.2967   35.9571   19.6932 N   0  0  0  0  0  0  0  0  0  0  0  0
   28.5838   39.6982   24.0933 C   0  0  0  0  0  0  0  0  0  0  0  0
   26.8826   40.3314   22.3961 C   0  0  0  0  0  0  0  0  0  0  0  0
  1  2  1  0  0  0  0
  3  1  1  6  0  0  0
  3  4  1  0  0  0  0
  3  5  1  0  0  0  0
  5  6  1  6  0  0  0
  5  7  1  0  0  0  0
  7  8  1  6  0  0  0
  7  9  1  0  0  0  0
  9 27  1  0  0  0  0
 10 11  1  0  0  0  0
 11 12  2  0  0  0  0
 11 13  1  0  0  0  0
 13 14  1  0  0  0  0
 14 16  2  0  0  0  0
 15 14  1  1  0  0  0
 15 18  1  0  0  0  0
 15 26  1  0  0  0  0
 17 19  1  1  0  0  0
 17 25  1  0  0  0  0
 17 18  1  0  0  0  0
 19 20  1  0  0  0  0
 20 21  1  6  0  0  0
 20 22  1  0  0  0  0
 22 23  1  6  0  0  0
 22 24  1  0  0  0  0
 23 28  1  0  0  0  0
 23 29  1  0  0  0  0
 25 24  1  6  0  0  0
 25 27  1  0  0  0  0
 26 10  1  6  0  0  0
 26 27  1  0  0  0  0
M  END
>  <CHROM.1>
-57.81535398,64.64393610,178.98788037,-179.94097023,64.05422423,-85.30965524
27.93536710,36.68917261,19.80021257,-1.47928428,-1.41065958,-3.03722000

>  <Name>
ligand

>  <RI>
0

>  <Rbt.Current_Directory>
/home/itssahil/PROJECTS/Mol_Feturizer/New_Systems/rnas/3F4H

>  <Rbt.Executable>
rbdock ($Id: //depot/dev/client3/rdock/2013.1/src/exe/rbdock.cxx#4 $)

>  <Rbt.Library>
libRbt.so (2013.1, Build901 2013/11/27)

>  <Rbt.Parameter_File>
/export/apps/rDock/src/rDock_2013.1_src/data/scripts/dock_solv.prm

>  <Rbt.Receptor>
prm/pocket_docking_2.prm

>  <SCORE>
-47.3756

>  <SCORE.INTER>
-30.1516

>  <SCORE.INTER.CONST>
1

>  <SCORE.INTER.POLAR>
0

>  <SCORE.INTER.ROT>
6

>  <SCORE.INTER.SOLV>
9.59813

>  <SCORE.INTER.VDW>
-30.9004

>  <SCORE.INTER.norm>
-1.03971

>  <SCORE.INTRA>
-17.2365

>  <SCORE.INTRA.DIHEDRAL>
-4.67063

>  <SCORE.INTRA.DIHEDRAL.0>
6.83446

>  <SCORE.INTRA.POLAR>
0

>  <SCORE.INTRA.POLAR.0>
0

>  <SCORE.INTRA.REPUL>
0

>  <SCORE.INTRA.REPUL.0>
0

>  <SCORE.INTRA.SOLV>
-0.032648

>  <SCORE.INTRA.SOLV.lig_0>
-26.4601

>  <SCORE.INTRA.VDW>
-14.8849

>  <SCORE.INTRA.VDW.0>
13.7853

>  <SCORE.INTRA.norm>
-0.594363

>  <SCORE.RESTR>
0.0124625

>  <SCORE.RESTR.CAVITY>
0.0124625

>  <SCORE.RESTR.norm>
0.00042974

>  <SCORE.SYSTEM>
0

>  <SCORE.SYSTEM.CONST>
0

>  <SCORE.SYSTEM.DIHEDRAL>
0

>  <SCORE.SYSTEM.SOLV>
0

>  <SCORE.SYSTEM.norm>
0

>  <SCORE.heavy>
29

>  <SCORE.norm>
-1.63364

>  <RMSD>
0.772

$$$$
ligand
 OpenBabel11021811473D
libRbt.so/2013.1/901 2013/11/27
 29 31  0  0  0  0  0  0  0  0999 V2000
   28.6701   40.9712   16.3624 C   0  0  0  0  0  0  0  0  0  0  0  0
   27.3636   41.4147   15.9811 O   0  0  0  0  0  0  0  0  0  0  0  0
   28.5457   39.9317   17.4679 C   0  0  1  0  0  0  0  0  0  0  0  0
   27.8563   40.5193   18.5669 O   0  0  0  0  0  0  0  0  0  0  0  0
   27.7945   38.7048   16.9672 C   0  0  1  0  0  0  0  0  0  0  0  0
   28.6057   38.0927   15.9712 O   0  0  0  0  0  0  0  0  0  0  0  0
   27.4306   37.6828   18.0482 C   0  0  1  0  0  0  0  0  0  0  0  0
   26.6752   36.6332   17.4421 O   0  0  0  0  0  0  0  0  0  0  0  0
   28.6467   37.0598   18.7307 C   0  0  0  0  0  0  0  0  0  0  0  0
   28.4981   34.3347   18.0077 N   0  0  0  0  0  0  0  0  0  0  0  0
   28.4423   33.0272   17.6263 C   0  0  0  0  0  0  0  0  0  0  0  0
   28.7320   32.6952   16.4497 O   0  0  0  0  0  0  0  0  0  0  0  0
   28.0679   32.0696   18.5121 N   0  0  0  0  0  0  0  0  0  0  0  0
   27.7433   32.3913   19.7896 C   0  0  0  0  0  0  0  0  0  0  0  0
   27.7969   33.7205   20.1932 C   0  0  1  0  0  0  0  0  0  0  0  0
   27.3953   31.5018   20.6051 O   0  0  0  0  0  0  0  0  0  0  0  0
   27.5348   35.3403   21.8555 C   0  0  1  0  0  0  0  0  0  0  0  0
   27.4807   34.0506   21.4642 N   0  0  0  0  0  0  0  0  0  0  0  0
   27.2070   35.6711   23.1656 C   0  0  0  0  0  0  0  0  0  0  0  0
   27.2557   36.9913   23.5997 C   0  0  2  0  0  0  0  0  0  0  0  0
   26.8864   37.2791   25.0323 C   0  0  0  0  0  0  0  0  0  0  0  0
   27.6394   38.0015   22.7087 C   0  0  2  0  0  0  0  0  0  0  0  0
   27.7101   39.3200   23.0635 N   0  0  0  0  0  0  0  0  0  0  0  0
   27.9653   37.6532   21.3922 C   0  0  0  0  0  0  0  0  0  0  0  0
   27.9167   36.3308   20.9522 C   0  0  2  0  0  0  0  0  0  0  0  0
   28.1840   34.7081   19.2820 C   0  0  2  0  0  0  0  0  0  0  0  0
   28.2305   36.0065   19.6769 N   0  0  0  0  0  0  0  0  0  0  0  0
   28.9830   40.0133   23.0044 C   0  0  0  0  0  0  0  0  0  0  0  0
   26.5491   40.0767   23.5018 C   0  0  0  0  0  0  0  0  0  0  0  0
  1  2  1  0  0  0  0
  3  1  1  6  0  0  0
  3  4  1  0  0  0  0
  3  5  1  0  0  0  0
  5  6  1  6  0  0  0
  5  7  1  0  0  0  0
  7  8  1  6  0  0  0
  7  9  1  0  0  0  0
  9 27  1  0  0  0  0
 10 11  1  0  0  0  0
 11 12  2  0  0  0  0
 11 13  1  0  0  0  0
 13 14  1  0  0  0  0
 14 16  2  0  0  0  0
 15 14  1  1  0  0  0
 15 18  1  0  0  0  0
 15 26  1  0  0  0  0
 17 19  1  1  0  0  0
 17 25  1  0  0  0  0
 17 18  1  0  0  0  0
 19 20  1  0  0  0  0
 20 21  1  6  0  0  0
 20 22  1  0  0  0  0
 22 23  1  6  0  0  0
 22 24  1  0  0  0  0
 23 28  1  0  0  0  0
 23 29  1  0  0  0  0
 25 24  1  6  0  0  0
 25 27  1  0  0  0  0
 26 10  1  6  0  0  0
 26 27  1  0  0  0  0
M  END
>  <CHROM.1>
-58.36662377,65.91455022,176.99488667,-175.24409161,117.92134851,-87.36192624
27.85385523,36.69872740,19.75924099,-1.62468872,-1.45746434,3.05832075

>  <Name>
ligand

>  <RI>
0

>  <Rbt.Current_Directory>
/home/itssahil/PROJECTS/Mol_Feturizer/New_Systems/rnas/3F4H

>  <Rbt.Executable>
rbdock ($Id: //depot/dev/client3/rdock/2013.1/src/exe/rbdock.cxx#4 $)

>  <Rbt.Library>
libRbt.so (2013.1, Build901 2013/11/27)

>  <Rbt.Parameter_File>
/export/apps/rDock/src/rDock_2013.1_src/data/scripts/dock_solv.prm

>  <Rbt.Receptor>
prm/pocket_docking_2.prm

>  <SCORE>
-46.2297

>  <SCORE.INTER>
-29.145

>  <SCORE.INTER.CONST>
1

>  <SCORE.INTER.POLAR>
0

>  <SCORE.INTER.ROT>
6

>  <SCORE.INTER.SOLV>
10.0825

>  <SCORE.INTER.VDW>
-30.3908

>  <SCORE.INTER.norm>
-1.005

>  <SCORE.INTRA>
-17.0899

>  <SCORE.INTRA.DIHEDRAL>
-4.51619

>  <SCORE.INTRA.DIHEDRAL.0>
6.83446

>  <SCORE.INTRA.POLAR>
0

>  <SCORE.INTRA.POLAR.0>
0

>  <SCORE.INTRA.REPUL>
0

>  <SCORE.INTRA.REPUL.0>
0

>  <SCORE.INTRA.SOLV>
-0.121222

>  <SCORE.INTRA.SOLV.lig_0>
-26.4601

>  <SCORE.INTRA.VDW>
-14.7712

>  <SCORE.INTRA.VDW.0>
13.7853

>  <SCORE.INTRA.norm>
-0.589307

>  <SCORE.RESTR>
0.00514041

>  <SCORE.RESTR.CAVITY>
0.00514041

>  <SCORE.RESTR.norm>
0.000177256

>  <SCORE.SYSTEM>
0

>  <SCORE.SYSTEM.CONST>
0

>  <SCORE.SYSTEM.DIHEDRAL>
0

>  <SCORE.SYSTEM.SOLV>
0

>  <SCORE.SYSTEM.norm>
0

>  <SCORE.heavy>
29

>  <SCORE.norm>
-1.59413

>  <RMSD>
0.777

$$$$
ligand
 OpenBabel11021811473D
libRbt.so/2013.1/901 2013/11/27
 29 31  0  0  0  0  0  0  0  0999 V2000
   28.5796   41.0988   16.5448 C   0  0  0  0  0  0  0  0  0  0  0  0
   27.2799   41.5569   16.1577 O   0  0  0  0  0  0  0  0  0  0  0  0
   28.4361   40.0183   17.6079 C   0  0  1  0  0  0  0  0  0  0  0  0
   27.7362   40.5671   18.7203 O   0  0  0  0  0  0  0  0  0  0  0  0
   27.6848   38.8159   17.0511 C   0  0  1  0  0  0  0  0  0  0  0  0
   28.4732   38.2798   15.9949 O   0  0  0  0  0  0  0  0  0  0  0  0
   27.3648   37.7221   18.0742 C   0  0  1  0  0  0  0  0  0  0  0  0
   26.6101   36.6999   17.4221 O   0  0  0  0  0  0  0  0  0  0  0  0
   28.6077   37.0783   18.6853 C   0  0  0  0  0  0  0  0  0  0  0  0
   28.4912   34.3485   17.9741 N   0  0  0  0  0  0  0  0  0  0  0  0
   28.4501   33.0389   17.5980 C   0  0  0  0  0  0  0  0  0  0  0  0
   28.7211   32.7078   16.4167 O   0  0  0  0  0  0  0  0  0  0  0  0
   28.1107   32.0780   18.4943 N   0  0  0  0  0  0  0  0  0  0  0  0
   27.8071   32.3986   19.7772 C   0  0  0  0  0  0  0  0  0  0  0  0
   27.8461   33.7300   20.1755 C   0  0  1  0  0  0  0  0  0  0  0  0
   27.4915   31.5061   20.6026 O   0  0  0  0  0  0  0  0  0  0  0  0
   27.5905   35.3507   21.8379 C   0  0  1  0  0  0  0  0  0  0  0  0
   27.5506   34.0589   21.4518 N   0  0  0  0  0  0  0  0  0  0  0  0
   27.2843   35.6804   23.1535 C   0  0  0  0  0  0  0  0  0  0  0  0
   27.3191   37.0027   23.5824 C   0  0  2  0  0  0  0  0  0  0  0  0
   26.9747   37.2891   25.0214 C   0  0  0  0  0  0  0  0  0  0  0  0
   27.6669   38.0163   22.6804 C   0  0  2  0  0  0  0  0  0  0  0  0
   27.7221   39.3370   23.0296 N   0  0  0  0  0  0  0  0  0  0  0  0
   27.9714   37.6691   21.3586 C   0  0  0  0  0  0  0  0  0  0  0  0
   27.9366   36.3445   20.9238 C   0  0  2  0  0  0  0  0  0  0  0  0
   28.1971   34.7209   19.2534 C   0  0  2  0  0  0  0  0  0  0  0  0
   28.2294   36.0212   19.6433 N   0  0  0  0  0  0  0  0  0  0  0  0
   28.9753   40.0589   22.9161 C   0  0  0  0  0  0  0  0  0  0  0  0
   26.5634   40.0683   23.5147 C   0  0  0  0  0  0  0  0  0  0  0  0
  1  2  1  0  0  0  0
  3  1  1  6  0  0  0
  3  4  1  0  0  0  0
  3  5  1  0  0  0  0
  5  6  1  6  0  0  0
  5  7  1  0  0  0  0
  7  8  1  6  0  0  0
  7  9  1  0  0  0  0
  9 27  1  0  0  0  0
 10 11  1  0  0  0  0
 11 12  2  0  0  0  0
 11 13  1  0  0  0  0
 13 14  1  0  0  0  0
 14 16  2  0  0  0  0
 15 14  1  1  0  0  0
 15 18  1  0  0  0  0
 15 26  1  0  0  0  0
 17 19  1  1  0  0  0
 17 25  1  0  0  0  0
 17 18  1  0  0  0  0
 19 20  1  0  0  0  0
 20 21  1  6  0  0  0
 20 22  1  0  0  0  0
 22 23  1  6  0  0  0
 22 24  1  0  0  0  0
 23 28  1  0  0  0  0
 23 29  1  0  0  0  0
 25 24  1  6  0  0  0
 25 27  1  0  0  0  0
 26 10  1  6  0  0  0
 26 27  1  0  0  0  0
M  END
>  <CHROM.1>
-58.80753111,62.93839998,177.29534746,-179.08426238,119.17406299,-84.74600469
27.84652676,36.73760894,19.76958847,-1.80799564,-1.47124365,2.90811012

>  <Name>
ligand

>  <RI>
0

>  <Rbt.Current_Directory>
/home/itssahil/PROJECTS/Mol_Feturizer/New_Systems/rnas/3F4H

>  <Rbt.Executable>
rbdock ($Id: //depot/dev/client3/rdock/2013.1/src/exe/rbdock.cxx#4 $)

>  <Rbt.Library>
libRbt.so (2013.1, Build901 2013/11/27)

>  <Rbt.Parameter_File>
/export/apps/rDock/src/rDock_2013.1_src/data/scripts/dock_solv.prm

>  <Rbt.Receptor>
prm/pocket_docking_2.prm

>  <SCORE>
-46.1525

>  <SCORE.INTER>
-29.0988

>  <SCORE.INTER.CONST>
1

>  <SCORE.INTER.POLAR>
0

>  <SCORE.INTER.ROT>
6

>  <SCORE.INTER.SOLV>
9.90255

>  <SCORE.INTER.VDW>
-30.3

>  <SCORE.INTER.norm>
-1.00341

>  <SCORE.INTRA>
-17.0564

>  <SCORE.INTRA.DIHEDRAL>
-4.70318

>  <SCORE.INTRA.DIHEDRAL.0>
6.83446

>  <SCORE.INTRA.POLAR>
0

>  <SCORE.INTRA.POLAR.0>
0

>  <SCORE.INTRA.REPUL>
0

>  <SCORE.INTRA.REPUL.0>
0

>  <SCORE.INTRA.SOLV>
-0.117326

>  <SCORE.INTRA.SOLV.lig_0>
-26.4601

>  <SCORE.INTRA.VDW>
-14.6461

>  <SCORE.INTRA.VDW.0>
13.7853

>  <SCORE.INTRA.norm>
-0.58815

>  <SCORE.RESTR>
0.00263761

>  <SCORE.RESTR.CAVITY>
0.00263761

>  <SCORE.RESTR.norm>
9.09519e-05

>  <SCORE.SYSTEM>
0

>  <SCORE.SYSTEM.CONST>
0

>  <SCORE.SYSTEM.DIHEDRAL>
0

>  <SCORE.SYSTEM.SOLV>
0

>  <SCORE.SYSTEM.norm>
0

>  <SCORE.heavy>
29

>  <SCORE.norm>
-1.59147

>  <RMSD>
0.778

$$$$
ligand
 OpenBabel11021811473D
libRbt.so/2013.1/901 2013/11/27
 29 31  0  0  0  0  0  0  0  0999 V2000
   29.1384   40.4917   15.7838 C   0  0  0  0  0  0  0  0  0  0  0  0
   30.1523   41.4744   16.0191 O   0  0  0  0  0  0  0  0  0  0  0  0
   28.9461   39.6562   17.0420 C   0  0  1  0  0  0  0  0  0  0  0  0
   28.3872   40.4858   18.0558 O   0  0  0  0  0  0  0  0  0  0  0  0
   28.0298   38.4717   16.7632 C   0  0  1  0  0  0  0  0  0  0  0  0
   28.7030   37.6287   15.8354 O   0  0  0  0  0  0  0  0  0  0  0  0
   27.6174   37.6672   17.9994 C   0  0  1  0  0  0  0  0  0  0  0  0
   26.7061   36.6462   17.5911 O   0  0  0  0  0  0  0  0  0  0  0  0
   28.7925   36.9987   18.7101 C   0  0  0  0  0  0  0  0  0  0  0  0
   28.6337   34.2644   18.0251 N   0  0  0  0  0  0  0  0  0  0  0  0
   28.5747   32.9517   17.6626 C   0  0  0  0  0  0  0  0  0  0  0  0
   28.9151   32.5952   16.5069 O   0  0  0  0  0  0  0  0  0  0  0  0
   28.1422   32.0152   18.5446 N   0  0  0  0  0  0  0  0  0  0  0  0
   27.7619   32.3636   19.7995 C   0  0  0  0  0  0  0  0  0  0  0  0
   27.8180   33.6986   20.1837 C   0  0  1  0  0  0  0  0  0  0  0  0
   27.3604   31.4937   20.6116 O   0  0  0  0  0  0  0  0  0  0  0  0
   27.5031   35.3502   21.8049 C   0  0  1  0  0  0  0  0  0  0  0  0
   27.4465   34.0551   21.4324 N   0  0  0  0  0  0  0  0  0  0  0  0
   27.1182   35.7084   23.0921 C   0  0  0  0  0  0  0  0  0  0  0  0
   27.1677   37.0348   23.5066 C   0  0  2  0  0  0  0  0  0  0  0  0
   26.7348   37.3527   24.9148 C   0  0  0  0  0  0  0  0  0  0  0  0
   27.6107   38.0236   22.6189 C   0  0  2  0  0  0  0  0  0  0  0  0
   27.6860   39.3466   22.9554 N   0  0  0  0  0  0  0  0  0  0  0  0
   27.9937   37.6479   21.3256 C   0  0  0  0  0  0  0  0  0  0  0  0
   27.9444   36.3192   20.9053 C   0  0  2  0  0  0  0  0  0  0  0  0
   28.2648   34.6643   19.2764 C   0  0  2  0  0  0  0  0  0  0  0  0
   28.3138   35.9683   19.6521 N   0  0  0  0  0  0  0  0  0  0  0  0
   28.5979   39.7720   24.0004 C   0  0  0  0  0  0  0  0  0  0  0  0
   26.8846   40.3681   22.3019 C   0  0  0  0  0  0  0  0  0  0  0  0
  1  2  1  0  0  0  0
  3  1  1  6  0  0  0
  3  4  1  0  0  0  0
  3  5  1  0  0  0  0
  5  6  1  6  0  0  0
  5  7  1  0  0  0  0
  7  8  1  6  0  0  0
  7  9  1  0  0  0  0
  9 27  1  0  0  0  0
 10 11  1  0  0  0  0
 11 12  2  0  0  0  0
 11 13  1  0  0  0  0
 13 14  1  0  0  0  0
 14 16  2  0  0  0  0
 15 14  1  1  0  0  0
 15 18  1  0  0  0  0
 15 26  1  0  0  0  0
 17 19  1  1  0  0  0
 17 25  1  0  0  0  0
 17 18  1  0  0  0  0
 19 20  1  0  0  0  0
 20 21  1  6  0  0  0
 20 22  1  0  0  0  0
 22 23  1  6  0  0  0
 22 24  1  0  0  0  0
 23 28  1  0  0  0  0
 23 29  1  0  0  0  0
 25 24  1  6  0  0  0
 25 27  1  0  0  0  0
 26 10  1  6  0  0  0
 26 27  1  0  0  0  0
M  END
>  <CHROM.1>
67.38475786,65.04954201,176.72801903,-164.92243429,63.87609595,-85.14539518
28.04961220,36.63898579,19.67214608,-1.01690905,-1.35771577,-2.83240560

>  <Name>
ligand

>  <RI>
0

>  <Rbt.Current_Directory>
/home/itssahil/PROJECTS/Mol_Feturizer/New_Systems/rnas/3F4H

>  <Rbt.Executable>
rbdock ($Id: //depot/dev/client3/rdock/2013.1/src/exe/rbdock.cxx#4 $)

>  <Rbt.Library>
libRbt.so (2013.1, Build901 2013/11/27)

>  <Rbt.Parameter_File>
/export/apps/rDock/src/rDock_2013.1_src/data/scripts/dock_solv.prm

>  <Rbt.Receptor>
prm/pocket_docking_2.prm

>  <SCORE>
-47.5805

>  <SCORE.INTER>
-30.8352

>  <SCORE.INTER.CONST>
1

>  <SCORE.INTER.POLAR>
0

>  <SCORE.INTER.ROT>
6

>  <SCORE.INTER.SOLV>
11.503

>  <SCORE.INTER.VDW>
-31.9912

>  <SCORE.INTER.norm>
-1.06328

>  <SCORE.INTRA>
-16.7657

>  <SCORE.INTRA.DIHEDRAL>
-3.66426

>  <SCORE.INTRA.DIHEDRAL.0>
6.83446

>  <SCORE.INTRA.POLAR>
0

>  <SCORE.INTRA.POLAR.0>
0

>  <SCORE.INTRA.REPUL>
0

>  <SCORE.INTRA.REPUL.0>
0

>  <SCORE.INTRA.SOLV>
-0.443625

>  <SCORE.INTRA.SOLV.lig_0>
-26.4601

>  <SCORE.INTRA.VDW>
-14.7117

>  <SCORE.INTRA.VDW.0>
13.7853

>  <SCORE.INTRA.norm>
-0.578127

>  <SCORE.RESTR>
0.0203815

>  <SCORE.RESTR.CAVITY>
0.0203815

>  <SCORE.RESTR.norm>
0.000702812

>  <SCORE.SYSTEM>
0

>  <SCORE.SYSTEM.CONST>
0

>  <SCORE.SYSTEM.DIHEDRAL>
0

>  <SCORE.SYSTEM.SOLV>
0

>  <SCORE.SYSTEM.norm>
0

>  <SCORE.heavy>
29

>  <SCORE.norm>
-1.64071

>  <RMSD>
0.783

$$$$
ligand
 OpenBabel11021811473D
libRbt.so/2013.1/901 2013/11/27
 29 31  0  0  0  0  0  0  0  0999 V2000
   29.0341   41.0989   16.7982 C   0  0  0  0  0  0  0  0  0  0  0  0
   27.7606   41.5343   16.3108 O   0  0  0  0  0  0  0  0  0  0  0  0
   28.8316   39.9566   17.7843 C   0  0  1  0  0  0  0  0  0  0  0  0
   28.0295   40.4264   18.8634 O   0  0  0  0  0  0  0  0  0  0  0  0
   28.1588   38.7728   17.1014 C   0  0  1  0  0  0  0  0  0  0  0  0
   29.0840   38.2526   16.1538 O   0  0  0  0  0  0  0  0  0  0  0  0
   27.6931   37.6601   18.0452 C   0  0  1  0  0  0  0  0  0  0  0  0
   27.0271   36.6609   17.2721 O   0  0  0  0  0  0  0  0  0  0  0  0
   28.8354   36.9896   18.8056 C   0  0  0  0  0  0  0  0  0  0  0  0
   28.6426   34.2676   18.0811 N   0  0  0  0  0  0  0  0  0  0  0  0
   28.5680   32.9610   17.7001 C   0  0  0  0  0  0  0  0  0  0  0  0
   28.9293   32.6129   16.5482 O   0  0  0  0  0  0  0  0  0  0  0  0
   28.0973   32.0217   18.5592 N   0  0  0  0  0  0  0  0  0  0  0  0
   27.6936   32.3612   19.8092 C   0  0  0  0  0  0  0  0  0  0  0  0
   27.7652   33.6899   20.2121 C   0  0  1  0  0  0  0  0  0  0  0  0
   27.2567   31.4888   20.6000 O   0  0  0  0  0  0  0  0  0  0  0  0
   27.4421   35.3264   21.8470 C   0  0  1  0  0  0  0  0  0  0  0  0
   27.3705   34.0374   21.4563 N   0  0  0  0  0  0  0  0  0  0  0  0
   27.0332   35.6754   23.1293 C   0  0  0  0  0  0  0  0  0  0  0  0
   27.0973   36.9953   23.5623 C   0  0  2  0  0  0  0  0  0  0  0  0
   26.6367   37.3033   24.9638 C   0  0  0  0  0  0  0  0  0  0  0  0
   27.5796   37.9867   22.6984 C   0  0  2  0  0  0  0  0  0  0  0  0
   27.6713   39.3037   23.0539 N   0  0  0  0  0  0  0  0  0  0  0  0
   27.9864   37.6204   21.4097 C   0  0  0  0  0  0  0  0  0  0  0  0
   27.9227   36.2983   20.9709 C   0  0  2  0  0  0  0  0  0  0  0  0
   28.2513   34.6585   19.3285 C   0  0  2  0  0  0  0  0  0  0  0  0
   28.3154   35.9564   19.7223 N   0  0  0  0  0  0  0  0  0  0  0  0
   28.5950   39.7039   24.0984 C   0  0  0  0  0  0  0  0  0  0  0  0
   26.8760   40.3432   22.4216 C   0  0  0  0  0  0  0  0  0  0  0  0
  1  2  1  0  0  0  0
  3  1  1  6  0  0  0
  3  4  1  0  0  0  0
  3  5  1  0  0  0  0
  5  6  1  6  0  0  0
  5  7  1  0  0  0  0
  7  8  1  6  0  0  0
  7  9  1  0  0  0  0
  9 27  1  0  0  0  0
 10 11  1  0  0  0  0
 11 12  2  0  0  0  0
 11 13  1  0  0  0  0
 13 14  1  0  0  0  0
 14 16  2  0  0  0  0
 15 14  1  1  0  0  0
 15 18  1  0  0  0  0
 15 26  1  0  0  0  0
 17 19  1  1  0  0  0
 17 25  1  0  0  0  0
 17 18  1  0  0  0  0
 19 20  1  0  0  0  0
 20 21  1  6  0  0  0
 20 22  1  0  0  0  0
 22 23  1  6  0  0  0
 22 24  1  0  0  0  0
 23 28  1  0  0  0  0
 23 29  1  0  0  0  0
 25 24  1  6  0  0  0
 25 27  1  0  0  0  0
 26 10  1  6  0  0  0
 26 27  1  0  0  0  0
M  END
>  <CHROM.1>
-59.91894172,67.14593975,177.09423011,178.39970409,65.72095166,-86.84574684
27.94345447,36.69237609,19.82750357,-1.50084333,-1.40023658,-3.03934673

>  <Name>
ligand

>  <RI>
0

>  <Rbt.Current_Directory>
/home/itssahil/PROJECTS/Mol_Feturizer/New_Systems/rnas/3F4H

>  <Rbt.Executable>
rbdock ($Id: //depot/dev/client3/rdock/2013.1/src/exe/rbdock.cxx#4 $)

>  <Rbt.Library>
libRbt.so (2013.1, Build901 2013/11/27)

>  <Rbt.Parameter_File>
/export/apps/rDock/src/rDock_2013.1_src/data/scripts/dock_solv.prm

>  <Rbt.Receptor>
prm/pocket_docking_2.prm

>  <SCORE>
-47.357

>  <SCORE.INTER>
-29.9882

>  <SCORE.INTER.CONST>
1

>  <SCORE.INTER.POLAR>
0

>  <SCORE.INTER.ROT>
6

>  <SCORE.INTER.SOLV>
9.42833

>  <SCORE.INTER.VDW>
-30.7349

>  <SCORE.INTER.norm>
-1.03408

>  <SCORE.INTRA>
-17.3966

>  <SCORE.INTRA.DIHEDRAL>
-4.54067

>  <SCORE.INTRA.DIHEDRAL.0>
6.83446

>  <SCORE.INTRA.POLAR>
0

>  <SCORE.INTRA.POLAR.0>
0

>  <SCORE.INTRA.REPUL>
0

>  <SCORE.INTRA.REPUL.0>
0

>  <SCORE.INTRA.SOLV>
-0.012781

>  <SCORE.INTRA.SOLV.lig_0>
-26.4601

>  <SCORE.INTRA.VDW>
-15.1198

>  <SCORE.INTRA.VDW.0>
13.7853

>  <SCORE.INTRA.norm>
-0.599882

>  <SCORE.RESTR>
0.0278447

>  <SCORE.RESTR.CAVITY>
0.0278447

>  <SCORE.RESTR.norm>
0.000960161

>  <SCORE.SYSTEM>
0

>  <SCORE.SYSTEM.CONST>
0

>  <SCORE.SYSTEM.DIHEDRAL>
0

>  <SCORE.SYSTEM.SOLV>
0

>  <SCORE.SYSTEM.norm>
0

>  <SCORE.heavy>
29

>  <SCORE.norm>
-1.633

>  <RMSD>
0.791

$$$$
ligand
 OpenBabel11021811473D
libRbt.so/2013.1/901 2013/11/27
 29 31  0  0  0  0  0  0  0  0999 V2000
   28.5587   41.1584   16.7272 C   0  0  0  0  0  0  0  0  0  0  0  0
   27.2575   41.6193   16.3483 O   0  0  0  0  0  0  0  0  0  0  0  0
   28.4172   40.0115   17.7185 C   0  0  1  0  0  0  0  0  0  0  0  0
   27.6858   40.4768   18.8485 O   0  0  0  0  0  0  0  0  0  0  0  0
   27.7006   38.8320   17.0738 C   0  0  1  0  0  0  0  0  0  0  0  0
   28.5223   38.3731   16.0066 O   0  0  0  0  0  0  0  0  0  0  0  0
   27.3775   37.6738   18.0224 C   0  0  1  0  0  0  0  0  0  0  0  0
   26.7247   36.6464   17.2755 O   0  0  0  0  0  0  0  0  0  0  0  0
   28.6128   37.0675   18.6851 C   0  0  0  0  0  0  0  0  0  0  0  0
   28.4921   34.3372   17.9762 N   0  0  0  0  0  0  0  0  0  0  0  0
   28.4491   33.0274   17.6013 C   0  0  0  0  0  0  0  0  0  0  0  0
   28.7257   32.6942   16.4219 O   0  0  0  0  0  0  0  0  0  0  0  0
   28.1017   32.0686   18.4967 N   0  0  0  0  0  0  0  0  0  0  0  0
   27.7918   32.3914   19.7776 C   0  0  0  0  0  0  0  0  0  0  0  0
   27.8326   33.7232   20.1746 C   0  0  1  0  0  0  0  0  0  0  0  0
   27.4688   31.5008   20.6022 O   0  0  0  0  0  0  0  0  0  0  0  0
   27.5726   35.3465   21.8337 C   0  0  1  0  0  0  0  0  0  0  0  0
   27.5309   34.0544   21.4489 N   0  0  0  0  0  0  0  0  0  0  0  0
   27.2599   35.6786   23.1473 C   0  0  0  0  0  0  0  0  0  0  0  0
   27.2964   37.0013   23.5749 C   0  0  2  0  0  0  0  0  0  0  0  0
   26.9447   37.2903   25.0116 C   0  0  0  0  0  0  0  0  0  0  0  0
   27.6523   38.0128   22.6738 C   0  0  2  0  0  0  0  0  0  0  0  0
   27.7096   39.3337   23.0218 N   0  0  0  0  0  0  0  0  0  0  0  0
   27.9632   37.6632   21.3541 C   0  0  0  0  0  0  0  0  0  0  0  0
   27.9268   36.3383   20.9206 C   0  0  2  0  0  0  0  0  0  0  0  0
   28.1919   34.7120   19.2535 C   0  0  2  0  0  0  0  0  0  0  0  0
   28.2260   36.0126   19.6421 N   0  0  0  0  0  0  0  0  0  0  0  0
   28.9735   40.0421   22.9500 C   0  0  0  0  0  0  0  0  0  0  0  0
   26.5427   40.0785   23.4652 C   0  0  0  0  0  0  0  0  0  0  0  0
  1  2  1  0  0  0  0
  3  1  1  6  0  0  0
  3  4  1  0  0  0  0
  3  5  1  0  0  0  0
  5  6  1  6  0  0  0
  5  7  1  0  0  0  0
  7  8  1  6  0  0  0
  7  9  1  0  0  0  0
  9 27  1  0  0  0  0
 10 11  1  0  0  0  0
 11 12  2  0  0  0  0
 11 13  1  0  0  0  0
 13 14  1  0  0  0  0
 14 16  2  0  0  0  0
 15 14  1  1  0  0  0
 15 18  1  0  0  0  0
 15 26  1  0  0  0  0
 17 19  1  1  0  0  0
 17 25  1  0  0  0  0
 17 18  1  0  0  0  0
 19 20  1  0  0  0  0
 20 21  1  6  0  0  0
 20 22  1  0  0  0  0
 22 23  1  6  0  0  0
 22 24  1  0  0  0  0
 23 28  1  0  0  0  0
 23 29  1  0  0  0  0
 25 24  1  6  0  0  0
 25 27  1  0  0  0  0
 26 10  1  6  0  0  0
 26 27  1  0  0  0  0
M  END
>  <CHROM.1>
-58.52933241,63.22508728,-179.40625193,176.72564522,117.46670808,-87.14405011
27.84170566,36.73453384,19.78413163,-1.83400300,-1.46728251,2.92507503

>  <Name>
ligand

>  <RI>
0

>  <Rbt.Current_Directory>
/home/itssahil/PROJECTS/Mol_Feturizer/New_Systems/rnas/3F4H

>  <Rbt.Executable>
rbdock ($Id: //depot/dev/client3/rdock/2013.1/src/exe/rbdock.cxx#4 $)

>  <Rbt.Library>
libRbt.so (2013.1, Build901 2013/11/27)

>  <Rbt.Parameter_File>
/export/apps/rDock/src/rDock_2013.1_src/data/scripts/dock_solv.prm

>  <Rbt.Receptor>
prm/pocket_docking_2.prm

>  <SCORE>
-46.1173

>  <SCORE.INTER>
-28.8498

>  <SCORE.INTER.CONST>
1

>  <SCORE.INTER.POLAR>
0

>  <SCORE.INTER.ROT>
6

>  <SCORE.INTER.SOLV>
9.54974

>  <SCORE.INTER.VDW>
-30.0165

>  <SCORE.INTER.norm>
-0.994822

>  <SCORE.INTRA>
-17.2745

>  <SCORE.INTRA.DIHEDRAL>
-4.68479

>  <SCORE.INTRA.DIHEDRAL.0>
6.83446

>  <SCORE.INTRA.POLAR>
0

>  <SCORE.INTRA.POLAR.0>
0

>  <SCORE.INTRA.REPUL>
0

>  <SCORE.INTRA.REPUL.0>
0

>  <SCORE.INTRA.SOLV>
-0.0896508

>  <SCORE.INTRA.SOLV.lig_0>
-26.4601

>  <SCORE.INTRA.VDW>
-14.8872

>  <SCORE.INTRA.VDW.0>
13.7853

>  <SCORE.INTRA.norm>
-0.595671

>  <SCORE.RESTR>
0.00703646

>  <SCORE.RESTR.CAVITY>
0.00703646

>  <SCORE.RESTR.norm>
0.000242636

>  <SCORE.SYSTEM>
0

>  <SCORE.SYSTEM.CONST>
0

>  <SCORE.SYSTEM.DIHEDRAL>
0

>  <SCORE.SYSTEM.SOLV>
0

>  <SCORE.SYSTEM.norm>
0

>  <SCORE.heavy>
29

>  <SCORE.norm>
-1.59025

>  <RMSD>
0.791

$$$$
ligand
 OpenBabel11021811473D
libRbt.so/2013.1/901 2013/11/27
 29 31  0  0  0  0  0  0  0  0999 V2000
   29.2142   40.3072   15.6461 C   0  0  0  0  0  0  0  0  0  0  0  0
   28.0190   41.0904   15.7309 O   0  0  0  0  0  0  0  0  0  0  0  0
   29.2512   39.3190   16.8038 C   0  0  1  0  0  0  0  0  0  0  0  0
   29.0291   40.0327   18.0161 O   0  0  0  0  0  0  0  0  0  0  0  0
   28.1896   38.2417   16.6223 C   0  0  1  0  0  0  0  0  0  0  0  0
   28.7349   37.2566   15.7523 O   0  0  0  0  0  0  0  0  0  0  0  0
   27.7044   37.5860   17.9185 C   0  0  1  0  0  0  0  0  0  0  0  0
   26.8579   36.4868   17.5798 O   0  0  0  0  0  0  0  0  0  0  0  0
   28.8386   37.0596   18.7956 C   0  0  0  0  0  0  0  0  0  0  0  0
   28.6645   34.3420   18.0502 N   0  0  0  0  0  0  0  0  0  0  0  0
   28.5984   33.0380   17.6588 C   0  0  0  0  0  0  0  0  0  0  0  0
   28.9441   32.7041   16.4980 O   0  0  0  0  0  0  0  0  0  0  0  0
   28.1529   32.0859   18.5173 N   0  0  0  0  0  0  0  0  0  0  0  0
   27.7665   32.4098   19.7769 C   0  0  0  0  0  0  0  0  0  0  0  0
   27.8298   33.7357   20.1904 C   0  0  1  0  0  0  0  0  0  0  0  0
   27.3530   31.5255   20.5672 O   0  0  0  0  0  0  0  0  0  0  0  0
   27.5157   35.3540   21.8450 C   0  0  1  0  0  0  0  0  0  0  0  0
   27.4522   34.0678   21.4441 N   0  0  0  0  0  0  0  0  0  0  0  0
   27.1245   35.6871   23.1371 C   0  0  0  0  0  0  0  0  0  0  0  0
   27.1810   37.0038   23.5807 C   0  0  2  0  0  0  0  0  0  0  0  0
   26.7407   37.2943   24.9924 C   0  0  0  0  0  0  0  0  0  0  0  0
   27.6373   38.0082   22.7177 C   0  0  2  0  0  0  0  0  0  0  0  0
   27.7201   39.3230   23.0833 N   0  0  0  0  0  0  0  0  0  0  0  0
   28.0265   37.6578   21.4191 C   0  0  0  0  0  0  0  0  0  0  0  0
   27.9704   36.3390   20.9697 C   0  0  2  0  0  0  0  0  0  0  0  0
   28.2899   34.7175   19.3074 C   0  0  2  0  0  0  0  0  0  0  0  0
   28.3459   36.0126   19.7117 N   0  0  0  0  0  0  0  0  0  0  0  0
   28.9992   40.0052   23.0294 C   0  0  0  0  0  0  0  0  0  0  0  0
   26.5661   40.0866   23.5284 C   0  0  0  0  0  0  0  0  0  0  0  0
  1  2  1  0  0  0  0
  3  1  1  6  0  0  0
  3  4  1  0  0  0  0
  3  5  1  0  0  0  0
  5  6  1  6  0  0  0
  5  7  1  0  0  0  0
  7  8  1  6  0  0  0
  7  9  1  0  0  0  0
  9 27  1  0  0  0  0
 10 11  1  0  0  0  0
 11 12  2  0  0  0  0
 11 13  1  0  0  0  0
 13 14  1  0  0  0  0
 14 16  2  0  0  0  0
 15 14  1  1  0  0  0
 15 18  1  0  0  0  0
 15 26  1  0  0  0  0
 17 19  1  1  0  0  0
 17 25  1  0  0  0  0
 17 18  1  0  0  0  0
 19 20  1  0  0  0  0
 20 21  1  6  0  0  0
 20 22  1  0  0  0  0
 22 23  1  6  0  0  0
 22 24  1  0  0  0  0
 23 28  1  0  0  0  0
 23 29  1  0  0  0  0
 25 24  1  6  0  0  0
 25 27  1  0  0  0  0
 26 10  1  6  0  0  0
 26 27  1  0  0  0  0
M  END
>  <CHROM.1>
-51.26349889,82.93162345,-172.27001907,-157.73476236,121.21254165,-94.85891262
28.03313436,36.57218305,19.66855140,-0.20976425,1.38738645,0.20615802

>  <Name>
ligand

>  <RI>
0

>  <Rbt.Current_Directory>
/home/itssahil/PROJECTS/Mol_Feturizer/New_Systems/rnas/3F4H

>  <Rbt.Executable>
rbdock ($Id: //depot/dev/client3/rdock/2013.1/src/exe/rbdock.cxx#4 $)

>  <Rbt.Library>
libRbt.so (2013.1, Build901 2013/11/27)

>  <Rbt.Parameter_File>
/export/apps/rDock/src/rDock_2013.1_src/data/scripts/dock_solv.prm

>  <Rbt.Receptor>
prm/pocket_docking_2.prm

>  <SCORE>
-43.4956

>  <SCORE.INTER>
-29.0579

>  <SCORE.INTER.CONST>
1

>  <SCORE.INTER.POLAR>
0

>  <SCORE.INTER.ROT>
6

>  <SCORE.INTER.SOLV>
10.7573

>  <SCORE.INTER.VDW>
-30.5577

>  <SCORE.INTER.norm>
-1.002

>  <SCORE.INTRA>
-14.4377

>  <SCORE.INTRA.DIHEDRAL>
-0.975803

>  <SCORE.INTRA.DIHEDRAL.0>
6.83446

>  <SCORE.INTRA.POLAR>
0

>  <SCORE.INTRA.POLAR.0>
0

>  <SCORE.INTRA.REPUL>
0

>  <SCORE.INTRA.REPUL.0>
0

>  <SCORE.INTRA.SOLV>
-0.00820501

>  <SCORE.INTRA.SOLV.lig_0>
-26.4601

>  <SCORE.INTRA.VDW>
-13.9457

>  <SCORE.INTRA.VDW.0>
13.7853

>  <SCORE.INTRA.norm>
-0.497852

>  <SCORE.RESTR>
0

>  <SCORE.RESTR.CAVITY>
0

>  <SCORE.RESTR.norm>
0

>  <SCORE.SYSTEM>
0

>  <SCORE.SYSTEM.CONST>
0

>  <SCORE.SYSTEM.DIHEDRAL>
0

>  <SCORE.SYSTEM.SOLV>
0

>  <SCORE.SYSTEM.norm>
0

>  <SCORE.heavy>
29

>  <SCORE.norm>
-1.49985

>  <RMSD>
0.868

$$$$
ligand
 OpenBabel11021811473D
libRbt.so/2013.1/901 2013/11/27
 29 31  0  0  0  0  0  0  0  0999 V2000
   28.6266   40.7901   16.3830 C   0  0  0  0  0  0  0  0  0  0  0  0
   29.9144   41.3476   16.1006 O   0  0  0  0  0  0  0  0  0  0  0  0
   28.7985   39.5094   17.1883 C   0  0  1  0  0  0  0  0  0  0  0  0
   29.1311   39.8580   18.5285 O   0  0  0  0  0  0  0  0  0  0  0  0
   27.5193   38.6828   17.1587 C   0  0  1  0  0  0  0  0  0  0  0  0
   27.0170   38.7330   15.8284 O   0  0  0  0  0  0  0  0  0  0  0  0
   27.6795   37.2262   17.6043 C   0  0  1  0  0  0  0  0  0  0  0  0
   28.1149   36.4558   16.4834 O   0  0  0  0  0  0  0  0  0  0  0  0
   28.6948   37.0426   18.7304 C   0  0  0  0  0  0  0  0  0  0  0  0
   28.5510   34.3167   18.0093 N   0  0  0  0  0  0  0  0  0  0  0  0
   28.4984   33.0087   17.6291 C   0  0  0  0  0  0  0  0  0  0  0  0
   28.8164   32.6727   16.4610 O   0  0  0  0  0  0  0  0  0  0  0  0
   28.0966   32.0548   18.5069 N   0  0  0  0  0  0  0  0  0  0  0  0
   27.7410   32.3809   19.7751 C   0  0  0  0  0  0  0  0  0  0  0  0
   27.7910   33.7107   20.1773 C   0  0  1  0  0  0  0  0  0  0  0  0
   27.3678   31.4949   20.5832 O   0  0  0  0  0  0  0  0  0  0  0  0
   27.4946   35.3352   21.8291 C   0  0  1  0  0  0  0  0  0  0  0  0
   27.4440   34.0450   21.4392 N   0  0  0  0  0  0  0  0  0  0  0  0
   27.1350   35.6705   23.1298 C   0  0  0  0  0  0  0  0  0  0  0  0
   27.1792   36.9913   23.5623 C   0  0  2  0  0  0  0  0  0  0  0  0
   26.7749   37.2841   24.9844 C   0  0  0  0  0  0  0  0  0  0  0  0
   27.5908   37.9977   22.6794 C   0  0  2  0  0  0  0  0  0  0  0  0
   27.6591   39.3165   23.0333 N   0  0  0  0  0  0  0  0  0  0  0  0
   27.9485   37.6450   21.3724 C   0  0  0  0  0  0  0  0  0  0  0  0
   27.9045   36.3220   20.9339 C   0  0  2  0  0  0  0  0  0  0  0  0
   28.2062   34.6944   19.2743 C   0  0  2  0  0  0  0  0  0  0  0  0
   28.2492   35.9933   19.6678 N   0  0  0  0  0  0  0  0  0  0  0  0
   28.5715   39.7336   24.0811 C   0  0  0  0  0  0  0  0  0  0  0  0
   26.8493   40.3417   22.3960 C   0  0  0  0  0  0  0  0  0  0  0  0
  1  2  1  0  0  0  0
  3  1  1  6  0  0  0
  3  4  1  0  0  0  0
  3  5  1  0  0  0  0
  5  6  1  6  0  0  0
  5  7  1  0  0  0  0
  7  8  1  6  0  0  0
  7  9  1  0  0  0  0
  9 27  1  0  0  0  0
 10 11  1  0  0  0  0
 11 12  2  0  0  0  0
 11 13  1  0  0  0  0
 13 14  1  0  0  0  0
 14 16  2  0  0  0  0
 15 14  1  1  0  0  0
 15 18  1  0  0  0  0
 15 26  1  0  0  0  0
 17 19  1  1  0  0  0
 17 25  1  0  0  0  0
 17 18  1  0  0  0  0
 19 20  1  0  0  0  0
 20 21  1  6  0  0  0
 20 22  1  0  0  0  0
 22 23  1  6  0  0  0
 22 24  1  0  0  0  0
 23 28  1  0  0  0  0
 23 29  1  0  0  0  0
 25 24  1  6  0  0  0
 25 27  1  0  0  0  0
 26 10  1  6  0  0  0
 26 27  1  0  0  0  0
M  END
>  <CHROM.1>
75.44178937,41.69631982,-84.53367455,143.37135453,62.71704185,-112.88739809
27.99749626,36.64578221,19.68977841,-1.13792486,-1.40429431,-2.83197671

>  <Name>
ligand

>  <RI>
0

>  <Rbt.Current_Directory>
/home/itssahil/PROJECTS/Mol_Feturizer/New_Systems/rnas/3F4H

>  <Rbt.Executable>
rbdock ($Id: //depot/dev/client3/rdock/2013.1/src/exe/rbdock.cxx#4 $)

>  <Rbt.Library>
libRbt.so (2013.1, Build901 2013/11/27)

>  <Rbt.Parameter_File>
/export/apps/rDock/src/rDock_2013.1_src/data/scripts/dock_solv.prm

>  <Rbt.Receptor>
prm/pocket_docking_2.prm

>  <SCORE>
-41.5861

>  <SCORE.INTER>
-30.4342

>  <SCORE.INTER.CONST>
1

>  <SCORE.INTER.POLAR>
0

>  <SCORE.INTER.ROT>
6

>  <SCORE.INTER.SOLV>
11.153

>  <SCORE.INTER.VDW>
-31.6071

>  <SCORE.INTER.norm>
-1.04945

>  <SCORE.INTRA>
-11.2388

>  <SCORE.INTRA.DIHEDRAL>
2.63919

>  <SCORE.INTRA.DIHEDRAL.0>
6.83446

>  <SCORE.INTRA.POLAR>
0

>  <SCORE.INTRA.POLAR.0>
0

>  <SCORE.INTRA.REPUL>
0

>  <SCORE.INTRA.REPUL.0>
0

>  <SCORE.INTRA.SOLV>
-0.138427

>  <SCORE.INTRA.SOLV.lig_0>
-26.4601

>  <SCORE.INTRA.VDW>
-12.4892

>  <SCORE.INTRA.VDW.0>
13.7853

>  <SCORE.INTRA.norm>
-0.387546

>  <SCORE.RESTR>
0.0868721

>  <SCORE.RESTR.CAVITY>
0.0868721

>  <SCORE.RESTR.norm>
0.00299559

>  <SCORE.SYSTEM>
0

>  <SCORE.SYSTEM.CONST>
0

>  <SCORE.SYSTEM.DIHEDRAL>
0

>  <SCORE.SYSTEM.SOLV>
0

>  <SCORE.SYSTEM.norm>
0

>  <SCORE.heavy>
29

>  <SCORE.norm>
-1.43401

>  <RMSD>
0.878

$$$$
ligand
 OpenBabel11021811473D
libRbt.so/2013.1/901 2013/11/27
 29 31  0  0  0  0  0  0  0  0999 V2000
   29.2219   40.3164   15.7295 C   0  0  0  0  0  0  0  0  0  0  0  0
   30.5175   40.9251   15.7250 O   0  0  0  0  0  0  0  0  0  0  0  0
   29.0645   39.4778   16.9905 C   0  0  1  0  0  0  0  0  0  0  0  0
   28.5437   40.3074   18.0244 O   0  0  0  0  0  0  0  0  0  0  0  0
   28.1322   38.3001   16.7373 C   0  0  1  0  0  0  0  0  0  0  0  0
   28.8270   37.3874   15.8953 O   0  0  0  0  0  0  0  0  0  0  0  0
   27.6405   37.5812   17.9971 C   0  0  1  0  0  0  0  0  0  0  0  0
   26.8483   36.4617   17.5987 O   0  0  0  0  0  0  0  0  0  0  0  0
   28.7719   37.0701   18.8867 C   0  0  0  0  0  0  0  0  0  0  0  0
   28.5838   34.3619   18.1109 N   0  0  0  0  0  0  0  0  0  0  0  0
   28.5107   33.0628   17.7049 C   0  0  0  0  0  0  0  0  0  0  0  0
   28.8456   32.7417   16.5373 O   0  0  0  0  0  0  0  0  0  0  0  0
   28.0700   32.1018   18.5559 N   0  0  0  0  0  0  0  0  0  0  0  0
   27.6953   32.4119   19.8225 C   0  0  0  0  0  0  0  0  0  0  0  0
   27.7659   33.7326   20.2510 C   0  0  1  0  0  0  0  0  0  0  0  0
   27.2862   31.5195   20.6058 O   0  0  0  0  0  0  0  0  0  0  0  0
   27.4706   35.3322   21.9271 C   0  0  1  0  0  0  0  0  0  0  0  0
   27.4000   34.0510   21.5117 N   0  0  0  0  0  0  0  0  0  0  0  0
   27.0914   35.6511   23.2264 C   0  0  0  0  0  0  0  0  0  0  0  0
   27.1553   36.9623   23.6849 C   0  0  2  0  0  0  0  0  0  0  0  0
   26.7279   37.2373   25.1037 C   0  0  0  0  0  0  0  0  0  0  0  0
   27.6070   37.9756   22.8299 C   0  0  2  0  0  0  0  0  0  0  0  0
   27.6966   39.2858   23.2102 N   0  0  0  0  0  0  0  0  0  0  0  0
   27.9841   37.6395   21.5240 C   0  0  0  0  0  0  0  0  0  0  0  0
   27.9204   36.3262   21.0595 C   0  0  2  0  0  0  0  0  0  0  0  0
   28.2211   34.7235   19.3756 C   0  0  2  0  0  0  0  0  0  0  0  0
   28.2842   36.0136   19.7946 N   0  0  0  0  0  0  0  0  0  0  0  0
   26.8832   40.2852   22.5439 C   0  0  0  0  0  0  0  0  0  0  0  0
   28.5811   39.7345   24.2728 C   0  0  0  0  0  0  0  0  0  0  0  0
  1  2  1  0  0  0  0
  3  1  1  6  0  0  0
  3  4  1  0  0  0  0
  3  5  1  0  0  0  0
  5  6  1  6  0  0  0
  5  7  1  0  0  0  0
  7  8  1  6  0  0  0
  7  9  1  0  0  0  0
  9 27  1  0  0  0  0
 10 11  1  0  0  0  0
 11 12  2  0  0  0  0
 11 13  1  0  0  0  0
 13 14  1  0  0  0  0
 14 16  2  0  0  0  0
 15 14  1  1  0  0  0
 15 18  1  0  0  0  0
 15 26  1  0  0  0  0
 17 19  1  1  0  0  0
 17 25  1  0  0  0  0
 17 18  1  0  0  0  0
 19 20  1  0  0  0  0
 20 21  1  6  0  0  0
 20 22  1  0  0  0  0
 22 23  1  6  0  0  0
 22 24  1  0  0  0  0
 23 28  1  0  0  0  0
 23 29  1  0  0  0  0
 25 24  1  6  0  0  0
 25 27  1  0  0  0  0
 26 10  1  6  0  0  0
 26 27  1  0  0  0  0
M  END
>  <CHROM.1>
88.74684310,71.00233373,-176.57920886,-160.20329156,-116.76733991,-96.51864556
28.06802136,36.58022725,19.74828677,-0.02048441,1.33749866,0.41315305

>  <Name>
ligand

>  <RI>
0

>  <Rbt.Current_Directory>
/home/itssahil/PROJECTS/Mol_Feturizer/New_Systems/rnas/3F4H

>  <Rbt.Executable>
rbdock ($Id: //depot/dev/client3/rdock/2013.1/src/exe/rbdock.cxx#4 $)

>  <Rbt.Library>
libRbt.so (2013.1, Build901 2013/11/27)

>  <Rbt.Parameter_File>
/export/apps/rDock/src/rDock_2013.1_src/data/scripts/dock_solv.prm

>  <Rbt.Receptor>
prm/pocket_docking_2.prm

>  <SCORE>
-45.8569

>  <SCORE.INTER>
-30.7781

>  <SCORE.INTER.CONST>
1

>  <SCORE.INTER.POLAR>
0

>  <SCORE.INTER.ROT>
6

>  <SCORE.INTER.SOLV>
11.2151

>  <SCORE.INTER.VDW>
-31.8571

>  <SCORE.INTER.norm>
-1.06131

>  <SCORE.INTRA>
-15.1014

>  <SCORE.INTRA.DIHEDRAL>
-0.544837

>  <SCORE.INTRA.DIHEDRAL.0>
6.83446

>  <SCORE.INTRA.POLAR>
0

>  <SCORE.INTRA.POLAR.0>
0

>  <SCORE.INTRA.REPUL>
0

>  <SCORE.INTRA.REPUL.0>
0

>  <SCORE.INTRA.SOLV>
-0.352152

>  <SCORE.INTRA.SOLV.lig_0>
-26.4601

>  <SCORE.INTRA.VDW>
-14.6529

>  <SCORE.INTRA.VDW.0>
13.7853

>  <SCORE.INTRA.norm>
-0.520737

>  <SCORE.RESTR>
0.0226516

>  <SCORE.RESTR.CAVITY>
0.0226516

>  <SCORE.RESTR.norm>
0.00078109

>  <SCORE.SYSTEM>
0

>  <SCORE.SYSTEM.CONST>
0

>  <SCORE.SYSTEM.DIHEDRAL>
0

>  <SCORE.SYSTEM.SOLV>
0

>  <SCORE.SYSTEM.norm>
0

>  <SCORE.heavy>
29

>  <SCORE.norm>
-1.58127

>  <RMSD>
0.884

$$$$
ligand
 OpenBabel11021811473D
libRbt.so/2013.1/901 2013/11/27
 29 31  0  0  0  0  0  0  0  0999 V2000
   27.3003   40.6708   17.3866 C   0  0  0  0  0  0  0  0  0  0  0  0
   26.9201   41.0440   16.0580 O   0  0  0  0  0  0  0  0  0  0  0  0
   28.5635   39.8228   17.3290 C   0  0  1  0  0  0  0  0  0  0  0  0
   29.0778   39.6855   18.6499 O   0  0  0  0  0  0  0  0  0  0  0  0
   28.2623   38.4534   16.7337 C   0  0  1  0  0  0  0  0  0  0  0  0
   29.4556   37.9949   16.1088 O   0  0  0  0  0  0  0  0  0  0  0  0
   27.7595   37.4088   17.7345 C   0  0  1  0  0  0  0  0  0  0  0  0
   27.2292   36.3018   17.0046 O   0  0  0  0  0  0  0  0  0  0  0  0
   28.8503   36.8847   18.6664 C   0  0  0  0  0  0  0  0  0  0  0  0
   28.6374   34.1484   18.0044 N   0  0  0  0  0  0  0  0  0  0  0  0
   28.5539   32.8338   17.6538 C   0  0  0  0  0  0  0  0  0  0  0  0
   28.9317   32.4535   16.5175 O   0  0  0  0  0  0  0  0  0  0  0  0
   28.0564   31.9213   18.5266 N   0  0  0  0  0  0  0  0  0  0  0  0
   27.6343   32.2959   19.7604 C   0  0  0  0  0  0  0  0  0  0  0  0
   27.7148   33.6330   20.1324 C   0  0  1  0  0  0  0  0  0  0  0  0
   27.1727   31.4481   20.5640 O   0  0  0  0  0  0  0  0  0  0  0  0
   27.3822   35.3126   21.7210 C   0  0  1  0  0  0  0  0  0  0  0  0
   27.3020   34.0154   21.3603 N   0  0  0  0  0  0  0  0  0  0  0  0
   26.9545   35.6975   22.9869 C   0  0  0  0  0  0  0  0  0  0  0  0
   27.0268   37.0266   23.3889 C   0  0  2  0  0  0  0  0  0  0  0  0
   26.5449   37.3742   24.7740 C   0  0  0  0  0  0  0  0  0  0  0  0
   27.5366   37.9911   22.5104 C   0  0  2  0  0  0  0  0  0  0  0  0
   27.6379   39.3151   22.8356 N   0  0  0  0  0  0  0  0  0  0  0  0
   27.9622   37.5887   21.2385 C   0  0  0  0  0  0  0  0  0  0  0  0
   27.8903   36.2571   20.8307 C   0  0  2  0  0  0  0  0  0  0  0  0
   28.2285   34.5741   19.2346 C   0  0  2  0  0  0  0  0  0  0  0  0
   28.3013   35.8804   19.5981 N   0  0  0  0  0  0  0  0  0  0  0  0
   28.5548   39.7309   23.8800 C   0  0  0  0  0  0  0  0  0  0  0  0
   26.8597   40.3471   22.1704 C   0  0  0  0  0  0  0  0  0  0  0  0
  1  2  1  0  0  0  0
  3  1  1  1  0  0  0
  3  4  1  0  0  0  0
  3  5  1  0  0  0  0
  5  6  1  1  0  0  0
  5  7  1  0  0  0  0
  7  8  1  6  0  0  0
  7  9  1  0  0  0  0
  9 27  1  0  0  0  0
 10 11  1  0  0  0  0
 11 12  2  0  0  0  0
 11 13  1  0  0  0  0
 13 14  1  0  0  0  0
 14 16  2  0  0  0  0
 15 14  1  1  0  0  0
 15 18  1  0  0  0  0
 15 26  1  0  0  0  0
 17 19  1  1  0  0  0
 17 25  1  0  0  0  0
 17 18  1  0  0  0  0
 19 20  1  0  0  0  0
 20 21  1  6  0  0  0
 20 22  1  0  0  0  0
 22 23  1  6  0  0  0
 22 24  1  0  0  0  0
 23 28  1  0  0  0  0
 23 29  1  0  0  0  0
 25 24  1  6  0  0  0
 25 27  1  0  0  0  0
 26 10  1  6  0  0  0
 26 27  1  0  0  0  0
M  END
>  <CHROM.1>
168.49786717,151.77444178,166.58535244,-179.74004082,66.17841938,-94.76109084
27.88279162,36.55045750,19.69168545,-1.86384633,-1.41485148,3.05968302

>  <Name>
ligand

>  <RI>
0

>  <Rbt.Current_Directory>
/home/itssahil/PROJECTS/Mol_Feturizer/New_Systems/rnas/3F4H

>  <Rbt.Executable>
rbdock ($Id: //depot/dev/client3/rdock/2013.1/src/exe/rbdock.cxx#4 $)

>  <Rbt.Library>
libRbt.so (2013.1, Build901 2013/11/27)

>  <Rbt.Parameter_File>
/export/apps/rDock/src/rDock_2013.1_src/data/scripts/dock_solv.prm

>  <Rbt.Receptor>
prm/pocket_docking_2.prm

>  <SCORE>
-44.5276

>  <SCORE.INTER>
-29.1589

>  <SCORE.INTER.CONST>
1

>  <SCORE.INTER.POLAR>
0

>  <SCORE.INTER.ROT>
6

>  <SCORE.INTER.SOLV>
9.91381

>  <SCORE.INTER.VDW>
-30.3439

>  <SCORE.INTER.norm>
-1.00548

>  <SCORE.INTRA>
-15.3926

>  <SCORE.INTRA.DIHEDRAL>
-1.23129

>  <SCORE.INTRA.DIHEDRAL.0>
6.83446

>  <SCORE.INTRA.POLAR>
0

>  <SCORE.INTRA.POLAR.0>
0

>  <SCORE.INTRA.REPUL>
0

>  <SCORE.INTRA.REPUL.0>
0

>  <SCORE.INTRA.SOLV>
-0.117666

>  <SCORE.INTRA.SOLV.lig_0>
-26.4601

>  <SCORE.INTRA.VDW>
-14.7181

>  <SCORE.INTRA.VDW.0>
13.7853

>  <SCORE.INTRA.norm>
-0.53078

>  <SCORE.RESTR>
0.0239483

>  <SCORE.RESTR.CAVITY>
0.0239483

>  <SCORE.RESTR.norm>
0.000825803

>  <SCORE.SYSTEM>
0

>  <SCORE.SYSTEM.CONST>
0

>  <SCORE.SYSTEM.DIHEDRAL>
0

>  <SCORE.SYSTEM.SOLV>
0

>  <SCORE.SYSTEM.norm>
0

>  <SCORE.heavy>
29

>  <SCORE.norm>
-1.53543

>  <RMSD>
0.906

$$$$
ligand
 OpenBabel11021811473D
libRbt.so/2013.1/901 2013/11/27
 29 31  0  0  0  0  0  0  0  0999 V2000
   29.0838   40.4481   16.0849 C   0  0  0  0  0  0  0  0  0  0  0  0
   29.9753   41.5058   16.4529 O   0  0  0  0  0  0  0  0  0  0  0  0
   28.8700   39.5312   17.2814 C   0  0  1  0  0  0  0  0  0  0  0  0
   28.2431   40.2788   18.3190 O   0  0  0  0  0  0  0  0  0  0  0  0
   28.0065   38.3377   16.8938 C   0  0  1  0  0  0  0  0  0  0  0  0
   28.7508   37.5667   15.9577 O   0  0  0  0  0  0  0  0  0  0  0  0
   27.5598   37.4550   18.0629 C   0  0  1  0  0  0  0  0  0  0  0  0
   26.7313   36.4108   17.5502 O   0  0  0  0  0  0  0  0  0  0  0  0
   28.7212   36.8123   18.8185 C   0  0  0  0  0  0  0  0  0  0  0  0
   28.5358   34.0551   18.2401 N   0  0  0  0  0  0  0  0  0  0  0  0
   28.4642   32.7299   17.9289 C   0  0  0  0  0  0  0  0  0  0  0  0
   28.8087   32.3244   16.7908 O   0  0  0  0  0  0  0  0  0  0  0  0
   28.0147   31.8338   18.8437 N   0  0  0  0  0  0  0  0  0  0  0  0
   27.6294   32.2355   20.0811 C   0  0  0  0  0  0  0  0  0  0  0  0
   27.6982   33.5838   20.4130 C   0  0  1  0  0  0  0  0  0  0  0  0
   27.2121   31.4028   20.9236 O   0  0  0  0  0  0  0  0  0  0  0  0
   27.3908   35.3014   21.9656 C   0  0  1  0  0  0  0  0  0  0  0  0
   27.3219   33.9934   21.6439 N   0  0  0  0  0  0  0  0  0  0  0  0
   27.0008   35.7143   23.2349 C   0  0  0  0  0  0  0  0  0  0  0  0
   27.0628   37.0553   23.5974 C   0  0  2  0  0  0  0  0  0  0  0  0
   26.6235   37.4332   24.9886 C   0  0  0  0  0  0  0  0  0  0  0  0
   27.5234   38.0034   22.6749 C   0  0  2  0  0  0  0  0  0  0  0  0
   27.6117   39.3376   22.9597 N   0  0  0  0  0  0  0  0  0  0  0  0
   27.9113   37.5728   21.4003 C   0  0  0  0  0  0  0  0  0  0  0  0
   27.8497   36.2292   21.0321 C   0  0  2  0  0  0  0  0  0  0  0  0
   28.1626   34.5080   19.4719 C   0  0  2  0  0  0  0  0  0  0  0  0
   28.2240   35.8251   19.7965 N   0  0  0  0  0  0  0  0  0  0  0  0
   26.6926   40.2689   22.3333 C   0  0  0  0  0  0  0  0  0  0  0  0
   28.5978   39.8787   23.8803 C   0  0  0  0  0  0  0  0  0  0  0  0
  1  2  1  0  0  0  0
  3  1  1  6  0  0  0
  3  4  1  0  0  0  0
  3  5  1  0  0  0  0
  5  6  1  6  0  0  0
  5  7  1  0  0  0  0
  7  8  1  6  0  0  0
  7  9  1  0  0  0  0
  9 27  1  0  0  0  0
 10 11  1  0  0  0  0
 11 12  2  0  0  0  0
 11 13  1  0  0  0  0
 13 14  1  0  0  0  0
 14 16  2  0  0  0  0
 15 14  1  1  0  0  0
 15 18  1  0  0  0  0
 15 26  1  0  0  0  0
 17 19  1  1  0  0  0
 17 25  1  0  0  0  0
 17 18  1  0  0  0  0
 19 20  1  0  0  0  0
 20 21  1  6  0  0  0
 20 22  1  0  0  0  0
 22 23  1  6  0  0  0
 22 24  1  0  0  0  0
 23 28  1  0  0  0  0
 23 29  1  0  0  0  0
 25 24  1  6  0  0  0
 25 27  1  0  0  0  0
 26 10  1  6  0  0  0
 26 27  1  0  0  0  0
M  END
>  <CHROM.1>
63.00205455,65.70327471,178.25532558,-171.61436031,-109.29030681,-85.73580246
27.95824776,36.53904429,19.83508366,-1.14713483,-1.34932488,-2.83733518

>  <Name>
ligand

>  <RI>
0

>  <Rbt.Current_Directory>
/home/itssahil/PROJECTS/Mol_Feturizer/New_Systems/rnas/3F4H

>  <Rbt.Executable>
rbdock ($Id: //depot/dev/client3/rdock/2013.1/src/exe/rbdock.cxx#4 $)

>  <Rbt.Library>
libRbt.so (2013.1, Build901 2013/11/27)

>  <Rbt.Parameter_File>
/export/apps/rDock/src/rDock_2013.1_src/data/scripts/dock_solv.prm

>  <Rbt.Receptor>
prm/blind_docking_80.prm

>  <SCORE>
-49.3422

>  <SCORE.INTER>
-31.5728

>  <SCORE.INTER.CONST>
1

>  <SCORE.INTER.POLAR>
0

>  <SCORE.INTER.ROT>
6

>  <SCORE.INTER.SOLV>
11.4365

>  <SCORE.INTER.VDW>
-32.4607

>  <SCORE.INTER.norm>
-1.08872

>  <SCORE.INTRA>
-17.7693

>  <SCORE.INTRA.DIHEDRAL>
-4.35787

>  <SCORE.INTRA.DIHEDRAL.0>
6.83446

>  <SCORE.INTRA.POLAR>
0

>  <SCORE.INTRA.POLAR.0>
0

>  <SCORE.INTRA.REPUL>
0

>  <SCORE.INTRA.REPUL.0>
0

>  <SCORE.INTRA.SOLV>
-0.426476

>  <SCORE.INTRA.SOLV.lig_0>
-26.4601

>  <SCORE.INTRA.VDW>
-15.3772

>  <SCORE.INTRA.VDW.0>
13.7853

>  <SCORE.INTRA.norm>
-0.612735

>  <SCORE.RESTR>
0

>  <SCORE.RESTR.CAVITY>
0

>  <SCORE.RESTR.norm>
0

>  <SCORE.SYSTEM>
0

>  <SCORE.SYSTEM.CONST>
0

>  <SCORE.SYSTEM.DIHEDRAL>
0

>  <SCORE.SYSTEM.SOLV>
0

>  <SCORE.SYSTEM.norm>
0

>  <SCORE.heavy>
29

>  <SCORE.norm>
-1.70145

>  <RMSD>
0.946

$$$$
ligand
 OpenBabel11021811473D
libRbt.so/2013.1/901 2013/11/27
 29 31  0  0  0  0  0  0  0  0999 V2000
   28.7782   40.7905   16.5850 C   0  0  0  0  0  0  0  0  0  0  0  0
   29.7590   40.3747   15.6290 O   0  0  0  0  0  0  0  0  0  0  0  0
   28.6148   39.7068   17.6419 C   0  0  1  0  0  0  0  0  0  0  0  0
   27.8013   40.2180   18.6932 O   0  0  0  0  0  0  0  0  0  0  0  0
   27.9780   38.4617   17.0381 C   0  0  1  0  0  0  0  0  0  0  0  0
   28.9288   37.8947   16.1441 O   0  0  0  0  0  0  0  0  0  0  0  0
   27.5214   37.4106   18.0540 C   0  0  1  0  0  0  0  0  0  0  0  0
   26.9092   36.3326   17.3451 O   0  0  0  0  0  0  0  0  0  0  0  0
   28.6625   36.8398   18.8936 C   0  0  0  0  0  0  0  0  0  0  0  0
   28.5063   34.0841   18.2997 N   0  0  0  0  0  0  0  0  0  0  0  0
   28.4494   32.7599   17.9815 C   0  0  0  0  0  0  0  0  0  0  0  0
   28.8183   32.3617   16.8484 O   0  0  0  0  0  0  0  0  0  0  0  0
   27.9884   31.8567   18.8836 N   0  0  0  0  0  0  0  0  0  0  0  0
   27.5768   32.2505   20.1150 C   0  0  0  0  0  0  0  0  0  0  0  0
   27.6304   33.5977   20.4541 C   0  0  1  0  0  0  0  0  0  0  0  0
   27.1489   31.4113   20.9458 O   0  0  0  0  0  0  0  0  0  0  0  0
   27.2820   35.3062   22.0081 C   0  0  1  0  0  0  0  0  0  0  0  0
   27.2279   33.9992   21.6793 N   0  0  0  0  0  0  0  0  0  0  0  0
   26.8651   35.7108   23.2714 C   0  0  0  0  0  0  0  0  0  0  0  0
   26.9112   37.0506   23.6408 C   0  0  2  0  0  0  0  0  0  0  0  0
   26.4429   37.4194   25.0250 C   0  0  0  0  0  0  0  0  0  0  0  0
   27.3832   38.0058   22.7315 C   0  0  2  0  0  0  0  0  0  0  0  0
   27.4572   39.3393   23.0238 N   0  0  0  0  0  0  0  0  0  0  0  0
   27.7983   37.5835   21.4627 C   0  0  0  0  0  0  0  0  0  0  0  0
   27.7526   36.2411   21.0875 C   0  0  2  0  0  0  0  0  0  0  0  0
   28.1066   34.5291   19.5261 C   0  0  2  0  0  0  0  0  0  0  0  0
   28.1531   35.8451   19.8576 N   0  0  0  0  0  0  0  0  0  0  0  0
   28.5043   39.8259   23.9019 C   0  0  0  0  0  0  0  0  0  0  0  0
   26.5223   40.3127   22.4842 C   0  0  0  0  0  0  0  0  0  0  0  0
  1  2  1  0  0  0  0
  3  1  1  6  0  0  0
  3  4  1  0  0  0  0
  3  5  1  0  0  0  0
  5  6  1  6  0  0  0
  5  7  1  0  0  0  0
  7  8  1  6  0  0  0
  7  9  1  0  0  0  0
  9 27  1  0  0  0  0
 10 11  1  0  0  0  0
 11 12  2  0  0  0  0
 11 13  1  0  0  0  0
 13 14  1  0  0  0  0
 14 16  2  0  0  0  0
 15 14  1  1  0  0  0
 15 18  1  0  0  0  0
 15 26  1  0  0  0  0
 17 19  1  1  0  0  0
 17 25  1  0  0  0  0
 17 18  1  0  0  0  0
 19 20  1  0  0  0  0
 20 21  1  6  0  0  0
 20 22  1  0  0  0  0
 22 23  1  6  0  0  0
 22 24  1  0  0  0  0
 23 28  1  0  0  0  0
 23 29  1  0  0  0  0
 25 24  1  6  0  0  0
 25 27  1  0  0  0  0
 26 10  1  6  0  0  0
 26 27  1  0  0  0  0
M  END
>  <CHROM.1>
170.91430898,68.48718466,178.06237492,179.47695560,74.80632296,-89.51213918
27.86236911,36.52940547,19.88740750,-1.34048024,-1.34353246,-2.96280148

>  <Name>
ligand

>  <RI>
0

>  <Rbt.Current_Directory>
/home/itssahil/PROJECTS/Mol_Feturizer/New_Systems/rnas/3F4H

>  <Rbt.Executable>
rbdock ($Id: //depot/dev/client3/rdock/2013.1/src/exe/rbdock.cxx#4 $)

>  <Rbt.Library>
libRbt.so (2013.1, Build901 2013/11/27)

>  <Rbt.Parameter_File>
/export/apps/rDock/src/rDock_2013.1_src/data/scripts/dock_solv.prm

>  <Rbt.Receptor>
prm/pocket_docking_6.prm

>  <SCORE>
-49.1477

>  <SCORE.INTER>
-31.3568

>  <SCORE.INTER.CONST>
1

>  <SCORE.INTER.POLAR>
0

>  <SCORE.INTER.ROT>
6

>  <SCORE.INTER.SOLV>
10.7974

>  <SCORE.INTER.VDW>
-32.1036

>  <SCORE.INTER.norm>
-1.08127

>  <SCORE.INTRA>
-17.7909

>  <SCORE.INTRA.DIHEDRAL>
-4.19492

>  <SCORE.INTRA.DIHEDRAL.0>
6.83446

>  <SCORE.INTRA.POLAR>
0

>  <SCORE.INTRA.POLAR.0>
0

>  <SCORE.INTRA.REPUL>
0

>  <SCORE.INTRA.REPUL.0>
0

>  <SCORE.INTRA.SOLV>
-0.0674607

>  <SCORE.INTRA.SOLV.lig_0>
-26.4601

>  <SCORE.INTRA.VDW>
-15.6597

>  <SCORE.INTRA.VDW.0>
13.7853

>  <SCORE.INTRA.norm>
-0.613479

>  <SCORE.RESTR>
0

>  <SCORE.RESTR.CAVITY>
0

>  <SCORE.RESTR.norm>
0

>  <SCORE.SYSTEM>
0

>  <SCORE.SYSTEM.CONST>
0

>  <SCORE.SYSTEM.DIHEDRAL>
0

>  <SCORE.SYSTEM.SOLV>
0

>  <SCORE.SYSTEM.norm>
0

>  <SCORE.heavy>
29

>  <SCORE.norm>
-1.69475

>  <RMSD>
0.963

$$$$
ligand
 OpenBabel11021811473D
libRbt.so/2013.1/901 2013/11/27
 29 31  0  0  0  0  0  0  0  0999 V2000
   28.8741   40.6571   16.3845 C   0  0  0  0  0  0  0  0  0  0  0  0
   29.7637   40.1305   15.3943 O   0  0  0  0  0  0  0  0  0  0  0  0
   28.7079   39.6387   17.5040 C   0  0  1  0  0  0  0  0  0  0  0  0
   28.0113   40.2583   18.5806 O   0  0  0  0  0  0  0  0  0  0  0  0
   27.9400   38.4197   17.0091 C   0  0  1  0  0  0  0  0  0  0  0  0
   28.7704   37.7549   16.0640 O   0  0  0  0  0  0  0  0  0  0  0  0
   27.5035   37.4413   18.1035 C   0  0  1  0  0  0  0  0  0  0  0  0
   26.7852   36.3694   17.4915 O   0  0  0  0  0  0  0  0  0  0  0  0
   28.6710   36.8447   18.8870 C   0  0  0  0  0  0  0  0  0  0  0  0
   28.5196   34.0911   18.2818 N   0  0  0  0  0  0  0  0  0  0  0  0
   28.4643   32.7682   17.9577 C   0  0  0  0  0  0  0  0  0  0  0  0
   28.8109   32.3785   16.8147 O   0  0  0  0  0  0  0  0  0  0  0  0
   28.0290   31.8574   18.8648 N   0  0  0  0  0  0  0  0  0  0  0  0
   27.6421   32.2419   20.1071 C   0  0  0  0  0  0  0  0  0  0  0  0
   27.6944   33.5876   20.4521 C   0  0  1  0  0  0  0  0  0  0  0  0
   27.2379   31.3955   20.9424 O   0  0  0  0  0  0  0  0  0  0  0  0
   27.3691   35.2856   22.0226 C   0  0  1  0  0  0  0  0  0  0  0  0
   27.3162   33.9800   21.6881 N   0  0  0  0  0  0  0  0  0  0  0  0
   26.9774   35.6808   23.2969 C   0  0  0  0  0  0  0  0  0  0  0  0
   27.0229   37.0188   23.6725 C   0  0  2  0  0  0  0  0  0  0  0  0
   26.5827   37.3772   25.0687 C   0  0  0  0  0  0  0  0  0  0  0  0
   27.4687   37.9819   22.7583 C   0  0  2  0  0  0  0  0  0  0  0  0
   27.5404   39.3143   23.0561 N   0  0  0  0  0  0  0  0  0  0  0  0
   27.8585   37.5690   21.4785 C   0  0  0  0  0  0  0  0  0  0  0  0
   27.8133   36.2284   21.0971 C   0  0  2  0  0  0  0  0  0  0  0  0
   28.1441   34.5270   19.5191 C   0  0  2  0  0  0  0  0  0  0  0  0
   28.1893   35.8415   19.8565 N   0  0  0  0  0  0  0  0  0  0  0  0
   26.6122   40.2407   22.4360 C   0  0  0  0  0  0  0  0  0  0  0  0
   28.5176   39.8581   23.9847 C   0  0  0  0  0  0  0  0  0  0  0  0
  1  2  1  0  0  0  0
  3  1  1  6  0  0  0
  3  4  1  0  0  0  0
  3  5  1  0  0  0  0
  5  6  1  6  0  0  0
  5  7  1  0  0  0  0
  7  8  1  6  0  0  0
  7  9  1  0  0  0  0
  9 27  1  0  0  0  0
 10 11  1  0  0  0  0
 11 12  2  0  0  0  0
 11 13  1  0  0  0  0
 13 14  1  0  0  0  0
 14 16  2  0  0  0  0
 15 14  1  1  0  0  0
 15 18  1  0  0  0  0
 15 26  1  0  0  0  0
 17 19  1  1  0  0  0
 17 25  1  0  0  0  0
 17 18  1  0  0  0  0
 19 20  1  0  0  0  0
 20 21  1  6  0  0  0
 20 22  1  0  0  0  0
 22 23  1  6  0  0  0
 22 24  1  0  0  0  0
 23 28  1  0  0  0  0
 23 29  1  0  0  0  0
 25 24  1  6  0  0  0
 25 27  1  0  0  0  0
 26 10  1  6  0  0  0
 26 27  1  0  0  0  0
M  END
>  <CHROM.1>
170.22495662,67.42151571,179.20929065,-175.93084121,-109.61697506,-87.89153265
27.90727609,36.50109857,19.86907878,-1.26124954,-1.36046618,-2.94638730

>  <Name>
ligand

>  <RI>
0

>  <Rbt.Current_Directory>
/home/itssahil/PROJECTS/Mol_Feturizer/New_Systems/rnas/3F4H

>  <Rbt.Executable>
rbdock ($Id: //depot/dev/client3/rdock/2013.1/src/exe/rbdock.cxx#4 $)

>  <Rbt.Library>
libRbt.so (2013.1, Build901 2013/11/27)

>  <Rbt.Parameter_File>
/export/apps/rDock/src/rDock_2013.1_src/data/scripts/dock_solv.prm

>  <Rbt.Receptor>
prm/pocket_docking_8.prm

>  <SCORE>
-49.1144

>  <SCORE.INTER>
-31.5962

>  <SCORE.INTER.CONST>
1

>  <SCORE.INTER.POLAR>
0

>  <SCORE.INTER.ROT>
6

>  <SCORE.INTER.SOLV>
11.0646

>  <SCORE.INTER.VDW>
-32.3524

>  <SCORE.INTER.norm>
-1.08953

>  <SCORE.INTRA>
-17.5226

>  <SCORE.INTRA.DIHEDRAL>
-4.165

>  <SCORE.INTRA.DIHEDRAL.0>
6.83446

>  <SCORE.INTRA.POLAR>
0

>  <SCORE.INTRA.POLAR.0>
0

>  <SCORE.INTRA.REPUL>
0

>  <SCORE.INTRA.REPUL.0>
0

>  <SCORE.INTRA.SOLV>
-0.0820732

>  <SCORE.INTRA.SOLV.lig_0>
-26.4601

>  <SCORE.INTRA.VDW>
-15.3991

>  <SCORE.INTRA.VDW.0>
13.7853

>  <SCORE.INTRA.norm>
-0.604229

>  <SCORE.RESTR>
0.00449279

>  <SCORE.RESTR.CAVITY>
0.00449279

>  <SCORE.RESTR.norm>
0.000154924

>  <SCORE.SYSTEM>
0

>  <SCORE.SYSTEM.CONST>
0

>  <SCORE.SYSTEM.DIHEDRAL>
0

>  <SCORE.SYSTEM.SOLV>
0

>  <SCORE.SYSTEM.norm>
0

>  <SCORE.heavy>
29

>  <SCORE.norm>
-1.6936

>  <RMSD>
0.965

$$$$
ligand
 OpenBabel11021811473D
libRbt.so/2013.1/901 2013/11/27
 29 31  0  0  0  0  0  0  0  0999 V2000
   28.8168   40.7766   16.5247 C   0  0  0  0  0  0  0  0  0  0  0  0
   29.7492   40.2866   15.5554 O   0  0  0  0  0  0  0  0  0  0  0  0
   28.6285   39.7308   17.6151 C   0  0  1  0  0  0  0  0  0  0  0  0
   27.8889   40.3166   18.6820 O   0  0  0  0  0  0  0  0  0  0  0  0
   27.8940   38.5135   17.0682 C   0  0  1  0  0  0  0  0  0  0  0  0
   28.7553   37.8937   16.1202 O   0  0  0  0  0  0  0  0  0  0  0  0
   27.4555   37.4940   18.1236 C   0  0  1  0  0  0  0  0  0  0  0  0
   26.7501   36.4395   17.4679 O   0  0  0  0  0  0  0  0  0  0  0  0
   28.6206   36.8780   18.8955 C   0  0  0  0  0  0  0  0  0  0  0  0
   28.4877   34.1221   18.2965 N   0  0  0  0  0  0  0  0  0  0  0  0
   28.4416   32.7981   17.9755 C   0  0  0  0  0  0  0  0  0  0  0  0
   28.8021   32.4068   16.8374 O   0  0  0  0  0  0  0  0  0  0  0  0
   28.0005   31.8879   18.8804 N   0  0  0  0  0  0  0  0  0  0  0  0
   27.5985   32.2741   20.1173 C   0  0  0  0  0  0  0  0  0  0  0  0
   27.6413   33.6210   20.4592 C   0  0  1  0  0  0  0  0  0  0  0  0
   27.1891   31.4283   20.9507 O   0  0  0  0  0  0  0  0  0  0  0  0
   27.2918   35.3219   22.0213 C   0  0  1  0  0  0  0  0  0  0  0  0
   27.2482   34.0152   21.6899 N   0  0  0  0  0  0  0  0  0  0  0  0
   26.8847   35.7189   23.2902 C   0  0  0  0  0  0  0  0  0  0  0  0
   26.9204   37.0582   23.6625 C   0  0  2  0  0  0  0  0  0  0  0  0
   26.4636   37.4185   25.0528 C   0  0  0  0  0  0  0  0  0  0  0  0
   27.3718   38.0206   22.7505 C   0  0  2  0  0  0  0  0  0  0  0  0
   27.4346   39.3541   23.0453 N   0  0  0  0  0  0  0  0  0  0  0  0
   27.7772   37.6059   21.4760 C   0  0  0  0  0  0  0  0  0  0  0  0
   27.7419   36.2641   21.0979 C   0  0  2  0  0  0  0  0  0  0  0  0
   28.0970   34.5598   19.5284 C   0  0  2  0  0  0  0  0  0  0  0  0
   28.1329   35.8754   19.8626 N   0  0  0  0  0  0  0  0  0  0  0  0
   28.4879   39.8505   23.9105 C   0  0  0  0  0  0  0  0  0  0  0  0
   26.4815   40.3182   22.5209 C   0  0  0  0  0  0  0  0  0  0  0  0
  1  2  1  0  0  0  0
  3  1  1  6  0  0  0
  3  4  1  0  0  0  0
  3  5  1  0  0  0  0
  5  6  1  6  0  0  0
  5  7  1  0  0  0  0
  7  8  1  6  0  0  0
  7  9  1  0  0  0  0
  9 27  1  0  0  0  0
 10 11  1  0  0  0  0
 11 12  2  0  0  0  0
 11 13  1  0  0  0  0
 13 14  1  0  0  0  0
 14 16  2  0  0  0  0
 15 14  1  1  0  0  0
 15 18  1  0  0  0  0
 15 26  1  0  0  0  0
 17 19  1  1  0  0  0
 17 25  1  0  0  0  0
 17 18  1  0  0  0  0
 19 20  1  0  0  0  0
 20 21  1  6  0  0  0
 20 22  1  0  0  0  0
 22 23  1  6  0  0  0
 22 24  1  0  0  0  0
 23 28  1  0  0  0  0
 23 29  1  0  0  0  0
 25 24  1  6  0  0  0
 25 27  1  0  0  0  0
 26 10  1  6  0  0  0
 26 27  1  0  0  0  0
M  END
>  <CHROM.1>
169.99761818,66.49704052,178.23195280,-178.15618893,74.94196603,-86.40111332
27.84645089,36.55457297,19.89490536,-1.33169989,-1.34997935,-2.97472560

>  <Name>
ligand

>  <RI>
0

>  <Rbt.Current_Directory>
/home/itssahil/PROJECTS/Mol_Feturizer/New_Systems/rnas/3F4H

>  <Rbt.Executable>
rbdock ($Id: //depot/dev/client3/rdock/2013.1/src/exe/rbdock.cxx#4 $)

>  <Rbt.Library>
libRbt.so (2013.1, Build901 2013/11/27)

>  <Rbt.Parameter_File>
/export/apps/rDock/src/rDock_2013.1_src/data/scripts/dock_solv.prm

>  <Rbt.Receptor>
prm/pocket_docking_4.prm

>  <SCORE>
-49.061

>  <SCORE.INTER>
-31.3087

>  <SCORE.INTER.CONST>
1

>  <SCORE.INTER.POLAR>
0

>  <SCORE.INTER.ROT>
6

>  <SCORE.INTER.SOLV>
10.9712

>  <SCORE.INTER.VDW>
-32.1296

>  <SCORE.INTER.norm>
-1.07961

>  <SCORE.INTRA>
-17.7522

>  <SCORE.INTRA.DIHEDRAL>
-4.23369

>  <SCORE.INTRA.DIHEDRAL.0>
6.83446

>  <SCORE.INTRA.POLAR>
0

>  <SCORE.INTRA.POLAR.0>
0

>  <SCORE.INTRA.REPUL>
0

>  <SCORE.INTRA.REPUL.0>
0

>  <SCORE.INTRA.SOLV>
-0.0935997

>  <SCORE.INTRA.SOLV.lig_0>
-26.4601

>  <SCORE.INTRA.VDW>
-15.5886

>  <SCORE.INTRA.VDW.0>
13.7853

>  <SCORE.INTRA.norm>
-0.612146

>  <SCORE.RESTR>
0

>  <SCORE.RESTR.CAVITY>
0

>  <SCORE.RESTR.norm>
0

>  <SCORE.SYSTEM>
0

>  <SCORE.SYSTEM.CONST>
0

>  <SCORE.SYSTEM.DIHEDRAL>
0

>  <SCORE.SYSTEM.SOLV>
0

>  <SCORE.SYSTEM.norm>
0

>  <SCORE.heavy>
29

>  <SCORE.norm>
-1.69176

>  <RMSD>
0.967

$$$$
ligand
 OpenBabel11021811473D
libRbt.so/2013.1/901 2013/11/27
 29 31  0  0  0  0  0  0  0  0999 V2000
   29.0387   40.5167   16.2104 C   0  0  0  0  0  0  0  0  0  0  0  0
   29.7884   41.6524   16.6544 O   0  0  0  0  0  0  0  0  0  0  0  0
   28.7873   39.5875   17.3900 C   0  0  1  0  0  0  0  0  0  0  0  0
   28.0610   40.3034   18.3842 O   0  0  0  0  0  0  0  0  0  0  0  0
   28.0048   38.3583   16.9460 C   0  0  1  0  0  0  0  0  0  0  0  0
   28.8327   37.6374   16.0406 O   0  0  0  0  0  0  0  0  0  0  0  0
   27.5445   37.4390   18.0812 C   0  0  1  0  0  0  0  0  0  0  0  0
   26.7966   36.3618   17.5156 O   0  0  0  0  0  0  0  0  0  0  0  0
   28.6970   36.8449   18.8884 C   0  0  0  0  0  0  0  0  0  0  0  0
   28.5254   34.0938   18.2774 N   0  0  0  0  0  0  0  0  0  0  0  0
   28.4607   32.7720   17.9507 C   0  0  0  0  0  0  0  0  0  0  0  0
   28.8140   32.3808   16.8103 O   0  0  0  0  0  0  0  0  0  0  0  0
   28.0087   31.8639   18.8523 N   0  0  0  0  0  0  0  0  0  0  0  0
   27.6141   32.2501   20.0917 C   0  0  0  0  0  0  0  0  0  0  0  0
   27.6758   33.5948   20.4393 C   0  0  1  0  0  0  0  0  0  0  0  0
   27.1945   31.4063   20.9220 O   0  0  0  0  0  0  0  0  0  0  0  0
   27.3522   35.2934   22.0095 C   0  0  1  0  0  0  0  0  0  0  0  0
   27.2902   33.9888   21.6724 N   0  0  0  0  0  0  0  0  0  0  0  0
   26.9526   35.6903   23.2809 C   0  0  0  0  0  0  0  0  0  0  0  0
   27.0072   37.0273   23.6590 C   0  0  2  0  0  0  0  0  0  0  0  0
   26.5577   37.3877   25.0516 C   0  0  0  0  0  0  0  0  0  0  0  0
   27.4702   37.9875   22.7504 C   0  0  2  0  0  0  0  0  0  0  0  0
   27.5517   39.3187   23.0510 N   0  0  0  0  0  0  0  0  0  0  0  0
   27.8678   37.5729   21.4735 C   0  0  0  0  0  0  0  0  0  0  0  0
   27.8136   36.2334   21.0895 C   0  0  2  0  0  0  0  0  0  0  0  0
   28.1428   34.5313   19.5119 C   0  0  2  0  0  0  0  0  0  0  0  0
   28.1972   35.8449   19.8518 N   0  0  0  0  0  0  0  0  0  0  0  0
   26.6049   40.2477   22.4637 C   0  0  0  0  0  0  0  0  0  0  0  0
   28.5577   39.8587   23.9506 C   0  0  0  0  0  0  0  0  0  0  0  0
  1  2  1  0  0  0  0
  3  1  1  6  0  0  0
  3  4  1  0  0  0  0
  3  5  1  0  0  0  0
  5  6  1  6  0  0  0
  5  7  1  0  0  0  0
  7  8  1  6  0  0  0
  7  9  1  0  0  0  0
  9 27  1  0  0  0  0
 10 11  1  0  0  0  0
 11 12  2  0  0  0  0
 11 13  1  0  0  0  0
 13 14  1  0  0  0  0
 14 16  2  0  0  0  0
 15 14  1  1  0  0  0
 15 18  1  0  0  0  0
 15 26  1  0  0  0  0
 17 19  1  1  0  0  0
 17 25  1  0  0  0  0
 17 18  1  0  0  0  0
 19 20  1  0  0  0  0
 20 21  1  6  0  0  0
 20 22  1  0  0  0  0
 22 23  1  6  0  0  0
 22 24  1  0  0  0  0
 23 28  1  0  0  0  0
 23 29  1  0  0  0  0
 25 24  1  6  0  0  0
 25 27  1  0  0  0  0
 26 10  1  6  0  0  0
 26 27  1  0  0  0  0
M  END
>  <CHROM.1>
59.55372630,64.59417489,178.29755463,-172.98199052,-107.24401766,-88.71062981
27.92096609,36.55435137,19.89267293,-1.20830924,-1.34973852,-2.86935311

>  <Name>
ligand

>  <RI>
0

>  <Rbt.Current_Directory>
/home/itssahil/PROJECTS/Mol_Feturizer/New_Systems/rnas/3F4H

>  <Rbt.Executable>
rbdock ($Id: //depot/dev/client3/rdock/2013.1/src/exe/rbdock.cxx#4 $)

>  <Rbt.Library>
libRbt.so (2013.1, Build901 2013/11/27)

>  <Rbt.Parameter_File>
/export/apps/rDock/src/rDock_2013.1_src/data/scripts/dock_solv.prm

>  <Rbt.Receptor>
prm/pocket_docking_8.prm

>  <SCORE>
-49.4657

>  <SCORE.INTER>
-31.5329

>  <SCORE.INTER.CONST>
1

>  <SCORE.INTER.POLAR>
0

>  <SCORE.INTER.ROT>
6

>  <SCORE.INTER.SOLV>
11.2791

>  <SCORE.INTER.VDW>
-32.3816

>  <SCORE.INTER.norm>
-1.08734

>  <SCORE.INTRA>
-17.9328

>  <SCORE.INTRA.DIHEDRAL>
-4.50376

>  <SCORE.INTRA.DIHEDRAL.0>
6.83446

>  <SCORE.INTRA.POLAR>
0

>  <SCORE.INTRA.POLAR.0>
0

>  <SCORE.INTRA.REPUL>
0

>  <SCORE.INTRA.REPUL.0>
0

>  <SCORE.INTRA.SOLV>
-0.423196

>  <SCORE.INTRA.SOLV.lig_0>
-26.4601

>  <SCORE.INTRA.VDW>
-15.4693

>  <SCORE.INTRA.VDW.0>
13.7853

>  <SCORE.INTRA.norm>
-0.618372

>  <SCORE.RESTR>
0

>  <SCORE.RESTR.CAVITY>
0

>  <SCORE.RESTR.norm>
0

>  <SCORE.SYSTEM>
0

>  <SCORE.SYSTEM.CONST>
0

>  <SCORE.SYSTEM.DIHEDRAL>
0

>  <SCORE.SYSTEM.SOLV>
0

>  <SCORE.SYSTEM.norm>
0

>  <SCORE.heavy>
29

>  <SCORE.norm>
-1.70571

>  <RMSD>
0.967

$$$$
ligand
 OpenBabel11021811473D
libRbt.so/2013.1/901 2013/11/27
 29 31  0  0  0  0  0  0  0  0999 V2000
   28.7539   40.7418   16.4328 C   0  0  0  0  0  0  0  0  0  0  0  0
   29.4702   41.8639   16.9589 O   0  0  0  0  0  0  0  0  0  0  0  0
   28.5755   39.7002   17.5288 C   0  0  1  0  0  0  0  0  0  0  0  0
   27.7907   40.2698   18.5720 O   0  0  0  0  0  0  0  0  0  0  0  0
   27.8965   38.4533   16.9769 C   0  0  1  0  0  0  0  0  0  0  0  0
   28.8032   37.8520   16.0598 O   0  0  0  0  0  0  0  0  0  0  0  0
   27.4630   37.4314   18.0321 C   0  0  1  0  0  0  0  0  0  0  0  0
   26.7932   36.3565   17.3722 O   0  0  0  0  0  0  0  0  0  0  0  0
   28.6282   36.8476   18.8285 C   0  0  0  0  0  0  0  0  0  0  0  0
   28.5156   34.0821   18.2712 N   0  0  0  0  0  0  0  0  0  0  0  0
   28.4794   32.7531   17.9704 C   0  0  0  0  0  0  0  0  0  0  0  0
   28.8460   32.3469   16.8395 O   0  0  0  0  0  0  0  0  0  0  0  0
   28.0418   31.8538   18.8878 N   0  0  0  0  0  0  0  0  0  0  0  0
   27.6335   32.2562   20.1176 C   0  0  0  0  0  0  0  0  0  0  0  0
   27.6661   33.6083   20.4389 C   0  0  1  0  0  0  0  0  0  0  0  0
   27.2272   31.4204   20.9626 O   0  0  0  0  0  0  0  0  0  0  0  0
   27.3005   35.3305   21.9738 C   0  0  1  0  0  0  0  0  0  0  0  0
   27.2667   34.0186   21.6623 N   0  0  0  0  0  0  0  0  0  0  0  0
   26.8869   35.7440   23.2354 C   0  0  0  0  0  0  0  0  0  0  0  0
   26.9125   37.0891   23.5873 C   0  0  2  0  0  0  0  0  0  0  0  0
   26.4492   37.4675   24.9705 C   0  0  0  0  0  0  0  0  0  0  0  0
   27.3602   38.0405   22.6619 C   0  0  2  0  0  0  0  0  0  0  0  0
   27.4131   39.3788   22.9365 N   0  0  0  0  0  0  0  0  0  0  0  0
   27.7722   37.6092   21.3951 C   0  0  0  0  0  0  0  0  0  0  0  0
   27.7470   36.2615   21.0375 C   0  0  2  0  0  0  0  0  0  0  0  0
   28.1183   34.5359   19.4952 C   0  0  2  0  0  0  0  0  0  0  0  0
   28.1444   35.8567   19.8094 N   0  0  0  0  0  0  0  0  0  0  0  0
   28.4619   39.8957   23.7951 C   0  0  0  0  0  0  0  0  0  0  0  0
   26.4537   40.3279   22.3966 C   0  0  0  0  0  0  0  0  0  0  0  0
  1  2  1  0  0  0  0
  3  1  1  6  0  0  0
  3  4  1  0  0  0  0
  3  5  1  0  0  0  0
  5  6  1  6  0  0  0
  5  7  1  0  0  0  0
  7  8  1  6  0  0  0
  7  9  1  0  0  0  0
  9 27  1  0  0  0  0
 10 11  1  0  0  0  0
 11 12  2  0  0  0  0
 11 13  1  0  0  0  0
 13 14  1  0  0  0  0
 14 16  2  0  0  0  0
 15 14  1  1  0  0  0
 15 18  1  0  0  0  0
 15 26  1  0  0  0  0
 17 19  1  1  0  0  0
 17 25  1  0  0  0  0
 17 18  1  0  0  0  0
 19 20  1  0  0  0  0
 20 21  1  6  0  0  0
 20 22  1  0  0  0  0
 22 23  1  6  0  0  0
 22 24  1  0  0  0  0
 23 28  1  0  0  0  0
 23 29  1  0  0  0  0
 25 24  1  6  0  0  0
 25 27  1  0  0  0  0
 26 10  1  6  0  0  0
 26 27  1  0  0  0  0
M  END
>  <CHROM.1>
62.57418971,66.72709853,177.38515170,-179.05817484,75.05623808,-87.09192014
27.83839150,36.60221427,19.89326767,-1.40023348,-1.35552040,-2.99536164

>  <Name>
ligand

>  <RI>
0

>  <Rbt.Current_Directory>
/home/itssahil/PROJECTS/Mol_Feturizer/New_Systems/rnas/3F4H

>  <Rbt.Executable>
rbdock ($Id: //depot/dev/client3/rdock/2013.1/src/exe/rbdock.cxx#4 $)

>  <Rbt.Library>
libRbt.so (2013.1, Build901 2013/11/27)

>  <Rbt.Parameter_File>
/export/apps/rDock/src/rDock_2013.1_src/data/scripts/dock_solv.prm

>  <Rbt.Receptor>
prm/pocket_docking_4.prm

>  <SCORE>
-49.1932

>  <SCORE.INTER>
-30.9418

>  <SCORE.INTER.CONST>
1

>  <SCORE.INTER.POLAR>
0

>  <SCORE.INTER.ROT>
6

>  <SCORE.INTER.SOLV>
11.2348

>  <SCORE.INTER.VDW>
-31.9728

>  <SCORE.INTER.norm>
-1.06696

>  <SCORE.INTRA>
-18.2513

>  <SCORE.INTRA.DIHEDRAL>
-4.55113

>  <SCORE.INTRA.DIHEDRAL.0>
6.83446

>  <SCORE.INTRA.POLAR>
0

>  <SCORE.INTRA.POLAR.0>
0

>  <SCORE.INTRA.REPUL>
0

>  <SCORE.INTRA.REPUL.0>
0

>  <SCORE.INTRA.SOLV>
-0.409135

>  <SCORE.INTRA.SOLV.lig_0>
-26.4601

>  <SCORE.INTRA.VDW>
-15.7712

>  <SCORE.INTRA.VDW.0>
13.7853

>  <SCORE.INTRA.norm>
-0.629355

>  <SCORE.RESTR>
0

>  <SCORE.RESTR.CAVITY>
0

>  <SCORE.RESTR.norm>
0

>  <SCORE.SYSTEM>
0

>  <SCORE.SYSTEM.CONST>
0

>  <SCORE.SYSTEM.DIHEDRAL>
0

>  <SCORE.SYSTEM.SOLV>
0

>  <SCORE.SYSTEM.norm>
0

>  <SCORE.heavy>
29

>  <SCORE.norm>
-1.69632

>  <RMSD>
0.969

$$$$
ligand
 OpenBabel11021811473D
libRbt.so/2013.1/901 2013/11/27
 29 31  0  0  0  0  0  0  0  0999 V2000
   28.8710   40.6468   16.4140 C   0  0  0  0  0  0  0  0  0  0  0  0
   29.7794   40.1409   15.4304 O   0  0  0  0  0  0  0  0  0  0  0  0
   28.6955   39.6115   17.5165 C   0  0  1  0  0  0  0  0  0  0  0  0
   27.9808   40.2117   18.5923 O   0  0  0  0  0  0  0  0  0  0  0  0
   27.9416   38.3955   16.9939 C   0  0  1  0  0  0  0  0  0  0  0  0
   28.7863   37.7522   16.0467 O   0  0  0  0  0  0  0  0  0  0  0  0
   27.5012   37.3962   18.0677 C   0  0  1  0  0  0  0  0  0  0  0  0
   26.8204   36.3159   17.4280 O   0  0  0  0  0  0  0  0  0  0  0  0
   28.6628   36.8160   18.8719 C   0  0  0  0  0  0  0  0  0  0  0  0
   28.4983   34.0647   18.2600 N   0  0  0  0  0  0  0  0  0  0  0  0
   28.4367   32.7429   17.9326 C   0  0  0  0  0  0  0  0  0  0  0  0
   28.7807   32.3544   16.7884 O   0  0  0  0  0  0  0  0  0  0  0  0
   27.9977   31.8318   18.8377 N   0  0  0  0  0  0  0  0  0  0  0  0
   27.6133   32.2150   20.0812 C   0  0  0  0  0  0  0  0  0  0  0  0
   27.6720   33.5596   20.4296 C   0  0  1  0  0  0  0  0  0  0  0  0
   27.2057   31.3684   20.9147 O   0  0  0  0  0  0  0  0  0  0  0  0
   27.3556   35.2552   22.0045 C   0  0  1  0  0  0  0  0  0  0  0  0
   27.2965   33.9507   21.6667 N   0  0  0  0  0  0  0  0  0  0  0  0
   26.9665   35.6490   23.2800 C   0  0  0  0  0  0  0  0  0  0  0  0
   27.0185   36.9859   23.6589 C   0  0  2  0  0  0  0  0  0  0  0  0
   26.5807   37.3429   25.0562 C   0  0  0  0  0  0  0  0  0  0  0  0
   27.4681   37.9491   22.7468 C   0  0  2  0  0  0  0  0  0  0  0  0
   27.5462   39.2804   23.0479 N   0  0  0  0  0  0  0  0  0  0  0  0
   27.8553   37.5376   21.4657 C   0  0  0  0  0  0  0  0  0  0  0  0
   27.8036   36.1982   21.0810 C   0  0  2  0  0  0  0  0  0  0  0  0
   28.1255   34.4992   19.4985 C   0  0  2  0  0  0  0  0  0  0  0  0
   28.1771   35.8127   19.8392 N   0  0  0  0  0  0  0  0  0  0  0  0
   26.5688   40.2006   22.4980 C   0  0  0  0  0  0  0  0  0  0  0  0
   28.5784   39.8291   23.9118 C   0  0  0  0  0  0  0  0  0  0  0  0
  1  2  1  0  0  0  0
  3  1  1  6  0  0  0
  3  4  1  0  0  0  0
  3  5  1  0  0  0  0
  5  6  1  6  0  0  0
  5  7  1  0  0  0  0
  7  8  1  6  0  0  0
  7  9  1  0  0  0  0
  9 27  1  0  0  0  0
 10 11  1  0  0  0  0
 11 12  2  0  0  0  0
 11 13  1  0  0  0  0
 13 14  1  0  0  0  0
 14 16  2  0  0  0  0
 15 14  1  1  0  0  0
 15 18  1  0  0  0  0
 15 26  1  0  0  0  0
 17 19  1  1  0  0  0
 17 25  1  0  0  0  0
 17 18  1  0  0  0  0
 19 20  1  0  0  0  0
 20 21  1  6  0  0  0
 20 22  1  0  0  0  0
 22 23  1  6  0  0  0
 22 24  1  0  0  0  0
 23 28  1  0  0  0  0
 23 29  1  0  0  0  0
 25 24  1  6  0  0  0
 25 27  1  0  0  0  0
 26 10  1  6  0  0  0
 26 27  1  0  0  0  0
M  END
>  <CHROM.1>
170.08244968,67.18136531,-179.63797943,-177.11684326,-105.67240422,-89.22644778
27.89900801,36.47286418,19.85505534,-1.26238035,-1.35917825,-2.92192497

>  <Name>
ligand

>  <RI>
0

>  <Rbt.Current_Directory>
/home/itssahil/PROJECTS/Mol_Feturizer/New_Systems/rnas/3F4H

>  <Rbt.Executable>
rbdock ($Id: //depot/dev/client3/rdock/2013.1/src/exe/rbdock.cxx#4 $)

>  <Rbt.Library>
libRbt.so (2013.1, Build901 2013/11/27)

>  <Rbt.Parameter_File>
/export/apps/rDock/src/rDock_2013.1_src/data/scripts/dock_solv.prm

>  <Rbt.Receptor>
prm/blind_docking_100.prm

>  <SCORE>
-49.1016

>  <SCORE.INTER>
-31.3775

>  <SCORE.INTER.CONST>
1

>  <SCORE.INTER.POLAR>
0

>  <SCORE.INTER.ROT>
6

>  <SCORE.INTER.SOLV>
10.9959

>  <SCORE.INTER.VDW>
-32.1837

>  <SCORE.INTER.norm>
-1.08198

>  <SCORE.INTRA>
-17.7241

>  <SCORE.INTRA.DIHEDRAL>
-4.19982

>  <SCORE.INTRA.DIHEDRAL.0>
6.83446

>  <SCORE.INTRA.POLAR>
0

>  <SCORE.INTRA.POLAR.0>
0

>  <SCORE.INTRA.REPUL>
0

>  <SCORE.INTRA.REPUL.0>
0

>  <SCORE.INTRA.SOLV>
-0.0861042

>  <SCORE.INTRA.SOLV.lig_0>
-26.4601

>  <SCORE.INTRA.VDW>
-15.5811

>  <SCORE.INTRA.VDW.0>
13.7853

>  <SCORE.INTRA.norm>
-0.611176

>  <SCORE.RESTR>
0

>  <SCORE.RESTR.CAVITY>
0

>  <SCORE.RESTR.norm>
0

>  <SCORE.SYSTEM>
0

>  <SCORE.SYSTEM.CONST>
0

>  <SCORE.SYSTEM.DIHEDRAL>
0

>  <SCORE.SYSTEM.SOLV>
0

>  <SCORE.SYSTEM.norm>
0

>  <SCORE.heavy>
29

>  <SCORE.norm>
-1.69316

>  <RMSD>
0.971

$$$$
ligand
 OpenBabel11021811473D
libRbt.so/2013.1/901 2013/11/27
 29 31  0  0  0  0  0  0  0  0999 V2000
   28.8674   40.6440   16.3793 C   0  0  0  0  0  0  0  0  0  0  0  0
   29.7676   40.1371   15.3886 O   0  0  0  0  0  0  0  0  0  0  0  0
   28.7146   39.6169   17.4928 C   0  0  1  0  0  0  0  0  0  0  0  0
   27.9966   40.2164   18.5669 O   0  0  0  0  0  0  0  0  0  0  0  0
   27.9769   38.3841   16.9865 C   0  0  1  0  0  0  0  0  0  0  0  0
   28.8418   37.7237   16.0696 O   0  0  0  0  0  0  0  0  0  0  0  0
   27.5237   37.4079   18.0761 C   0  0  1  0  0  0  0  0  0  0  0  0
   26.8235   36.3296   17.4543 O   0  0  0  0  0  0  0  0  0  0  0  0
   28.6782   36.8208   18.8855 C   0  0  0  0  0  0  0  0  0  0  0  0
   28.5022   34.0701   18.2738 N   0  0  0  0  0  0  0  0  0  0  0  0
   28.4352   32.7485   17.9466 C   0  0  0  0  0  0  0  0  0  0  0  0
   28.7831   32.3578   16.8043 O   0  0  0  0  0  0  0  0  0  0  0  0
   27.9868   31.8402   18.8497 N   0  0  0  0  0  0  0  0  0  0  0  0
   27.5980   32.2259   20.0911 C   0  0  0  0  0  0  0  0  0  0  0  0
   27.6621   33.5703   20.4392 C   0  0  1  0  0  0  0  0  0  0  0  0
   27.1816   31.3819   20.9228 O   0  0  0  0  0  0  0  0  0  0  0  0
   27.3465   35.2683   22.0118 C   0  0  1  0  0  0  0  0  0  0  0  0
   27.2822   33.9639   21.6743 N   0  0  0  0  0  0  0  0  0  0  0  0
   26.9530   35.6647   23.2852 C   0  0  0  0  0  0  0  0  0  0  0  0
   27.0101   37.0014   23.6638 C   0  0  2  0  0  0  0  0  0  0  0  0
   26.5671   37.3613   25.0587 C   0  0  0  0  0  0  0  0  0  0  0  0
   27.4696   37.9619   22.7537 C   0  0  2  0  0  0  0  0  0  0  0  0
   27.5533   39.2929   23.0546 N   0  0  0  0  0  0  0  0  0  0  0  0
   27.8612   37.5478   21.4747 C   0  0  0  0  0  0  0  0  0  0  0  0
   27.8044   36.2085   21.0903 C   0  0  2  0  0  0  0  0  0  0  0  0
   28.1254   34.5072   19.5102 C   0  0  2  0  0  0  0  0  0  0  0  0
   28.1822   35.8205   19.8507 N   0  0  0  0  0  0  0  0  0  0  0  0
   26.5959   40.2209   22.4830 C   0  0  0  0  0  0  0  0  0  0  0  0
   28.5718   39.8336   23.9395 C   0  0  0  0  0  0  0  0  0  0  0  0
  1  2  1  0  0  0  0
  3  1  1  6  0  0  0
  3  4  1  0  0  0  0
  3  5  1  0  0  0  0
  5  6  1  6  0  0  0
  5  7  1  0  0  0  0
  7  8  1  6  0  0  0
  7  9  1  0  0  0  0
  9 27  1  0  0  0  0
 10 11  1  0  0  0  0
 11 12  2  0  0  0  0
 11 13  1  0  0  0  0
 13 14  1  0  0  0  0
 14 16  2  0  0  0  0
 15 14  1  1  0  0  0
 15 18  1  0  0  0  0
 15 26  1  0  0  0  0
 17 19  1  1  0  0  0
 17 25  1  0  0  0  0
 17 18  1  0  0  0  0
 19 20  1  0  0  0  0
 20 21  1  6  0  0  0
 20 22  1  0  0  0  0
 22 23  1  6  0  0  0
 22 24  1  0  0  0  0
 23 28  1  0  0  0  0
 23 29  1  0  0  0  0
 25 24  1  6  0  0  0
 25 27  1  0  0  0  0
 26 10  1  6  0  0  0
 26 27  1  0  0  0  0
M  END
>  <CHROM.1>
170.65906151,68.83178518,178.55577708,-176.01040994,-106.61040650,-89.16341375
27.90201421,36.47993565,19.85884457,-1.22860925,-1.35658986,-2.91542479

>  <Name>
ligand

>  <RI>
0

>  <Rbt.Current_Directory>
/home/itssahil/PROJECTS/Mol_Feturizer/New_Systems/rnas/3F4H

>  <Rbt.Executable>
rbdock ($Id: //depot/dev/client3/rdock/2013.1/src/exe/rbdock.cxx#4 $)

>  <Rbt.Library>
libRbt.so (2013.1, Build901 2013/11/27)

>  <Rbt.Parameter_File>
/export/apps/rDock/src/rDock_2013.1_src/data/scripts/dock_solv.prm

>  <Rbt.Receptor>
prm/pocket_docking_3.prm

>  <SCORE>
-49.1083

>  <SCORE.INTER>
-31.4354

>  <SCORE.INTER.CONST>
1

>  <SCORE.INTER.POLAR>
0

>  <SCORE.INTER.ROT>
6

>  <SCORE.INTER.SOLV>
11.0126

>  <SCORE.INTER.VDW>
-32.2278

>  <SCORE.INTER.norm>
-1.08398

>  <SCORE.INTRA>
-17.6728

>  <SCORE.INTRA.DIHEDRAL>
-4.10788

>  <SCORE.INTRA.DIHEDRAL.0>
6.83446

>  <SCORE.INTRA.POLAR>
0

>  <SCORE.INTRA.POLAR.0>
0

>  <SCORE.INTRA.REPUL>
0

>  <SCORE.INTRA.REPUL.0>
0

>  <SCORE.INTRA.SOLV>
-0.0848721

>  <SCORE.INTRA.SOLV.lig_0>
-26.4601

>  <SCORE.INTRA.VDW>
-15.5765

>  <SCORE.INTRA.VDW.0>
13.7853

>  <SCORE.INTRA.norm>
-0.609408

>  <SCORE.RESTR>
0

>  <SCORE.RESTR.CAVITY>
0

>  <SCORE.RESTR.norm>
0

>  <SCORE.SYSTEM>
0

>  <SCORE.SYSTEM.CONST>
0

>  <SCORE.SYSTEM.DIHEDRAL>
0

>  <SCORE.SYSTEM.SOLV>
0

>  <SCORE.SYSTEM.norm>
0

>  <SCORE.heavy>
29

>  <SCORE.norm>
-1.69339

>  <RMSD>
0.971

$$$$
ligand
 OpenBabel11021811473D
libRbt.so/2013.1/901 2013/11/27
 29 31  0  0  0  0  0  0  0  0999 V2000
   29.0839   40.4088   16.1358 C   0  0  0  0  0  0  0  0  0  0  0  0
   29.9560   41.4655   16.5505 O   0  0  0  0  0  0  0  0  0  0  0  0
   28.8557   39.4578   17.3027 C   0  0  1  0  0  0  0  0  0  0  0  0
   28.2079   40.1730   18.3502 O   0  0  0  0  0  0  0  0  0  0  0  0
   28.0052   38.2713   16.8678 C   0  0  1  0  0  0  0  0  0  0  0  0
   28.7661   37.5345   15.9176 O   0  0  0  0  0  0  0  0  0  0  0  0
   27.5504   37.3499   18.0036 C   0  0  1  0  0  0  0  0  0  0  0  0
   26.7729   36.2912   17.4431 O   0  0  0  0  0  0  0  0  0  0  0  0
   28.7075   36.7283   18.7831 C   0  0  0  0  0  0  0  0  0  0  0  0
   28.5150   33.9680   18.2222 N   0  0  0  0  0  0  0  0  0  0  0  0
   28.4401   32.6410   17.9196 C   0  0  0  0  0  0  0  0  0  0  0  0
   28.7847   32.2272   16.7844 O   0  0  0  0  0  0  0  0  0  0  0  0
   27.9870   31.7521   18.8396 N   0  0  0  0  0  0  0  0  0  0  0  0
   27.6015   32.1629   20.0739 C   0  0  0  0  0  0  0  0  0  0  0  0
   27.6737   33.5131   20.3971 C   0  0  1  0  0  0  0  0  0  0  0  0
   27.1809   31.3368   20.9213 O   0  0  0  0  0  0  0  0  0  0  0  0
   27.3694   35.2415   21.9384 C   0  0  1  0  0  0  0  0  0  0  0  0
   27.2972   33.9316   21.6250 N   0  0  0  0  0  0  0  0  0  0  0  0
   26.9791   35.6636   23.2045 C   0  0  0  0  0  0  0  0  0  0  0  0
   27.0444   37.0067   23.5584 C   0  0  2  0  0  0  0  0  0  0  0  0
   26.6046   37.3948   24.9467 C   0  0  0  0  0  0  0  0  0  0  0  0
   27.5087   37.9476   22.6304 C   0  0  2  0  0  0  0  0  0  0  0  0
   27.6004   39.2834   22.9067 N   0  0  0  0  0  0  0  0  0  0  0  0
   27.8969   37.5077   21.3590 C   0  0  0  0  0  0  0  0  0  0  0  0
   27.8319   36.1619   20.9994 C   0  0  2  0  0  0  0  0  0  0  0  0
   28.1417   34.4299   19.4507 C   0  0  2  0  0  0  0  0  0  0  0  0
   28.2064   35.7489   19.7669 N   0  0  0  0  0  0  0  0  0  0  0  0
   26.6783   40.2121   22.2808 C   0  0  0  0  0  0  0  0  0  0  0  0
   28.5932   39.8287   23.8176 C   0  0  0  0  0  0  0  0  0  0  0  0
  1  2  1  0  0  0  0
  3  1  1  6  0  0  0
  3  4  1  0  0  0  0
  3  5  1  0  0  0  0
  5  6  1  6  0  0  0
  5  7  1  0  0  0  0
  7  8  1  6  0  0  0
  7  9  1  0  0  0  0
  9 27  1  0  0  0  0
 10 11  1  0  0  0  0
 11 12  2  0  0  0  0
 11 13  1  0  0  0  0
 13 14  1  0  0  0  0
 14 16  2  0  0  0  0
 15 14  1  1  0  0  0
 15 18  1  0  0  0  0
 15 26  1  0  0  0  0
 17 19  1  1  0  0  0
 17 25  1  0  0  0  0
 17 18  1  0  0  0  0
 19 20  1  0  0  0  0
 20 21  1  6  0  0  0
 20 22  1  0  0  0  0
 22 23  1  6  0  0  0
 22 24  1  0  0  0  0
 23 28  1  0  0  0  0
 23 29  1  0  0  0  0
 25 24  1  6  0  0  0
 25 27  1  0  0  0  0
 26 10  1  6  0  0  0
 26 27  1  0  0  0  0
M  END
>  <CHROM.1>
62.59930064,65.39826149,-179.81341225,-174.16282989,-108.83763199,-86.81363517
27.94361626,36.47017892,19.81408899,-1.16992288,-1.34709914,-2.82892430

>  <Name>
ligand

>  <RI>
0

>  <Rbt.Current_Directory>
/home/itssahil/PROJECTS/Mol_Feturizer/New_Systems/rnas/3F4H

>  <Rbt.Executable>
rbdock ($Id: //depot/dev/client3/rdock/2013.1/src/exe/rbdock.cxx#4 $)

>  <Rbt.Library>
libRbt.so (2013.1, Build901 2013/11/27)

>  <Rbt.Parameter_File>
/export/apps/rDock/src/rDock_2013.1_src/data/scripts/dock_solv.prm

>  <Rbt.Receptor>
prm/pocket_docking_3.prm

>  <SCORE>
-49.3192

>  <SCORE.INTER>
-31.4313

>  <SCORE.INTER.CONST>
1

>  <SCORE.INTER.POLAR>
0

>  <SCORE.INTER.ROT>
6

>  <SCORE.INTER.SOLV>
11.4718

>  <SCORE.INTER.VDW>
-32.3782

>  <SCORE.INTER.norm>
-1.08384

>  <SCORE.INTRA>
-17.8879

>  <SCORE.INTRA.DIHEDRAL>
-4.51801

>  <SCORE.INTRA.DIHEDRAL.0>
6.83446

>  <SCORE.INTRA.POLAR>
0

>  <SCORE.INTRA.POLAR.0>
0

>  <SCORE.INTRA.REPUL>
0

>  <SCORE.INTRA.REPUL.0>
0

>  <SCORE.INTRA.SOLV>
-0.415365

>  <SCORE.INTRA.SOLV.lig_0>
-26.4601

>  <SCORE.INTRA.VDW>
-15.4212

>  <SCORE.INTRA.VDW.0>
13.7853

>  <SCORE.INTRA.norm>
-0.616824

>  <SCORE.RESTR>
0

>  <SCORE.RESTR.CAVITY>
0

>  <SCORE.RESTR.norm>
0

>  <SCORE.SYSTEM>
0

>  <SCORE.SYSTEM.CONST>
0

>  <SCORE.SYSTEM.DIHEDRAL>
0

>  <SCORE.SYSTEM.SOLV>
0

>  <SCORE.SYSTEM.norm>
0

>  <SCORE.heavy>
29

>  <SCORE.norm>
-1.70066

>  <RMSD>
0.972

$$$$
ligand
 OpenBabel11021811473D
libRbt.so/2013.1/901 2013/11/27
 29 31  0  0  0  0  0  0  0  0999 V2000
   28.8021   40.7191   16.4916 C   0  0  0  0  0  0  0  0  0  0  0  0
   29.7033   40.2415   15.4873 O   0  0  0  0  0  0  0  0  0  0  0  0
   28.6491   39.6602   17.5748 C   0  0  1  0  0  0  0  0  0  0  0  0
   27.8632   40.2029   18.6313 O   0  0  0  0  0  0  0  0  0  0  0  0
   27.9865   38.4097   17.0114 C   0  0  1  0  0  0  0  0  0  0  0  0
   28.9174   37.8057   16.1207 O   0  0  0  0  0  0  0  0  0  0  0  0
   27.5275   37.3919   18.0598 C   0  0  1  0  0  0  0  0  0  0  0  0
   26.9122   36.2939   17.3849 O   0  0  0  0  0  0  0  0  0  0  0  0
   28.6675   36.8446   18.9163 C   0  0  0  0  0  0  0  0  0  0  0  0
   28.5129   34.0924   18.3055 N   0  0  0  0  0  0  0  0  0  0  0  0
   28.4566   32.7702   17.9791 C   0  0  0  0  0  0  0  0  0  0  0  0
   28.8213   32.3798   16.8420 O   0  0  0  0  0  0  0  0  0  0  0  0
   28.0006   31.8607   18.8773 N   0  0  0  0  0  0  0  0  0  0  0  0
   27.5937   32.2459   20.1130 C   0  0  0  0  0  0  0  0  0  0  0  0
   27.6467   33.5910   20.4604 C   0  0  1  0  0  0  0  0  0  0  0  0
   27.1705   31.4008   20.9401 O   0  0  0  0  0  0  0  0  0  0  0  0
   27.3023   35.2891   22.0266 C   0  0  1  0  0  0  0  0  0  0  0  0
   27.2488   33.9842   21.6898 N   0  0  0  0  0  0  0  0  0  0  0  0
   26.8901   35.6851   23.2943 C   0  0  0  0  0  0  0  0  0  0  0  0
   26.9359   37.0225   23.6720 C   0  0  2  0  0  0  0  0  0  0  0  0
   26.4728   37.3818   25.0605 C   0  0  0  0  0  0  0  0  0  0  0  0
   27.4027   37.9842   22.7669 C   0  0  2  0  0  0  0  0  0  0  0  0
   27.4759   39.3159   23.0674 N   0  0  0  0  0  0  0  0  0  0  0  0
   27.8130   37.5706   21.4937 C   0  0  0  0  0  0  0  0  0  0  0  0
   27.7677   36.2306   21.1101 C   0  0  2  0  0  0  0  0  0  0  0  0
   28.1177   34.5291   19.5364 C   0  0  2  0  0  0  0  0  0  0  0  0
   28.1637   35.8430   19.8760 N   0  0  0  0  0  0  0  0  0  0  0  0
   28.5295   39.7993   23.9396 C   0  0  0  0  0  0  0  0  0  0  0  0
   26.5340   40.2905   22.5423 C   0  0  0  0  0  0  0  0  0  0  0  0
  1  2  1  0  0  0  0
  3  1  1  6  0  0  0
  3  4  1  0  0  0  0
  3  5  1  0  0  0  0
  5  6  1  6  0  0  0
  5  7  1  0  0  0  0
  7  8  1  6  0  0  0
  7  9  1  0  0  0  0
  9 27  1  0  0  0  0
 10 11  1  0  0  0  0
 11 12  2  0  0  0  0
 11 13  1  0  0  0  0
 13 14  1  0  0  0  0
 14 16  2  0  0  0  0
 15 14  1  1  0  0  0
 15 18  1  0  0  0  0
 15 26  1  0  0  0  0
 17 19  1  1  0  0  0
 17 25  1  0  0  0  0
 17 18  1  0  0  0  0
 19 20  1  0  0  0  0
 20 21  1  6  0  0  0
 20 22  1  0  0  0  0
 22 23  1  6  0  0  0
 22 24  1  0  0  0  0
 23 28  1  0  0  0  0
 23 29  1  0  0  0  0
 25 24  1  6  0  0  0
 25 27  1  0  0  0  0
 26 10  1  6  0  0  0
 26 27  1  0  0  0  0
M  END
>  <CHROM.1>
174.01337920,69.05691901,179.09646484,-178.33424133,75.07091564,-91.01706585
27.87598544,36.50466945,19.88675676,-1.31362104,-1.34910674,-2.96069413

>  <Name>
ligand

>  <RI>
0

>  <Rbt.Current_Directory>
/home/itssahil/PROJECTS/Mol_Feturizer/New_Systems/rnas/3F4H

>  <Rbt.Executable>
rbdock ($Id: //depot/dev/client3/rdock/2013.1/src/exe/rbdock.cxx#4 $)

>  <Rbt.Library>
libRbt.so (2013.1, Build901 2013/11/27)

>  <Rbt.Parameter_File>
/export/apps/rDock/src/rDock_2013.1_src/data/scripts/dock_solv.prm

>  <Rbt.Receptor>
prm/pocket_docking_4.prm

>  <SCORE>
-49.0269

>  <SCORE.INTER>
-31.2891

>  <SCORE.INTER.CONST>
1

>  <SCORE.INTER.POLAR>
0

>  <SCORE.INTER.ROT>
6

>  <SCORE.INTER.SOLV>
10.8563

>  <SCORE.INTER.VDW>
-32.0781

>  <SCORE.INTER.norm>
-1.07893

>  <SCORE.INTRA>
-17.7378

>  <SCORE.INTRA.DIHEDRAL>
-4.3274

>  <SCORE.INTRA.DIHEDRAL.0>
6.83446

>  <SCORE.INTRA.POLAR>
0

>  <SCORE.INTRA.POLAR.0>
0

>  <SCORE.INTRA.REPUL>
0

>  <SCORE.INTRA.REPUL.0>
0

>  <SCORE.INTRA.SOLV>
-0.0558846

>  <SCORE.INTRA.SOLV.lig_0>
-26.4601

>  <SCORE.INTRA.VDW>
-15.5462

>  <SCORE.INTRA.VDW.0>
13.7853

>  <SCORE.INTRA.norm>
-0.611649

>  <SCORE.RESTR>
0

>  <SCORE.RESTR.CAVITY>
0

>  <SCORE.RESTR.norm>
0

>  <SCORE.SYSTEM>
0

>  <SCORE.SYSTEM.CONST>
0

>  <SCORE.SYSTEM.DIHEDRAL>
0

>  <SCORE.SYSTEM.SOLV>
0

>  <SCORE.SYSTEM.norm>
0

>  <SCORE.heavy>
29

>  <SCORE.norm>
-1.69058

>  <RMSD>
0.977

$$$$
ligand
 OpenBabel11021811473D
libRbt.so/2013.1/901 2013/11/27
 29 31  0  0  0  0  0  0  0  0999 V2000
   28.8407   40.6556   16.4011 C   0  0  0  0  0  0  0  0  0  0  0  0
   29.7633   40.1551   15.4278 O   0  0  0  0  0  0  0  0  0  0  0  0
   28.6771   39.6291   17.5137 C   0  0  1  0  0  0  0  0  0  0  0  0
   27.9381   40.2252   18.5752 O   0  0  0  0  0  0  0  0  0  0  0  0
   27.9560   38.3906   16.9975 C   0  0  1  0  0  0  0  0  0  0  0  0
   28.8341   37.7429   16.0841 O   0  0  0  0  0  0  0  0  0  0  0  0
   27.5057   37.4054   18.0802 C   0  0  1  0  0  0  0  0  0  0  0  0
   26.8181   36.3240   17.4498 O   0  0  0  0  0  0  0  0  0  0  0  0
   28.6611   36.8245   18.8928 C   0  0  0  0  0  0  0  0  0  0  0  0
   28.4837   34.0712   18.2935 N   0  0  0  0  0  0  0  0  0  0  0  0
   28.4159   32.7482   17.9723 C   0  0  0  0  0  0  0  0  0  0  0  0
   28.7617   32.3524   16.8311 O   0  0  0  0  0  0  0  0  0  0  0  0
   27.9689   31.8439   18.8802 N   0  0  0  0  0  0  0  0  0  0  0  0
   27.5824   32.2351   20.1205 C   0  0  0  0  0  0  0  0  0  0  0  0
   27.6473   33.5811   20.4626 C   0  0  1  0  0  0  0  0  0  0  0  0
   27.1674   31.3948   20.9566 O   0  0  0  0  0  0  0  0  0  0  0  0
   27.3348   35.2859   22.0283 C   0  0  1  0  0  0  0  0  0  0  0  0
   27.2697   33.9801   21.6966 N   0  0  0  0  0  0  0  0  0  0  0  0
   26.9436   35.6879   23.3006 C   0  0  0  0  0  0  0  0  0  0  0  0
   27.0016   37.0263   23.6733 C   0  0  2  0  0  0  0  0  0  0  0  0
   26.5612   37.3924   25.0673 C   0  0  0  0  0  0  0  0  0  0  0  0
   27.4596   37.9827   22.7581 C   0  0  2  0  0  0  0  0  0  0  0  0
   27.5440   39.3150   23.0531 N   0  0  0  0  0  0  0  0  0  0  0  0
   27.8489   37.5630   21.4803 C   0  0  0  0  0  0  0  0  0  0  0  0
   27.7912   36.2221   21.1019 C   0  0  2  0  0  0  0  0  0  0  0  0
   28.1091   34.5137   19.5287 C   0  0  2  0  0  0  0  0  0  0  0  0
   28.1667   35.8285   19.8633 N   0  0  0  0  0  0  0  0  0  0  0  0
   26.5810   40.2396   22.4854 C   0  0  0  0  0  0  0  0  0  0  0  0
   28.5689   39.8605   23.9277 C   0  0  0  0  0  0  0  0  0  0  0  0
  1  2  1  0  0  0  0
  3  1  1  6  0  0  0
  3  4  1  0  0  0  0
  3  5  1  0  0  0  0
  5  6  1  6  0  0  0
  5  7  1  0  0  0  0
  7  8  1  6  0  0  0
  7  9  1  0  0  0  0
  9 27  1  0  0  0  0
 10 11  1  0  0  0  0
 11 12  2  0  0  0  0
 11 13  1  0  0  0  0
 13 14  1  0  0  0  0
 14 16  2  0  0  0  0
 15 14  1  1  0  0  0
 15 18  1  0  0  0  0
 15 26  1  0  0  0  0
 17 19  1  1  0  0  0
 17 25  1  0  0  0  0
 17 18  1  0  0  0  0
 19 20  1  0  0  0  0
 20 21  1  6  0  0  0
 20 22  1  0  0  0  0
 22 23  1  6  0  0  0
 22 24  1  0  0  0  0
 23 28  1  0  0  0  0
 23 29  1  0  0  0  0
 25 24  1  6  0  0  0
 25 27  1  0  0  0  0
 26 10  1  6  0  0  0
 26 27  1  0  0  0  0
M  END
>  <CHROM.1>
170.48441775,68.18568488,178.40438776,-176.76703446,-106.25038910,-89.32267623
27.88605623,36.49188436,19.87353269,-1.24330408,-1.35783247,-2.91859549

>  <Name>
ligand

>  <RI>
0

>  <Rbt.Current_Directory>
/home/itssahil/PROJECTS/Mol_Feturizer/New_Systems/rnas/3F4H

>  <Rbt.Executable>
rbdock ($Id: //depot/dev/client3/rdock/2013.1/src/exe/rbdock.cxx#4 $)

>  <Rbt.Library>
libRbt.so (2013.1, Build901 2013/11/27)

>  <Rbt.Parameter_File>
/export/apps/rDock/src/rDock_2013.1_src/data/scripts/dock_solv.prm

>  <Rbt.Receptor>
prm/pocket_docking_4.prm

>  <SCORE>
-49.0558

>  <SCORE.INTER>
-31.3528

>  <SCORE.INTER.CONST>
1

>  <SCORE.INTER.POLAR>
0

>  <SCORE.INTER.ROT>
6

>  <SCORE.INTER.SOLV>
10.9423

>  <SCORE.INTER.VDW>
-32.1493

>  <SCORE.INTER.norm>
-1.08113

>  <SCORE.INTRA>
-17.7081

>  <SCORE.INTRA.DIHEDRAL>
-4.15344

>  <SCORE.INTRA.DIHEDRAL.0>
6.83446

>  <SCORE.INTRA.POLAR>
0

>  <SCORE.INTRA.POLAR.0>
0

>  <SCORE.INTRA.REPUL>
0

>  <SCORE.INTRA.REPUL.0>
0

>  <SCORE.INTRA.SOLV>
-0.0853624

>  <SCORE.INTRA.SOLV.lig_0>
-26.4601

>  <SCORE.INTRA.VDW>
-15.5887

>  <SCORE.INTRA.VDW.0>
13.7853

>  <SCORE.INTRA.norm>
-0.610625

>  <SCORE.RESTR>
0.00516338

>  <SCORE.RESTR.CAVITY>
0.00516338

>  <SCORE.RESTR.norm>
0.000178047

>  <SCORE.SYSTEM>
0

>  <SCORE.SYSTEM.CONST>
0

>  <SCORE.SYSTEM.DIHEDRAL>
0

>  <SCORE.SYSTEM.SOLV>
0

>  <SCORE.SYSTEM.norm>
0

>  <SCORE.heavy>
29

>  <SCORE.norm>
-1.69158

>  <RMSD>
0.979

$$$$
ligand
 OpenBabel11021811473D
libRbt.so/2013.1/901 2013/11/27
 29 31  0  0  0  0  0  0  0  0999 V2000
   28.9060   40.6348   16.3384 C   0  0  0  0  0  0  0  0  0  0  0  0
   27.6256   41.1127   15.9128 O   0  0  0  0  0  0  0  0  0  0  0  0
   28.7198   39.6508   17.4852 C   0  0  1  0  0  0  0  0  0  0  0  0
   27.9958   40.2995   18.5260 O   0  0  0  0  0  0  0  0  0  0  0  0
   27.9698   38.4124   17.0116 C   0  0  1  0  0  0  0  0  0  0  0  0
   28.8234   37.7253   16.1040 O   0  0  0  0  0  0  0  0  0  0  0  0
   27.5170   37.4642   18.1259 C   0  0  1  0  0  0  0  0  0  0  0  0
   26.7574   36.4069   17.5389 O   0  0  0  0  0  0  0  0  0  0  0  0
   28.6752   36.8422   18.9034 C   0  0  0  0  0  0  0  0  0  0  0  0
   28.5034   34.0929   18.2846 N   0  0  0  0  0  0  0  0  0  0  0  0
   28.4386   32.7720   17.9541 C   0  0  0  0  0  0  0  0  0  0  0  0
   28.7894   32.3844   16.8116 O   0  0  0  0  0  0  0  0  0  0  0  0
   27.9890   31.8610   18.8540 N   0  0  0  0  0  0  0  0  0  0  0  0
   27.5971   32.2433   20.0954 C   0  0  0  0  0  0  0  0  0  0  0  0
   27.6590   33.5870   20.4470 C   0  0  1  0  0  0  0  0  0  0  0  0
   27.1797   31.3969   20.9241 O   0  0  0  0  0  0  0  0  0  0  0  0
   27.3382   35.2807   22.0230 C   0  0  1  0  0  0  0  0  0  0  0  0
   27.2760   33.9772   21.6821 N   0  0  0  0  0  0  0  0  0  0  0  0
   26.9414   35.6736   23.2964 C   0  0  0  0  0  0  0  0  0  0  0  0
   26.9963   37.0095   23.6784 C   0  0  2  0  0  0  0  0  0  0  0  0
   26.5498   37.3656   25.0731 C   0  0  0  0  0  0  0  0  0  0  0  0
   27.4568   37.9727   22.7716 C   0  0  2  0  0  0  0  0  0  0  0  0
   27.5384   39.3030   23.0760 N   0  0  0  0  0  0  0  0  0  0  0  0
   27.8517   37.5621   21.4926 C   0  0  0  0  0  0  0  0  0  0  0  0
   27.7971   36.2237   21.1047 C   0  0  2  0  0  0  0  0  0  0  0  0
   28.1234   34.5265   19.5212 C   0  0  2  0  0  0  0  0  0  0  0  0
   28.1781   35.8391   19.8650 N   0  0  0  0  0  0  0  0  0  0  0  0
   26.6129   40.2385   22.4654 C   0  0  0  0  0  0  0  0  0  0  0  0
   28.5237   39.8358   24.0024 C   0  0  0  0  0  0  0  0  0  0  0  0
  1  2  1  0  0  0  0
  3  1  1  6  0  0  0
  3  4  1  0  0  0  0
  3  5  1  0  0  0  0
  5  6  1  6  0  0  0
  5  7  1  0  0  0  0
  7  8  1  6  0  0  0
  7  9  1  0  0  0  0
  9 27  1  0  0  0  0
 10 11  1  0  0  0  0
 11 12  2  0  0  0  0
 11 13  1  0  0  0  0
 13 14  1  0  0  0  0
 14 16  2  0  0  0  0
 15 14  1  1  0  0  0
 15 18  1  0  0  0  0
 15 26  1  0  0  0  0
 17 19  1  1  0  0  0
 17 25  1  0  0  0  0
 17 18  1  0  0  0  0
 19 20  1  0  0  0  0
 20 21  1  6  0  0  0
 20 22  1  0  0  0  0
 22 23  1  6  0  0  0
 22 24  1  0  0  0  0
 23 28  1  0  0  0  0
 23 29  1  0  0  0  0
 25 24  1  6  0  0  0
 25 27  1  0  0  0  0
 26 10  1  6  0  0  0
 26 27  1  0  0  0  0
M  END
>  <CHROM.1>
-56.43902223,67.27155739,176.18469071,-174.20961884,-108.91924772,-87.25065317
27.80912549,36.53994256,19.89264280,-1.46038791,-1.41009767,-3.11733184

>  <Name>
ligand

>  <RI>
0

>  <Rbt.Current_Directory>
/home/itssahil/PROJECTS/Mol_Feturizer/New_Systems/rnas/3F4H

>  <Rbt.Executable>
rbdock ($Id: //depot/dev/client3/rdock/2013.1/src/exe/rbdock.cxx#4 $)

>  <Rbt.Library>
libRbt.so (2013.1, Build901 2013/11/27)

>  <Rbt.Parameter_File>
/export/apps/rDock/src/rDock_2013.1_src/data/scripts/dock_solv.prm

>  <Rbt.Receptor>
prm/blind_docking_80.prm

>  <SCORE>
-49.0804

>  <SCORE.INTER>
-31.4531

>  <SCORE.INTER.CONST>
1

>  <SCORE.INTER.POLAR>
0

>  <SCORE.INTER.ROT>
6

>  <SCORE.INTER.SOLV>
10.6978

>  <SCORE.INTER.VDW>
-32.1347

>  <SCORE.INTER.norm>
-1.08459

>  <SCORE.INTRA>
-17.6304

>  <SCORE.INTRA.DIHEDRAL>
-4.35621

>  <SCORE.INTRA.DIHEDRAL.0>
6.83446

>  <SCORE.INTRA.POLAR>
0

>  <SCORE.INTRA.POLAR.0>
0

>  <SCORE.INTRA.REPUL>
0

>  <SCORE.INTRA.REPUL.0>
0

>  <SCORE.INTRA.SOLV>
-0.0721894

>  <SCORE.INTRA.SOLV.lig_0>
-26.4601

>  <SCORE.INTRA.VDW>
-15.4162

>  <SCORE.INTRA.VDW.0>
13.7853

>  <SCORE.INTRA.norm>
-0.607944

>  <SCORE.RESTR>
0.00311954

>  <SCORE.RESTR.CAVITY>
0.00311954

>  <SCORE.RESTR.norm>
0.00010757

>  <SCORE.SYSTEM>
0

>  <SCORE.SYSTEM.CONST>
0

>  <SCORE.SYSTEM.DIHEDRAL>
0

>  <SCORE.SYSTEM.SOLV>
0

>  <SCORE.SYSTEM.norm>
0

>  <SCORE.heavy>
29

>  <SCORE.norm>
-1.69243

>  <RMSD>
0.980

$$$$
ligand
 OpenBabel11021811473D
libRbt.so/2013.1/901 2013/11/27
 29 31  0  0  0  0  0  0  0  0999 V2000
   28.8435   40.7016   16.4463 C   0  0  0  0  0  0  0  0  0  0  0  0
   29.7969   40.2223   15.4922 O   0  0  0  0  0  0  0  0  0  0  0  0
   28.6718   39.6663   17.5494 C   0  0  1  0  0  0  0  0  0  0  0  0
   27.8950   40.2426   18.5948 O   0  0  0  0  0  0  0  0  0  0  0  0
   27.9877   38.4170   17.0093 C   0  0  1  0  0  0  0  0  0  0  0  0
   28.9036   37.7868   16.1212 O   0  0  0  0  0  0  0  0  0  0  0  0
   27.5221   37.4215   18.0760 C   0  0  1  0  0  0  0  0  0  0  0  0
   26.8453   36.3453   17.4253 O   0  0  0  0  0  0  0  0  0  0  0  0
   28.6657   36.8342   18.9006 C   0  0  0  0  0  0  0  0  0  0  0  0
   28.5130   34.0767   18.3141 N   0  0  0  0  0  0  0  0  0  0  0  0
   28.4578   32.7515   17.9995 C   0  0  0  0  0  0  0  0  0  0  0  0
   28.8290   32.3505   16.8682 O   0  0  0  0  0  0  0  0  0  0  0  0
   27.9959   31.8505   18.9033 N   0  0  0  0  0  0  0  0  0  0  0  0
   27.5819   32.2473   20.1329 C   0  0  0  0  0  0  0  0  0  0  0  0
   27.6337   33.5955   20.4683 C   0  0  1  0  0  0  0  0  0  0  0  0
   27.1532   31.4101   20.9652 O   0  0  0  0  0  0  0  0  0  0  0  0
   27.2810   35.3081   22.0169 C   0  0  1  0  0  0  0  0  0  0  0  0
   27.2286   34.0001   21.6917 N   0  0  0  0  0  0  0  0  0  0  0  0
   26.8615   35.7158   23.2783 C   0  0  0  0  0  0  0  0  0  0  0  0
   26.9058   37.0567   23.6441 C   0  0  2  0  0  0  0  0  0  0  0  0
   26.4347   37.4289   25.0264 C   0  0  0  0  0  0  0  0  0  0  0  0
   27.3786   38.0097   22.7330 C   0  0  2  0  0  0  0  0  0  0  0  0
   27.4510   39.3441   23.0217 N   0  0  0  0  0  0  0  0  0  0  0  0
   27.7963   37.5842   21.4661 C   0  0  0  0  0  0  0  0  0  0  0  0
   27.7525   36.2408   21.0945 C   0  0  2  0  0  0  0  0  0  0  0  0
   28.1107   34.5247   19.5386 C   0  0  2  0  0  0  0  0  0  0  0  0
   28.1555   35.8417   19.8664 N   0  0  0  0  0  0  0  0  0  0  0  0
   28.4970   39.8343   23.8991 C   0  0  0  0  0  0  0  0  0  0  0  0
   26.5153   40.3150   22.4788 C   0  0  0  0  0  0  0  0  0  0  0  0
  1  2  1  0  0  0  0
  3  1  1  6  0  0  0
  3  4  1  0  0  0  0
  3  5  1  0  0  0  0
  5  6  1  6  0  0  0
  5  7  1  0  0  0  0
  7  8  1  6  0  0  0
  7  9  1  0  0  0  0
  9 27  1  0  0  0  0
 10 11  1  0  0  0  0
 11 12  2  0  0  0  0
 11 13  1  0  0  0  0
 13 14  1  0  0  0  0
 14 16  2  0  0  0  0
 15 14  1  1  0  0  0
 15 18  1  0  0  0  0
 15 26  1  0  0  0  0
 17 19  1  1  0  0  0
 17 25  1  0  0  0  0
 17 18  1  0  0  0  0
 19 20  1  0  0  0  0
 20 21  1  6  0  0  0
 20 22  1  0  0  0  0
 22 23  1  6  0  0  0
 22 24  1  0  0  0  0
 23 28  1  0  0  0  0
 23 29  1  0  0  0  0
 25 24  1  6  0  0  0
 25 27  1  0  0  0  0
 26 10  1  6  0  0  0
 26 27  1  0  0  0  0
M  END
>  <CHROM.1>
170.64116093,68.52223753,177.09158739,-177.50727565,74.87344825,-88.41317215
27.86896543,36.51452858,19.87837964,-1.29850504,-1.34041748,-2.96521549

>  <Name>
ligand

>  <RI>
0

>  <Rbt.Current_Directory>
/home/itssahil/PROJECTS/Mol_Feturizer/New_Systems/rnas/3F4H

>  <Rbt.Executable>
rbdock ($Id: //depot/dev/client3/rdock/2013.1/src/exe/rbdock.cxx#4 $)

>  <Rbt.Library>
libRbt.so (2013.1, Build901 2013/11/27)

>  <Rbt.Parameter_File>
/export/apps/rDock/src/rDock_2013.1_src/data/scripts/dock_solv.prm

>  <Rbt.Receptor>
prm/pocket_docking_4.prm

>  <SCORE>
-49.1797

>  <SCORE.INTER>
-31.4269

>  <SCORE.INTER.CONST>
1

>  <SCORE.INTER.POLAR>
0

>  <SCORE.INTER.ROT>
6

>  <SCORE.INTER.SOLV>
11.0404

>  <SCORE.INTER.VDW>
-32.2314

>  <SCORE.INTER.norm>
-1.08369

>  <SCORE.INTRA>
-17.7528

>  <SCORE.INTRA.DIHEDRAL>
-4.13623

>  <SCORE.INTRA.DIHEDRAL.0>
6.83446

>  <SCORE.INTRA.POLAR>
0

>  <SCORE.INTRA.POLAR.0>
0

>  <SCORE.INTRA.REPUL>
0

>  <SCORE.INTRA.REPUL.0>
0

>  <SCORE.INTRA.SOLV>
-0.090507

>  <SCORE.INTRA.SOLV.lig_0>
-26.4601

>  <SCORE.INTRA.VDW>
-15.6395

>  <SCORE.INTRA.VDW.0>
13.7853

>  <SCORE.INTRA.norm>
-0.612167

>  <SCORE.RESTR>
0

>  <SCORE.RESTR.CAVITY>
0

>  <SCORE.RESTR.norm>
0

>  <SCORE.SYSTEM>
0

>  <SCORE.SYSTEM.CONST>
0

>  <SCORE.SYSTEM.DIHEDRAL>
0

>  <SCORE.SYSTEM.SOLV>
0

>  <SCORE.SYSTEM.norm>
0

>  <SCORE.heavy>
29

>  <SCORE.norm>
-1.69585

>  <RMSD>
0.982

$$$$
ligand
 OpenBabel11021811473D
libRbt.so/2013.1/901 2013/11/27
 29 31  0  0  0  0  0  0  0  0999 V2000
   28.9533   40.6101   16.3433 C   0  0  0  0  0  0  0  0  0  0  0  0
   29.8441   41.6431   16.7772 O   0  0  0  0  0  0  0  0  0  0  0  0
   28.7354   39.6227   17.4816 C   0  0  1  0  0  0  0  0  0  0  0  0
   28.1157   40.3093   18.5647 O   0  0  0  0  0  0  0  0  0  0  0  0
   27.8630   38.4612   17.0233 C   0  0  1  0  0  0  0  0  0  0  0  0
   28.5887   37.7609   16.0195 O   0  0  0  0  0  0  0  0  0  0  0  0
   27.4363   37.4951   18.1324 C   0  0  1  0  0  0  0  0  0  0  0  0
   26.6493   36.4560   17.5488 O   0  0  0  0  0  0  0  0  0  0  0  0
   28.6122   36.8481   18.8613 C   0  0  0  0  0  0  0  0  0  0  0  0
   28.4818   34.0902   18.2711 N   0  0  0  0  0  0  0  0  0  0  0  0
   28.4366   32.7652   17.9543 C   0  0  0  0  0  0  0  0  0  0  0  0
   28.7892   32.3716   16.8144 O   0  0  0  0  0  0  0  0  0  0  0  0
   28.0049   31.8564   18.8651 N   0  0  0  0  0  0  0  0  0  0  0  0
   27.6116   32.2451   20.1041 C   0  0  0  0  0  0  0  0  0  0  0  0
   27.6535   33.5931   20.4418 C   0  0  1  0  0  0  0  0  0  0  0  0
   27.2109   31.4006   20.9430 O   0  0  0  0  0  0  0  0  0  0  0  0
   27.3118   35.2975   22.0018 C   0  0  1  0  0  0  0  0  0  0  0  0
   27.2690   33.9897   21.6744 N   0  0  0  0  0  0  0  0  0  0  0  0
   26.9136   35.6970   23.2727 C   0  0  0  0  0  0  0  0  0  0  0  0
   26.9487   37.0375   23.6409 C   0  0  2  0  0  0  0  0  0  0  0  0
   26.5019   37.4006   25.0337 C   0  0  0  0  0  0  0  0  0  0  0  0
   27.3905   37.9985   22.7227 C   0  0  2  0  0  0  0  0  0  0  0  0
   27.4522   39.3330   23.0132 N   0  0  0  0  0  0  0  0  0  0  0  0
   27.7871   37.5812   21.4463 C   0  0  0  0  0  0  0  0  0  0  0  0
   27.7523   36.2382   21.0723 C   0  0  2  0  0  0  0  0  0  0  0  0
   28.0995   34.5304   19.5048 C   0  0  2  0  0  0  0  0  0  0  0  0
   28.1346   35.8470   19.8350 N   0  0  0  0  0  0  0  0  0  0  0  0
   28.5028   39.8324   23.8800 C   0  0  0  0  0  0  0  0  0  0  0  0
   26.5004   40.2951   22.4828 C   0  0  0  0  0  0  0  0  0  0  0  0
  1  2  1  0  0  0  0
  3  1  1  6  0  0  0
  3  4  1  0  0  0  0
  3  5  1  0  0  0  0
  5  6  1  6  0  0  0
  5  7  1  0  0  0  0
  7  8  1  6  0  0  0
  7  9  1  0  0  0  0
  9 27  1  0  0  0  0
 10 11  1  0  0  0  0
 11 12  2  0  0  0  0
 11 13  1  0  0  0  0
 13 14  1  0  0  0  0
 14 16  2  0  0  0  0
 15 14  1  1  0  0  0
 15 18  1  0  0  0  0
 15 26  1  0  0  0  0
 17 19  1  1  0  0  0
 17 25  1  0  0  0  0
 17 18  1  0  0  0  0
 19 20  1  0  0  0  0
 20 21  1  6  0  0  0
 20 22  1  0  0  0  0
 22 23  1  6  0  0  0
 22 24  1  0  0  0  0
 23 28  1  0  0  0  0
 23 29  1  0  0  0  0
 25 24  1  6  0  0  0
 25 27  1  0  0  0  0
 26 10  1  6  0  0  0
 26 27  1  0  0  0  0
M  END
>  <CHROM.1>
62.52718399,64.49911277,-179.01813513,-175.19148378,74.30883371,-84.36176340
27.86362326,36.57454386,19.91016765,-1.26159290,-1.34974894,-2.89262971

>  <Name>
ligand

>  <RI>
0

>  <Rbt.Current_Directory>
/home/itssahil/PROJECTS/Mol_Feturizer/New_Systems/rnas/3F4H

>  <Rbt.Executable>
rbdock ($Id: //depot/dev/client3/rdock/2013.1/src/exe/rbdock.cxx#4 $)

>  <Rbt.Library>
libRbt.so (2013.1, Build901 2013/11/27)

>  <Rbt.Parameter_File>
/export/apps/rDock/src/rDock_2013.1_src/data/scripts/dock_solv.prm

>  <Rbt.Receptor>
prm/pocket_docking_8.prm

>  <SCORE>
-49.36

>  <SCORE.INTER>
-31.288

>  <SCORE.INTER.CONST>
1

>  <SCORE.INTER.POLAR>
0

>  <SCORE.INTER.ROT>
6

>  <SCORE.INTER.SOLV>
11.5539

>  <SCORE.INTER.VDW>
-32.31

>  <SCORE.INTER.norm>
-1.0789

>  <SCORE.INTRA>
-18.072

>  <SCORE.INTRA.DIHEDRAL>
-4.58936

>  <SCORE.INTRA.DIHEDRAL.0>
6.83446

>  <SCORE.INTRA.POLAR>
0

>  <SCORE.INTRA.POLAR.0>
0

>  <SCORE.INTRA.REPUL>
0

>  <SCORE.INTRA.REPUL.0>
0

>  <SCORE.INTRA.SOLV>
-0.427805

>  <SCORE.INTRA.SOLV.lig_0>
-26.4601

>  <SCORE.INTRA.VDW>
-15.5634

>  <SCORE.INTRA.VDW.0>
13.7853

>  <SCORE.INTRA.norm>
-0.623172

>  <SCORE.RESTR>
0

>  <SCORE.RESTR.CAVITY>
0

>  <SCORE.RESTR.norm>
0

>  <SCORE.SYSTEM>
0

>  <SCORE.SYSTEM.CONST>
0

>  <SCORE.SYSTEM.DIHEDRAL>
0

>  <SCORE.SYSTEM.SOLV>
0

>  <SCORE.SYSTEM.norm>
0

>  <SCORE.heavy>
29

>  <SCORE.norm>
-1.70207

>  <RMSD>
0.982

$$$$
ligand
 OpenBabel11021811473D
libRbt.so/2013.1/901 2013/11/27
 29 31  0  0  0  0  0  0  0  0999 V2000
   28.8472   40.6745   16.3987 C   0  0  0  0  0  0  0  0  0  0  0  0
   29.7201   40.1626   15.3864 O   0  0  0  0  0  0  0  0  0  0  0  0
   28.7097   39.6452   17.5121 C   0  0  1  0  0  0  0  0  0  0  0  0
   28.0331   40.2515   18.6089 O   0  0  0  0  0  0  0  0  0  0  0  0
   27.9375   38.4268   17.0225 C   0  0  1  0  0  0  0  0  0  0  0  0
   28.7690   37.7503   16.0867 O   0  0  0  0  0  0  0  0  0  0  0  0
   27.4901   37.4592   18.1220 C   0  0  1  0  0  0  0  0  0  0  0  0
   26.7531   36.3962   17.5164 O   0  0  0  0  0  0  0  0  0  0  0  0
   28.6510   36.8474   18.9035 C   0  0  0  0  0  0  0  0  0  0  0  0
   28.4973   34.0937   18.2996 N   0  0  0  0  0  0  0  0  0  0  0  0
   28.4411   32.7706   17.9763 C   0  0  0  0  0  0  0  0  0  0  0  0
   28.7961   32.3789   16.8366 O   0  0  0  0  0  0  0  0  0  0  0  0
   27.9958   31.8618   18.8806 N   0  0  0  0  0  0  0  0  0  0  0  0
   27.5995   32.2486   20.1192 C   0  0  0  0  0  0  0  0  0  0  0  0
   27.6526   33.5945   20.4635 C   0  0  1  0  0  0  0  0  0  0  0  0
   27.1861   31.4041   20.9520 O   0  0  0  0  0  0  0  0  0  0  0  0
   27.3188   35.2948   22.0296 C   0  0  1  0  0  0  0  0  0  0  0  0
   27.2652   33.9891   21.6958 N   0  0  0  0  0  0  0  0  0  0  0  0
   26.9175   35.6923   23.3002 C   0  0  0  0  0  0  0  0  0  0  0  0
   26.9636   37.0306   23.6749 C   0  0  2  0  0  0  0  0  0  0  0  0
   26.5127   37.3915   25.0670 C   0  0  0  0  0  0  0  0  0  0  0  0
   27.4195   37.9916   22.7636 C   0  0  2  0  0  0  0  0  0  0  0  0
   27.4924   39.3241   23.0607 N   0  0  0  0  0  0  0  0  0  0  0  0
   27.8190   37.5764   21.4874 C   0  0  0  0  0  0  0  0  0  0  0  0
   27.7733   36.2356   21.1069 C   0  0  2  0  0  0  0  0  0  0  0  0
   28.1126   34.5318   19.5333 C   0  0  2  0  0  0  0  0  0  0  0  0
   28.1586   35.8465   19.8699 N   0  0  0  0  0  0  0  0  0  0  0  0
   28.5639   39.8146   23.9067 C   0  0  0  0  0  0  0  0  0  0  0  0
   26.5325   40.2927   22.5574 C   0  0  0  0  0  0  0  0  0  0  0  0
  1  2  1  0  0  0  0
  3  1  1  6  0  0  0
  3  4  1  0  0  0  0
  3  5  1  0  0  0  0
  5  6  1  6  0  0  0
  5  7  1  0  0  0  0
  7  8  1  6  0  0  0
  7  9  1  0  0  0  0
  9 27  1  0  0  0  0
 10 11  1  0  0  0  0
 11 12  2  0  0  0  0
 11 13  1  0  0  0  0
 13 14  1  0  0  0  0
 14 16  2  0  0  0  0
 15 14  1  1  0  0  0
 15 18  1  0  0  0  0
 15 26  1  0  0  0  0
 17 19  1  1  0  0  0
 17 25  1  0  0  0  0
 17 18  1  0  0  0  0
 19 20  1  0  0  0  0
 20 21  1  6  0  0  0
 20 22  1  0  0  0  0
 22 23  1  6  0  0  0
 22 24  1  0  0  0  0
 23 28  1  0  0  0  0
 23 29  1  0  0  0  0
 25 24  1  6  0  0  0
 25 27  1  0  0  0  0
 26 10  1  6  0  0  0
 26 27  1  0  0  0  0
M  END
>  <CHROM.1>
170.11163458,69.30528163,178.42682046,-175.42509545,75.93591992,-87.17998430
27.87666053,36.50937995,19.88192039,-1.25059876,-1.35414107,-2.94438096

>  <Name>
ligand

>  <RI>
0

>  <Rbt.Current_Directory>
/home/itssahil/PROJECTS/Mol_Feturizer/New_Systems/rnas/3F4H

>  <Rbt.Executable>
rbdock ($Id: //depot/dev/client3/rdock/2013.1/src/exe/rbdock.cxx#4 $)

>  <Rbt.Library>
libRbt.so (2013.1, Build901 2013/11/27)

>  <Rbt.Parameter_File>
/export/apps/rDock/src/rDock_2013.1_src/data/scripts/dock_solv.prm

>  <Rbt.Receptor>
prm/pocket_docking_3.prm

>  <SCORE>
-49.1352

>  <SCORE.INTER>
-31.3868

>  <SCORE.INTER.CONST>
1

>  <SCORE.INTER.POLAR>
0

>  <SCORE.INTER.ROT>
6

>  <SCORE.INTER.SOLV>
11.1332

>  <SCORE.INTER.VDW>
-32.2356

>  <SCORE.INTER.norm>
-1.0823

>  <SCORE.INTRA>
-17.7484

>  <SCORE.INTRA.DIHEDRAL>
-4.02174

>  <SCORE.INTRA.DIHEDRAL.0>
6.83446

>  <SCORE.INTRA.POLAR>
0

>  <SCORE.INTRA.POLAR.0>
0

>  <SCORE.INTRA.REPUL>
0

>  <SCORE.INTRA.REPUL.0>
0

>  <SCORE.INTRA.SOLV>
-0.102082

>  <SCORE.INTRA.SOLV.lig_0>
-26.4601

>  <SCORE.INTRA.VDW>
-15.6865

>  <SCORE.INTRA.VDW.0>
13.7853

>  <SCORE.INTRA.norm>
-0.612014

>  <SCORE.RESTR>
0

>  <SCORE.RESTR.CAVITY>
0

>  <SCORE.RESTR.norm>
0

>  <SCORE.SYSTEM>
0

>  <SCORE.SYSTEM.CONST>
0

>  <SCORE.SYSTEM.DIHEDRAL>
0

>  <SCORE.SYSTEM.SOLV>
0

>  <SCORE.SYSTEM.norm>
0

>  <SCORE.heavy>
29

>  <SCORE.norm>
-1.69432

>  <RMSD>
0.983

$$$$
ligand
 OpenBabel11021811473D
libRbt.so/2013.1/901 2013/11/27
 29 31  0  0  0  0  0  0  0  0999 V2000
   29.0548   40.4445   16.1329 C   0  0  0  0  0  0  0  0  0  0  0  0
   29.8469   41.5632   16.5452 O   0  0  0  0  0  0  0  0  0  0  0  0
   28.8003   39.5396   17.3307 C   0  0  1  0  0  0  0  0  0  0  0  0
   28.0843   40.2802   18.3142 O   0  0  0  0  0  0  0  0  0  0  0  0
   28.0056   38.3091   16.9127 C   0  0  1  0  0  0  0  0  0  0  0  0
   28.8240   37.5638   16.0186 O   0  0  0  0  0  0  0  0  0  0  0  0
   27.5409   37.4159   18.0668 C   0  0  1  0  0  0  0  0  0  0  0  0
   26.7935   36.3271   17.5231 O   0  0  0  0  0  0  0  0  0  0  0  0
   28.6904   36.8388   18.8903 C   0  0  0  0  0  0  0  0  0  0  0  0
   28.5202   34.0845   18.2932 N   0  0  0  0  0  0  0  0  0  0  0  0
   28.4561   32.7611   17.9732 C   0  0  0  0  0  0  0  0  0  0  0  0
   28.8109   32.3641   16.8352 O   0  0  0  0  0  0  0  0  0  0  0  0
   28.0031   31.8575   18.8789 N   0  0  0  0  0  0  0  0  0  0  0  0
   27.6069   32.2499   20.1157 C   0  0  0  0  0  0  0  0  0  0  0  0
   27.6679   33.5963   20.4566 C   0  0  1  0  0  0  0  0  0  0  0  0
   27.1864   31.4103   20.9498 O   0  0  0  0  0  0  0  0  0  0  0  0
   27.3420   35.3029   22.0177 C   0  0  1  0  0  0  0  0  0  0  0  0
   27.2807   33.9966   21.6872 N   0  0  0  0  0  0  0  0  0  0  0  0
   26.9408   35.7062   23.2865 C   0  0  0  0  0  0  0  0  0  0  0  0
   26.9947   37.0451   23.6579 C   0  0  2  0  0  0  0  0  0  0  0  0
   26.5434   37.4125   25.0481 C   0  0  0  0  0  0  0  0  0  0  0  0
   27.4587   38.0008   22.7450 C   0  0  2  0  0  0  0  0  0  0  0  0
   27.5395   39.3335   23.0389 N   0  0  0  0  0  0  0  0  0  0  0  0
   27.8579   37.5798   21.4707 C   0  0  0  0  0  0  0  0  0  0  0  0
   27.8044   36.2383   21.0935 C   0  0  2  0  0  0  0  0  0  0  0  0
   28.1359   34.5283   19.5250 C   0  0  2  0  0  0  0  0  0  0  0  0
   28.1896   35.8435   19.8583 N   0  0  0  0  0  0  0  0  0  0  0  0
   26.5651   40.2530   22.4825 C   0  0  0  0  0  0  0  0  0  0  0  0
   28.5717   39.8845   23.9013 C   0  0  0  0  0  0  0  0  0  0  0  0
  1  2  1  0  0  0  0
  3  1  1  6  0  0  0
  3  4  1  0  0  0  0
  3  5  1  0  0  0  0
  5  6  1  6  0  0  0
  5  7  1  0  0  0  0
  7  8  1  6  0  0  0
  7  9  1  0  0  0  0
  9 27  1  0  0  0  0
 10 11  1  0  0  0  0
 11 12  2  0  0  0  0
 11 13  1  0  0  0  0
 13 14  1  0  0  0  0
 14 16  2  0  0  0  0
 15 14  1  1  0  0  0
 15 18  1  0  0  0  0
 15 26  1  0  0  0  0
 17 19  1  1  0  0  0
 17 25  1  0  0  0  0
 17 18  1  0  0  0  0
 19 20  1  0  0  0  0
 20 21  1  6  0  0  0
 20 22  1  0  0  0  0
 22 23  1  6  0  0  0
 22 24  1  0  0  0  0
 23 28  1  0  0  0  0
 23 29  1  0  0  0  0
 25 24  1  6  0  0  0
 25 27  1  0  0  0  0
 26 10  1  6  0  0  0
 26 27  1  0  0  0  0
M  END
>  <CHROM.1>
61.11882883,64.64954565,178.89650188,-171.99132000,-105.11637896,-89.41281891
27.91831106,36.54227376,19.88395601,-1.18772486,-1.34606926,-2.87142607

>  <Name>
ligand

>  <RI>
0

>  <Rbt.Current_Directory>
/home/itssahil/PROJECTS/Mol_Feturizer/New_Systems/rnas/3F4H

>  <Rbt.Executable>
rbdock ($Id: //depot/dev/client3/rdock/2013.1/src/exe/rbdock.cxx#4 $)

>  <Rbt.Library>
libRbt.so (2013.1, Build901 2013/11/27)

>  <Rbt.Parameter_File>
/export/apps/rDock/src/rDock_2013.1_src/data/scripts/dock_solv.prm

>  <Rbt.Receptor>
prm/blind_docking_60.prm

>  <SCORE>
-49.4287

>  <SCORE.INTER>
-31.4374

>  <SCORE.INTER.CONST>
1

>  <SCORE.INTER.POLAR>
0

>  <SCORE.INTER.ROT>
6

>  <SCORE.INTER.SOLV>
11.3368

>  <SCORE.INTER.VDW>
-32.3372

>  <SCORE.INTER.norm>
-1.08405

>  <SCORE.INTRA>
-17.9913

>  <SCORE.INTRA.DIHEDRAL>
-4.45281

>  <SCORE.INTRA.DIHEDRAL.0>
6.83446

>  <SCORE.INTRA.POLAR>
0

>  <SCORE.INTRA.POLAR.0>
0

>  <SCORE.INTRA.REPUL>
0

>  <SCORE.INTRA.REPUL.0>
0

>  <SCORE.INTRA.SOLV>
-0.430855

>  <SCORE.INTRA.SOLV.lig_0>
-26.4601

>  <SCORE.INTRA.VDW>
-15.5495

>  <SCORE.INTRA.VDW.0>
13.7853

>  <SCORE.INTRA.norm>
-0.62039

>  <SCORE.RESTR>
0

>  <SCORE.RESTR.CAVITY>
0

>  <SCORE.RESTR.norm>
0

>  <SCORE.SYSTEM>
0

>  <SCORE.SYSTEM.CONST>
0

>  <SCORE.SYSTEM.DIHEDRAL>
0

>  <SCORE.SYSTEM.SOLV>
0

>  <SCORE.SYSTEM.norm>
0

>  <SCORE.heavy>
29

>  <SCORE.norm>
-1.70444

>  <RMSD>
0.984

$$$$
ligand
 OpenBabel11021811473D
libRbt.so/2013.1/901 2013/11/27
 29 31  0  0  0  0  0  0  0  0999 V2000
   29.1484   40.5065   16.3079 C   0  0  0  0  0  0  0  0  0  0  0  0
   27.9441   41.1371   15.8595 O   0  0  0  0  0  0  0  0  0  0  0  0
   28.8272   39.5788   17.4716 C   0  0  1  0  0  0  0  0  0  0  0  0
   28.1006   40.3148   18.4507 O   0  0  0  0  0  0  0  0  0  0  0  0
   28.0111   38.3843   16.9945 C   0  0  1  0  0  0  0  0  0  0  0  0
   28.8120   37.6760   16.0557 O   0  0  0  0  0  0  0  0  0  0  0  0
   27.5409   37.4375   18.1027 C   0  0  1  0  0  0  0  0  0  0  0  0
   26.7816   36.3852   17.5062 O   0  0  0  0  0  0  0  0  0  0  0  0
   28.6870   36.8079   18.8920 C   0  0  0  0  0  0  0  0  0  0  0  0
   28.4863   34.0552   18.2975 N   0  0  0  0  0  0  0  0  0  0  0  0
   28.4078   32.7322   17.9789 C   0  0  0  0  0  0  0  0  0  0  0  0
   28.7610   32.3298   16.8423 O   0  0  0  0  0  0  0  0  0  0  0  0
   27.9420   31.8349   18.8843 N   0  0  0  0  0  0  0  0  0  0  0  0
   27.5470   32.2334   20.1197 C   0  0  0  0  0  0  0  0  0  0  0  0
   27.6227   33.5794   20.4592 C   0  0  1  0  0  0  0  0  0  0  0  0
   27.1146   31.3997   20.9536 O   0  0  0  0  0  0  0  0  0  0  0  0
   27.3124   35.2915   22.0174 C   0  0  1  0  0  0  0  0  0  0  0  0
   27.2368   33.9856   21.6883 N   0  0  0  0  0  0  0  0  0  0  0  0
   26.9125   35.7009   23.2847 C   0  0  0  0  0  0  0  0  0  0  0  0
   26.9810   37.0395   23.6547 C   0  0  2  0  0  0  0  0  0  0  0  0
   26.5302   37.4138   25.0433 C   0  0  0  0  0  0  0  0  0  0  0  0
   27.4585   37.9887   22.7419 C   0  0  2  0  0  0  0  0  0  0  0  0
   27.5540   39.3207   23.0345 N   0  0  0  0  0  0  0  0  0  0  0  0
   27.8562   37.5616   21.4692 C   0  0  0  0  0  0  0  0  0  0  0  0
   27.7881   36.2204   21.0934 C   0  0  2  0  0  0  0  0  0  0  0  0
   28.1039   34.5048   19.5277 C   0  0  2  0  0  0  0  0  0  0  0  0
   28.1721   35.8197   19.8597 N   0  0  0  0  0  0  0  0  0  0  0  0
   26.6047   40.2536   22.4573 C   0  0  0  0  0  0  0  0  0  0  0  0
   28.5776   39.8580   23.9157 C   0  0  0  0  0  0  0  0  0  0  0  0
  1  2  1  0  0  0  0
  3  1  1  6  0  0  0
  3  4  1  0  0  0  0
  3  5  1  0  0  0  0
  5  6  1  6  0  0  0
  5  7  1  0  0  0  0
  7  8  1  6  0  0  0
  7  9  1  0  0  0  0
  9 27  1  0  0  0  0
 10 11  1  0  0  0  0
 11 12  2  0  0  0  0
 11 13  1  0  0  0  0
 13 14  1  0  0  0  0
 14 16  2  0  0  0  0
 15 14  1  1  0  0  0
 15 18  1  0  0  0  0
 15 26  1  0  0  0  0
 17 19  1  1  0  0  0
 17 25  1  0  0  0  0
 17 18  1  0  0  0  0
 19 20  1  0  0  0  0
 20 21  1  6  0  0  0
 20 22  1  0  0  0  0
 22 23  1  6  0  0  0
 22 24  1  0  0  0  0
 23 28  1  0  0  0  0
 23 29  1  0  0  0  0
 25 24  1  6  0  0  0
 25 27  1  0  0  0  0
 26 10  1  6  0  0  0
 26 27  1  0  0  0  0
M  END
>  <CHROM.1>
-52.34309341,61.73394000,179.30952706,-174.97360210,-106.10200023,-87.18487863
27.82885842,36.52798732,19.87765222,-1.32823782,-1.39362172,-3.01056284

>  <Name>
ligand

>  <RI>
0

>  <Rbt.Current_Directory>
/home/itssahil/PROJECTS/Mol_Feturizer/New_Systems/rnas/3F4H

>  <Rbt.Executable>
rbdock ($Id: //depot/dev/client3/rdock/2013.1/src/exe/rbdock.cxx#4 $)

>  <Rbt.Library>
libRbt.so (2013.1, Build901 2013/11/27)

>  <Rbt.Parameter_File>
/export/apps/rDock/src/rDock_2013.1_src/data/scripts/dock_solv.prm

>  <Rbt.Receptor>
prm/blind_docking_80.prm

>  <SCORE>
-48.8379

>  <SCORE.INTER>
-31.1259

>  <SCORE.INTER.CONST>
1

>  <SCORE.INTER.POLAR>
0

>  <SCORE.INTER.ROT>
6

>  <SCORE.INTER.SOLV>
10.7275

>  <SCORE.INTER.VDW>
-31.9264

>  <SCORE.INTER.norm>
-1.07331

>  <SCORE.INTRA>
-17.7123

>  <SCORE.INTRA.DIHEDRAL>
-4.46078

>  <SCORE.INTRA.DIHEDRAL.0>
6.83446

>  <SCORE.INTRA.POLAR>
0

>  <SCORE.INTRA.POLAR.0>
0

>  <SCORE.INTRA.REPUL>
0

>  <SCORE.INTRA.REPUL.0>
0

>  <SCORE.INTRA.SOLV>
-0.100812

>  <SCORE.INTRA.SOLV.lig_0>
-26.4601

>  <SCORE.INTRA.VDW>
-15.4315

>  <SCORE.INTRA.VDW.0>
13.7853

>  <SCORE.INTRA.norm>
-0.61077

>  <SCORE.RESTR>
0.000303289

>  <SCORE.RESTR.CAVITY>
0.000303289

>  <SCORE.RESTR.norm>
1.04582e-05

>  <SCORE.SYSTEM>
0

>  <SCORE.SYSTEM.CONST>
0

>  <SCORE.SYSTEM.DIHEDRAL>
0

>  <SCORE.SYSTEM.SOLV>
0

>  <SCORE.SYSTEM.norm>
0

>  <SCORE.heavy>
29

>  <SCORE.norm>
-1.68407

>  <RMSD>
0.984

$$$$
ligand
 OpenBabel11021811473D
libRbt.so/2013.1/901 2013/11/27
 29 31  0  0  0  0  0  0  0  0999 V2000
   29.0547   40.3218   17.1907 C   0  0  0  0  0  0  0  0  0  0  0  0
   29.9541   40.5054   16.0924 O   0  0  0  0  0  0  0  0  0  0  0  0
   27.6760   39.9585   16.6566 C   0  0  1  0  0  0  0  0  0  0  0  0
   27.4108   40.7561   15.5069 O   0  0  0  0  0  0  0  0  0  0  0  0
   27.6130   38.4789   16.2998 C   0  0  1  0  0  0  0  0  0  0  0  0
   28.8595   38.1364   15.7052 O   0  0  0  0  0  0  0  0  0  0  0  0
   27.3171   37.5418   17.4745 C   0  0  1  0  0  0  0  0  0  0  0  0
   26.7032   36.3575   16.9645 O   0  0  0  0  0  0  0  0  0  0  0  0
   28.5643   37.1322   18.2551 C   0  0  0  0  0  0  0  0  0  0  0  0
   28.4241   34.3591   17.7434 N   0  0  0  0  0  0  0  0  0  0  0  0
   28.3702   33.0263   17.4625 C   0  0  0  0  0  0  0  0  0  0  0  0
   28.5955   32.6123   16.2979 O   0  0  0  0  0  0  0  0  0  0  0  0
   28.0671   32.1316   18.4370 N   0  0  0  0  0  0  0  0  0  0  0  0
   27.8131   32.5423   19.7049 C   0  0  0  0  0  0  0  0  0  0  0  0
   27.8657   33.8985   20.0064 C   0  0  1  0  0  0  0  0  0  0  0  0
   27.5309   31.7108   20.6029 O   0  0  0  0  0  0  0  0  0  0  0  0
   27.6726   35.6329   21.5588 C   0  0  1  0  0  0  0  0  0  0  0  0
   27.6195   34.3171   21.2668 N   0  0  0  0  0  0  0  0  0  0  0  0
   27.4172   36.0551   22.8588 C   0  0  0  0  0  0  0  0  0  0  0  0
   27.4669   37.4043   23.1916 C   0  0  2  0  0  0  0  0  0  0  0  0
   27.1782   37.7920   24.6191 C   0  0  0  0  0  0  0  0  0  0  0  0
   27.7780   38.3512   22.2075 C   0  0  2  0  0  0  0  0  0  0  0  0
   27.8450   39.6931   22.4602 N   0  0  0  0  0  0  0  0  0  0  0  0
   28.0315   37.9111   20.9026 C   0  0  0  0  0  0  0  0  0  0  0  0
   27.9816   36.5592   20.5641 C   0  0  2  0  0  0  0  0  0  0  0  0
   28.1793   34.8213   19.0037 C   0  0  2  0  0  0  0  0  0  0  0  0
   28.2250   36.1459   19.2993 N   0  0  0  0  0  0  0  0  0  0  0  0
   29.0467   40.2552   23.0470 C   0  0  0  0  0  0  0  0  0  0  0  0
   26.7514   40.6024   22.1602 C   0  0  0  0  0  0  0  0  0  0  0  0
  1  2  1  0  0  0  0
  3  1  1  6  0  0  0
  3  4  1  0  0  0  0
  3  5  1  0  0  0  0
  5  6  1  1  0  0  0
  5  7  1  0  0  0  0
  7  8  1  6  0  0  0
  7  9  1  0  0  0  0
  9 27  1  0  0  0  0
 10 11  1  0  0  0  0
 11 12  2  0  0  0  0
 11 13  1  0  0  0  0
 13 14  1  0  0  0  0
 14 16  2  0  0  0  0
 15 14  1  1  0  0  0
 15 18  1  0  0  0  0
 15 26  1  0  0  0  0
 17 19  1  1  0  0  0
 17 25  1  0  0  0  0
 17 18  1  0  0  0  0
 19 20  1  0  0  0  0
 20 21  1  6  0  0  0
 20 22  1  0  0  0  0
 22 23  1  6  0  0  0
 22 24  1  0  0  0  0
 23 28  1  0  0  0  0
 23 29  1  0  0  0  0
 25 24  1  6  0  0  0
 25 27  1  0  0  0  0
 26 10  1  6  0  0  0
 26 27  1  0  0  0  0
M  END
>  <CHROM.1>
-40.60489226,-39.21098758,154.06906053,-175.33649289,81.45807236,-95.15852099
27.97856904,36.78615565,19.33852711,-1.26329114,-1.46558573,-2.87798046

>  <Name>
ligand

>  <RI>
0

>  <Rbt.Current_Directory>
/home/itssahil/PROJECTS/Mol_Feturizer/New_Systems/rnas/3F4H

>  <Rbt.Executable>
rbdock ($Id: //depot/dev/client3/rdock/2013.1/src/exe/rbdock.cxx#4 $)

>  <Rbt.Library>
libRbt.so (2013.1, Build901 2013/11/27)

>  <Rbt.Parameter_File>
/export/apps/rDock/src/rDock_2013.1_src/data/scripts/dock_solv.prm

>  <Rbt.Receptor>
prm/pocket_docking_2.prm

>  <SCORE>
-41.205

>  <SCORE.INTER>
-27.4676

>  <SCORE.INTER.CONST>
1

>  <SCORE.INTER.POLAR>
0

>  <SCORE.INTER.ROT>
6

>  <SCORE.INTER.SOLV>
10.6775

>  <SCORE.INTER.VDW>
-29.4709

>  <SCORE.INTER.norm>
-0.947157

>  <SCORE.INTRA>
-13.9047

>  <SCORE.INTRA.DIHEDRAL>
0.13053

>  <SCORE.INTRA.DIHEDRAL.0>
6.83446

>  <SCORE.INTRA.POLAR>
0

>  <SCORE.INTRA.POLAR.0>
0

>  <SCORE.INTRA.REPUL>
0

>  <SCORE.INTRA.REPUL.0>
0

>  <SCORE.INTRA.SOLV>
0.106432

>  <SCORE.INTRA.SOLV.lig_0>
-26.4601

>  <SCORE.INTRA.VDW>
-14.0232

>  <SCORE.INTRA.VDW.0>
13.7853

>  <SCORE.INTRA.norm>
-0.479472

>  <SCORE.RESTR>
0.167245

>  <SCORE.RESTR.CAVITY>
0.167245

>  <SCORE.RESTR.norm>
0.00576706

>  <SCORE.SYSTEM>
0

>  <SCORE.SYSTEM.CONST>
0

>  <SCORE.SYSTEM.DIHEDRAL>
0

>  <SCORE.SYSTEM.SOLV>
0

>  <SCORE.SYSTEM.norm>
0

>  <SCORE.heavy>
29

>  <SCORE.norm>
-1.42086

>  <RMSD>
0.984

$$$$
ligand
 OpenBabel11021811473D
libRbt.so/2013.1/901 2013/11/27
 29 31  0  0  0  0  0  0  0  0999 V2000
   28.8744   40.6660   16.4372 C   0  0  0  0  0  0  0  0  0  0  0  0
   29.8420   40.1893   15.4962 O   0  0  0  0  0  0  0  0  0  0  0  0
   28.6868   39.6282   17.5353 C   0  0  1  0  0  0  0  0  0  0  0  0
   27.9008   40.2043   18.5739 O   0  0  0  0  0  0  0  0  0  0  0  0
   28.0041   38.3830   16.9842 C   0  0  1  0  0  0  0  0  0  0  0  0
   28.9208   37.7616   16.0907 O   0  0  0  0  0  0  0  0  0  0  0  0
   27.5394   37.3777   18.0419 C   0  0  1  0  0  0  0  0  0  0  0  0
   26.8922   36.2908   17.3792 O   0  0  0  0  0  0  0  0  0  0  0  0
   28.6800   36.8094   18.8839 C   0  0  0  0  0  0  0  0  0  0  0  0
   28.5129   34.0485   18.3173 N   0  0  0  0  0  0  0  0  0  0  0  0
   28.4508   32.7215   18.0122 C   0  0  0  0  0  0  0  0  0  0  0  0
   28.8165   32.3109   16.8825 O   0  0  0  0  0  0  0  0  0  0  0  0
   27.9879   31.8289   18.9238 N   0  0  0  0  0  0  0  0  0  0  0  0
   27.5796   32.2362   20.1519 C   0  0  0  0  0  0  0  0  0  0  0  0
   27.6386   33.5865   20.4776 C   0  0  1  0  0  0  0  0  0  0  0  0
   27.1500   31.4068   20.9915 O   0  0  0  0  0  0  0  0  0  0  0  0
   27.2987   35.3114   22.0153 C   0  0  1  0  0  0  0  0  0  0  0  0
   27.2394   34.0015   21.6995 N   0  0  0  0  0  0  0  0  0  0  0  0
   26.8852   35.7299   23.2752 C   0  0  0  0  0  0  0  0  0  0  0  0
   26.9367   37.0731   23.6314 C   0  0  2  0  0  0  0  0  0  0  0  0
   26.4718   37.4571   25.0126 C   0  0  0  0  0  0  0  0  0  0  0  0
   27.4108   38.0176   22.7121 C   0  0  2  0  0  0  0  0  0  0  0  0
   27.4900   39.3536   22.9911 N   0  0  0  0  0  0  0  0  0  0  0  0
   27.8224   37.5813   21.4469 C   0  0  0  0  0  0  0  0  0  0  0  0
   27.7713   36.2356   21.0849 C   0  0  2  0  0  0  0  0  0  0  0  0
   28.1168   34.5070   19.5399 C   0  0  2  0  0  0  0  0  0  0  0  0
   28.1685   35.8260   19.8583 N   0  0  0  0  0  0  0  0  0  0  0  0
   26.5485   40.2728   22.3804 C   0  0  0  0  0  0  0  0  0  0  0  0
   28.4884   39.9083   23.8903 C   0  0  0  0  0  0  0  0  0  0  0  0
  1  2  1  0  0  0  0
  3  1  1  6  0  0  0
  3  4  1  0  0  0  0
  3  5  1  0  0  0  0
  5  6  1  6  0  0  0
  5  7  1  0  0  0  0
  7  8  1  6  0  0  0
  7  9  1  0  0  0  0
  9 27  1  0  0  0  0
 10 11  1  0  0  0  0
 11 12  2  0  0  0  0
 11 13  1  0  0  0  0
 13 14  1  0  0  0  0
 14 16  2  0  0  0  0
 15 14  1  1  0  0  0
 15 18  1  0  0  0  0
 15 26  1  0  0  0  0
 17 19  1  1  0  0  0
 17 25  1  0  0  0  0
 17 18  1  0  0  0  0
 19 20  1  0  0  0  0
 20 21  1  6  0  0  0
 20 22  1  0  0  0  0
 22 23  1  6  0  0  0
 22 24  1  0  0  0  0
 23 28  1  0  0  0  0
 23 29  1  0  0  0  0
 25 24  1  6  0  0  0
 25 27  1  0  0  0  0
 26 10  1  6  0  0  0
 26 27  1  0  0  0  0
M  END
>  <CHROM.1>
170.31540138,67.77164391,178.47136574,-178.62582533,-107.08318968,-89.42175031
27.88493515,36.50014616,19.86738590,-1.29334289,-1.34105565,-2.95017938

>  <Name>
ligand

>  <RI>
0

>  <Rbt.Current_Directory>
/home/itssahil/PROJECTS/Mol_Feturizer/New_Systems/rnas/3F4H

>  <Rbt.Executable>
rbdock ($Id: //depot/dev/client3/rdock/2013.1/src/exe/rbdock.cxx#4 $)

>  <Rbt.Library>
libRbt.so (2013.1, Build901 2013/11/27)

>  <Rbt.Parameter_File>
/export/apps/rDock/src/rDock_2013.1_src/data/scripts/dock_solv.prm

>  <Rbt.Receptor>
prm/pocket_docking_4.prm

>  <SCORE>
-48.9722

>  <SCORE.INTER>
-31.266

>  <SCORE.INTER.CONST>
1

>  <SCORE.INTER.POLAR>
0

>  <SCORE.INTER.ROT>
6

>  <SCORE.INTER.SOLV>
10.9962

>  <SCORE.INTER.VDW>
-32.1094

>  <SCORE.INTER.norm>
-1.07814

>  <SCORE.INTRA>
-17.7063

>  <SCORE.INTRA.DIHEDRAL>
-4.19735

>  <SCORE.INTRA.DIHEDRAL.0>
6.83446

>  <SCORE.INTRA.POLAR>
0

>  <SCORE.INTRA.POLAR.0>
0

>  <SCORE.INTRA.REPUL>
0

>  <SCORE.INTRA.REPUL.0>
0

>  <SCORE.INTRA.SOLV>
-0.0757662

>  <SCORE.INTRA.SOLV.lig_0>
-26.4601

>  <SCORE.INTRA.VDW>
-15.5697

>  <SCORE.INTRA.VDW.0>
13.7853

>  <SCORE.INTRA.norm>
-0.610561

>  <SCORE.RESTR>
0

>  <SCORE.RESTR.CAVITY>
0

>  <SCORE.RESTR.norm>
0

>  <SCORE.SYSTEM>
0

>  <SCORE.SYSTEM.CONST>
0

>  <SCORE.SYSTEM.DIHEDRAL>
0

>  <SCORE.SYSTEM.SOLV>
0

>  <SCORE.SYSTEM.norm>
0

>  <SCORE.heavy>
29

>  <SCORE.norm>
-1.6887

>  <RMSD>
0.985

$$$$
ligand
 OpenBabel11021811473D
libRbt.so/2013.1/901 2013/11/27
 29 31  0  0  0  0  0  0  0  0999 V2000
   29.0817   40.3999   16.1244 C   0  0  0  0  0  0  0  0  0  0  0  0
   29.9185   41.4886   16.5288 O   0  0  0  0  0  0  0  0  0  0  0  0
   28.8324   39.4870   17.3171 C   0  0  1  0  0  0  0  0  0  0  0  0
   28.1684   40.2361   18.3302 O   0  0  0  0  0  0  0  0  0  0  0  0
   27.9874   38.2881   16.9062 C   0  0  1  0  0  0  0  0  0  0  0  0
   28.7526   37.5345   15.9729 O   0  0  0  0  0  0  0  0  0  0  0  0
   27.5346   37.3892   18.0606 C   0  0  1  0  0  0  0  0  0  0  0  0
   26.7054   36.3547   17.5296 O   0  0  0  0  0  0  0  0  0  0  0  0
   28.6919   36.7326   18.8104 C   0  0  0  0  0  0  0  0  0  0  0  0
   28.5250   33.9732   18.2366 N   0  0  0  0  0  0  0  0  0  0  0  0
   28.4628   32.6470   17.9279 C   0  0  0  0  0  0  0  0  0  0  0  0
   28.8218   32.2403   16.7947 O   0  0  0  0  0  0  0  0  0  0  0  0
   28.0069   31.7510   18.8397 N   0  0  0  0  0  0  0  0  0  0  0  0
   27.6060   32.1541   20.0717 C   0  0  0  0  0  0  0  0  0  0  0  0
   27.6652   33.5034   20.4011 C   0  0  1  0  0  0  0  0  0  0  0  0
   27.1829   31.3215   20.9115 O   0  0  0  0  0  0  0  0  0  0  0  0
   27.3328   35.2233   21.9461 C   0  0  1  0  0  0  0  0  0  0  0  0
   27.2732   33.9142   21.6267 N   0  0  0  0  0  0  0  0  0  0  0  0
   26.9267   35.6374   23.2098 C   0  0  0  0  0  0  0  0  0  0  0  0
   26.9787   36.9796   23.5698 C   0  0  2  0  0  0  0  0  0  0  0  0
   26.5221   37.3588   24.9551 C   0  0  0  0  0  0  0  0  0  0  0  0
   27.4455   37.9275   22.6503 C   0  0  2  0  0  0  0  0  0  0  0  0
   27.5247   39.2628   22.9328 N   0  0  0  0  0  0  0  0  0  0  0  0
   27.8497   37.4956   21.3811 C   0  0  0  0  0  0  0  0  0  0  0  0
   27.7981   36.1509   21.0155 C   0  0  2  0  0  0  0  0  0  0  0  0
   28.1361   34.4274   19.4631 C   0  0  2  0  0  0  0  0  0  0  0  0
   28.1880   35.7456   19.7851 N   0  0  0  0  0  0  0  0  0  0  0  0
   26.5835   40.1836   22.3241 C   0  0  0  0  0  0  0  0  0  0  0  0
   28.5227   39.8151   23.8338 C   0  0  0  0  0  0  0  0  0  0  0  0
  1  2  1  0  0  0  0
  3  1  1  6  0  0  0
  3  4  1  0  0  0  0
  3  5  1  0  0  0  0
  5  6  1  6  0  0  0
  5  7  1  0  0  0  0
  7  8  1  6  0  0  0
  7  9  1  0  0  0  0
  9 27  1  0  0  0  0
 10 11  1  0  0  0  0
 11 12  2  0  0  0  0
 11 13  1  0  0  0  0
 13 14  1  0  0  0  0
 14 16  2  0  0  0  0
 15 14  1  1  0  0  0
 15 18  1  0  0  0  0
 15 26  1  0  0  0  0
 17 19  1  1  0  0  0
 17 25  1  0  0  0  0
 17 18  1  0  0  0  0
 19 20  1  0  0  0  0
 20 21  1  6  0  0  0
 20 22  1  0  0  0  0
 22 23  1  6  0  0  0
 22 24  1  0  0  0  0
 23 28  1  0  0  0  0
 23 29  1  0  0  0  0
 25 24  1  6  0  0  0
 25 27  1  0  0  0  0
 26 10  1  6  0  0  0
 26 27  1  0  0  0  0
M  END
>  <CHROM.1>
61.01590280,64.28168600,177.25648985,-172.39545183,-107.48236921,-84.56773276
27.91528295,36.47055993,19.83013171,-1.19655690,-1.34012556,-2.87533948

>  <Name>
ligand

>  <RI>
0

>  <Rbt.Current_Directory>
/home/itssahil/PROJECTS/Mol_Feturizer/New_Systems/rnas/3F4H

>  <Rbt.Executable>
rbdock ($Id: //depot/dev/client3/rdock/2013.1/src/exe/rbdock.cxx#4 $)

>  <Rbt.Library>
libRbt.so (2013.1, Build901 2013/11/27)

>  <Rbt.Parameter_File>
/export/apps/rDock/src/rDock_2013.1_src/data/scripts/dock_solv.prm

>  <Rbt.Receptor>
prm/pocket_docking_3.prm

>  <SCORE>
-49.5061

>  <SCORE.INTER>
-31.6037

>  <SCORE.INTER.CONST>
1

>  <SCORE.INTER.POLAR>
0

>  <SCORE.INTER.ROT>
6

>  <SCORE.INTER.SOLV>
11.6611

>  <SCORE.INTER.VDW>
-32.5562

>  <SCORE.INTER.norm>
-1.08978

>  <SCORE.INTRA>
-17.9024

>  <SCORE.INTRA.DIHEDRAL>
-4.46519

>  <SCORE.INTRA.DIHEDRAL.0>
6.83446

>  <SCORE.INTRA.POLAR>
0

>  <SCORE.INTRA.POLAR.0>
0

>  <SCORE.INTRA.REPUL>
0

>  <SCORE.INTRA.REPUL.0>
0

>  <SCORE.INTRA.SOLV>
-0.435115

>  <SCORE.INTRA.SOLV.lig_0>
-26.4601

>  <SCORE.INTRA.VDW>
-15.4523

>  <SCORE.INTRA.VDW.0>
13.7853

>  <SCORE.INTRA.norm>
-0.617325

>  <SCORE.RESTR>
0

>  <SCORE.RESTR.CAVITY>
0

>  <SCORE.RESTR.norm>
0

>  <SCORE.SYSTEM>
0

>  <SCORE.SYSTEM.CONST>
0

>  <SCORE.SYSTEM.DIHEDRAL>
0

>  <SCORE.SYSTEM.SOLV>
0

>  <SCORE.SYSTEM.norm>
0

>  <SCORE.heavy>
29

>  <SCORE.norm>
-1.70711

>  <RMSD>
0.988

$$$$
ligand
 OpenBabel11021811473D
libRbt.so/2013.1/901 2013/11/27
 29 31  0  0  0  0  0  0  0  0999 V2000
   29.0767   40.4731   16.2139 C   0  0  0  0  0  0  0  0  0  0  0  0
   29.8664   41.5821   16.6562 O   0  0  0  0  0  0  0  0  0  0  0  0
   28.7763   39.5652   17.3986 C   0  0  1  0  0  0  0  0  0  0  0  0
   28.0318   40.3063   18.3603 O   0  0  0  0  0  0  0  0  0  0  0  0
   27.9888   38.3413   16.9489 C   0  0  1  0  0  0  0  0  0  0  0  0
   28.8127   37.6224   16.0384 O   0  0  0  0  0  0  0  0  0  0  0  0
   27.5266   37.4175   18.0797 C   0  0  1  0  0  0  0  0  0  0  0  0
   26.7858   36.3387   17.5080 O   0  0  0  0  0  0  0  0  0  0  0  0
   28.6776   36.8262   18.8911 C   0  0  0  0  0  0  0  0  0  0  0  0
   28.4983   34.0717   18.2976 N   0  0  0  0  0  0  0  0  0  0  0  0
   28.4298   32.7481   17.9793 C   0  0  0  0  0  0  0  0  0  0  0  0
   28.7816   32.3487   16.8412 O   0  0  0  0  0  0  0  0  0  0  0  0
   27.9756   31.8469   18.8868 N   0  0  0  0  0  0  0  0  0  0  0  0
   27.5824   32.2421   20.1238 C   0  0  0  0  0  0  0  0  0  0  0  0
   27.6480   33.5887   20.4629 C   0  0  1  0  0  0  0  0  0  0  0  0
   27.1608   31.4047   20.9595 O   0  0  0  0  0  0  0  0  0  0  0  0
   27.3295   35.2981   22.0224 C   0  0  1  0  0  0  0  0  0  0  0  0
   27.2638   33.9916   21.6936 N   0  0  0  0  0  0  0  0  0  0  0  0
   26.9315   35.7041   23.2914 C   0  0  0  0  0  0  0  0  0  0  0  0
   26.9899   37.0434   23.6610 C   0  0  2  0  0  0  0  0  0  0  0  0
   26.5418   37.4138   25.0515 C   0  0  0  0  0  0  0  0  0  0  0  0
   27.4553   37.9965   22.7462 C   0  0  2  0  0  0  0  0  0  0  0  0
   27.5406   39.3294   23.0383 N   0  0  0  0  0  0  0  0  0  0  0  0
   27.8513   37.5728   21.4718 C   0  0  0  0  0  0  0  0  0  0  0  0
   27.7932   36.2310   21.0964 C   0  0  2  0  0  0  0  0  0  0  0  0
   28.1172   34.5181   19.5294 C   0  0  2  0  0  0  0  0  0  0  0  0
   28.1754   35.8336   19.8610 N   0  0  0  0  0  0  0  0  0  0  0  0
   26.5950   40.2571   22.4469 C   0  0  0  0  0  0  0  0  0  0  0  0
   28.5494   39.8725   23.9329 C   0  0  0  0  0  0  0  0  0  0  0  0
  1  2  1  0  0  0  0
  3  1  1  6  0  0  0
  3  4  1  0  0  0  0
  3  5  1  0  0  0  0
  5  6  1  6  0  0  0
  5  7  1  0  0  0  0
  7  8  1  6  0  0  0
  7  9  1  0  0  0  0
  9 27  1  0  0  0  0
 10 11  1  0  0  0  0
 11 12  2  0  0  0  0
 11 13  1  0  0  0  0
 13 14  1  0  0  0  0
 14 16  2  0  0  0  0
 15 14  1  1  0  0  0
 15 18  1  0  0  0  0
 15 26  1  0  0  0  0
 17 19  1  1  0  0  0
 17 25  1  0  0  0  0
 17 18  1  0  0  0  0
 19 20  1  0  0  0  0
 20 21  1  6  0  0  0
 20 22  1  0  0  0  0
 22 23  1  6  0  0  0
 22 24  1  0  0  0  0
 23 28  1  0  0  0  0
 23 29  1  0  0  0  0
 25 24  1  6  0  0  0
 25 27  1  0  0  0  0
 26 10  1  6  0  0  0
 26 27  1  0  0  0  0
M  END
>  <CHROM.1>
61.38334012,62.37572071,178.88962255,-173.66124314,-107.16010592,-88.75639210
27.90582903,36.54483577,19.89979439,-1.19195004,-1.34599864,-2.85536237

>  <Name>
ligand

>  <RI>
0

>  <Rbt.Current_Directory>
/home/itssahil/PROJECTS/Mol_Feturizer/New_Systems/rnas/3F4H

>  <Rbt.Executable>
rbdock ($Id: //depot/dev/client3/rdock/2013.1/src/exe/rbdock.cxx#4 $)

>  <Rbt.Library>
libRbt.so (2013.1, Build901 2013/11/27)

>  <Rbt.Parameter_File>
/export/apps/rDock/src/rDock_2013.1_src/data/scripts/dock_solv.prm

>  <Rbt.Receptor>
prm/pocket_docking_4.prm

>  <SCORE>
-49.4549

>  <SCORE.INTER>
-31.4988

>  <SCORE.INTER.CONST>
1

>  <SCORE.INTER.POLAR>
0

>  <SCORE.INTER.ROT>
6

>  <SCORE.INTER.SOLV>
11.33

>  <SCORE.INTER.VDW>
-32.3758

>  <SCORE.INTER.norm>
-1.08616

>  <SCORE.INTRA>
-17.9561

>  <SCORE.INTRA.DIHEDRAL>
-4.59421

>  <SCORE.INTRA.DIHEDRAL.0>
6.83446

>  <SCORE.INTRA.POLAR>
0

>  <SCORE.INTRA.POLAR.0>
0

>  <SCORE.INTRA.REPUL>
0

>  <SCORE.INTRA.REPUL.0>
0

>  <SCORE.INTRA.SOLV>
-0.427797

>  <SCORE.INTRA.SOLV.lig_0>
-26.4601

>  <SCORE.INTRA.VDW>
-15.4451

>  <SCORE.INTRA.VDW.0>
13.7853

>  <SCORE.INTRA.norm>
-0.619176

>  <SCORE.RESTR>
0

>  <SCORE.RESTR.CAVITY>
0

>  <SCORE.RESTR.norm>
0

>  <SCORE.SYSTEM>
0

>  <SCORE.SYSTEM.CONST>
0

>  <SCORE.SYSTEM.DIHEDRAL>
0

>  <SCORE.SYSTEM.SOLV>
0

>  <SCORE.SYSTEM.norm>
0

>  <SCORE.heavy>
29

>  <SCORE.norm>
-1.70534

>  <RMSD>
0.988

$$$$
ligand
 OpenBabel11021811473D
libRbt.so/2013.1/901 2013/11/27
 29 31  0  0  0  0  0  0  0  0999 V2000
   26.8981   40.4070   17.3548 C   0  0  0  0  0  0  0  0  0  0  0  0
   27.1414   41.8052   17.5412 O   0  0  0  0  0  0  0  0  0  0  0  0
   28.1696   39.7380   16.8509 C   0  0  1  0  0  0  0  0  0  0  0  0
   29.1758   39.8660   17.8507 O   0  0  0  0  0  0  0  0  0  0  0  0
   27.9150   38.2683   16.5419 C   0  0  1  0  0  0  0  0  0  0  0  0
   29.1071   37.7471   15.9659 O   0  0  0  0  0  0  0  0  0  0  0  0
   27.4978   37.4168   17.7446 C   0  0  1  0  0  0  0  0  0  0  0  0
   26.9052   36.2108   17.2610 O   0  0  0  0  0  0  0  0  0  0  0  0
   28.6632   37.0407   18.6574 C   0  0  0  0  0  0  0  0  0  0  0  0
   28.5392   34.3074   17.9608 N   0  0  0  0  0  0  0  0  0  0  0  0
   28.4952   32.9959   17.5919 C   0  0  0  0  0  0  0  0  0  0  0  0
   28.7863   32.6554   16.4181 O   0  0  0  0  0  0  0  0  0  0  0  0
   28.1312   32.0433   18.4874 N   0  0  0  0  0  0  0  0  0  0  0  0
   27.8054   32.3742   19.7623 C   0  0  0  0  0  0  0  0  0  0  0  0
   27.8471   33.7077   20.1531 C   0  0  1  0  0  0  0  0  0  0  0  0
   27.4670   31.4893   20.5869 O   0  0  0  0  0  0  0  0  0  0  0  0
   27.5722   35.3407   21.8002 C   0  0  1  0  0  0  0  0  0  0  0  0
   27.5296   34.0469   21.4214 N   0  0  0  0  0  0  0  0  0  0  0  0
   27.2432   35.6810   23.1077 C   0  0  0  0  0  0  0  0  0  0  0  0
   27.2801   37.0057   23.5290 C   0  0  2  0  0  0  0  0  0  0  0  0
   26.9102   37.3037   24.9593 C   0  0  0  0  0  0  0  0  0  0  0  0
   27.6530   38.0109   22.6277 C   0  0  2  0  0  0  0  0  0  0  0  0
   27.7118   39.3333   22.9698 N   0  0  0  0  0  0  0  0  0  0  0  0
   27.9802   37.6531   21.3142 C   0  0  0  0  0  0  0  0  0  0  0  0
   27.9434   36.3262   20.8869 C   0  0  2  0  0  0  0  0  0  0  0  0
   28.2235   34.6901   19.2319 C   0  0  2  0  0  0  0  0  0  0  0  0
   28.2584   35.9926   19.6143 N   0  0  0  0  0  0  0  0  0  0  0  0
   28.9646   40.0537   22.8435 C   0  0  0  0  0  0  0  0  0  0  0  0
   26.5572   40.0679   23.4597 C   0  0  0  0  0  0  0  0  0  0  0  0
  1  2  1  0  0  0  0
  3  1  1  1  0  0  0
  3  4  1  0  0  0  0
  3  5  1  0  0  0  0
  5  6  1  1  0  0  0
  5  7  1  0  0  0  0
  7  8  1  6  0  0  0
  7  9  1  0  0  0  0
  9 27  1  0  0  0  0
 10 11  1  0  0  0  0
 11 12  2  0  0  0  0
 11 13  1  0  0  0  0
 13 14  1  0  0  0  0
 14 16  2  0  0  0  0
 15 14  1  1  0  0  0
 15 18  1  0  0  0  0
 15 26  1  0  0  0  0
 17 19  1  1  0  0  0
 17 25  1  0  0  0  0
 17 18  1  0  0  0  0
 19 20  1  0  0  0  0
 20 21  1  6  0  0  0
 20 22  1  0  0  0  0
 22 23  1  6  0  0  0
 22 24  1  0  0  0  0
 23 28  1  0  0  0  0
 23 29  1  0  0  0  0
 25 24  1  6  0  0  0
 25 27  1  0  0  0  0
 26 10  1  6  0  0  0
 26 27  1  0  0  0  0
M  END
>  <CHROM.1>
63.12985225,174.81894785,162.31134938,-167.58538545,120.74964119,-100.49552252
27.88211975,36.60397454,19.73520887,-2.10856345,-1.44623009,2.91061907

>  <Name>
ligand

>  <RI>
0

>  <Rbt.Current_Directory>
/home/itssahil/PROJECTS/Mol_Feturizer/New_Systems/rnas/3F4H

>  <Rbt.Executable>
rbdock ($Id: //depot/dev/client3/rdock/2013.1/src/exe/rbdock.cxx#4 $)

>  <Rbt.Library>
libRbt.so (2013.1, Build901 2013/11/27)

>  <Rbt.Parameter_File>
/export/apps/rDock/src/rDock_2013.1_src/data/scripts/dock_solv.prm

>  <Rbt.Receptor>
prm/pocket_docking_2.prm

>  <SCORE>
-44.0243

>  <SCORE.INTER>
-28.591

>  <SCORE.INTER.CONST>
1

>  <SCORE.INTER.POLAR>
0

>  <SCORE.INTER.ROT>
6

>  <SCORE.INTER.SOLV>
9.24753

>  <SCORE.INTER.VDW>
-29.7432

>  <SCORE.INTER.norm>
-0.985895

>  <SCORE.INTRA>
-15.4352

>  <SCORE.INTRA.DIHEDRAL>
-3.02111

>  <SCORE.INTRA.DIHEDRAL.0>
6.83446

>  <SCORE.INTRA.POLAR>
0

>  <SCORE.INTRA.POLAR.0>
0

>  <SCORE.INTRA.REPUL>
0

>  <SCORE.INTRA.REPUL.0>
0

>  <SCORE.INTRA.SOLV>
-0.152519

>  <SCORE.INTRA.SOLV.lig_0>
-26.4601

>  <SCORE.INTRA.VDW>
-13.8484

>  <SCORE.INTRA.VDW.0>
13.7853

>  <SCORE.INTRA.norm>
-0.532248

>  <SCORE.RESTR>
0.00186696

>  <SCORE.RESTR.CAVITY>
0.00186696

>  <SCORE.RESTR.norm>
6.43779e-05

>  <SCORE.SYSTEM>
0

>  <SCORE.SYSTEM.CONST>
0

>  <SCORE.SYSTEM.DIHEDRAL>
0

>  <SCORE.SYSTEM.SOLV>
0

>  <SCORE.SYSTEM.norm>
0

>  <SCORE.heavy>
29

>  <SCORE.norm>
-1.51808

>  <RMSD>
0.990

$$$$
ligand
 OpenBabel11021811473D
libRbt.so/2013.1/901 2013/11/27
 29 31  0  0  0  0  0  0  0  0999 V2000
   28.9278   40.5992   16.3527 C   0  0  0  0  0  0  0  0  0  0  0  0
   27.6559   41.1399   15.9804 O   0  0  0  0  0  0  0  0  0  0  0  0
   28.7374   39.5992   17.4849 C   0  0  1  0  0  0  0  0  0  0  0  0
   28.0688   40.2529   18.5592 O   0  0  0  0  0  0  0  0  0  0  0  0
   27.9275   38.3999   17.0094 C   0  0  1  0  0  0  0  0  0  0  0  0
   28.7146   37.7192   16.0389 O   0  0  0  0  0  0  0  0  0  0  0  0
   27.5005   37.4283   18.1136 C   0  0  1  0  0  0  0  0  0  0  0  0
   26.6886   36.4088   17.5296 O   0  0  0  0  0  0  0  0  0  0  0  0
   28.6756   36.7541   18.8187 C   0  0  0  0  0  0  0  0  0  0  0  0
   28.5384   33.9923   18.2489 N   0  0  0  0  0  0  0  0  0  0  0  0
   28.4901   32.6651   17.9419 C   0  0  0  0  0  0  0  0  0  0  0  0
   28.8423   32.2620   16.8053 O   0  0  0  0  0  0  0  0  0  0  0  0
   28.0555   31.7642   18.8592 N   0  0  0  0  0  0  0  0  0  0  0  0
   27.6625   32.1631   20.0951 C   0  0  0  0  0  0  0  0  0  0  0  0
   27.7077   33.5134   20.4227 C   0  0  1  0  0  0  0  0  0  0  0  0
   27.2591   31.3259   20.9399 O   0  0  0  0  0  0  0  0  0  0  0  0
   27.3694   35.2303   21.9698 C   0  0  1  0  0  0  0  0  0  0  0  0
   27.3235   33.9202   21.6521 N   0  0  0  0  0  0  0  0  0  0  0  0
   26.9715   35.6403   23.2375 C   0  0  0  0  0  0  0  0  0  0  0  0
   27.0099   36.9833   23.5958 C   0  0  2  0  0  0  0  0  0  0  0  0
   26.5632   37.3579   24.9856 C   0  0  0  0  0  0  0  0  0  0  0  0
   27.4547   37.9363   22.6707 C   0  0  2  0  0  0  0  0  0  0  0  0
   27.5196   39.2728   22.9513 N   0  0  0  0  0  0  0  0  0  0  0  0
   27.8509   37.5085   21.3976 C   0  0  0  0  0  0  0  0  0  0  0  0
   27.8129   36.1629   21.0336 C   0  0  2  0  0  0  0  0  0  0  0  0
   28.1566   34.4426   19.4791 C   0  0  2  0  0  0  0  0  0  0  0  0
   28.1949   35.7616   19.7995 N   0  0  0  0  0  0  0  0  0  0  0  0
   26.5575   40.1803   22.3553 C   0  0  0  0  0  0  0  0  0  0  0  0
   28.5224   39.8394   23.8379 C   0  0  0  0  0  0  0  0  0  0  0  0
  1  2  1  0  0  0  0
  3  1  1  6  0  0  0
  3  4  1  0  0  0  0
  3  5  1  0  0  0  0
  5  6  1  6  0  0  0
  5  7  1  0  0  0  0
  7  8  1  6  0  0  0
  7  9  1  0  0  0  0
  9 27  1  0  0  0  0
 10 11  1  0  0  0  0
 11 12  2  0  0  0  0
 11 13  1  0  0  0  0
 13 14  1  0  0  0  0
 14 16  2  0  0  0  0
 15 14  1  1  0  0  0
 15 18  1  0  0  0  0
 15 26  1  0  0  0  0
 17 19  1  1  0  0  0
 17 25  1  0  0  0  0
 17 18  1  0  0  0  0
 19 20  1  0  0  0  0
 20 21  1  6  0  0  0
 20 22  1  0  0  0  0
 22 23  1  6  0  0  0
 22 24  1  0  0  0  0
 23 28  1  0  0  0  0
 23 29  1  0  0  0  0
 25 24  1  6  0  0  0
 25 27  1  0  0  0  0
 26 10  1  6  0  0  0
 26 27  1  0  0  0  0
M  END
>  <CHROM.1>
-56.06838913,65.84329238,176.57668699,-175.87616510,-107.28488100,-82.68902091
27.82306426,36.49025555,19.85234818,-1.53048941,-1.40727473,3.10886818

>  <Name>
ligand

>  <RI>
0

>  <Rbt.Current_Directory>
/home/itssahil/PROJECTS/Mol_Feturizer/New_Systems/rnas/3F4H

>  <Rbt.Executable>
rbdock ($Id: //depot/dev/client3/rdock/2013.1/src/exe/rbdock.cxx#4 $)

>  <Rbt.Library>
libRbt.so (2013.1, Build901 2013/11/27)

>  <Rbt.Parameter_File>
/export/apps/rDock/src/rDock_2013.1_src/data/scripts/dock_solv.prm

>  <Rbt.Receptor>
prm/pocket_docking_7.prm

>  <SCORE>
-49.07

>  <SCORE.INTER>
-31.2502

>  <SCORE.INTER.CONST>
1

>  <SCORE.INTER.POLAR>
0

>  <SCORE.INTER.ROT>
6

>  <SCORE.INTER.SOLV>
10.9351

>  <SCORE.INTER.VDW>
-32.0785

>  <SCORE.INTER.norm>
-1.07759

>  <SCORE.INTRA>
-17.8198

>  <SCORE.INTRA.DIHEDRAL>
-4.4866

>  <SCORE.INTRA.DIHEDRAL.0>
6.83446

>  <SCORE.INTRA.POLAR>
0

>  <SCORE.INTRA.POLAR.0>
0

>  <SCORE.INTRA.REPUL>
0

>  <SCORE.INTRA.REPUL.0>
0

>  <SCORE.INTRA.SOLV>
-0.0835133

>  <SCORE.INTRA.SOLV.lig_0>
-26.4601

>  <SCORE.INTRA.VDW>
-15.5347

>  <SCORE.INTRA.VDW.0>
13.7853

>  <SCORE.INTRA.norm>
-0.614475

>  <SCORE.RESTR>
0

>  <SCORE.RESTR.CAVITY>
0

>  <SCORE.RESTR.norm>
0

>  <SCORE.SYSTEM>
0

>  <SCORE.SYSTEM.CONST>
0

>  <SCORE.SYSTEM.DIHEDRAL>
0

>  <SCORE.SYSTEM.SOLV>
0

>  <SCORE.SYSTEM.norm>
0

>  <SCORE.heavy>
29

>  <SCORE.norm>
-1.69207

>  <RMSD>
0.990

$$$$
ligand
 OpenBabel11021811473D
libRbt.so/2013.1/901 2013/11/27
 29 31  0  0  0  0  0  0  0  0999 V2000
   28.9438   40.6007   16.3158 C   0  0  0  0  0  0  0  0  0  0  0  0
   27.6630   41.1059   15.9243 O   0  0  0  0  0  0  0  0  0  0  0  0
   28.7654   39.6041   17.4529 C   0  0  1  0  0  0  0  0  0  0  0  0
   28.0696   40.2486   18.5154 O   0  0  0  0  0  0  0  0  0  0  0  0
   27.9898   38.3824   16.9772 C   0  0  1  0  0  0  0  0  0  0  0  0
   28.8257   37.6841   16.0616 O   0  0  0  0  0  0  0  0  0  0  0  0
   27.5253   37.4372   18.0892 C   0  0  1  0  0  0  0  0  0  0  0  0
   26.8021   36.3594   17.4936 O   0  0  0  0  0  0  0  0  0  0  0  0
   28.6737   36.8457   18.9041 C   0  0  0  0  0  0  0  0  0  0  0  0
   28.4883   34.0930   18.3044 N   0  0  0  0  0  0  0  0  0  0  0  0
   28.4170   32.7703   17.9832 C   0  0  0  0  0  0  0  0  0  0  0  0
   28.7686   32.3726   16.8444 O   0  0  0  0  0  0  0  0  0  0  0  0
   27.9601   31.8682   18.8883 N   0  0  0  0  0  0  0  0  0  0  0  0
   27.5670   32.2615   20.1259 C   0  0  0  0  0  0  0  0  0  0  0  0
   27.6355   33.6072   20.4681 C   0  0  1  0  0  0  0  0  0  0  0  0
   27.1428   31.4233   20.9595 O   0  0  0  0  0  0  0  0  0  0  0  0
   27.3199   35.3139   22.0312 C   0  0  1  0  0  0  0  0  0  0  0  0
   27.2514   34.0083   21.6994 N   0  0  0  0  0  0  0  0  0  0  0  0
   26.9220   35.7180   23.3007 C   0  0  0  0  0  0  0  0  0  0  0  0
   26.9833   37.0563   23.6734 C   0  0  2  0  0  0  0  0  0  0  0  0
   26.5352   37.4247   25.0644 C   0  0  0  0  0  0  0  0  0  0  0  0
   27.4515   38.0104   22.7610 C   0  0  2  0  0  0  0  0  0  0  0  0
   27.5397   39.3424   23.0561 N   0  0  0  0  0  0  0  0  0  0  0  0
   27.8474   37.5886   21.4859 C   0  0  0  0  0  0  0  0  0  0  0  0
   27.7865   36.2478   21.1075 C   0  0  2  0  0  0  0  0  0  0  0  0
   28.1075   34.5376   19.5370 C   0  0  2  0  0  0  0  0  0  0  0  0
   28.1685   35.8522   19.8716 N   0  0  0  0  0  0  0  0  0  0  0  0
   28.6002   39.8179   23.9242 C   0  0  0  0  0  0  0  0  0  0  0  0
   26.6071   40.3251   22.5293 C   0  0  0  0  0  0  0  0  0  0  0  0
  1  2  1  0  0  0  0
  3  1  1  6  0  0  0
  3  4  1  0  0  0  0
  3  5  1  0  0  0  0
  5  6  1  6  0  0  0
  5  7  1  0  0  0  0
  7  8  1  6  0  0  0
  7  9  1  0  0  0  0
  9 27  1  0  0  0  0
 10 11  1  0  0  0  0
 11 12  2  0  0  0  0
 11 13  1  0  0  0  0
 13 14  1  0  0  0  0
 14 16  2  0  0  0  0
 15 14  1  1  0  0  0
 15 18  1  0  0  0  0
 15 26  1  0  0  0  0
 17 19  1  1  0  0  0
 17 25  1  0  0  0  0
 17 18  1  0  0  0  0
 19 20  1  0  0  0  0
 20 21  1  6  0  0  0
 20 22  1  0  0  0  0
 22 23  1  6  0  0  0
 22 24  1  0  0  0  0
 23 28  1  0  0  0  0
 23 29  1  0  0  0  0
 25 24  1  6  0  0  0
 25 27  1  0  0  0  0
 26 10  1  6  0  0  0
 26 27  1  0  0  0  0
M  END
>  <CHROM.1>
-56.18876426,68.21049653,179.16939150,-174.73240045,74.70937896,-88.99999285
27.81139559,36.54604079,19.89163381,-1.42787082,-1.40626786,-3.07543211

>  <Name>
ligand

>  <RI>
0

>  <Rbt.Current_Directory>
/home/itssahil/PROJECTS/Mol_Feturizer/New_Systems/rnas/3F4H

>  <Rbt.Executable>
rbdock ($Id: //depot/dev/client3/rdock/2013.1/src/exe/rbdock.cxx#4 $)

>  <Rbt.Library>
libRbt.so (2013.1, Build901 2013/11/27)

>  <Rbt.Parameter_File>
/export/apps/rDock/src/rDock_2013.1_src/data/scripts/dock_solv.prm

>  <Rbt.Receptor>
prm/pocket_docking_8.prm

>  <SCORE>
-49.0159

>  <SCORE.INTER>
-31.2115

>  <SCORE.INTER.CONST>
1

>  <SCORE.INTER.POLAR>
0

>  <SCORE.INTER.ROT>
6

>  <SCORE.INTER.SOLV>
10.6258

>  <SCORE.INTER.VDW>
-31.9496

>  <SCORE.INTER.norm>
-1.07626

>  <SCORE.INTRA>
-17.8044

>  <SCORE.INTRA.DIHEDRAL>
-4.3707

>  <SCORE.INTRA.DIHEDRAL.0>
6.83446

>  <SCORE.INTRA.POLAR>
0

>  <SCORE.INTRA.POLAR.0>
0

>  <SCORE.INTRA.REPUL>
0

>  <SCORE.INTRA.REPUL.0>
0

>  <SCORE.INTRA.SOLV>
-0.0736077

>  <SCORE.INTRA.SOLV.lig_0>
-26.4601

>  <SCORE.INTRA.VDW>
-15.5822

>  <SCORE.INTRA.VDW.0>
13.7853

>  <SCORE.INTRA.norm>
-0.613943

>  <SCORE.RESTR>
0

>  <SCORE.RESTR.CAVITY>
0

>  <SCORE.RESTR.norm>
0

>  <SCORE.SYSTEM>
0

>  <SCORE.SYSTEM.CONST>
0

>  <SCORE.SYSTEM.DIHEDRAL>
0

>  <SCORE.SYSTEM.SOLV>
0

>  <SCORE.SYSTEM.norm>
0

>  <SCORE.heavy>
29

>  <SCORE.norm>
-1.6902

>  <RMSD>
0.990

$$$$
ligand
 OpenBabel11021811473D
libRbt.so/2013.1/901 2013/11/27
 29 31  0  0  0  0  0  0  0  0999 V2000
   29.0736   40.4602   16.2083 C   0  0  0  0  0  0  0  0  0  0  0  0
   29.8456   41.5785   16.6583 O   0  0  0  0  0  0  0  0  0  0  0  0
   28.7903   39.5379   17.3861 C   0  0  1  0  0  0  0  0  0  0  0  0
   28.0506   40.2642   18.3627 O   0  0  0  0  0  0  0  0  0  0  0  0
   28.0061   38.3139   16.9310 C   0  0  1  0  0  0  0  0  0  0  0  0
   28.8367   37.5948   16.0267 O   0  0  0  0  0  0  0  0  0  0  0  0
   27.5357   37.3904   18.0586 C   0  0  1  0  0  0  0  0  0  0  0  0
   26.8121   36.3033   17.4805 O   0  0  0  0  0  0  0  0  0  0  0  0
   28.6800   36.8117   18.8884 C   0  0  0  0  0  0  0  0  0  0  0  0
   28.4876   34.0577   18.2971 N   0  0  0  0  0  0  0  0  0  0  0  0
   28.4129   32.7341   17.9799 C   0  0  0  0  0  0  0  0  0  0  0  0
   28.7640   32.3320   16.8425 O   0  0  0  0  0  0  0  0  0  0  0  0
   27.9531   31.8360   18.8876 N   0  0  0  0  0  0  0  0  0  0  0  0
   27.5605   32.2342   20.1238 C   0  0  0  0  0  0  0  0  0  0  0  0
   27.6323   33.5808   20.4618 C   0  0  1  0  0  0  0  0  0  0  0  0
   27.1336   31.3997   20.9597 O   0  0  0  0  0  0  0  0  0  0  0  0
   27.3205   35.2932   22.0194 C   0  0  1  0  0  0  0  0  0  0  0  0
   27.2487   33.9868   21.6917 N   0  0  0  0  0  0  0  0  0  0  0  0
   26.9230   35.7023   23.2875 C   0  0  0  0  0  0  0  0  0  0  0  0
   26.9877   37.0415   23.6561 C   0  0  2  0  0  0  0  0  0  0  0  0
   26.5399   37.4154   25.0457 C   0  0  0  0  0  0  0  0  0  0  0  0
   27.4589   37.9915   22.7410 C   0  0  2  0  0  0  0  0  0  0  0  0
   27.5505   39.3242   23.0321 N   0  0  0  0  0  0  0  0  0  0  0  0
   27.8544   37.5647   21.4674 C   0  0  0  0  0  0  0  0  0  0  0  0
   27.7900   36.2229   21.0931 C   0  0  2  0  0  0  0  0  0  0  0  0
   28.1073   34.5071   19.5280 C   0  0  2  0  0  0  0  0  0  0  0  0
   28.1716   35.8225   19.8586 N   0  0  0  0  0  0  0  0  0  0  0  0
   26.5918   40.2521   22.4626 C   0  0  0  0  0  0  0  0  0  0  0  0
   28.5790   39.8669   23.9042 C   0  0  0  0  0  0  0  0  0  0  0  0
  1  2  1  0  0  0  0
  3  1  1  6  0  0  0
  3  4  1  0  0  0  0
  3  5  1  0  0  0  0
  5  6  1  6  0  0  0
  5  7  1  0  0  0  0
  7  8  1  6  0  0  0
  7  9  1  0  0  0  0
  9 27  1  0  0  0  0
 10 11  1  0  0  0  0
 11 12  2  0  0  0  0
 11 13  1  0  0  0  0
 13 14  1  0  0  0  0
 14 16  2  0  0  0  0
 15 14  1  1  0  0  0
 15 18  1  0  0  0  0
 15 26  1  0  0  0  0
 17 19  1  1  0  0  0
 17 25  1  0  0  0  0
 17 18  1  0  0  0  0
 19 20  1  0  0  0  0
 20 21  1  6  0  0  0
 20 22  1  0  0  0  0
 22 23  1  6  0  0  0
 22 24  1  0  0  0  0
 23 28  1  0  0  0  0
 23 29  1  0  0  0  0
 25 24  1  6  0  0  0
 25 27  1  0  0  0  0
 26 10  1  6  0  0  0
 26 27  1  0  0  0  0
M  END
>  <CHROM.1>
60.62360711,63.58319606,179.54071613,-173.89050784,-105.77468742,-89.73359944
27.90426996,36.53189061,19.89461046,-1.18190182,-1.34481554,-2.84029968

>  <Name>
ligand

>  <RI>
0

>  <Rbt.Current_Directory>
/home/itssahil/PROJECTS/Mol_Feturizer/New_Systems/rnas/3F4H

>  <Rbt.Executable>
rbdock ($Id: //depot/dev/client3/rdock/2013.1/src/exe/rbdock.cxx#4 $)

>  <Rbt.Library>
libRbt.so (2013.1, Build901 2013/11/27)

>  <Rbt.Parameter_File>
/export/apps/rDock/src/rDock_2013.1_src/data/scripts/dock_solv.prm

>  <Rbt.Receptor>
prm/blind_docking_60.prm

>  <SCORE>
-49.4535

>  <SCORE.INTER>
-31.4344

>  <SCORE.INTER.CONST>
1

>  <SCORE.INTER.POLAR>
0

>  <SCORE.INTER.ROT>
6

>  <SCORE.INTER.SOLV>
11.2912

>  <SCORE.INTER.VDW>
-32.32

>  <SCORE.INTER.norm>
-1.08395

>  <SCORE.INTRA>
-18.0194

>  <SCORE.INTRA.DIHEDRAL>
-4.58687

>  <SCORE.INTRA.DIHEDRAL.0>
6.83446

>  <SCORE.INTRA.POLAR>
0

>  <SCORE.INTRA.POLAR.0>
0

>  <SCORE.INTRA.REPUL>
0

>  <SCORE.INTRA.REPUL.0>
0

>  <SCORE.INTRA.SOLV>
-0.424092

>  <SCORE.INTRA.SOLV.lig_0>
-26.4601

>  <SCORE.INTRA.VDW>
-15.5139

>  <SCORE.INTRA.VDW.0>
13.7853

>  <SCORE.INTRA.norm>
-0.621358

>  <SCORE.RESTR>
0.000286373

>  <SCORE.RESTR.CAVITY>
0.000286373

>  <SCORE.RESTR.norm>
9.87492e-06

>  <SCORE.SYSTEM>
0

>  <SCORE.SYSTEM.CONST>
0

>  <SCORE.SYSTEM.DIHEDRAL>
0

>  <SCORE.SYSTEM.SOLV>
0

>  <SCORE.SYSTEM.norm>
0

>  <SCORE.heavy>
29

>  <SCORE.norm>
-1.70529

>  <RMSD>
0.993

$$$$
ligand
 OpenBabel11021811473D
libRbt.so/2013.1/901 2013/11/27
 29 31  0  0  0  0  0  0  0  0999 V2000
   28.7456   40.6886   16.5247 C   0  0  0  0  0  0  0  0  0  0  0  0
   29.6459   40.2425   15.5052 O   0  0  0  0  0  0  0  0  0  0  0  0
   28.6158   39.6078   17.5892 C   0  0  1  0  0  0  0  0  0  0  0  0
   27.8371   40.1224   18.6650 O   0  0  0  0  0  0  0  0  0  0  0  0
   27.9589   38.3616   17.0096 C   0  0  1  0  0  0  0  0  0  0  0  0
   28.8916   37.7748   16.1094 O   0  0  0  0  0  0  0  0  0  0  0  0
   27.5067   37.3273   18.0446 C   0  0  1  0  0  0  0  0  0  0  0  0
   26.8673   36.2505   17.3581 O   0  0  0  0  0  0  0  0  0  0  0  0
   28.6552   36.7496   18.8693 C   0  0  0  0  0  0  0  0  0  0  0  0
   28.4952   33.9935   18.2781 N   0  0  0  0  0  0  0  0  0  0  0  0
   28.4362   32.6691   17.9611 C   0  0  0  0  0  0  0  0  0  0  0  0
   28.7971   32.2704   16.8256 O   0  0  0  0  0  0  0  0  0  0  0  0
   27.9818   31.7664   18.8669 N   0  0  0  0  0  0  0  0  0  0  0  0
   27.5790   32.1608   20.1011 C   0  0  0  0  0  0  0  0  0  0  0  0
   27.6348   33.5082   20.4389 C   0  0  1  0  0  0  0  0  0  0  0  0
   27.1571   31.3220   20.9353 O   0  0  0  0  0  0  0  0  0  0  0  0
   27.2972   35.2176   21.9944 C   0  0  1  0  0  0  0  0  0  0  0  0
   27.2409   33.9104   21.6668 N   0  0  0  0  0  0  0  0  0  0  0  0
   26.8892   35.6229   23.2604 C   0  0  0  0  0  0  0  0  0  0  0  0
   26.9378   36.9629   23.6288 C   0  0  2  0  0  0  0  0  0  0  0  0
   26.4793   37.3324   25.0161 C   0  0  0  0  0  0  0  0  0  0  0  0
   27.4032   37.9176   22.7156 C   0  0  2  0  0  0  0  0  0  0  0  0
   27.4790   39.2513   23.0066 N   0  0  0  0  0  0  0  0  0  0  0  0
   27.8092   37.4946   21.4441 C   0  0  0  0  0  0  0  0  0  0  0  0
   27.7611   36.1521   21.0700 C   0  0  2  0  0  0  0  0  0  0  0  0
   28.1042   34.4392   19.5071 C   0  0  2  0  0  0  0  0  0  0  0  0
   28.1529   35.7554   19.8375 N   0  0  0  0  0  0  0  0  0  0  0  0
   28.5281   39.7376   23.8826 C   0  0  0  0  0  0  0  0  0  0  0  0
   26.5443   40.2252   22.4676 C   0  0  0  0  0  0  0  0  0  0  0  0
  1  2  1  0  0  0  0
  3  1  1  6  0  0  0
  3  4  1  0  0  0  0
  3  5  1  0  0  0  0
  5  6  1  6  0  0  0
  5  7  1  0  0  0  0
  7  8  1  6  0  0  0
  7  9  1  0  0  0  0
  9 27  1  0  0  0  0
 10 11  1  0  0  0  0
 11 12  2  0  0  0  0
 11 13  1  0  0  0  0
 13 14  1  0  0  0  0
 14 16  2  0  0  0  0
 15 14  1  1  0  0  0
 15 18  1  0  0  0  0
 15 26  1  0  0  0  0
 17 19  1  1  0  0  0
 17 25  1  0  0  0  0
 17 18  1  0  0  0  0
 19 20  1  0  0  0  0
 20 21  1  6  0  0  0
 20 22  1  0  0  0  0
 22 23  1  6  0  0  0
 22 24  1  0  0  0  0
 23 28  1  0  0  0  0
 23 29  1  0  0  0  0
 25 24  1  6  0  0  0
 25 27  1  0  0  0  0
 26 10  1  6  0  0  0
 26 27  1  0  0  0  0
M  END
>  <CHROM.1>
173.66864117,69.77363786,177.71831714,-179.58632507,74.48049289,-89.09689571
27.85968850,36.43640124,19.86361079,-1.32781200,-1.35328071,-2.96338957

>  <Name>
ligand

>  <RI>
0

>  <Rbt.Current_Directory>
/home/itssahil/PROJECTS/Mol_Feturizer/New_Systems/rnas/3F4H

>  <Rbt.Executable>
rbdock ($Id: //depot/dev/client3/rdock/2013.1/src/exe/rbdock.cxx#4 $)

>  <Rbt.Library>
libRbt.so (2013.1, Build901 2013/11/27)

>  <Rbt.Parameter_File>
/export/apps/rDock/src/rDock_2013.1_src/data/scripts/dock_solv.prm

>  <Rbt.Receptor>
prm/pocket_docking_3.prm

>  <SCORE>
-49.0754

>  <SCORE.INTER>
-31.2994

>  <SCORE.INTER.CONST>
1

>  <SCORE.INTER.POLAR>
0

>  <SCORE.INTER.ROT>
6

>  <SCORE.INTER.SOLV>
10.9856

>  <SCORE.INTER.VDW>
-32.1282

>  <SCORE.INTER.norm>
-1.07929

>  <SCORE.INTRA>
-17.776

>  <SCORE.INTRA.DIHEDRAL>
-4.25654

>  <SCORE.INTRA.DIHEDRAL.0>
6.83446

>  <SCORE.INTRA.POLAR>
0

>  <SCORE.INTRA.POLAR.0>
0

>  <SCORE.INTRA.REPUL>
0

>  <SCORE.INTRA.REPUL.0>
0

>  <SCORE.INTRA.SOLV>
-0.0532749

>  <SCORE.INTRA.SOLV.lig_0>
-26.4601

>  <SCORE.INTRA.VDW>
-15.6211

>  <SCORE.INTRA.VDW.0>
13.7853

>  <SCORE.INTRA.norm>
-0.612966

>  <SCORE.RESTR>
0

>  <SCORE.RESTR.CAVITY>
0

>  <SCORE.RESTR.norm>
0

>  <SCORE.SYSTEM>
0

>  <SCORE.SYSTEM.CONST>
0

>  <SCORE.SYSTEM.DIHEDRAL>
0

>  <SCORE.SYSTEM.SOLV>
0

>  <SCORE.SYSTEM.norm>
0

>  <SCORE.heavy>
29

>  <SCORE.norm>
-1.69226

>  <RMSD>
0.993

$$$$
ligand
 OpenBabel11021811473D
libRbt.so/2013.1/901 2013/11/27
 29 31  0  0  0  0  0  0  0  0999 V2000
   29.1499   40.3808   16.0563 C   0  0  0  0  0  0  0  0  0  0  0  0
   27.9265   40.9194   15.5444 O   0  0  0  0  0  0  0  0  0  0  0  0
   28.8507   39.5299   17.2829 C   0  0  1  0  0  0  0  0  0  0  0  0
   28.1482   40.3298   18.2290 O   0  0  0  0  0  0  0  0  0  0  0  0
   28.0200   38.3119   16.8997 C   0  0  1  0  0  0  0  0  0  0  0  0
   28.8116   37.5234   16.0186 O   0  0  0  0  0  0  0  0  0  0  0  0
   27.5395   37.4594   18.0779 C   0  0  1  0  0  0  0  0  0  0  0  0
   26.7748   36.3681   17.5641 O   0  0  0  0  0  0  0  0  0  0  0  0
   28.6785   36.8870   18.9192 C   0  0  0  0  0  0  0  0  0  0  0  0
   28.5134   34.1377   18.2986 N   0  0  0  0  0  0  0  0  0  0  0  0
   28.4522   32.8168   17.9675 C   0  0  0  0  0  0  0  0  0  0  0  0
   28.8181   32.4288   16.8299 O   0  0  0  0  0  0  0  0  0  0  0  0
   27.9901   31.9062   18.8615 N   0  0  0  0  0  0  0  0  0  0  0  0
   27.5818   32.2890   20.0974 C   0  0  0  0  0  0  0  0  0  0  0  0
   27.6398   33.6326   20.4495 C   0  0  1  0  0  0  0  0  0  0  0  0
   27.1529   31.4429   20.9206 O   0  0  0  0  0  0  0  0  0  0  0  0
   27.2989   35.3269   22.0208 C   0  0  1  0  0  0  0  0  0  0  0  0
   27.2405   34.0233   21.6794 N   0  0  0  0  0  0  0  0  0  0  0  0
   26.8852   35.7202   23.2887 C   0  0  0  0  0  0  0  0  0  0  0  0
   26.9358   37.0562   23.6712 C   0  0  2  0  0  0  0  0  0  0  0  0
   26.4709   37.4127   25.0598 C   0  0  0  0  0  0  0  0  0  0  0  0
   27.4090   38.0189   22.7705 C   0  0  2  0  0  0  0  0  0  0  0  0
   27.4873   39.3492   23.0758 N   0  0  0  0  0  0  0  0  0  0  0  0
   27.8208   37.6079   21.4969 C   0  0  0  0  0  0  0  0  0  0  0  0
   27.7706   36.2694   21.1087 C   0  0  2  0  0  0  0  0  0  0  0  0
   28.1171   34.5718   19.5300 C   0  0  2  0  0  0  0  0  0  0  0  0
   28.1679   35.8843   19.8742 N   0  0  0  0  0  0  0  0  0  0  0  0
   28.5492   39.8272   23.9409 C   0  0  0  0  0  0  0  0  0  0  0  0
   26.5427   40.3277   22.5628 C   0  0  0  0  0  0  0  0  0  0  0  0
  1  2  1  0  0  0  0
  3  1  1  6  0  0  0
  3  4  1  0  0  0  0
  3  5  1  0  0  0  0
  5  6  1  6  0  0  0
  5  7  1  0  0  0  0
  7  8  1  6  0  0  0
  7  9  1  0  0  0  0
  9 27  1  0  0  0  0
 10 11  1  0  0  0  0
 11 12  2  0  0  0  0
 11 13  1  0  0  0  0
 13 14  1  0  0  0  0
 14 16  2  0  0  0  0
 15 14  1  1  0  0  0
 15 18  1  0  0  0  0
 15 26  1  0  0  0  0
 17 19  1  1  0  0  0
 17 25  1  0  0  0  0
 17 18  1  0  0  0  0
 19 20  1  0  0  0  0
 20 21  1  6  0  0  0
 20 22  1  0  0  0  0
 22 23  1  6  0  0  0
 22 24  1  0  0  0  0
 23 28  1  0  0  0  0
 23 29  1  0  0  0  0
 25 24  1  6  0  0  0
 25 27  1  0  0  0  0
 26 10  1  6  0  0  0
 26 27  1  0  0  0  0
M  END
>  <CHROM.1>
-55.99316068,63.26511408,179.70069331,-169.51782088,75.71959688,-90.06059658
27.82661935,36.53923512,19.84521402,-1.25723558,-1.38953982,-3.06146744

>  <Name>
ligand

>  <RI>
0

>  <Rbt.Current_Directory>
/home/itssahil/PROJECTS/Mol_Feturizer/New_Systems/rnas/3F4H

>  <Rbt.Executable>
rbdock ($Id: //depot/dev/client3/rdock/2013.1/src/exe/rbdock.cxx#4 $)

>  <Rbt.Library>
libRbt.so (2013.1, Build901 2013/11/27)

>  <Rbt.Parameter_File>
/export/apps/rDock/src/rDock_2013.1_src/data/scripts/dock_solv.prm

>  <Rbt.Receptor>
prm/blind_docking_80.prm

>  <SCORE>
-49.0559

>  <SCORE.INTER>
-31.4252

>  <SCORE.INTER.CONST>
1

>  <SCORE.INTER.POLAR>
0

>  <SCORE.INTER.ROT>
6

>  <SCORE.INTER.SOLV>
11.1958

>  <SCORE.INTER.VDW>
-32.282

>  <SCORE.INTER.norm>
-1.08363

>  <SCORE.INTRA>
-17.6307

>  <SCORE.INTRA.DIHEDRAL>
-4.287

>  <SCORE.INTRA.DIHEDRAL.0>
6.83446

>  <SCORE.INTRA.POLAR>
0

>  <SCORE.INTRA.POLAR.0>
0

>  <SCORE.INTRA.REPUL>
0

>  <SCORE.INTRA.REPUL.0>
0

>  <SCORE.INTRA.SOLV>
-0.101757

>  <SCORE.INTRA.SOLV.lig_0>
-26.4601

>  <SCORE.INTRA.VDW>
-15.4364

>  <SCORE.INTRA.VDW.0>
13.7853

>  <SCORE.INTRA.norm>
-0.607956

>  <SCORE.RESTR>
0

>  <SCORE.RESTR.CAVITY>
0

>  <SCORE.RESTR.norm>
0

>  <SCORE.SYSTEM>
0

>  <SCORE.SYSTEM.CONST>
0

>  <SCORE.SYSTEM.DIHEDRAL>
0

>  <SCORE.SYSTEM.SOLV>
0

>  <SCORE.SYSTEM.norm>
0

>  <SCORE.heavy>
29

>  <SCORE.norm>
-1.69158

>  <RMSD>
0.994

$$$$
ligand
 OpenBabel11021811473D
libRbt.so/2013.1/901 2013/11/27
 29 31  0  0  0  0  0  0  0  0999 V2000
   28.7863   40.6980   16.4831 C   0  0  0  0  0  0  0  0  0  0  0  0
   29.3636   41.8756   17.0567 O   0  0  0  0  0  0  0  0  0  0  0  0
   28.5407   39.6722   17.5811 C   0  0  1  0  0  0  0  0  0  0  0  0
   27.6501   40.2372   18.5382 O   0  0  0  0  0  0  0  0  0  0  0  0
   27.9496   38.3951   16.9980 C   0  0  1  0  0  0  0  0  0  0  0  0
   28.9291   37.8366   16.1301 O   0  0  0  0  0  0  0  0  0  0  0  0
   27.5103   37.3542   18.0320 C   0  0  1  0  0  0  0  0  0  0  0  0
   26.9300   36.2473   17.3409 O   0  0  0  0  0  0  0  0  0  0  0  0
   28.6581   36.8286   18.8917 C   0  0  0  0  0  0  0  0  0  0  0  0
   28.4954   34.0717   18.3050 N   0  0  0  0  0  0  0  0  0  0  0  0
   28.4347   32.7469   17.9899 C   0  0  0  0  0  0  0  0  0  0  0  0
   28.7846   32.3474   16.8512 O   0  0  0  0  0  0  0  0  0  0  0  0
   27.9905   31.8447   18.9012 N   0  0  0  0  0  0  0  0  0  0  0  0
   27.5998   32.2398   20.1390 C   0  0  0  0  0  0  0  0  0  0  0  0
   27.6574   33.5876   20.4749 C   0  0  1  0  0  0  0  0  0  0  0  0
   27.1874   31.4014   20.9783 O   0  0  0  0  0  0  0  0  0  0  0  0
   27.3336   35.2983   22.0320 C   0  0  1  0  0  0  0  0  0  0  0  0
   27.2756   33.9906   21.7063 N   0  0  0  0  0  0  0  0  0  0  0  0
   26.9380   35.7044   23.3016 C   0  0  0  0  0  0  0  0  0  0  0  0
   26.9888   37.0448   23.6681 C   0  0  2  0  0  0  0  0  0  0  0  0
   26.5439   37.4152   25.0596 C   0  0  0  0  0  0  0  0  0  0  0  0
   27.4437   37.9991   22.7493 C   0  0  2  0  0  0  0  0  0  0  0  0
   27.5210   39.3331   23.0381 N   0  0  0  0  0  0  0  0  0  0  0  0
   27.8374   37.5753   21.4742 C   0  0  0  0  0  0  0  0  0  0  0  0
   27.7870   36.2323   21.1019 C   0  0  2  0  0  0  0  0  0  0  0  0
   28.1163   34.5182   19.5374 C   0  0  2  0  0  0  0  0  0  0  0  0
   28.1668   35.8348   19.8659 N   0  0  0  0  0  0  0  0  0  0  0  0
   26.5410   40.2471   22.4826 C   0  0  0  0  0  0  0  0  0  0  0  0
   28.5548   39.8908   23.8944 C   0  0  0  0  0  0  0  0  0  0  0  0
  1  2  1  0  0  0  0
  3  1  1  6  0  0  0
  3  4  1  0  0  0  0
  3  5  1  0  0  0  0
  5  6  1  6  0  0  0
  5  7  1  0  0  0  0
  7  8  1  6  0  0  0
  7  9  1  0  0  0  0
  9 27  1  0  0  0  0
 10 11  1  0  0  0  0
 11 12  2  0  0  0  0
 11 13  1  0  0  0  0
 13 14  1  0  0  0  0
 14 16  2  0  0  0  0
 15 14  1  1  0  0  0
 15 18  1  0  0  0  0
 15 26  1  0  0  0  0
 17 19  1  1  0  0  0
 17 25  1  0  0  0  0
 17 18  1  0  0  0  0
 19 20  1  0  0  0  0
 20 21  1  6  0  0  0
 20 22  1  0  0  0  0
 22 23  1  6  0  0  0
 22 24  1  0  0  0  0
 23 28  1  0  0  0  0
 23 29  1  0  0  0  0
 25 24  1  6  0  0  0
 25 27  1  0  0  0  0
 26 10  1  6  0  0  0
 26 27  1  0  0  0  0
M  END
>  <CHROM.1>
59.91194476,64.12908929,177.57917628,179.87080425,-105.20611720,-91.84774071
27.85987621,36.57033329,19.94076570,-1.36410751,-1.36820953,-2.94486678

>  <Name>
ligand

>  <RI>
0

>  <Rbt.Current_Directory>
/home/itssahil/PROJECTS/Mol_Feturizer/New_Systems/rnas/3F4H

>  <Rbt.Executable>
rbdock ($Id: //depot/dev/client3/rdock/2013.1/src/exe/rbdock.cxx#4 $)

>  <Rbt.Library>
libRbt.so (2013.1, Build901 2013/11/27)

>  <Rbt.Parameter_File>
/export/apps/rDock/src/rDock_2013.1_src/data/scripts/dock_solv.prm

>  <Rbt.Receptor>
prm/blind_docking_60.prm

>  <SCORE>
-49.1622

>  <SCORE.INTER>
-30.9589

>  <SCORE.INTER.CONST>
1

>  <SCORE.INTER.POLAR>
0

>  <SCORE.INTER.ROT>
6

>  <SCORE.INTER.SOLV>
10.825

>  <SCORE.INTER.VDW>
-31.8476

>  <SCORE.INTER.norm>
-1.06755

>  <SCORE.INTRA>
-18.2034

>  <SCORE.INTRA.DIHEDRAL>
-4.68334

>  <SCORE.INTRA.DIHEDRAL.0>
6.83446

>  <SCORE.INTRA.POLAR>
0

>  <SCORE.INTRA.POLAR.0>
0

>  <SCORE.INTRA.REPUL>
0

>  <SCORE.INTRA.REPUL.0>
0

>  <SCORE.INTRA.SOLV>
-0.402529

>  <SCORE.INTRA.SOLV.lig_0>
-26.4601

>  <SCORE.INTRA.VDW>
-15.6604

>  <SCORE.INTRA.VDW.0>
13.7853

>  <SCORE.INTRA.norm>
-0.627703

>  <SCORE.RESTR>
0

>  <SCORE.RESTR.CAVITY>
0

>  <SCORE.RESTR.norm>
0

>  <SCORE.SYSTEM>
0

>  <SCORE.SYSTEM.CONST>
0

>  <SCORE.SYSTEM.DIHEDRAL>
0

>  <SCORE.SYSTEM.SOLV>
0

>  <SCORE.SYSTEM.norm>
0

>  <SCORE.heavy>
29

>  <SCORE.norm>
-1.69525

>  <RMSD>
0.997

$$$$
ligand
 OpenBabel11021811473D
libRbt.so/2013.1/901 2013/11/27
 29 31  0  0  0  0  0  0  0  0999 V2000
   29.1170   40.3930   16.0769 C   0  0  0  0  0  0  0  0  0  0  0  0
   29.9478   41.4935   16.4612 O   0  0  0  0  0  0  0  0  0  0  0  0
   28.8414   39.5215   17.2946 C   0  0  1  0  0  0  0  0  0  0  0  0
   28.1315   40.2968   18.2554 O   0  0  0  0  0  0  0  0  0  0  0  0
   28.0298   38.2938   16.9016 C   0  0  1  0  0  0  0  0  0  0  0  0
   28.8410   37.5151   16.0297 O   0  0  0  0  0  0  0  0  0  0  0  0
   27.5457   37.4354   18.0739 C   0  0  1  0  0  0  0  0  0  0  0  0
   26.7821   36.3471   17.5524 O   0  0  0  0  0  0  0  0  0  0  0  0
   28.6822   36.8582   18.9154 C   0  0  0  0  0  0  0  0  0  0  0  0
   28.5300   34.1054   18.3072 N   0  0  0  0  0  0  0  0  0  0  0  0
   28.4752   32.7827   17.9822 C   0  0  0  0  0  0  0  0  0  0  0  0
   28.8511   32.3902   16.8495 O   0  0  0  0  0  0  0  0  0  0  0  0
   28.0087   31.8752   18.8770 N   0  0  0  0  0  0  0  0  0  0  0  0
   27.5896   32.2629   20.1078 C   0  0  0  0  0  0  0  0  0  0  0  0
   27.6409   33.6084   20.4537 C   0  0  1  0  0  0  0  0  0  0  0  0
   27.1567   31.4196   20.9318 O   0  0  0  0  0  0  0  0  0  0  0  0
   27.2827   35.3094   22.0138 C   0  0  1  0  0  0  0  0  0  0  0  0
   27.2308   34.0040   21.6784 N   0  0  0  0  0  0  0  0  0  0  0  0
   26.8580   35.7078   23.2765 C   0  0  0  0  0  0  0  0  0  0  0  0
   26.9017   37.0457   23.6528 C   0  0  2  0  0  0  0  0  0  0  0  0
   26.4249   37.4078   25.0358 C   0  0  0  0  0  0  0  0  0  0  0  0
   27.3792   38.0054   22.7511 C   0  0  2  0  0  0  0  0  0  0  0  0
   27.4512   39.3375   23.0503 N   0  0  0  0  0  0  0  0  0  0  0  0
   27.8021   37.5893   21.4828 C   0  0  0  0  0  0  0  0  0  0  0  0
   27.7589   36.2488   21.1008 C   0  0  2  0  0  0  0  0  0  0  0  0
   28.1227   34.5444   19.5333 C   0  0  2  0  0  0  0  0  0  0  0  0
   28.1670   35.8588   19.8714 N   0  0  0  0  0  0  0  0  0  0  0  0
   28.4890   39.8190   23.9422 C   0  0  0  0  0  0  0  0  0  0  0  0
   26.5233   40.3143   22.5048 C   0  0  0  0  0  0  0  0  0  0  0  0
  1  2  1  0  0  0  0
  3  1  1  6  0  0  0
  3  4  1  0  0  0  0
  3  5  1  0  0  0  0
  5  6  1  6  0  0  0
  5  7  1  0  0  0  0
  7  8  1  6  0  0  0
  7  9  1  0  0  0  0
  9 27  1  0  0  0  0
 10 11  1  0  0  0  0
 11 12  2  0  0  0  0
 11 13  1  0  0  0  0
 13 14  1  0  0  0  0
 14 16  2  0  0  0  0
 15 14  1  1  0  0  0
 15 18  1  0  0  0  0
 15 26  1  0  0  0  0
 17 19  1  1  0  0  0
 17 25  1  0  0  0  0
 17 18  1  0  0  0  0
 19 20  1  0  0  0  0
 20 21  1  6  0  0  0
 20 22  1  0  0  0  0
 22 23  1  6  0  0  0
 22 24  1  0  0  0  0
 23 28  1  0  0  0  0
 23 29  1  0  0  0  0
 25 24  1  6  0  0  0
 25 27  1  0  0  0  0
 26 10  1  6  0  0  0
 26 27  1  0  0  0  0
M  END
>  <CHROM.1>
62.33200924,64.58885669,178.78718085,-169.98016287,74.51665005,-89.37714231
27.90111396,36.54369550,19.88059057,-1.16930115,-1.32825127,-2.89000152

>  <Name>
ligand

>  <RI>
0

>  <Rbt.Current_Directory>
/home/itssahil/PROJECTS/Mol_Feturizer/New_Systems/rnas/3F4H

>  <Rbt.Executable>
rbdock ($Id: //depot/dev/client3/rdock/2013.1/src/exe/rbdock.cxx#4 $)

>  <Rbt.Library>
libRbt.so (2013.1, Build901 2013/11/27)

>  <Rbt.Parameter_File>
/export/apps/rDock/src/rDock_2013.1_src/data/scripts/dock_solv.prm

>  <Rbt.Receptor>
prm/pocket_docking_4.prm

>  <SCORE>
-49.6112

>  <SCORE.INTER>
-31.7594

>  <SCORE.INTER.CONST>
1

>  <SCORE.INTER.POLAR>
0

>  <SCORE.INTER.ROT>
6

>  <SCORE.INTER.SOLV>
11.5462

>  <SCORE.INTER.VDW>
-32.6216

>  <SCORE.INTER.norm>
-1.09515

>  <SCORE.INTRA>
-17.8519

>  <SCORE.INTRA.DIHEDRAL>
-4.31308

>  <SCORE.INTRA.DIHEDRAL.0>
6.83446

>  <SCORE.INTRA.POLAR>
0

>  <SCORE.INTRA.POLAR.0>
0

>  <SCORE.INTRA.REPUL>
0

>  <SCORE.INTRA.REPUL.0>
0

>  <SCORE.INTRA.SOLV>
-0.440141

>  <SCORE.INTRA.SOLV.lig_0>
-26.4601

>  <SCORE.INTRA.VDW>
-15.4753

>  <SCORE.INTRA.VDW.0>
13.7853

>  <SCORE.INTRA.norm>
-0.615582

>  <SCORE.RESTR>
0

>  <SCORE.RESTR.CAVITY>
0

>  <SCORE.RESTR.norm>
0

>  <SCORE.SYSTEM>
0

>  <SCORE.SYSTEM.CONST>
0

>  <SCORE.SYSTEM.DIHEDRAL>
0

>  <SCORE.SYSTEM.SOLV>
0

>  <SCORE.SYSTEM.norm>
0

>  <SCORE.heavy>
29

>  <SCORE.norm>
-1.71073

>  <RMSD>
0.998

$$$$
ligand
 OpenBabel11021811473D
libRbt.so/2013.1/901 2013/11/27
 29 31  0  0  0  0  0  0  0  0999 V2000
   28.8047   40.7260   16.5448 C   0  0  0  0  0  0  0  0  0  0  0  0
   27.5096   41.1554   16.1120 O   0  0  0  0  0  0  0  0  0  0  0  0
   28.6478   39.6497   17.6102 C   0  0  1  0  0  0  0  0  0  0  0  0
   27.8676   40.1791   18.6777 O   0  0  0  0  0  0  0  0  0  0  0  0
   27.9763   38.4131   17.0271 C   0  0  1  0  0  0  0  0  0  0  0  0
   28.8966   37.8259   16.1144 O   0  0  0  0  0  0  0  0  0  0  0  0
   27.5252   37.3744   18.0583 C   0  0  1  0  0  0  0  0  0  0  0  0
   26.8941   36.2957   17.3672 O   0  0  0  0  0  0  0  0  0  0  0  0
   28.6733   36.8011   18.8866 C   0  0  0  0  0  0  0  0  0  0  0  0
   28.4888   34.0492   18.2831 N   0  0  0  0  0  0  0  0  0  0  0  0
   28.4178   32.7268   17.9600 C   0  0  0  0  0  0  0  0  0  0  0  0
   28.7668   32.3312   16.8197 O   0  0  0  0  0  0  0  0  0  0  0  0
   27.9641   31.8229   18.8650 N   0  0  0  0  0  0  0  0  0  0  0  0
   27.5740   32.2139   20.1042 C   0  0  0  0  0  0  0  0  0  0  0  0
   27.6421   33.5592   20.4483 C   0  0  1  0  0  0  0  0  0  0  0  0
   27.1527   31.3740   20.9376 O   0  0  0  0  0  0  0  0  0  0  0  0
   27.3291   35.2632   22.0148 C   0  0  1  0  0  0  0  0  0  0  0  0
   27.2609   33.9580   21.6812 N   0  0  0  0  0  0  0  0  0  0  0  0
   26.9342   35.6650   23.2860 C   0  0  0  0  0  0  0  0  0  0  0  0
   26.9953   37.0027   23.6606 C   0  0  2  0  0  0  0  0  0  0  0  0
   26.5504   37.3686   25.0533 C   0  0  0  0  0  0  0  0  0  0  0  0
   27.4602   37.9587   22.7485 C   0  0  2  0  0  0  0  0  0  0  0  0
   27.5479   39.2903   23.0454 N   0  0  0  0  0  0  0  0  0  0  0  0
   27.8531   37.5392   21.4717 C   0  0  0  0  0  0  0  0  0  0  0  0
   27.7924   36.1989   21.0914 C   0  0  2  0  0  0  0  0  0  0  0  0
   28.1108   34.4914   19.5173 C   0  0  2  0  0  0  0  0  0  0  0  0
   28.1715   35.8056   19.8538 N   0  0  0  0  0  0  0  0  0  0  0  0
   26.5834   40.2172   22.4843 C   0  0  0  0  0  0  0  0  0  0  0  0
   28.5779   39.8327   23.9159 C   0  0  0  0  0  0  0  0  0  0  0  0
  1  2  1  0  0  0  0
  3  1  1  6  0  0  0
  3  4  1  0  0  0  0
  3  5  1  0  0  0  0
  5  6  1  6  0  0  0
  5  7  1  0  0  0  0
  7  8  1  6  0  0  0
  7  9  1  0  0  0  0
  9 27  1  0  0  0  0
 10 11  1  0  0  0  0
 11 12  2  0  0  0  0
 11 13  1  0  0  0  0
 13 14  1  0  0  0  0
 14 16  2  0  0  0  0
 15 14  1  1  0  0  0
 15 18  1  0  0  0  0
 15 26  1  0  0  0  0
 17 19  1  1  0  0  0
 17 25  1  0  0  0  0
 17 18  1  0  0  0  0
 19 20  1  0  0  0  0
 20 21  1  6  0  0  0
 20 22  1  0  0  0  0
 22 23  1  6  0  0  0
 22 24  1  0  0  0  0
 23 28  1  0  0  0  0
 23 29  1  0  0  0  0
 25 24  1  6  0  0  0
 25 27  1  0  0  0  0
 26 10  1  6  0  0  0
 26 27  1  0  0  0  0
M  END
>  <CHROM.1>
-57.13173511,68.51218841,178.80198433,-179.76895580,-105.71944624,-90.01713886
27.79665460,36.51916768,19.90326032,-1.53633735,-1.41247519,-3.12546344

>  <Name>
ligand

>  <RI>
0

>  <Rbt.Current_Directory>
/home/itssahil/PROJECTS/Mol_Feturizer/New_Systems/rnas/3F4H

>  <Rbt.Executable>
rbdock ($Id: //depot/dev/client3/rdock/2013.1/src/exe/rbdock.cxx#4 $)

>  <Rbt.Library>
libRbt.so (2013.1, Build901 2013/11/27)

>  <Rbt.Parameter_File>
/export/apps/rDock/src/rDock_2013.1_src/data/scripts/dock_solv.prm

>  <Rbt.Receptor>
prm/pocket_docking_5.prm

>  <SCORE>
-48.9345

>  <SCORE.INTER>
-30.9831

>  <SCORE.INTER.CONST>
1

>  <SCORE.INTER.POLAR>
0

>  <SCORE.INTER.ROT>
6

>  <SCORE.INTER.SOLV>
10.3482

>  <SCORE.INTER.VDW>
-31.7048

>  <SCORE.INTER.norm>
-1.06838

>  <SCORE.INTRA>
-17.9514

>  <SCORE.INTRA.DIHEDRAL>
-4.47082

>  <SCORE.INTRA.DIHEDRAL.0>
6.83446

>  <SCORE.INTRA.POLAR>
0

>  <SCORE.INTRA.POLAR.0>
0

>  <SCORE.INTRA.REPUL>
0

>  <SCORE.INTRA.REPUL.0>
0

>  <SCORE.INTRA.SOLV>
-0.0428817

>  <SCORE.INTRA.SOLV.lig_0>
-26.4601

>  <SCORE.INTRA.VDW>
-15.6946

>  <SCORE.INTRA.VDW.0>
13.7853

>  <SCORE.INTRA.norm>
-0.619014

>  <SCORE.RESTR>
0

>  <SCORE.RESTR.CAVITY>
0

>  <SCORE.RESTR.norm>
0

>  <SCORE.SYSTEM>
0

>  <SCORE.SYSTEM.CONST>
0

>  <SCORE.SYSTEM.DIHEDRAL>
0

>  <SCORE.SYSTEM.SOLV>
0

>  <SCORE.SYSTEM.norm>
0

>  <SCORE.heavy>
29

>  <SCORE.norm>
-1.6874

>  <RMSD>
0.998

$$$$
ligand
 OpenBabel11021811473D
libRbt.so/2013.1/901 2013/11/27
 29 31  0  0  0  0  0  0  0  0999 V2000
   29.1106   40.3763   16.0821 C   0  0  0  0  0  0  0  0  0  0  0  0
   30.0187   41.4267   16.4298 O   0  0  0  0  0  0  0  0  0  0  0  0
   28.8599   39.5031   17.3039 C   0  0  1  0  0  0  0  0  0  0  0  0
   28.2441   40.2994   18.3114 O   0  0  0  0  0  0  0  0  0  0  0  0
   27.9674   38.3223   16.9440 C   0  0  1  0  0  0  0  0  0  0  0  0
   28.6854   37.5211   16.0127 O   0  0  0  0  0  0  0  0  0  0  0  0
   27.5144   37.4676   18.1314 C   0  0  1  0  0  0  0  0  0  0  0  0
   26.6742   36.4219   17.6413 O   0  0  0  0  0  0  0  0  0  0  0  0
   28.6710   36.8284   18.8972 C   0  0  0  0  0  0  0  0  0  0  0  0
   28.4836   34.0758   18.2976 N   0  0  0  0  0  0  0  0  0  0  0  0
   28.4113   32.7531   17.9763 C   0  0  0  0  0  0  0  0  0  0  0  0
   28.7596   32.3556   16.8365 O   0  0  0  0  0  0  0  0  0  0  0  0
   27.9568   31.8509   18.8826 N   0  0  0  0  0  0  0  0  0  0  0  0
   27.5674   32.2440   20.1214 C   0  0  0  0  0  0  0  0  0  0  0  0
   27.6369   33.5897   20.4636 C   0  0  1  0  0  0  0  0  0  0  0  0
   27.1455   31.4057   20.9561 O   0  0  0  0  0  0  0  0  0  0  0  0
   27.3261   35.2961   22.0279 C   0  0  1  0  0  0  0  0  0  0  0  0
   27.2565   33.9906   21.6961 N   0  0  0  0  0  0  0  0  0  0  0  0
   26.9318   35.7001   23.2986 C   0  0  0  0  0  0  0  0  0  0  0  0
   26.9944   37.0383   23.6713 C   0  0  2  0  0  0  0  0  0  0  0  0
   26.5503   37.4065   25.0637 C   0  0  0  0  0  0  0  0  0  0  0  0
   27.4600   37.9925   22.7578 C   0  0  2  0  0  0  0  0  0  0  0  0
   27.5492   39.3245   23.0529 N   0  0  0  0  0  0  0  0  0  0  0  0
   27.8522   37.5709   21.4815 C   0  0  0  0  0  0  0  0  0  0  0  0
   27.7900   36.2301   21.1030 C   0  0  2  0  0  0  0  0  0  0  0  0
   28.1064   34.5202   19.5313 C   0  0  2  0  0  0  0  0  0  0  0  0
   28.1685   35.8347   19.8659 N   0  0  0  0  0  0  0  0  0  0  0  0
   26.5927   40.2533   22.4811 C   0  0  0  0  0  0  0  0  0  0  0  0
   28.5729   39.8655   23.9316 C   0  0  0  0  0  0  0  0  0  0  0  0
  1  2  1  0  0  0  0
  3  1  1  6  0  0  0
  3  4  1  0  0  0  0
  3  5  1  0  0  0  0
  5  6  1  6  0  0  0
  5  7  1  0  0  0  0
  7  8  1  6  0  0  0
  7  9  1  0  0  0  0
  9 27  1  0  0  0  0
 10 11  1  0  0  0  0
 11 12  2  0  0  0  0
 11 13  1  0  0  0  0
 13 14  1  0  0  0  0
 14 16  2  0  0  0  0
 15 14  1  1  0  0  0
 15 18  1  0  0  0  0
 15 26  1  0  0  0  0
 17 19  1  1  0  0  0
 17 25  1  0  0  0  0
 17 18  1  0  0  0  0
 19 20  1  0  0  0  0
 20 21  1  6  0  0  0
 20 22  1  0  0  0  0
 22 23  1  6  0  0  0
 22 24  1  0  0  0  0
 23 28  1  0  0  0  0
 23 29  1  0  0  0  0
 25 24  1  6  0  0  0
 25 27  1  0  0  0  0
 26 10  1  6  0  0  0
 26 27  1  0  0  0  0
M  END
>  <CHROM.1>
62.51663420,64.20529122,179.07955291,-169.81663963,-106.27077627,-86.34412366
27.91015993,36.53277174,19.89050905,-1.10357873,-1.34156738,-2.82319943

>  <Name>
ligand

>  <RI>
0

>  <Rbt.Current_Directory>
/home/itssahil/PROJECTS/Mol_Feturizer/New_Systems/rnas/3F4H

>  <Rbt.Executable>
rbdock ($Id: //depot/dev/client3/rdock/2013.1/src/exe/rbdock.cxx#4 $)

>  <Rbt.Library>
libRbt.so (2013.1, Build901 2013/11/27)

>  <Rbt.Parameter_File>
/export/apps/rDock/src/rDock_2013.1_src/data/scripts/dock_solv.prm

>  <Rbt.Receptor>
prm/pocket_docking_6.prm

>  <SCORE>
-49.4196

>  <SCORE.INTER>
-31.5866

>  <SCORE.INTER.CONST>
1

>  <SCORE.INTER.POLAR>
0

>  <SCORE.INTER.ROT>
6

>  <SCORE.INTER.SOLV>
11.5266

>  <SCORE.INTER.VDW>
-32.4999

>  <SCORE.INTER.norm>
-1.08919

>  <SCORE.INTRA>
-17.833

>  <SCORE.INTRA.DIHEDRAL>
-4.31435

>  <SCORE.INTRA.DIHEDRAL.0>
6.83446

>  <SCORE.INTRA.POLAR>
0

>  <SCORE.INTRA.POLAR.0>
0

>  <SCORE.INTRA.REPUL>
0

>  <SCORE.INTRA.REPUL.0>
0

>  <SCORE.INTRA.SOLV>
-0.442669

>  <SCORE.INTRA.SOLV.lig_0>
-26.4601

>  <SCORE.INTRA.VDW>
-15.4545

>  <SCORE.INTRA.VDW.0>
13.7853

>  <SCORE.INTRA.norm>
-0.61493

>  <SCORE.RESTR>
0

>  <SCORE.RESTR.CAVITY>
0

>  <SCORE.RESTR.norm>
0

>  <SCORE.SYSTEM>
0

>  <SCORE.SYSTEM.CONST>
0

>  <SCORE.SYSTEM.DIHEDRAL>
0

>  <SCORE.SYSTEM.SOLV>
0

>  <SCORE.SYSTEM.norm>
0

>  <SCORE.heavy>
29

>  <SCORE.norm>
-1.70412

>  <RMSD>
1.000

$$$$
ligand
 OpenBabel11021811473D
libRbt.so/2013.1/901 2013/11/27
 29 31  0  0  0  0  0  0  0  0999 V2000
   28.9145   40.6249   16.3768 C   0  0  0  0  0  0  0  0  0  0  0  0
   27.6404   41.0799   15.9094 O   0  0  0  0  0  0  0  0  0  0  0  0
   28.7086   39.6369   17.5169 C   0  0  1  0  0  0  0  0  0  0  0  0
   28.0037   40.2949   18.5650 O   0  0  0  0  0  0  0  0  0  0  0  0
   27.9275   38.4205   17.0366 C   0  0  1  0  0  0  0  0  0  0  0  0
   28.7475   37.7398   16.0938 O   0  0  0  0  0  0  0  0  0  0  0  0
   27.4874   37.4560   18.1420 C   0  0  1  0  0  0  0  0  0  0  0  0
   26.6938   36.4252   17.5529 O   0  0  0  0  0  0  0  0  0  0  0  0
   28.6544   36.7972   18.8746 C   0  0  0  0  0  0  0  0  0  0  0  0
   28.5241   34.0412   18.2756 N   0  0  0  0  0  0  0  0  0  0  0  0
   28.4793   32.7171   17.9547 C   0  0  0  0  0  0  0  0  0  0  0  0
   28.8434   32.3257   16.8177 O   0  0  0  0  0  0  0  0  0  0  0  0
   28.0357   31.8069   18.8583 N   0  0  0  0  0  0  0  0  0  0  0  0
   27.6299   32.1932   20.0940 C   0  0  0  0  0  0  0  0  0  0  0  0
   27.6712   33.5402   20.4358 C   0  0  1  0  0  0  0  0  0  0  0  0
   27.2181   31.3474   20.9262 O   0  0  0  0  0  0  0  0  0  0  0  0
   27.3165   35.2412   21.9966 C   0  0  1  0  0  0  0  0  0  0  0  0
   27.2743   33.9344   21.6652 N   0  0  0  0  0  0  0  0  0  0  0  0
   26.9055   35.6383   23.2642 C   0  0  0  0  0  0  0  0  0  0  0  0
   26.9397   36.9776   23.6364 C   0  0  2  0  0  0  0  0  0  0  0  0
   26.4786   37.3380   25.0253 C   0  0  0  0  0  0  0  0  0  0  0  0
   27.3936   37.9400   22.7256 C   0  0  2  0  0  0  0  0  0  0  0  0
   27.4552   39.2736   23.0204 N   0  0  0  0  0  0  0  0  0  0  0  0
   27.8030   37.5253   21.4524 C   0  0  0  0  0  0  0  0  0  0  0  0
   27.7692   36.1834   21.0744 C   0  0  2  0  0  0  0  0  0  0  0  0
   28.1295   34.4789   19.5062 C   0  0  2  0  0  0  0  0  0  0  0  0
   28.1640   35.7946   19.8404 N   0  0  0  0  0  0  0  0  0  0  0  0
   28.4919   39.7670   23.9071 C   0  0  0  0  0  0  0  0  0  0  0  0
   26.5168   40.2407   22.4752 C   0  0  0  0  0  0  0  0  0  0  0  0
  1  2  1  0  0  0  0
  3  1  1  6  0  0  0
  3  4  1  0  0  0  0
  3  5  1  0  0  0  0
  5  6  1  6  0  0  0
  5  7  1  0  0  0  0
  7  8  1  6  0  0  0
  7  9  1  0  0  0  0
  9 27  1  0  0  0  0
 10 11  1  0  0  0  0
 11 12  2  0  0  0  0
 11 13  1  0  0  0  0
 13 14  1  0  0  0  0
 14 16  2  0  0  0  0
 15 14  1  1  0  0  0
 15 18  1  0  0  0  0
 15 26  1  0  0  0  0
 17 19  1  1  0  0  0
 17 25  1  0  0  0  0
 17 18  1  0  0  0  0
 19 20  1  0  0  0  0
 20 21  1  6  0  0  0
 20 22  1  0  0  0  0
 22 23  1  6  0  0  0
 22 24  1  0  0  0  0
 23 28  1  0  0  0  0
 23 29  1  0  0  0  0
 25 24  1  6  0  0  0
 25 27  1  0  0  0  0
 26 10  1  6  0  0  0
 26 27  1  0  0  0  0
M  END
>  <CHROM.1>
-59.64297521,65.74170206,176.02842750,-174.96530956,73.88807068,-83.95123752
27.79148601,36.50910492,19.88130846,-1.52283777,-1.40032350,3.10760984

>  <Name>
ligand

>  <RI>
0

>  <Rbt.Current_Directory>
/home/itssahil/PROJECTS/Mol_Feturizer/New_Systems/rnas/3F4H

>  <Rbt.Executable>
rbdock ($Id: //depot/dev/client3/rdock/2013.1/src/exe/rbdock.cxx#4 $)

>  <Rbt.Library>
libRbt.so (2013.1, Build901 2013/11/27)

>  <Rbt.Parameter_File>
/export/apps/rDock/src/rDock_2013.1_src/data/scripts/dock_solv.prm

>  <Rbt.Receptor>
prm/blind_docking_100.prm

>  <SCORE>
-49.1672

>  <SCORE.INTER>
-31.3468

>  <SCORE.INTER.CONST>
1

>  <SCORE.INTER.POLAR>
0

>  <SCORE.INTER.ROT>
6

>  <SCORE.INTER.SOLV>
11.0272

>  <SCORE.INTER.VDW>
-32.1736

>  <SCORE.INTER.norm>
-1.08092

>  <SCORE.INTRA>
-17.8204

>  <SCORE.INTRA.DIHEDRAL>
-4.49875

>  <SCORE.INTRA.DIHEDRAL.0>
6.83446

>  <SCORE.INTRA.POLAR>
0

>  <SCORE.INTRA.POLAR.0>
0

>  <SCORE.INTRA.REPUL>
0

>  <SCORE.INTRA.REPUL.0>
0

>  <SCORE.INTRA.SOLV>
-0.074968

>  <SCORE.INTRA.SOLV.lig_0>
-26.4601

>  <SCORE.INTRA.VDW>
-15.5335

>  <SCORE.INTRA.VDW.0>
13.7853

>  <SCORE.INTRA.norm>
-0.614495

>  <SCORE.RESTR>
0

>  <SCORE.RESTR.CAVITY>
0

>  <SCORE.RESTR.norm>
0

>  <SCORE.SYSTEM>
0

>  <SCORE.SYSTEM.CONST>
0

>  <SCORE.SYSTEM.DIHEDRAL>
0

>  <SCORE.SYSTEM.SOLV>
0

>  <SCORE.SYSTEM.norm>
0

>  <SCORE.heavy>
29

>  <SCORE.norm>
-1.69542

>  <RMSD>
1.001

$$$$
ligand
 OpenBabel11021811473D
libRbt.so/2013.1/901 2013/11/27
 29 31  0  0  0  0  0  0  0  0999 V2000
   28.5732   40.8436   16.6134 C   0  0  0  0  0  0  0  0  0  0  0  0
   29.0944   42.0309   17.2197 O   0  0  0  0  0  0  0  0  0  0  0  0
   28.4283   39.7597   17.6728 C   0  0  1  0  0  0  0  0  0  0  0  0
   27.5027   40.2093   18.6575 O   0  0  0  0  0  0  0  0  0  0  0  0
   27.9430   38.4593   17.0454 C   0  0  1  0  0  0  0  0  0  0  0  0
   28.9968   37.9699   16.2240 O   0  0  0  0  0  0  0  0  0  0  0  0
   27.5116   37.3805   18.0433 C   0  0  1  0  0  0  0  0  0  0  0  0
   26.9681   36.2803   17.3129 O   0  0  0  0  0  0  0  0  0  0  0  0
   28.6576   36.8576   18.9072 C   0  0  0  0  0  0  0  0  0  0  0  0
   28.5301   34.1042   18.2958 N   0  0  0  0  0  0  0  0  0  0  0  0
   28.4868   32.7816   17.9689 C   0  0  0  0  0  0  0  0  0  0  0  0
   28.8515   32.3956   16.8303 O   0  0  0  0  0  0  0  0  0  0  0  0
   28.0438   31.8669   18.8684 N   0  0  0  0  0  0  0  0  0  0  0  0
   27.6373   32.2473   20.1057 C   0  0  0  0  0  0  0  0  0  0  0  0
   27.6772   33.5927   20.4535 C   0  0  1  0  0  0  0  0  0  0  0  0
   27.2261   31.3974   20.9340 O   0  0  0  0  0  0  0  0  0  0  0  0
   27.3204   35.2864   22.0218 C   0  0  1  0  0  0  0  0  0  0  0  0
   27.2795   33.9811   21.6846 N   0  0  0  0  0  0  0  0  0  0  0  0
   26.9086   35.6774   23.2910 C   0  0  0  0  0  0  0  0  0  0  0  0
   26.9414   37.0151   23.6692 C   0  0  2  0  0  0  0  0  0  0  0  0
   26.4796   37.3689   25.0596 C   0  0  0  0  0  0  0  0  0  0  0  0
   27.3946   37.9820   22.7628 C   0  0  2  0  0  0  0  0  0  0  0  0
   27.4547   39.3144   23.0636 N   0  0  0  0  0  0  0  0  0  0  0  0
   27.8047   37.5734   21.4880 C   0  0  0  0  0  0  0  0  0  0  0  0
   27.7724   36.2332   21.1040 C   0  0  2  0  0  0  0  0  0  0  0  0
   28.1348   34.5361   19.5282 C   0  0  2  0  0  0  0  0  0  0  0  0
   28.1679   35.8503   19.8683 N   0  0  0  0  0  0  0  0  0  0  0  0
   28.4972   39.8064   23.9443 C   0  0  0  0  0  0  0  0  0  0  0  0
   26.5093   40.2813   22.5308 C   0  0  0  0  0  0  0  0  0  0  0  0
  1  2  1  0  0  0  0
  3  1  1  6  0  0  0
  3  4  1  0  0  0  0
  3  5  1  0  0  0  0
  5  6  1  1  0  0  0
  5  7  1  0  0  0  0
  7  8  1  6  0  0  0
  7  9  1  0  0  0  0
  9 27  1  0  0  0  0
 10 11  1  0  0  0  0
 11 12  2  0  0  0  0
 11 13  1  0  0  0  0
 13 14  1  0  0  0  0
 14 16  2  0  0  0  0
 15 14  1  1  0  0  0
 15 18  1  0  0  0  0
 15 26  1  0  0  0  0
 17 19  1  1  0  0  0
 17 25  1  0  0  0  0
 17 18  1  0  0  0  0
 19 20  1  0  0  0  0
 20 21  1  6  0  0  0
 20 22  1  0  0  0  0
 22 23  1  6  0  0  0
 22 24  1  0  0  0  0
 23 28  1  0  0  0  0
 23 29  1  0  0  0  0
 25 24  1  6  0  0  0
 25 27  1  0  0  0  0
 26 10  1  6  0  0  0
 26 27  1  0  0  0  0
M  END
>  <CHROM.1>
61.77768678,68.26758320,174.59090771,178.48379069,74.37868253,-91.71420249
27.83364147,36.59303809,19.96235138,-1.48327752,-1.37088546,-3.03763419

>  <Name>
ligand

>  <RI>
0

>  <Rbt.Current_Directory>
/home/itssahil/PROJECTS/Mol_Feturizer/New_Systems/rnas/3F4H

>  <Rbt.Executable>
rbdock ($Id: //depot/dev/client3/rdock/2013.1/src/exe/rbdock.cxx#4 $)

>  <Rbt.Library>
libRbt.so (2013.1, Build901 2013/11/27)

>  <Rbt.Parameter_File>
/export/apps/rDock/src/rDock_2013.1_src/data/scripts/dock_solv.prm

>  <Rbt.Receptor>
prm/blind_docking_80.prm

>  <SCORE>
-49.1946

>  <SCORE.INTER>
-31.0887

>  <SCORE.INTER.CONST>
1

>  <SCORE.INTER.POLAR>
0

>  <SCORE.INTER.ROT>
6

>  <SCORE.INTER.SOLV>
10.7134

>  <SCORE.INTER.VDW>
-31.8969

>  <SCORE.INTER.norm>
-1.07202

>  <SCORE.INTRA>
-18.1086

>  <SCORE.INTRA.DIHEDRAL>
-4.38996

>  <SCORE.INTRA.DIHEDRAL.0>
6.83446

>  <SCORE.INTRA.POLAR>
0

>  <SCORE.INTRA.POLAR.0>
0

>  <SCORE.INTRA.REPUL>
0

>  <SCORE.INTRA.REPUL.0>
0

>  <SCORE.INTRA.SOLV>
-0.393095

>  <SCORE.INTRA.SOLV.lig_0>
-26.4601

>  <SCORE.INTRA.VDW>
-15.7171

>  <SCORE.INTRA.VDW.0>
13.7853

>  <SCORE.INTRA.norm>
-0.624435

>  <SCORE.RESTR>
0.00264334

>  <SCORE.RESTR.CAVITY>
0.00264334

>  <SCORE.RESTR.norm>
9.11497e-05

>  <SCORE.SYSTEM>
0

>  <SCORE.SYSTEM.CONST>
0

>  <SCORE.SYSTEM.DIHEDRAL>
0

>  <SCORE.SYSTEM.SOLV>
0

>  <SCORE.SYSTEM.norm>
0

>  <SCORE.heavy>
29

>  <SCORE.norm>
-1.69637

>  <RMSD>
1.001

$$$$
ligand
 OpenBabel11021811473D
libRbt.so/2013.1/901 2013/11/27
 29 31  0  0  0  0  0  0  0  0999 V2000
   29.1139   40.8125   16.7374 C   0  0  0  0  0  0  0  0  0  0  0  0
   29.9580   40.3061   15.6982 O   0  0  0  0  0  0  0  0  0  0  0  0
   28.9047   39.7303   17.7877 C   0  0  1  0  0  0  0  0  0  0  0  0
   28.2697   40.3149   18.9206 O   0  0  0  0  0  0  0  0  0  0  0  0
   28.0514   38.5992   17.2283 C   0  0  1  0  0  0  0  0  0  0  0  0
   28.8204   37.9508   16.2218 O   0  0  0  0  0  0  0  0  0  0  0  0
   27.5730   37.5765   18.2631 C   0  0  1  0  0  0  0  0  0  0  0  0
   26.7800   36.5944   17.5950 O   0  0  0  0  0  0  0  0  0  0  0  0
   28.7138   36.8580   18.9809 C   0  0  0  0  0  0  0  0  0  0  0  0
   28.5242   34.1137   18.3454 N   0  0  0  0  0  0  0  0  0  0  0  0
   28.4516   32.7952   18.0072 C   0  0  0  0  0  0  0  0  0  0  0  0
   28.8221   32.4089   16.8706 O   0  0  0  0  0  0  0  0  0  0  0  0
   27.9728   31.8852   18.8930 N   0  0  0  0  0  0  0  0  0  0  0  0
   27.5590   32.2663   20.1277 C   0  0  0  0  0  0  0  0  0  0  0  0
   27.6286   33.6075   20.4870 C   0  0  1  0  0  0  0  0  0  0  0  0
   27.1147   31.4208   20.9433 O   0  0  0  0  0  0  0  0  0  0  0  0
   27.2935   35.2975   22.0640 C   0  0  1  0  0  0  0  0  0  0  0  0
   27.2239   33.9963   21.7156 N   0  0  0  0  0  0  0  0  0  0  0  0
   26.8743   35.6891   23.3306 C   0  0  0  0  0  0  0  0  0  0  0  0
   26.9361   37.0225   23.7202 C   0  0  2  0  0  0  0  0  0  0  0  0
   26.4642   37.3772   25.1068 C   0  0  0  0  0  0  0  0  0  0  0  0
   27.4265   37.9845   22.8280 C   0  0  2  0  0  0  0  0  0  0  0  0
   27.5166   39.3124   23.1404 N   0  0  0  0  0  0  0  0  0  0  0  0
   27.8437   37.5753   21.5555 C   0  0  0  0  0  0  0  0  0  0  0  0
   27.7823   36.2395   21.1602 C   0  0  2  0  0  0  0  0  0  0  0  0
   28.1230   34.5460   19.5758 C   0  0  2  0  0  0  0  0  0  0  0  0
   28.1851   35.8562   19.9270 N   0  0  0  0  0  0  0  0  0  0  0  0
   26.5640   40.2500   22.5766 C   0  0  0  0  0  0  0  0  0  0  0  0
   28.5376   39.8405   24.0302 C   0  0  0  0  0  0  0  0  0  0  0  0
  1  2  1  0  0  0  0
  3  1  1  6  0  0  0
  3  4  1  0  0  0  0
  3  5  1  0  0  0  0
  5  6  1  6  0  0  0
  5  7  1  0  0  0  0
  7  8  1  6  0  0  0
  7  9  1  0  0  0  0
  9 27  1  0  0  0  0
 10 11  1  0  0  0  0
 11 12  2  0  0  0  0
 11 13  1  0  0  0  0
 13 14  1  0  0  0  0
 14 16  2  0  0  0  0
 15 14  1  1  0  0  0
 15 18  1  0  0  0  0
 15 26  1  0  0  0  0
 17 19  1  1  0  0  0
 17 25  1  0  0  0  0
 17 18  1  0  0  0  0
 19 20  1  0  0  0  0
 20 21  1  6  0  0  0
 20 22  1  0  0  0  0
 22 23  1  6  0  0  0
 22 24  1  0  0  0  0
 23 28  1  0  0  0  0
 23 29  1  0  0  0  0
 25 24  1  6  0  0  0
 25 27  1  0  0  0  0
 26 10  1  6  0  0  0
 26 27  1  0  0  0  0
M  END
>  <CHROM.1>
169.74859712,67.50792389,179.39156295,-178.01224975,-105.24751161,-82.68447569
27.91730058,36.55530710,19.97809528,-1.23203215,-1.32410227,-2.86245861

>  <Name>
ligand

>  <RI>
0

>  <Rbt.Current_Directory>
/home/itssahil/PROJECTS/Mol_Feturizer/New_Systems/rnas/3F4H

>  <Rbt.Executable>
rbdock ($Id: //depot/dev/client3/rdock/2013.1/src/exe/rbdock.cxx#4 $)

>  <Rbt.Library>
libRbt.so (2013.1, Build901 2013/11/27)

>  <Rbt.Parameter_File>
/export/apps/rDock/src/rDock_2013.1_src/data/scripts/dock_solv.prm

>  <Rbt.Receptor>
prm/blind_docking_60.prm

>  <SCORE>
-48.8889

>  <SCORE.INTER>
-31.1032

>  <SCORE.INTER.CONST>
1

>  <SCORE.INTER.POLAR>
0

>  <SCORE.INTER.ROT>
6

>  <SCORE.INTER.SOLV>
11.0686

>  <SCORE.INTER.VDW>
-32.025

>  <SCORE.INTER.norm>
-1.07252

>  <SCORE.INTRA>
-17.7858

>  <SCORE.INTRA.DIHEDRAL>
-4.17636

>  <SCORE.INTRA.DIHEDRAL.0>
6.83446

>  <SCORE.INTRA.POLAR>
0

>  <SCORE.INTRA.POLAR.0>
0

>  <SCORE.INTRA.REPUL>
0

>  <SCORE.INTRA.REPUL.0>
0

>  <SCORE.INTRA.SOLV>
-0.0897826

>  <SCORE.INTRA.SOLV.lig_0>
-26.4601

>  <SCORE.INTRA.VDW>
-15.6527

>  <SCORE.INTRA.VDW.0>
13.7853

>  <SCORE.INTRA.norm>
-0.613302

>  <SCORE.RESTR>
0

>  <SCORE.RESTR.CAVITY>
0

>  <SCORE.RESTR.norm>
0

>  <SCORE.SYSTEM>
0

>  <SCORE.SYSTEM.CONST>
0

>  <SCORE.SYSTEM.DIHEDRAL>
0

>  <SCORE.SYSTEM.SOLV>
0

>  <SCORE.SYSTEM.norm>
0

>  <SCORE.heavy>
29

>  <SCORE.norm>
-1.68582

>  <RMSD>
1.002

$$$$
ligand
 OpenBabel11021811473D
libRbt.so/2013.1/901 2013/11/27
 29 31  0  0  0  0  0  0  0  0999 V2000
   29.1187   40.3878   16.0789 C   0  0  0  0  0  0  0  0  0  0  0  0
   27.8974   40.9924   15.6409 O   0  0  0  0  0  0  0  0  0  0  0  0
   28.8413   39.5208   17.2994 C   0  0  1  0  0  0  0  0  0  0  0  0
   28.1435   40.3041   18.2626 O   0  0  0  0  0  0  0  0  0  0  0  0
   28.0164   38.3000   16.9125 C   0  0  1  0  0  0  0  0  0  0  0  0
   28.8098   37.5206   16.0249 O   0  0  0  0  0  0  0  0  0  0  0  0
   27.5444   37.4388   18.0877 C   0  0  1  0  0  0  0  0  0  0  0  0
   26.7467   36.3713   17.5742 O   0  0  0  0  0  0  0  0  0  0  0  0
   28.6895   36.8305   18.8948 C   0  0  0  0  0  0  0  0  0  0  0  0
   28.5173   34.0742   18.3078 N   0  0  0  0  0  0  0  0  0  0  0  0
   28.4526   32.7496   17.9928 C   0  0  0  0  0  0  0  0  0  0  0  0
   28.8169   32.3468   16.8599 O   0  0  0  0  0  0  0  0  0  0  0  0
   27.9887   31.8511   18.8981 N   0  0  0  0  0  0  0  0  0  0  0  0
   27.5820   32.2499   20.1295 C   0  0  0  0  0  0  0  0  0  0  0  0
   27.6435   33.5976   20.4652 C   0  0  1  0  0  0  0  0  0  0  0  0
   27.1514   31.4150   20.9631 O   0  0  0  0  0  0  0  0  0  0  0  0
   27.3076   35.3117   22.0159 C   0  0  1  0  0  0  0  0  0  0  0  0
   27.2458   34.0042   21.6904 N   0  0  0  0  0  0  0  0  0  0  0  0
   26.8957   35.7215   23.2791 C   0  0  0  0  0  0  0  0  0  0  0  0
   26.9498   37.0619   23.6453 C   0  0  2  0  0  0  0  0  0  0  0  0
   26.4865   37.4365   25.0296 C   0  0  0  0  0  0  0  0  0  0  0  0
   27.4249   38.0124   22.7327 C   0  0  2  0  0  0  0  0  0  0  0  0
   27.5067   39.3461   23.0216 N   0  0  0  0  0  0  0  0  0  0  0  0
   27.8349   37.5848   21.4640 C   0  0  0  0  0  0  0  0  0  0  0  0
   27.7812   36.2419   21.0921 C   0  0  2  0  0  0  0  0  0  0  0  0
   28.1227   34.5243   19.5340 C   0  0  2  0  0  0  0  0  0  0  0  0
   28.1769   35.8408   19.8622 N   0  0  0  0  0  0  0  0  0  0  0  0
   26.5481   40.2676   22.4417 C   0  0  0  0  0  0  0  0  0  0  0  0
   28.5245   39.8962   23.9016 C   0  0  0  0  0  0  0  0  0  0  0  0
  1  2  1  0  0  0  0
  3  1  1  6  0  0  0
  3  4  1  0  0  0  0
  3  5  1  0  0  0  0
  5  6  1  6  0  0  0
  5  7  1  0  0  0  0
  7  8  1  6  0  0  0
  7  9  1  0  0  0  0
  9 27  1  0  0  0  0
 10 11  1  0  0  0  0
 11 12  2  0  0  0  0
 11 13  1  0  0  0  0
 13 14  1  0  0  0  0
 14 16  2  0  0  0  0
 15 14  1  1  0  0  0
 15 18  1  0  0  0  0
 15 26  1  0  0  0  0
 17 19  1  1  0  0  0
 17 25  1  0  0  0  0
 17 18  1  0  0  0  0
 19 20  1  0  0  0  0
 20 21  1  6  0  0  0
 20 22  1  0  0  0  0
 22 23  1  6  0  0  0
 22 24  1  0  0  0  0
 23 28  1  0  0  0  0
 23 29  1  0  0  0  0
 25 24  1  6  0  0  0
 25 27  1  0  0  0  0
 26 10  1  6  0  0  0
 26 27  1  0  0  0  0
M  END
>  <CHROM.1>
-52.19549336,63.90001891,177.77177392,-170.53494249,-105.72348016,-87.66348999
27.82663042,36.52073143,19.84617506,-1.32203943,-1.39048060,-3.07495450

>  <Name>
ligand

>  <RI>
0

>  <Rbt.Current_Directory>
/home/itssahil/PROJECTS/Mol_Feturizer/New_Systems/rnas/3F4H

>  <Rbt.Executable>
rbdock ($Id: //depot/dev/client3/rdock/2013.1/src/exe/rbdock.cxx#4 $)

>  <Rbt.Library>
libRbt.so (2013.1, Build901 2013/11/27)

>  <Rbt.Parameter_File>
/export/apps/rDock/src/rDock_2013.1_src/data/scripts/dock_solv.prm

>  <Rbt.Receptor>
prm/pocket_docking_6.prm

>  <SCORE>
-48.8967

>  <SCORE.INTER>
-31.3057

>  <SCORE.INTER.CONST>
1

>  <SCORE.INTER.POLAR>
0

>  <SCORE.INTER.ROT>
6

>  <SCORE.INTER.SOLV>
11.2121

>  <SCORE.INTER.VDW>
-32.2078

>  <SCORE.INTER.norm>
-1.07951

>  <SCORE.INTRA>
-17.5909

>  <SCORE.INTRA.DIHEDRAL>
-4.16329

>  <SCORE.INTRA.DIHEDRAL.0>
6.83446

>  <SCORE.INTRA.POLAR>
0

>  <SCORE.INTRA.POLAR.0>
0

>  <SCORE.INTRA.REPUL>
0

>  <SCORE.INTRA.REPUL.0>
0

>  <SCORE.INTRA.SOLV>
-0.115581

>  <SCORE.INTRA.SOLV.lig_0>
-26.4601

>  <SCORE.INTRA.VDW>
-15.4515

>  <SCORE.INTRA.VDW.0>
13.7853

>  <SCORE.INTRA.norm>
-0.606584

>  <SCORE.RESTR>
0

>  <SCORE.RESTR.CAVITY>
0

>  <SCORE.RESTR.norm>
0

>  <SCORE.SYSTEM>
0

>  <SCORE.SYSTEM.CONST>
0

>  <SCORE.SYSTEM.DIHEDRAL>
0

>  <SCORE.SYSTEM.SOLV>
0

>  <SCORE.SYSTEM.norm>
0

>  <SCORE.heavy>
29

>  <SCORE.norm>
-1.68609

>  <RMSD>
1.002

$$$$
ligand
 OpenBabel11021811473D
libRbt.so/2013.1/901 2013/11/27
 29 31  0  0  0  0  0  0  0  0999 V2000
   29.1200   40.3846   16.1400 C   0  0  0  0  0  0  0  0  0  0  0  0
   29.9923   41.4435   16.5482 O   0  0  0  0  0  0  0  0  0  0  0  0
   28.8437   39.4740   17.3285 C   0  0  1  0  0  0  0  0  0  0  0  0
   28.1744   40.2301   18.3328 O   0  0  0  0  0  0  0  0  0  0  0  0
   27.9907   38.2851   16.9051 C   0  0  1  0  0  0  0  0  0  0  0  0
   28.7505   37.5368   15.9630 O   0  0  0  0  0  0  0  0  0  0  0  0
   27.5329   37.3764   18.0498 C   0  0  1  0  0  0  0  0  0  0  0  0
   26.7325   36.3280   17.5024 O   0  0  0  0  0  0  0  0  0  0  0  0
   28.6878   36.7397   18.8202 C   0  0  0  0  0  0  0  0  0  0  0  0
   28.5261   33.9762   18.2649 N   0  0  0  0  0  0  0  0  0  0  0  0
   28.4663   32.6479   17.9650 C   0  0  0  0  0  0  0  0  0  0  0  0
   28.8292   32.2339   16.8357 O   0  0  0  0  0  0  0  0  0  0  0  0
   28.0089   31.7576   18.8816 N   0  0  0  0  0  0  0  0  0  0  0  0
   27.6039   32.1686   20.1097 C   0  0  0  0  0  0  0  0  0  0  0  0
   27.6605   33.5202   20.4300 C   0  0  1  0  0  0  0  0  0  0  0  0
   27.1794   31.3412   20.9539 O   0  0  0  0  0  0  0  0  0  0  0  0
   27.3215   35.2502   21.9622 C   0  0  1  0  0  0  0  0  0  0  0  0
   27.2645   33.9389   21.6516 N   0  0  0  0  0  0  0  0  0  0  0  0
   26.9113   35.6724   23.2219 C   0  0  0  0  0  0  0  0  0  0  0  0
   26.9605   37.0171   23.5728 C   0  0  2  0  0  0  0  0  0  0  0  0
   26.4995   37.4052   24.9541 C   0  0  0  0  0  0  0  0  0  0  0  0
   27.4289   37.9593   22.6482 C   0  0  2  0  0  0  0  0  0  0  0  0
   27.5056   39.2966   22.9218 N   0  0  0  0  0  0  0  0  0  0  0  0
   27.8372   37.5192   21.3832 C   0  0  0  0  0  0  0  0  0  0  0  0
   27.7884   36.1720   21.0266 C   0  0  2  0  0  0  0  0  0  0  0  0
   28.1330   34.4384   19.4870 C   0  0  2  0  0  0  0  0  0  0  0  0
   28.1823   35.7587   19.8002 N   0  0  0  0  0  0  0  0  0  0  0  0
   28.5517   39.7928   23.7958 C   0  0  0  0  0  0  0  0  0  0  0  0
   26.5746   40.2647   22.3661 C   0  0  0  0  0  0  0  0  0  0  0  0
  1  2  1  0  0  0  0
  3  1  1  6  0  0  0
  3  4  1  0  0  0  0
  3  5  1  0  0  0  0
  5  6  1  6  0  0  0
  5  7  1  0  0  0  0
  7  8  1  6  0  0  0
  7  9  1  0  0  0  0
  9 27  1  0  0  0  0
 10 11  1  0  0  0  0
 11 12  2  0  0  0  0
 11 13  1  0  0  0  0
 13 14  1  0  0  0  0
 14 16  2  0  0  0  0
 15 14  1  1  0  0  0
 15 18  1  0  0  0  0
 15 26  1  0  0  0  0
 17 19  1  1  0  0  0
 17 25  1  0  0  0  0
 17 18  1  0  0  0  0
 19 20  1  0  0  0  0
 20 21  1  6  0  0  0
 20 22  1  0  0  0  0
 22 23  1  6  0  0  0
 22 24  1  0  0  0  0
 23 28  1  0  0  0  0
 23 29  1  0  0  0  0
 25 24  1  6  0  0  0
 25 27  1  0  0  0  0
 26 10  1  6  0  0  0
 26 27  1  0  0  0  0
M  END
>  <CHROM.1>
62.53645275,63.21583370,179.12370234,-173.34525799,74.35833192,-85.30676118
27.91739639,36.48026623,19.84247529,-1.20071353,-1.33481677,-2.87614010

>  <Name>
ligand

>  <RI>
0

>  <Rbt.Current_Directory>
/home/itssahil/PROJECTS/Mol_Feturizer/New_Systems/rnas/3F4H

>  <Rbt.Executable>
rbdock ($Id: //depot/dev/client3/rdock/2013.1/src/exe/rbdock.cxx#4 $)

>  <Rbt.Library>
libRbt.so (2013.1, Build901 2013/11/27)

>  <Rbt.Parameter_File>
/export/apps/rDock/src/rDock_2013.1_src/data/scripts/dock_solv.prm

>  <Rbt.Receptor>
prm/pocket_docking_3.prm

>  <SCORE>
-49.4534

>  <SCORE.INTER>
-31.469

>  <SCORE.INTER.CONST>
1

>  <SCORE.INTER.POLAR>
0

>  <SCORE.INTER.ROT>
6

>  <SCORE.INTER.SOLV>
11.698

>  <SCORE.INTER.VDW>
-32.4787

>  <SCORE.INTER.norm>
-1.08514

>  <SCORE.INTRA>
-17.9844

>  <SCORE.INTRA.DIHEDRAL>
-4.54943

>  <SCORE.INTRA.DIHEDRAL.0>
6.83446

>  <SCORE.INTRA.POLAR>
0

>  <SCORE.INTRA.POLAR.0>
0

>  <SCORE.INTRA.REPUL>
0

>  <SCORE.INTRA.REPUL.0>
0

>  <SCORE.INTRA.SOLV>
-0.439233

>  <SCORE.INTRA.SOLV.lig_0>
-26.4601

>  <SCORE.INTRA.VDW>
-15.4901

>  <SCORE.INTRA.VDW.0>
13.7853

>  <SCORE.INTRA.norm>
-0.620152

>  <SCORE.RESTR>
0

>  <SCORE.RESTR.CAVITY>
0

>  <SCORE.RESTR.norm>
0

>  <SCORE.SYSTEM>
0

>  <SCORE.SYSTEM.CONST>
0

>  <SCORE.SYSTEM.DIHEDRAL>
0

>  <SCORE.SYSTEM.SOLV>
0

>  <SCORE.SYSTEM.norm>
0

>  <SCORE.heavy>
29

>  <SCORE.norm>
-1.70529

>  <RMSD>
1.003

$$$$
ligand
 OpenBabel11021811473D
libRbt.so/2013.1/901 2013/11/27
 29 31  0  0  0  0  0  0  0  0999 V2000
   28.9085   40.6478   16.4019 C   0  0  0  0  0  0  0  0  0  0  0  0
   27.6301   41.1139   15.9577 O   0  0  0  0  0  0  0  0  0  0  0  0
   28.7134   39.6381   17.5247 C   0  0  1  0  0  0  0  0  0  0  0  0
   27.9817   40.2635   18.5744 O   0  0  0  0  0  0  0  0  0  0  0  0
   27.9667   38.4111   17.0175 C   0  0  1  0  0  0  0  0  0  0  0  0
   28.8249   37.7475   16.0968 O   0  0  0  0  0  0  0  0  0  0  0  0
   27.5104   37.4352   18.1061 C   0  0  1  0  0  0  0  0  0  0  0  0
   26.7938   36.3676   17.4847 O   0  0  0  0  0  0  0  0  0  0  0  0
   28.6641   36.8317   18.9046 C   0  0  0  0  0  0  0  0  0  0  0  0
   28.4831   34.0744   18.3251 N   0  0  0  0  0  0  0  0  0  0  0  0
   28.4138   32.7492   18.0135 C   0  0  0  0  0  0  0  0  0  0  0  0
   28.7644   32.3439   16.8772 O   0  0  0  0  0  0  0  0  0  0  0  0
   27.9599   31.8528   18.9259 N   0  0  0  0  0  0  0  0  0  0  0  0
   27.5680   32.2543   20.1613 C   0  0  0  0  0  0  0  0  0  0  0  0
   27.6344   33.6026   20.4936 C   0  0  1  0  0  0  0  0  0  0  0  0
   27.1467   31.4213   21.0016 O   0  0  0  0  0  0  0  0  0  0  0  0
   27.3180   35.3199   22.0447 C   0  0  1  0  0  0  0  0  0  0  0  0
   27.2515   34.0119   21.7225 N   0  0  0  0  0  0  0  0  0  0  0  0
   26.9212   35.7325   23.3119 C   0  0  0  0  0  0  0  0  0  0  0  0
   26.9806   37.0736   23.6748 C   0  0  2  0  0  0  0  0  0  0  0  0
   26.5339   37.4512   25.0638 C   0  0  0  0  0  0  0  0  0  0  0  0
   27.4456   38.0219   22.7548 C   0  0  2  0  0  0  0  0  0  0  0  0
   27.5317   39.3562   23.0402 N   0  0  0  0  0  0  0  0  0  0  0  0
   27.8403   37.5916   21.4822 C   0  0  0  0  0  0  0  0  0  0  0  0
   27.7814   36.2480   21.1136 C   0  0  2  0  0  0  0  0  0  0  0  0
   28.1032   34.5271   19.5550 C   0  0  2  0  0  0  0  0  0  0  0  0
   28.1623   35.8442   19.8800 N   0  0  0  0  0  0  0  0  0  0  0  0
   28.6040   39.8426   23.8875 C   0  0  0  0  0  0  0  0  0  0  0  0
   26.5853   40.3307   22.5229 C   0  0  0  0  0  0  0  0  0  0  0  0
  1  2  1  0  0  0  0
  3  1  1  6  0  0  0
  3  4  1  0  0  0  0
  3  5  1  0  0  0  0
  5  6  1  6  0  0  0
  5  7  1  0  0  0  0
  7  8  1  6  0  0  0
  7  9  1  0  0  0  0
  9 27  1  0  0  0  0
 10 11  1  0  0  0  0
 11 12  2  0  0  0  0
 11 13  1  0  0  0  0
 13 14  1  0  0  0  0
 14 16  2  0  0  0  0
 15 14  1  1  0  0  0
 15 18  1  0  0  0  0
 15 26  1  0  0  0  0
 17 19  1  1  0  0  0
 17 25  1  0  0  0  0
 17 18  1  0  0  0  0
 19 20  1  0  0  0  0
 20 21  1  6  0  0  0
 20 22  1  0  0  0  0
 22 23  1  6  0  0  0
 22 24  1  0  0  0  0
 23 28  1  0  0  0  0
 23 29  1  0  0  0  0
 25 24  1  6  0  0  0
 25 27  1  0  0  0  0
 26 10  1  6  0  0  0
 26 27  1  0  0  0  0
M  END
>  <CHROM.1>
-57.69090009,67.03113564,178.15773103,-176.67401226,75.59941002,-87.88213710
27.79928191,36.55331820,19.91157161,-1.46305936,-1.40825827,-3.10120503

>  <Name>
ligand

>  <RI>
0

>  <Rbt.Current_Directory>
/home/itssahil/PROJECTS/Mol_Feturizer/New_Systems/rnas/3F4H

>  <Rbt.Executable>
rbdock ($Id: //depot/dev/client3/rdock/2013.1/src/exe/rbdock.cxx#4 $)

>  <Rbt.Library>
libRbt.so (2013.1, Build901 2013/11/27)

>  <Rbt.Parameter_File>
/export/apps/rDock/src/rDock_2013.1_src/data/scripts/dock_solv.prm

>  <Rbt.Receptor>
prm/pocket_docking_4.prm

>  <SCORE>
-49.06

>  <SCORE.INTER>
-31.1049

>  <SCORE.INTER.CONST>
1

>  <SCORE.INTER.POLAR>
0

>  <SCORE.INTER.ROT>
6

>  <SCORE.INTER.SOLV>
10.6078

>  <SCORE.INTER.VDW>
-31.8725

>  <SCORE.INTER.norm>
-1.07258

>  <SCORE.INTRA>
-17.9551

>  <SCORE.INTRA.DIHEDRAL>
-4.5171

>  <SCORE.INTRA.DIHEDRAL.0>
6.83446

>  <SCORE.INTRA.POLAR>
0

>  <SCORE.INTRA.POLAR.0>
0

>  <SCORE.INTRA.REPUL>
0

>  <SCORE.INTRA.REPUL.0>
0

>  <SCORE.INTRA.SOLV>
-0.0701653

>  <SCORE.INTRA.SOLV.lig_0>
-26.4601

>  <SCORE.INTRA.VDW>
-15.6615

>  <SCORE.INTRA.VDW.0>
13.7853

>  <SCORE.INTRA.norm>
-0.619143

>  <SCORE.RESTR>
0

>  <SCORE.RESTR.CAVITY>
0

>  <SCORE.RESTR.norm>
0

>  <SCORE.SYSTEM>
0

>  <SCORE.SYSTEM.CONST>
0

>  <SCORE.SYSTEM.DIHEDRAL>
0

>  <SCORE.SYSTEM.SOLV>
0

>  <SCORE.SYSTEM.norm>
0

>  <SCORE.heavy>
29

>  <SCORE.norm>
-1.69172

>  <RMSD>
1.003

$$$$
ligand
 OpenBabel11021811473D
libRbt.so/2013.1/901 2013/11/27
 29 31  0  0  0  0  0  0  0  0999 V2000
   28.8471   40.6799   16.3891 C   0  0  0  0  0  0  0  0  0  0  0  0
   27.5607   41.2108   16.0538 O   0  0  0  0  0  0  0  0  0  0  0  0
   28.6960   39.6711   17.5193 C   0  0  1  0  0  0  0  0  0  0  0  0
   28.0395   40.3083   18.6108 O   0  0  0  0  0  0  0  0  0  0  0  0
   27.8955   38.4616   17.0539 C   0  0  1  0  0  0  0  0  0  0  0  0
   28.6933   37.7718   16.0987 O   0  0  0  0  0  0  0  0  0  0  0  0
   27.4647   37.5028   18.1678 C   0  0  1  0  0  0  0  0  0  0  0  0
   26.6607   36.4726   17.5917 O   0  0  0  0  0  0  0  0  0  0  0  0
   28.6376   36.8424   18.8895 C   0  0  0  0  0  0  0  0  0  0  0  0
   28.5076   34.0836   18.3038 N   0  0  0  0  0  0  0  0  0  0  0  0
   28.4628   32.7580   17.9891 C   0  0  0  0  0  0  0  0  0  0  0  0
   28.8203   32.3620   16.8517 O   0  0  0  0  0  0  0  0  0  0  0  0
   28.0262   31.8512   18.8997 N   0  0  0  0  0  0  0  0  0  0  0  0
   27.6276   32.2425   20.1361 C   0  0  0  0  0  0  0  0  0  0  0  0
   27.6691   33.5911   20.4715 C   0  0  1  0  0  0  0  0  0  0  0  0
   27.2223   31.3999   20.9747 O   0  0  0  0  0  0  0  0  0  0  0  0
   27.3216   35.2986   22.0268 C   0  0  1  0  0  0  0  0  0  0  0  0
   27.2793   33.9903   21.7017 N   0  0  0  0  0  0  0  0  0  0  0  0
   26.9179   35.7008   23.2952 C   0  0  0  0  0  0  0  0  0  0  0  0
   26.9525   37.0419   23.6612 C   0  0  2  0  0  0  0  0  0  0  0  0
   26.4996   37.4079   25.0512 C   0  0  0  0  0  0  0  0  0  0  0  0
   27.3993   38.0009   22.7432 C   0  0  2  0  0  0  0  0  0  0  0  0
   27.4607   39.3359   23.0315 N   0  0  0  0  0  0  0  0  0  0  0  0
   27.8013   37.5809   21.4693 C   0  0  0  0  0  0  0  0  0  0  0  0
   27.7671   36.2373   21.0976 C   0  0  2  0  0  0  0  0  0  0  0  0
   28.1201   34.5263   19.5349 C   0  0  2  0  0  0  0  0  0  0  0  0
   28.1548   35.8435   19.8629 N   0  0  0  0  0  0  0  0  0  0  0  0
   26.4873   40.2422   22.4522 C   0  0  0  0  0  0  0  0  0  0  0  0
   28.4707   39.9020   23.9103 C   0  0  0  0  0  0  0  0  0  0  0  0
  1  2  1  0  0  0  0
  3  1  1  6  0  0  0
  3  4  1  0  0  0  0
  3  5  1  0  0  0  0
  5  6  1  6  0  0  0
  5  7  1  0  0  0  0
  7  8  1  6  0  0  0
  7  9  1  0  0  0  0
  9 27  1  0  0  0  0
 10 11  1  0  0  0  0
 11 12  2  0  0  0  0
 11 13  1  0  0  0  0
 13 14  1  0  0  0  0
 14 16  2  0  0  0  0
 15 14  1  1  0  0  0
 15 18  1  0  0  0  0
 15 26  1  0  0  0  0
 17 19  1  1  0  0  0
 17 25  1  0  0  0  0
 17 18  1  0  0  0  0
 19 20  1  0  0  0  0
 20 21  1  6  0  0  0
 20 22  1  0  0  0  0
 22 23  1  6  0  0  0
 22 24  1  0  0  0  0
 23 28  1  0  0  0  0
 23 29  1  0  0  0  0
 25 24  1  6  0  0  0
 25 27  1  0  0  0  0
 26 10  1  6  0  0  0
 26 27  1  0  0  0  0
M  END
>  <CHROM.1>
-55.57535833,67.89298488,176.49708956,-174.86485917,-106.38643357,-83.58190018
27.77834776,36.56225792,19.91018018,-1.55247729,-1.40530011,3.09088904

>  <Name>
ligand

>  <RI>
0

>  <Rbt.Current_Directory>
/home/itssahil/PROJECTS/Mol_Feturizer/New_Systems/rnas/3F4H

>  <Rbt.Executable>
rbdock ($Id: //depot/dev/client3/rdock/2013.1/src/exe/rbdock.cxx#4 $)

>  <Rbt.Library>
libRbt.so (2013.1, Build901 2013/11/27)

>  <Rbt.Parameter_File>
/export/apps/rDock/src/rDock_2013.1_src/data/scripts/dock_solv.prm

>  <Rbt.Receptor>
prm/blind_docking_80.prm

>  <SCORE>
-48.9497

>  <SCORE.INTER>
-31.148

>  <SCORE.INTER.CONST>
1

>  <SCORE.INTER.POLAR>
0

>  <SCORE.INTER.ROT>
6

>  <SCORE.INTER.SOLV>
10.8035

>  <SCORE.INTER.VDW>
-31.9665

>  <SCORE.INTER.norm>
-1.07407

>  <SCORE.INTRA>
-17.8018

>  <SCORE.INTRA.DIHEDRAL>
-4.3339

>  <SCORE.INTRA.DIHEDRAL.0>
6.83446

>  <SCORE.INTRA.POLAR>
0

>  <SCORE.INTRA.POLAR.0>
0

>  <SCORE.INTRA.REPUL>
0

>  <SCORE.INTRA.REPUL.0>
0

>  <SCORE.INTRA.SOLV>
-0.084961

>  <SCORE.INTRA.SOLV.lig_0>
-26.4601

>  <SCORE.INTRA.VDW>
-15.5924

>  <SCORE.INTRA.VDW.0>
13.7853

>  <SCORE.INTRA.norm>
-0.613855

>  <SCORE.RESTR>
6.78586e-05

>  <SCORE.RESTR.CAVITY>
6.78586e-05

>  <SCORE.RESTR.norm>
2.33995e-06

>  <SCORE.SYSTEM>
0

>  <SCORE.SYSTEM.CONST>
0

>  <SCORE.SYSTEM.DIHEDRAL>
0

>  <SCORE.SYSTEM.SOLV>
0

>  <SCORE.SYSTEM.norm>
0

>  <SCORE.heavy>
29

>  <SCORE.norm>
-1.68792

>  <RMSD>
1.004

$$$$
ligand
 OpenBabel11021811473D
libRbt.so/2013.1/901 2013/11/27
 29 31  0  0  0  0  0  0  0  0999 V2000
   29.0254   40.4902   16.2260 C   0  0  0  0  0  0  0  0  0  0  0  0
   27.7661   41.0041   15.7800 O   0  0  0  0  0  0  0  0  0  0  0  0
   28.7988   39.5636   17.4127 C   0  0  1  0  0  0  0  0  0  0  0  0
   28.1360   40.2954   18.4391 O   0  0  0  0  0  0  0  0  0  0  0  0
   27.9640   38.3585   16.9990 C   0  0  1  0  0  0  0  0  0  0  0  0
   28.7388   37.6091   16.0702 O   0  0  0  0  0  0  0  0  0  0  0  0
   27.5119   37.4576   18.1522 C   0  0  1  0  0  0  0  0  0  0  0  0
   26.6941   36.4157   17.6181 O   0  0  0  0  0  0  0  0  0  0  0  0
   28.6701   36.8115   18.9096 C   0  0  0  0  0  0  0  0  0  0  0  0
   28.5010   34.0622   18.2898 N   0  0  0  0  0  0  0  0  0  0  0  0
   28.4375   32.7414   17.9589 C   0  0  0  0  0  0  0  0  0  0  0  0
   28.7923   32.3540   16.8176 O   0  0  0  0  0  0  0  0  0  0  0  0
   27.9850   31.8302   18.8571 N   0  0  0  0  0  0  0  0  0  0  0  0
   27.5888   32.2123   20.0972 C   0  0  0  0  0  0  0  0  0  0  0  0
   27.6492   33.5558   20.4492 C   0  0  1  0  0  0  0  0  0  0  0  0
   27.1687   31.3656   20.9244 O   0  0  0  0  0  0  0  0  0  0  0  0
   27.3227   35.2493   22.0243 C   0  0  1  0  0  0  0  0  0  0  0  0
   27.2619   33.9458   21.6831 N   0  0  0  0  0  0  0  0  0  0  0  0
   26.9215   35.6419   23.2964 C   0  0  0  0  0  0  0  0  0  0  0  0
   26.9748   36.9778   23.6788 C   0  0  2  0  0  0  0  0  0  0  0  0
   26.5235   37.3335   25.0721 C   0  0  0  0  0  0  0  0  0  0  0  0
   27.4383   37.9411   22.7738 C   0  0  2  0  0  0  0  0  0  0  0  0
   27.5186   39.2715   23.0787 N   0  0  0  0  0  0  0  0  0  0  0  0
   27.8376   37.5309   21.4960 C   0  0  0  0  0  0  0  0  0  0  0  0
   27.7846   36.1925   21.1078 C   0  0  2  0  0  0  0  0  0  0  0  0
   28.1166   34.4956   19.5252 C   0  0  2  0  0  0  0  0  0  0  0  0
   28.1699   35.8081   19.8694 N   0  0  0  0  0  0  0  0  0  0  0  0
   26.5696   40.2013   22.4960 C   0  0  0  0  0  0  0  0  0  0  0  0
   28.5253   39.8097   23.9784 C   0  0  0  0  0  0  0  0  0  0  0  0
  1  2  1  0  0  0  0
  3  1  1  6  0  0  0
  3  4  1  0  0  0  0
  3  5  1  0  0  0  0
  5  6  1  6  0  0  0
  5  7  1  0  0  0  0
  7  8  1  6  0  0  0
  7  9  1  0  0  0  0
  9 27  1  0  0  0  0
 10 11  1  0  0  0  0
 11 12  2  0  0  0  0
 11 13  1  0  0  0  0
 13 14  1  0  0  0  0
 14 16  2  0  0  0  0
 15 14  1  1  0  0  0
 15 18  1  0  0  0  0
 15 26  1  0  0  0  0
 17 19  1  1  0  0  0
 17 25  1  0  0  0  0
 17 18  1  0  0  0  0
 19 20  1  0  0  0  0
 20 21  1  6  0  0  0
 20 22  1  0  0  0  0
 22 23  1  6  0  0  0
 22 24  1  0  0  0  0
 23 28  1  0  0  0  0
 23 29  1  0  0  0  0
 25 24  1  6  0  0  0
 25 27  1  0  0  0  0
 26 10  1  6  0  0  0
 26 27  1  0  0  0  0
M  END
>  <CHROM.1>
-57.97679576,65.34528350,177.34574333,-171.58853340,-107.07942599,-85.88082087
27.81225292,36.49914203,19.88171772,-1.37874211,-1.40206710,-3.08116922

>  <Name>
ligand

>  <RI>
0

>  <Rbt.Current_Directory>
/home/itssahil/PROJECTS/Mol_Feturizer/New_Systems/rnas/3F4H

>  <Rbt.Executable>
rbdock ($Id: //depot/dev/client3/rdock/2013.1/src/exe/rbdock.cxx#4 $)

>  <Rbt.Library>
libRbt.so (2013.1, Build901 2013/11/27)

>  <Rbt.Parameter_File>
/export/apps/rDock/src/rDock_2013.1_src/data/scripts/dock_solv.prm

>  <Rbt.Receptor>
prm/blind_docking_100.prm

>  <SCORE>
-49.0979

>  <SCORE.INTER>
-31.4415

>  <SCORE.INTER.CONST>
1

>  <SCORE.INTER.POLAR>
0

>  <SCORE.INTER.ROT>
6

>  <SCORE.INTER.SOLV>
11.0868

>  <SCORE.INTER.VDW>
-32.2566

>  <SCORE.INTER.norm>
-1.08419

>  <SCORE.INTRA>
-17.6564

>  <SCORE.INTRA.DIHEDRAL>
-4.3727

>  <SCORE.INTRA.DIHEDRAL.0>
6.83446

>  <SCORE.INTRA.POLAR>
0

>  <SCORE.INTRA.POLAR.0>
0

>  <SCORE.INTRA.REPUL>
0

>  <SCORE.INTRA.REPUL.0>
0

>  <SCORE.INTRA.SOLV>
-0.0837764

>  <SCORE.INTRA.SOLV.lig_0>
-26.4601

>  <SCORE.INTRA.VDW>
-15.4282

>  <SCORE.INTRA.VDW.0>
13.7853

>  <SCORE.INTRA.norm>
-0.608841

>  <SCORE.RESTR>
0

>  <SCORE.RESTR.CAVITY>
0

>  <SCORE.RESTR.norm>
0

>  <SCORE.SYSTEM>
0

>  <SCORE.SYSTEM.CONST>
0

>  <SCORE.SYSTEM.DIHEDRAL>
0

>  <SCORE.SYSTEM.SOLV>
0

>  <SCORE.SYSTEM.norm>
0

>  <SCORE.heavy>
29

>  <SCORE.norm>
-1.69303

>  <RMSD>
1.005

$$$$
ligand
 OpenBabel11021811473D
libRbt.so/2013.1/901 2013/11/27
 29 31  0  0  0  0  0  0  0  0999 V2000
   29.0084   40.4563   16.2222 C   0  0  0  0  0  0  0  0  0  0  0  0
   29.8038   41.5610   16.6647 O   0  0  0  0  0  0  0  0  0  0  0  0
   28.7321   39.5317   17.3999 C   0  0  1  0  0  0  0  0  0  0  0  0
   28.0007   40.2569   18.3835 O   0  0  0  0  0  0  0  0  0  0  0  0
   27.9425   38.3100   16.9476 C   0  0  1  0  0  0  0  0  0  0  0  0
   28.7563   37.6040   16.0181 O   0  0  0  0  0  0  0  0  0  0  0  0
   27.4990   37.3724   18.0744 C   0  0  1  0  0  0  0  0  0  0  0  0
   26.7656   36.2901   17.4997 O   0  0  0  0  0  0  0  0  0  0  0  0
   28.6624   36.7872   18.8724 C   0  0  0  0  0  0  0  0  0  0  0  0
   28.5387   34.0289   18.2831 N   0  0  0  0  0  0  0  0  0  0  0  0
   28.4970   32.7036   17.9669 C   0  0  0  0  0  0  0  0  0  0  0  0
   28.8592   32.3094   16.8303 O   0  0  0  0  0  0  0  0  0  0  0  0
   28.0585   31.7952   18.8748 N   0  0  0  0  0  0  0  0  0  0  0  0
   27.6548   32.1845   20.1103 C   0  0  0  0  0  0  0  0  0  0  0  0
   27.6931   33.5327   20.4473 C   0  0  1  0  0  0  0  0  0  0  0  0
   27.2478   31.3404   20.9465 O   0  0  0  0  0  0  0  0  0  0  0  0
   27.3374   35.2380   22.0032 C   0  0  1  0  0  0  0  0  0  0  0  0
   27.2982   33.9300   21.6764 N   0  0  0  0  0  0  0  0  0  0  0  0
   26.9286   35.6382   23.2706 C   0  0  0  0  0  0  0  0  0  0  0  0
   26.9598   36.9789   23.6381 C   0  0  2  0  0  0  0  0  0  0  0  0
   26.5013   37.3428   25.0269 C   0  0  0  0  0  0  0  0  0  0  0  0
   27.4085   37.9396   22.7228 C   0  0  2  0  0  0  0  0  0  0  0  0
   27.4668   39.2744   23.0129 N   0  0  0  0  0  0  0  0  0  0  0  0
   27.8157   37.5217   21.4500 C   0  0  0  0  0  0  0  0  0  0  0  0
   27.7849   36.1784   21.0767 C   0  0  2  0  0  0  0  0  0  0  0  0
   28.1461   34.4697   19.5133 C   0  0  2  0  0  0  0  0  0  0  0  0
   28.1776   35.7866   19.8429 N   0  0  0  0  0  0  0  0  0  0  0  0
   28.5041   39.7737   23.8956 C   0  0  0  0  0  0  0  0  0  0  0  0
   26.5245   40.2368   22.4665 C   0  0  0  0  0  0  0  0  0  0  0  0
  1  2  1  0  0  0  0
  3  1  1  6  0  0  0
  3  4  1  0  0  0  0
  3  5  1  0  0  0  0
  5  6  1  6  0  0  0
  5  7  1  0  0  0  0
  7  8  1  6  0  0  0
  7  9  1  0  0  0  0
  9 27  1  0  0  0  0
 10 11  1  0  0  0  0
 11 12  2  0  0  0  0
 11 13  1  0  0  0  0
 13 14  1  0  0  0  0
 14 16  2  0  0  0  0
 15 14  1  1  0  0  0
 15 18  1  0  0  0  0
 15 26  1  0  0  0  0
 17 19  1  1  0  0  0
 17 25  1  0  0  0  0
 17 18  1  0  0  0  0
 19 20  1  0  0  0  0
 20 21  1  6  0  0  0
 20 22  1  0  0  0  0
 22 23  1  6  0  0  0
 22 24  1  0  0  0  0
 23 28  1  0  0  0  0
 23 29  1  0  0  0  0
 25 24  1  6  0  0  0
 25 27  1  0  0  0  0
 26 10  1  6  0  0  0
 26 27  1  0  0  0  0
M  END
>  <CHROM.1>
61.55095910,62.60196978,179.47334092,-173.94679517,73.86105867,-87.76085645
27.89887175,36.49653197,19.88815604,-1.27474156,-1.34740073,-2.93113494

>  <Name>
ligand

>  <RI>
0

>  <Rbt.Current_Directory>
/home/itssahil/PROJECTS/Mol_Feturizer/New_Systems/rnas/3F4H

>  <Rbt.Executable>
rbdock ($Id: //depot/dev/client3/rdock/2013.1/src/exe/rbdock.cxx#4 $)

>  <Rbt.Library>
libRbt.so (2013.1, Build901 2013/11/27)

>  <Rbt.Parameter_File>
/export/apps/rDock/src/rDock_2013.1_src/data/scripts/dock_solv.prm

>  <Rbt.Receptor>
prm/blind_docking_100.prm

>  <SCORE>
-49.5694

>  <SCORE.INTER>
-31.5836

>  <SCORE.INTER.CONST>
1

>  <SCORE.INTER.POLAR>
0

>  <SCORE.INTER.ROT>
6

>  <SCORE.INTER.SOLV>
11.5301

>  <SCORE.INTER.VDW>
-32.4991

>  <SCORE.INTER.norm>
-1.08909

>  <SCORE.INTRA>
-17.9857

>  <SCORE.INTRA.DIHEDRAL>
-4.60501

>  <SCORE.INTRA.DIHEDRAL.0>
6.83446

>  <SCORE.INTRA.POLAR>
0

>  <SCORE.INTRA.POLAR.0>
0

>  <SCORE.INTRA.REPUL>
0

>  <SCORE.INTRA.REPUL.0>
0

>  <SCORE.INTRA.SOLV>
-0.431352

>  <SCORE.INTRA.SOLV.lig_0>
-26.4601

>  <SCORE.INTRA.VDW>
-15.4675

>  <SCORE.INTRA.VDW.0>
13.7853

>  <SCORE.INTRA.norm>
-0.620197

>  <SCORE.RESTR>
0

>  <SCORE.RESTR.CAVITY>
0

>  <SCORE.RESTR.norm>
0

>  <SCORE.SYSTEM>
0

>  <SCORE.SYSTEM.CONST>
0

>  <SCORE.SYSTEM.DIHEDRAL>
0

>  <SCORE.SYSTEM.SOLV>
0

>  <SCORE.SYSTEM.norm>
0

>  <SCORE.heavy>
29

>  <SCORE.norm>
-1.70929

>  <RMSD>
1.006

$$$$
ligand
 OpenBabel11021811473D
libRbt.so/2013.1/901 2013/11/27
 29 31  0  0  0  0  0  0  0  0999 V2000
   29.0788   40.3871   16.1406 C   0  0  0  0  0  0  0  0  0  0  0  0
   29.9371   41.4623   16.5357 O   0  0  0  0  0  0  0  0  0  0  0  0
   28.8086   39.4915   17.3419 C   0  0  1  0  0  0  0  0  0  0  0  0
   28.1147   40.2513   18.3266 O   0  0  0  0  0  0  0  0  0  0  0  0
   27.9833   38.2790   16.9310 C   0  0  1  0  0  0  0  0  0  0  0  0
   28.7702   37.5255   16.0157 O   0  0  0  0  0  0  0  0  0  0  0  0
   27.5248   37.3858   18.0875 C   0  0  1  0  0  0  0  0  0  0  0  0
   26.7521   36.3116   17.5503 O   0  0  0  0  0  0  0  0  0  0  0  0
   28.6793   36.7867   18.8882 C   0  0  0  0  0  0  0  0  0  0  0  0
   28.5257   34.0338   18.2807 N   0  0  0  0  0  0  0  0  0  0  0  0
   28.4697   32.7111   17.9558 C   0  0  0  0  0  0  0  0  0  0  0  0
   28.8299   32.3202   16.8173 O   0  0  0  0  0  0  0  0  0  0  0  0
   28.0191   31.8018   18.8569 N   0  0  0  0  0  0  0  0  0  0  0  0
   27.6173   32.1877   20.0940 C   0  0  0  0  0  0  0  0  0  0  0  0
   27.6700   33.5332   20.4399 C   0  0  1  0  0  0  0  0  0  0  0  0
   27.1990   31.3428   20.9239 O   0  0  0  0  0  0  0  0  0  0  0  0
   27.3303   35.2323   22.0061 C   0  0  1  0  0  0  0  0  0  0  0  0
   27.2771   33.9269   21.6708 N   0  0  0  0  0  0  0  0  0  0  0  0
   26.9233   35.6289   23.2752 C   0  0  0  0  0  0  0  0  0  0  0  0
   26.9689   36.9667   23.6515 C   0  0  2  0  0  0  0  0  0  0  0  0
   26.5117   37.3267   25.0418 C   0  0  0  0  0  0  0  0  0  0  0  0
   27.4303   37.9281   22.7434 C   0  0  2  0  0  0  0  0  0  0  0  0
   27.5031   39.2603   23.0423 N   0  0  0  0  0  0  0  0  0  0  0  0
   27.8355   37.5139   21.4687 C   0  0  0  0  0  0  0  0  0  0  0  0
   27.7903   36.1735   21.0866 C   0  0  2  0  0  0  0  0  0  0  0  0
   28.1355   34.4710   19.5129 C   0  0  2  0  0  0  0  0  0  0  0  0
   28.1812   35.7853   19.8511 N   0  0  0  0  0  0  0  0  0  0  0  0
   28.5421   39.7417   23.9329 C   0  0  0  0  0  0  0  0  0  0  0  0
   26.5748   40.2373   22.4977 C   0  0  0  0  0  0  0  0  0  0  0  0
  1  2  1  0  0  0  0
  3  1  1  6  0  0  0
  3  4  1  0  0  0  0
  3  5  1  0  0  0  0
  5  6  1  6  0  0  0
  5  7  1  0  0  0  0
  7  8  1  6  0  0  0
  7  9  1  0  0  0  0
  9 27  1  0  0  0  0
 10 11  1  0  0  0  0
 11 12  2  0  0  0  0
 11 13  1  0  0  0  0
 13 14  1  0  0  0  0
 14 16  2  0  0  0  0
 15 14  1  1  0  0  0
 15 18  1  0  0  0  0
 15 26  1  0  0  0  0
 17 19  1  1  0  0  0
 17 25  1  0  0  0  0
 17 18  1  0  0  0  0
 19 20  1  0  0  0  0
 20 21  1  6  0  0  0
 20 22  1  0  0  0  0
 22 23  1  6  0  0  0
 22 24  1  0  0  0  0
 23 28  1  0  0  0  0
 23 29  1  0  0  0  0
 25 24  1  6  0  0  0
 25 27  1  0  0  0  0
 26 10  1  6  0  0  0
 26 27  1  0  0  0  0
M  END
>  <CHROM.1>
63.12077753,63.57552243,179.15985269,-171.53379887,73.71078314,-88.00082029
27.91431998,36.48303408,19.88149526,-1.18690340,-1.34147476,-2.87708371

>  <Name>
ligand

>  <RI>
0

>  <Rbt.Current_Directory>
/home/itssahil/PROJECTS/Mol_Feturizer/New_Systems/rnas/3F4H

>  <Rbt.Executable>
rbdock ($Id: //depot/dev/client3/rdock/2013.1/src/exe/rbdock.cxx#4 $)

>  <Rbt.Library>
libRbt.so (2013.1, Build901 2013/11/27)

>  <Rbt.Parameter_File>
/export/apps/rDock/src/rDock_2013.1_src/data/scripts/dock_solv.prm

>  <Rbt.Receptor>
prm/pocket_docking_5.prm

>  <SCORE>
-49.6257

>  <SCORE.INTER>
-31.7285

>  <SCORE.INTER.CONST>
1

>  <SCORE.INTER.POLAR>
0

>  <SCORE.INTER.ROT>
6

>  <SCORE.INTER.SOLV>
11.5528

>  <SCORE.INTER.VDW>
-32.6032

>  <SCORE.INTER.norm>
-1.09408

>  <SCORE.INTRA>
-17.8973

>  <SCORE.INTRA.DIHEDRAL>
-4.43152

>  <SCORE.INTRA.DIHEDRAL.0>
6.83446

>  <SCORE.INTRA.POLAR>
0

>  <SCORE.INTRA.POLAR.0>
0

>  <SCORE.INTRA.REPUL>
0

>  <SCORE.INTRA.REPUL.0>
0

>  <SCORE.INTRA.SOLV>
-0.438378

>  <SCORE.INTRA.SOLV.lig_0>
-26.4601

>  <SCORE.INTRA.VDW>
-15.4623

>  <SCORE.INTRA.VDW.0>
13.7853

>  <SCORE.INTRA.norm>
-0.617147

>  <SCORE.RESTR>
0

>  <SCORE.RESTR.CAVITY>
0

>  <SCORE.RESTR.norm>
0

>  <SCORE.SYSTEM>
0

>  <SCORE.SYSTEM.CONST>
0

>  <SCORE.SYSTEM.DIHEDRAL>
0

>  <SCORE.SYSTEM.SOLV>
0

>  <SCORE.SYSTEM.norm>
0

>  <SCORE.heavy>
29

>  <SCORE.norm>
-1.71123

>  <RMSD>
1.008

$$$$
ligand
 OpenBabel11021811473D
libRbt.so/2013.1/901 2013/11/27
 29 31  0  0  0  0  0  0  0  0999 V2000
   29.1215   40.3756   16.1634 C   0  0  0  0  0  0  0  0  0  0  0  0
   29.9137   41.4848   16.6005 O   0  0  0  0  0  0  0  0  0  0  0  0
   28.8170   39.4752   17.3529 C   0  0  1  0  0  0  0  0  0  0  0  0
   28.1304   40.2418   18.3374 O   0  0  0  0  0  0  0  0  0  0  0  0
   27.9678   38.2867   16.9210 C   0  0  1  0  0  0  0  0  0  0  0  0
   28.7344   37.5412   15.9822 O   0  0  0  0  0  0  0  0  0  0  0  0
   27.5032   37.3750   18.0606 C   0  0  1  0  0  0  0  0  0  0  0  0
   26.7210   36.3178   17.5036 O   0  0  0  0  0  0  0  0  0  0  0  0
   28.6535   36.7509   18.8479 C   0  0  0  0  0  0  0  0  0  0  0  0
   28.4894   33.9928   18.2673 N   0  0  0  0  0  0  0  0  0  0  0  0
   28.4286   32.6672   17.9553 C   0  0  0  0  0  0  0  0  0  0  0  0
   28.7933   32.2631   16.8230 O   0  0  0  0  0  0  0  0  0  0  0  0
   27.9682   31.7693   18.8629 N   0  0  0  0  0  0  0  0  0  0  0  0
   27.5612   32.1696   20.0937 C   0  0  0  0  0  0  0  0  0  0  0  0
   27.6187   33.5182   20.4263 C   0  0  1  0  0  0  0  0  0  0  0  0
   27.1338   31.3352   20.9295 O   0  0  0  0  0  0  0  0  0  0  0  0
   27.2787   35.2347   21.9735 C   0  0  1  0  0  0  0  0  0  0  0  0
   27.2207   33.9263   21.6509 N   0  0  0  0  0  0  0  0  0  0  0  0
   26.8664   35.6461   23.2361 C   0  0  0  0  0  0  0  0  0  0  0  0
   26.9166   36.9874   23.5992 C   0  0  2  0  0  0  0  0  0  0  0  0
   26.4532   37.3636   24.9831 C   0  0  0  0  0  0  0  0  0  0  0  0
   27.3881   37.9373   22.6842 C   0  0  2  0  0  0  0  0  0  0  0  0
   27.4659   39.2720   22.9701 N   0  0  0  0  0  0  0  0  0  0  0  0
   27.7985   37.5082   21.4161 C   0  0  0  0  0  0  0  0  0  0  0  0
   27.7487   36.1643   21.0472 C   0  0  2  0  0  0  0  0  0  0  0  0
   28.0943   34.4443   19.4928 C   0  0  2  0  0  0  0  0  0  0  0  0
   28.1447   35.7617   19.8180 N   0  0  0  0  0  0  0  0  0  0  0  0
   28.5245   39.7621   23.8325 C   0  0  0  0  0  0  0  0  0  0  0  0
   26.5241   40.2433   22.4388 C   0  0  0  0  0  0  0  0  0  0  0  0
  1  2  1  0  0  0  0
  3  1  1  6  0  0  0
  3  4  1  0  0  0  0
  3  5  1  0  0  0  0
  5  6  1  6  0  0  0
  5  7  1  0  0  0  0
  7  8  1  6  0  0  0
  7  9  1  0  0  0  0
  9 27  1  0  0  0  0
 10 11  1  0  0  0  0
 11 12  2  0  0  0  0
 11 13  1  0  0  0  0
 13 14  1  0  0  0  0
 14 16  2  0  0  0  0
 15 14  1  1  0  0  0
 15 18  1  0  0  0  0
 15 26  1  0  0  0  0
 17 19  1  1  0  0  0
 17 25  1  0  0  0  0
 17 18  1  0  0  0  0
 19 20  1  0  0  0  0
 20 21  1  6  0  0  0
 20 22  1  0  0  0  0
 22 23  1  6  0  0  0
 22 24  1  0  0  0  0
 23 28  1  0  0  0  0
 23 29  1  0  0  0  0
 25 24  1  6  0  0  0
 25 27  1  0  0  0  0
 26 10  1  6  0  0  0
 26 27  1  0  0  0  0
M  END
>  <CHROM.1>
58.57351574,62.19356522,179.83033803,-173.08922483,75.40250055,-86.48422460
27.88027047,36.47682810,19.85806460,-1.19635265,-1.33365566,-2.86800675

>  <Name>
ligand

>  <RI>
0

>  <Rbt.Current_Directory>
/home/itssahil/PROJECTS/Mol_Feturizer/New_Systems/rnas/3F4H

>  <Rbt.Executable>
rbdock ($Id: //depot/dev/client3/rdock/2013.1/src/exe/rbdock.cxx#4 $)

>  <Rbt.Library>
libRbt.so (2013.1, Build901 2013/11/27)

>  <Rbt.Parameter_File>
/export/apps/rDock/src/rDock_2013.1_src/data/scripts/dock_solv.prm

>  <Rbt.Receptor>
prm/pocket_docking_5.prm

>  <SCORE>
-49.4308

>  <SCORE.INTER>
-31.4402

>  <SCORE.INTER.CONST>
1

>  <SCORE.INTER.POLAR>
0

>  <SCORE.INTER.ROT>
6

>  <SCORE.INTER.SOLV>
11.6662

>  <SCORE.INTER.VDW>
-32.4489

>  <SCORE.INTER.norm>
-1.08414

>  <SCORE.INTRA>
-17.9907

>  <SCORE.INTRA.DIHEDRAL>
-4.57483

>  <SCORE.INTRA.DIHEDRAL.0>
6.83446

>  <SCORE.INTRA.POLAR>
0

>  <SCORE.INTRA.POLAR.0>
0

>  <SCORE.INTRA.REPUL>
0

>  <SCORE.INTRA.REPUL.0>
0

>  <SCORE.INTRA.SOLV>
-0.437434

>  <SCORE.INTRA.SOLV.lig_0>
-26.4601

>  <SCORE.INTRA.VDW>
-15.4845

>  <SCORE.INTRA.VDW.0>
13.7853

>  <SCORE.INTRA.norm>
-0.620368

>  <SCORE.RESTR>
0

>  <SCORE.RESTR.CAVITY>
0

>  <SCORE.RESTR.norm>
0

>  <SCORE.SYSTEM>
0

>  <SCORE.SYSTEM.CONST>
0

>  <SCORE.SYSTEM.DIHEDRAL>
0

>  <SCORE.SYSTEM.SOLV>
0

>  <SCORE.SYSTEM.norm>
0

>  <SCORE.heavy>
29

>  <SCORE.norm>
-1.70451

>  <RMSD>
1.015

$$$$
ligand
 OpenBabel11021811473D
libRbt.so/2013.1/901 2013/11/27
 29 31  0  0  0  0  0  0  0  0999 V2000
   29.0510   39.9428   15.9351 C   0  0  0  0  0  0  0  0  0  0  0  0
   30.2216   40.7540   15.7907 O   0  0  0  0  0  0  0  0  0  0  0  0
   28.7281   39.7846   17.4146 C   0  0  1  0  0  0  0  0  0  0  0  0
   28.4286   41.0686   17.9530 O   0  0  0  0  0  0  0  0  0  0  0  0
   27.5470   38.8419   17.6068 C   0  0  1  0  0  0  0  0  0  0  0  0
   26.5247   39.2605   16.7100 O   0  0  0  0  0  0  0  0  0  0  0  0
   27.8606   37.3587   17.3894 C   0  0  1  0  0  0  0  0  0  0  0  0
   28.2633   37.1761   16.0314 O   0  0  0  0  0  0  0  0  0  0  0  0
   28.9767   36.8342   18.2905 C   0  0  0  0  0  0  0  0  0  0  0  0
   28.7246   34.0602   17.8297 N   0  0  0  0  0  0  0  0  0  0  0  0
   28.6215   32.7250   17.5754 C   0  0  0  0  0  0  0  0  0  0  0  0
   28.9732   32.2607   16.4622 O   0  0  0  0  0  0  0  0  0  0  0  0
   28.1326   31.8824   18.5204 N   0  0  0  0  0  0  0  0  0  0  0  0
   27.7385   32.3485   19.7321 C   0  0  0  0  0  0  0  0  0  0  0  0
   27.8391   33.7078   20.0061 C   0  0  1  0  0  0  0  0  0  0  0  0
   27.2847   31.5653   20.6027 O   0  0  0  0  0  0  0  0  0  0  0  0
   27.5540   35.4997   21.4768 C   0  0  1  0  0  0  0  0  0  0  0  0
   27.4542   34.1811   21.2112 N   0  0  0  0  0  0  0  0  0  0  0  0
   27.1549   35.9784   22.7199 C   0  0  0  0  0  0  0  0  0  0  0  0
   27.2479   37.3320   23.0246 C   0  0  2  0  0  0  0  0  0  0  0  0
   26.7967   37.7825   24.3902 C   0  0  0  0  0  0  0  0  0  0  0  0
   27.7496   38.2258   22.0699 C   0  0  2  0  0  0  0  0  0  0  0  0
   27.8700   39.5684   22.2978 N   0  0  0  0  0  0  0  0  0  0  0  0
   28.1461   37.7292   20.8222 C   0  0  0  0  0  0  0  0  0  0  0  0
   28.0535   36.3728   20.5119 C   0  0  2  0  0  0  0  0  0  0  0  0
   28.3441   34.5769   19.0339 C   0  0  2  0  0  0  0  0  0  0  0  0
   28.4365   35.9049   19.3018 N   0  0  0  0  0  0  0  0  0  0  0  0
   26.9039   40.4849   21.7223 C   0  0  0  0  0  0  0  0  0  0  0  0
   28.9370   40.1331   23.1074 C   0  0  0  0  0  0  0  0  0  0  0  0
  1  2  1  0  0  0  0
  3  1  1  6  0  0  0
  3  4  1  0  0  0  0
  3  5  1  0  0  0  0
  5  6  1  6  0  0  0
  5  7  1  0  0  0  0
  7  8  1  6  0  0  0
  7  9  1  0  0  0  0
  9 27  1  0  0  0  0
 10 11  1  0  0  0  0
 11 12  2  0  0  0  0
 11 13  1  0  0  0  0
 13 14  1  0  0  0  0
 14 16  2  0  0  0  0
 15 14  1  1  0  0  0
 15 18  1  0  0  0  0
 15 26  1  0  0  0  0
 17 19  1  1  0  0  0
 17 25  1  0  0  0  0
 17 18  1  0  0  0  0
 19 20  1  0  0  0  0
 20 21  1  6  0  0  0
 20 22  1  0  0  0  0
 22 23  1  6  0  0  0
 22 24  1  0  0  0  0
 23 28  1  0  0  0  0
 23 29  1  0  0  0  0
 25 24  1  6  0  0  0
 25 27  1  0  0  0  0
 26 10  1  6  0  0  0
 26 27  1  0  0  0  0
M  END
>  <CHROM.1>
63.01843899,-48.34712656,-62.77259964,110.24839619,-103.10065362,-91.83807753
28.06749510,36.74535492,19.41665190,-1.40221455,-1.37714007,-2.99376573

>  <Name>
ligand

>  <RI>
0

>  <Rbt.Current_Directory>
/home/itssahil/PROJECTS/Mol_Feturizer/New_Systems/rnas/3F4H

>  <Rbt.Executable>
rbdock ($Id: //depot/dev/client3/rdock/2013.1/src/exe/rbdock.cxx#4 $)

>  <Rbt.Library>
libRbt.so (2013.1, Build901 2013/11/27)

>  <Rbt.Parameter_File>
/export/apps/rDock/src/rDock_2013.1_src/data/scripts/dock_solv.prm

>  <Rbt.Receptor>
prm/pocket_docking_2.prm

>  <SCORE>
-42.6456

>  <SCORE.INTER>
-27.7943

>  <SCORE.INTER.CONST>
1

>  <SCORE.INTER.POLAR>
0

>  <SCORE.INTER.ROT>
6

>  <SCORE.INTER.SOLV>
10.8876

>  <SCORE.INTER.VDW>
-29.7587

>  <SCORE.INTER.norm>
-0.958423

>  <SCORE.INTRA>
-14.8695

>  <SCORE.INTRA.DIHEDRAL>
0.720736

>  <SCORE.INTRA.DIHEDRAL.0>
6.83446

>  <SCORE.INTRA.POLAR>
0

>  <SCORE.INTRA.POLAR.0>
0

>  <SCORE.INTRA.REPUL>
0

>  <SCORE.INTRA.REPUL.0>
0

>  <SCORE.INTRA.SOLV>
-0.305013

>  <SCORE.INTRA.SOLV.lig_0>
-26.4601

>  <SCORE.INTRA.VDW>
-15.0774

>  <SCORE.INTRA.VDW.0>
13.7853

>  <SCORE.INTRA.norm>
-0.512742

>  <SCORE.RESTR>
0.0181853

>  <SCORE.RESTR.CAVITY>
0.0181853

>  <SCORE.RESTR.norm>
0.00062708

>  <SCORE.SYSTEM>
0

>  <SCORE.SYSTEM.CONST>
0

>  <SCORE.SYSTEM.DIHEDRAL>
0

>  <SCORE.SYSTEM.SOLV>
0

>  <SCORE.SYSTEM.norm>
0

>  <SCORE.heavy>
29

>  <SCORE.norm>
-1.47054

>  <RMSD>
1.019

$$$$
ligand
 OpenBabel11021811473D
libRbt.so/2013.1/901 2013/11/27
 29 31  0  0  0  0  0  0  0  0999 V2000
   28.1218   40.4627   17.3567 C   0  0  0  0  0  0  0  0  0  0  0  0
   28.9715   41.6107   17.2619 O   0  0  0  0  0  0  0  0  0  0  0  0
   28.7017   39.3365   16.5119 C   0  0  1  0  0  0  0  0  0  0  0  0
   29.9735   38.9795   17.0441 O   0  0  0  0  0  0  0  0  0  0  0  0
   27.7701   38.1313   16.5143 C   0  0  1  0  0  0  0  0  0  0  0  0
   28.3796   37.1273   15.7111 O   0  0  0  0  0  0  0  0  0  0  0  0
   27.4442   37.5678   17.9006 C   0  0  1  0  0  0  0  0  0  0  0  0
   26.5252   36.4858   17.7442 O   0  0  0  0  0  0  0  0  0  0  0  0
   28.6694   37.0462   18.6488 C   0  0  0  0  0  0  0  0  0  0  0  0
   28.5218   34.3128   17.9576 N   0  0  0  0  0  0  0  0  0  0  0  0
   28.4657   33.0011   17.5910 C   0  0  0  0  0  0  0  0  0  0  0  0
   28.7291   32.6587   16.4113 O   0  0  0  0  0  0  0  0  0  0  0  0
   28.1191   32.0503   18.4954 N   0  0  0  0  0  0  0  0  0  0  0  0
   27.8232   32.3832   19.7770 C   0  0  0  0  0  0  0  0  0  0  0  0
   27.8775   33.7169   20.1655 C   0  0  1  0  0  0  0  0  0  0  0  0
   27.5010   31.5000   20.6098 O   0  0  0  0  0  0  0  0  0  0  0  0
   27.6446   35.3521   21.8170 C   0  0  1  0  0  0  0  0  0  0  0  0
   27.5898   34.0581   21.4404 N   0  0  0  0  0  0  0  0  0  0  0  0
   27.3462   35.6945   23.1312 C   0  0  0  0  0  0  0  0  0  0  0  0
   27.3964   37.0194   23.5504 C   0  0  2  0  0  0  0  0  0  0  0  0
   27.0598   37.3197   24.9884 C   0  0  0  0  0  0  0  0  0  0  0  0
   27.7518   38.0228   22.6400 C   0  0  2  0  0  0  0  0  0  0  0  0
   27.8221   39.3452   22.9795 N   0  0  0  0  0  0  0  0  0  0  0  0
   28.0482   37.6629   21.3197 C   0  0  0  0  0  0  0  0  0  0  0  0
   27.9980   36.3357   20.8946 C   0  0  2  0  0  0  0  0  0  0  0  0
   28.2359   34.6974   19.2352 C   0  0  2  0  0  0  0  0  0  0  0  0
   28.2832   36.0001   19.6156 N   0  0  0  0  0  0  0  0  0  0  0  0
   26.6254   40.0408   23.4136 C   0  0  0  0  0  0  0  0  0  0  0  0
   29.0621   40.1021   22.9295 C   0  0  0  0  0  0  0  0  0  0  0  0
  1  2  1  0  0  0  0
  3  1  1  1  0  0  0
  3  4  1  0  0  0  0
  3  5  1  0  0  0  0
  5  6  1  6  0  0  0
  5  7  1  0  0  0  0
  7  8  1  6  0  0  0
  7  9  1  0  0  0  0
  9 27  1  0  0  0  0
 10 11  1  0  0  0  0
 11 12  2  0  0  0  0
 11 13  1  0  0  0  0
 13 14  1  0  0  0  0
 14 16  2  0  0  0  0
 15 14  1  1  0  0  0
 15 18  1  0  0  0  0
 15 26  1  0  0  0  0
 17 19  1  1  0  0  0
 17 25  1  0  0  0  0
 17 18  1  0  0  0  0
 19 20  1  0  0  0  0
 20 21  1  6  0  0  0
 20 22  1  0  0  0  0
 22 23  1  6  0  0  0
 22 24  1  0  0  0  0
 23 28  1  0  0  0  0
 23 29  1  0  0  0  0
 25 24  1  6  0  0  0
 25 27  1  0  0  0  0
 26 10  1  6  0  0  0
 26 27  1  0  0  0  0
M  END
>  <CHROM.1>
62.76527824,-179.86337696,177.65677664,-153.61822352,-63.03432538,-92.35080946
28.03059722,36.54272751,19.70163730,-1.70288357,-1.40924218,-2.79960163

>  <Name>
ligand

>  <RI>
0

>  <Rbt.Current_Directory>
/home/itssahil/PROJECTS/Mol_Feturizer/New_Systems/rnas/3F4H

>  <Rbt.Executable>
rbdock ($Id: //depot/dev/client3/rdock/2013.1/src/exe/rbdock.cxx#4 $)

>  <Rbt.Library>
libRbt.so (2013.1, Build901 2013/11/27)

>  <Rbt.Parameter_File>
/export/apps/rDock/src/rDock_2013.1_src/data/scripts/dock_solv.prm

>  <Rbt.Receptor>
prm/pocket_docking_2.prm

>  <SCORE>
-43.6549

>  <SCORE.INTER>
-28.3723

>  <SCORE.INTER.CONST>
1

>  <SCORE.INTER.POLAR>
0

>  <SCORE.INTER.ROT>
6

>  <SCORE.INTER.SOLV>
10.1131

>  <SCORE.INTER.VDW>
-29.8859

>  <SCORE.INTER.norm>
-0.978354

>  <SCORE.INTRA>
-15.2932

>  <SCORE.INTRA.DIHEDRAL>
-2.58181

>  <SCORE.INTRA.DIHEDRAL.0>
6.83446

>  <SCORE.INTRA.POLAR>
0

>  <SCORE.INTRA.POLAR.0>
0

>  <SCORE.INTRA.REPUL>
0

>  <SCORE.INTRA.REPUL.0>
0

>  <SCORE.INTRA.SOLV>
-0.13625

>  <SCORE.INTRA.SOLV.lig_0>
-26.4601

>  <SCORE.INTRA.VDW>
-13.9342

>  <SCORE.INTRA.VDW.0>
13.7853

>  <SCORE.INTRA.norm>
-0.527353

>  <SCORE.RESTR>
0.0106581

>  <SCORE.RESTR.CAVITY>
0.0106581

>  <SCORE.RESTR.norm>
0.000367522

>  <SCORE.SYSTEM>
0

>  <SCORE.SYSTEM.CONST>
0

>  <SCORE.SYSTEM.DIHEDRAL>
0

>  <SCORE.SYSTEM.SOLV>
0

>  <SCORE.SYSTEM.norm>
0

>  <SCORE.heavy>
29

>  <SCORE.norm>
-1.50534

>  <RMSD>
1.019

$$$$
ligand
 OpenBabel11021811473D
libRbt.so/2013.1/901 2013/11/27
 29 31  0  0  0  0  0  0  0  0999 V2000
   29.0498   40.4118   16.1653 C   0  0  0  0  0  0  0  0  0  0  0  0
   27.8352   40.8470   15.5453 O   0  0  0  0  0  0  0  0  0  0  0  0
   28.7161   39.5628   17.3844 C   0  0  1  0  0  0  0  0  0  0  0  0
   27.9735   40.3596   18.3020 O   0  0  0  0  0  0  0  0  0  0  0  0
   27.9110   38.3353   16.9778 C   0  0  1  0  0  0  0  0  0  0  0  0
   28.7056   37.5977   16.0562 O   0  0  0  0  0  0  0  0  0  0  0  0
   27.4776   37.4325   18.1365 C   0  0  1  0  0  0  0  0  0  0  0  0
   26.6858   36.3677   17.6083 O   0  0  0  0  0  0  0  0  0  0  0  0
   28.6490   36.8193   18.9011 C   0  0  0  0  0  0  0  0  0  0  0  0
   28.5307   34.0655   18.2896 N   0  0  0  0  0  0  0  0  0  0  0  0
   28.4916   32.7428   17.9627 C   0  0  0  0  0  0  0  0  0  0  0  0
   28.8506   32.3589   16.8215 O   0  0  0  0  0  0  0  0  0  0  0  0
   28.0590   31.8257   18.8647 N   0  0  0  0  0  0  0  0  0  0  0  0
   27.6588   32.2038   20.1048 C   0  0  0  0  0  0  0  0  0  0  0  0
   27.6946   33.5493   20.4528 C   0  0  1  0  0  0  0  0  0  0  0  0
   27.2573   31.3516   20.9356 O   0  0  0  0  0  0  0  0  0  0  0  0
   27.3401   35.2408   22.0240 C   0  0  1  0  0  0  0  0  0  0  0  0
   27.3032   33.9354   21.6866 N   0  0  0  0  0  0  0  0  0  0  0  0
   26.9348   35.6294   23.2961 C   0  0  0  0  0  0  0  0  0  0  0  0
   26.9637   36.9671   23.6745 C   0  0  2  0  0  0  0  0  0  0  0  0
   26.5094   37.3183   25.0679 C   0  0  0  0  0  0  0  0  0  0  0  0
   27.4063   37.9365   22.7654 C   0  0  2  0  0  0  0  0  0  0  0  0
   27.4620   39.2690   23.0662 N   0  0  0  0  0  0  0  0  0  0  0  0
   27.8099   37.5302   21.4877 C   0  0  0  0  0  0  0  0  0  0  0  0
   27.7814   36.1900   21.1035 C   0  0  2  0  0  0  0  0  0  0  0  0
   28.1415   34.4951   19.5248 C   0  0  2  0  0  0  0  0  0  0  0  0
   28.1706   35.8094   19.8651 N   0  0  0  0  0  0  0  0  0  0  0  0
   28.5289   39.7715   23.9111 C   0  0  0  0  0  0  0  0  0  0  0  0
   26.4880   40.2261   22.5681 C   0  0  0  0  0  0  0  0  0  0  0  0
  1  2  1  0  0  0  0
  3  1  1  6  0  0  0
  3  4  1  0  0  0  0
  3  5  1  0  0  0  0
  5  6  1  6  0  0  0
  5  7  1  0  0  0  0
  7  8  1  6  0  0  0
  7  9  1  0  0  0  0
  9 27  1  0  0  0  0
 10 11  1  0  0  0  0
 11 12  2  0  0  0  0
 11 13  1  0  0  0  0
 13 14  1  0  0  0  0
 14 16  2  0  0  0  0
 15 14  1  1  0  0  0
 15 18  1  0  0  0  0
 15 26  1  0  0  0  0
 17 19  1  1  0  0  0
 17 25  1  0  0  0  0
 17 18  1  0  0  0  0
 19 20  1  0  0  0  0
 20 21  1  6  0  0  0
 20 22  1  0  0  0  0
 22 23  1  6  0  0  0
 22 24  1  0  0  0  0
 23 28  1  0  0  0  0
 23 29  1  0  0  0  0
 25 24  1  6  0  0  0
 25 27  1  0  0  0  0
 26 10  1  6  0  0  0
 26 27  1  0  0  0  0
M  END
>  <CHROM.1>
-60.64600924,59.36522440,177.33644661,-171.46967076,76.02862776,-86.36546876
27.81151358,36.48541013,19.86134759,-1.40671392,-1.40161858,3.11206130

>  <Name>
ligand

>  <RI>
0

>  <Rbt.Current_Directory>
/home/itssahil/PROJECTS/Mol_Feturizer/New_Systems/rnas/3F4H

>  <Rbt.Executable>
rbdock ($Id: //depot/dev/client3/rdock/2013.1/src/exe/rbdock.cxx#4 $)

>  <Rbt.Library>
libRbt.so (2013.1, Build901 2013/11/27)

>  <Rbt.Parameter_File>
/export/apps/rDock/src/rDock_2013.1_src/data/scripts/dock_solv.prm

>  <Rbt.Receptor>
prm/pocket_docking_3.prm

>  <SCORE>
-49.0543

>  <SCORE.INTER>
-31.363

>  <SCORE.INTER.CONST>
1

>  <SCORE.INTER.POLAR>
0

>  <SCORE.INTER.ROT>
6

>  <SCORE.INTER.SOLV>
11.4743

>  <SCORE.INTER.VDW>
-32.3334

>  <SCORE.INTER.norm>
-1.08148

>  <SCORE.INTRA>
-17.6914

>  <SCORE.INTRA.DIHEDRAL>
-4.48256

>  <SCORE.INTRA.DIHEDRAL.0>
6.83446

>  <SCORE.INTRA.POLAR>
0

>  <SCORE.INTRA.POLAR.0>
0

>  <SCORE.INTRA.REPUL>
0

>  <SCORE.INTRA.REPUL.0>
0

>  <SCORE.INTRA.SOLV>
-0.0929004

>  <SCORE.INTRA.SOLV.lig_0>
-26.4601

>  <SCORE.INTRA.VDW>
-15.4037

>  <SCORE.INTRA.VDW.0>
13.7853

>  <SCORE.INTRA.norm>
-0.610048

>  <SCORE.RESTR>
0

>  <SCORE.RESTR.CAVITY>
0

>  <SCORE.RESTR.norm>
0

>  <SCORE.SYSTEM>
0

>  <SCORE.SYSTEM.CONST>
0

>  <SCORE.SYSTEM.DIHEDRAL>
0

>  <SCORE.SYSTEM.SOLV>
0

>  <SCORE.SYSTEM.norm>
0

>  <SCORE.heavy>
29

>  <SCORE.norm>
-1.69153

>  <RMSD>
1.021

$$$$
ligand
 OpenBabel11021811473D
libRbt.so/2013.1/901 2013/11/27
 29 31  0  0  0  0  0  0  0  0999 V2000
   28.8219   40.7230   16.5877 C   0  0  0  0  0  0  0  0  0  0  0  0
   27.5507   41.1450   16.0828 O   0  0  0  0  0  0  0  0  0  0  0  0
   28.6102   39.6697   17.6665 C   0  0  1  0  0  0  0  0  0  0  0  0
   27.8270   40.2407   18.7100 O   0  0  0  0  0  0  0  0  0  0  0  0
   27.9108   38.4456   17.0896 C   0  0  1  0  0  0  0  0  0  0  0  0
   28.8000   37.8589   16.1463 O   0  0  0  0  0  0  0  0  0  0  0  0
   27.4777   37.4008   18.1222 C   0  0  1  0  0  0  0  0  0  0  0  0
   26.8087   36.3400   17.4390 O   0  0  0  0  0  0  0  0  0  0  0  0
   28.6431   36.8006   18.9061 C   0  0  0  0  0  0  0  0  0  0  0  0
   28.5124   34.0466   18.2978 N   0  0  0  0  0  0  0  0  0  0  0  0
   28.4674   32.7237   17.9723 C   0  0  0  0  0  0  0  0  0  0  0  0
   28.8259   32.3368   16.8320 O   0  0  0  0  0  0  0  0  0  0  0  0
   28.0294   31.8098   18.8750 N   0  0  0  0  0  0  0  0  0  0  0  0
   27.6297   32.1912   20.1142 C   0  0  0  0  0  0  0  0  0  0  0  0
   27.6714   33.5369   20.4606 C   0  0  1  0  0  0  0  0  0  0  0  0
   27.2231   31.3420   20.9455 O   0  0  0  0  0  0  0  0  0  0  0  0
   27.3231   35.2320   22.0293 C   0  0  1  0  0  0  0  0  0  0  0  0
   27.2805   33.9263   21.6935 N   0  0  0  0  0  0  0  0  0  0  0  0
   26.9183   35.6240   23.3005 C   0  0  0  0  0  0  0  0  0  0  0  0
   26.9531   36.9621   23.6774 C   0  0  2  0  0  0  0  0  0  0  0  0
   26.4989   37.3170   25.0699 C   0  0  0  0  0  0  0  0  0  0  0  0
   27.4012   37.9283   22.7677 C   0  0  2  0  0  0  0  0  0  0  0  0
   27.4630   39.2608   23.0670 N   0  0  0  0  0  0  0  0  0  0  0  0
   27.8044   37.5185   21.4909 C   0  0  0  0  0  0  0  0  0  0  0  0
   27.7700   36.1780   21.1083 C   0  0  2  0  0  0  0  0  0  0  0  0
   28.1238   34.4795   19.5320 C   0  0  2  0  0  0  0  0  0  0  0  0
   28.1588   35.7940   19.8707 N   0  0  0  0  0  0  0  0  0  0  0  0
   28.5253   39.7576   23.9208 C   0  0  0  0  0  0  0  0  0  0  0  0
   26.4998   40.2235   22.5585 C   0  0  0  0  0  0  0  0  0  0  0  0
  1  2  1  0  0  0  0
  3  1  1  6  0  0  0
  3  4  1  0  0  0  0
  3  5  1  0  0  0  0
  5  6  1  6  0  0  0
  5  7  1  0  0  0  0
  7  8  1  6  0  0  0
  7  9  1  0  0  0  0
  9 27  1  0  0  0  0
 10 11  1  0  0  0  0
 11 12  2  0  0  0  0
 11 13  1  0  0  0  0
 13 14  1  0  0  0  0
 14 16  2  0  0  0  0
 15 14  1  1  0  0  0
 15 18  1  0  0  0  0
 15 26  1  0  0  0  0
 17 19  1  1  0  0  0
 17 25  1  0  0  0  0
 17 18  1  0  0  0  0
 19 20  1  0  0  0  0
 20 21  1  6  0  0  0
 20 22  1  0  0  0  0
 22 23  1  6  0  0  0
 22 24  1  0  0  0  0
 23 28  1  0  0  0  0
 23 29  1  0  0  0  0
 25 24  1  6  0  0  0
 25 27  1  0  0  0  0
 26 10  1  6  0  0  0
 26 27  1  0  0  0  0
M  END
>  <CHROM.1>
-59.56220807,65.19662047,178.38527374,-179.39629526,75.55428772,-87.35592025
27.78108260,36.51068575,19.92731795,-1.59454257,-1.40670247,3.08315086

>  <Name>
ligand

>  <RI>
0

>  <Rbt.Current_Directory>
/home/itssahil/PROJECTS/Mol_Feturizer/New_Systems/rnas/3F4H

>  <Rbt.Executable>
rbdock ($Id: //depot/dev/client3/rdock/2013.1/src/exe/rbdock.cxx#4 $)

>  <Rbt.Library>
libRbt.so (2013.1, Build901 2013/11/27)

>  <Rbt.Parameter_File>
/export/apps/rDock/src/rDock_2013.1_src/data/scripts/dock_solv.prm

>  <Rbt.Receptor>
prm/pocket_docking_5.prm

>  <SCORE>
-49.1287

>  <SCORE.INTER>
-31.1086

>  <SCORE.INTER.CONST>
1

>  <SCORE.INTER.POLAR>
0

>  <SCORE.INTER.ROT>
6

>  <SCORE.INTER.SOLV>
10.6429

>  <SCORE.INTER.VDW>
-31.8867

>  <SCORE.INTER.norm>
-1.07271

>  <SCORE.INTRA>
-18.0201

>  <SCORE.INTRA.DIHEDRAL>
-4.65813

>  <SCORE.INTRA.DIHEDRAL.0>
6.83446

>  <SCORE.INTRA.POLAR>
0

>  <SCORE.INTRA.POLAR.0>
0

>  <SCORE.INTRA.REPUL>
0

>  <SCORE.INTRA.REPUL.0>
0

>  <SCORE.INTRA.SOLV>
-0.0562087

>  <SCORE.INTRA.SOLV.lig_0>
-26.4601

>  <SCORE.INTRA.VDW>
-15.6629

>  <SCORE.INTRA.VDW.0>
13.7853

>  <SCORE.INTRA.norm>
-0.621383

>  <SCORE.RESTR>
0

>  <SCORE.RESTR.CAVITY>
0

>  <SCORE.RESTR.norm>
0

>  <SCORE.SYSTEM>
0

>  <SCORE.SYSTEM.CONST>
0

>  <SCORE.SYSTEM.DIHEDRAL>
0

>  <SCORE.SYSTEM.SOLV>
0

>  <SCORE.SYSTEM.norm>
0

>  <SCORE.heavy>
29

>  <SCORE.norm>
-1.69409

>  <RMSD>
1.021

$$$$
ligand
 OpenBabel11021811473D
libRbt.so/2013.1/901 2013/11/27
 29 31  0  0  0  0  0  0  0  0999 V2000
   28.8866   40.5898   16.3911 C   0  0  0  0  0  0  0  0  0  0  0  0
   27.5992   41.0688   15.9886 O   0  0  0  0  0  0  0  0  0  0  0  0
   28.7164   39.5623   17.5018 C   0  0  1  0  0  0  0  0  0  0  0  0
   28.0413   40.1815   18.5923 O   0  0  0  0  0  0  0  0  0  0  0  0
   27.9241   38.3608   17.0027 C   0  0  1  0  0  0  0  0  0  0  0  0
   28.7336   37.6934   16.0415 O   0  0  0  0  0  0  0  0  0  0  0  0
   27.4846   37.3777   18.0917 C   0  0  1  0  0  0  0  0  0  0  0  0
   26.7398   36.3255   17.4770 O   0  0  0  0  0  0  0  0  0  0  0  0
   28.6512   36.7519   18.8533 C   0  0  0  0  0  0  0  0  0  0  0  0
   28.5150   33.9894   18.2864 N   0  0  0  0  0  0  0  0  0  0  0  0
   28.4673   32.6618   17.9809 C   0  0  0  0  0  0  0  0  0  0  0  0
   28.8268   32.2569   16.8473 O   0  0  0  0  0  0  0  0  0  0  0  0
   28.0257   31.7627   18.8966 N   0  0  0  0  0  0  0  0  0  0  0  0
   27.6248   32.1637   20.1292 C   0  0  0  0  0  0  0  0  0  0  0  0
   27.6692   33.5144   20.4553 C   0  0  1  0  0  0  0  0  0  0  0  0
   27.2148   31.3281   20.9725 O   0  0  0  0  0  0  0  0  0  0  0  0
   27.3223   35.2338   21.9976 C   0  0  1  0  0  0  0  0  0  0  0  0
   27.2771   33.9233   21.6815 N   0  0  0  0  0  0  0  0  0  0  0  0
   26.9163   35.6460   23.2621 C   0  0  0  0  0  0  0  0  0  0  0  0
   26.9536   36.9895   23.6187 C   0  0  2  0  0  0  0  0  0  0  0  0
   26.4979   37.3665   25.0050 C   0  0  0  0  0  0  0  0  0  0  0  0
   27.4056   37.9407   22.6953 C   0  0  2  0  0  0  0  0  0  0  0  0
   27.4700   39.2775   22.9745 N   0  0  0  0  0  0  0  0  0  0  0  0
   27.8099   37.5108   21.4256 C   0  0  0  0  0  0  0  0  0  0  0  0
   27.7730   36.1647   21.0631 C   0  0  2  0  0  0  0  0  0  0  0  0
   28.1254   34.4418   19.5134 C   0  0  2  0  0  0  0  0  0  0  0  0
   28.1629   35.7612   19.8322 N   0  0  0  0  0  0  0  0  0  0  0  0
   28.5171   39.7810   23.8432 C   0  0  0  0  0  0  0  0  0  0  0  0
   26.5247   40.2381   22.4300 C   0  0  0  0  0  0  0  0  0  0  0  0
  1  2  1  0  0  0  0
  3  1  1  6  0  0  0
  3  4  1  0  0  0  0
  3  5  1  0  0  0  0
  5  6  1  6  0  0  0
  5  7  1  0  0  0  0
  7  8  1  6  0  0  0
  7  9  1  0  0  0  0
  9 27  1  0  0  0  0
 10 11  1  0  0  0  0
 11 12  2  0  0  0  0
 11 13  1  0  0  0  0
 13 14  1  0  0  0  0
 14 16  2  0  0  0  0
 15 14  1  1  0  0  0
 15 18  1  0  0  0  0
 15 26  1  0  0  0  0
 17 19  1  1  0  0  0
 17 25  1  0  0  0  0
 17 18  1  0  0  0  0
 19 20  1  0  0  0  0
 20 21  1  6  0  0  0
 20 22  1  0  0  0  0
 22 23  1  6  0  0  0
 22 24  1  0  0  0  0
 23 28  1  0  0  0  0
 23 29  1  0  0  0  0
 25 24  1  6  0  0  0
 25 27  1  0  0  0  0
 26 10  1  6  0  0  0
 26 27  1  0  0  0  0
M  END
>  <CHROM.1>
-58.93914980,67.40296016,179.05881589,-176.80094269,74.38414106,-85.42206885
27.79358000,36.47655418,19.87552509,-1.54301688,-1.40338982,3.10968667

>  <Name>
ligand

>  <RI>
0

>  <Rbt.Current_Directory>
/home/itssahil/PROJECTS/Mol_Feturizer/New_Systems/rnas/3F4H

>  <Rbt.Executable>
rbdock ($Id: //depot/dev/client3/rdock/2013.1/src/exe/rbdock.cxx#4 $)

>  <Rbt.Library>
libRbt.so (2013.1, Build901 2013/11/27)

>  <Rbt.Parameter_File>
/export/apps/rDock/src/rDock_2013.1_src/data/scripts/dock_solv.prm

>  <Rbt.Receptor>
prm/blind_docking_100.prm

>  <SCORE>
-49.1442

>  <SCORE.INTER>
-31.2424

>  <SCORE.INTER.CONST>
1

>  <SCORE.INTER.POLAR>
0

>  <SCORE.INTER.ROT>
6

>  <SCORE.INTER.SOLV>
10.9646

>  <SCORE.INTER.VDW>
-32.0831

>  <SCORE.INTER.norm>
-1.07732

>  <SCORE.INTRA>
-17.9018

>  <SCORE.INTRA.DIHEDRAL>
-4.52631

>  <SCORE.INTRA.DIHEDRAL.0>
6.83446

>  <SCORE.INTRA.POLAR>
0

>  <SCORE.INTRA.POLAR.0>
0

>  <SCORE.INTRA.REPUL>
0

>  <SCORE.INTRA.REPUL.0>
0

>  <SCORE.INTRA.SOLV>
-0.0613662

>  <SCORE.INTRA.SOLV.lig_0>
-26.4601

>  <SCORE.INTRA.VDW>
-15.608

>  <SCORE.INTRA.VDW.0>
13.7853

>  <SCORE.INTRA.norm>
-0.617305

>  <SCORE.RESTR>
0

>  <SCORE.RESTR.CAVITY>
0

>  <SCORE.RESTR.norm>
0

>  <SCORE.SYSTEM>
0

>  <SCORE.SYSTEM.CONST>
0

>  <SCORE.SYSTEM.DIHEDRAL>
0

>  <SCORE.SYSTEM.SOLV>
0

>  <SCORE.SYSTEM.norm>
0

>  <SCORE.heavy>
29

>  <SCORE.norm>
-1.69463

>  <RMSD>
1.022

$$$$
ligand
 OpenBabel11021811473D
libRbt.so/2013.1/901 2013/11/27
 29 31  0  0  0  0  0  0  0  0999 V2000
   28.9135   40.5967   16.3991 C   0  0  0  0  0  0  0  0  0  0  0  0
   27.6453   41.1899   16.1014 O   0  0  0  0  0  0  0  0  0  0  0  0
   28.7449   39.5889   17.5278 C   0  0  1  0  0  0  0  0  0  0  0  0
   28.1621   40.2528   18.6449 O   0  0  0  0  0  0  0  0  0  0  0  0
   27.8631   38.4292   17.0827 C   0  0  1  0  0  0  0  0  0  0  0  0
   28.5742   37.7244   16.0717 O   0  0  0  0  0  0  0  0  0  0  0  0
   27.4469   37.4669   18.1991 C   0  0  1  0  0  0  0  0  0  0  0  0
   26.5732   36.4824   17.6450 O   0  0  0  0  0  0  0  0  0  0  0  0
   28.6247   36.7445   18.8501 C   0  0  0  0  0  0  0  0  0  0  0  0
   28.4851   33.9858   18.2655 N   0  0  0  0  0  0  0  0  0  0  0  0
   28.4354   32.6603   17.9514 C   0  0  0  0  0  0  0  0  0  0  0  0
   28.7829   32.2636   16.8110 O   0  0  0  0  0  0  0  0  0  0  0  0
   28.0047   31.7544   18.8655 N   0  0  0  0  0  0  0  0  0  0  0  0
   27.6169   32.1464   20.1052 C   0  0  0  0  0  0  0  0  0  0  0  0
   27.6635   33.4949   20.4401 C   0  0  1  0  0  0  0  0  0  0  0  0
   27.2170   31.3046   20.9471 O   0  0  0  0  0  0  0  0  0  0  0  0
   27.3317   35.2031   21.9981 C   0  0  1  0  0  0  0  0  0  0  0  0
   27.2844   33.8949   21.6734 N   0  0  0  0  0  0  0  0  0  0  0  0
   26.9391   35.6061   23.2697 C   0  0  0  0  0  0  0  0  0  0  0  0
   26.9791   36.9471   23.6353 C   0  0  2  0  0  0  0  0  0  0  0  0
   26.5382   37.3140   25.0290 C   0  0  0  0  0  0  0  0  0  0  0  0
   27.4200   37.9052   22.7136 C   0  0  2  0  0  0  0  0  0  0  0  0
   27.4861   39.2401   23.0014 N   0  0  0  0  0  0  0  0  0  0  0  0
   27.8108   37.4846   21.4366 C   0  0  0  0  0  0  0  0  0  0  0  0
   27.7712   36.1410   21.0652 C   0  0  2  0  0  0  0  0  0  0  0  0
   28.1084   34.4293   19.4998 C   0  0  2  0  0  0  0  0  0  0  0  0
   28.1481   35.7465   19.8274 N   0  0  0  0  0  0  0  0  0  0  0  0
   28.5197   39.7335   23.8917 C   0  0  0  0  0  0  0  0  0  0  0  0
   26.5557   40.2086   22.4452 C   0  0  0  0  0  0  0  0  0  0  0  0
  1  2  1  0  0  0  0
  3  1  1  6  0  0  0
  3  4  1  0  0  0  0
  3  5  1  0  0  0  0
  5  6  1  6  0  0  0
  5  7  1  0  0  0  0
  7  8  1  6  0  0  0
  7  9  1  0  0  0  0
  9 27  1  0  0  0  0
 10 11  1  0  0  0  0
 11 12  2  0  0  0  0
 11 13  1  0  0  0  0
 13 14  1  0  0  0  0
 14 16  2  0  0  0  0
 15 14  1  1  0  0  0
 15 18  1  0  0  0  0
 15 26  1  0  0  0  0
 17 19  1  1  0  0  0
 17 25  1  0  0  0  0
 17 18  1  0  0  0  0
 19 20  1  0  0  0  0
 20 21  1  6  0  0  0
 20 22  1  0  0  0  0
 22 23  1  6  0  0  0
 22 24  1  0  0  0  0
 23 28  1  0  0  0  0
 23 29  1  0  0  0  0
 25 24  1  6  0  0  0
 25 27  1  0  0  0  0
 26 10  1  6  0  0  0
 26 27  1  0  0  0  0
M  END
>  <CHROM.1>
-56.20362174,66.40154059,176.97714346,-174.83373895,72.68087314,-80.14414609
27.78479442,36.48149993,19.89597946,-1.49987222,-1.40954910,-3.13908796

>  <Name>
ligand

>  <RI>
0

>  <Rbt.Current_Directory>
/home/itssahil/PROJECTS/Mol_Feturizer/New_Systems/rnas/3F4H

>  <Rbt.Executable>
rbdock ($Id: //depot/dev/client3/rdock/2013.1/src/exe/rbdock.cxx#4 $)

>  <Rbt.Library>
libRbt.so (2013.1, Build901 2013/11/27)

>  <Rbt.Parameter_File>
/export/apps/rDock/src/rDock_2013.1_src/data/scripts/dock_solv.prm

>  <Rbt.Receptor>
prm/pocket_docking_3.prm

>  <SCORE>
-48.9869

>  <SCORE.INTER>
-31.2661

>  <SCORE.INTER.CONST>
1

>  <SCORE.INTER.POLAR>
0

>  <SCORE.INTER.ROT>
6

>  <SCORE.INTER.SOLV>
10.9271

>  <SCORE.INTER.VDW>
-32.0864

>  <SCORE.INTER.norm>
-1.07814

>  <SCORE.INTRA>
-17.7208

>  <SCORE.INTRA.DIHEDRAL>
-4.44295

>  <SCORE.INTRA.DIHEDRAL.0>
6.83446

>  <SCORE.INTRA.POLAR>
0

>  <SCORE.INTRA.POLAR.0>
0

>  <SCORE.INTRA.REPUL>
0

>  <SCORE.INTRA.REPUL.0>
0

>  <SCORE.INTRA.SOLV>
-0.0921005

>  <SCORE.INTRA.SOLV.lig_0>
-26.4601

>  <SCORE.INTRA.VDW>
-15.4532

>  <SCORE.INTRA.VDW.0>
13.7853

>  <SCORE.INTRA.norm>
-0.61106

>  <SCORE.RESTR>
0

>  <SCORE.RESTR.CAVITY>
0

>  <SCORE.RESTR.norm>
0

>  <SCORE.SYSTEM>
0

>  <SCORE.SYSTEM.CONST>
0

>  <SCORE.SYSTEM.DIHEDRAL>
0

>  <SCORE.SYSTEM.SOLV>
0

>  <SCORE.SYSTEM.norm>
0

>  <SCORE.heavy>
29

>  <SCORE.norm>
-1.6892

>  <RMSD>
1.022

$$$$
ligand
 OpenBabel11021811473D
libRbt.so/2013.1/901 2013/11/27
 29 31  0  0  0  0  0  0  0  0999 V2000
   28.9710   40.4614   16.2913 C   0  0  0  0  0  0  0  0  0  0  0  0
   29.7543   41.5601   16.7691 O   0  0  0  0  0  0  0  0  0  0  0  0
   28.7041   39.4972   17.4390 C   0  0  1  0  0  0  0  0  0  0  0  0
   27.9736   40.1861   18.4491 O   0  0  0  0  0  0  0  0  0  0  0  0
   27.9183   38.2873   16.9501 C   0  0  1  0  0  0  0  0  0  0  0  0
   28.7321   37.6152   15.9958 O   0  0  0  0  0  0  0  0  0  0  0  0
   27.4824   37.3120   18.0474 C   0  0  1  0  0  0  0  0  0  0  0  0
   26.7552   36.2435   17.4399 O   0  0  0  0  0  0  0  0  0  0  0  0
   28.6506   36.7096   18.8253 C   0  0  0  0  0  0  0  0  0  0  0  0
   28.5283   33.9393   18.2947 N   0  0  0  0  0  0  0  0  0  0  0  0
   28.4873   32.6076   18.0066 C   0  0  0  0  0  0  0  0  0  0  0  0
   28.8497   32.1895   16.8786 O   0  0  0  0  0  0  0  0  0  0  0  0
   28.0493   31.7184   18.9337 N   0  0  0  0  0  0  0  0  0  0  0  0
   27.6455   32.1336   20.1606 C   0  0  0  0  0  0  0  0  0  0  0  0
   27.6830   33.4887   20.4689 C   0  0  1  0  0  0  0  0  0  0  0  0
   27.2389   31.3072   21.0145 O   0  0  0  0  0  0  0  0  0  0  0  0
   27.3266   35.2265   21.9883 C   0  0  1  0  0  0  0  0  0  0  0  0
   27.2880   33.9118   21.6894 N   0  0  0  0  0  0  0  0  0  0  0  0
   26.9176   35.6533   23.2469 C   0  0  0  0  0  0  0  0  0  0  0  0
   26.9481   37.0015   23.5859 C   0  0  2  0  0  0  0  0  0  0  0  0
   26.4895   37.3944   24.9667 C   0  0  0  0  0  0  0  0  0  0  0  0
   27.3962   37.9427   22.6504 C   0  0  2  0  0  0  0  0  0  0  0  0
   27.4539   39.2834   22.9121 N   0  0  0  0  0  0  0  0  0  0  0  0
   27.8036   37.4981   21.3867 C   0  0  0  0  0  0  0  0  0  0  0  0
   27.7735   36.1472   21.0420 C   0  0  2  0  0  0  0  0  0  0  0  0
   28.1355   34.4059   19.5152 C   0  0  2  0  0  0  0  0  0  0  0  0
   28.1664   35.7295   19.8168 N   0  0  0  0  0  0  0  0  0  0  0  0
   28.4883   39.8013   23.7875 C   0  0  0  0  0  0  0  0  0  0  0  0
   26.5137   40.2341   22.3420 C   0  0  0  0  0  0  0  0  0  0  0  0
  1  2  1  0  0  0  0
  3  1  1  6  0  0  0
  3  4  1  0  0  0  0
  3  5  1  0  0  0  0
  5  6  1  6  0  0  0
  5  7  1  0  0  0  0
  7  8  1  6  0  0  0
  7  9  1  0  0  0  0
  9 27  1  0  0  0  0
 10 11  1  0  0  0  0
 11 12  2  0  0  0  0
 11 13  1  0  0  0  0
 13 14  1  0  0  0  0
 14 16  2  0  0  0  0
 15 14  1  1  0  0  0
 15 18  1  0  0  0  0
 15 26  1  0  0  0  0
 17 19  1  1  0  0  0
 17 25  1  0  0  0  0
 17 18  1  0  0  0  0
 19 20  1  0  0  0  0
 20 21  1  6  0  0  0
 20 22  1  0  0  0  0
 22 23  1  6  0  0  0
 22 24  1  0  0  0  0
 23 28  1  0  0  0  0
 23 29  1  0  0  0  0
 25 24  1  6  0  0  0
 25 27  1  0  0  0  0
 26 10  1  6  0  0  0
 26 27  1  0  0  0  0
M  END
>  <CHROM.1>
61.10717917,62.68349612,179.64004666,-177.07107917,73.65805598,-85.84604905
27.88305613,36.46594214,19.88058939,-1.31703024,-1.34766822,-2.94996028

>  <Name>
ligand

>  <RI>
0

>  <Rbt.Current_Directory>
/home/itssahil/PROJECTS/Mol_Feturizer/New_Systems/rnas/3F4H

>  <Rbt.Executable>
rbdock ($Id: //depot/dev/client3/rdock/2013.1/src/exe/rbdock.cxx#4 $)

>  <Rbt.Library>
libRbt.so (2013.1, Build901 2013/11/27)

>  <Rbt.Parameter_File>
/export/apps/rDock/src/rDock_2013.1_src/data/scripts/dock_solv.prm

>  <Rbt.Receptor>
prm/pocket_docking_3.prm

>  <SCORE>
-49.4063

>  <SCORE.INTER>
-31.3093

>  <SCORE.INTER.CONST>
1

>  <SCORE.INTER.POLAR>
0

>  <SCORE.INTER.ROT>
6

>  <SCORE.INTER.SOLV>
11.6216

>  <SCORE.INTER.VDW>
-32.3467

>  <SCORE.INTER.norm>
-1.07963

>  <SCORE.INTRA>
-18.097

>  <SCORE.INTRA.DIHEDRAL>
-4.70906

>  <SCORE.INTRA.DIHEDRAL.0>
6.83446

>  <SCORE.INTRA.POLAR>
0

>  <SCORE.INTRA.POLAR.0>
0

>  <SCORE.INTRA.REPUL>
0

>  <SCORE.INTRA.REPUL.0>
0

>  <SCORE.INTRA.SOLV>
-0.423381

>  <SCORE.INTRA.SOLV.lig_0>
-26.4601

>  <SCORE.INTRA.VDW>
-15.5308

>  <SCORE.INTRA.VDW.0>
13.7853

>  <SCORE.INTRA.norm>
-0.624033

>  <SCORE.RESTR>
0

>  <SCORE.RESTR.CAVITY>
0

>  <SCORE.RESTR.norm>
0

>  <SCORE.SYSTEM>
0

>  <SCORE.SYSTEM.CONST>
0

>  <SCORE.SYSTEM.DIHEDRAL>
0

>  <SCORE.SYSTEM.SOLV>
0

>  <SCORE.SYSTEM.norm>
0

>  <SCORE.heavy>
29

>  <SCORE.norm>
-1.70367

>  <RMSD>
1.031

$$$$
ligand
 OpenBabel11021811473D
libRbt.so/2013.1/901 2013/11/27
 29 31  0  0  0  0  0  0  0  0999 V2000
   29.0767   40.4120   16.2579 C   0  0  0  0  0  0  0  0  0  0  0  0
   27.8577   40.8731   15.6660 O   0  0  0  0  0  0  0  0  0  0  0  0
   28.7518   39.4972   17.4309 C   0  0  1  0  0  0  0  0  0  0  0  0
   27.9634   40.2243   18.3679 O   0  0  0  0  0  0  0  0  0  0  0  0
   28.0001   38.2613   16.9536 C   0  0  1  0  0  0  0  0  0  0  0  0
   28.8583   37.5682   16.0548 O   0  0  0  0  0  0  0  0  0  0  0  0
   27.5334   37.3177   18.0661 C   0  0  1  0  0  0  0  0  0  0  0  0
   26.8086   36.2406   17.4709 O   0  0  0  0  0  0  0  0  0  0  0  0
   28.6805   36.7249   18.8820 C   0  0  0  0  0  0  0  0  0  0  0  0
   28.5088   33.9670   18.3027 N   0  0  0  0  0  0  0  0  0  0  0  0
   28.4443   32.6414   17.9914 C   0  0  0  0  0  0  0  0  0  0  0  0
   28.8048   32.2361   16.8581 O   0  0  0  0  0  0  0  0  0  0  0  0
   27.9847   31.7448   18.9006 N   0  0  0  0  0  0  0  0  0  0  0  0
   27.5821   32.1464   20.1325 C   0  0  0  0  0  0  0  0  0  0  0  0
   27.6435   33.4950   20.4645 C   0  0  1  0  0  0  0  0  0  0  0  0
   27.1555   31.3132   20.9699 O   0  0  0  0  0  0  0  0  0  0  0  0
   27.3117   35.2127   22.0121 C   0  0  1  0  0  0  0  0  0  0  0  0
   27.2500   33.9043   21.6901 N   0  0  0  0  0  0  0  0  0  0  0  0
   26.9040   35.6253   23.2758 C   0  0  0  0  0  0  0  0  0  0  0  0
   26.9581   36.9667   23.6383 C   0  0  2  0  0  0  0  0  0  0  0  0
   26.4996   37.3443   25.0234 C   0  0  0  0  0  0  0  0  0  0  0  0
   27.4289   37.9153   22.7216 C   0  0  2  0  0  0  0  0  0  0  0  0
   27.5104   39.2499   23.0068 N   0  0  0  0  0  0  0  0  0  0  0  0
   27.8347   37.4849   21.4524 C   0  0  0  0  0  0  0  0  0  0  0  0
   27.7809   36.1410   21.0841 C   0  0  2  0  0  0  0  0  0  0  0  0
   28.1183   34.4197   19.5292 C   0  0  2  0  0  0  0  0  0  0  0  0
   28.1725   35.7371   19.8539 N   0  0  0  0  0  0  0  0  0  0  0  0
   26.5552   40.1703   22.4196 C   0  0  0  0  0  0  0  0  0  0  0  0
   28.5245   39.8019   23.8898 C   0  0  0  0  0  0  0  0  0  0  0  0
  1  2  1  0  0  0  0
  3  1  1  6  0  0  0
  3  4  1  0  0  0  0
  3  5  1  0  0  0  0
  5  6  1  6  0  0  0
  5  7  1  0  0  0  0
  7  8  1  6  0  0  0
  7  9  1  0  0  0  0
  9 27  1  0  0  0  0
 10 11  1  0  0  0  0
 11 12  2  0  0  0  0
 11 13  1  0  0  0  0
 13 14  1  0  0  0  0
 14 16  2  0  0  0  0
 15 14  1  1  0  0  0
 15 18  1  0  0  0  0
 15 26  1  0  0  0  0
 17 19  1  1  0  0  0
 17 25  1  0  0  0  0
 17 18  1  0  0  0  0
 19 20  1  0  0  0  0
 20 21  1  6  0  0  0
 20 22  1  0  0  0  0
 22 23  1  6  0  0  0
 22 24  1  0  0  0  0
 23 28  1  0  0  0  0
 23 29  1  0  0  0  0
 25 24  1  6  0  0  0
 25 27  1  0  0  0  0
 26 10  1  6  0  0  0
 26 27  1  0  0  0  0
M  END
>  <CHROM.1>
-58.39350034,61.52207062,177.92894002,-174.97262477,-106.21484027,-88.34318263
27.81710373,36.43287172,19.85556239,-1.38930059,-1.39514381,-3.09223205

>  <Name>
ligand

>  <RI>
0

>  <Rbt.Current_Directory>
/home/itssahil/PROJECTS/Mol_Feturizer/New_Systems/rnas/3F4H

>  <Rbt.Executable>
rbdock ($Id: //depot/dev/client3/rdock/2013.1/src/exe/rbdock.cxx#4 $)

>  <Rbt.Library>
libRbt.so (2013.1, Build901 2013/11/27)

>  <Rbt.Parameter_File>
/export/apps/rDock/src/rDock_2013.1_src/data/scripts/dock_solv.prm

>  <Rbt.Receptor>
prm/pocket_docking_3.prm

>  <SCORE>
-49.18

>  <SCORE.INTER>
-31.377

>  <SCORE.INTER.CONST>
1

>  <SCORE.INTER.POLAR>
0

>  <SCORE.INTER.ROT>
6

>  <SCORE.INTER.SOLV>
11.256

>  <SCORE.INTER.VDW>
-32.27

>  <SCORE.INTER.norm>
-1.08197

>  <SCORE.INTRA>
-17.8029

>  <SCORE.INTRA.DIHEDRAL>
-4.64551

>  <SCORE.INTRA.DIHEDRAL.0>
6.83446

>  <SCORE.INTRA.POLAR>
0

>  <SCORE.INTRA.POLAR.0>
0

>  <SCORE.INTRA.REPUL>
0

>  <SCORE.INTRA.REPUL.0>
0

>  <SCORE.INTRA.SOLV>
-0.0767486

>  <SCORE.INTRA.SOLV.lig_0>
-26.4601

>  <SCORE.INTRA.VDW>
-15.4418

>  <SCORE.INTRA.VDW.0>
13.7853

>  <SCORE.INTRA.norm>
-0.613894

>  <SCORE.RESTR>
0

>  <SCORE.RESTR.CAVITY>
0

>  <SCORE.RESTR.norm>
0

>  <SCORE.SYSTEM>
0

>  <SCORE.SYSTEM.CONST>
0

>  <SCORE.SYSTEM.DIHEDRAL>
0

>  <SCORE.SYSTEM.SOLV>
0

>  <SCORE.SYSTEM.norm>
0

>  <SCORE.heavy>
29

>  <SCORE.norm>
-1.69586

>  <RMSD>
1.034

$$$$
ligand
 OpenBabel11021811473D
libRbt.so/2013.1/901 2013/11/27
 29 31  0  0  0  0  0  0  0  0999 V2000
   29.0682   40.4041   16.2437 C   0  0  0  0  0  0  0  0  0  0  0  0
   29.8419   41.5178   16.7018 O   0  0  0  0  0  0  0  0  0  0  0  0
   28.7550   39.4908   17.4209 C   0  0  1  0  0  0  0  0  0  0  0  0
   27.9776   40.2197   18.3657 O   0  0  0  0  0  0  0  0  0  0  0  0
   27.9969   38.2552   16.9530 C   0  0  1  0  0  0  0  0  0  0  0  0
   28.8459   37.5586   16.0483 O   0  0  0  0  0  0  0  0  0  0  0  0
   27.5384   37.3149   18.0716 C   0  0  1  0  0  0  0  0  0  0  0  0
   26.8086   36.2365   17.4850 O   0  0  0  0  0  0  0  0  0  0  0  0
   28.6913   36.7239   18.8805 C   0  0  0  0  0  0  0  0  0  0  0  0
   28.5443   33.9649   18.2998 N   0  0  0  0  0  0  0  0  0  0  0  0
   28.4917   32.6390   17.9878 C   0  0  0  0  0  0  0  0  0  0  0  0
   28.8563   32.2374   16.8546 O   0  0  0  0  0  0  0  0  0  0  0  0
   28.0394   31.7379   18.8963 N   0  0  0  0  0  0  0  0  0  0  0  0
   27.6327   32.1353   20.1282 C   0  0  0  0  0  0  0  0  0  0  0  0
   27.6820   33.4843   20.4609 C   0  0  1  0  0  0  0  0  0  0  0  0
   27.2129   31.2980   20.9649 O   0  0  0  0  0  0  0  0  0  0  0  0
   27.3342   35.1982   22.0091 C   0  0  1  0  0  0  0  0  0  0  0  0
   27.2842   33.8895   21.6865 N   0  0  0  0  0  0  0  0  0  0  0  0
   26.9222   35.6067   23.2728 C   0  0  0  0  0  0  0  0  0  0  0  0
   26.9643   36.9483   23.6359 C   0  0  2  0  0  0  0  0  0  0  0  0
   26.5017   37.3212   25.0210 C   0  0  0  0  0  0  0  0  0  0  0  0
   27.4272   37.9014   22.7199 C   0  0  2  0  0  0  0  0  0  0  0  0
   27.4968   39.2365   23.0058 N   0  0  0  0  0  0  0  0  0  0  0  0
   27.8374   37.4753   21.4508 C   0  0  0  0  0  0  0  0  0  0  0  0
   27.7958   36.1311   21.0818 C   0  0  2  0  0  0  0  0  0  0  0  0
   28.1492   34.4136   19.5263 C   0  0  2  0  0  0  0  0  0  0  0  0
   28.1915   35.7313   19.8516 N   0  0  0  0  0  0  0  0  0  0  0  0
   28.5307   39.7282   23.8968 C   0  0  0  0  0  0  0  0  0  0  0  0
   26.5700   40.2069   22.4468 C   0  0  0  0  0  0  0  0  0  0  0  0
  1  2  1  0  0  0  0
  3  1  1  6  0  0  0
  3  4  1  0  0  0  0
  3  5  1  0  0  0  0
  5  6  1  6  0  0  0
  5  7  1  0  0  0  0
  7  8  1  6  0  0  0
  7  9  1  0  0  0  0
  9 27  1  0  0  0  0
 10 11  1  0  0  0  0
 11 12  2  0  0  0  0
 11 13  1  0  0  0  0
 13 14  1  0  0  0  0
 14 16  2  0  0  0  0
 15 14  1  1  0  0  0
 15 18  1  0  0  0  0
 15 26  1  0  0  0  0
 17 19  1  1  0  0  0
 17 25  1  0  0  0  0
 17 18  1  0  0  0  0
 19 20  1  0  0  0  0
 20 21  1  6  0  0  0
 20 22  1  0  0  0  0
 22 23  1  6  0  0  0
 22 24  1  0  0  0  0
 23 28  1  0  0  0  0
 23 29  1  0  0  0  0
 25 24  1  6  0  0  0
 25 27  1  0  0  0  0
 26 10  1  6  0  0  0
 26 27  1  0  0  0  0
M  END
>  <CHROM.1>
61.95972191,61.66170228,178.04101754,-174.52537987,73.61688353,-87.90422865
27.91386585,36.44940041,19.89616471,-1.25493774,-1.34225337,-2.91033872

>  <Name>
ligand

>  <RI>
0

>  <Rbt.Current_Directory>
/home/itssahil/PROJECTS/Mol_Feturizer/New_Systems/rnas/3F4H

>  <Rbt.Executable>
rbdock ($Id: //depot/dev/client3/rdock/2013.1/src/exe/rbdock.cxx#4 $)

>  <Rbt.Library>
libRbt.so (2013.1, Build901 2013/11/27)

>  <Rbt.Parameter_File>
/export/apps/rDock/src/rDock_2013.1_src/data/scripts/dock_solv.prm

>  <Rbt.Receptor>
prm/pocket_docking_3.prm

>  <SCORE>
-49.6095

>  <SCORE.INTER>
-31.6238

>  <SCORE.INTER.CONST>
1

>  <SCORE.INTER.POLAR>
0

>  <SCORE.INTER.ROT>
6

>  <SCORE.INTER.SOLV>
11.5739

>  <SCORE.INTER.VDW>
-32.5405

>  <SCORE.INTER.norm>
-1.09047

>  <SCORE.INTRA>
-17.9858

>  <SCORE.INTRA.DIHEDRAL>
-4.62452

>  <SCORE.INTRA.DIHEDRAL.0>
6.83446

>  <SCORE.INTRA.POLAR>
0

>  <SCORE.INTRA.POLAR.0>
0

>  <SCORE.INTRA.REPUL>
0

>  <SCORE.INTRA.REPUL.0>
0

>  <SCORE.INTRA.SOLV>
-0.435471

>  <SCORE.INTRA.SOLV.lig_0>
-26.4601

>  <SCORE.INTRA.VDW>
-15.4558

>  <SCORE.INTRA.VDW.0>
13.7853

>  <SCORE.INTRA.norm>
-0.620198

>  <SCORE.RESTR>
0

>  <SCORE.RESTR.CAVITY>
0

>  <SCORE.RESTR.norm>
0

>  <SCORE.SYSTEM>
0

>  <SCORE.SYSTEM.CONST>
0

>  <SCORE.SYSTEM.DIHEDRAL>
0

>  <SCORE.SYSTEM.SOLV>
0

>  <SCORE.SYSTEM.norm>
0

>  <SCORE.heavy>
29

>  <SCORE.norm>
-1.71067

>  <RMSD>
1.034

$$$$
ligand
 OpenBabel11021811473D
libRbt.so/2013.1/901 2013/11/27
 29 31  0  0  0  0  0  0  0  0999 V2000
   29.0817   40.3444   16.1308 C   0  0  0  0  0  0  0  0  0  0  0  0
   29.9243   41.4344   16.5192 O   0  0  0  0  0  0  0  0  0  0  0  0
   28.8175   39.4573   17.3397 C   0  0  1  0  0  0  0  0  0  0  0  0
   28.1214   40.2218   18.3193 O   0  0  0  0  0  0  0  0  0  0  0  0
   27.9972   38.2377   16.9397 C   0  0  1  0  0  0  0  0  0  0  0  0
   28.7878   37.4786   16.0323 O   0  0  0  0  0  0  0  0  0  0  0  0
   27.5413   37.3538   18.1044 C   0  0  1  0  0  0  0  0  0  0  0  0
   26.7353   36.2972   17.5816 O   0  0  0  0  0  0  0  0  0  0  0  0
   28.6974   36.7289   18.8827 C   0  0  0  0  0  0  0  0  0  0  0  0
   28.5469   33.9690   18.3068 N   0  0  0  0  0  0  0  0  0  0  0  0
   28.4926   32.6427   17.9971 C   0  0  0  0  0  0  0  0  0  0  0  0
   28.8573   32.2386   16.8648 O   0  0  0  0  0  0  0  0  0  0  0  0
   28.0387   31.7438   18.9070 N   0  0  0  0  0  0  0  0  0  0  0  0
   27.6319   32.1439   20.1380 C   0  0  0  0  0  0  0  0  0  0  0  0
   27.6829   33.4934   20.4684 C   0  0  1  0  0  0  0  0  0  0  0  0
   27.2106   31.3087   20.9760 O   0  0  0  0  0  0  0  0  0  0  0  0
   27.3367   35.2106   22.0133 C   0  0  1  0  0  0  0  0  0  0  0  0
   27.2851   33.9014   21.6930 N   0  0  0  0  0  0  0  0  0  0  0  0
   26.9246   35.6218   23.2761 C   0  0  0  0  0  0  0  0  0  0  0  0
   26.9684   36.9639   23.6370 C   0  0  2  0  0  0  0  0  0  0  0  0
   26.5056   37.3399   25.0211 C   0  0  0  0  0  0  0  0  0  0  0  0
   27.4330   37.9149   22.7195 C   0  0  2  0  0  0  0  0  0  0  0  0
   27.5043   39.2504   23.0031 N   0  0  0  0  0  0  0  0  0  0  0  0
   27.8433   37.4859   21.4513 C   0  0  0  0  0  0  0  0  0  0  0  0
   27.8000   36.1411   21.0847 C   0  0  2  0  0  0  0  0  0  0  0  0
   28.1518   34.4205   19.5324 C   0  0  2  0  0  0  0  0  0  0  0  0
   28.1958   35.7386   19.8554 N   0  0  0  0  0  0  0  0  0  0  0  0
   26.5531   40.1652   22.4006 C   0  0  0  0  0  0  0  0  0  0  0  0
   28.5033   39.8089   23.8991 C   0  0  0  0  0  0  0  0  0  0  0  0
  1  2  1  0  0  0  0
  3  1  1  6  0  0  0
  3  4  1  0  0  0  0
  3  5  1  0  0  0  0
  5  6  1  6  0  0  0
  5  7  1  0  0  0  0
  7  8  1  6  0  0  0
  7  9  1  0  0  0  0
  9 27  1  0  0  0  0
 10 11  1  0  0  0  0
 11 12  2  0  0  0  0
 11 13  1  0  0  0  0
 13 14  1  0  0  0  0
 14 16  2  0  0  0  0
 15 14  1  1  0  0  0
 15 18  1  0  0  0  0
 15 26  1  0  0  0  0
 17 19  1  1  0  0  0
 17 25  1  0  0  0  0
 17 18  1  0  0  0  0
 19 20  1  0  0  0  0
 20 21  1  6  0  0  0
 20 22  1  0  0  0  0
 22 23  1  6  0  0  0
 22 24  1  0  0  0  0
 23 28  1  0  0  0  0
 23 29  1  0  0  0  0
 25 24  1  6  0  0  0
 25 27  1  0  0  0  0
 26 10  1  6  0  0  0
 26 27  1  0  0  0  0
M  END
>  <CHROM.1>
62.52597366,63.73392286,177.20729572,-171.57987253,-106.97648148,-86.02671443
27.92030682,36.45038599,19.88571822,-1.20785282,-1.33866353,-2.90356402

>  <Name>
ligand

>  <RI>
0

>  <Rbt.Current_Directory>
/home/itssahil/PROJECTS/Mol_Feturizer/New_Systems/rnas/3F4H

>  <Rbt.Executable>
rbdock ($Id: //depot/dev/client3/rdock/2013.1/src/exe/rbdock.cxx#4 $)

>  <Rbt.Library>
libRbt.so (2013.1, Build901 2013/11/27)

>  <Rbt.Parameter_File>
/export/apps/rDock/src/rDock_2013.1_src/data/scripts/dock_solv.prm

>  <Rbt.Receptor>
prm/pocket_docking_7.prm

>  <SCORE>
-49.5122

>  <SCORE.INTER>
-31.6191

>  <SCORE.INTER.CONST>
1

>  <SCORE.INTER.POLAR>
0

>  <SCORE.INTER.ROT>
6

>  <SCORE.INTER.SOLV>
11.7198

>  <SCORE.INTER.VDW>
-32.586

>  <SCORE.INTER.norm>
-1.09031

>  <SCORE.INTRA>
-17.8931

>  <SCORE.INTRA.DIHEDRAL>
-4.41501

>  <SCORE.INTRA.DIHEDRAL.0>
6.83446

>  <SCORE.INTRA.POLAR>
0

>  <SCORE.INTRA.POLAR.0>
0

>  <SCORE.INTRA.REPUL>
0

>  <SCORE.INTRA.REPUL.0>
0

>  <SCORE.INTRA.SOLV>
-0.439433

>  <SCORE.INTRA.SOLV.lig_0>
-26.4601

>  <SCORE.INTRA.VDW>
-15.4659

>  <SCORE.INTRA.VDW.0>
13.7853

>  <SCORE.INTRA.norm>
-0.617003

>  <SCORE.RESTR>
0

>  <SCORE.RESTR.CAVITY>
0

>  <SCORE.RESTR.norm>
0

>  <SCORE.SYSTEM>
0

>  <SCORE.SYSTEM.CONST>
0

>  <SCORE.SYSTEM.DIHEDRAL>
0

>  <SCORE.SYSTEM.SOLV>
0

>  <SCORE.SYSTEM.norm>
0

>  <SCORE.heavy>
29

>  <SCORE.norm>
-1.70732

>  <RMSD>
1.035

$$$$
ligand
 OpenBabel11021811473D
libRbt.so/2013.1/901 2013/11/27
 29 31  0  0  0  0  0  0  0  0999 V2000
   27.6995   40.8707   17.0904 C   0  0  0  0  0  0  0  0  0  0  0  0
   27.3483   40.8967   15.7030 O   0  0  0  0  0  0  0  0  0  0  0  0
   28.4392   39.5759   17.3979 C   0  0  1  0  0  0  0  0  0  0  0  0
   28.9956   39.6714   18.7054 O   0  0  0  0  0  0  0  0  0  0  0  0
   27.4929   38.3853   17.3115 C   0  0  1  0  0  0  0  0  0  0  0  0
   26.8914   38.4191   16.0224 O   0  0  0  0  0  0  0  0  0  0  0  0
   28.1459   37.0207   17.5501 C   0  0  1  0  0  0  0  0  0  0  0  0
   29.0484   36.7573   16.4751 O   0  0  0  0  0  0  0  0  0  0  0  0
   28.9296   36.9417   18.8586 C   0  0  0  0  0  0  0  0  0  0  0  0
   28.6850   34.2242   18.1331 N   0  0  0  0  0  0  0  0  0  0  0  0
   28.5868   32.9190   17.7523 C   0  0  0  0  0  0  0  0  0  0  0  0
   28.9826   32.5566   16.6163 O   0  0  0  0  0  0  0  0  0  0  0  0
   28.0553   31.9969   18.5943 N   0  0  0  0  0  0  0  0  0  0  0  0
   27.6131   32.3524   19.8268 C   0  0  0  0  0  0  0  0  0  0  0  0
   27.7080   33.6797   20.2292 C   0  0  1  0  0  0  0  0  0  0  0  0
   27.1199   31.4958   20.6017 O   0  0  0  0  0  0  0  0  0  0  0  0
   27.3696   35.3305   21.8465 C   0  0  1  0  0  0  0  0  0  0  0  0
   27.2753   34.0429   21.4562 N   0  0  0  0  0  0  0  0  0  0  0  0
   26.9212   35.6957   23.1111 C   0  0  0  0  0  0  0  0  0  0  0  0
   27.0072   37.0145   23.5433 C   0  0  2  0  0  0  0  0  0  0  0  0
   26.5014   37.3407   24.9250 C   0  0  0  0  0  0  0  0  0  0  0  0
   27.5521   37.9885   22.6969 C   0  0  2  0  0  0  0  0  0  0  0  0
   27.6687   39.3033   23.0528 N   0  0  0  0  0  0  0  0  0  0  0  0
   27.9982   37.6060   21.4260 C   0  0  0  0  0  0  0  0  0  0  0  0
   27.9127   36.2848   20.9879 C   0  0  2  0  0  0  0  0  0  0  0  0
   28.2568   34.6306   19.3632 C   0  0  2  0  0  0  0  0  0  0  0  0
   28.3438   35.9274   19.7565 N   0  0  0  0  0  0  0  0  0  0  0  0
   26.8882   40.3087   22.3567 C   0  0  0  0  0  0  0  0  0  0  0  0
   28.5505   39.7515   24.1179 C   0  0  0  0  0  0  0  0  0  0  0  0
  1  2  1  0  0  0  0
  3  1  1  1  0  0  0
  3  4  1  0  0  0  0
  3  5  1  0  0  0  0
  5  6  1  6  0  0  0
  5  7  1  0  0  0  0
  7  8  1  6  0  0  0
  7  9  1  0  0  0  0
  9 27  1  0  0  0  0
 10 11  1  0  0  0  0
 11 12  2  0  0  0  0
 11 13  1  0  0  0  0
 13 14  1  0  0  0  0
 14 16  2  0  0  0  0
 15 14  1  1  0  0  0
 15 18  1  0  0  0  0
 15 26  1  0  0  0  0
 17 19  1  1  0  0  0
 17 25  1  0  0  0  0
 17 18  1  0  0  0  0
 19 20  1  0  0  0  0
 20 21  1  6  0  0  0
 20 22  1  0  0  0  0
 22 23  1  6  0  0  0
 22 24  1  0  0  0  0
 23 28  1  0  0  0  0
 23 29  1  0  0  0  0
 25 24  1  6  0  0  0
 25 27  1  0  0  0  0
 26 10  1  6  0  0  0
 26 27  1  0  0  0  0
M  END
>  <CHROM.1>
169.35031888,55.05618234,-66.73740451,117.57397040,-113.68925206,-121.74072853
27.87076523,36.58580156,19.75700136,-1.97931225,-1.43958216,2.93647272

>  <Name>
ligand

>  <RI>
0

>  <Rbt.Current_Directory>
/home/itssahil/PROJECTS/Mol_Feturizer/New_Systems/rnas/3F4H

>  <Rbt.Executable>
rbdock ($Id: //depot/dev/client3/rdock/2013.1/src/exe/rbdock.cxx#4 $)

>  <Rbt.Library>
libRbt.so (2013.1, Build901 2013/11/27)

>  <Rbt.Parameter_File>
/export/apps/rDock/src/rDock_2013.1_src/data/scripts/dock_solv.prm

>  <Rbt.Receptor>
prm/pocket_docking_2.prm

>  <SCORE>
-42.0387

>  <SCORE.INTER>
-29.247

>  <SCORE.INTER.CONST>
1

>  <SCORE.INTER.POLAR>
0

>  <SCORE.INTER.ROT>
6

>  <SCORE.INTER.SOLV>
10.9639

>  <SCORE.INTER.VDW>
-30.7526

>  <SCORE.INTER.norm>
-1.00852

>  <SCORE.INTRA>
-12.8094

>  <SCORE.INTRA.DIHEDRAL>
1.10835

>  <SCORE.INTRA.DIHEDRAL.0>
6.83446

>  <SCORE.INTRA.POLAR>
0

>  <SCORE.INTRA.POLAR.0>
0

>  <SCORE.INTRA.REPUL>
0

>  <SCORE.INTRA.REPUL.0>
0

>  <SCORE.INTRA.SOLV>
0.121612

>  <SCORE.INTRA.SOLV.lig_0>
-26.4601

>  <SCORE.INTRA.VDW>
-13.4244

>  <SCORE.INTRA.VDW.0>
13.7853

>  <SCORE.INTRA.norm>
-0.441704

>  <SCORE.RESTR>
0.0176564

>  <SCORE.RESTR.CAVITY>
0.0176564

>  <SCORE.RESTR.norm>
0.000608842

>  <SCORE.SYSTEM>
0

>  <SCORE.SYSTEM.CONST>
0

>  <SCORE.SYSTEM.DIHEDRAL>
0

>  <SCORE.SYSTEM.SOLV>
0

>  <SCORE.SYSTEM.norm>
0

>  <SCORE.heavy>
29

>  <SCORE.norm>
-1.44961

>  <RMSD>
1.060

$$$$
ligand
 OpenBabel11021811473D
libRbt.so/2013.1/901 2013/11/27
 29 31  0  0  0  0  0  0  0  0999 V2000
   29.1390   39.8514   16.4195 C   0  0  0  0  0  0  0  0  0  0  0  0
   28.5392   40.5291   15.3105 O   0  0  0  0  0  0  0  0  0  0  0  0
   28.0921   39.6370   17.5040 C   0  0  1  0  0  0  0  0  0  0  0  0
   27.1734   40.7247   17.4685 O   0  0  0  0  0  0  0  0  0  0  0  0
   27.3597   38.3189   17.2881 C   0  0  1  0  0  0  0  0  0  0  0  0
   26.8933   38.3125   15.9438 O   0  0  0  0  0  0  0  0  0  0  0  0
   28.1932   37.0631   17.5601 C   0  0  1  0  0  0  0  0  0  0  0  0
   29.1950   36.9574   16.5477 O   0  0  0  0  0  0  0  0  0  0  0  0
   28.8906   37.0783   18.9188 C   0  0  0  0  0  0  0  0  0  0  0  0
   28.6734   34.3710   18.1474 N   0  0  0  0  0  0  0  0  0  0  0  0
   28.5881   33.0717   17.7444 C   0  0  0  0  0  0  0  0  0  0  0  0
   28.9758   32.7348   16.5978 O   0  0  0  0  0  0  0  0  0  0  0  0
   28.0782   32.1277   18.5755 N   0  0  0  0  0  0  0  0  0  0  0  0
   27.6452   32.4553   19.8189 C   0  0  0  0  0  0  0  0  0  0  0  0
   27.7273   33.7764   20.2441 C   0  0  1  0  0  0  0  0  0  0  0  0
   27.1721   31.5786   20.5838 O   0  0  0  0  0  0  0  0  0  0  0  0
   27.3854   35.3935   21.8944 C   0  0  1  0  0  0  0  0  0  0  0  0
   27.3037   34.1119   21.4820 N   0  0  0  0  0  0  0  0  0  0  0  0
   26.9465   35.7301   23.1701 C   0  0  0  0  0  0  0  0  0  0  0  0
   27.0201   37.0421   23.6250 C   0  0  2  0  0  0  0  0  0  0  0  0
   26.5256   37.3369   25.0178 C   0  0  0  0  0  0  0  0  0  0  0  0
   27.5426   38.0381   22.7902 C   0  0  2  0  0  0  0  0  0  0  0  0
   27.6460   39.3479   23.1683 N   0  0  0  0  0  0  0  0  0  0  0  0
   27.9794   37.6843   21.5078 C   0  0  0  0  0  0  0  0  0  0  0  0
   27.9063   36.3701   21.0470 C   0  0  2  0  0  0  0  0  0  0  0  0
   28.2538   34.7498   19.3893 C   0  0  2  0  0  0  0  0  0  0  0  0
   28.3282   36.0404   19.8047 N   0  0  0  0  0  0  0  0  0  0  0  0
   28.9313   40.0170   23.0993 C   0  0  0  0  0  0  0  0  0  0  0  0
   26.5082   40.1189   23.6416 C   0  0  0  0  0  0  0  0  0  0  0  0
  1  2  1  0  0  0  0
  3  1  1  6  0  0  0
  3  4  1  0  0  0  0
  3  5  1  0  0  0  0
  5  6  1  6  0  0  0
  5  7  1  0  0  0  0
  7  8  1  6  0  0  0
  7  9  1  0  0  0  0
  9 27  1  0  0  0  0
 10 11  1  0  0  0  0
 11 12  2  0  0  0  0
 11 13  1  0  0  0  0
 13 14  1  0  0  0  0
 14 16  2  0  0  0  0
 15 14  1  1  0  0  0
 15 18  1  0  0  0  0
 15 26  1  0  0  0  0
 17 19  1  1  0  0  0
 17 25  1  0  0  0  0
 17 18  1  0  0  0  0
 19 20  1  0  0  0  0
 20 21  1  6  0  0  0
 20 22  1  0  0  0  0
 22 23  1  6  0  0  0
 22 24  1  0  0  0  0
 23 28  1  0  0  0  0
 23 29  1  0  0  0  0
 25 24  1  6  0  0  0
 25 27  1  0  0  0  0
 26 10  1  6  0  0  0
 26 27  1  0  0  0  0
M  END
>  <CHROM.1>
-32.29532091,-51.99402585,-69.11451737,112.98971413,124.91200926,-128.14710707
27.89143218,36.64257518,19.70496534,0.11909615,1.40782781,-0.11064525

>  <Name>
ligand

>  <RI>
0

>  <Rbt.Current_Directory>
/home/itssahil/PROJECTS/Mol_Feturizer/New_Systems/rnas/3F4H

>  <Rbt.Executable>
rbdock ($Id: //depot/dev/client3/rdock/2013.1/src/exe/rbdock.cxx#4 $)

>  <Rbt.Library>
libRbt.so (2013.1, Build901 2013/11/27)

>  <Rbt.Parameter_File>
/export/apps/rDock/src/rDock_2013.1_src/data/scripts/dock_solv.prm

>  <Rbt.Receptor>
prm/pocket_docking_2.prm

>  <SCORE>
-38.7366

>  <SCORE.INTER>
-28.3638

>  <SCORE.INTER.CONST>
1

>  <SCORE.INTER.POLAR>
0

>  <SCORE.INTER.ROT>
6

>  <SCORE.INTER.SOLV>
10.6173

>  <SCORE.INTER.VDW>
-30.0483

>  <SCORE.INTER.norm>
-0.978063

>  <SCORE.INTRA>
-10.396

>  <SCORE.INTRA.DIHEDRAL>
3.13555

>  <SCORE.INTRA.DIHEDRAL.0>
6.83446

>  <SCORE.INTRA.POLAR>
0

>  <SCORE.INTRA.POLAR.0>
0

>  <SCORE.INTRA.REPUL>
0

>  <SCORE.INTRA.REPUL.0>
0

>  <SCORE.INTRA.SOLV>
0.253678

>  <SCORE.INTRA.SOLV.lig_0>
-26.4601

>  <SCORE.INTRA.VDW>
-12.0906

>  <SCORE.INTRA.VDW.0>
13.7853

>  <SCORE.INTRA.norm>
-0.358484

>  <SCORE.RESTR>
0.0232383

>  <SCORE.RESTR.CAVITY>
0.0232383

>  <SCORE.RESTR.norm>
0.000801321

>  <SCORE.SYSTEM>
0

>  <SCORE.SYSTEM.CONST>
0

>  <SCORE.SYSTEM.DIHEDRAL>
0

>  <SCORE.SYSTEM.SOLV>
0

>  <SCORE.SYSTEM.norm>
0

>  <SCORE.heavy>
29

>  <SCORE.norm>
-1.33575

>  <RMSD>
1.082

$$$$
ligand
 OpenBabel11021811473D
libRbt.so/2013.1/901 2013/11/27
 29 31  0  0  0  0  0  0  0  0999 V2000
   29.1889   40.1029   15.7802 C   0  0  0  0  0  0  0  0  0  0  0  0
   27.9220   40.6372   15.3821 O   0  0  0  0  0  0  0  0  0  0  0  0
   29.0099   39.2719   17.0433 C   0  0  1  0  0  0  0  0  0  0  0  0
   28.4927   40.1130   18.0697 O   0  0  0  0  0  0  0  0  0  0  0  0
   28.0631   38.1063   16.7876 C   0  0  1  0  0  0  0  0  0  0  0  0
   28.7595   37.1699   15.9733 O   0  0  0  0  0  0  0  0  0  0  0  0
   27.5334   37.4142   18.0470 C   0  0  1  0  0  0  0  0  0  0  0  0
   26.7795   36.2681   17.6499 O   0  0  0  0  0  0  0  0  0  0  0  0
   28.6365   36.9516   18.9966 C   0  0  0  0  0  0  0  0  0  0  0  0
   28.4438   34.2071   18.3626 N   0  0  0  0  0  0  0  0  0  0  0  0
   28.3692   32.8886   18.0251 C   0  0  0  0  0  0  0  0  0  0  0  0
   28.7287   32.5028   16.8847 O   0  0  0  0  0  0  0  0  0  0  0  0
   27.9005   31.9779   18.9155 N   0  0  0  0  0  0  0  0  0  0  0  0
   27.4988   32.3584   20.1544 C   0  0  0  0  0  0  0  0  0  0  0  0
   27.5704   33.6996   20.5131 C   0  0  1  0  0  0  0  0  0  0  0  0
   27.0638   31.5123   20.9743 O   0  0  0  0  0  0  0  0  0  0  0  0
   27.2494   35.3891   22.0937 C   0  0  1  0  0  0  0  0  0  0  0  0
   27.1777   34.0878   21.7458 N   0  0  0  0  0  0  0  0  0  0  0  0
   26.8425   35.7799   23.3646 C   0  0  0  0  0  0  0  0  0  0  0  0
   26.9067   37.1134   23.7536 C   0  0  2  0  0  0  0  0  0  0  0  0
   26.4484   37.4673   25.1451 C   0  0  0  0  0  0  0  0  0  0  0  0
   27.3869   38.0761   22.8567 C   0  0  2  0  0  0  0  0  0  0  0  0
   27.4786   39.4041   23.1684 N   0  0  0  0  0  0  0  0  0  0  0  0
   27.7918   37.6676   21.5800 C   0  0  0  0  0  0  0  0  0  0  0  0
   27.7279   36.3317   21.1852 C   0  0  2  0  0  0  0  0  0  0  0  0
   28.0545   34.6388   19.5971 C   0  0  2  0  0  0  0  0  0  0  0  0
   28.1187   35.9490   19.9479 N   0  0  0  0  0  0  0  0  0  0  0  0
   26.5107   40.3385   22.6258 C   0  0  0  0  0  0  0  0  0  0  0  0
   28.5163   39.9352   24.0367 C   0  0  0  0  0  0  0  0  0  0  0  0
  1  2  1  0  0  0  0
  3  1  1  6  0  0  0
  3  4  1  0  0  0  0
  3  5  1  0  0  0  0
  5  6  1  6  0  0  0
  5  7  1  0  0  0  0
  7  8  1  6  0  0  0
  7  9  1  0  0  0  0
  9 27  1  0  0  0  0
 10 11  1  0  0  0  0
 11 12  2  0  0  0  0
 11 13  1  0  0  0  0
 13 14  1  0  0  0  0
 14 16  2  0  0  0  0
 15 14  1  1  0  0  0
 15 18  1  0  0  0  0
 15 26  1  0  0  0  0
 17 19  1  1  0  0  0
 17 25  1  0  0  0  0
 17 18  1  0  0  0  0
 19 20  1  0  0  0  0
 20 21  1  6  0  0  0
 20 22  1  0  0  0  0
 22 23  1  6  0  0  0
 22 24  1  0  0  0  0
 23 28  1  0  0  0  0
 23 29  1  0  0  0  0
 25 24  1  6  0  0  0
 25 27  1  0  0  0  0
 26 10  1  6  0  0  0
 26 27  1  0  0  0  0
M  END
>  <CHROM.1>
-60.06383370,71.96436859,-174.05349856,-162.32910388,-104.59035534,-96.96535972
27.80890161,36.51969095,19.86210803,0.06657734,1.38362357,0.17753672

>  <Name>
ligand

>  <RI>
0

>  <Rbt.Current_Directory>
/home/itssahil/PROJECTS/Mol_Feturizer/New_Systems/rnas/3F4H

>  <Rbt.Executable>
rbdock ($Id: //depot/dev/client3/rdock/2013.1/src/exe/rbdock.cxx#4 $)

>  <Rbt.Library>
libRbt.so (2013.1, Build901 2013/11/27)

>  <Rbt.Parameter_File>
/export/apps/rDock/src/rDock_2013.1_src/data/scripts/dock_solv.prm

>  <Rbt.Receptor>
prm/pocket_docking_3.prm

>  <SCORE>
-47.9376

>  <SCORE.INTER>
-31.1684

>  <SCORE.INTER.CONST>
1

>  <SCORE.INTER.POLAR>
0

>  <SCORE.INTER.ROT>
6

>  <SCORE.INTER.SOLV>
11.3034

>  <SCORE.INTER.VDW>
-32.1467

>  <SCORE.INTER.norm>
-1.07477

>  <SCORE.INTRA>
-16.7692

>  <SCORE.INTRA.DIHEDRAL>
-3.08423

>  <SCORE.INTRA.DIHEDRAL.0>
6.83446

>  <SCORE.INTRA.POLAR>
0

>  <SCORE.INTRA.POLAR.0>
0

>  <SCORE.INTRA.REPUL>
0

>  <SCORE.INTRA.REPUL.0>
0

>  <SCORE.INTRA.SOLV>
-0.0021257

>  <SCORE.INTRA.SOLV.lig_0>
-26.4601

>  <SCORE.INTRA.VDW>
-15.226

>  <SCORE.INTRA.VDW.0>
13.7853

>  <SCORE.INTRA.norm>
-0.578249

>  <SCORE.RESTR>
0

>  <SCORE.RESTR.CAVITY>
0

>  <SCORE.RESTR.norm>
0

>  <SCORE.SYSTEM>
0

>  <SCORE.SYSTEM.CONST>
0

>  <SCORE.SYSTEM.DIHEDRAL>
0

>  <SCORE.SYSTEM.SOLV>
0

>  <SCORE.SYSTEM.norm>
0

>  <SCORE.heavy>
29

>  <SCORE.norm>
-1.65302

>  <RMSD>
1.083

$$$$
ligand
 OpenBabel11021811473D
libRbt.so/2013.1/901 2013/11/27
 29 31  0  0  0  0  0  0  0  0999 V2000
   29.8964   39.1203   16.1011 C   0  0  0  0  0  0  0  0  0  0  0  0
   29.4853   39.9294   14.9942 O   0  0  0  0  0  0  0  0  0  0  0  0
   29.0957   39.5121   17.3354 C   0  0  1  0  0  0  0  0  0  0  0  0
   28.9307   40.9268   17.3383 O   0  0  0  0  0  0  0  0  0  0  0  0
   27.7381   38.8213   17.3343 C   0  0  1  0  0  0  0  0  0  0  0  0
   27.0905   39.1689   16.1159 O   0  0  0  0  0  0  0  0  0  0  0  0
   27.7867   37.2981   17.4865 C   0  0  1  0  0  0  0  0  0  0  0  0
   27.9939   36.7213   16.1966 O   0  0  0  0  0  0  0  0  0  0  0  0
   28.9042   36.8142   18.4084 C   0  0  0  0  0  0  0  0  0  0  0  0
   28.6804   34.0439   17.9119 N   0  0  0  0  0  0  0  0  0  0  0  0
   28.5908   32.7111   17.6404 C   0  0  0  0  0  0  0  0  0  0  0  0
   28.9420   32.2655   16.5194 O   0  0  0  0  0  0  0  0  0  0  0  0
   28.1159   31.8507   18.5765 N   0  0  0  0  0  0  0  0  0  0  0  0
   27.7228   32.2963   19.7962 C   0  0  0  0  0  0  0  0  0  0  0  0
   27.8097   33.6529   20.0877 C   0  0  1  0  0  0  0  0  0  0  0  0
   27.2820   31.4966   20.6585 O   0  0  0  0  0  0  0  0  0  0  0  0
   27.5122   35.4219   21.5835 C   0  0  1  0  0  0  0  0  0  0  0  0
   27.4257   34.1059   21.3009 N   0  0  0  0  0  0  0  0  0  0  0  0
   27.1141   35.8796   22.8347 C   0  0  0  0  0  0  0  0  0  0  0  0
   27.1937   37.2299   23.1570 C   0  0  2  0  0  0  0  0  0  0  0  0
   26.7443   37.6573   24.5306 C   0  0  0  0  0  0  0  0  0  0  0  0
   27.6807   38.1418   22.2118 C   0  0  2  0  0  0  0  0  0  0  0  0
   27.7874   39.4826   22.4570 N   0  0  0  0  0  0  0  0  0  0  0  0
   28.0765   37.6663   20.9558 C   0  0  0  0  0  0  0  0  0  0  0  0
   27.9972   36.3132   20.6278 C   0  0  2  0  0  0  0  0  0  0  0  0
   28.3002   34.5403   19.1247 C   0  0  2  0  0  0  0  0  0  0  0  0
   28.3794   35.8655   19.4098 N   0  0  0  0  0  0  0  0  0  0  0  0
   26.7140   40.3739   22.0597 C   0  0  0  0  0  0  0  0  0  0  0  0
   28.9444   40.0696   23.1124 C   0  0  0  0  0  0  0  0  0  0  0  0
  1  2  1  0  0  0  0
  3  1  1  6  0  0  0
  3  4  1  0  0  0  0
  3  5  1  0  0  0  0
  5  6  1  6  0  0  0
  5  7  1  0  0  0  0
  7  8  1  6  0  0  0
  7  9  1  0  0  0  0
  9 27  1  0  0  0  0
 10 11  1  0  0  0  0
 11 12  2  0  0  0  0
 11 13  1  0  0  0  0
 13 14  1  0  0  0  0
 14 16  2  0  0  0  0
 15 14  1  1  0  0  0
 15 18  1  0  0  0  0
 15 26  1  0  0  0  0
 17 19  1  1  0  0  0
 17 25  1  0  0  0  0
 17 18  1  0  0  0  0
 19 20  1  0  0  0  0
 20 21  1  6  0  0  0
 20 22  1  0  0  0  0
 22 23  1  6  0  0  0
 22 24  1  0  0  0  0
 23 28  1  0  0  0  0
 23 29  1  0  0  0  0
 25 24  1  6  0  0  0
 25 27  1  0  0  0  0
 26 10  1  6  0  0  0
 26 27  1  0  0  0  0
M  END
>  <CHROM.1>
-38.70749249,-56.33785621,-84.71120190,130.27418410,-94.53409375,-93.95138650
28.08117687,36.60136210,19.41615041,-1.27789486,-1.36865930,-2.95405596

>  <Name>
ligand

>  <RI>
0

>  <Rbt.Current_Directory>
/home/itssahil/PROJECTS/Mol_Feturizer/New_Systems/rnas/3F4H

>  <Rbt.Executable>
rbdock ($Id: //depot/dev/client3/rdock/2013.1/src/exe/rbdock.cxx#4 $)

>  <Rbt.Library>
libRbt.so (2013.1, Build901 2013/11/27)

>  <Rbt.Parameter_File>
/export/apps/rDock/src/rDock_2013.1_src/data/scripts/dock_solv.prm

>  <Rbt.Receptor>
prm/pocket_docking_2.prm

>  <SCORE>
-40.6086

>  <SCORE.INTER>
-28.4188

>  <SCORE.INTER.CONST>
1

>  <SCORE.INTER.POLAR>
0

>  <SCORE.INTER.ROT>
6

>  <SCORE.INTER.SOLV>
11.4224

>  <SCORE.INTER.VDW>
-30.3534

>  <SCORE.INTER.norm>
-0.97996

>  <SCORE.INTRA>
-12.3904

>  <SCORE.INTRA.DIHEDRAL>
3.62911

>  <SCORE.INTRA.DIHEDRAL.0>
6.83446

>  <SCORE.INTRA.POLAR>
0

>  <SCORE.INTRA.POLAR.0>
0

>  <SCORE.INTRA.REPUL>
0

>  <SCORE.INTRA.REPUL.0>
0

>  <SCORE.INTRA.SOLV>
0.328011

>  <SCORE.INTRA.SOLV.lig_0>
-26.4601

>  <SCORE.INTRA.VDW>
-14.3689

>  <SCORE.INTRA.VDW.0>
13.7853

>  <SCORE.INTRA.norm>
-0.427254

>  <SCORE.RESTR>
0.200658

>  <SCORE.RESTR.CAVITY>
0.200658

>  <SCORE.RESTR.norm>
0.00691924

>  <SCORE.SYSTEM>
0

>  <SCORE.SYSTEM.CONST>
0

>  <SCORE.SYSTEM.DIHEDRAL>
0

>  <SCORE.SYSTEM.SOLV>
0

>  <SCORE.SYSTEM.norm>
0

>  <SCORE.heavy>
29

>  <SCORE.norm>
-1.4003

>  <RMSD>
1.090

$$$$
ligand
 OpenBabel11021811473D
libRbt.so/2013.1/901 2013/11/27
 29 31  0  0  0  0  0  0  0  0999 V2000
   29.3796   39.8091   15.5652 C   0  0  0  0  0  0  0  0  0  0  0  0
   30.3068   40.8792   15.7754 O   0  0  0  0  0  0  0  0  0  0  0  0
   29.0411   39.1666   16.9034 C   0  0  1  0  0  0  0  0  0  0  0  0
   28.4615   40.1564   17.7476 O   0  0  0  0  0  0  0  0  0  0  0  0
   28.0753   38.0046   16.7103 C   0  0  1  0  0  0  0  0  0  0  0  0
   28.7462   37.0265   15.9242 O   0  0  0  0  0  0  0  0  0  0  0  0
   27.5570   37.3716   18.0050 C   0  0  1  0  0  0  0  0  0  0  0  0
   26.7738   36.2264   17.6663 O   0  0  0  0  0  0  0  0  0  0  0  0
   28.6693   36.9237   18.9509 C   0  0  0  0  0  0  0  0  0  0  0  0
   28.4890   34.1824   18.2994 N   0  0  0  0  0  0  0  0  0  0  0  0
   28.4200   32.8658   17.9532 C   0  0  0  0  0  0  0  0  0  0  0  0
   28.7695   32.4908   16.8062 O   0  0  0  0  0  0  0  0  0  0  0  0
   27.9677   31.9455   18.8423 N   0  0  0  0  0  0  0  0  0  0  0  0
   27.5771   32.3143   20.0882 C   0  0  0  0  0  0  0  0  0  0  0  0
   27.6433   33.6534   20.4558 C   0  0  1  0  0  0  0  0  0  0  0  0
   27.1573   31.4593   20.9069 O   0  0  0  0  0  0  0  0  0  0  0  0
   27.3279   35.3292   22.0519 C   0  0  1  0  0  0  0  0  0  0  0  0
   27.2616   34.0301   21.6955 N   0  0  0  0  0  0  0  0  0  0  0  0
   26.9324   35.7082   23.3300 C   0  0  0  0  0  0  0  0  0  0  0  0
   26.9916   37.0393   23.7279 C   0  0  2  0  0  0  0  0  0  0  0  0
   26.5463   37.3800   25.1268 C   0  0  0  0  0  0  0  0  0  0  0  0
   27.4549   38.0117   22.8326 C   0  0  2  0  0  0  0  0  0  0  0  0
   27.5407   39.3381   23.1528 N   0  0  0  0  0  0  0  0  0  0  0  0
   27.8484   37.6152   21.5486 C   0  0  0  0  0  0  0  0  0  0  0  0
   27.7896   36.2817   21.1449 C   0  0  2  0  0  0  0  0  0  0  0  0
   28.1105   34.6025   19.5412 C   0  0  2  0  0  0  0  0  0  0  0  0
   28.1692   35.9107   19.9006 N   0  0  0  0  0  0  0  0  0  0  0  0
   26.5722   40.2726   22.6113 C   0  0  0  0  0  0  0  0  0  0  0  0
   28.5724   39.8674   24.0293 C   0  0  0  0  0  0  0  0  0  0  0  0
  1  2  1  0  0  0  0
  3  1  1  6  0  0  0
  3  4  1  0  0  0  0
  3  5  1  0  0  0  0
  5  6  1  6  0  0  0
  5  7  1  0  0  0  0
  7  8  1  6  0  0  0
  7  9  1  0  0  0  0
  9 27  1  0  0  0  0
 10 11  1  0  0  0  0
 11 12  2  0  0  0  0
 11 13  1  0  0  0  0
 13 14  1  0  0  0  0
 14 16  2  0  0  0  0
 15 14  1  1  0  0  0
 15 18  1  0  0  0  0
 15 26  1  0  0  0  0
 17 19  1  1  0  0  0
 17 25  1  0  0  0  0
 17 18  1  0  0  0  0
 19 20  1  0  0  0  0
 20 21  1  6  0  0  0
 20 22  1  0  0  0  0
 22 23  1  6  0  0  0
 22 24  1  0  0  0  0
 23 28  1  0  0  0  0
 23 29  1  0  0  0  0
 25 24  1  6  0  0  0
 25 27  1  0  0  0  0
 26 10  1  6  0  0  0
 26 27  1  0  0  0  0
M  END
>  <CHROM.1>
59.94607326,63.13869425,-174.47549566,-159.09917087,-105.52952410,-97.71035705
27.95814065,36.46983834,19.81630358,0.00680857,1.32340741,0.35530205

>  <Name>
ligand

>  <RI>
0

>  <Rbt.Current_Directory>
/home/itssahil/PROJECTS/Mol_Feturizer/New_Systems/rnas/3F4H

>  <Rbt.Executable>
rbdock ($Id: //depot/dev/client3/rdock/2013.1/src/exe/rbdock.cxx#4 $)

>  <Rbt.Library>
libRbt.so (2013.1, Build901 2013/11/27)

>  <Rbt.Parameter_File>
/export/apps/rDock/src/rDock_2013.1_src/data/scripts/dock_solv.prm

>  <Rbt.Receptor>
prm/pocket_docking_5.prm

>  <SCORE>
-48.4226

>  <SCORE.INTER>
-31.5425

>  <SCORE.INTER.CONST>
1

>  <SCORE.INTER.POLAR>
0

>  <SCORE.INTER.ROT>
6

>  <SCORE.INTER.SOLV>
11.4977

>  <SCORE.INTER.VDW>
-32.4609

>  <SCORE.INTER.norm>
-1.08767

>  <SCORE.INTRA>
-16.8801

>  <SCORE.INTRA.DIHEDRAL>
-3.2007

>  <SCORE.INTRA.DIHEDRAL.0>
6.83446

>  <SCORE.INTRA.POLAR>
0

>  <SCORE.INTRA.POLAR.0>
0

>  <SCORE.INTRA.REPUL>
0

>  <SCORE.INTRA.REPUL.0>
0

>  <SCORE.INTRA.SOLV>
-0.341552

>  <SCORE.INTRA.SOLV.lig_0>
-26.4601

>  <SCORE.INTRA.VDW>
-15.109

>  <SCORE.INTRA.VDW.0>
13.7853

>  <SCORE.INTRA.norm>
-0.582073

>  <SCORE.RESTR>
0

>  <SCORE.RESTR.CAVITY>
0

>  <SCORE.RESTR.norm>
0

>  <SCORE.SYSTEM>
0

>  <SCORE.SYSTEM.CONST>
0

>  <SCORE.SYSTEM.DIHEDRAL>
0

>  <SCORE.SYSTEM.SOLV>
0

>  <SCORE.SYSTEM.norm>
0

>  <SCORE.heavy>
29

>  <SCORE.norm>
-1.66975

>  <RMSD>
1.090

$$$$
ligand
 OpenBabel11021811473D
libRbt.so/2013.1/901 2013/11/27
 29 31  0  0  0  0  0  0  0  0999 V2000
   28.9693   40.5355   15.8190 C   0  0  0  0  0  0  0  0  0  0  0  0
   29.1077   41.4196   16.9363 O   0  0  0  0  0  0  0  0  0  0  0  0
   28.8656   39.1021   16.3216 C   0  0  1  0  0  0  0  0  0  0  0  0
   30.0970   38.7500   16.9445 O   0  0  0  0  0  0  0  0  0  0  0  0
   27.7145   38.9632   17.3096 C   0  0  1  0  0  0  0  0  0  0  0  0
   26.5343   39.3971   16.6437 O   0  0  0  0  0  0  0  0  0  0  0  0
   27.5110   37.5535   17.8725 C   0  0  1  0  0  0  0  0  0  0  0  0
   27.3123   36.6549   16.7804 O   0  0  0  0  0  0  0  0  0  0  0  0
   28.6963   37.0490   18.6931 C   0  0  0  0  0  0  0  0  0  0  0  0
   28.5430   34.3213   17.9810 N   0  0  0  0  0  0  0  0  0  0  0  0
   28.4853   33.0124   17.6049 C   0  0  0  0  0  0  0  0  0  0  0  0
   28.7848   32.6738   16.4327 O   0  0  0  0  0  0  0  0  0  0  0  0
   28.0982   32.0603   18.4913 N   0  0  0  0  0  0  0  0  0  0  0  0
   27.7627   32.3892   19.7642 C   0  0  0  0  0  0  0  0  0  0  0  0
   27.8181   33.7201   20.1623 C   0  0  1  0  0  0  0  0  0  0  0  0
   27.4030   31.5049   20.5803 O   0  0  0  0  0  0  0  0  0  0  0  0
   27.5469   35.3484   21.8147 C   0  0  1  0  0  0  0  0  0  0  0  0
   27.4910   34.0572   21.4287 N   0  0  0  0  0  0  0  0  0  0  0  0
   27.2080   35.6866   23.1201 C   0  0  0  0  0  0  0  0  0  0  0  0
   27.2581   37.0085   23.5487 C   0  0  2  0  0  0  0  0  0  0  0  0
   26.8763   37.3044   24.9763 C   0  0  0  0  0  0  0  0  0  0  0  0
   27.6548   38.0130   22.6569 C   0  0  2  0  0  0  0  0  0  0  0  0
   27.7278   39.3328   23.0064 N   0  0  0  0  0  0  0  0  0  0  0  0
   27.9919   37.6574   21.3452 C   0  0  0  0  0  0  0  0  0  0  0  0
   27.9418   36.3333   20.9107 C   0  0  2  0  0  0  0  0  0  0  0  0
   28.2182   34.7019   19.2505 C   0  0  2  0  0  0  0  0  0  0  0  0
   28.2665   36.0018   19.6400 N   0  0  0  0  0  0  0  0  0  0  0  0
   28.9927   40.0353   22.9024 C   0  0  0  0  0  0  0  0  0  0  0  0
   26.5768   40.0819   23.4827 C   0  0  0  0  0  0  0  0  0  0  0  0
  1  2  1  0  0  0  0
  3  1  1  1  0  0  0
  3  4  1  0  0  0  0
  3  5  1  0  0  0  0
  5  6  1  6  0  0  0
  5  7  1  0  0  0  0
  7  8  1  6  0  0  0
  7  9  1  0  0  0  0
  9 27  1  0  0  0  0
 10 11  1  0  0  0  0
 11 12  2  0  0  0  0
 11 13  1  0  0  0  0
 13 14  1  0  0  0  0
 14 16  2  0  0  0  0
 15 14  1  1  0  0  0
 15 18  1  0  0  0  0
 15 26  1  0  0  0  0
 17 19  1  1  0  0  0
 17 25  1  0  0  0  0
 17 18  1  0  0  0  0
 19 20  1  0  0  0  0
 20 21  1  6  0  0  0
 20 22  1  0  0  0  0
 22 23  1  6  0  0  0
 22 24  1  0  0  0  0
 23 28  1  0  0  0  0
 23 29  1  0  0  0  0
 25 24  1  6  0  0  0
 25 27  1  0  0  0  0
 26 10  1  6  0  0  0
 26 27  1  0  0  0  0
M  END
>  <CHROM.1>
-65.05864123,56.86680351,-57.07373161,156.50472840,120.52893666,-94.34294415
27.99343865,36.64453954,19.65416623,-1.18247706,-1.40340350,-2.93127928

>  <Name>
ligand

>  <RI>
0

>  <Rbt.Current_Directory>
/home/itssahil/PROJECTS/Mol_Feturizer/New_Systems/rnas/3F4H

>  <Rbt.Executable>
rbdock ($Id: //depot/dev/client3/rdock/2013.1/src/exe/rbdock.cxx#4 $)

>  <Rbt.Library>
libRbt.so (2013.1, Build901 2013/11/27)

>  <Rbt.Parameter_File>
/export/apps/rDock/src/rDock_2013.1_src/data/scripts/dock_solv.prm

>  <Rbt.Receptor>
prm/pocket_docking_2.prm

>  <SCORE>
-44.6106

>  <SCORE.INTER>
-29.5827

>  <SCORE.INTER.CONST>
1

>  <SCORE.INTER.POLAR>
0

>  <SCORE.INTER.ROT>
6

>  <SCORE.INTER.SOLV>
10.5813

>  <SCORE.INTER.VDW>
-30.8489

>  <SCORE.INTER.norm>
-1.02009

>  <SCORE.INTRA>
-15.0342

>  <SCORE.INTRA.DIHEDRAL>
-2.85327

>  <SCORE.INTRA.DIHEDRAL.0>
6.83446

>  <SCORE.INTRA.POLAR>
0

>  <SCORE.INTRA.POLAR.0>
0

>  <SCORE.INTRA.REPUL>
0

>  <SCORE.INTRA.REPUL.0>
0

>  <SCORE.INTRA.SOLV>
0.182105

>  <SCORE.INTRA.SOLV.lig_0>
-26.4601

>  <SCORE.INTRA.VDW>
-13.6986

>  <SCORE.INTRA.VDW.0>
13.7853

>  <SCORE.INTRA.norm>
-0.51842

>  <SCORE.RESTR>
0.00631439

>  <SCORE.RESTR.CAVITY>
0.00631439

>  <SCORE.RESTR.norm>
0.000217738

>  <SCORE.SYSTEM>
0

>  <SCORE.SYSTEM.CONST>
0

>  <SCORE.SYSTEM.DIHEDRAL>
0

>  <SCORE.SYSTEM.SOLV>
0

>  <SCORE.SYSTEM.norm>
0

>  <SCORE.heavy>
29

>  <SCORE.norm>
-1.5383

>  <RMSD>
1.104

$$$$
ligand
 OpenBabel11021811473D
libRbt.so/2013.1/901 2013/11/27
 29 31  0  0  0  0  0  0  0  0999 V2000
   28.6732   40.4977   15.6772 C   0  0  0  0  0  0  0  0  0  0  0  0
   28.9785   41.8556   16.0114 O   0  0  0  0  0  0  0  0  0  0  0  0
   28.7957   39.6329   16.9242 C   0  0  1  0  0  0  0  0  0  0  0  0
   27.7847   40.0239   17.8481 O   0  0  0  0  0  0  0  0  0  0  0  0
   28.6470   38.1588   16.5702 C   0  0  1  0  0  0  0  0  0  0  0  0
   29.6613   37.8500   15.6212 O   0  0  0  0  0  0  0  0  0  0  0  0
   28.7299   37.1961   17.7585 C   0  0  1  0  0  0  0  0  0  0  0  0
   29.9174   37.4891   18.4958 O   0  0  0  0  0  0  0  0  0  0  0  0
   27.5409   37.3018   18.7113 C   0  0  0  0  0  0  0  0  0  0  0  0
   27.4804   34.5937   17.9152 N   0  0  0  0  0  0  0  0  0  0  0  0
   27.4556   33.2970   17.4956 C   0  0  0  0  0  0  0  0  0  0  0  0
   27.4114   33.0261   16.2696 O   0  0  0  0  0  0  0  0  0  0  0  0
   27.4731   32.2836   18.3981 N   0  0  0  0  0  0  0  0  0  0  0  0
   27.5158   32.5380   19.7301 C   0  0  0  0  0  0  0  0  0  0  0  0
   27.5428   33.8556   20.1727 C   0  0  1  0  0  0  0  0  0  0  0  0
   27.5296   31.5968   20.5616 O   0  0  0  0  0  0  0  0  0  0  0  0
   27.6186   35.3982   21.9249 C   0  0  1  0  0  0  0  0  0  0  0  0
   27.5905   34.1195   21.4965 N   0  0  0  0  0  0  0  0  0  0  0  0
   27.6672   35.6606   23.2896 C   0  0  0  0  0  0  0  0  0  0  0  0
   27.6997   36.9680   23.7621 C   0  0  2  0  0  0  0  0  0  0  0  0
   27.7506   37.1803   25.2533 C   0  0  0  0  0  0  0  0  0  0  0  0
   27.6838   38.0349   22.8547 C   0  0  2  0  0  0  0  0  0  0  0  0
   27.7134   39.3448   23.2450 N   0  0  0  0  0  0  0  0  0  0  0  0
   27.6334   37.7550   21.4837 C   0  0  0  0  0  0  0  0  0  0  0  0
   27.5995   36.4455   21.0054 C   0  0  2  0  0  0  0  0  0  0  0  0
   27.5264   34.9009   19.2439 C   0  0  2  0  0  0  0  0  0  0  0  0
   27.5475   36.1871   19.6785 N   0  0  0  0  0  0  0  0  0  0  0  0
   28.8800   40.1560   22.9528 C   0  0  0  0  0  0  0  0  0  0  0  0
   26.6103   39.9779   23.9488 C   0  0  0  0  0  0  0  0  0  0  0  0
  1  2  1  0  0  0  0
  3  1  1  6  0  0  0
  3  4  1  0  0  0  0
  3  5  1  0  0  0  0
  5  6  1  6  0  0  0
  5  7  1  0  0  0  0
  7  8  1  1  0  0  0
  7  9  1  0  0  0  0
  9 27  1  0  0  0  0
 10 11  1  0  0  0  0
 11 12  2  0  0  0  0
 11 13  1  0  0  0  0
 13 14  1  0  0  0  0
 14 16  2  0  0  0  0
 15 14  1  6  0  0  0
 15 18  1  0  0  0  0
 15 26  1  0  0  0  0
 17 19  1  6  0  0  0
 17 25  1  0  0  0  0
 17 18  1  0  0  0  0
 19 20  1  0  0  0  0
 20 21  1  1  0  0  0
 20 22  1  0  0  0  0
 22 23  1  1  0  0  0
 22 24  1  0  0  0  0
 23 28  1  0  0  0  0
 23 29  1  0  0  0  0
 25 24  1  1  0  0  0
 25 27  1  0  0  0  0
 26 10  1  1  0  0  0
 26 27  1  0  0  0  0
M  END
>  <CHROM.1>
65.87737331,58.33765025,-51.64212640,169.15547931,112.38323208,121.11722760
27.98223413,36.74151864,19.72141773,-0.16169033,1.39027825,0.77827383

>  <Name>
ligand

>  <RI>
0

>  <Rbt.Current_Directory>
/home/itssahil/PROJECTS/Mol_Feturizer/New_Systems/rnas/3F4H

>  <Rbt.Executable>
rbdock ($Id: //depot/dev/client3/rdock/2013.1/src/exe/rbdock.cxx#4 $)

>  <Rbt.Library>
libRbt.so (2013.1, Build901 2013/11/27)

>  <Rbt.Parameter_File>
/export/apps/rDock/src/rDock_2013.1_src/data/scripts/dock_solv.prm

>  <Rbt.Receptor>
prm/pocket_docking_2.prm

>  <SCORE>
-41.558

>  <SCORE.INTER>
-25.2902

>  <SCORE.INTER.CONST>
1

>  <SCORE.INTER.POLAR>
0

>  <SCORE.INTER.ROT>
6

>  <SCORE.INTER.SOLV>
9.46303

>  <SCORE.INTER.VDW>
-27.6145

>  <SCORE.INTER.norm>
-0.872075

>  <SCORE.INTRA>
-16.5915

>  <SCORE.INTRA.DIHEDRAL>
-4.01032

>  <SCORE.INTRA.DIHEDRAL.0>
6.83446

>  <SCORE.INTRA.POLAR>
0

>  <SCORE.INTRA.POLAR.0>
0

>  <SCORE.INTRA.REPUL>
0

>  <SCORE.INTRA.REPUL.0>
0

>  <SCORE.INTRA.SOLV>
-0.261

>  <SCORE.INTRA.SOLV.lig_0>
-26.4601

>  <SCORE.INTRA.VDW>
-14.4558

>  <SCORE.INTRA.VDW.0>
13.7853

>  <SCORE.INTRA.norm>
-0.572121

>  <SCORE.RESTR>
0.323657

>  <SCORE.RESTR.CAVITY>
0.323657

>  <SCORE.RESTR.norm>
0.0111606

>  <SCORE.SYSTEM>
0

>  <SCORE.SYSTEM.CONST>
0

>  <SCORE.SYSTEM.DIHEDRAL>
0

>  <SCORE.SYSTEM.SOLV>
0

>  <SCORE.SYSTEM.norm>
0

>  <SCORE.heavy>
29

>  <SCORE.norm>
-1.43303

>  <RMSD>
1.113

$$$$
ligand
 OpenBabel11021811473D
libRbt.so/2013.1/901 2013/11/27
 29 31  0  0  0  0  0  0  0  0999 V2000
   28.8150   40.3755   15.6150 C   0  0  0  0  0  0  0  0  0  0  0  0
   29.3240   41.6920   15.8534 O   0  0  0  0  0  0  0  0  0  0  0  0
   28.9925   39.5325   16.8704 C   0  0  1  0  0  0  0  0  0  0  0  0
   28.0800   39.9965   17.8605 O   0  0  0  0  0  0  0  0  0  0  0  0
   28.7409   38.0611   16.5672 C   0  0  1  0  0  0  0  0  0  0  0  0
   29.7010   37.6619   15.5958 O   0  0  0  0  0  0  0  0  0  0  0  0
   28.8048   37.1299   17.7814 C   0  0  1  0  0  0  0  0  0  0  0  0
   29.9370   37.4946   18.5718 O   0  0  0  0  0  0  0  0  0  0  0  0
   27.5634   37.2005   18.6684 C   0  0  0  0  0  0  0  0  0  0  0  0
   27.4747   34.4853   17.8997 N   0  0  0  0  0  0  0  0  0  0  0  0
   27.4365   33.1848   17.4932 C   0  0  0  0  0  0  0  0  0  0  0  0
   27.3893   32.9019   16.2700 O   0  0  0  0  0  0  0  0  0  0  0  0
   27.4434   32.1803   18.4059 N   0  0  0  0  0  0  0  0  0  0  0  0
   27.4889   32.4477   19.7353 C   0  0  0  0  0  0  0  0  0  0  0  0
   27.5296   33.7694   20.1645 C   0  0  1  0  0  0  0  0  0  0  0  0
   27.4930   31.5149   20.5762 O   0  0  0  0  0  0  0  0  0  0  0  0
   27.6217   35.3287   21.9011 C   0  0  1  0  0  0  0  0  0  0  0  0
   27.5803   34.0461   21.4856 N   0  0  0  0  0  0  0  0  0  0  0  0
   27.6731   35.6044   23.2630 C   0  0  0  0  0  0  0  0  0  0  0  0
   27.7193   36.9161   23.7223 C   0  0  2  0  0  0  0  0  0  0  0  0
   27.7725   37.1429   25.2113 C   0  0  0  0  0  0  0  0  0  0  0  0
   27.7144   37.9739   22.8042 C   0  0  2  0  0  0  0  0  0  0  0  0
   27.7577   39.2873   23.1813 N   0  0  0  0  0  0  0  0  0  0  0  0
   27.6610   37.6807   21.4361 C   0  0  0  0  0  0  0  0  0  0  0  0
   27.6134   36.3669   20.9710 C   0  0  2  0  0  0  0  0  0  0  0  0
   27.5240   34.8053   19.2252 C   0  0  2  0  0  0  0  0  0  0  0  0
   27.5586   36.0956   19.6468 N   0  0  0  0  0  0  0  0  0  0  0  0
   26.6155   39.8815   23.8496 C   0  0  0  0  0  0  0  0  0  0  0  0
   28.9161   40.1327   22.9442 C   0  0  0  0  0  0  0  0  0  0  0  0
  1  2  1  0  0  0  0
  3  1  1  6  0  0  0
  3  4  1  0  0  0  0
  3  5  1  0  0  0  0
  5  6  1  6  0  0  0
  5  7  1  0  0  0  0
  7  8  1  1  0  0  0
  7  9  1  0  0  0  0
  9 27  1  0  0  0  0
 10 11  1  0  0  0  0
 11 12  2  0  0  0  0
 11 13  1  0  0  0  0
 13 14  1  0  0  0  0
 14 16  2  0  0  0  0
 15 14  1  6  0  0  0
 15 18  1  0  0  0  0
 15 26  1  0  0  0  0
 17 19  1  6  0  0  0
 17 25  1  0  0  0  0
 17 18  1  0  0  0  0
 19 20  1  0  0  0  0
 20 21  1  1  0  0  0
 20 22  1  0  0  0  0
 22 23  1  1  0  0  0
 22 24  1  0  0  0  0
 23 28  1  0  0  0  0
 23 29  1  0  0  0  0
 25 24  1  1  0  0  0
 25 27  1  0  0  0  0
 26 10  1  1  0  0  0
 26 27  1  0  0  0  0
M  END
>  <CHROM.1>
70.90452482,61.06386232,-43.68776213,168.20194523,-69.10171016,117.04503773
28.02964021,36.65714809,19.69629118,-0.13574576,1.36376740,0.81737960

>  <Name>
ligand

>  <RI>
0

>  <Rbt.Current_Directory>
/home/itssahil/PROJECTS/Mol_Feturizer/New_Systems/rnas/3F4H

>  <Rbt.Executable>
rbdock ($Id: //depot/dev/client3/rdock/2013.1/src/exe/rbdock.cxx#4 $)

>  <Rbt.Library>
libRbt.so (2013.1, Build901 2013/11/27)

>  <Rbt.Parameter_File>
/export/apps/rDock/src/rDock_2013.1_src/data/scripts/dock_solv.prm

>  <Rbt.Receptor>
prm/pocket_docking_2.prm

>  <SCORE>
-41.4896

>  <SCORE.INTER>
-25.3516

>  <SCORE.INTER.CONST>
1

>  <SCORE.INTER.POLAR>
0

>  <SCORE.INTER.ROT>
6

>  <SCORE.INTER.SOLV>
9.92661

>  <SCORE.INTER.VDW>
-27.8099

>  <SCORE.INTER.norm>
-0.874193

>  <SCORE.INTRA>
-16.5232

>  <SCORE.INTRA.DIHEDRAL>
-2.99029

>  <SCORE.INTRA.DIHEDRAL.0>
6.83446

>  <SCORE.INTRA.POLAR>
0

>  <SCORE.INTRA.POLAR.0>
0

>  <SCORE.INTRA.REPUL>
0

>  <SCORE.INTRA.REPUL.0>
0

>  <SCORE.INTRA.SOLV>
-0.249176

>  <SCORE.INTRA.SOLV.lig_0>
-26.4601

>  <SCORE.INTRA.VDW>
-14.9035

>  <SCORE.INTRA.VDW.0>
13.7853

>  <SCORE.INTRA.norm>
-0.569766

>  <SCORE.RESTR>
0.385214

>  <SCORE.RESTR.CAVITY>
0.385214

>  <SCORE.RESTR.norm>
0.0132832

>  <SCORE.SYSTEM>
0

>  <SCORE.SYSTEM.CONST>
0

>  <SCORE.SYSTEM.DIHEDRAL>
0

>  <SCORE.SYSTEM.SOLV>
0

>  <SCORE.SYSTEM.norm>
0

>  <SCORE.heavy>
29

>  <SCORE.norm>
-1.43068

>  <RMSD>
1.139

$$$$
ligand
 OpenBabel11021811473D
libRbt.so/2013.1/901 2013/11/27
 29 31  0  0  0  0  0  0  0  0999 V2000
   29.2431   40.4341   16.0046 C   0  0  0  0  0  0  0  0  0  0  0  0
   29.1138   41.1303   17.2486 O   0  0  0  0  0  0  0  0  0  0  0  0
   29.0486   38.9425   16.2403 C   0  0  1  0  0  0  0  0  0  0  0  0
   30.2146   38.4284   16.8764 O   0  0  0  0  0  0  0  0  0  0  0  0
   27.8203   38.6930   17.1060 C   0  0  1  0  0  0  0  0  0  0  0  0
   26.6776   38.9593   16.3010 O   0  0  0  0  0  0  0  0  0  0  0  0
   27.7246   37.2861   17.7036 C   0  0  1  0  0  0  0  0  0  0  0  0
   27.9147   36.3355   16.6550 O   0  0  0  0  0  0  0  0  0  0  0  0
   28.7661   37.0131   18.7870 C   0  0  0  0  0  0  0  0  0  0  0  0
   28.5937   34.2952   18.0424 N   0  0  0  0  0  0  0  0  0  0  0  0
   28.5278   32.9911   17.6512 C   0  0  0  0  0  0  0  0  0  0  0  0
   28.8557   32.6599   16.4845 O   0  0  0  0  0  0  0  0  0  0  0  0
   28.1020   32.0360   18.5163 N   0  0  0  0  0  0  0  0  0  0  0  0
   27.7352   32.3571   19.7825 C   0  0  0  0  0  0  0  0  0  0  0  0
   27.7984   33.6829   20.1959 C   0  0  1  0  0  0  0  0  0  0  0  0
   27.3397   31.4700   20.5789 O   0  0  0  0  0  0  0  0  0  0  0  0
   27.5039   35.2985   21.8569 C   0  0  1  0  0  0  0  0  0  0  0  0
   27.4404   34.0121   21.4561 N   0  0  0  0  0  0  0  0  0  0  0  0
   27.1328   35.6285   23.1557 C   0  0  0  0  0  0  0  0  0  0  0  0
   27.1898   36.9452   23.5993 C   0  0  2  0  0  0  0  0  0  0  0  0
   26.7718   37.2324   25.0185 C   0  0  0  0  0  0  0  0  0  0  0  0
   27.6261   37.9526   22.7295 C   0  0  2  0  0  0  0  0  0  0  0  0
   27.7081   39.2676   23.0947 N   0  0  0  0  0  0  0  0  0  0  0  0
   27.9952   37.6052   21.4243 C   0  0  0  0  0  0  0  0  0  0  0  0
   27.9385   36.2864   20.9748 C   0  0  2  0  0  0  0  0  0  0  0  0
   28.2384   34.6678   19.3061 C   0  0  2  0  0  0  0  0  0  0  0  0
   28.2944   35.9629   19.7104 N   0  0  0  0  0  0  0  0  0  0  0  0
   26.8763   40.2520   22.4289 C   0  0  0  0  0  0  0  0  0  0  0  0
   28.6025   39.7360   24.1405 C   0  0  0  0  0  0  0  0  0  0  0  0
  1  2  1  0  0  0  0
  3  1  1  1  0  0  0
  3  4  1  0  0  0  0
  3  5  1  0  0  0  0
  5  6  1  6  0  0  0
  5  7  1  0  0  0  0
  7  8  1  6  0  0  0
  7  9  1  0  0  0  0
  9 27  1  0  0  0  0
 10 11  1  0  0  0  0
 11 12  2  0  0  0  0
 11 13  1  0  0  0  0
 13 14  1  0  0  0  0
 14 16  2  0  0  0  0
 15 14  1  1  0  0  0
 15 18  1  0  0  0  0
 15 26  1  0  0  0  0
 17 19  1  1  0  0  0
 17 25  1  0  0  0  0
 17 18  1  0  0  0  0
 19 20  1  0  0  0  0
 20 21  1  6  0  0  0
 20 22  1  0  0  0  0
 22 23  1  6  0  0  0
 22 24  1  0  0  0  0
 23 28  1  0  0  0  0
 23 29  1  0  0  0  0
 25 24  1  6  0  0  0
 25 27  1  0  0  0  0
 26 10  1  6  0  0  0
 26 27  1  0  0  0  0
M  END
>  <CHROM.1>
-74.19096410,72.28240684,-50.27688871,154.91030409,-116.45632471,-109.05395961
28.04421932,36.53166460,19.67534555,-0.76045139,1.38643125,0.26597790

>  <Name>
ligand

>  <RI>
0

>  <Rbt.Current_Directory>
/home/itssahil/PROJECTS/Mol_Feturizer/New_Systems/rnas/3F4H

>  <Rbt.Executable>
rbdock ($Id: //depot/dev/client3/rdock/2013.1/src/exe/rbdock.cxx#4 $)

>  <Rbt.Library>
libRbt.so (2013.1, Build901 2013/11/27)

>  <Rbt.Parameter_File>
/export/apps/rDock/src/rDock_2013.1_src/data/scripts/dock_solv.prm

>  <Rbt.Receptor>
prm/pocket_docking_2.prm

>  <SCORE>
-43.9625

>  <SCORE.INTER>
-30.0004

>  <SCORE.INTER.CONST>
1

>  <SCORE.INTER.POLAR>
0

>  <SCORE.INTER.ROT>
6

>  <SCORE.INTER.SOLV>
10.4883

>  <SCORE.INTER.VDW>
-31.0964

>  <SCORE.INTER.norm>
-1.0345

>  <SCORE.INTRA>
-14.1243

>  <SCORE.INTRA.DIHEDRAL>
-1.24145

>  <SCORE.INTRA.DIHEDRAL.0>
6.83446

>  <SCORE.INTRA.POLAR>
0

>  <SCORE.INTRA.POLAR.0>
0

>  <SCORE.INTRA.REPUL>
0

>  <SCORE.INTRA.REPUL.0>
0

>  <SCORE.INTRA.SOLV>
0.467753

>  <SCORE.INTRA.SOLV.lig_0>
-26.4601

>  <SCORE.INTRA.VDW>
-13.7375

>  <SCORE.INTRA.VDW.0>
13.7853

>  <SCORE.INTRA.norm>
-0.487045

>  <SCORE.RESTR>
0.162232

>  <SCORE.RESTR.CAVITY>
0.162232

>  <SCORE.RESTR.norm>
0.00559421

>  <SCORE.SYSTEM>
0

>  <SCORE.SYSTEM.CONST>
0

>  <SCORE.SYSTEM.DIHEDRAL>
0

>  <SCORE.SYSTEM.SOLV>
0

>  <SCORE.SYSTEM.norm>
0

>  <SCORE.heavy>
29

>  <SCORE.norm>
-1.51595

>  <RMSD>
1.187

$$$$
ligand
 OpenBabel11021811473D
libRbt.so/2013.1/901 2013/11/27
 29 31  0  0  0  0  0  0  0  0999 V2000
   26.9059   40.6323   17.7096 C   0  0  0  0  0  0  0  0  0  0  0  0
   28.1140   41.3696   17.9239 O   0  0  0  0  0  0  0  0  0  0  0  0
   27.0546   39.7752   16.4600 C   0  0  1  0  0  0  0  0  0  0  0  0
   27.5099   40.6030   15.3942 O   0  0  0  0  0  0  0  0  0  0  0  0
   28.0389   38.6386   16.7045 C   0  0  1  0  0  0  0  0  0  0  0  0
   29.3060   39.2294   16.9692 O   0  0  0  0  0  0  0  0  0  0  0  0
   27.6573   37.6849   17.8404 C   0  0  1  0  0  0  0  0  0  0  0  0
   26.6083   36.8315   17.3810 O   0  0  0  0  0  0  0  0  0  0  0  0
   28.8138   36.8051   18.3106 C   0  0  0  0  0  0  0  0  0  0  0  0
   28.6423   34.0305   17.8171 N   0  0  0  0  0  0  0  0  0  0  0  0
   28.5765   32.6962   17.5463 C   0  0  0  0  0  0  0  0  0  0  0  0
   28.8936   32.2614   16.4110 O   0  0  0  0  0  0  0  0  0  0  0  0
   28.1623   31.8226   18.4987 N   0  0  0  0  0  0  0  0  0  0  0  0
   27.8072   32.2562   19.7343 C   0  0  0  0  0  0  0  0  0  0  0  0
   27.8706   33.6142   20.0253 C   0  0  1  0  0  0  0  0  0  0  0  0
   27.4225   31.4441   20.6118 O   0  0  0  0  0  0  0  0  0  0  0  0
   27.5878   35.3729   21.5360 C   0  0  1  0  0  0  0  0  0  0  0  0
   27.5242   34.0555   21.2540 N   0  0  0  0  0  0  0  0  0  0  0  0
   27.2288   35.8185   22.8033 C   0  0  0  0  0  0  0  0  0  0  0  0
   27.2862   37.1700   23.1252 C   0  0  2  0  0  0  0  0  0  0  0  0
   26.8816   37.5837   24.5168 C   0  0  0  0  0  0  0  0  0  0  0  0
   27.7107   38.0955   22.1634 C   0  0  2  0  0  0  0  0  0  0  0  0
   27.7924   39.4383   22.4072 N   0  0  0  0  0  0  0  0  0  0  0  0
   28.0677   37.6320   20.8913 C   0  0  0  0  0  0  0  0  0  0  0  0
   28.0105   36.2778   20.5636 C   0  0  2  0  0  0  0  0  0  0  0  0
   28.2986   34.5153   19.0454 C   0  0  2  0  0  0  0  0  0  0  0  0
   28.3547   35.8418   19.3302 N   0  0  0  0  0  0  0  0  0  0  0  0
   26.7309   40.3172   21.9543 C   0  0  0  0  0  0  0  0  0  0  0  0
   28.9105   40.0395   23.1150 C   0  0  0  0  0  0  0  0  0  0  0  0
  1  2  1  0  0  0  0
  3  1  1  1  0  0  0
  3  4  1  0  0  0  0
  3  5  1  0  0  0  0
  5  6  1  1  0  0  0
  5  7  1  0  0  0  0
  7  8  1  6  0  0  0
  7  9  1  0  0  0  0
  9 27  1  0  0  0  0
 10 11  1  0  0  0  0
 11 12  2  0  0  0  0
 11 13  1  0  0  0  0
 13 14  1  0  0  0  0
 14 16  2  0  0  0  0
 15 14  1  1  0  0  0
 15 18  1  0  0  0  0
 15 26  1  0  0  0  0
 17 19  1  1  0  0  0
 17 25  1  0  0  0  0
 17 18  1  0  0  0  0
 19 20  1  0  0  0  0
 20 21  1  6  0  0  0
 20 22  1  0  0  0  0
 22 23  1  6  0  0  0
 22 24  1  0  0  0  0
 23 28  1  0  0  0  0
 23 29  1  0  0  0  0
 25 24  1  6  0  0  0
 25 27  1  0  0  0  0
 26 10  1  6  0  0  0
 26 27  1  0  0  0  0
M  END
>  <CHROM.1>
-51.07245356,-63.19868661,75.57165732,-175.65744515,-99.71742055,-70.28117885
27.85754805,36.69510835,19.51260111,-2.09036083,-1.47057525,2.61027062

>  <Name>
ligand

>  <RI>
0

>  <Rbt.Current_Directory>
/home/itssahil/PROJECTS/Mol_Feturizer/New_Systems/rnas/3F4H

>  <Rbt.Executable>
rbdock ($Id: //depot/dev/client3/rdock/2013.1/src/exe/rbdock.cxx#4 $)

>  <Rbt.Library>
libRbt.so (2013.1, Build901 2013/11/27)

>  <Rbt.Parameter_File>
/export/apps/rDock/src/rDock_2013.1_src/data/scripts/dock_solv.prm

>  <Rbt.Receptor>
prm/pocket_docking_2.prm

>  <SCORE>
-45.2211

>  <SCORE.INTER>
-28.6184

>  <SCORE.INTER.CONST>
1

>  <SCORE.INTER.POLAR>
0

>  <SCORE.INTER.ROT>
6

>  <SCORE.INTER.SOLV>
11.0653

>  <SCORE.INTER.VDW>
-30.3673

>  <SCORE.INTER.norm>
-0.98684

>  <SCORE.INTRA>
-16.7804

>  <SCORE.INTRA.DIHEDRAL>
-3.56899

>  <SCORE.INTRA.DIHEDRAL.0>
6.83446

>  <SCORE.INTRA.POLAR>
0

>  <SCORE.INTRA.POLAR.0>
0

>  <SCORE.INTRA.REPUL>
0

>  <SCORE.INTRA.REPUL.0>
0

>  <SCORE.INTRA.SOLV>
0.136344

>  <SCORE.INTRA.SOLV.lig_0>
-26.4601

>  <SCORE.INTRA.VDW>
-15.0641

>  <SCORE.INTRA.VDW.0>
13.7853

>  <SCORE.INTRA.norm>
-0.578634

>  <SCORE.RESTR>
0.177664

>  <SCORE.RESTR.CAVITY>
0.177664

>  <SCORE.RESTR.norm>
0.00612635

>  <SCORE.SYSTEM>
0

>  <SCORE.SYSTEM.CONST>
0

>  <SCORE.SYSTEM.DIHEDRAL>
0

>  <SCORE.SYSTEM.SOLV>
0

>  <SCORE.SYSTEM.norm>
0

>  <SCORE.heavy>
29

>  <SCORE.norm>
-1.55935

>  <RMSD>
1.202

$$$$
ligand
 OpenBabel11021811473D
libRbt.so/2013.1/901 2013/11/27
 29 31  0  0  0  0  0  0  0  0999 V2000
   28.9505   40.4808   15.6835 C   0  0  0  0  0  0  0  0  0  0  0  0
   30.0947   40.3389   14.8352 O   0  0  0  0  0  0  0  0  0  0  0  0
   29.1491   39.6442   16.9401 C   0  0  1  0  0  0  0  0  0  0  0  0
   28.1098   39.9575   17.8620 O   0  0  0  0  0  0  0  0  0  0  0  0
   29.1274   38.1588   16.6033 C   0  0  1  0  0  0  0  0  0  0  0  0
   30.2899   37.8862   15.8294 O   0  0  0  0  0  0  0  0  0  0  0  0
   29.0710   37.2215   17.8131 C   0  0  1  0  0  0  0  0  0  0  0  0
   30.0409   37.6559   18.7672 O   0  0  0  0  0  0  0  0  0  0  0  0
   27.7071   37.1960   18.5000 C   0  0  0  0  0  0  0  0  0  0  0  0
   27.7123   34.4420   17.8785 N   0  0  0  0  0  0  0  0  0  0  0  0
   27.7212   33.1208   17.5429 C   0  0  0  0  0  0  0  0  0  0  0  0
   27.7507   32.7714   16.3365 O   0  0  0  0  0  0  0  0  0  0  0  0
   27.6930   32.1676   18.5086 N   0  0  0  0  0  0  0  0  0  0  0  0
   27.6559   32.5074   19.8216 C   0  0  0  0  0  0  0  0  0  0  0  0
   27.6477   33.8509   20.1788 C   0  0  1  0  0  0  0  0  0  0  0  0
   27.6277   31.6216   20.7116 O   0  0  0  0  0  0  0  0  0  0  0  0
   27.6101   35.5033   21.8291 C   0  0  1  0  0  0  0  0  0  0  0  0
   27.6161   34.1996   21.4834 N   0  0  0  0  0  0  0  0  0  0  0  0
   27.5770   35.8533   23.1745 C   0  0  0  0  0  0  0  0  0  0  0  0
   27.5726   37.1886   23.5626 C   0  0  2  0  0  0  0  0  0  0  0  0
   27.5347   37.4966   25.0374 C   0  0  0  0  0  0  0  0  0  0  0  0
   27.6023   38.1948   22.5887 C   0  0  2  0  0  0  0  0  0  0  0  0
   27.5998   39.5273   22.8946 N   0  0  0  0  0  0  0  0  0  0  0  0
   27.6342   37.8271   21.2380 C   0  0  0  0  0  0  0  0  0  0  0  0
   27.6374   36.4893   20.8442 C   0  0  2  0  0  0  0  0  0  0  0  0
   27.6783   34.8341   19.1850 C   0  0  2  0  0  0  0  0  0  0  0  0
   27.6649   36.1458   19.5361 N   0  0  0  0  0  0  0  0  0  0  0  0
   28.8211   40.1621   23.3528 C   0  0  0  0  0  0  0  0  0  0  0  0
   26.4114   40.3560   22.7771 C   0  0  0  0  0  0  0  0  0  0  0  0
  1  2  1  0  0  0  0
  3  1  1  6  0  0  0
  3  4  1  0  0  0  0
  3  5  1  0  0  0  0
  5  6  1  1  0  0  0
  5  7  1  0  0  0  0
  7  8  1  1  0  0  0
  7  9  1  0  0  0  0
  9 27  1  0  0  0  0
 10 11  1  0  0  0  0
 11 12  2  0  0  0  0
 11 13  1  0  0  0  0
 13 14  1  0  0  0  0
 14 16  2  0  0  0  0
 15 14  1  1  0  0  0
 15 18  1  0  0  0  0
 15 26  1  0  0  0  0
 17 19  1  1  0  0  0
 17 25  1  0  0  0  0
 17 18  1  0  0  0  0
 19 20  1  0  0  0  0
 20 21  1  6  0  0  0
 20 22  1  0  0  0  0
 22 23  1  6  0  0  0
 22 24  1  0  0  0  0
 23 28  1  0  0  0  0
 23 29  1  0  0  0  0
 25 24  1  6  0  0  0
 25 27  1  0  0  0  0
 26 10  1  6  0  0  0
 26 27  1  0  0  0  0
M  END
>  <CHROM.1>
170.95577563,67.59838048,-46.86093621,172.33495458,77.52455974,109.65369783
28.15283809,36.71409309,19.61633951,-0.09468398,1.31418891,0.56113849

>  <Name>
ligand

>  <RI>
0

>  <Rbt.Current_Directory>
/home/itssahil/PROJECTS/Mol_Feturizer/New_Systems/rnas/3F4H

>  <Rbt.Executable>
rbdock ($Id: //depot/dev/client3/rdock/2013.1/src/exe/rbdock.cxx#4 $)

>  <Rbt.Library>
libRbt.so (2013.1, Build901 2013/11/27)

>  <Rbt.Parameter_File>
/export/apps/rDock/src/rDock_2013.1_src/data/scripts/dock_solv.prm

>  <Rbt.Receptor>
prm/blind_docking_80.prm

>  <SCORE>
-42.3155

>  <SCORE.INTER>
-25.3964

>  <SCORE.INTER.CONST>
1

>  <SCORE.INTER.POLAR>
0

>  <SCORE.INTER.ROT>
6

>  <SCORE.INTER.SOLV>
10.5195

>  <SCORE.INTER.VDW>
-28.0374

>  <SCORE.INTER.norm>
-0.875737

>  <SCORE.INTRA>
-16.9191

>  <SCORE.INTRA.DIHEDRAL>
-3.50629

>  <SCORE.INTRA.DIHEDRAL.0>
6.83446

>  <SCORE.INTRA.POLAR>
0

>  <SCORE.INTRA.POLAR.0>
0

>  <SCORE.INTRA.REPUL>
0

>  <SCORE.INTRA.REPUL.0>
0

>  <SCORE.INTRA.SOLV>
0.136079

>  <SCORE.INTRA.SOLV.lig_0>
-26.4601

>  <SCORE.INTRA.VDW>
-15.234

>  <SCORE.INTRA.VDW.0>
13.7853

>  <SCORE.INTRA.norm>
-0.583417

>  <SCORE.RESTR>
0

>  <SCORE.RESTR.CAVITY>
0

>  <SCORE.RESTR.norm>
0

>  <SCORE.SYSTEM>
0

>  <SCORE.SYSTEM.CONST>
0

>  <SCORE.SYSTEM.DIHEDRAL>
0

>  <SCORE.SYSTEM.SOLV>
0

>  <SCORE.SYSTEM.norm>
0

>  <SCORE.heavy>
29

>  <SCORE.norm>
-1.45915

>  <RMSD>
1.204

$$$$
ligand
 OpenBabel11021811473D
libRbt.so/2013.1/901 2013/11/27
 29 31  0  0  0  0  0  0  0  0999 V2000
   26.9416   40.5680   17.6964 C   0  0  0  0  0  0  0  0  0  0  0  0
   28.1607   41.2554   17.9966 O   0  0  0  0  0  0  0  0  0  0  0  0
   27.1376   39.7181   16.4484 C   0  0  1  0  0  0  0  0  0  0  0  0
   27.6482   40.5485   15.4101 O   0  0  0  0  0  0  0  0  0  0  0  0
   28.0987   38.5699   16.7282 C   0  0  1  0  0  0  0  0  0  0  0  0
   29.3760   39.1432   16.9821 O   0  0  0  0  0  0  0  0  0  0  0  0
   27.6944   37.6552   17.8881 C   0  0  1  0  0  0  0  0  0  0  0  0
   26.6227   36.8182   17.4515 O   0  0  0  0  0  0  0  0  0  0  0  0
   28.8285   36.7576   18.3790 C   0  0  0  0  0  0  0  0  0  0  0  0
   28.6311   33.9818   17.9025 N   0  0  0  0  0  0  0  0  0  0  0  0
   28.5534   32.6464   17.6402 C   0  0  0  0  0  0  0  0  0  0  0  0
   28.8863   32.1991   16.5144 O   0  0  0  0  0  0  0  0  0  0  0  0
   28.1103   31.7852   18.5909 N   0  0  0  0  0  0  0  0  0  0  0  0
   27.7376   32.2325   19.8165 C   0  0  0  0  0  0  0  0  0  0  0  0
   27.8127   33.5918   20.0987 C   0  0  1  0  0  0  0  0  0  0  0  0
   27.3262   31.4320   20.6924 O   0  0  0  0  0  0  0  0  0  0  0  0
   27.5239   35.3652   21.5910 C   0  0  1  0  0  0  0  0  0  0  0  0
   27.4489   34.0466   21.3174 N   0  0  0  0  0  0  0  0  0  0  0  0
   27.1468   35.8247   22.8480 C   0  0  0  0  0  0  0  0  0  0  0  0
   27.2153   37.1778   23.1611 C   0  0  2  0  0  0  0  0  0  0  0  0
   26.7899   37.6070   24.5418 C   0  0  0  0  0  0  0  0  0  0  0  0
   27.6696   38.0906   22.2008 C   0  0  2  0  0  0  0  0  0  0  0  0
   27.7637   39.4341   22.4363 N   0  0  0  0  0  0  0  0  0  0  0  0
   28.0445   37.6132   20.9390 C   0  0  0  0  0  0  0  0  0  0  0  0
   27.9763   36.2573   20.6202 C   0  0  2  0  0  0  0  0  0  0  0  0
   28.2705   34.4801   19.1206 C   0  0  2  0  0  0  0  0  0  0  0  0
   28.3381   35.8079   19.3967 N   0  0  0  0  0  0  0  0  0  0  0  0
   26.7013   40.3177   21.9946 C   0  0  0  0  0  0  0  0  0  0  0  0
   28.8962   40.0315   23.1243 C   0  0  0  0  0  0  0  0  0  0  0  0
  1  2  1  0  0  0  0
  3  1  1  1  0  0  0
  3  4  1  0  0  0  0
  3  5  1  0  0  0  0
  5  6  1  1  0  0  0
  5  7  1  0  0  0  0
  7  8  1  6  0  0  0
  7  9  1  0  0  0  0
  9 27  1  0  0  0  0
 10 11  1  0  0  0  0
 11 12  2  0  0  0  0
 11 13  1  0  0  0  0
 13 14  1  0  0  0  0
 14 16  2  0  0  0  0
 15 14  1  1  0  0  0
 15 18  1  0  0  0  0
 15 26  1  0  0  0  0
 17 19  1  1  0  0  0
 17 25  1  0  0  0  0
 17 18  1  0  0  0  0
 19 20  1  0  0  0  0
 20 21  1  6  0  0  0
 20 22  1  0  0  0  0
 22 23  1  6  0  0  0
 22 24  1  0  0  0  0
 23 28  1  0  0  0  0
 23 29  1  0  0  0  0
 25 24  1  6  0  0  0
 25 27  1  0  0  0  0
 26 10  1  6  0  0  0
 26 27  1  0  0  0  0
M  END
>  <CHROM.1>
-53.07341940,-66.30125296,75.05711452,-174.12344947,-97.74989312,-69.86497187
27.84538431,36.66315094,19.56360159,-1.92077828,-1.45817432,2.77532350

>  <Name>
ligand

>  <RI>
0

>  <Rbt.Current_Directory>
/home/itssahil/PROJECTS/Mol_Feturizer/New_Systems/rnas/3F4H

>  <Rbt.Executable>
rbdock ($Id: //depot/dev/client3/rdock/2013.1/src/exe/rbdock.cxx#4 $)

>  <Rbt.Library>
libRbt.so (2013.1, Build901 2013/11/27)

>  <Rbt.Parameter_File>
/export/apps/rDock/src/rDock_2013.1_src/data/scripts/dock_solv.prm

>  <Rbt.Receptor>
prm/pocket_docking_2.prm

>  <SCORE>
-45.5227

>  <SCORE.INTER>
-29.0181

>  <SCORE.INTER.CONST>
1

>  <SCORE.INTER.POLAR>
0

>  <SCORE.INTER.ROT>
6

>  <SCORE.INTER.SOLV>
11.1384

>  <SCORE.INTER.VDW>
-30.6582

>  <SCORE.INTER.norm>
-1.00062

>  <SCORE.INTRA>
-16.7447

>  <SCORE.INTRA.DIHEDRAL>
-3.57052

>  <SCORE.INTRA.DIHEDRAL.0>
6.83446

>  <SCORE.INTRA.POLAR>
0

>  <SCORE.INTRA.POLAR.0>
0

>  <SCORE.INTRA.REPUL>
0

>  <SCORE.INTRA.REPUL.0>
0

>  <SCORE.INTRA.SOLV>
0.174722

>  <SCORE.INTRA.SOLV.lig_0>
-26.4601

>  <SCORE.INTRA.VDW>
-15.0468

>  <SCORE.INTRA.VDW.0>
13.7853

>  <SCORE.INTRA.norm>
-0.577402

>  <SCORE.RESTR>
0.240016

>  <SCORE.RESTR.CAVITY>
0.240016

>  <SCORE.RESTR.norm>
0.00827643

>  <SCORE.SYSTEM>
0

>  <SCORE.SYSTEM.CONST>
0

>  <SCORE.SYSTEM.DIHEDRAL>
0

>  <SCORE.SYSTEM.SOLV>
0

>  <SCORE.SYSTEM.norm>
0

>  <SCORE.heavy>
29

>  <SCORE.norm>
-1.56975

>  <RMSD>
1.222

$$$$
ligand
 OpenBabel11021811473D
libRbt.so/2013.1/901 2013/11/27
 29 31  0  0  0  0  0  0  0  0999 V2000
   26.9070   40.5651   17.6902 C   0  0  0  0  0  0  0  0  0  0  0  0
   28.1127   41.2884   17.9587 O   0  0  0  0  0  0  0  0  0  0  0  0
   27.0993   39.7117   16.4440 C   0  0  1  0  0  0  0  0  0  0  0  0
   27.5958   40.5417   15.3986 O   0  0  0  0  0  0  0  0  0  0  0  0
   28.0707   38.5714   16.7206 C   0  0  1  0  0  0  0  0  0  0  0  0
   29.3394   39.1562   16.9910 O   0  0  0  0  0  0  0  0  0  0  0  0
   27.6668   37.6409   17.8681 C   0  0  1  0  0  0  0  0  0  0  0  0
   26.6128   36.7920   17.4121 O   0  0  0  0  0  0  0  0  0  0  0  0
   28.8085   36.7561   18.3645 C   0  0  0  0  0  0  0  0  0  0  0  0
   28.6133   33.9793   17.8927 N   0  0  0  0  0  0  0  0  0  0  0  0
   28.5365   32.6435   17.6326 C   0  0  0  0  0  0  0  0  0  0  0  0
   28.8638   32.1953   16.5054 O   0  0  0  0  0  0  0  0  0  0  0  0
   28.1004   31.7827   18.5869 N   0  0  0  0  0  0  0  0  0  0  0  0
   27.7339   32.2310   19.8140 C   0  0  0  0  0  0  0  0  0  0  0  0
   27.8082   33.5907   20.0940 C   0  0  1  0  0  0  0  0  0  0  0  0
   27.3289   31.4308   20.6933 O   0  0  0  0  0  0  0  0  0  0  0  0
   27.5248   35.3655   21.5857 C   0  0  1  0  0  0  0  0  0  0  0  0
   27.4506   34.0464   21.3142 N   0  0  0  0  0  0  0  0  0  0  0  0
   27.1541   35.8260   22.8443 C   0  0  0  0  0  0  0  0  0  0  0  0
   27.2219   37.1796   23.1552 C   0  0  2  0  0  0  0  0  0  0  0  0
   26.8037   37.6098   24.5378 C   0  0  0  0  0  0  0  0  0  0  0  0
   27.6691   38.0920   22.1911 C   0  0  2  0  0  0  0  0  0  0  0  0
   27.7621   39.4359   22.4244 N   0  0  0  0  0  0  0  0  0  0  0  0
   28.0377   37.6136   20.9279 C   0  0  0  0  0  0  0  0  0  0  0  0
   27.9700   36.2572   20.6112 C   0  0  2  0  0  0  0  0  0  0  0  0
   28.2588   34.4785   19.1122 C   0  0  2  0  0  0  0  0  0  0  0  0
   28.3256   35.8068   19.3862 N   0  0  0  0  0  0  0  0  0  0  0  0
   26.6933   40.3164   21.9923 C   0  0  0  0  0  0  0  0  0  0  0  0
   28.8998   40.0369   23.1007 C   0  0  0  0  0  0  0  0  0  0  0  0
  1  2  1  0  0  0  0
  3  1  1  1  0  0  0
  3  4  1  0  0  0  0
  3  5  1  0  0  0  0
  5  6  1  1  0  0  0
  5  7  1  0  0  0  0
  7  8  1  6  0  0  0
  7  9  1  0  0  0  0
  9 27  1  0  0  0  0
 10 11  1  0  0  0  0
 11 12  2  0  0  0  0
 11 13  1  0  0  0  0
 13 14  1  0  0  0  0
 14 16  2  0  0  0  0
 15 14  1  1  0  0  0
 15 18  1  0  0  0  0
 15 26  1  0  0  0  0
 17 19  1  1  0  0  0
 17 25  1  0  0  0  0
 17 18  1  0  0  0  0
 19 20  1  0  0  0  0
 20 21  1  6  0  0  0
 20 22  1  0  0  0  0
 22 23  1  6  0  0  0
 22 24  1  0  0  0  0
 23 28  1  0  0  0  0
 23 29  1  0  0  0  0
 25 24  1  6  0  0  0
 25 27  1  0  0  0  0
 26 10  1  6  0  0  0
 26 27  1  0  0  0  0
M  END
>  <CHROM.1>
-51.61633893,-65.06254589,75.34951800,-175.14492618,-97.51266003,-70.47201690
27.83156548,36.66273912,19.55372313,-1.96037336,-1.46351630,2.73373868

>  <Name>
ligand

>  <RI>
0

>  <Rbt.Current_Directory>
/home/itssahil/PROJECTS/Mol_Feturizer/New_Systems/rnas/3F4H

>  <Rbt.Executable>
rbdock ($Id: //depot/dev/client3/rdock/2013.1/src/exe/rbdock.cxx#4 $)

>  <Rbt.Library>
libRbt.so (2013.1, Build901 2013/11/27)

>  <Rbt.Parameter_File>
/export/apps/rDock/src/rDock_2013.1_src/data/scripts/dock_solv.prm

>  <Rbt.Receptor>
prm/pocket_docking_2.prm

>  <SCORE>
-45.5029

>  <SCORE.INTER>
-28.9671

>  <SCORE.INTER.CONST>
1

>  <SCORE.INTER.POLAR>
0

>  <SCORE.INTER.ROT>
6

>  <SCORE.INTER.SOLV>
11.1469

>  <SCORE.INTER.VDW>
-30.627

>  <SCORE.INTER.norm>
-0.998866

>  <SCORE.INTRA>
-16.7841

>  <SCORE.INTRA.DIHEDRAL>
-3.55168

>  <SCORE.INTRA.DIHEDRAL.0>
6.83446

>  <SCORE.INTRA.POLAR>
0

>  <SCORE.INTRA.POLAR.0>
0

>  <SCORE.INTRA.REPUL>
0

>  <SCORE.INTRA.REPUL.0>
0

>  <SCORE.INTRA.SOLV>
0.149763

>  <SCORE.INTRA.SOLV.lig_0>
-26.4601

>  <SCORE.INTRA.VDW>
-15.0831

>  <SCORE.INTRA.VDW.0>
13.7853

>  <SCORE.INTRA.norm>
-0.578761

>  <SCORE.RESTR>
0.248251

>  <SCORE.RESTR.CAVITY>
0.248251

>  <SCORE.RESTR.norm>
0.00856037

>  <SCORE.SYSTEM>
0

>  <SCORE.SYSTEM.CONST>
0

>  <SCORE.SYSTEM.DIHEDRAL>
0

>  <SCORE.SYSTEM.SOLV>
0

>  <SCORE.SYSTEM.norm>
0

>  <SCORE.heavy>
29

>  <SCORE.norm>
-1.56907

>  <RMSD>
1.226

$$$$
ligand
 OpenBabel11021811473D
libRbt.so/2013.1/901 2013/11/27
 29 31  0  0  0  0  0  0  0  0999 V2000
   27.8666   41.0428   16.4087 C   0  0  0  0  0  0  0  0  0  0  0  0
   29.1733   41.5706   16.6597 O   0  0  0  0  0  0  0  0  0  0  0  0
   27.4348   40.1854   17.5904 C   0  0  1  0  0  0  0  0  0  0  0  0
   26.0748   39.8067   17.4026 O   0  0  0  0  0  0  0  0  0  0  0  0
   28.3170   38.9489   17.7053 C   0  0  1  0  0  0  0  0  0  0  0  0
   29.5784   39.3775   18.2052 O   0  0  0  0  0  0  0  0  0  0  0  0
   27.7543   37.8321   18.5895 C   0  0  1  0  0  0  0  0  0  0  0  0
   26.7115   37.1701   17.8728 O   0  0  0  0  0  0  0  0  0  0  0  0
   28.7954   36.7874   18.9864 C   0  0  0  0  0  0  0  0  0  0  0  0
   28.5530   34.0423   18.3726 N   0  0  0  0  0  0  0  0  0  0  0  0
   28.4557   32.7226   18.0455 C   0  0  0  0  0  0  0  0  0  0  0  0
   28.8444   32.3156   16.9222 O   0  0  0  0  0  0  0  0  0  0  0  0
   27.9326   31.8339   18.9277 N   0  0  0  0  0  0  0  0  0  0  0  0
   27.4980   32.2377   20.1480 C   0  0  0  0  0  0  0  0  0  0  0  0
   27.5922   33.5803   20.4960 C   0  0  1  0  0  0  0  0  0  0  0  0
   27.0127   31.4118   20.9603 O   0  0  0  0  0  0  0  0  0  0  0  0
   27.2607   35.2942   22.0478 C   0  0  1  0  0  0  0  0  0  0  0  0
   27.1672   33.9916   21.7103 N   0  0  0  0  0  0  0  0  0  0  0  0
   26.8202   35.7089   23.2998 C   0  0  0  0  0  0  0  0  0  0  0  0
   26.9058   37.0443   23.6779 C   0  0  2  0  0  0  0  0  0  0  0  0
   26.4088   37.4247   25.0489 C   0  0  0  0  0  0  0  0  0  0  0  0
   27.4421   37.9847   22.7891 C   0  0  2  0  0  0  0  0  0  0  0  0
   27.5576   39.3131   23.0909 N   0  0  0  0  0  0  0  0  0  0  0  0
   27.8802   37.5524   21.5314 C   0  0  0  0  0  0  0  0  0  0  0  0
   27.7952   36.2144   21.1475 C   0  0  2  0  0  0  0  0  0  0  0  0
   28.1324   34.4969   19.5885 C   0  0  2  0  0  0  0  0  0  0  0  0
   28.2186   35.8087   19.9285 N   0  0  0  0  0  0  0  0  0  0  0  0
   28.6205   39.7608   23.9708 C   0  0  0  0  0  0  0  0  0  0  0  0
   26.6525   40.3189   22.5599 C   0  0  0  0  0  0  0  0  0  0  0  0
  1  2  1  0  0  0  0
  3  1  1  6  0  0  0
  3  4  1  0  0  0  0
  3  5  1  0  0  0  0
  5  6  1  1  0  0  0
  5  7  1  0  0  0  0
  7  8  1  6  0  0  0
  7  9  1  0  0  0  0
  9 27  1  0  0  0  0
 10 11  1  0  0  0  0
 11 12  2  0  0  0  0
 11 13  1  0  0  0  0
 13 14  1  0  0  0  0
 14 16  2  0  0  0  0
 15 14  1  1  0  0  0
 15 18  1  0  0  0  0
 15 26  1  0  0  0  0
 17 19  1  1  0  0  0
 17 25  1  0  0  0  0
 17 18  1  0  0  0  0
 19 20  1  0  0  0  0
 20 21  1  6  0  0  0
 20 22  1  0  0  0  0
 22 23  1  6  0  0  0
 22 24  1  0  0  0  0
 23 28  1  0  0  0  0
 23 29  1  0  0  0  0
 25 24  1  6  0  0  0
 25 27  1  0  0  0  0
 26 10  1  6  0  0  0
 26 27  1  0  0  0  0
M  END
>  <CHROM.1>
172.81134920,73.62368082,75.28829967,175.10940644,76.73159477,-63.61219125
27.74814141,36.69190152,20.05044297,-1.46325099,-1.40423757,3.12794805

>  <Name>
ligand

>  <RI>
0

>  <Rbt.Current_Directory>
/home/itssahil/PROJECTS/Mol_Feturizer/New_Systems/rnas/3F4H

>  <Rbt.Executable>
rbdock ($Id: //depot/dev/client3/rdock/2013.1/src/exe/rbdock.cxx#4 $)

>  <Rbt.Library>
libRbt.so (2013.1, Build901 2013/11/27)

>  <Rbt.Parameter_File>
/export/apps/rDock/src/rDock_2013.1_src/data/scripts/dock_solv.prm

>  <Rbt.Receptor>
prm/pocket_docking_8.prm

>  <SCORE>
-47.11

>  <SCORE.INTER>
-30.4594

>  <SCORE.INTER.CONST>
1

>  <SCORE.INTER.POLAR>
0

>  <SCORE.INTER.ROT>
6

>  <SCORE.INTER.SOLV>
11.7717

>  <SCORE.INTER.VDW>
-31.8301

>  <SCORE.INTER.norm>
-1.05032

>  <SCORE.INTRA>
-16.6506

>  <SCORE.INTRA.DIHEDRAL>
-3.06146

>  <SCORE.INTRA.DIHEDRAL.0>
6.83446

>  <SCORE.INTRA.POLAR>
0

>  <SCORE.INTRA.POLAR.0>
0

>  <SCORE.INTRA.REPUL>
0

>  <SCORE.INTRA.REPUL.0>
0

>  <SCORE.INTRA.SOLV>
-0.0914356

>  <SCORE.INTRA.SOLV.lig_0>
-26.4601

>  <SCORE.INTRA.VDW>
-15.0741

>  <SCORE.INTRA.VDW.0>
13.7853

>  <SCORE.INTRA.norm>
-0.574158

>  <SCORE.RESTR>
0

>  <SCORE.RESTR.CAVITY>
0

>  <SCORE.RESTR.norm>
0

>  <SCORE.SYSTEM>
0

>  <SCORE.SYSTEM.CONST>
0

>  <SCORE.SYSTEM.DIHEDRAL>
0

>  <SCORE.SYSTEM.SOLV>
0

>  <SCORE.SYSTEM.norm>
0

>  <SCORE.heavy>
29

>  <SCORE.norm>
-1.62448

>  <RMSD>
1.227

$$$$
ligand
 OpenBabel11021811473D
libRbt.so/2013.1/901 2013/11/27
 29 31  0  0  0  0  0  0  0  0999 V2000
   27.9053   41.0022   16.2449 C   0  0  0  0  0  0  0  0  0  0  0  0
   27.0955   42.1796   16.1618 O   0  0  0  0  0  0  0  0  0  0  0  0
   27.4524   40.1629   17.4318 C   0  0  1  0  0  0  0  0  0  0  0  0
   26.0937   39.7871   17.2289 O   0  0  0  0  0  0  0  0  0  0  0  0
   28.3276   38.9247   17.5769 C   0  0  1  0  0  0  0  0  0  0  0  0
   29.6113   39.3651   18.0046 O   0  0  0  0  0  0  0  0  0  0  0  0
   27.7903   37.8613   18.5393 C   0  0  1  0  0  0  0  0  0  0  0  0
   26.6997   37.1896   17.9077 O   0  0  0  0  0  0  0  0  0  0  0  0
   28.8307   36.8140   18.9311 C   0  0  0  0  0  0  0  0  0  0  0  0
   28.5962   34.0682   18.3173 N   0  0  0  0  0  0  0  0  0  0  0  0
   28.5027   32.7482   17.9901 C   0  0  0  0  0  0  0  0  0  0  0  0
   28.8945   32.3420   16.8676 O   0  0  0  0  0  0  0  0  0  0  0  0
   27.9802   31.8583   18.8715 N   0  0  0  0  0  0  0  0  0  0  0  0
   27.5424   32.2612   20.0909 C   0  0  0  0  0  0  0  0  0  0  0  0
   27.6327   33.6041   20.4389 C   0  0  1  0  0  0  0  0  0  0  0  0
   27.0576   31.4343   20.9025 O   0  0  0  0  0  0  0  0  0  0  0  0
   27.2941   35.3173   21.9899 C   0  0  1  0  0  0  0  0  0  0  0  0
   27.2044   34.0145   21.6524 N   0  0  0  0  0  0  0  0  0  0  0  0
   26.8503   35.7312   23.2410 C   0  0  0  0  0  0  0  0  0  0  0  0
   26.9318   37.0668   23.6191 C   0  0  2  0  0  0  0  0  0  0  0  0
   26.4314   37.4462   24.9892 C   0  0  0  0  0  0  0  0  0  0  0  0
   27.4674   38.0084   22.7312 C   0  0  2  0  0  0  0  0  0  0  0  0
   27.5791   39.3371   23.0330 N   0  0  0  0  0  0  0  0  0  0  0  0
   27.9089   37.5770   21.4744 C   0  0  0  0  0  0  0  0  0  0  0  0
   27.8279   36.2388   21.0905 C   0  0  2  0  0  0  0  0  0  0  0  0
   28.1722   34.5219   19.5323 C   0  0  2  0  0  0  0  0  0  0  0  0
   28.2546   35.8340   19.8723 N   0  0  0  0  0  0  0  0  0  0  0  0
   26.6528   40.2878   22.4478 C   0  0  0  0  0  0  0  0  0  0  0  0
   28.5979   39.8534   23.9322 C   0  0  0  0  0  0  0  0  0  0  0  0
  1  2  1  0  0  0  0
  3  1  1  6  0  0  0
  3  4  1  0  0  0  0
  3  5  1  0  0  0  0
  5  6  1  1  0  0  0
  5  7  1  0  0  0  0
  7  8  1  6  0  0  0
  7  9  1  0  0  0  0
  9 27  1  0  0  0  0
 10 11  1  0  0  0  0
 11 12  2  0  0  0  0
 11 13  1  0  0  0  0
 13 14  1  0  0  0  0
 14 16  2  0  0  0  0
 15 14  1  1  0  0  0
 15 18  1  0  0  0  0
 15 26  1  0  0  0  0
 17 19  1  1  0  0  0
 17 25  1  0  0  0  0
 17 18  1  0  0  0  0
 19 20  1  0  0  0  0
 20 21  1  6  0  0  0
 20 22  1  0  0  0  0
 22 23  1  6  0  0  0
 22 24  1  0  0  0  0
 23 28  1  0  0  0  0
 23 29  1  0  0  0  0
 25 24  1  6  0  0  0
 25 27  1  0  0  0  0
 26 10  1  6  0  0  0
 26 27  1  0  0  0  0
M  END
>  <CHROM.1>
60.83594122,69.82553644,74.31536090,179.17355430,-104.48850524,-63.24323223
27.69183095,36.73138829,19.95837148,-1.84419017,-1.44086861,2.69489375

>  <Name>
ligand

>  <RI>
0

>  <Rbt.Current_Directory>
/home/itssahil/PROJECTS/Mol_Feturizer/New_Systems/rnas/3F4H

>  <Rbt.Executable>
rbdock ($Id: //depot/dev/client3/rdock/2013.1/src/exe/rbdock.cxx#4 $)

>  <Rbt.Library>
libRbt.so (2013.1, Build901 2013/11/27)

>  <Rbt.Parameter_File>
/export/apps/rDock/src/rDock_2013.1_src/data/scripts/dock_solv.prm

>  <Rbt.Receptor>
prm/pocket_docking_4.prm

>  <SCORE>
-47.5064

>  <SCORE.INTER>
-30.3311

>  <SCORE.INTER.CONST>
1

>  <SCORE.INTER.POLAR>
0

>  <SCORE.INTER.ROT>
6

>  <SCORE.INTER.SOLV>
11.4216

>  <SCORE.INTER.VDW>
-31.6279

>  <SCORE.INTER.norm>
-1.0459

>  <SCORE.INTRA>
-17.1753

>  <SCORE.INTRA.DIHEDRAL>
-3.73468

>  <SCORE.INTRA.DIHEDRAL.0>
6.83446

>  <SCORE.INTRA.POLAR>
0

>  <SCORE.INTRA.POLAR.0>
0

>  <SCORE.INTRA.REPUL>
0

>  <SCORE.INTRA.REPUL.0>
0

>  <SCORE.INTRA.SOLV>
-0.395188

>  <SCORE.INTRA.SOLV.lig_0>
-26.4601

>  <SCORE.INTRA.VDW>
-15.1104

>  <SCORE.INTRA.VDW.0>
13.7853

>  <SCORE.INTRA.norm>
-0.592252

>  <SCORE.RESTR>
0

>  <SCORE.RESTR.CAVITY>
0

>  <SCORE.RESTR.norm>
0

>  <SCORE.SYSTEM>
0

>  <SCORE.SYSTEM.CONST>
0

>  <SCORE.SYSTEM.DIHEDRAL>
0

>  <SCORE.SYSTEM.SOLV>
0

>  <SCORE.SYSTEM.norm>
0

>  <SCORE.heavy>
29

>  <SCORE.norm>
-1.63815

>  <RMSD>
1.230

$$$$
ligand
 OpenBabel11021811473D
libRbt.so/2013.1/901 2013/11/27
 29 31  0  0  0  0  0  0  0  0999 V2000
   28.0258   41.4015   16.9681 C   0  0  0  0  0  0  0  0  0  0  0  0
   28.2409   40.9270   15.6349 O   0  0  0  0  0  0  0  0  0  0  0  0
   27.3911   40.2951   17.7995 C   0  0  1  0  0  0  0  0  0  0  0  0
   26.1666   39.9103   17.1825 O   0  0  0  0  0  0  0  0  0  0  0  0
   28.3290   39.0994   17.9047 C   0  0  1  0  0  0  0  0  0  0  0  0
   29.5029   39.5436   18.5751 O   0  0  0  0  0  0  0  0  0  0  0  0
   27.7446   37.8795   18.6229 C   0  0  1  0  0  0  0  0  0  0  0  0
   26.7660   37.2802   17.7728 O   0  0  0  0  0  0  0  0  0  0  0  0
   28.7881   36.8188   18.9676 C   0  0  0  0  0  0  0  0  0  0  0  0
   28.5502   34.0824   18.3143 N   0  0  0  0  0  0  0  0  0  0  0  0
   28.4546   32.7676   17.9677 C   0  0  0  0  0  0  0  0  0  0  0  0
   28.8294   32.3802   16.8328 O   0  0  0  0  0  0  0  0  0  0  0  0
   27.9482   31.8625   18.8431 N   0  0  0  0  0  0  0  0  0  0  0  0
   27.5290   32.2449   20.0756 C   0  0  0  0  0  0  0  0  0  0  0  0
   27.6217   33.5824   20.4433 C   0  0  1  0  0  0  0  0  0  0  0  0
   27.0591   31.4041   20.8815 O   0  0  0  0  0  0  0  0  0  0  0  0
   27.3039   35.2701   22.0264 C   0  0  1  0  0  0  0  0  0  0  0  0
   27.2118   33.9725   21.6698 N   0  0  0  0  0  0  0  0  0  0  0  0
   26.8791   35.6629   23.2908 C   0  0  0  0  0  0  0  0  0  0  0  0
   26.9636   36.9927   23.6887 C   0  0  2  0  0  0  0  0  0  0  0  0
   26.4841   37.3490   25.0724 C   0  0  0  0  0  0  0  0  0  0  0  0
   27.4828   37.9495   22.8073 C   0  0  2  0  0  0  0  0  0  0  0  0
   27.5962   39.2736   23.1284 N   0  0  0  0  0  0  0  0  0  0  0  0
   27.9052   37.5391   21.5370 C   0  0  0  0  0  0  0  0  0  0  0  0
   27.8212   36.2070   21.1334 C   0  0  2  0  0  0  0  0  0  0  0  0
   28.1446   34.5158   19.5429 C   0  0  2  0  0  0  0  0  0  0  0  0
   28.2293   35.8225   19.9023 N   0  0  0  0  0  0  0  0  0  0  0  0
   26.6463   40.2282   22.5892 C   0  0  0  0  0  0  0  0  0  0  0  0
   28.6400   39.7810   24.0036 C   0  0  0  0  0  0  0  0  0  0  0  0
  1  2  1  0  0  0  0
  3  1  1  6  0  0  0
  3  4  1  0  0  0  0
  3  5  1  0  0  0  0
  5  6  1  1  0  0  0
  5  7  1  0  0  0  0
  7  8  1  6  0  0  0
  7  9  1  0  0  0  0
  9 27  1  0  0  0  0
 10 11  1  0  0  0  0
 11 12  2  0  0  0  0
 11 13  1  0  0  0  0
 13 14  1  0  0  0  0
 14 16  2  0  0  0  0
 15 14  1  1  0  0  0
 15 18  1  0  0  0  0
 15 26  1  0  0  0  0
 17 19  1  1  0  0  0
 17 25  1  0  0  0  0
 17 18  1  0  0  0  0
 19 20  1  0  0  0  0
 20 21  1  6  0  0  0
 20 22  1  0  0  0  0
 22 23  1  6  0  0  0
 22 24  1  0  0  0  0
 23 28  1  0  0  0  0
 23 29  1  0  0  0  0
 25 24  1  6  0  0  0
 25 27  1  0  0  0  0
 26 10  1  6  0  0  0
 26 27  1  0  0  0  0
M  END
>  <CHROM.1>
-58.39034438,62.19133552,71.87514824,167.70167794,-103.55610264,-62.52508232
27.73562512,36.69955995,20.02740646,-1.59850175,-1.43860134,2.98807395

>  <Name>
ligand

>  <RI>
0

>  <Rbt.Current_Directory>
/home/itssahil/PROJECTS/Mol_Feturizer/New_Systems/rnas/3F4H

>  <Rbt.Executable>
rbdock ($Id: //depot/dev/client3/rdock/2013.1/src/exe/rbdock.cxx#4 $)

>  <Rbt.Library>
libRbt.so (2013.1, Build901 2013/11/27)

>  <Rbt.Parameter_File>
/export/apps/rDock/src/rDock_2013.1_src/data/scripts/dock_solv.prm

>  <Rbt.Receptor>
prm/pocket_docking_3.prm

>  <SCORE>
-47.4777

>  <SCORE.INTER>
-30.4356

>  <SCORE.INTER.CONST>
1

>  <SCORE.INTER.POLAR>
0

>  <SCORE.INTER.ROT>
6

>  <SCORE.INTER.SOLV>
11.472

>  <SCORE.INTER.VDW>
-31.7144

>  <SCORE.INTER.norm>
-1.0495

>  <SCORE.INTRA>
-17.0421

>  <SCORE.INTRA.DIHEDRAL>
-3.75096

>  <SCORE.INTRA.DIHEDRAL.0>
6.83446

>  <SCORE.INTRA.POLAR>
0

>  <SCORE.INTRA.POLAR.0>
0

>  <SCORE.INTRA.REPUL>
0

>  <SCORE.INTRA.REPUL.0>
0

>  <SCORE.INTRA.SOLV>
-0.0926763

>  <SCORE.INTRA.SOLV.lig_0>
-26.4601

>  <SCORE.INTRA.VDW>
-15.1203

>  <SCORE.INTRA.VDW.0>
13.7853

>  <SCORE.INTRA.norm>
-0.58766

>  <SCORE.RESTR>
0

>  <SCORE.RESTR.CAVITY>
0

>  <SCORE.RESTR.norm>
0

>  <SCORE.SYSTEM>
0

>  <SCORE.SYSTEM.CONST>
0

>  <SCORE.SYSTEM.DIHEDRAL>
0

>  <SCORE.SYSTEM.SOLV>
0

>  <SCORE.SYSTEM.norm>
0

>  <SCORE.heavy>
29

>  <SCORE.norm>
-1.63716

>  <RMSD>
1.241

$$$$
ligand
 OpenBabel11021811473D
libRbt.so/2013.1/901 2013/11/27
 29 31  0  0  0  0  0  0  0  0999 V2000
   28.0341   41.3696   16.8919 C   0  0  0  0  0  0  0  0  0  0  0  0
   28.1667   40.8630   15.5597 O   0  0  0  0  0  0  0  0  0  0  0  0
   27.4112   40.2991   17.7774 C   0  0  1  0  0  0  0  0  0  0  0  0
   26.1495   39.9334   17.2271 O   0  0  0  0  0  0  0  0  0  0  0  0
   28.3222   39.0815   17.8668 C   0  0  1  0  0  0  0  0  0  0  0  0
   29.5382   39.5096   18.4689 O   0  0  0  0  0  0  0  0  0  0  0  0
   27.7423   37.8948   18.6420 C   0  0  1  0  0  0  0  0  0  0  0  0
   26.7211   37.2909   17.8470 O   0  0  0  0  0  0  0  0  0  0  0  0
   28.7778   36.8237   18.9789 C   0  0  0  0  0  0  0  0  0  0  0  0
   28.5596   34.0819   18.3415 N   0  0  0  0  0  0  0  0  0  0  0  0
   28.4738   32.7643   18.0028 C   0  0  0  0  0  0  0  0  0  0  0  0
   28.8613   32.3713   16.8742 O   0  0  0  0  0  0  0  0  0  0  0  0
   27.9636   31.8626   18.8794 N   0  0  0  0  0  0  0  0  0  0  0  0
   27.5307   32.2511   20.1052 C   0  0  0  0  0  0  0  0  0  0  0  0
   27.6133   33.5914   20.4649 C   0  0  1  0  0  0  0  0  0  0  0  0
   27.0573   31.4132   20.9123 O   0  0  0  0  0  0  0  0  0  0  0  0
   27.2721   35.2879   22.0337 C   0  0  1  0  0  0  0  0  0  0  0  0
   27.1899   33.9876   21.6848 N   0  0  0  0  0  0  0  0  0  0  0  0
   26.8334   35.6870   23.2913 C   0  0  0  0  0  0  0  0  0  0  0  0
   26.9075   37.0197   23.6811 C   0  0  2  0  0  0  0  0  0  0  0  0
   26.4132   37.3829   25.0577 C   0  0  0  0  0  0  0  0  0  0  0  0
   27.4304   37.9733   22.7983 C   0  0  2  0  0  0  0  0  0  0  0  0
   27.5342   39.3001   23.1116 N   0  0  0  0  0  0  0  0  0  0  0  0
   27.8669   37.5567   21.5349 C   0  0  0  0  0  0  0  0  0  0  0  0
   27.7933   36.2215   21.1393 C   0  0  2  0  0  0  0  0  0  0  0  0
   28.1402   34.5214   19.5633 C   0  0  2  0  0  0  0  0  0  0  0  0
   28.2151   35.8309   19.9147 N   0  0  0  0  0  0  0  0  0  0  0  0
   28.5883   39.7483   24.0018 C   0  0  0  0  0  0  0  0  0  0  0  0
   26.6250   40.3034   22.5831 C   0  0  0  0  0  0  0  0  0  0  0  0
  1  2  1  0  0  0  0
  3  1  1  6  0  0  0
  3  4  1  0  0  0  0
  3  5  1  0  0  0  0
  5  6  1  1  0  0  0
  5  7  1  0  0  0  0
  7  8  1  6  0  0  0
  7  9  1  0  0  0  0
  9 27  1  0  0  0  0
 10 11  1  0  0  0  0
 11 12  2  0  0  0  0
 11 13  1  0  0  0  0
 13 14  1  0  0  0  0
 14 16  2  0  0  0  0
 15 14  1  1  0  0  0
 15 18  1  0  0  0  0
 15 26  1  0  0  0  0
 17 19  1  1  0  0  0
 17 25  1  0  0  0  0
 17 18  1  0  0  0  0
 19 20  1  0  0  0  0
 20 21  1  6  0  0  0
 20 22  1  0  0  0  0
 22 23  1  6  0  0  0
 22 24  1  0  0  0  0
 23 28  1  0  0  0  0
 23 29  1  0  0  0  0
 25 24  1  6  0  0  0
 25 27  1  0  0  0  0
 26 10  1  6  0  0  0
 26 27  1  0  0  0  0
M  END
>  <CHROM.1>
-58.04636520,62.07359224,72.66527759,170.32140567,76.09272090,-61.23544362
27.71771669,36.70500841,20.02898914,-1.62134270,-1.42793379,2.95190194

>  <Name>
ligand

>  <RI>
0

>  <Rbt.Current_Directory>
/home/itssahil/PROJECTS/Mol_Feturizer/New_Systems/rnas/3F4H

>  <Rbt.Executable>
rbdock ($Id: //depot/dev/client3/rdock/2013.1/src/exe/rbdock.cxx#4 $)

>  <Rbt.Library>
libRbt.so (2013.1, Build901 2013/11/27)

>  <Rbt.Parameter_File>
/export/apps/rDock/src/rDock_2013.1_src/data/scripts/dock_solv.prm

>  <Rbt.Receptor>
prm/pocket_docking_7.prm

>  <SCORE>
-47.5586

>  <SCORE.INTER>
-30.6139

>  <SCORE.INTER.CONST>
1

>  <SCORE.INTER.POLAR>
0

>  <SCORE.INTER.ROT>
6

>  <SCORE.INTER.SOLV>
11.7548

>  <SCORE.INTER.VDW>
-31.9276

>  <SCORE.INTER.norm>
-1.05565

>  <SCORE.INTRA>
-16.9447

>  <SCORE.INTRA.DIHEDRAL>
-3.88182

>  <SCORE.INTRA.DIHEDRAL.0>
6.83446

>  <SCORE.INTRA.POLAR>
0

>  <SCORE.INTRA.POLAR.0>
0

>  <SCORE.INTRA.REPUL>
0

>  <SCORE.INTRA.REPUL.0>
0

>  <SCORE.INTRA.SOLV>
-0.0873117

>  <SCORE.INTRA.SOLV.lig_0>
-26.4601

>  <SCORE.INTRA.VDW>
-14.9601

>  <SCORE.INTRA.VDW.0>
13.7853

>  <SCORE.INTRA.norm>
-0.5843

>  <SCORE.RESTR>
0

>  <SCORE.RESTR.CAVITY>
0

>  <SCORE.RESTR.norm>
0

>  <SCORE.SYSTEM>
0

>  <SCORE.SYSTEM.CONST>
0

>  <SCORE.SYSTEM.DIHEDRAL>
0

>  <SCORE.SYSTEM.SOLV>
0

>  <SCORE.SYSTEM.norm>
0

>  <SCORE.heavy>
29

>  <SCORE.norm>
-1.63995

>  <RMSD>
1.242

$$$$
ligand
 OpenBabel11021811473D
libRbt.so/2013.1/901 2013/11/27
 29 31  0  0  0  0  0  0  0  0999 V2000
   28.7131   39.5973   16.1019 C   0  0  0  0  0  0  0  0  0  0  0  0
   29.9357   40.1409   15.5935 O   0  0  0  0  0  0  0  0  0  0  0  0
   28.6938   39.7341   17.6182 C   0  0  1  0  0  0  0  0  0  0  0  0
   28.7143   41.1194   17.9485 O   0  0  0  0  0  0  0  0  0  0  0  0
   27.4524   39.0700   18.1999 C   0  0  1  0  0  0  0  0  0  0  0  0
   26.3314   39.5721   17.4816 O   0  0  0  0  0  0  0  0  0  0  0  0
   27.4583   37.5390   18.1597 C   0  0  1  0  0  0  0  0  0  0  0  0
   27.5446   37.1229   16.7963 O   0  0  0  0  0  0  0  0  0  0  0  0
   28.6256   36.9149   18.9218 C   0  0  0  0  0  0  0  0  0  0  0  0
   28.4833   34.1671   18.2890 N   0  0  0  0  0  0  0  0  0  0  0  0
   28.4325   32.8473   17.9517 C   0  0  0  0  0  0  0  0  0  0  0  0
   28.7862   32.4694   16.8069 O   0  0  0  0  0  0  0  0  0  0  0  0
   27.9941   31.9268   18.8474 N   0  0  0  0  0  0  0  0  0  0  0  0
   27.5995   32.2983   20.0912 C   0  0  0  0  0  0  0  0  0  0  0  0
   27.6470   33.6407   20.4497 C   0  0  1  0  0  0  0  0  0  0  0  0
   27.1925   31.4431   20.9161 O   0  0  0  0  0  0  0  0  0  0  0  0
   27.3095   35.3227   22.0348 C   0  0  1  0  0  0  0  0  0  0  0  0
   27.2613   34.0203   21.6872 N   0  0  0  0  0  0  0  0  0  0  0  0
   26.9100   35.7047   23.3107 C   0  0  0  0  0  0  0  0  0  0  0  0
   26.9507   37.0391   23.6995 C   0  0  2  0  0  0  0  0  0  0  0  0
   26.5020   37.3830   25.0966 C   0  0  0  0  0  0  0  0  0  0  0  0
   27.3995   38.0119   22.7972 C   0  0  2  0  0  0  0  0  0  0  0  0
   27.4668   39.3415   23.1084 N   0  0  0  0  0  0  0  0  0  0  0  0
   27.7973   37.6123   21.5156 C   0  0  0  0  0  0  0  0  0  0  0  0
   27.7570   36.2754   21.1209 C   0  0  2  0  0  0  0  0  0  0  0  0
   28.1000   34.5901   19.5283 C   0  0  2  0  0  0  0  0  0  0  0  0
   28.1406   35.9014   19.8788 N   0  0  0  0  0  0  0  0  0  0  0  0
   28.5273   39.8250   23.9721 C   0  0  0  0  0  0  0  0  0  0  0  0
   26.5117   40.3138   22.6031 C   0  0  0  0  0  0  0  0  0  0  0  0
  1  2  1  0  0  0  0
  3  1  1  6  0  0  0
  3  4  1  0  0  0  0
  3  5  1  0  0  0  0
  5  6  1  6  0  0  0
  5  7  1  0  0  0  0
  7  8  1  6  0  0  0
  7  9  1  0  0  0  0
  9 27  1  0  0  0  0
 10 11  1  0  0  0  0
 11 12  2  0  0  0  0
 11 13  1  0  0  0  0
 13 14  1  0  0  0  0
 14 16  2  0  0  0  0
 15 14  1  1  0  0  0
 15 18  1  0  0  0  0
 15 26  1  0  0  0  0
 17 19  1  1  0  0  0
 17 25  1  0  0  0  0
 17 18  1  0  0  0  0
 19 20  1  0  0  0  0
 20 21  1  6  0  0  0
 20 22  1  0  0  0  0
 22 23  1  6  0  0  0
 22 24  1  0  0  0  0
 23 28  1  0  0  0  0
 23 29  1  0  0  0  0
 25 24  1  6  0  0  0
 25 27  1  0  0  0  0
 26 10  1  6  0  0  0
 26 27  1  0  0  0  0
M  END
>  <CHROM.1>
63.13019124,-50.83783113,-60.70750142,127.93360470,75.05957383,-86.63058883
27.81514751,36.66261610,19.92836498,-1.33837260,-1.37114285,-3.06054621

>  <Name>
ligand

>  <RI>
0

>  <Rbt.Current_Directory>
/home/itssahil/PROJECTS/Mol_Feturizer/New_Systems/rnas/3F4H

>  <Rbt.Executable>
rbdock ($Id: //depot/dev/client3/rdock/2013.1/src/exe/rbdock.cxx#4 $)

>  <Rbt.Library>
libRbt.so (2013.1, Build901 2013/11/27)

>  <Rbt.Parameter_File>
/export/apps/rDock/src/rDock_2013.1_src/data/scripts/dock_solv.prm

>  <Rbt.Receptor>
prm/pocket_docking_6.prm

>  <SCORE>
-45.539

>  <SCORE.INTER>
-31.0128

>  <SCORE.INTER.CONST>
1

>  <SCORE.INTER.POLAR>
0

>  <SCORE.INTER.ROT>
6

>  <SCORE.INTER.SOLV>
11.3572

>  <SCORE.INTER.VDW>
-32.0609

>  <SCORE.INTER.norm>
-1.06941

>  <SCORE.INTRA>
-14.5262

>  <SCORE.INTRA.DIHEDRAL>
0.626705

>  <SCORE.INTRA.DIHEDRAL.0>
6.83446

>  <SCORE.INTRA.POLAR>
0

>  <SCORE.INTRA.POLAR.0>
0

>  <SCORE.INTRA.REPUL>
0

>  <SCORE.INTRA.REPUL.0>
0

>  <SCORE.INTRA.SOLV>
-0.339913

>  <SCORE.INTRA.SOLV.lig_0>
-26.4601

>  <SCORE.INTRA.VDW>
-14.6696

>  <SCORE.INTRA.VDW.0>
13.7853

>  <SCORE.INTRA.norm>
-0.500904

>  <SCORE.RESTR>
0

>  <SCORE.RESTR.CAVITY>
0

>  <SCORE.RESTR.norm>
0

>  <SCORE.SYSTEM>
0

>  <SCORE.SYSTEM.CONST>
0

>  <SCORE.SYSTEM.DIHEDRAL>
0

>  <SCORE.SYSTEM.SOLV>
0

>  <SCORE.SYSTEM.norm>
0

>  <SCORE.heavy>
29

>  <SCORE.norm>
-1.57031

>  <RMSD>
1.244

$$$$
ligand
 OpenBabel11021811473D
libRbt.so/2013.1/901 2013/11/27
 29 31  0  0  0  0  0  0  0  0999 V2000
   28.0069   41.3509   16.8499 C   0  0  0  0  0  0  0  0  0  0  0  0
   28.0792   40.8285   15.5192 O   0  0  0  0  0  0  0  0  0  0  0  0
   27.4071   40.2981   17.7718 C   0  0  1  0  0  0  0  0  0  0  0  0
   26.1325   39.9209   17.2602 O   0  0  0  0  0  0  0  0  0  0  0  0
   28.3211   39.0829   17.8629 C   0  0  1  0  0  0  0  0  0  0  0  0
   29.5338   39.5136   18.4701 O   0  0  0  0  0  0  0  0  0  0  0  0
   27.7417   37.8935   18.6344 C   0  0  1  0  0  0  0  0  0  0  0  0
   26.7266   37.2866   17.8339 O   0  0  0  0  0  0  0  0  0  0  0  0
   28.7794   36.8259   18.9755 C   0  0  0  0  0  0  0  0  0  0  0  0
   28.5626   34.0835   18.3405 N   0  0  0  0  0  0  0  0  0  0  0  0
   28.4774   32.7656   18.0029 C   0  0  0  0  0  0  0  0  0  0  0  0
   28.8649   32.3718   16.8745 O   0  0  0  0  0  0  0  0  0  0  0  0
   27.9679   31.8643   18.8804 N   0  0  0  0  0  0  0  0  0  0  0  0
   27.5351   32.2535   20.1059 C   0  0  0  0  0  0  0  0  0  0  0  0
   27.6170   33.5942   20.4645 C   0  0  1  0  0  0  0  0  0  0  0  0
   27.0624   31.4161   20.9138 O   0  0  0  0  0  0  0  0  0  0  0  0
   27.2753   35.2918   22.0320 C   0  0  1  0  0  0  0  0  0  0  0  0
   27.1937   33.9911   21.6842 N   0  0  0  0  0  0  0  0  0  0  0  0
   26.8366   35.6917   23.2894 C   0  0  0  0  0  0  0  0  0  0  0  0
   26.9101   37.0248   23.6781 C   0  0  2  0  0  0  0  0  0  0  0  0
   26.4158   37.3887   25.0545 C   0  0  0  0  0  0  0  0  0  0  0  0
   27.4322   37.9779   22.7944 C   0  0  2  0  0  0  0  0  0  0  0  0
   27.5354   39.3049   23.1066 N   0  0  0  0  0  0  0  0  0  0  0  0
   27.8687   37.5604   21.5312 C   0  0  0  0  0  0  0  0  0  0  0  0
   27.7957   36.2249   21.1367 C   0  0  2  0  0  0  0  0  0  0  0  0
   28.1432   34.5238   19.5620 C   0  0  2  0  0  0  0  0  0  0  0  0
   28.2174   35.8336   19.9124 N   0  0  0  0  0  0  0  0  0  0  0  0
   28.6035   39.7578   23.9774 C   0  0  0  0  0  0  0  0  0  0  0  0
   26.6116   40.3042   22.5956 C   0  0  0  0  0  0  0  0  0  0  0  0
  1  2  1  0  0  0  0
  3  1  1  6  0  0  0
  3  4  1  0  0  0  0
  3  5  1  0  0  0  0
  5  6  1  1  0  0  0
  5  7  1  0  0  0  0
  7  8  1  6  0  0  0
  7  9  1  0  0  0  0
  9 27  1  0  0  0  0
 10 11  1  0  0  0  0
 11 12  2  0  0  0  0
 11 13  1  0  0  0  0
 13 14  1  0  0  0  0
 14 16  2  0  0  0  0
 15 14  1  1  0  0  0
 15 18  1  0  0  0  0
 15 26  1  0  0  0  0
 17 19  1  1  0  0  0
 17 25  1  0  0  0  0
 17 18  1  0  0  0  0
 19 20  1  0  0  0  0
 20 21  1  6  0  0  0
 20 22  1  0  0  0  0
 22 23  1  6  0  0  0
 22 24  1  0  0  0  0
 23 28  1  0  0  0  0
 23 29  1  0  0  0  0
 25 24  1  6  0  0  0
 25 27  1  0  0  0  0
 26 10  1  6  0  0  0
 26 27  1  0  0  0  0
M  END
>  <CHROM.1>
-56.75444681,64.11113646,72.75613770,170.08284623,77.16955099,-61.42611065
27.71438643,36.70476859,20.02473796,-1.64769628,-1.43051056,2.92583312

>  <Name>
ligand

>  <RI>
0

>  <Rbt.Current_Directory>
/home/itssahil/PROJECTS/Mol_Feturizer/New_Systems/rnas/3F4H

>  <Rbt.Executable>
rbdock ($Id: //depot/dev/client3/rdock/2013.1/src/exe/rbdock.cxx#4 $)

>  <Rbt.Library>
libRbt.so (2013.1, Build901 2013/11/27)

>  <Rbt.Parameter_File>
/export/apps/rDock/src/rDock_2013.1_src/data/scripts/dock_solv.prm

>  <Rbt.Receptor>
prm/blind_docking_60.prm

>  <SCORE>
-47.5138

>  <SCORE.INTER>
-30.5349

>  <SCORE.INTER.CONST>
1

>  <SCORE.INTER.POLAR>
0

>  <SCORE.INTER.ROT>
6

>  <SCORE.INTER.SOLV>
11.8323

>  <SCORE.INTER.VDW>
-31.9007

>  <SCORE.INTER.norm>
-1.05293

>  <SCORE.INTRA>
-16.9788

>  <SCORE.INTRA.DIHEDRAL>
-3.78681

>  <SCORE.INTRA.DIHEDRAL.0>
6.83446

>  <SCORE.INTRA.POLAR>
0

>  <SCORE.INTRA.POLAR.0>
0

>  <SCORE.INTRA.REPUL>
0

>  <SCORE.INTRA.REPUL.0>
0

>  <SCORE.INTRA.SOLV>
-0.0935178

>  <SCORE.INTRA.SOLV.lig_0>
-26.4601

>  <SCORE.INTRA.VDW>
-15.0387

>  <SCORE.INTRA.VDW.0>
13.7853

>  <SCORE.INTRA.norm>
-0.585477

>  <SCORE.RESTR>
0

>  <SCORE.RESTR.CAVITY>
0

>  <SCORE.RESTR.norm>
0

>  <SCORE.SYSTEM>
0

>  <SCORE.SYSTEM.CONST>
0

>  <SCORE.SYSTEM.DIHEDRAL>
0

>  <SCORE.SYSTEM.SOLV>
0

>  <SCORE.SYSTEM.norm>
0

>  <SCORE.heavy>
29

>  <SCORE.norm>
-1.63841

>  <RMSD>
1.245

$$$$
ligand
 OpenBabel11021811473D
libRbt.so/2013.1/901 2013/11/27
 29 31  0  0  0  0  0  0  0  0999 V2000
   29.3602   40.4186   15.8677 C   0  0  0  0  0  0  0  0  0  0  0  0
   28.3980   41.4778   15.8348 O   0  0  0  0  0  0  0  0  0  0  0  0
   28.6865   39.1418   16.3515 C   0  0  1  0  0  0  0  0  0  0  0  0
   29.6014   38.0610   16.1993 O   0  0  0  0  0  0  0  0  0  0  0  0
   28.2662   39.2776   17.8093 C   0  0  1  0  0  0  0  0  0  0  0  0
   27.2790   40.3007   17.8686 O   0  0  0  0  0  0  0  0  0  0  0  0
   27.7307   37.9942   18.4509 C   0  0  1  0  0  0  0  0  0  0  0  0
   26.8456   37.3614   17.5257 O   0  0  0  0  0  0  0  0  0  0  0  0
   28.8259   36.9955   18.8196 C   0  0  0  0  0  0  0  0  0  0  0  0
   28.6060   34.2779   18.0862 N   0  0  0  0  0  0  0  0  0  0  0  0
   28.5182   32.9734   17.7008 C   0  0  0  0  0  0  0  0  0  0  0  0
   28.8696   32.6266   16.5454 O   0  0  0  0  0  0  0  0  0  0  0  0
   28.0450   32.0348   18.5593 N   0  0  0  0  0  0  0  0  0  0  0  0
   27.6517   32.3730   19.8130 C   0  0  0  0  0  0  0  0  0  0  0  0
   27.7368   33.6995   20.2204 C   0  0  1  0  0  0  0  0  0  0  0  0
   27.2125   31.5012   20.6033 O   0  0  0  0  0  0  0  0  0  0  0  0
   27.4373   35.3325   21.8632 C   0  0  1  0  0  0  0  0  0  0  0  0
   27.3526   34.0456   21.4682 N   0  0  0  0  0  0  0  0  0  0  0  0
   27.0391   35.6800   23.1494 C   0  0  0  0  0  0  0  0  0  0  0  0
   27.1169   36.9977   23.5868 C   0  0  2  0  0  0  0  0  0  0  0  0
   26.6674   37.3043   24.9923 C   0  0  0  0  0  0  0  0  0  0  0  0
   27.6021   37.9884   22.7237 C   0  0  2  0  0  0  0  0  0  0  0  0
   27.7069   39.3032   23.0835 N   0  0  0  0  0  0  0  0  0  0  0  0
   27.9980   37.6235   21.4312 C   0  0  0  0  0  0  0  0  0  0  0  0
   27.9206   36.3036   20.9878 C   0  0  2  0  0  0  0  0  0  0  0  0
   28.2256   34.6674   19.3374 C   0  0  2  0  0  0  0  0  0  0  0  0
   28.3029   35.9632   19.7356 N   0  0  0  0  0  0  0  0  0  0  0  0
   26.9005   40.3006   22.4059 C   0  0  0  0  0  0  0  0  0  0  0  0
   28.6014   39.7589   24.1348 C   0  0  0  0  0  0  0  0  0  0  0  0
  1  2  1  0  0  0  0
  3  1  1  1  0  0  0
  3  4  1  0  0  0  0
  3  5  1  0  0  0  0
  5  6  1  6  0  0  0
  5  7  1  0  0  0  0
  7  8  1  6  0  0  0
  7  9  1  0  0  0  0
  9 27  1  0  0  0  0
 10 11  1  0  0  0  0
 11 12  2  0  0  0  0
 11 13  1  0  0  0  0
 13 14  1  0  0  0  0
 14 16  2  0  0  0  0
 15 14  1  1  0  0  0
 15 18  1  0  0  0  0
 15 26  1  0  0  0  0
 17 19  1  1  0  0  0
 17 25  1  0  0  0  0
 17 18  1  0  0  0  0
 19 20  1  0  0  0  0
 20 21  1  6  0  0  0
 20 22  1  0  0  0  0
 22 23  1  6  0  0  0
 22 24  1  0  0  0  0
 23 28  1  0  0  0  0
 23 29  1  0  0  0  0
 25 24  1  6  0  0  0
 25 27  1  0  0  0  0
 26 10  1  6  0  0  0
 26 27  1  0  0  0  0
M  END
>  <CHROM.1>
171.87905304,64.39458774,-43.62448809,165.11868851,-115.33034122,-66.77762560
27.95593259,36.68741858,19.74612576,-1.13174250,-1.38665006,-3.04746279

>  <Name>
ligand

>  <RI>
0

>  <Rbt.Current_Directory>
/home/itssahil/PROJECTS/Mol_Feturizer/New_Systems/rnas/3F4H

>  <Rbt.Executable>
rbdock ($Id: //depot/dev/client3/rdock/2013.1/src/exe/rbdock.cxx#4 $)

>  <Rbt.Library>
libRbt.so (2013.1, Build901 2013/11/27)

>  <Rbt.Parameter_File>
/export/apps/rDock/src/rDock_2013.1_src/data/scripts/dock_solv.prm

>  <Rbt.Receptor>
prm/pocket_docking_2.prm

>  <SCORE>
-46.6099

>  <SCORE.INTER>
-30.9125

>  <SCORE.INTER.CONST>
1

>  <SCORE.INTER.POLAR>
0

>  <SCORE.INTER.ROT>
6

>  <SCORE.INTER.SOLV>
10.155

>  <SCORE.INTER.VDW>
-31.5933

>  <SCORE.INTER.norm>
-1.06595

>  <SCORE.INTRA>
-15.702

>  <SCORE.INTRA.DIHEDRAL>
-2.80169

>  <SCORE.INTRA.DIHEDRAL.0>
6.83446

>  <SCORE.INTRA.POLAR>
0

>  <SCORE.INTRA.POLAR.0>
0

>  <SCORE.INTRA.REPUL>
0

>  <SCORE.INTRA.REPUL.0>
0

>  <SCORE.INTRA.SOLV>
0.128571

>  <SCORE.INTRA.SOLV.lig_0>
-26.4601

>  <SCORE.INTRA.VDW>
-14.3654

>  <SCORE.INTRA.VDW.0>
13.7853

>  <SCORE.INTRA.norm>
-0.541447

>  <SCORE.RESTR>
0.00462915

>  <SCORE.RESTR.CAVITY>
0.00462915

>  <SCORE.RESTR.norm>
0.000159626

>  <SCORE.SYSTEM>
0

>  <SCORE.SYSTEM.CONST>
0

>  <SCORE.SYSTEM.DIHEDRAL>
0

>  <SCORE.SYSTEM.SOLV>
0

>  <SCORE.SYSTEM.norm>
0

>  <SCORE.heavy>
29

>  <SCORE.norm>
-1.60724

>  <RMSD>
1.250

$$$$
ligand
 OpenBabel11021811473D
libRbt.so/2013.1/901 2013/11/27
 29 31  0  0  0  0  0  0  0  0999 V2000
   28.0357   41.3503   16.8426 C   0  0  0  0  0  0  0  0  0  0  0  0
   28.2287   40.8049   15.5334 O   0  0  0  0  0  0  0  0  0  0  0  0
   27.4117   40.2917   17.7416 C   0  0  1  0  0  0  0  0  0  0  0  0
   26.1570   39.9086   17.1872 O   0  0  0  0  0  0  0  0  0  0  0  0
   28.3292   39.0816   17.8601 C   0  0  1  0  0  0  0  0  0  0  0  0
   29.5411   39.5296   18.4562 O   0  0  0  0  0  0  0  0  0  0  0  0
   27.7538   37.9088   18.6595 C   0  0  1  0  0  0  0  0  0  0  0  0
   26.7413   37.2792   17.8732 O   0  0  0  0  0  0  0  0  0  0  0  0
   28.7952   36.8534   19.0264 C   0  0  0  0  0  0  0  0  0  0  0  0
   28.5640   34.1144   18.3819 N   0  0  0  0  0  0  0  0  0  0  0  0
   28.4721   32.7981   18.0398 C   0  0  0  0  0  0  0  0  0  0  0  0
   28.8598   32.4059   16.9110 O   0  0  0  0  0  0  0  0  0  0  0  0
   27.9554   31.8969   18.9132 N   0  0  0  0  0  0  0  0  0  0  0  0
   27.5222   32.2846   20.1391 C   0  0  0  0  0  0  0  0  0  0  0  0
   27.6110   33.6236   20.5022 C   0  0  1  0  0  0  0  0  0  0  0  0
   27.0428   31.4472   20.9431 O   0  0  0  0  0  0  0  0  0  0  0  0
   27.2755   35.3180   22.0745 C   0  0  1  0  0  0  0  0  0  0  0  0
   27.1872   34.0190   21.7223 N   0  0  0  0  0  0  0  0  0  0  0  0
   26.8364   35.7163   23.3322 C   0  0  0  0  0  0  0  0  0  0  0  0
   26.9166   37.0476   23.7255 C   0  0  2  0  0  0  0  0  0  0  0  0
   26.4214   37.4099   25.1020 C   0  0  0  0  0  0  0  0  0  0  0  0
   27.4462   38.0006   22.8461 C   0  0  2  0  0  0  0  0  0  0  0  0
   27.5563   39.3260   23.1629 N   0  0  0  0  0  0  0  0  0  0  0  0
   27.8831   37.5848   21.5825 C   0  0  0  0  0  0  0  0  0  0  0  0
   27.8033   36.2510   21.1835 C   0  0  2  0  0  0  0  0  0  0  0  0
   28.1445   34.5531   19.6039 C   0  0  2  0  0  0  0  0  0  0  0  0
   28.2254   35.8613   19.9588 N   0  0  0  0  0  0  0  0  0  0  0  0
   26.6373   40.2840   22.5778 C   0  0  0  0  0  0  0  0  0  0  0  0
   28.5661   39.8316   24.0779 C   0  0  0  0  0  0  0  0  0  0  0  0
  1  2  1  0  0  0  0
  3  1  1  6  0  0  0
  3  4  1  0  0  0  0
  3  5  1  0  0  0  0
  5  6  1  1  0  0  0
  5  7  1  0  0  0  0
  7  8  1  6  0  0  0
  7  9  1  0  0  0  0
  9 27  1  0  0  0  0
 10 11  1  0  0  0  0
 11 12  2  0  0  0  0
 11 13  1  0  0  0  0
 13 14  1  0  0  0  0
 14 16  2  0  0  0  0
 15 14  1  1  0  0  0
 15 18  1  0  0  0  0
 15 26  1  0  0  0  0
 17 19  1  1  0  0  0
 17 25  1  0  0  0  0
 17 18  1  0  0  0  0
 19 20  1  0  0  0  0
 20 21  1  6  0  0  0
 20 22  1  0  0  0  0
 22 23  1  6  0  0  0
 22 24  1  0  0  0  0
 23 28  1  0  0  0  0
 23 29  1  0  0  0  0
 25 24  1  6  0  0  0
 25 27  1  0  0  0  0
 26 10  1  6  0  0  0
 26 27  1  0  0  0  0
M  END
>  <CHROM.1>
-60.18410238,61.66970816,72.85330929,171.57592957,-105.37026492,-62.82586946
27.72441960,36.72335563,20.05281218,-1.58592096,-1.42955314,2.97010021

>  <Name>
ligand

>  <RI>
0

>  <Rbt.Current_Directory>
/home/itssahil/PROJECTS/Mol_Feturizer/New_Systems/rnas/3F4H

>  <Rbt.Executable>
rbdock ($Id: //depot/dev/client3/rdock/2013.1/src/exe/rbdock.cxx#4 $)

>  <Rbt.Library>
libRbt.so (2013.1, Build901 2013/11/27)

>  <Rbt.Parameter_File>
/export/apps/rDock/src/rDock_2013.1_src/data/scripts/dock_solv.prm

>  <Rbt.Receptor>
prm/pocket_docking_3.prm

>  <SCORE>
-47.5766

>  <SCORE.INTER>
-30.5403

>  <SCORE.INTER.CONST>
1

>  <SCORE.INTER.POLAR>
0

>  <SCORE.INTER.ROT>
6

>  <SCORE.INTER.SOLV>
11.7354

>  <SCORE.INTER.VDW>
-31.872

>  <SCORE.INTER.norm>
-1.05311

>  <SCORE.INTRA>
-17.0363

>  <SCORE.INTRA.DIHEDRAL>
-3.96014

>  <SCORE.INTRA.DIHEDRAL.0>
6.83446

>  <SCORE.INTRA.POLAR>
0

>  <SCORE.INTRA.POLAR.0>
0

>  <SCORE.INTRA.REPUL>
0

>  <SCORE.INTRA.REPUL.0>
0

>  <SCORE.INTRA.SOLV>
-0.0732095

>  <SCORE.INTRA.SOLV.lig_0>
-26.4601

>  <SCORE.INTRA.VDW>
-15.0196

>  <SCORE.INTRA.VDW.0>
13.7853

>  <SCORE.INTRA.norm>
-0.587458

>  <SCORE.RESTR>
0

>  <SCORE.RESTR.CAVITY>
0

>  <SCORE.RESTR.norm>
0

>  <SCORE.SYSTEM>
0

>  <SCORE.SYSTEM.CONST>
0

>  <SCORE.SYSTEM.DIHEDRAL>
0

>  <SCORE.SYSTEM.SOLV>
0

>  <SCORE.SYSTEM.norm>
0

>  <SCORE.heavy>
29

>  <SCORE.norm>
-1.64057

>  <RMSD>
1.250

$$$$
ligand
 OpenBabel11021811473D
libRbt.so/2013.1/901 2013/11/27
 29 31  0  0  0  0  0  0  0  0999 V2000
   28.0360   41.3754   16.9010 C   0  0  0  0  0  0  0  0  0  0  0  0
   28.2689   40.8428   15.5930 O   0  0  0  0  0  0  0  0  0  0  0  0
   27.4079   40.3005   17.7774 C   0  0  1  0  0  0  0  0  0  0  0  0
   26.1604   39.9206   17.2047 O   0  0  0  0  0  0  0  0  0  0  0  0
   28.3295   39.0926   17.8864 C   0  0  1  0  0  0  0  0  0  0  0  0
   29.5268   39.5329   18.5166 O   0  0  0  0  0  0  0  0  0  0  0  0
   27.7448   37.8988   18.6470 C   0  0  1  0  0  0  0  0  0  0  0  0
   26.7514   37.2826   17.8267 O   0  0  0  0  0  0  0  0  0  0  0  0
   28.7844   36.8404   19.0101 C   0  0  0  0  0  0  0  0  0  0  0  0
   28.5586   34.0988   18.3747 N   0  0  0  0  0  0  0  0  0  0  0  0
   28.4692   32.7812   18.0370 C   0  0  0  0  0  0  0  0  0  0  0  0
   28.8587   32.3858   16.9098 O   0  0  0  0  0  0  0  0  0  0  0  0
   27.9533   31.8820   18.9129 N   0  0  0  0  0  0  0  0  0  0  0  0
   27.5183   32.2732   20.1371 C   0  0  0  0  0  0  0  0  0  0  0  0
   27.6044   33.6136   20.4957 C   0  0  1  0  0  0  0  0  0  0  0  0
   27.0396   31.4377   20.9435 O   0  0  0  0  0  0  0  0  0  0  0  0
   27.2645   35.3127   22.0619 C   0  0  1  0  0  0  0  0  0  0  0  0
   27.1788   34.0123   21.7141 N   0  0  0  0  0  0  0  0  0  0  0  0
   26.8235   35.7144   23.3180 C   0  0  0  0  0  0  0  0  0  0  0  0
   26.9011   37.0473   23.7067 C   0  0  2  0  0  0  0  0  0  0  0  0
   26.4040   37.4134   25.0816 C   0  0  0  0  0  0  0  0  0  0  0  0
   27.4298   37.9982   22.8246 C   0  0  2  0  0  0  0  0  0  0  0  0
   27.5373   39.3249   23.1370 N   0  0  0  0  0  0  0  0  0  0  0  0
   27.8686   37.5789   21.5628 C   0  0  0  0  0  0  0  0  0  0  0  0
   27.7915   36.2436   21.1683 C   0  0  2  0  0  0  0  0  0  0  0  0
   28.1372   34.5409   19.5948 C   0  0  2  0  0  0  0  0  0  0  0  0
   28.2155   35.8504   19.9453 N   0  0  0  0  0  0  0  0  0  0  0  0
   28.5844   39.7690   24.0374 C   0  0  0  0  0  0  0  0  0  0  0  0
   26.6389   40.3321   22.5975 C   0  0  0  0  0  0  0  0  0  0  0  0
  1  2  1  0  0  0  0
  3  1  1  6  0  0  0
  3  4  1  0  0  0  0
  3  5  1  0  0  0  0
  5  6  1  1  0  0  0
  5  7  1  0  0  0  0
  7  8  1  6  0  0  0
  7  9  1  0  0  0  0
  9 27  1  0  0  0  0
 10 11  1  0  0  0  0
 11 12  2  0  0  0  0
 11 13  1  0  0  0  0
 13 14  1  0  0  0  0
 14 16  2  0  0  0  0
 15 14  1  1  0  0  0
 15 18  1  0  0  0  0
 15 26  1  0  0  0  0
 17 19  1  1  0  0  0
 17 25  1  0  0  0  0
 17 18  1  0  0  0  0
 19 20  1  0  0  0  0
 20 21  1  6  0  0  0
 20 22  1  0  0  0  0
 22 23  1  6  0  0  0
 22 24  1  0  0  0  0
 23 28  1  0  0  0  0
 23 29  1  0  0  0  0
 25 24  1  6  0  0  0
 25 27  1  0  0  0  0
 26 10  1  6  0  0  0
 26 27  1  0  0  0  0
M  END
>  <CHROM.1>
-61.32782045,62.38961930,72.83955059,169.59963446,75.65038771,-62.38948820
27.72045813,36.72080682,20.05236116,-1.59160592,-1.42647902,2.97954810

>  <Name>
ligand

>  <RI>
0

>  <Rbt.Current_Directory>
/home/itssahil/PROJECTS/Mol_Feturizer/New_Systems/rnas/3F4H

>  <Rbt.Executable>
rbdock ($Id: //depot/dev/client3/rdock/2013.1/src/exe/rbdock.cxx#4 $)

>  <Rbt.Library>
libRbt.so (2013.1, Build901 2013/11/27)

>  <Rbt.Parameter_File>
/export/apps/rDock/src/rDock_2013.1_src/data/scripts/dock_solv.prm

>  <Rbt.Receptor>
prm/pocket_docking_4.prm

>  <SCORE>
-47.5199

>  <SCORE.INTER>
-30.5482

>  <SCORE.INTER.CONST>
1

>  <SCORE.INTER.POLAR>
0

>  <SCORE.INTER.ROT>
6

>  <SCORE.INTER.SOLV>
11.6427

>  <SCORE.INTER.VDW>
-31.8464

>  <SCORE.INTER.norm>
-1.05339

>  <SCORE.INTRA>
-16.9717

>  <SCORE.INTRA.DIHEDRAL>
-3.81515

>  <SCORE.INTRA.DIHEDRAL.0>
6.83446

>  <SCORE.INTRA.POLAR>
0

>  <SCORE.INTRA.POLAR.0>
0

>  <SCORE.INTRA.REPUL>
0

>  <SCORE.INTRA.REPUL.0>
0

>  <SCORE.INTRA.SOLV>
-0.0781316

>  <SCORE.INTRA.SOLV.lig_0>
-26.4601

>  <SCORE.INTRA.VDW>
-15.0251

>  <SCORE.INTRA.VDW.0>
13.7853

>  <SCORE.INTRA.norm>
-0.585232

>  <SCORE.RESTR>
0

>  <SCORE.RESTR.CAVITY>
0

>  <SCORE.RESTR.norm>
0

>  <SCORE.SYSTEM>
0

>  <SCORE.SYSTEM.CONST>
0

>  <SCORE.SYSTEM.DIHEDRAL>
0

>  <SCORE.SYSTEM.SOLV>
0

>  <SCORE.SYSTEM.norm>
0

>  <SCORE.heavy>
29

>  <SCORE.norm>
-1.63862

>  <RMSD>
1.253

$$$$
ligand
 OpenBabel11021811473D
libRbt.so/2013.1/901 2013/11/27
 29 31  0  0  0  0  0  0  0  0999 V2000
   29.0955   40.4362   16.0857 C   0  0  0  0  0  0  0  0  0  0  0  0
   30.0906   40.5007   15.0588 O   0  0  0  0  0  0  0  0  0  0  0  0
   28.8819   38.9835   16.4886 C   0  0  1  0  0  0  0  0  0  0  0  0
   30.1053   38.4730   17.0092 O   0  0  0  0  0  0  0  0  0  0  0  0
   27.7769   38.8741   17.5313 C   0  0  1  0  0  0  0  0  0  0  0  0
   26.6045   39.4461   16.9630 O   0  0  0  0  0  0  0  0  0  0  0  0
   27.4839   37.4516   18.0172 C   0  0  1  0  0  0  0  0  0  0  0  0
   27.1934   36.6366   16.8810 O   0  0  0  0  0  0  0  0  0  0  0  0
   28.6483   36.8150   18.7734 C   0  0  0  0  0  0  0  0  0  0  0  0
   28.5122   34.0488   18.2250 N   0  0  0  0  0  0  0  0  0  0  0  0
   28.4647   32.7192   17.9285 C   0  0  0  0  0  0  0  0  0  0  0  0
   28.8285   32.3061   16.7991 O   0  0  0  0  0  0  0  0  0  0  0  0
   28.0187   31.8267   18.8485 N   0  0  0  0  0  0  0  0  0  0  0  0
   27.6131   32.2365   20.0766 C   0  0  0  0  0  0  0  0  0  0  0  0
   27.6572   33.5894   20.3936 C   0  0  1  0  0  0  0  0  0  0  0  0
   27.1991   31.4070   20.9240 O   0  0  0  0  0  0  0  0  0  0  0  0
   27.3054   35.3196   21.9227 C   0  0  1  0  0  0  0  0  0  0  0  0
   27.2605   34.0070   21.6154 N   0  0  0  0  0  0  0  0  0  0  0  0
   26.8946   35.7408   23.1826 C   0  0  0  0  0  0  0  0  0  0  0  0
   26.9315   37.0867   23.5301 C   0  0  2  0  0  0  0  0  0  0  0  0
   26.4705   37.4736   24.9119 C   0  0  0  0  0  0  0  0  0  0  0  0
   27.3880   38.0312   22.6020 C   0  0  2  0  0  0  0  0  0  0  0  0
   27.4523   39.3699   22.8723 N   0  0  0  0  0  0  0  0  0  0  0  0
   27.7971   37.5922   21.3369 C   0  0  0  0  0  0  0  0  0  0  0  0
   27.7606   36.2437   20.9836 C   0  0  2  0  0  0  0  0  0  0  0  0
   28.1180   34.5099   19.4472 C   0  0  2  0  0  0  0  0  0  0  0  0
   28.1552   35.8315   19.7571 N   0  0  0  0  0  0  0  0  0  0  0  0
   28.5222   39.8846   23.7058 C   0  0  0  0  0  0  0  0  0  0  0  0
   26.4846   40.3216   22.3521 C   0  0  0  0  0  0  0  0  0  0  0  0
  1  2  1  0  0  0  0
  3  1  1  1  0  0  0
  3  4  1  0  0  0  0
  3  5  1  0  0  0  0
  5  6  1  6  0  0  0
  5  7  1  0  0  0  0
  7  8  1  6  0  0  0
  7  9  1  0  0  0  0
  9 27  1  0  0  0  0
 10 11  1  0  0  0  0
 11 12  2  0  0  0  0
 11 13  1  0  0  0  0
 13 14  1  0  0  0  0
 14 16  2  0  0  0  0
 15 14  1  1  0  0  0
 15 18  1  0  0  0  0
 15 26  1  0  0  0  0
 17 19  1  1  0  0  0
 17 25  1  0  0  0  0
 17 18  1  0  0  0  0
 19 20  1  0  0  0  0
 20 21  1  6  0  0  0
 20 22  1  0  0  0  0
 22 23  1  6  0  0  0
 22 24  1  0  0  0  0
 23 28  1  0  0  0  0
 23 29  1  0  0  0  0
 25 24  1  6  0  0  0
 25 27  1  0  0  0  0
 26 10  1  6  0  0  0
 26 27  1  0  0  0  0
M  END
>  <CHROM.1>
61.72093556,57.73523998,-55.25904814,151.43977166,76.41913972,-84.58060234
27.90819064,36.51852527,19.70567311,-0.84843616,-1.33097032,-3.00884155

>  <Name>
ligand

>  <RI>
0

>  <Rbt.Current_Directory>
/home/itssahil/PROJECTS/Mol_Feturizer/New_Systems/rnas/3F4H

>  <Rbt.Executable>
rbdock ($Id: //depot/dev/client3/rdock/2013.1/src/exe/rbdock.cxx#4 $)

>  <Rbt.Library>
libRbt.so (2013.1, Build901 2013/11/27)

>  <Rbt.Parameter_File>
/export/apps/rDock/src/rDock_2013.1_src/data/scripts/dock_solv.prm

>  <Rbt.Receptor>
prm/pocket_docking_8.prm

>  <SCORE>
-47.6769

>  <SCORE.INTER>
-31.4152

>  <SCORE.INTER.CONST>
1

>  <SCORE.INTER.POLAR>
0

>  <SCORE.INTER.ROT>
6

>  <SCORE.INTER.SOLV>
12.2154

>  <SCORE.INTER.VDW>
-32.6153

>  <SCORE.INTER.norm>
-1.08328

>  <SCORE.INTRA>
-16.2616

>  <SCORE.INTRA.DIHEDRAL>
-2.22215

>  <SCORE.INTRA.DIHEDRAL.0>
6.83446

>  <SCORE.INTRA.POLAR>
0

>  <SCORE.INTRA.POLAR.0>
0

>  <SCORE.INTRA.REPUL>
0

>  <SCORE.INTRA.REPUL.0>
0

>  <SCORE.INTRA.SOLV>
-0.258152

>  <SCORE.INTRA.SOLV.lig_0>
-26.4601

>  <SCORE.INTRA.VDW>
-15.0215

>  <SCORE.INTRA.VDW.0>
13.7853

>  <SCORE.INTRA.norm>
-0.560746

>  <SCORE.RESTR>
0

>  <SCORE.RESTR.CAVITY>
0

>  <SCORE.RESTR.norm>
0

>  <SCORE.SYSTEM>
0

>  <SCORE.SYSTEM.CONST>
0

>  <SCORE.SYSTEM.DIHEDRAL>
0

>  <SCORE.SYSTEM.SOLV>
0

>  <SCORE.SYSTEM.norm>
0

>  <SCORE.heavy>
29

>  <SCORE.norm>
-1.64403

>  <RMSD>
1.257

$$$$
ligand
 OpenBabel11021811473D
libRbt.so/2013.1/901 2013/11/27
 29 31  0  0  0  0  0  0  0  0999 V2000
   26.8675   40.6362   17.2429 C   0  0  0  0  0  0  0  0  0  0  0  0
   26.1135   41.5884   16.4855 O   0  0  0  0  0  0  0  0  0  0  0  0
   27.7333   39.8141   16.2980 C   0  0  1  0  0  0  0  0  0  0  0  0
   28.4380   40.7047   15.4386 O   0  0  0  0  0  0  0  0  0  0  0  0
   28.7126   38.9513   17.0835 C   0  0  1  0  0  0  0  0  0  0  0  0
   29.3839   39.8067   18.0013 O   0  0  0  0  0  0  0  0  0  0  0  0
   28.0819   37.7723   17.8303 C   0  0  1  0  0  0  0  0  0  0  0  0
   27.1387   37.1407   16.9637 O   0  0  0  0  0  0  0  0  0  0  0  0
   29.0966   36.7210   18.2752 C   0  0  0  0  0  0  0  0  0  0  0  0
   28.7547   33.9537   17.8318 N   0  0  0  0  0  0  0  0  0  0  0  0
   28.6089   32.6209   17.5862 C   0  0  0  0  0  0  0  0  0  0  0  0
   28.9643   32.1348   16.4835 O   0  0  0  0  0  0  0  0  0  0  0  0
   28.0731   31.8043   18.5286 N   0  0  0  0  0  0  0  0  0  0  0  0
   27.6736   32.2944   19.7290 C   0  0  0  0  0  0  0  0  0  0  0  0
   27.8174   33.6516   19.9940 C   0  0  1  0  0  0  0  0  0  0  0  0
   27.1764   31.5352   20.5972 O   0  0  0  0  0  0  0  0  0  0  0  0
   27.5691   35.4651   21.4449 C   0  0  1  0  0  0  0  0  0  0  0  0
   27.4275   34.1486   21.1880 N   0  0  0  0  0  0  0  0  0  0  0  0
   27.1646   35.9682   22.6764 C   0  0  0  0  0  0  0  0  0  0  0  0
   27.3000   37.3202   22.9720 C   0  0  2  0  0  0  0  0  0  0  0  0
   26.8400   37.7981   24.3253 C   0  0  0  0  0  0  0  0  0  0  0  0
   27.8505   38.1875   22.0198 C   0  0  2  0  0  0  0  0  0  0  0  0
   28.0143   39.5269   22.2392 N   0  0  0  0  0  0  0  0  0  0  0  0
   28.2520   37.6665   20.7837 C   0  0  0  0  0  0  0  0  0  0  0  0
   28.1170   36.3116   20.4825 C   0  0  2  0  0  0  0  0  0  0  0  0
   28.3707   34.4939   19.0245 C   0  0  2  0  0  0  0  0  0  0  0  0
   28.5053   35.8200   19.2835 N   0  0  0  0  0  0  0  0  0  0  0  0
   29.3454   40.1030   22.2097 C   0  0  0  0  0  0  0  0  0  0  0  0
   26.8980   40.4201   22.5019 C   0  0  0  0  0  0  0  0  0  0  0  0
  1  2  1  0  0  0  0
  3  1  1  1  0  0  0
  3  4  1  0  0  0  0
  3  5  1  0  0  0  0
  5  6  1  1  0  0  0
  5  7  1  0  0  0  0
  7  8  1  6  0  0  0
  7  9  1  0  0  0  0
  9 27  1  0  0  0  0
 10 11  1  0  0  0  0
 11 12  2  0  0  0  0
 11 13  1  0  0  0  0
 13 14  1  0  0  0  0
 14 16  2  0  0  0  0
 15 14  1  1  0  0  0
 15 18  1  0  0  0  0
 15 26  1  0  0  0  0
 17 19  1  1  0  0  0
 17 25  1  0  0  0  0
 17 18  1  0  0  0  0
 19 20  1  0  0  0  0
 20 21  1  6  0  0  0
 20 22  1  0  0  0  0
 22 23  1  6  0  0  0
 22 24  1  0  0  0  0
 23 28  1  0  0  0  0
 23 29  1  0  0  0  0
 25 24  1  6  0  0  0
 25 27  1  0  0  0  0
 26 10  1  6  0  0  0
 26 27  1  0  0  0  0
M  END
>  <CHROM.1>
49.61124916,-51.20019813,43.76711882,164.62987277,118.75071806,-63.74135865
27.93862572,36.78636161,19.42195000,-1.92349411,-1.46294750,2.69947028

>  <Name>
ligand

>  <RI>
0

>  <Rbt.Current_Directory>
/home/itssahil/PROJECTS/Mol_Feturizer/New_Systems/rnas/3F4H

>  <Rbt.Executable>
rbdock ($Id: //depot/dev/client3/rdock/2013.1/src/exe/rbdock.cxx#4 $)

>  <Rbt.Library>
libRbt.so (2013.1, Build901 2013/11/27)

>  <Rbt.Parameter_File>
/export/apps/rDock/src/rDock_2013.1_src/data/scripts/dock_solv.prm

>  <Rbt.Receptor>
prm/pocket_docking_2.prm

>  <SCORE>
-42.0401

>  <SCORE.INTER>
-27.1668

>  <SCORE.INTER.CONST>
1

>  <SCORE.INTER.POLAR>
0

>  <SCORE.INTER.ROT>
6

>  <SCORE.INTER.SOLV>
11.0551

>  <SCORE.INTER.VDW>
-29.3962

>  <SCORE.INTER.norm>
-0.936787

>  <SCORE.INTRA>
-15.385

>  <SCORE.INTRA.DIHEDRAL>
-2.397

>  <SCORE.INTRA.DIHEDRAL.0>
6.83446

>  <SCORE.INTRA.POLAR>
0

>  <SCORE.INTRA.POLAR.0>
0

>  <SCORE.INTRA.REPUL>
0

>  <SCORE.INTRA.REPUL.0>
0

>  <SCORE.INTRA.SOLV>
-0.442645

>  <SCORE.INTRA.SOLV.lig_0>
-26.4601

>  <SCORE.INTRA.VDW>
-13.9652

>  <SCORE.INTRA.VDW.0>
13.7853

>  <SCORE.INTRA.norm>
-0.530518

>  <SCORE.RESTR>
0.511731

>  <SCORE.RESTR.CAVITY>
0.511731

>  <SCORE.RESTR.norm>
0.0176459

>  <SCORE.SYSTEM>
0

>  <SCORE.SYSTEM.CONST>
0

>  <SCORE.SYSTEM.DIHEDRAL>
0

>  <SCORE.SYSTEM.SOLV>
0

>  <SCORE.SYSTEM.norm>
0

>  <SCORE.heavy>
29

>  <SCORE.norm>
-1.44966

>  <RMSD>
1.258

$$$$
ligand
 OpenBabel11021811473D
libRbt.so/2013.1/901 2013/11/27
 29 31  0  0  0  0  0  0  0  0999 V2000
   28.7381   40.5408   15.7192 C   0  0  0  0  0  0  0  0  0  0  0  0
   30.1165   40.7491   16.0442 O   0  0  0  0  0  0  0  0  0  0  0  0
   28.2837   39.2035   16.2878 C   0  0  1  0  0  0  0  0  0  0  0  0
   29.2701   38.2226   15.9826 O   0  0  0  0  0  0  0  0  0  0  0  0
   28.0847   39.3024   17.7948 C   0  0  1  0  0  0  0  0  0  0  0  0
   27.1492   40.3490   18.0276 O   0  0  0  0  0  0  0  0  0  0  0  0
   27.6086   38.0133   18.4709 C   0  0  1  0  0  0  0  0  0  0  0  0
   26.6358   37.3937   17.6286 O   0  0  0  0  0  0  0  0  0  0  0  0
   28.7303   37.0073   18.7209 C   0  0  0  0  0  0  0  0  0  0  0  0
   28.5942   34.2819   17.9964 N   0  0  0  0  0  0  0  0  0  0  0  0
   28.5452   32.9742   17.6146 C   0  0  0  0  0  0  0  0  0  0  0  0
   28.8640   32.6407   16.4460 O   0  0  0  0  0  0  0  0  0  0  0  0
   28.1463   32.0181   18.4912 N   0  0  0  0  0  0  0  0  0  0  0  0
   27.7901   32.3415   19.7598 C   0  0  0  0  0  0  0  0  0  0  0  0
   27.8363   33.6710   20.1637 C   0  0  1  0  0  0  0  0  0  0  0  0
   27.4195   31.4534   20.5670 O   0  0  0  0  0  0  0  0  0  0  0  0
   27.5356   35.2926   21.8177 C   0  0  1  0  0  0  0  0  0  0  0  0
   27.4886   34.0027   21.4261 N   0  0  0  0  0  0  0  0  0  0  0  0
   27.1753   35.6251   23.1188 C   0  0  0  0  0  0  0  0  0  0  0  0
   27.2158   36.9455   23.5531 C   0  0  2  0  0  0  0  0  0  0  0  0
   26.8109   37.2353   24.9756 C   0  0  0  0  0  0  0  0  0  0  0  0
   27.6243   37.9542   22.6713 C   0  0  2  0  0  0  0  0  0  0  0  0
   27.6889   39.2728   23.0269 N   0  0  0  0  0  0  0  0  0  0  0  0
   27.9828   37.6042   21.3638 C   0  0  0  0  0  0  0  0  0  0  0  0
   27.9425   36.2816   20.9237 C   0  0  2  0  0  0  0  0  0  0  0  0
   28.2486   34.6570   19.2620 C   0  0  2  0  0  0  0  0  0  0  0  0
   28.2879   35.9555   19.6570 N   0  0  0  0  0  0  0  0  0  0  0  0
   28.5874   39.6885   24.0872 C   0  0  0  0  0  0  0  0  0  0  0  0
   26.8886   40.2990   22.3793 C   0  0  0  0  0  0  0  0  0  0  0  0
  1  2  1  0  0  0  0
  3  1  1  1  0  0  0
  3  4  1  0  0  0  0
  3  5  1  0  0  0  0
  5  6  1  6  0  0  0
  5  7  1  0  0  0  0
  7  8  1  6  0  0  0
  7  9  1  0  0  0  0
  9 27  1  0  0  0  0
 10 11  1  0  0  0  0
 11 12  2  0  0  0  0
 11 13  1  0  0  0  0
 13 14  1  0  0  0  0
 14 16  2  0  0  0  0
 15 14  1  1  0  0  0
 15 18  1  0  0  0  0
 15 26  1  0  0  0  0
 17 19  1  1  0  0  0
 17 25  1  0  0  0  0
 17 18  1  0  0  0  0
 19 20  1  0  0  0  0
 20 21  1  6  0  0  0
 20 22  1  0  0  0  0
 22 23  1  6  0  0  0
 22 24  1  0  0  0  0
 23 28  1  0  0  0  0
 23 29  1  0  0  0  0
 25 24  1  6  0  0  0
 25 27  1  0  0  0  0
 26 10  1  6  0  0  0
 26 27  1  0  0  0  0
M  END
>  <CHROM.1>
-45.85539249,56.58633366,-40.21631395,165.91428020,61.90103438,-62.92875091
27.98855506,36.65725453,19.70804376,-1.14707613,-1.38587695,-3.03664925

>  <Name>
ligand

>  <RI>
0

>  <Rbt.Current_Directory>
/home/itssahil/PROJECTS/Mol_Feturizer/New_Systems/rnas/3F4H

>  <Rbt.Executable>
rbdock ($Id: //depot/dev/client3/rdock/2013.1/src/exe/rbdock.cxx#4 $)

>  <Rbt.Library>
libRbt.so (2013.1, Build901 2013/11/27)

>  <Rbt.Parameter_File>
/export/apps/rDock/src/rDock_2013.1_src/data/scripts/dock_solv.prm

>  <Rbt.Receptor>
prm/pocket_docking_2.prm

>  <SCORE>
-45.8248

>  <SCORE.INTER>
-30.9089

>  <SCORE.INTER.CONST>
1

>  <SCORE.INTER.POLAR>
0

>  <SCORE.INTER.ROT>
6

>  <SCORE.INTER.SOLV>
10.9554

>  <SCORE.INTER.VDW>
-31.8577

>  <SCORE.INTER.norm>
-1.06582

>  <SCORE.INTRA>
-14.9264

>  <SCORE.INTRA.DIHEDRAL>
-2.07901

>  <SCORE.INTRA.DIHEDRAL.0>
6.83446

>  <SCORE.INTRA.POLAR>
0

>  <SCORE.INTRA.POLAR.0>
0

>  <SCORE.INTRA.REPUL>
0

>  <SCORE.INTRA.REPUL.0>
0

>  <SCORE.INTRA.SOLV>
0.0904233

>  <SCORE.INTRA.SOLV.lig_0>
-26.4601

>  <SCORE.INTRA.VDW>
-13.9321

>  <SCORE.INTRA.VDW.0>
13.7853

>  <SCORE.INTRA.norm>
-0.514704

>  <SCORE.RESTR>
0.0104513

>  <SCORE.RESTR.CAVITY>
0.0104513

>  <SCORE.RESTR.norm>
0.000360389

>  <SCORE.SYSTEM>
0

>  <SCORE.SYSTEM.CONST>
0

>  <SCORE.SYSTEM.DIHEDRAL>
0

>  <SCORE.SYSTEM.SOLV>
0

>  <SCORE.SYSTEM.norm>
0

>  <SCORE.heavy>
29

>  <SCORE.norm>
-1.58017

>  <RMSD>
1.259

$$$$
ligand
 OpenBabel11021811473D
libRbt.so/2013.1/901 2013/11/27
 29 31  0  0  0  0  0  0  0  0999 V2000
   28.6375   39.8473   18.3544 C   0  0  0  0  0  0  0  0  0  0  0  0
   28.3328   41.0874   19.0010 O   0  0  0  0  0  0  0  0  0  0  0  0
   27.6610   39.6245   17.2077 C   0  0  1  0  0  0  0  0  0  0  0  0
   27.8991   40.6137   16.2111 O   0  0  0  0  0  0  0  0  0  0  0  0
   27.8340   38.2297   16.6205 C   0  0  1  0  0  0  0  0  0  0  0  0
   29.1797   38.1275   16.1693 O   0  0  0  0  0  0  0  0  0  0  0  0
   27.5135   37.0793   17.5793 C   0  0  1  0  0  0  0  0  0  0  0  0
   27.2489   35.9074   16.8071 O   0  0  0  0  0  0  0  0  0  0  0  0
   28.6492   36.7621   18.5502 C   0  0  0  0  0  0  0  0  0  0  0  0
   28.5534   34.0031   17.9587 N   0  0  0  0  0  0  0  0  0  0  0  0
   28.5238   32.6779   17.6408 C   0  0  0  0  0  0  0  0  0  0  0  0
   28.8463   32.2929   16.4891 O   0  0  0  0  0  0  0  0  0  0  0  0
   28.1404   31.7594   18.5634 N   0  0  0  0  0  0  0  0  0  0  0  0
   27.7808   32.1385   19.8156 C   0  0  0  0  0  0  0  0  0  0  0  0
   27.8074   33.4865   20.1545 C   0  0  1  0  0  0  0  0  0  0  0  0
   27.4246   31.2851   20.6654 O   0  0  0  0  0  0  0  0  0  0  0  0
   27.4840   35.1816   21.7285 C   0  0  1  0  0  0  0  0  0  0  0  0
   27.4561   33.8738   21.4000 N   0  0  0  0  0  0  0  0  0  0  0  0
   27.1203   35.5714   23.0128 C   0  0  0  0  0  0  0  0  0  0  0  0
   27.1413   36.9117   23.3825 C   0  0  2  0  0  0  0  0  0  0  0  0
   26.7337   37.2639   24.7900 C   0  0  0  0  0  0  0  0  0  0  0  0
   27.5335   37.8826   22.4522 C   0  0  2  0  0  0  0  0  0  0  0  0
   27.5785   39.2176   22.7433 N   0  0  0  0  0  0  0  0  0  0  0  0
   27.8957   37.4751   21.1625 C   0  0  0  0  0  0  0  0  0  0  0  0
   27.8750   36.1322   20.7870 C   0  0  2  0  0  0  0  0  0  0  0  0
   28.2036   34.4338   19.2053 C   0  0  2  0  0  0  0  0  0  0  0  0
   28.2238   35.7504   19.5370 N   0  0  0  0  0  0  0  0  0  0  0  0
   26.7014   40.1364   22.0426 C   0  0  0  0  0  0  0  0  0  0  0  0
   28.4768   39.7717   23.7428 C   0  0  0  0  0  0  0  0  0  0  0  0
  1  2  1  0  0  0  0
  3  1  1  1  0  0  0
  3  4  1  0  0  0  0
  3  5  1  0  0  0  0
  5  6  1  1  0  0  0
  5  7  1  0  0  0  0
  7  8  1  6  0  0  0
  7  9  1  0  0  0  0
  9 27  1  0  0  0  0
 10 11  1  0  0  0  0
 11 12  2  0  0  0  0
 11 13  1  0  0  0  0
 13 14  1  0  0  0  0
 14 16  2  0  0  0  0
 15 14  1  1  0  0  0
 15 18  1  0  0  0  0
 15 26  1  0  0  0  0
 17 19  1  1  0  0  0
 17 25  1  0  0  0  0
 17 18  1  0  0  0  0
 19 20  1  0  0  0  0
 20 21  1  6  0  0  0
 20 22  1  0  0  0  0
 22 23  1  6  0  0  0
 22 24  1  0  0  0  0
 23 28  1  0  0  0  0
 23 29  1  0  0  0  0
 25 24  1  6  0  0  0
 25 27  1  0  0  0  0
 26 10  1  6  0  0  0
 26 27  1  0  0  0  0
M  END
>  <CHROM.1>
66.61115620,-58.97121943,159.44790194,173.82222991,-116.10831981,-101.44700727
27.89039286,36.43398445,19.70940719,-1.84177947,-1.42449709,3.12161721

>  <Name>
ligand

>  <RI>
0

>  <Rbt.Current_Directory>
/home/itssahil/PROJECTS/Mol_Feturizer/New_Systems/rnas/3F4H

>  <Rbt.Executable>
rbdock ($Id: //depot/dev/client3/rdock/2013.1/src/exe/rbdock.cxx#4 $)

>  <Rbt.Library>
libRbt.so (2013.1, Build901 2013/11/27)

>  <Rbt.Parameter_File>
/export/apps/rDock/src/rDock_2013.1_src/data/scripts/dock_solv.prm

>  <Rbt.Receptor>
prm/pocket_docking_2.prm

>  <SCORE>
-45.1154

>  <SCORE.INTER>
-29.8369

>  <SCORE.INTER.CONST>
1

>  <SCORE.INTER.POLAR>
0

>  <SCORE.INTER.ROT>
6

>  <SCORE.INTER.SOLV>
9.92144

>  <SCORE.INTER.VDW>
-30.7984

>  <SCORE.INTER.norm>
-1.02886

>  <SCORE.INTRA>
-15.5172

>  <SCORE.INTRA.DIHEDRAL>
-3.0522

>  <SCORE.INTRA.DIHEDRAL.0>
6.83446

>  <SCORE.INTRA.POLAR>
0

>  <SCORE.INTRA.POLAR.0>
0

>  <SCORE.INTRA.REPUL>
0

>  <SCORE.INTRA.REPUL.0>
0

>  <SCORE.INTRA.SOLV>
-0.100334

>  <SCORE.INTRA.SOLV.lig_0>
-26.4601

>  <SCORE.INTRA.VDW>
-13.9409

>  <SCORE.INTRA.VDW.0>
13.7853

>  <SCORE.INTRA.norm>
-0.535075

>  <SCORE.RESTR>
0.238679

>  <SCORE.RESTR.CAVITY>
0.238679

>  <SCORE.RESTR.norm>
0.0082303

>  <SCORE.SYSTEM>
0

>  <SCORE.SYSTEM.CONST>
0

>  <SCORE.SYSTEM.DIHEDRAL>
0

>  <SCORE.SYSTEM.SOLV>
0

>  <SCORE.SYSTEM.norm>
0

>  <SCORE.heavy>
29

>  <SCORE.norm>
-1.5557

>  <RMSD>
1.260

$$$$
ligand
 OpenBabel11021811473D
libRbt.so/2013.1/901 2013/11/27
 29 31  0  0  0  0  0  0  0  0999 V2000
   28.1221   39.8627   16.3736 C   0  0  0  0  0  0  0  0  0  0  0  0
   28.9083   41.0234   16.0844 O   0  0  0  0  0  0  0  0  0  0  0  0
   28.9586   38.6145   16.1277 C   0  0  1  0  0  0  0  0  0  0  0  0
   30.0762   38.6369   17.0102 O   0  0  0  0  0  0  0  0  0  0  0  0
   28.1275   37.3591   16.3585 C   0  0  1  0  0  0  0  0  0  0  0  0
   28.9376   36.2463   15.9976 O   0  0  0  0  0  0  0  0  0  0  0  0
   27.6019   37.1841   17.7864 C   0  0  1  0  0  0  0  0  0  0  0  0
   26.6436   36.1252   17.7889 O   0  0  0  0  0  0  0  0  0  0  0  0
   28.6929   36.8398   18.7984 C   0  0  0  0  0  0  0  0  0  0  0  0
   28.5256   34.0813   18.2207 N   0  0  0  0  0  0  0  0  0  0  0  0
   28.4627   32.7556   17.9099 C   0  0  0  0  0  0  0  0  0  0  0  0
   28.8096   32.3521   16.7718 O   0  0  0  0  0  0  0  0  0  0  0  0
   28.0194   31.8568   18.8250 N   0  0  0  0  0  0  0  0  0  0  0  0
   27.6318   32.2563   20.0624 C   0  0  0  0  0  0  0  0  0  0  0  0
   27.6917   33.6051   20.3939 C   0  0  1  0  0  0  0  0  0  0  0  0
   27.2202   31.4210   20.9052 O   0  0  0  0  0  0  0  0  0  0  0  0
   27.3733   35.3210   21.9462 C   0  0  1  0  0  0  0  0  0  0  0  0
   27.3130   34.0124   21.6248 N   0  0  0  0  0  0  0  0  0  0  0  0
   26.9810   35.7315   23.2155 C   0  0  0  0  0  0  0  0  0  0  0  0
   27.0341   37.0730   23.5776 C   0  0  2  0  0  0  0  0  0  0  0  0
   26.5927   37.4484   24.9689 C   0  0  0  0  0  0  0  0  0  0  0  0
   27.4883   38.0239   22.6548 C   0  0  2  0  0  0  0  0  0  0  0  0
   27.5677   39.3588   22.9393 N   0  0  0  0  0  0  0  0  0  0  0  0
   27.8787   37.5956   21.3802 C   0  0  0  0  0  0  0  0  0  0  0  0
   27.8259   36.2515   21.0123 C   0  0  2  0  0  0  0  0  0  0  0  0
   28.1498   34.5321   19.4525 C   0  0  2  0  0  0  0  0  0  0  0  0
   28.2025   35.8497   19.7767 N   0  0  0  0  0  0  0  0  0  0  0  0
   26.5687   40.2676   22.4098 C   0  0  0  0  0  0  0  0  0  0  0  0
   28.6225   39.9224   23.7656 C   0  0  0  0  0  0  0  0  0  0  0  0
  1  2  1  0  0  0  0
  3  1  1  1  0  0  0
  3  4  1  0  0  0  0
  3  5  1  0  0  0  0
  5  6  1  1  0  0  0
  5  7  1  0  0  0  0
  7  8  1  6  0  0  0
  7  9  1  0  0  0  0
  9 27  1  0  0  0  0
 10 11  1  0  0  0  0
 11 12  2  0  0  0  0
 11 13  1  0  0  0  0
 13 14  1  0  0  0  0
 14 16  2  0  0  0  0
 15 14  1  1  0  0  0
 15 18  1  0  0  0  0
 15 26  1  0  0  0  0
 17 19  1  1  0  0  0
 17 25  1  0  0  0  0
 17 18  1  0  0  0  0
 19 20  1  0  0  0  0
 20 21  1  6  0  0  0
 20 22  1  0  0  0  0
 22 23  1  6  0  0  0
 22 24  1  0  0  0  0
 23 28  1  0  0  0  0
 23 29  1  0  0  0  0
 25 24  1  6  0  0  0
 25 27  1  0  0  0  0
 26 10  1  6  0  0  0
 26 27  1  0  0  0  0
M  END
>  <CHROM.1>
61.74096677,174.99722283,168.93366625,-141.12340540,-103.70057335,-101.61454265
27.95371506,36.31319819,19.71115097,-0.77783577,1.35286401,0.22141500

>  <Name>
ligand

>  <RI>
0

>  <Rbt.Current_Directory>
/home/itssahil/PROJECTS/Mol_Feturizer/New_Systems/rnas/3F4H

>  <Rbt.Executable>
rbdock ($Id: //depot/dev/client3/rdock/2013.1/src/exe/rbdock.cxx#4 $)

>  <Rbt.Library>
libRbt.so (2013.1, Build901 2013/11/27)

>  <Rbt.Parameter_File>
/export/apps/rDock/src/rDock_2013.1_src/data/scripts/dock_solv.prm

>  <Rbt.Receptor>
prm/pocket_docking_8.prm

>  <SCORE>
-45.8356

>  <SCORE.INTER>
-30.6915

>  <SCORE.INTER.CONST>
1

>  <SCORE.INTER.POLAR>
0

>  <SCORE.INTER.ROT>
6

>  <SCORE.INTER.SOLV>
10.3186

>  <SCORE.INTER.VDW>
-31.5005

>  <SCORE.INTER.norm>
-1.05833

>  <SCORE.INTRA>
-15.1442

>  <SCORE.INTRA.DIHEDRAL>
-0.408368

>  <SCORE.INTRA.DIHEDRAL.0>
6.83446

>  <SCORE.INTRA.POLAR>
0

>  <SCORE.INTRA.POLAR.0>
0

>  <SCORE.INTRA.REPUL>
0

>  <SCORE.INTRA.REPUL.0>
0

>  <SCORE.INTRA.SOLV>
0.0292123

>  <SCORE.INTRA.SOLV.lig_0>
-26.4601

>  <SCORE.INTRA.VDW>
-14.9546

>  <SCORE.INTRA.VDW.0>
13.7853

>  <SCORE.INTRA.norm>
-0.522212

>  <SCORE.RESTR>
0

>  <SCORE.RESTR.CAVITY>
0

>  <SCORE.RESTR.norm>
0

>  <SCORE.SYSTEM>
0

>  <SCORE.SYSTEM.CONST>
0

>  <SCORE.SYSTEM.DIHEDRAL>
0

>  <SCORE.SYSTEM.SOLV>
0

>  <SCORE.SYSTEM.norm>
0

>  <SCORE.heavy>
29

>  <SCORE.norm>
-1.58054

>  <RMSD>
1.261

$$$$
ligand
 OpenBabel11021811473D
libRbt.so/2013.1/901 2013/11/27
 29 31  0  0  0  0  0  0  0  0999 V2000
   26.9899   40.2041   17.1637 C   0  0  0  0  0  0  0  0  0  0  0  0
   27.9640   40.9945   17.8530 O   0  0  0  0  0  0  0  0  0  0  0  0
   27.6875   39.3455   16.1176 C   0  0  1  0  0  0  0  0  0  0  0  0
   28.5386   40.1814   15.3395 O   0  0  0  0  0  0  0  0  0  0  0  0
   28.4971   38.2411   16.7848 C   0  0  1  0  0  0  0  0  0  0  0  0
   29.7716   38.7880   17.1033 O   0  0  0  0  0  0  0  0  0  0  0  0
   27.8576   37.6367   18.0383 C   0  0  1  0  0  0  0  0  0  0  0  0
   27.0330   36.5403   17.6414 O   0  0  0  0  0  0  0  0  0  0  0  0
   28.8763   37.1220   19.0533 C   0  0  0  0  0  0  0  0  0  0  0  0
   28.5920   34.4385   18.2229 N   0  0  0  0  0  0  0  0  0  0  0  0
   28.4748   33.1507   17.7918 C   0  0  0  0  0  0  0  0  0  0  0  0
   28.8644   32.8271   16.6420 O   0  0  0  0  0  0  0  0  0  0  0  0
   27.9308   32.2042   18.5980 N   0  0  0  0  0  0  0  0  0  0  0  0
   27.4948   32.5178   19.8440 C   0  0  0  0  0  0  0  0  0  0  0  0
   27.6091   33.8269   20.2977 C   0  0  1  0  0  0  0  0  0  0  0  0
   26.9901   31.6388   20.5858 O   0  0  0  0  0  0  0  0  0  0  0  0
   27.2958   35.4182   21.9785 C   0  0  1  0  0  0  0  0  0  0  0  0
   27.1827   34.1482   21.5384 N   0  0  0  0  0  0  0  0  0  0  0  0
   26.8537   35.7403   23.2569 C   0  0  0  0  0  0  0  0  0  0  0  0
   26.9591   37.0399   23.7400 C   0  0  2  0  0  0  0  0  0  0  0  0
   26.4591   37.3193   25.1340 C   0  0  0  0  0  0  0  0  0  0  0  0
   27.5171   38.0382   22.9313 C   0  0  2  0  0  0  0  0  0  0  0  0
   27.6529   39.3364   23.3379 N   0  0  0  0  0  0  0  0  0  0  0  0
   27.9566   37.6991   21.6458 C   0  0  0  0  0  0  0  0  0  0  0  0
   27.8518   36.3974   21.1568 C   0  0  2  0  0  0  0  0  0  0  0  0
   28.1708   34.8029   19.4686 C   0  0  2  0  0  0  0  0  0  0  0  0
   28.2767   36.0820   19.9118 N   0  0  0  0  0  0  0  0  0  0  0  0
   28.5990   39.6661   24.3871 C   0  0  0  0  0  0  0  0  0  0  0  0
   26.8836   40.4241   22.7566 C   0  0  0  0  0  0  0  0  0  0  0  0
  1  2  1  0  0  0  0
  3  1  1  1  0  0  0
  3  4  1  0  0  0  0
  3  5  1  0  0  0  0
  5  6  1  1  0  0  0
  5  7  1  0  0  0  0
  7  8  1  6  0  0  0
  7  9  1  0  0  0  0
  9 27  1  0  0  0  0
 10 11  1  0  0  0  0
 11 12  2  0  0  0  0
 11 13  1  0  0  0  0
 13 14  1  0  0  0  0
 14 16  2  0  0  0  0
 15 14  1  1  0  0  0
 15 18  1  0  0  0  0
 15 26  1  0  0  0  0
 17 19  1  1  0  0  0
 17 25  1  0  0  0  0
 17 18  1  0  0  0  0
 19 20  1  0  0  0  0
 20 21  1  6  0  0  0
 20 22  1  0  0  0  0
 22 23  1  6  0  0  0
 22 24  1  0  0  0  0
 23 28  1  0  0  0  0
 23 29  1  0  0  0  0
 25 24  1  6  0  0  0
 25 27  1  0  0  0  0
 26 10  1  6  0  0  0
 26 27  1  0  0  0  0
M  END
>  <CHROM.1>
-50.19752804,-85.90043090,89.61286644,-155.87559607,68.60776266,-100.47617664
27.83774886,36.68320827,19.86001643,-0.43221507,1.41333918,0.10931501

>  <Name>
ligand

>  <RI>
0

>  <Rbt.Current_Directory>
/home/itssahil/PROJECTS/Mol_Feturizer/New_Systems/rnas/3F4H

>  <Rbt.Executable>
rbdock ($Id: //depot/dev/client3/rdock/2013.1/src/exe/rbdock.cxx#4 $)

>  <Rbt.Library>
libRbt.so (2013.1, Build901 2013/11/27)

>  <Rbt.Parameter_File>
/export/apps/rDock/src/rDock_2013.1_src/data/scripts/dock_solv.prm

>  <Rbt.Receptor>
prm/pocket_docking_2.prm

>  <SCORE>
-41.0045

>  <SCORE.INTER>
-29.4521

>  <SCORE.INTER.CONST>
1

>  <SCORE.INTER.POLAR>
0

>  <SCORE.INTER.ROT>
6

>  <SCORE.INTER.SOLV>
10.0279

>  <SCORE.INTER.VDW>
-30.5774

>  <SCORE.INTER.norm>
-1.01559

>  <SCORE.INTRA>
-11.5745

>  <SCORE.INTRA.DIHEDRAL>
2.13022

>  <SCORE.INTRA.DIHEDRAL.0>
6.83446

>  <SCORE.INTRA.POLAR>
0

>  <SCORE.INTRA.POLAR.0>
0

>  <SCORE.INTRA.REPUL>
0

>  <SCORE.INTRA.REPUL.0>
0

>  <SCORE.INTRA.SOLV>
0.356361

>  <SCORE.INTRA.SOLV.lig_0>
-26.4601

>  <SCORE.INTRA.VDW>
-12.8178

>  <SCORE.INTRA.VDW.0>
13.7853

>  <SCORE.INTRA.norm>
-0.399121

>  <SCORE.RESTR>
0.0220857

>  <SCORE.RESTR.CAVITY>
0.0220857

>  <SCORE.RESTR.norm>
0.000761577

>  <SCORE.SYSTEM>
0

>  <SCORE.SYSTEM.CONST>
0

>  <SCORE.SYSTEM.DIHEDRAL>
0

>  <SCORE.SYSTEM.SOLV>
0

>  <SCORE.SYSTEM.norm>
0

>  <SCORE.heavy>
29

>  <SCORE.norm>
-1.41395

>  <RMSD>
1.264

$$$$
ligand
 OpenBabel11021811473D
libRbt.so/2013.1/901 2013/11/27
 29 31  0  0  0  0  0  0  0  0999 V2000
   27.9883   41.3929   16.9263 C   0  0  0  0  0  0  0  0  0  0  0  0
   28.1037   40.8949   15.5893 O   0  0  0  0  0  0  0  0  0  0  0  0
   27.3743   40.3177   17.8124 C   0  0  1  0  0  0  0  0  0  0  0  0
   26.1178   39.9380   17.2596 O   0  0  0  0  0  0  0  0  0  0  0  0
   28.2975   39.1098   17.9063 C   0  0  1  0  0  0  0  0  0  0  0  0
   29.5033   39.5491   18.5209 O   0  0  0  0  0  0  0  0  0  0  0  0
   27.7236   37.9143   18.6725 C   0  0  1  0  0  0  0  0  0  0  0  0
   26.7242   37.2952   17.8616 O   0  0  0  0  0  0  0  0  0  0  0  0
   28.7696   36.8590   19.0257 C   0  0  0  0  0  0  0  0  0  0  0  0
   28.5451   34.1200   18.3789 N   0  0  0  0  0  0  0  0  0  0  0  0
   28.4561   32.8038   18.0356 C   0  0  0  0  0  0  0  0  0  0  0  0
   28.8377   32.4147   16.9036 O   0  0  0  0  0  0  0  0  0  0  0  0
   27.9491   31.8992   18.9112 N   0  0  0  0  0  0  0  0  0  0  0  0
   27.5226   32.2835   20.1405 C   0  0  0  0  0  0  0  0  0  0  0  0
   27.6085   33.6224   20.5049 C   0  0  1  0  0  0  0  0  0  0  0  0
   27.0521   31.4431   20.9466 O   0  0  0  0  0  0  0  0  0  0  0  0
   27.2769   35.3132   22.0819 C   0  0  1  0  0  0  0  0  0  0  0  0
   27.1915   34.0143   21.7284 N   0  0  0  0  0  0  0  0  0  0  0  0
   26.8447   35.7080   23.3432 C   0  0  0  0  0  0  0  0  0  0  0  0
   26.9224   37.0391   23.7377 C   0  0  2  0  0  0  0  0  0  0  0  0
   26.4351   37.3975   25.1181 C   0  0  0  0  0  0  0  0  0  0  0  0
   27.4420   37.9955   22.8561 C   0  0  2  0  0  0  0  0  0  0  0  0
   27.5490   39.3208   23.1740 N   0  0  0  0  0  0  0  0  0  0  0  0
   27.8720   37.5832   21.5889 C   0  0  0  0  0  0  0  0  0  0  0  0
   27.7949   36.2496   21.1886 C   0  0  2  0  0  0  0  0  0  0  0  0
   28.1322   34.5552   19.6044 C   0  0  2  0  0  0  0  0  0  0  0  0
   28.2102   35.8633   19.9605 N   0  0  0  0  0  0  0  0  0  0  0  0
   26.6092   40.2730   22.6130 C   0  0  0  0  0  0  0  0  0  0  0  0
   28.5757   39.8321   24.0669 C   0  0  0  0  0  0  0  0  0  0  0  0
  1  2  1  0  0  0  0
  3  1  1  6  0  0  0
  3  4  1  0  0  0  0
  3  5  1  0  0  0  0
  5  6  1  1  0  0  0
  5  7  1  0  0  0  0
  7  8  1  6  0  0  0
  7  9  1  0  0  0  0
  9 27  1  0  0  0  0
 10 11  1  0  0  0  0
 11 12  2  0  0  0  0
 11 13  1  0  0  0  0
 13 14  1  0  0  0  0
 14 16  2  0  0  0  0
 15 14  1  1  0  0  0
 15 18  1  0  0  0  0
 15 26  1  0  0  0  0
 17 19  1  1  0  0  0
 17 25  1  0  0  0  0
 17 18  1  0  0  0  0
 19 20  1  0  0  0  0
 20 21  1  6  0  0  0
 20 22  1  0  0  0  0
 22 23  1  6  0  0  0
 22 24  1  0  0  0  0
 23 28  1  0  0  0  0
 23 29  1  0  0  0  0
 25 24  1  6  0  0  0
 25 27  1  0  0  0  0
 26 10  1  6  0  0  0
 26 27  1  0  0  0  0
M  END
>  <CHROM.1>
-56.85289777,62.55585426,73.14942779,169.90805264,-104.40683969,-62.55936566
27.70641224,36.73181389,20.07071919,-1.63782649,-1.43556269,2.93361242

>  <Name>
ligand

>  <RI>
0

>  <Rbt.Current_Directory>
/home/itssahil/PROJECTS/Mol_Feturizer/New_Systems/rnas/3F4H

>  <Rbt.Executable>
rbdock ($Id: //depot/dev/client3/rdock/2013.1/src/exe/rbdock.cxx#4 $)

>  <Rbt.Library>
libRbt.so (2013.1, Build901 2013/11/27)

>  <Rbt.Parameter_File>
/export/apps/rDock/src/rDock_2013.1_src/data/scripts/dock_solv.prm

>  <Rbt.Receptor>
prm/pocket_docking_6.prm

>  <SCORE>
-47.5713

>  <SCORE.INTER>
-30.559

>  <SCORE.INTER.CONST>
1

>  <SCORE.INTER.POLAR>
0

>  <SCORE.INTER.ROT>
6

>  <SCORE.INTER.SOLV>
11.6718

>  <SCORE.INTER.VDW>
-31.8633

>  <SCORE.INTER.norm>
-1.05376

>  <SCORE.INTRA>
-17.0124

>  <SCORE.INTRA.DIHEDRAL>
-3.77855

>  <SCORE.INTRA.DIHEDRAL.0>
6.83446

>  <SCORE.INTRA.POLAR>
0

>  <SCORE.INTRA.POLAR.0>
0

>  <SCORE.INTRA.REPUL>
0

>  <SCORE.INTRA.REPUL.0>
0

>  <SCORE.INTRA.SOLV>
-0.0963874

>  <SCORE.INTRA.SOLV.lig_0>
-26.4601

>  <SCORE.INTRA.VDW>
-15.0749

>  <SCORE.INTRA.VDW.0>
13.7853

>  <SCORE.INTRA.norm>
-0.586633

>  <SCORE.RESTR>
0

>  <SCORE.RESTR.CAVITY>
0

>  <SCORE.RESTR.norm>
0

>  <SCORE.SYSTEM>
0

>  <SCORE.SYSTEM.CONST>
0

>  <SCORE.SYSTEM.DIHEDRAL>
0

>  <SCORE.SYSTEM.SOLV>
0

>  <SCORE.SYSTEM.norm>
0

>  <SCORE.heavy>
29

>  <SCORE.norm>
-1.64039

>  <RMSD>
1.265

$$$$
ligand
 OpenBabel11021811473D
libRbt.so/2013.1/901 2013/11/27
 29 31  0  0  0  0  0  0  0  0999 V2000
   27.9239   41.2642   16.6969 C   0  0  0  0  0  0  0  0  0  0  0  0
   29.1238   41.8597   17.2014 O   0  0  0  0  0  0  0  0  0  0  0  0
   27.3851   40.2738   17.7202 C   0  0  1  0  0  0  0  0  0  0  0  0
   26.0797   39.8712   17.3174 O   0  0  0  0  0  0  0  0  0  0  0  0
   28.3026   39.0626   17.8275 C   0  0  1  0  0  0  0  0  0  0  0  0
   29.5261   39.5113   18.3986 O   0  0  0  0  0  0  0  0  0  0  0  0
   27.7401   37.8948   18.6433 C   0  0  1  0  0  0  0  0  0  0  0  0
   26.7142   37.2613   17.8780 O   0  0  0  0  0  0  0  0  0  0  0  0
   28.7870   36.8410   18.9988 C   0  0  0  0  0  0  0  0  0  0  0  0
   28.5789   34.1010   18.3505 N   0  0  0  0  0  0  0  0  0  0  0  0
   28.4980   32.7844   18.0066 C   0  0  0  0  0  0  0  0  0  0  0  0
   28.8884   32.3971   16.8770 O   0  0  0  0  0  0  0  0  0  0  0  0
   27.9894   31.8776   18.8789 N   0  0  0  0  0  0  0  0  0  0  0  0
   27.5535   32.2599   20.1055 C   0  0  0  0  0  0  0  0  0  0  0  0
   27.6311   33.5991   20.4705 C   0  0  1  0  0  0  0  0  0  0  0  0
   27.0817   31.4174   20.9087 O   0  0  0  0  0  0  0  0  0  0  0  0
   27.2820   35.2884   22.0454 C   0  0  1  0  0  0  0  0  0  0  0  0
   27.2045   33.9891   21.6914 N   0  0  0  0  0  0  0  0  0  0  0  0
   26.8400   35.6811   23.3039 C   0  0  0  0  0  0  0  0  0  0  0  0
   26.9092   37.0126   23.6989 C   0  0  2  0  0  0  0  0  0  0  0  0
   26.4116   37.3687   25.0762 C   0  0  0  0  0  0  0  0  0  0  0  0
   27.4301   37.9713   22.8207 C   0  0  2  0  0  0  0  0  0  0  0  0
   27.5291   39.2971   23.1392 N   0  0  0  0  0  0  0  0  0  0  0  0
   27.8700   37.5610   21.5563 C   0  0  0  0  0  0  0  0  0  0  0  0
   27.8014   36.2271   21.1554 C   0  0  2  0  0  0  0  0  0  0  0  0
   28.1562   34.5343   19.5733 C   0  0  2  0  0  0  0  0  0  0  0  0
   28.2262   35.8427   19.9299 N   0  0  0  0  0  0  0  0  0  0  0  0
   28.5637   39.7416   24.0538 C   0  0  0  0  0  0  0  0  0  0  0  0
   26.6336   40.3032   22.5928 C   0  0  0  0  0  0  0  0  0  0  0  0
  1  2  1  0  0  0  0
  3  1  1  6  0  0  0
  3  4  1  0  0  0  0
  3  5  1  0  0  0  0
  5  6  1  1  0  0  0
  5  7  1  0  0  0  0
  7  8  1  6  0  0  0
  7  9  1  0  0  0  0
  9 27  1  0  0  0  0
 10 11  1  0  0  0  0
 11 12  2  0  0  0  0
 11 13  1  0  0  0  0
 13 14  1  0  0  0  0
 14 16  2  0  0  0  0
 15 14  1  1  0  0  0
 15 18  1  0  0  0  0
 15 26  1  0  0  0  0
 17 19  1  1  0  0  0
 17 25  1  0  0  0  0
 17 18  1  0  0  0  0
 19 20  1  0  0  0  0
 20 21  1  6  0  0  0
 20 22  1  0  0  0  0
 22 23  1  6  0  0  0
 22 24  1  0  0  0  0
 23 28  1  0  0  0  0
 23 29  1  0  0  0  0
 25 24  1  6  0  0  0
 25 27  1  0  0  0  0
 26 10  1  6  0  0  0
 26 27  1  0  0  0  0
M  END
>  <CHROM.1>
169.74286387,67.41114467,72.98451281,172.45813880,74.85789681,-62.33268139
27.75449079,36.74018134,20.09638317,-1.53295991,-1.40594235,3.10622481

>  <Name>
ligand

>  <RI>
0

>  <Rbt.Current_Directory>
/home/itssahil/PROJECTS/Mol_Feturizer/New_Systems/rnas/3F4H

>  <Rbt.Executable>
rbdock ($Id: //depot/dev/client3/rdock/2013.1/src/exe/rbdock.cxx#4 $)

>  <Rbt.Library>
libRbt.so (2013.1, Build901 2013/11/27)

>  <Rbt.Parameter_File>
/export/apps/rDock/src/rDock_2013.1_src/data/scripts/dock_solv.prm

>  <Rbt.Receptor>
prm/blind_docking_60.prm

>  <SCORE>
-47.2341

>  <SCORE.INTER>
-30.5144

>  <SCORE.INTER.CONST>
1

>  <SCORE.INTER.POLAR>
0

>  <SCORE.INTER.ROT>
6

>  <SCORE.INTER.SOLV>
11.7339

>  <SCORE.INTER.VDW>
-31.8542

>  <SCORE.INTER.norm>
-1.05222

>  <SCORE.INTRA>
-16.7197

>  <SCORE.INTRA.DIHEDRAL>
-3.43329

>  <SCORE.INTRA.DIHEDRAL.0>
6.83446

>  <SCORE.INTRA.POLAR>
0

>  <SCORE.INTRA.POLAR.0>
0

>  <SCORE.INTRA.REPUL>
0

>  <SCORE.INTRA.REPUL.0>
0

>  <SCORE.INTRA.SOLV>
-0.105558

>  <SCORE.INTRA.SOLV.lig_0>
-26.4601

>  <SCORE.INTRA.VDW>
-14.9503

>  <SCORE.INTRA.VDW.0>
13.7853

>  <SCORE.INTRA.norm>
-0.576541

>  <SCORE.RESTR>
0

>  <SCORE.RESTR.CAVITY>
0

>  <SCORE.RESTR.norm>
0

>  <SCORE.SYSTEM>
0

>  <SCORE.SYSTEM.CONST>
0

>  <SCORE.SYSTEM.DIHEDRAL>
0

>  <SCORE.SYSTEM.SOLV>
0

>  <SCORE.SYSTEM.norm>
0

>  <SCORE.heavy>
29

>  <SCORE.norm>
-1.62876

>  <RMSD>
1.266

$$$$
ligand
 OpenBabel11021811473D
libRbt.so/2013.1/901 2013/11/27
 29 31  0  0  0  0  0  0  0  0999 V2000
   27.9824   41.2607   16.6740 C   0  0  0  0  0  0  0  0  0  0  0  0
   29.1492   41.8717   17.2347 O   0  0  0  0  0  0  0  0  0  0  0  0
   27.4105   40.2608   17.6696 C   0  0  1  0  0  0  0  0  0  0  0  0
   26.1327   39.8380   17.2039 O   0  0  0  0  0  0  0  0  0  0  0  0
   28.3408   39.0641   17.8208 C   0  0  1  0  0  0  0  0  0  0  0  0
   29.5408   39.5378   18.4210 O   0  0  0  0  0  0  0  0  0  0  0  0
   27.7706   37.8998   18.6362 C   0  0  1  0  0  0  0  0  0  0  0  0
   26.7572   37.2584   17.8608 O   0  0  0  0  0  0  0  0  0  0  0  0
   28.8155   36.8515   19.0129 C   0  0  0  0  0  0  0  0  0  0  0  0
   28.5842   34.1159   18.3541 N   0  0  0  0  0  0  0  0  0  0  0  0
   28.4922   32.8014   18.0052 C   0  0  0  0  0  0  0  0  0  0  0  0
   28.8818   32.4146   16.8752 O   0  0  0  0  0  0  0  0  0  0  0  0
   27.9734   31.8960   18.8731 N   0  0  0  0  0  0  0  0  0  0  0  0
   27.5380   32.2778   20.1001 C   0  0  0  0  0  0  0  0  0  0  0  0
   27.6269   33.6149   20.4701 C   0  0  1  0  0  0  0  0  0  0  0  0
   27.0567   31.4367   20.8990 O   0  0  0  0  0  0  0  0  0  0  0  0
   27.2893   35.3015   22.0503 C   0  0  1  0  0  0  0  0  0  0  0  0
   27.2010   34.0044   21.6914 N   0  0  0  0  0  0  0  0  0  0  0  0
   26.8480   35.6937   23.3092 C   0  0  0  0  0  0  0  0  0  0  0  0
   26.9282   37.0230   23.7093 C   0  0  2  0  0  0  0  0  0  0  0  0
   26.4306   37.3787   25.0867 C   0  0  0  0  0  0  0  0  0  0  0  0
   27.4599   37.9802   22.8358 C   0  0  2  0  0  0  0  0  0  0  0  0
   27.5701   39.3039   23.1594 N   0  0  0  0  0  0  0  0  0  0  0  0
   27.8990   37.5705   21.5709 C   0  0  0  0  0  0  0  0  0  0  0  0
   27.8193   36.2387   21.1650 C   0  0  2  0  0  0  0  0  0  0  0  0
   28.1626   34.5486   19.5776 C   0  0  2  0  0  0  0  0  0  0  0  0
   28.2435   35.8550   19.9391 N   0  0  0  0  0  0  0  0  0  0  0  0
   26.6327   40.2608   22.6026 C   0  0  0  0  0  0  0  0  0  0  0  0
   28.5981   39.8087   24.0545 C   0  0  0  0  0  0  0  0  0  0  0  0
  1  2  1  0  0  0  0
  3  1  1  6  0  0  0
  3  4  1  0  0  0  0
  3  5  1  0  0  0  0
  5  6  1  1  0  0  0
  5  7  1  0  0  0  0
  7  8  1  6  0  0  0
  7  9  1  0  0  0  0
  9 27  1  0  0  0  0
 10 11  1  0  0  0  0
 11 12  2  0  0  0  0
 11 13  1  0  0  0  0
 13 14  1  0  0  0  0
 14 16  2  0  0  0  0
 15 14  1  1  0  0  0
 15 18  1  0  0  0  0
 15 26  1  0  0  0  0
 17 19  1  1  0  0  0
 17 25  1  0  0  0  0
 17 18  1  0  0  0  0
 19 20  1  0  0  0  0
 20 21  1  6  0  0  0
 20 22  1  0  0  0  0
 22 23  1  6  0  0  0
 22 24  1  0  0  0  0
 23 28  1  0  0  0  0
 23 29  1  0  0  0  0
 25 24  1  6  0  0  0
 25 27  1  0  0  0  0
 26 10  1  6  0  0  0
 26 27  1  0  0  0  0
M  END
>  <CHROM.1>
169.91286670,66.02419847,71.82184014,172.64455116,-103.89276688,-63.50065946
27.77111960,36.74943341,20.09397255,-1.48603386,-1.40860658,-3.13367999

>  <Name>
ligand

>  <RI>
0

>  <Rbt.Current_Directory>
/home/itssahil/PROJECTS/Mol_Feturizer/New_Systems/rnas/3F4H

>  <Rbt.Executable>
rbdock ($Id: //depot/dev/client3/rdock/2013.1/src/exe/rbdock.cxx#4 $)

>  <Rbt.Library>
libRbt.so (2013.1, Build901 2013/11/27)

>  <Rbt.Parameter_File>
/export/apps/rDock/src/rDock_2013.1_src/data/scripts/dock_solv.prm

>  <Rbt.Receptor>
prm/pocket_docking_8.prm

>  <SCORE>
-47.196

>  <SCORE.INTER>
-30.2861

>  <SCORE.INTER.CONST>
1

>  <SCORE.INTER.POLAR>
0

>  <SCORE.INTER.ROT>
6

>  <SCORE.INTER.SOLV>
11.7017

>  <SCORE.INTER.VDW>
-31.6913

>  <SCORE.INTER.norm>
-1.04435

>  <SCORE.INTRA>
-16.9099

>  <SCORE.INTRA.DIHEDRAL>
-3.61894

>  <SCORE.INTRA.DIHEDRAL.0>
6.83446

>  <SCORE.INTRA.POLAR>
0

>  <SCORE.INTRA.POLAR.0>
0

>  <SCORE.INTRA.REPUL>
0

>  <SCORE.INTRA.REPUL.0>
0

>  <SCORE.INTRA.SOLV>
-0.0987675

>  <SCORE.INTRA.SOLV.lig_0>
-26.4601

>  <SCORE.INTRA.VDW>
-15.0511

>  <SCORE.INTRA.VDW.0>
13.7853

>  <SCORE.INTRA.norm>
-0.583102

>  <SCORE.RESTR>
0

>  <SCORE.RESTR.CAVITY>
0

>  <SCORE.RESTR.norm>
0

>  <SCORE.SYSTEM>
0

>  <SCORE.SYSTEM.CONST>
0

>  <SCORE.SYSTEM.DIHEDRAL>
0

>  <SCORE.SYSTEM.SOLV>
0

>  <SCORE.SYSTEM.norm>
0

>  <SCORE.heavy>
29

>  <SCORE.norm>
-1.62745

>  <RMSD>
1.266

$$$$
ligand
 OpenBabel11021811473D
libRbt.so/2013.1/901 2013/11/27
 29 31  0  0  0  0  0  0  0  0999 V2000
   28.8412   40.3320   15.4724 C   0  0  0  0  0  0  0  0  0  0  0  0
   30.1417   40.5834   16.0148 O   0  0  0  0  0  0  0  0  0  0  0  0
   28.2668   39.0723   16.1060 C   0  0  1  0  0  0  0  0  0  0  0  0
   29.2209   38.0232   15.9743 O   0  0  0  0  0  0  0  0  0  0  0  0
   27.9434   39.3117   17.5752 C   0  0  1  0  0  0  0  0  0  0  0  0
   26.8899   40.2669   17.6236 O   0  0  0  0  0  0  0  0  0  0  0  0
   27.5522   38.0589   18.3644 C   0  0  1  0  0  0  0  0  0  0  0  0
   26.7276   37.2405   17.5338 O   0  0  0  0  0  0  0  0  0  0  0  0
   28.7498   37.2246   18.8144 C   0  0  0  0  0  0  0  0  0  0  0  0
   28.6158   34.5092   18.0531 N   0  0  0  0  0  0  0  0  0  0  0  0
   28.5674   33.2069   17.6534 C   0  0  0  0  0  0  0  0  0  0  0  0
   28.8731   32.8911   16.4764 O   0  0  0  0  0  0  0  0  0  0  0  0
   28.1831   32.2368   18.5212 N   0  0  0  0  0  0  0  0  0  0  0  0
   27.8412   32.5407   19.7985 C   0  0  0  0  0  0  0  0  0  0  0  0
   27.8870   33.8645   20.2206 C   0  0  1  0  0  0  0  0  0  0  0  0
   27.4841   31.6398   20.5975 O   0  0  0  0  0  0  0  0  0  0  0  0
   27.6000   35.4613   21.9009 C   0  0  1  0  0  0  0  0  0  0  0  0
   27.5534   34.1769   21.4917 N   0  0  0  0  0  0  0  0  0  0  0  0
   27.2544   35.7740   23.2110 C   0  0  0  0  0  0  0  0  0  0  0  0
   27.2949   37.0883   23.6633 C   0  0  2  0  0  0  0  0  0  0  0  0
   26.9063   37.3562   25.0946 C   0  0  0  0  0  0  0  0  0  0  0  0
   27.6885   38.1111   22.7910 C   0  0  2  0  0  0  0  0  0  0  0  0
   27.7521   39.4247   23.1644 N   0  0  0  0  0  0  0  0  0  0  0  0
   28.0323   37.7810   21.4744 C   0  0  0  0  0  0  0  0  0  0  0  0
   27.9920   36.4646   21.0161 C   0  0  2  0  0  0  0  0  0  0  0  0
   28.2842   34.8649   19.3280 C   0  0  2  0  0  0  0  0  0  0  0  0
   28.3232   36.1579   19.7409 N   0  0  0  0  0  0  0  0  0  0  0  0
   26.5575   40.0952   23.6417 C   0  0  0  0  0  0  0  0  0  0  0  0
   28.9828   40.1963   23.1092 C   0  0  0  0  0  0  0  0  0  0  0  0
  1  2  1  0  0  0  0
  3  1  1  1  0  0  0
  3  4  1  0  0  0  0
  3  5  1  0  0  0  0
  5  6  1  6  0  0  0
  5  7  1  0  0  0  0
  7  8  1  6  0  0  0
  7  9  1  0  0  0  0
  9 27  1  0  0  0  0
 10 11  1  0  0  0  0
 11 12  2  0  0  0  0
 11 13  1  0  0  0  0
 13 14  1  0  0  0  0
 14 16  2  0  0  0  0
 15 14  1  1  0  0  0
 15 18  1  0  0  0  0
 15 26  1  0  0  0  0
 17 19  1  1  0  0  0
 17 25  1  0  0  0  0
 17 18  1  0  0  0  0
 19 20  1  0  0  0  0
 20 21  1  6  0  0  0
 20 22  1  0  0  0  0
 22 23  1  6  0  0  0
 22 24  1  0  0  0  0
 23 28  1  0  0  0  0
 23 29  1  0  0  0  0
 25 24  1  6  0  0  0
 25 27  1  0  0  0  0
 26 10  1  6  0  0  0
 26 27  1  0  0  0  0
M  END
>  <CHROM.1>
-52.12380372,65.86350583,-39.61486640,171.14317560,-59.58602814,-74.69090970
28.01140520,36.75338798,19.71970335,0.18396295,1.39537843,0.08594988

>  <Name>
ligand

>  <RI>
0

>  <Rbt.Current_Directory>
/home/itssahil/PROJECTS/Mol_Feturizer/New_Systems/rnas/3F4H

>  <Rbt.Executable>
rbdock ($Id: //depot/dev/client3/rdock/2013.1/src/exe/rbdock.cxx#4 $)

>  <Rbt.Library>
libRbt.so (2013.1, Build901 2013/11/27)

>  <Rbt.Parameter_File>
/export/apps/rDock/src/rDock_2013.1_src/data/scripts/dock_solv.prm

>  <Rbt.Receptor>
prm/pocket_docking_2.prm

>  <SCORE>
-44.0868

>  <SCORE.INTER>
-28.6967

>  <SCORE.INTER.CONST>
1

>  <SCORE.INTER.POLAR>
0

>  <SCORE.INTER.ROT>
6

>  <SCORE.INTER.SOLV>
10.7691

>  <SCORE.INTER.VDW>
-30.3208

>  <SCORE.INTER.norm>
-0.989541

>  <SCORE.INTRA>
-15.4279

>  <SCORE.INTRA.DIHEDRAL>
-2.77376

>  <SCORE.INTRA.DIHEDRAL.0>
6.83446

>  <SCORE.INTRA.POLAR>
0

>  <SCORE.INTRA.POLAR.0>
0

>  <SCORE.INTRA.REPUL>
0

>  <SCORE.INTRA.REPUL.0>
0

>  <SCORE.INTRA.SOLV>
0.135584

>  <SCORE.INTRA.SOLV.lig_0>
-26.4601

>  <SCORE.INTRA.VDW>
-14.1088

>  <SCORE.INTRA.VDW.0>
13.7853

>  <SCORE.INTRA.norm>
-0.531997

>  <SCORE.RESTR>
0.0377839

>  <SCORE.RESTR.CAVITY>
0.0377839

>  <SCORE.RESTR.norm>
0.00130289

>  <SCORE.SYSTEM>
0

>  <SCORE.SYSTEM.CONST>
0

>  <SCORE.SYSTEM.DIHEDRAL>
0

>  <SCORE.SYSTEM.SOLV>
0

>  <SCORE.SYSTEM.norm>
0

>  <SCORE.heavy>
29

>  <SCORE.norm>
-1.52023

>  <RMSD>
1.267

$$$$
ligand
 OpenBabel11021811473D
libRbt.so/2013.1/901 2013/11/27
 29 31  0  0  0  0  0  0  0  0999 V2000
   29.1297   40.6763   16.4477 C   0  0  0  0  0  0  0  0  0  0  0  0
   30.0910   40.7872   15.3930 O   0  0  0  0  0  0  0  0  0  0  0  0
   28.8705   39.2046   16.7394 C   0  0  1  0  0  0  0  0  0  0  0  0
   30.0945   38.6009   17.1466 O   0  0  0  0  0  0  0  0  0  0  0  0
   27.8174   39.0523   17.8295 C   0  0  1  0  0  0  0  0  0  0  0  0
   26.6389   39.7035   17.3693 O   0  0  0  0  0  0  0  0  0  0  0  0
   27.4983   37.6073   18.2239 C   0  0  1  0  0  0  0  0  0  0  0  0
   27.1709   36.8775   17.0407 O   0  0  0  0  0  0  0  0  0  0  0  0
   28.6589   36.8949   18.9156 C   0  0  0  0  0  0  0  0  0  0  0  0
   28.5228   34.1424   18.3023 N   0  0  0  0  0  0  0  0  0  0  0  0
   28.4755   32.8201   17.9748 C   0  0  0  0  0  0  0  0  0  0  0  0
   28.8469   32.4327   16.8388 O   0  0  0  0  0  0  0  0  0  0  0  0
   28.0215   31.9072   18.8706 N   0  0  0  0  0  0  0  0  0  0  0  0
   27.6075   32.2892   20.1049 C   0  0  0  0  0  0  0  0  0  0  0  0
   27.6513   33.6343   20.4534 C   0  0  1  0  0  0  0  0  0  0  0  0
   27.1861   31.4410   20.9298 O   0  0  0  0  0  0  0  0  0  0  0  0
   27.2909   35.3292   22.0196 C   0  0  1  0  0  0  0  0  0  0  0  0
   27.2463   34.0242   21.6816 N   0  0  0  0  0  0  0  0  0  0  0  0
   26.8715   35.7218   23.2859 C   0  0  0  0  0  0  0  0  0  0  0  0
   26.9079   37.0593   23.6647 C   0  0  2  0  0  0  0  0  0  0  0  0
   26.4374   37.4148   25.0517 C   0  0  0  0  0  0  0  0  0  0  0  0
   27.3725   38.0243   22.7621 C   0  0  2  0  0  0  0  0  0  0  0  0
   27.4368   39.3562   23.0638 N   0  0  0  0  0  0  0  0  0  0  0  0
   27.7902   37.6140   21.4902 C   0  0  0  0  0  0  0  0  0  0  0  0
   27.7543   36.2741   21.1055 C   0  0  2  0  0  0  0  0  0  0  0  0
   28.1203   34.5758   19.5320 C   0  0  2  0  0  0  0  0  0  0  0  0
   28.1572   35.8897   19.8727 N   0  0  0  0  0  0  0  0  0  0  0  0
   28.5062   39.8510   23.9099 C   0  0  0  0  0  0  0  0  0  0  0  0
   26.4696   40.3200   22.5654 C   0  0  0  0  0  0  0  0  0  0  0  0
  1  2  1  0  0  0  0
  3  1  1  1  0  0  0
  3  4  1  0  0  0  0
  3  5  1  0  0  0  0
  5  6  1  6  0  0  0
  5  7  1  0  0  0  0
  7  8  1  6  0  0  0
  7  9  1  0  0  0  0
  9 27  1  0  0  0  0
 10 11  1  0  0  0  0
 11 12  2  0  0  0  0
 11 13  1  0  0  0  0
 13 14  1  0  0  0  0
 14 16  2  0  0  0  0
 15 14  1  1  0  0  0
 15 18  1  0  0  0  0
 15 26  1  0  0  0  0
 17 19  1  1  0  0  0
 17 25  1  0  0  0  0
 17 18  1  0  0  0  0
 19 20  1  0  0  0  0
 20 21  1  6  0  0  0
 20 22  1  0  0  0  0
 22 23  1  6  0  0  0
 22 24  1  0  0  0  0
 23 28  1  0  0  0  0
 23 29  1  0  0  0  0
 25 24  1  6  0  0  0
 25 27  1  0  0  0  0
 26 10  1  6  0  0  0
 26 27  1  0  0  0  0
M  END
>  <CHROM.1>
60.63209865,58.51590834,-53.02698870,149.55611114,76.80425881,-81.33284561
27.90590186,36.60401087,19.85909284,-0.97112797,-1.32163074,-2.99150567

>  <Name>
ligand

>  <RI>
0

>  <Rbt.Current_Directory>
/home/itssahil/PROJECTS/Mol_Feturizer/New_Systems/rnas/3F4H

>  <Rbt.Executable>
rbdock ($Id: //depot/dev/client3/rdock/2013.1/src/exe/rbdock.cxx#4 $)

>  <Rbt.Library>
libRbt.so (2013.1, Build901 2013/11/27)

>  <Rbt.Parameter_File>
/export/apps/rDock/src/rDock_2013.1_src/data/scripts/dock_solv.prm

>  <Rbt.Receptor>
prm/blind_docking_60.prm

>  <SCORE>
-47.7886

>  <SCORE.INTER>
-31.5657

>  <SCORE.INTER.CONST>
1

>  <SCORE.INTER.POLAR>
0

>  <SCORE.INTER.ROT>
6

>  <SCORE.INTER.SOLV>
11.6675

>  <SCORE.INTER.VDW>
-32.533

>  <SCORE.INTER.norm>
-1.08847

>  <SCORE.INTRA>
-16.2229

>  <SCORE.INTRA.DIHEDRAL>
-1.89022

>  <SCORE.INTRA.DIHEDRAL.0>
6.83446

>  <SCORE.INTRA.POLAR>
0

>  <SCORE.INTRA.POLAR.0>
0

>  <SCORE.INTRA.REPUL>
0

>  <SCORE.INTRA.REPUL.0>
0

>  <SCORE.INTRA.SOLV>
-0.269564

>  <SCORE.INTRA.SOLV.lig_0>
-26.4601

>  <SCORE.INTRA.VDW>
-15.143

>  <SCORE.INTRA.VDW.0>
13.7853

>  <SCORE.INTRA.norm>
-0.559411

>  <SCORE.RESTR>
0

>  <SCORE.RESTR.CAVITY>
0

>  <SCORE.RESTR.norm>
0

>  <SCORE.SYSTEM>
0

>  <SCORE.SYSTEM.CONST>
0

>  <SCORE.SYSTEM.DIHEDRAL>
0

>  <SCORE.SYSTEM.SOLV>
0

>  <SCORE.SYSTEM.norm>
0

>  <SCORE.heavy>
29

>  <SCORE.norm>
-1.64788

>  <RMSD>
1.269

$$$$
ligand
 OpenBabel11021811473D
libRbt.so/2013.1/901 2013/11/27
 29 31  0  0  0  0  0  0  0  0999 V2000
   28.2812   39.9006   18.2691 C   0  0  0  0  0  0  0  0  0  0  0  0
   27.9581   41.0893   18.9983 O   0  0  0  0  0  0  0  0  0  0  0  0
   27.2116   39.6509   17.2148 C   0  0  1  0  0  0  0  0  0  0  0  0
   27.2220   40.7362   16.2927 O   0  0  0  0  0  0  0  0  0  0  0  0
   27.4721   38.3374   16.4886 C   0  0  1  0  0  0  0  0  0  0  0  0
   28.7912   38.4041   15.9592 O   0  0  0  0  0  0  0  0  0  0  0  0
   27.3151   37.0800   17.3488 C   0  0  1  0  0  0  0  0  0  0  0  0
   27.1269   35.9603   16.4825 O   0  0  0  0  0  0  0  0  0  0  0  0
   28.5246   36.7955   18.2370 C   0  0  0  0  0  0  0  0  0  0  0  0
   28.4243   34.0177   17.7420 N   0  0  0  0  0  0  0  0  0  0  0  0
   28.3901   32.6826   17.4693 C   0  0  0  0  0  0  0  0  0  0  0  0
   28.6360   32.2637   16.3106 O   0  0  0  0  0  0  0  0  0  0  0  0
   28.0847   31.7907   18.4456 N   0  0  0  0  0  0  0  0  0  0  0  0
   27.8088   32.2065   19.7072 C   0  0  0  0  0  0  0  0  0  0  0  0
   27.8412   33.5651   20.0003 C   0  0  1  0  0  0  0  0  0  0  0  0
   27.5246   31.3775   20.6069 O   0  0  0  0  0  0  0  0  0  0  0  0
   27.6066   35.3072   21.5384 C   0  0  1  0  0  0  0  0  0  0  0  0
   27.5731   33.9890   21.2545 N   0  0  0  0  0  0  0  0  0  0  0  0
   27.3287   35.7347   22.8321 C   0  0  0  0  0  0  0  0  0  0  0  0
   27.3578   37.0866   23.1565 C   0  0  2  0  0  0  0  0  0  0  0  0
   27.0453   37.4801   24.5773 C   0  0  0  0  0  0  0  0  0  0  0  0
   27.6708   38.0307   22.1703 C   0  0  2  0  0  0  0  0  0  0  0  0
   27.7183   39.3750   22.4149 N   0  0  0  0  0  0  0  0  0  0  0  0
   27.9469   37.5852   20.8719 C   0  0  0  0  0  0  0  0  0  0  0  0
   27.9178   36.2307   20.5418 C   0  0  2  0  0  0  0  0  0  0  0  0
   28.1572   34.4852   18.9958 C   0  0  2  0  0  0  0  0  0  0  0  0
   28.1830   35.8121   19.2831 N   0  0  0  0  0  0  0  0  0  0  0  0
   26.6135   40.2203   22.0034 C   0  0  0  0  0  0  0  0  0  0  0  0
   28.8417   40.0105   23.0835 C   0  0  0  0  0  0  0  0  0  0  0  0
  1  2  1  0  0  0  0
  3  1  1  1  0  0  0
  3  4  1  0  0  0  0
  3  5  1  0  0  0  0
  5  6  1  1  0  0  0
  5  7  1  0  0  0  0
  7  8  1  6  0  0  0
  7  9  1  0  0  0  0
  9 27  1  0  0  0  0
 10 11  1  0  0  0  0
 11 12  2  0  0  0  0
 11 13  1  0  0  0  0
 13 14  1  0  0  0  0
 14 16  2  0  0  0  0
 15 14  1  1  0  0  0
 15 18  1  0  0  0  0
 15 26  1  0  0  0  0
 17 19  1  1  0  0  0
 17 25  1  0  0  0  0
 17 18  1  0  0  0  0
 19 20  1  0  0  0  0
 20 21  1  6  0  0  0
 20 22  1  0  0  0  0
 22 23  1  6  0  0  0
 22 24  1  0  0  0  0
 23 28  1  0  0  0  0
 23 29  1  0  0  0  0
 25 24  1  6  0  0  0
 25 27  1  0  0  0  0
 26 10  1  6  0  0  0
 26 27  1  0  0  0  0
M  END
>  <CHROM.1>
62.98103218,-55.61352084,160.20367897,164.82943879,-102.07191572,-100.81095315
27.81649460,36.52675792,19.52214412,-2.31908773,-1.49754552,2.63268448

>  <Name>
ligand

>  <RI>
0

>  <Rbt.Current_Directory>
/home/itssahil/PROJECTS/Mol_Feturizer/New_Systems/rnas/3F4H

>  <Rbt.Executable>
rbdock ($Id: //depot/dev/client3/rdock/2013.1/src/exe/rbdock.cxx#4 $)

>  <Rbt.Library>
libRbt.so (2013.1, Build901 2013/11/27)

>  <Rbt.Parameter_File>
/export/apps/rDock/src/rDock_2013.1_src/data/scripts/dock_solv.prm

>  <Rbt.Receptor>
prm/pocket_docking_2.prm

>  <SCORE>
-44.1714

>  <SCORE.INTER>
-28.058

>  <SCORE.INTER.CONST>
1

>  <SCORE.INTER.POLAR>
0

>  <SCORE.INTER.ROT>
6

>  <SCORE.INTER.SOLV>
9.75655

>  <SCORE.INTER.VDW>
-29.5575

>  <SCORE.INTER.norm>
-0.967518

>  <SCORE.INTRA>
-16.3178

>  <SCORE.INTRA.DIHEDRAL>
-2.54611

>  <SCORE.INTRA.DIHEDRAL.0>
6.83446

>  <SCORE.INTRA.POLAR>
0

>  <SCORE.INTRA.POLAR.0>
0

>  <SCORE.INTRA.REPUL>
0

>  <SCORE.INTRA.REPUL.0>
0

>  <SCORE.INTRA.SOLV>
0.169324

>  <SCORE.INTRA.SOLV.lig_0>
-26.4601

>  <SCORE.INTRA.VDW>
-15.1294

>  <SCORE.INTRA.VDW.0>
13.7853

>  <SCORE.INTRA.norm>
-0.562681

>  <SCORE.RESTR>
0.204385

>  <SCORE.RESTR.CAVITY>
0.204385

>  <SCORE.RESTR.norm>
0.00704775

>  <SCORE.SYSTEM>
0

>  <SCORE.SYSTEM.CONST>
0

>  <SCORE.SYSTEM.DIHEDRAL>
0

>  <SCORE.SYSTEM.SOLV>
0

>  <SCORE.SYSTEM.norm>
0

>  <SCORE.heavy>
29

>  <SCORE.norm>
-1.52315

>  <RMSD>
1.270

$$$$
ligand
 OpenBabel11021811473D
libRbt.so/2013.1/901 2013/11/27
 29 31  0  0  0  0  0  0  0  0999 V2000
   27.9792   41.4195   17.0268 C   0  0  0  0  0  0  0  0  0  0  0  0
   28.3275   40.9674   15.7141 O   0  0  0  0  0  0  0  0  0  0  0  0
   27.3288   40.2779   17.7961 C   0  0  1  0  0  0  0  0  0  0  0  0
   26.1707   39.8534   17.0840 O   0  0  0  0  0  0  0  0  0  0  0  0
   28.3036   39.1187   17.9595 C   0  0  1  0  0  0  0  0  0  0  0  0
   29.4071   39.6011   18.7173 O   0  0  0  0  0  0  0  0  0  0  0  0
   27.7178   37.8690   18.6232 C   0  0  1  0  0  0  0  0  0  0  0  0
   26.7956   37.2650   17.7152 O   0  0  0  0  0  0  0  0  0  0  0  0
   28.7709   36.8268   18.9942 C   0  0  0  0  0  0  0  0  0  0  0  0
   28.5421   34.0872   18.3512 N   0  0  0  0  0  0  0  0  0  0  0  0
   28.4510   32.7707   18.0097 C   0  0  0  0  0  0  0  0  0  0  0  0
   28.8296   32.3798   16.8773 O   0  0  0  0  0  0  0  0  0  0  0  0
   27.9451   31.8677   18.8876 N   0  0  0  0  0  0  0  0  0  0  0  0
   27.5219   32.2539   20.1175 C   0  0  0  0  0  0  0  0  0  0  0  0
   27.6100   33.5932   20.4800 C   0  0  1  0  0  0  0  0  0  0  0  0
   27.0524   31.4150   20.9257 O   0  0  0  0  0  0  0  0  0  0  0  0
   27.2838   35.2862   22.0557 C   0  0  1  0  0  0  0  0  0  0  0  0
   27.1962   33.9870   21.7040 N   0  0  0  0  0  0  0  0  0  0  0  0
   26.8549   35.6830   23.3175 C   0  0  0  0  0  0  0  0  0  0  0  0
   26.9348   37.0145   23.7102 C   0  0  2  0  0  0  0  0  0  0  0  0
   26.4511   37.3751   25.0913 C   0  0  0  0  0  0  0  0  0  0  0  0
   27.4534   37.9693   22.8262 C   0  0  2  0  0  0  0  0  0  0  0  0
   27.5624   39.2949   23.1422 N   0  0  0  0  0  0  0  0  0  0  0  0
   27.8800   37.5550   21.5586 C   0  0  0  0  0  0  0  0  0  0  0  0
   27.8006   36.2210   21.1601 C   0  0  2  0  0  0  0  0  0  0  0  0
   28.1325   34.5244   19.5771 C   0  0  2  0  0  0  0  0  0  0  0  0
   28.2127   35.8328   19.9315 N   0  0  0  0  0  0  0  0  0  0  0  0
   26.6291   40.2488   22.5735 C   0  0  0  0  0  0  0  0  0  0  0  0
   28.5851   39.8047   24.0406 C   0  0  0  0  0  0  0  0  0  0  0  0
  1  2  1  0  0  0  0
  3  1  1  6  0  0  0
  3  4  1  0  0  0  0
  3  5  1  0  0  0  0
  5  6  1  1  0  0  0
  5  7  1  0  0  0  0
  7  8  1  6  0  0  0
  7  9  1  0  0  0  0
  9 27  1  0  0  0  0
 10 11  1  0  0  0  0
 11 12  2  0  0  0  0
 11 13  1  0  0  0  0
 13 14  1  0  0  0  0
 14 16  2  0  0  0  0
 15 14  1  1  0  0  0
 15 18  1  0  0  0  0
 15 26  1  0  0  0  0
 17 19  1  1  0  0  0
 17 25  1  0  0  0  0
 17 18  1  0  0  0  0
 19 20  1  0  0  0  0
 20 21  1  6  0  0  0
 20 22  1  0  0  0  0
 22 23  1  6  0  0  0
 22 24  1  0  0  0  0
 23 28  1  0  0  0  0
 23 29  1  0  0  0  0
 25 24  1  6  0  0  0
 25 27  1  0  0  0  0
 26 10  1  6  0  0  0
 26 27  1  0  0  0  0
M  END
>  <CHROM.1>
-59.06976239,61.97659540,70.04682474,164.98094836,-104.91517970,-63.54235386
27.71817134,36.71048423,20.05439108,-1.60854989,-1.43736114,2.98026207

>  <Name>
ligand

>  <RI>
0

>  <Rbt.Current_Directory>
/home/itssahil/PROJECTS/Mol_Feturizer/New_Systems/rnas/3F4H

>  <Rbt.Executable>
rbdock ($Id: //depot/dev/client3/rdock/2013.1/src/exe/rbdock.cxx#4 $)

>  <Rbt.Library>
libRbt.so (2013.1, Build901 2013/11/27)

>  <Rbt.Parameter_File>
/export/apps/rDock/src/rDock_2013.1_src/data/scripts/dock_solv.prm

>  <Rbt.Receptor>
prm/pocket_docking_8.prm

>  <SCORE>
-47.4919

>  <SCORE.INTER>
-30.4816

>  <SCORE.INTER.CONST>
1

>  <SCORE.INTER.POLAR>
0

>  <SCORE.INTER.ROT>
6

>  <SCORE.INTER.SOLV>
11.4128

>  <SCORE.INTER.VDW>
-31.7253

>  <SCORE.INTER.norm>
-1.05109

>  <SCORE.INTRA>
-17.0103

>  <SCORE.INTRA.DIHEDRAL>
-3.6507

>  <SCORE.INTRA.DIHEDRAL.0>
6.83446

>  <SCORE.INTRA.POLAR>
0

>  <SCORE.INTRA.POLAR.0>
0

>  <SCORE.INTRA.REPUL>
0

>  <SCORE.INTRA.REPUL.0>
0

>  <SCORE.INTRA.SOLV>
-0.0785034

>  <SCORE.INTRA.SOLV.lig_0>
-26.4601

>  <SCORE.INTRA.VDW>
-15.1457

>  <SCORE.INTRA.VDW.0>
13.7853

>  <SCORE.INTRA.norm>
-0.586562

>  <SCORE.RESTR>
0

>  <SCORE.RESTR.CAVITY>
0

>  <SCORE.RESTR.norm>
0

>  <SCORE.SYSTEM>
0

>  <SCORE.SYSTEM.CONST>
0

>  <SCORE.SYSTEM.DIHEDRAL>
0

>  <SCORE.SYSTEM.SOLV>
0

>  <SCORE.SYSTEM.norm>
0

>  <SCORE.heavy>
29

>  <SCORE.norm>
-1.63765

>  <RMSD>
1.272

$$$$
ligand
 OpenBabel11021811473D
libRbt.so/2013.1/901 2013/11/27
 29 31  0  0  0  0  0  0  0  0999 V2000
   28.0341   41.3664   16.9075 C   0  0  0  0  0  0  0  0  0  0  0  0
   28.3253   40.8507   15.6043 O   0  0  0  0  0  0  0  0  0  0  0  0
   27.3827   40.2754   17.7462 C   0  0  1  0  0  0  0  0  0  0  0  0
   26.1831   39.8620   17.0994 O   0  0  0  0  0  0  0  0  0  0  0  0
   28.3279   39.0927   17.9137 C   0  0  1  0  0  0  0  0  0  0  0  0
   29.4806   39.5694   18.5984 O   0  0  0  0  0  0  0  0  0  0  0  0
   27.7361   37.8912   18.6565 C   0  0  1  0  0  0  0  0  0  0  0  0
   26.7629   37.2731   17.8136 O   0  0  0  0  0  0  0  0  0  0  0  0
   28.7752   36.8375   19.0344 C   0  0  0  0  0  0  0  0  0  0  0  0
   28.5281   34.0971   18.4014 N   0  0  0  0  0  0  0  0  0  0  0  0
   28.4284   32.7800   18.0649 C   0  0  0  0  0  0  0  0  0  0  0  0
   28.8124   32.3810   16.9371 O   0  0  0  0  0  0  0  0  0  0  0  0
   27.9080   31.8852   18.9426 N   0  0  0  0  0  0  0  0  0  0  0  0
   27.4785   32.2803   20.1675 C   0  0  0  0  0  0  0  0  0  0  0  0
   27.5753   33.6203   20.5250 C   0  0  1  0  0  0  0  0  0  0  0  0
   26.9957   31.4489   20.9756 O   0  0  0  0  0  0  0  0  0  0  0  0
   27.2513   35.3229   22.0908 C   0  0  1  0  0  0  0  0  0  0  0  0
   27.1553   34.0230   21.7440 N   0  0  0  0  0  0  0  0  0  0  0  0
   26.8160   35.7288   23.3475 C   0  0  0  0  0  0  0  0  0  0  0  0
   26.9042   37.0613   23.7351 C   0  0  2  0  0  0  0  0  0  0  0  0
   26.4128   37.4320   25.1108 C   0  0  0  0  0  0  0  0  0  0  0  0
   27.4377   38.0077   22.8511 C   0  0  2  0  0  0  0  0  0  0  0  0
   27.5556   39.3338   23.1623 N   0  0  0  0  0  0  0  0  0  0  0  0
   27.8706   37.5843   21.5887 C   0  0  0  0  0  0  0  0  0  0  0  0
   27.7830   36.2494   21.1952 C   0  0  2  0  0  0  0  0  0  0  0  0
   28.1126   34.5431   19.6222 C   0  0  2  0  0  0  0  0  0  0  0  0
   28.2013   35.8523   19.9716 N   0  0  0  0  0  0  0  0  0  0  0  0
   26.6249   40.2910   22.5949 C   0  0  0  0  0  0  0  0  0  0  0  0
   28.5853   39.8408   24.0542 C   0  0  0  0  0  0  0  0  0  0  0  0
  1  2  1  0  0  0  0
  3  1  1  6  0  0  0
  3  4  1  0  0  0  0
  3  5  1  0  0  0  0
  5  6  1  1  0  0  0
  5  7  1  0  0  0  0
  7  8  1  6  0  0  0
  7  9  1  0  0  0  0
  9 27  1  0  0  0  0
 10 11  1  0  0  0  0
 11 12  2  0  0  0  0
 11 13  1  0  0  0  0
 13 14  1  0  0  0  0
 14 16  2  0  0  0  0
 15 14  1  1  0  0  0
 15 18  1  0  0  0  0
 15 26  1  0  0  0  0
 17 19  1  1  0  0  0
 17 25  1  0  0  0  0
 17 18  1  0  0  0  0
 19 20  1  0  0  0  0
 20 21  1  6  0  0  0
 20 22  1  0  0  0  0
 22 23  1  6  0  0  0
 22 24  1  0  0  0  0
 23 28  1  0  0  0  0
 23 29  1  0  0  0  0
 25 24  1  6  0  0  0
 25 27  1  0  0  0  0
 26 10  1  6  0  0  0
 26 27  1  0  0  0  0
M  END
>  <CHROM.1>
-59.66833056,61.59948758,70.59913477,168.61108990,-104.17712539,-63.24121966
27.70902012,36.72355005,20.06997210,-1.53771010,-1.43182223,3.02434559

>  <Name>
ligand

>  <RI>
0

>  <Rbt.Current_Directory>
/home/itssahil/PROJECTS/Mol_Feturizer/New_Systems/rnas/3F4H

>  <Rbt.Executable>
rbdock ($Id: //depot/dev/client3/rdock/2013.1/src/exe/rbdock.cxx#4 $)

>  <Rbt.Library>
libRbt.so (2013.1, Build901 2013/11/27)

>  <Rbt.Parameter_File>
/export/apps/rDock/src/rDock_2013.1_src/data/scripts/dock_solv.prm

>  <Rbt.Receptor>
prm/blind_docking_60.prm

>  <SCORE>
-47.5638

>  <SCORE.INTER>
-30.4318

>  <SCORE.INTER.CONST>
1

>  <SCORE.INTER.POLAR>
0

>  <SCORE.INTER.ROT>
6

>  <SCORE.INTER.SOLV>
11.6253

>  <SCORE.INTER.VDW>
-31.763

>  <SCORE.INTER.norm>
-1.04937

>  <SCORE.INTRA>
-17.132

>  <SCORE.INTRA.DIHEDRAL>
-3.93883

>  <SCORE.INTRA.DIHEDRAL.0>
6.83446

>  <SCORE.INTRA.POLAR>
0

>  <SCORE.INTRA.POLAR.0>
0

>  <SCORE.INTRA.REPUL>
0

>  <SCORE.INTRA.REPUL.0>
0

>  <SCORE.INTRA.SOLV>
-0.0779612

>  <SCORE.INTRA.SOLV.lig_0>
-26.4601

>  <SCORE.INTRA.VDW>
-15.1236

>  <SCORE.INTRA.VDW.0>
13.7853

>  <SCORE.INTRA.norm>
-0.590759

>  <SCORE.RESTR>
0

>  <SCORE.RESTR.CAVITY>
0

>  <SCORE.RESTR.norm>
0

>  <SCORE.SYSTEM>
0

>  <SCORE.SYSTEM.CONST>
0

>  <SCORE.SYSTEM.DIHEDRAL>
0

>  <SCORE.SYSTEM.SOLV>
0

>  <SCORE.SYSTEM.norm>
0

>  <SCORE.heavy>
29

>  <SCORE.norm>
-1.64013

>  <RMSD>
1.275

$$$$
ligand
 OpenBabel11021811473D
libRbt.so/2013.1/901 2013/11/27
 29 31  0  0  0  0  0  0  0  0999 V2000
   27.9561   41.2619   16.7189 C   0  0  0  0  0  0  0  0  0  0  0  0
   29.1427   41.8600   17.2512 O   0  0  0  0  0  0  0  0  0  0  0  0
   27.4021   40.2621   17.7246 C   0  0  1  0  0  0  0  0  0  0  0  0
   26.1124   39.8459   17.2864 O   0  0  0  0  0  0  0  0  0  0  0  0
   28.3303   39.0610   17.8524 C   0  0  1  0  0  0  0  0  0  0  0  0
   29.5242   39.5171   18.4779 O   0  0  0  0  0  0  0  0  0  0  0  0
   27.7511   37.8751   18.6293 C   0  0  1  0  0  0  0  0  0  0  0  0
   26.7494   37.2527   17.8238 O   0  0  0  0  0  0  0  0  0  0  0  0
   28.7927   36.8187   18.9927 C   0  0  0  0  0  0  0  0  0  0  0  0
   28.5757   34.0749   18.3637 N   0  0  0  0  0  0  0  0  0  0  0  0
   28.4906   32.7562   18.0292 C   0  0  0  0  0  0  0  0  0  0  0  0
   28.8819   32.3593   16.9032 O   0  0  0  0  0  0  0  0  0  0  0  0
   27.9770   31.8576   18.9070 N   0  0  0  0  0  0  0  0  0  0  0  0
   27.5400   32.2503   20.1300 C   0  0  0  0  0  0  0  0  0  0  0  0
   27.6219   33.5919   20.4854 C   0  0  1  0  0  0  0  0  0  0  0  0
   27.0635   31.4154   20.9382 O   0  0  0  0  0  0  0  0  0  0  0  0
   27.2758   35.2937   22.0473 C   0  0  1  0  0  0  0  0  0  0  0  0
   27.1943   33.9922   21.7026 N   0  0  0  0  0  0  0  0  0  0  0  0
   26.8329   35.6971   23.3021 C   0  0  0  0  0  0  0  0  0  0  0  0
   26.9061   37.0311   23.6877 C   0  0  2  0  0  0  0  0  0  0  0  0
   26.4071   37.3990   25.0614 C   0  0  0  0  0  0  0  0  0  0  0  0
   27.4324   37.9816   22.8036 C   0  0  2  0  0  0  0  0  0  0  0  0
   27.5356   39.3093   23.1128 N   0  0  0  0  0  0  0  0  0  0  0  0
   27.8732   37.5605   21.5431 C   0  0  0  0  0  0  0  0  0  0  0  0
   27.8005   36.2240   21.1517 C   0  0  2  0  0  0  0  0  0  0  0  0
   28.1522   34.5186   19.5826 C   0  0  2  0  0  0  0  0  0  0  0  0
   28.2263   35.8293   19.9299 N   0  0  0  0  0  0  0  0  0  0  0  0
   26.6092   40.2586   22.5254 C   0  0  0  0  0  0  0  0  0  0  0  0
   28.5453   39.8258   24.0220 C   0  0  0  0  0  0  0  0  0  0  0  0
  1  2  1  0  0  0  0
  3  1  1  6  0  0  0
  3  4  1  0  0  0  0
  3  5  1  0  0  0  0
  5  6  1  1  0  0  0
  5  7  1  0  0  0  0
  7  8  1  6  0  0  0
  7  9  1  0  0  0  0
  9 27  1  0  0  0  0
 10 11  1  0  0  0  0
 11 12  2  0  0  0  0
 11 13  1  0  0  0  0
 13 14  1  0  0  0  0
 14 16  2  0  0  0  0
 15 14  1  1  0  0  0
 15 18  1  0  0  0  0
 15 26  1  0  0  0  0
 17 19  1  1  0  0  0
 17 25  1  0  0  0  0
 17 18  1  0  0  0  0
 19 20  1  0  0  0  0
 20 21  1  6  0  0  0
 20 22  1  0  0  0  0
 22 23  1  6  0  0  0
 22 24  1  0  0  0  0
 23 28  1  0  0  0  0
 23 29  1  0  0  0  0
 25 24  1  6  0  0  0
 25 27  1  0  0  0  0
 26 10  1  6  0  0  0
 26 27  1  0  0  0  0
M  END
>  <CHROM.1>
170.29689110,68.39930598,72.05355935,170.25576067,-105.09778221,-62.24032706
27.75621700,36.73619166,20.09883748,-1.51820587,-1.40346769,3.12597226

>  <Name>
ligand

>  <RI>
0

>  <Rbt.Current_Directory>
/home/itssahil/PROJECTS/Mol_Feturizer/New_Systems/rnas/3F4H

>  <Rbt.Executable>
rbdock ($Id: //depot/dev/client3/rdock/2013.1/src/exe/rbdock.cxx#4 $)

>  <Rbt.Library>
libRbt.so (2013.1, Build901 2013/11/27)

>  <Rbt.Parameter_File>
/export/apps/rDock/src/rDock_2013.1_src/data/scripts/dock_solv.prm

>  <Rbt.Receptor>
prm/pocket_docking_7.prm

>  <SCORE>
-47.3259

>  <SCORE.INTER>
-30.5715

>  <SCORE.INTER.CONST>
1

>  <SCORE.INTER.POLAR>
0

>  <SCORE.INTER.ROT>
6

>  <SCORE.INTER.SOLV>
11.7735

>  <SCORE.INTER.VDW>
-31.9055

>  <SCORE.INTER.norm>
-1.05419

>  <SCORE.INTRA>
-16.7544

>  <SCORE.INTRA.DIHEDRAL>
-3.36206

>  <SCORE.INTRA.DIHEDRAL.0>
6.83446

>  <SCORE.INTRA.POLAR>
0

>  <SCORE.INTRA.POLAR.0>
0

>  <SCORE.INTRA.REPUL>
0

>  <SCORE.INTRA.REPUL.0>
0

>  <SCORE.INTRA.SOLV>
-0.107224

>  <SCORE.INTRA.SOLV.lig_0>
-26.4601

>  <SCORE.INTRA.VDW>
-15.0198

>  <SCORE.INTRA.VDW.0>
13.7853

>  <SCORE.INTRA.norm>
-0.577739

>  <SCORE.RESTR>
0

>  <SCORE.RESTR.CAVITY>
0

>  <SCORE.RESTR.norm>
0

>  <SCORE.SYSTEM>
0

>  <SCORE.SYSTEM.CONST>
0

>  <SCORE.SYSTEM.DIHEDRAL>
0

>  <SCORE.SYSTEM.SOLV>
0

>  <SCORE.SYSTEM.norm>
0

>  <SCORE.heavy>
29

>  <SCORE.norm>
-1.63193

>  <RMSD>
1.278

$$$$
ligand
 OpenBabel11021811473D
libRbt.so/2013.1/901 2013/11/27
 29 31  0  0  0  0  0  0  0  0999 V2000
   27.4808   40.3934   18.5315 C   0  0  0  0  0  0  0  0  0  0  0  0
   28.1065   41.5945   18.9949 O   0  0  0  0  0  0  0  0  0  0  0  0
   28.3748   39.7285   17.4938 C   0  0  1  0  0  0  0  0  0  0  0  0
   29.6265   39.4249   18.1017 O   0  0  0  0  0  0  0  0  0  0  0  0
   27.7237   38.4586   16.9611 C   0  0  1  0  0  0  0  0  0  0  0  0
   28.6296   37.8814   16.0279 O   0  0  0  0  0  0  0  0  0  0  0  0
   27.3439   37.4288   18.0292 C   0  0  1  0  0  0  0  0  0  0  0  0
   26.6569   36.3503   17.3933 O   0  0  0  0  0  0  0  0  0  0  0  0
   28.5466   36.8527   18.7739 C   0  0  0  0  0  0  0  0  0  0  0  0
   28.4542   34.0855   18.2216 N   0  0  0  0  0  0  0  0  0  0  0  0
   28.4266   32.7559   17.9226 C   0  0  0  0  0  0  0  0  0  0  0  0
   28.7580   32.3542   16.7792 O   0  0  0  0  0  0  0  0  0  0  0  0
   28.0353   31.8510   18.8554 N   0  0  0  0  0  0  0  0  0  0  0  0
   27.6658   32.2483   20.0990 C   0  0  0  0  0  0  0  0  0  0  0  0
   27.6903   33.6010   20.4186 C   0  0  1  0  0  0  0  0  0  0  0  0
   27.3025   31.4073   20.9582 O   0  0  0  0  0  0  0  0  0  0  0  0
   27.3552   35.3188   21.9653 C   0  0  1  0  0  0  0  0  0  0  0  0
   27.3293   34.0063   21.6555 N   0  0  0  0  0  0  0  0  0  0  0  0
   26.9814   35.7273   23.2408 C   0  0  0  0  0  0  0  0  0  0  0  0
   27.0001   37.0728   23.5913 C   0  0  2  0  0  0  0  0  0  0  0  0
   26.5814   37.4454   24.9903 C   0  0  0  0  0  0  0  0  0  0  0  0
   27.4002   38.0299   22.6502 C   0  0  2  0  0  0  0  0  0  0  0  0
   27.4435   39.3690   22.9224 N   0  0  0  0  0  0  0  0  0  0  0  0
   27.7726   37.6037   21.3695 C   0  0  0  0  0  0  0  0  0  0  0  0
   27.7542   36.2556   21.0133 C   0  0  2  0  0  0  0  0  0  0  0  0
   28.0947   34.5344   19.4590 C   0  0  2  0  0  0  0  0  0  0  0  0
   28.1128   35.8556   19.7717 N   0  0  0  0  0  0  0  0  0  0  0  0
   28.5045   39.8991   23.7577 C   0  0  0  0  0  0  0  0  0  0  0  0
   26.4617   40.3064   22.4025 C   0  0  0  0  0  0  0  0  0  0  0  0
  1  2  1  0  0  0  0
  3  1  1  1  0  0  0
  3  4  1  0  0  0  0
  3  5  1  0  0  0  0
  5  6  1  6  0  0  0
  5  7  1  0  0  0  0
  7  8  1  6  0  0  0
  7  9  1  0  0  0  0
  9 27  1  0  0  0  0
 10 11  1  0  0  0  0
 11 12  2  0  0  0  0
 11 13  1  0  0  0  0
 13 14  1  0  0  0  0
 14 16  2  0  0  0  0
 15 14  1  1  0  0  0
 15 18  1  0  0  0  0
 15 26  1  0  0  0  0
 17 19  1  1  0  0  0
 17 25  1  0  0  0  0
 17 18  1  0  0  0  0
 19 20  1  0  0  0  0
 20 21  1  6  0  0  0
 20 22  1  0  0  0  0
 22 23  1  6  0  0  0
 22 24  1  0  0  0  0
 23 28  1  0  0  0  0
 23 29  1  0  0  0  0
 25 24  1  6  0  0  0
 25 27  1  0  0  0  0
 26 10  1  6  0  0  0
 26 27  1  0  0  0  0
M  END
>  <CHROM.1>
59.90770832,-178.55395366,175.57713432,-179.16992454,74.20913418,-86.54567900
27.79524168,36.54233767,20.01242847,-1.78479633,-1.39126360,-3.05916007

>  <Name>
ligand

>  <RI>
0

>  <Rbt.Current_Directory>
/home/itssahil/PROJECTS/Mol_Feturizer/New_Systems/rnas/3F4H

>  <Rbt.Executable>
rbdock ($Id: //depot/dev/client3/rdock/2013.1/src/exe/rbdock.cxx#4 $)

>  <Rbt.Library>
libRbt.so (2013.1, Build901 2013/11/27)

>  <Rbt.Parameter_File>
/export/apps/rDock/src/rDock_2013.1_src/data/scripts/dock_solv.prm

>  <Rbt.Receptor>
prm/blind_docking_60.prm

>  <SCORE>
-47.9759

>  <SCORE.INTER>
-30.0622

>  <SCORE.INTER.CONST>
1

>  <SCORE.INTER.POLAR>
0

>  <SCORE.INTER.ROT>
6

>  <SCORE.INTER.SOLV>
10.3972

>  <SCORE.INTER.VDW>
-31.1072

>  <SCORE.INTER.norm>
-1.03663

>  <SCORE.INTRA>
-17.9137

>  <SCORE.INTRA.DIHEDRAL>
-4.68573

>  <SCORE.INTRA.DIHEDRAL.0>
6.83446

>  <SCORE.INTRA.POLAR>
0

>  <SCORE.INTRA.POLAR.0>
0

>  <SCORE.INTRA.REPUL>
0

>  <SCORE.INTRA.REPUL.0>
0

>  <SCORE.INTRA.SOLV>
-0.0816659

>  <SCORE.INTRA.SOLV.lig_0>
-26.4601

>  <SCORE.INTRA.VDW>
-15.53

>  <SCORE.INTRA.VDW.0>
13.7853

>  <SCORE.INTRA.norm>
-0.617715

>  <SCORE.RESTR>
0

>  <SCORE.RESTR.CAVITY>
0

>  <SCORE.RESTR.norm>
0

>  <SCORE.SYSTEM>
0

>  <SCORE.SYSTEM.CONST>
0

>  <SCORE.SYSTEM.DIHEDRAL>
0

>  <SCORE.SYSTEM.SOLV>
0

>  <SCORE.SYSTEM.norm>
0

>  <SCORE.heavy>
29

>  <SCORE.norm>
-1.65434

>  <RMSD>
1.284

$$$$
ligand
 OpenBabel11021811473D
libRbt.so/2013.1/901 2013/11/27
 29 31  0  0  0  0  0  0  0  0999 V2000
   28.0241   41.3898   16.9894 C   0  0  0  0  0  0  0  0  0  0  0  0
   28.4411   40.9147   15.7052 O   0  0  0  0  0  0  0  0  0  0  0  0
   27.3574   40.2543   17.7538 C   0  0  1  0  0  0  0  0  0  0  0  0
   26.2222   39.8154   17.0143 O   0  0  0  0  0  0  0  0  0  0  0  0
   28.3326   39.1022   17.9591 C   0  0  1  0  0  0  0  0  0  0  0  0
   29.4187   39.6030   18.7300 O   0  0  0  0  0  0  0  0  0  0  0  0
   27.7375   37.8630   18.6344 C   0  0  1  0  0  0  0  0  0  0  0  0
   26.8012   37.2649   17.7371 O   0  0  0  0  0  0  0  0  0  0  0  0
   28.7814   36.8107   19.0029 C   0  0  0  0  0  0  0  0  0  0  0  0
   28.5624   34.0656   18.3802 N   0  0  0  0  0  0  0  0  0  0  0  0
   28.4763   32.7462   18.0487 C   0  0  0  0  0  0  0  0  0  0  0  0
   28.8653   32.3468   16.9228 O   0  0  0  0  0  0  0  0  0  0  0  0
   27.9640   31.8496   18.9293 N   0  0  0  0  0  0  0  0  0  0  0  0
   27.5294   32.2451   20.1523 C   0  0  0  0  0  0  0  0  0  0  0  0
   27.6123   33.5874   20.5047 C   0  0  1  0  0  0  0  0  0  0  0  0
   27.0541   31.4120   20.9631 O   0  0  0  0  0  0  0  0  0  0  0  0
   27.2697   35.2926   22.0636 C   0  0  1  0  0  0  0  0  0  0  0  0
   27.1871   33.9905   21.7218 N   0  0  0  0  0  0  0  0  0  0  0  0
   26.8291   35.6989   23.3184 C   0  0  0  0  0  0  0  0  0  0  0  0
   26.9035   37.0337   23.7009 C   0  0  2  0  0  0  0  0  0  0  0  0
   26.4072   37.4047   25.0748 C   0  0  0  0  0  0  0  0  0  0  0  0
   27.4285   37.9821   22.8138 C   0  0  2  0  0  0  0  0  0  0  0  0
   27.5327   39.3104   23.1200 N   0  0  0  0  0  0  0  0  0  0  0  0
   27.8668   37.5582   21.5534 C   0  0  0  0  0  0  0  0  0  0  0  0
   27.7930   36.2209   21.1650 C   0  0  2  0  0  0  0  0  0  0  0  0
   28.1413   34.5121   19.5989 C   0  0  2  0  0  0  0  0  0  0  0  0
   28.2164   35.8234   19.9433 N   0  0  0  0  0  0  0  0  0  0  0  0
   28.5969   39.7654   23.9946 C   0  0  0  0  0  0  0  0  0  0  0  0
   26.6139   40.3090   22.5989 C   0  0  0  0  0  0  0  0  0  0  0  0
  1  2  1  0  0  0  0
  3  1  1  6  0  0  0
  3  4  1  0  0  0  0
  3  5  1  0  0  0  0
  5  6  1  1  0  0  0
  5  7  1  0  0  0  0
  7  8  1  6  0  0  0
  7  9  1  0  0  0  0
  9 27  1  0  0  0  0
 10 11  1  0  0  0  0
 11 12  2  0  0  0  0
 11 13  1  0  0  0  0
 13 14  1  0  0  0  0
 14 16  2  0  0  0  0
 15 14  1  1  0  0  0
 15 18  1  0  0  0  0
 15 26  1  0  0  0  0
 17 19  1  1  0  0  0
 17 25  1  0  0  0  0
 17 18  1  0  0  0  0
 19 20  1  0  0  0  0
 20 21  1  6  0  0  0
 20 22  1  0  0  0  0
 22 23  1  6  0  0  0
 22 24  1  0  0  0  0
 23 28  1  0  0  0  0
 23 29  1  0  0  0  0
 25 24  1  6  0  0  0
 25 27  1  0  0  0  0
 26 10  1  6  0  0  0
 26 27  1  0  0  0  0
M  END
>  <CHROM.1>
-60.46459301,61.36724510,68.04540037,165.34896010,76.94906878,-62.49245752
27.72763315,36.70337369,20.05849109,-1.58386440,-1.42668367,2.99590342

>  <Name>
ligand

>  <RI>
0

>  <Rbt.Current_Directory>
/home/itssahil/PROJECTS/Mol_Feturizer/New_Systems/rnas/3F4H

>  <Rbt.Executable>
rbdock ($Id: //depot/dev/client3/rdock/2013.1/src/exe/rbdock.cxx#4 $)

>  <Rbt.Library>
libRbt.so (2013.1, Build901 2013/11/27)

>  <Rbt.Parameter_File>
/export/apps/rDock/src/rDock_2013.1_src/data/scripts/dock_solv.prm

>  <Rbt.Receptor>
prm/pocket_docking_7.prm

>  <SCORE>
-47.4522

>  <SCORE.INTER>
-30.3724

>  <SCORE.INTER.CONST>
1

>  <SCORE.INTER.POLAR>
0

>  <SCORE.INTER.ROT>
6

>  <SCORE.INTER.SOLV>
11.5706

>  <SCORE.INTER.VDW>
-31.7052

>  <SCORE.INTER.norm>
-1.04733

>  <SCORE.INTRA>
-17.0798

>  <SCORE.INTRA.DIHEDRAL>
-3.82556

>  <SCORE.INTRA.DIHEDRAL.0>
6.83446

>  <SCORE.INTRA.POLAR>
0

>  <SCORE.INTRA.POLAR.0>
0

>  <SCORE.INTRA.REPUL>
0

>  <SCORE.INTRA.REPUL.0>
0

>  <SCORE.INTRA.SOLV>
-0.066519

>  <SCORE.INTRA.SOLV.lig_0>
-26.4601

>  <SCORE.INTRA.VDW>
-15.1338

>  <SCORE.INTRA.VDW.0>
13.7853

>  <SCORE.INTRA.norm>
-0.588959

>  <SCORE.RESTR>
0

>  <SCORE.RESTR.CAVITY>
0

>  <SCORE.RESTR.norm>
0

>  <SCORE.SYSTEM>
0

>  <SCORE.SYSTEM.CONST>
0

>  <SCORE.SYSTEM.DIHEDRAL>
0

>  <SCORE.SYSTEM.SOLV>
0

>  <SCORE.SYSTEM.norm>
0

>  <SCORE.heavy>
29

>  <SCORE.norm>
-1.63628

>  <RMSD>
1.284

$$$$
ligand
 OpenBabel11021811473D
libRbt.so/2013.1/901 2013/11/27
 29 31  0  0  0  0  0  0  0  0999 V2000
   28.0063   41.4767   17.1732 C   0  0  0  0  0  0  0  0  0  0  0  0
   28.5432   41.1197   15.8952 O   0  0  0  0  0  0  0  0  0  0  0  0
   27.3183   40.2646   17.7861 C   0  0  1  0  0  0  0  0  0  0  0  0
   26.3066   39.8163   16.8896 O   0  0  0  0  0  0  0  0  0  0  0  0
   28.3256   39.1518   18.0461 C   0  0  1  0  0  0  0  0  0  0  0  0
   29.2863   39.6605   18.9642 O   0  0  0  0  0  0  0  0  0  0  0  0
   27.7262   37.8485   18.5825 C   0  0  1  0  0  0  0  0  0  0  0  0
   26.8914   37.2845   17.5702 O   0  0  0  0  0  0  0  0  0  0  0  0
   28.7768   36.8083   18.9660 C   0  0  0  0  0  0  0  0  0  0  0  0
   28.5517   34.0655   18.3355 N   0  0  0  0  0  0  0  0  0  0  0  0
   28.4626   32.7473   18.0001 C   0  0  0  0  0  0  0  0  0  0  0  0
   28.8486   32.3506   16.8722 O   0  0  0  0  0  0  0  0  0  0  0  0
   27.9508   31.8489   18.8792 N   0  0  0  0  0  0  0  0  0  0  0  0
   27.5195   32.2414   20.1043 C   0  0  0  0  0  0  0  0  0  0  0  0
   27.6055   33.5824   20.4606 C   0  0  1  0  0  0  0  0  0  0  0  0
   27.0446   31.4066   20.9136 O   0  0  0  0  0  0  0  0  0  0  0  0
   27.2692   35.2835   22.0254 C   0  0  1  0  0  0  0  0  0  0  0  0
   27.1837   33.9826   21.6798 N   0  0  0  0  0  0  0  0  0  0  0  0
   26.8321   35.6867   23.2823 C   0  0  0  0  0  0  0  0  0  0  0  0
   26.9096   37.0202   23.6688 C   0  0  2  0  0  0  0  0  0  0  0  0
   26.4169   37.3879   25.0448 C   0  0  0  0  0  0  0  0  0  0  0  0
   27.4342   37.9704   22.7834 C   0  0  2  0  0  0  0  0  0  0  0  0
   27.5414   39.2977   23.0934 N   0  0  0  0  0  0  0  0  0  0  0  0
   27.8691   37.5496   21.5208 C   0  0  0  0  0  0  0  0  0  0  0  0
   27.7921   36.2136   21.1285 C   0  0  2  0  0  0  0  0  0  0  0  0
   28.1341   34.5090   19.5564 C   0  0  2  0  0  0  0  0  0  0  0  0
   28.2122   35.8191   19.9046 N   0  0  0  0  0  0  0  0  0  0  0  0
   26.6388   40.2542   22.4812 C   0  0  0  0  0  0  0  0  0  0  0  0
   28.5321   39.8066   24.0275 C   0  0  0  0  0  0  0  0  0  0  0  0
  1  2  1  0  0  0  0
  3  1  1  6  0  0  0
  3  4  1  0  0  0  0
  3  5  1  0  0  0  0
  5  6  1  1  0  0  0
  5  7  1  0  0  0  0
  7  8  1  6  0  0  0
  7  9  1  0  0  0  0
  9 27  1  0  0  0  0
 10 11  1  0  0  0  0
 11 12  2  0  0  0  0
 11 13  1  0  0  0  0
 13 14  1  0  0  0  0
 14 16  2  0  0  0  0
 15 14  1  1  0  0  0
 15 18  1  0  0  0  0
 15 26  1  0  0  0  0
 17 19  1  1  0  0  0
 17 25  1  0  0  0  0
 17 18  1  0  0  0  0
 19 20  1  0  0  0  0
 20 21  1  6  0  0  0
 20 22  1  0  0  0  0
 22 23  1  6  0  0  0
 22 24  1  0  0  0  0
 23 28  1  0  0  0  0
 23 29  1  0  0  0  0
 25 24  1  6  0  0  0
 25 27  1  0  0  0  0
 26 10  1  6  0  0  0
 26 27  1  0  0  0  0
M  END
>  <CHROM.1>
-57.61680591,60.98924014,65.77194053,159.18452554,-106.84800167,-63.55747404
27.72710898,36.71488327,20.04400878,-1.57890396,-1.42912976,3.03095466

>  <Name>
ligand

>  <RI>
0

>  <Rbt.Current_Directory>
/home/itssahil/PROJECTS/Mol_Feturizer/New_Systems/rnas/3F4H

>  <Rbt.Executable>
rbdock ($Id: //depot/dev/client3/rdock/2013.1/src/exe/rbdock.cxx#4 $)

>  <Rbt.Library>
libRbt.so (2013.1, Build901 2013/11/27)

>  <Rbt.Parameter_File>
/export/apps/rDock/src/rDock_2013.1_src/data/scripts/dock_solv.prm

>  <Rbt.Receptor>
prm/pocket_docking_5.prm

>  <SCORE>
-47.2561

>  <SCORE.INTER>
-30.4512

>  <SCORE.INTER.CONST>
1

>  <SCORE.INTER.POLAR>
0

>  <SCORE.INTER.ROT>
6

>  <SCORE.INTER.SOLV>
11.2193

>  <SCORE.INTER.VDW>
-31.6406

>  <SCORE.INTER.norm>
-1.05004

>  <SCORE.INTRA>
-16.8049

>  <SCORE.INTRA.DIHEDRAL>
-3.24056

>  <SCORE.INTRA.DIHEDRAL.0>
6.83446

>  <SCORE.INTRA.POLAR>
0

>  <SCORE.INTRA.POLAR.0>
0

>  <SCORE.INTRA.REPUL>
0

>  <SCORE.INTRA.REPUL.0>
0

>  <SCORE.INTRA.SOLV>
-0.028799

>  <SCORE.INTRA.SOLV.lig_0>
-26.4601

>  <SCORE.INTRA.VDW>
-15.1702

>  <SCORE.INTRA.VDW.0>
13.7853

>  <SCORE.INTRA.norm>
-0.57948

>  <SCORE.RESTR>
0

>  <SCORE.RESTR.CAVITY>
0

>  <SCORE.RESTR.norm>
0

>  <SCORE.SYSTEM>
0

>  <SCORE.SYSTEM.CONST>
0

>  <SCORE.SYSTEM.DIHEDRAL>
0

>  <SCORE.SYSTEM.SOLV>
0

>  <SCORE.SYSTEM.norm>
0

>  <SCORE.heavy>
29

>  <SCORE.norm>
-1.62952

>  <RMSD>
1.285

$$$$
ligand
 OpenBabel11021811473D
libRbt.so/2013.1/901 2013/11/27
 29 31  0  0  0  0  0  0  0  0999 V2000
   28.4838   40.6144   16.1042 C   0  0  0  0  0  0  0  0  0  0  0  0
   27.3196   40.2770   15.3429 O   0  0  0  0  0  0  0  0  0  0  0  0
   28.5828   39.6887   17.3090 C   0  0  1  0  0  0  0  0  0  0  0  0
   27.3529   39.7437   18.0250 O   0  0  0  0  0  0  0  0  0  0  0  0
   28.8726   38.2608   16.8646 C   0  0  1  0  0  0  0  0  0  0  0  0
   30.1559   38.2641   16.2499 O   0  0  0  0  0  0  0  0  0  0  0  0
   28.8286   37.2137   17.9814 C   0  0  1  0  0  0  0  0  0  0  0  0
   29.5659   37.7125   19.0981 O   0  0  0  0  0  0  0  0  0  0  0  0
   27.4133   36.8873   18.4539 C   0  0  0  0  0  0  0  0  0  0  0  0
   27.3324   34.1039   17.9876 N   0  0  0  0  0  0  0  0  0  0  0  0
   27.2968   32.7666   17.7262 C   0  0  0  0  0  0  0  0  0  0  0  0
   27.2213   32.3518   16.5427 O   0  0  0  0  0  0  0  0  0  0  0  0
   27.3372   31.8677   18.7422 N   0  0  0  0  0  0  0  0  0  0  0  0
   27.4138   32.2787   20.0329 C   0  0  0  0  0  0  0  0  0  0  0  0
   27.4522   33.6395   20.3146 C   0  0  1  0  0  0  0  0  0  0  0  0
   27.4488   31.4431   20.9700 O   0  0  0  0  0  0  0  0  0  0  0  0
   27.5728   35.3794   21.8683 C   0  0  1  0  0  0  0  0  0  0  0  0
   27.5337   34.0589   21.5960 N   0  0  0  0  0  0  0  0  0  0  0  0
   27.6562   35.8022   23.1903 C   0  0  0  0  0  0  0  0  0  0  0  0
   27.7008   37.1564   23.5029 C   0  0  2  0  0  0  0  0  0  0  0  0
   27.7897   37.5446   24.9565 C   0  0  0  0  0  0  0  0  0  0  0  0
   27.6618   38.1078   22.4756 C   0  0  2  0  0  0  0  0  0  0  0  0
   27.7015   39.4548   22.7064 N   0  0  0  0  0  0  0  0  0  0  0  0
   27.5765   37.6669   21.1494 C   0  0  0  0  0  0  0  0  0  0  0  0
   27.5303   36.3099   20.8314 C   0  0  2  0  0  0  0  0  0  0  0  0
   27.4122   34.5668   19.2687 C   0  0  2  0  0  0  0  0  0  0  0  0
   27.4445   35.8956   19.5465 N   0  0  0  0  0  0  0  0  0  0  0  0
   28.9386   40.1837   22.4992 C   0  0  0  0  0  0  0  0  0  0  0  0
   26.5414   40.2076   23.1540 C   0  0  0  0  0  0  0  0  0  0  0  0
  1  2  1  0  0  0  0
  3  1  1  6  0  0  0
  3  4  1  0  0  0  0
  3  5  1  0  0  0  0
  5  6  1  1  0  0  0
  5  7  1  0  0  0  0
  7  8  1  1  0  0  0
  7  9  1  0  0  0  0
  9 27  1  0  0  0  0
 10 11  1  0  0  0  0
 11 12  2  0  0  0  0
 11 13  1  0  0  0  0
 13 14  1  0  0  0  0
 14 16  2  0  0  0  0
 15 14  1  6  0  0  0
 15 18  1  0  0  0  0
 15 26  1  0  0  0  0
 17 19  1  6  0  0  0
 17 25  1  0  0  0  0
 17 18  1  0  0  0  0
 19 20  1  0  0  0  0
 20 21  1  1  0  0  0
 20 22  1  0  0  0  0
 22 23  1  1  0  0  0
 22 24  1  0  0  0  0
 23 28  1  0  0  0  0
 23 29  1  0  0  0  0
 25 24  1  1  0  0  0
 25 27  1  0  0  0  0
 26 10  1  1  0  0  0
 26 27  1  0  0  0  0
M  END
>  <CHROM.1>
-53.59720750,64.26296072,-46.55662180,-178.82589299,102.07377853,89.54565162
27.85050010,36.60200348,19.73203046,-0.58476901,-1.43100875,-2.26627420

>  <Name>
ligand

>  <RI>
0

>  <Rbt.Current_Directory>
/home/itssahil/PROJECTS/Mol_Feturizer/New_Systems/rnas/3F4H

>  <Rbt.Executable>
rbdock ($Id: //depot/dev/client3/rdock/2013.1/src/exe/rbdock.cxx#4 $)

>  <Rbt.Library>
libRbt.so (2013.1, Build901 2013/11/27)

>  <Rbt.Parameter_File>
/export/apps/rDock/src/rDock_2013.1_src/data/scripts/dock_solv.prm

>  <Rbt.Receptor>
prm/pocket_docking_6.prm

>  <SCORE>
-43.4346

>  <SCORE.INTER>
-25.9188

>  <SCORE.INTER.CONST>
1

>  <SCORE.INTER.POLAR>
0

>  <SCORE.INTER.ROT>
6

>  <SCORE.INTER.SOLV>
10.4644

>  <SCORE.INTER.VDW>
-28.3673

>  <SCORE.INTER.norm>
-0.893752

>  <SCORE.INTRA>
-17.5158

>  <SCORE.INTRA.DIHEDRAL>
-3.99723

>  <SCORE.INTRA.DIHEDRAL.0>
6.83446

>  <SCORE.INTRA.POLAR>
0

>  <SCORE.INTRA.POLAR.0>
0

>  <SCORE.INTRA.REPUL>
0

>  <SCORE.INTRA.REPUL.0>
0

>  <SCORE.INTRA.SOLV>
0.291695

>  <SCORE.INTRA.SOLV.lig_0>
-26.4601

>  <SCORE.INTRA.VDW>
-15.663

>  <SCORE.INTRA.VDW.0>
13.7853

>  <SCORE.INTRA.norm>
-0.603992

>  <SCORE.RESTR>
0

>  <SCORE.RESTR.CAVITY>
0

>  <SCORE.RESTR.norm>
0

>  <SCORE.SYSTEM>
0

>  <SCORE.SYSTEM.CONST>
0

>  <SCORE.SYSTEM.DIHEDRAL>
0

>  <SCORE.SYSTEM.SOLV>
0

>  <SCORE.SYSTEM.norm>
0

>  <SCORE.heavy>
29

>  <SCORE.norm>
-1.49774

>  <RMSD>
1.286

$$$$
ligand
 OpenBabel11021811473D
libRbt.so/2013.1/901 2013/11/27
 29 31  0  0  0  0  0  0  0  0999 V2000
   28.1404   40.3614   18.7704 C   0  0  0  0  0  0  0  0  0  0  0  0
   26.8871   40.9900   18.4822 O   0  0  0  0  0  0  0  0  0  0  0  0
   28.6884   39.7258   17.5001 C   0  0  1  0  0  0  0  0  0  0  0  0
   29.9715   39.1774   17.7848 O   0  0  0  0  0  0  0  0  0  0  0  0
   27.7480   38.6380   16.9971 C   0  0  1  0  0  0  0  0  0  0  0  0
   28.3710   38.0317   15.8706 O   0  0  0  0  0  0  0  0  0  0  0  0
   27.3815   37.5700   18.0318 C   0  0  1  0  0  0  0  0  0  0  0  0
   26.4733   36.6482   17.4277 O   0  0  0  0  0  0  0  0  0  0  0  0
   28.5850   36.7831   18.5465 C   0  0  0  0  0  0  0  0  0  0  0  0
   28.2799   34.0073   18.1303 N   0  0  0  0  0  0  0  0  0  0  0  0
   28.1470   32.6711   17.8955 C   0  0  0  0  0  0  0  0  0  0  0  0
   28.3534   32.2036   16.7477 O   0  0  0  0  0  0  0  0  0  0  0  0
   27.7847   31.8311   18.8980 N   0  0  0  0  0  0  0  0  0  0  0  0
   27.5488   32.3007   20.1489 C   0  0  0  0  0  0  0  0  0  0  0  0
   27.6818   33.6609   20.4035 C   0  0  1  0  0  0  0  0  0  0  0  0
   27.2117   31.5197   21.0729 O   0  0  0  0  0  0  0  0  0  0  0  0
   27.5853   35.4573   21.8932 C   0  0  1  0  0  0  0  0  0  0  0  0
   27.4542   34.1377   21.6466 N   0  0  0  0  0  0  0  0  0  0  0  0
   27.3486   35.9396   23.1757 C   0  0  0  0  0  0  0  0  0  0  0  0
   27.4780   37.2942   23.4618 C   0  0  2  0  0  0  0  0  0  0  0  0
   27.2052   37.7486   24.8727 C   0  0  0  0  0  0  0  0  0  0  0  0
   27.8515   38.1854   22.4479 C   0  0  2  0  0  0  0  0  0  0  0  0
   27.9982   39.5289   22.6543 N   0  0  0  0  0  0  0  0  0  0  0  0
   28.0852   37.6853   21.1611 C   0  0  0  0  0  0  0  0  0  0  0  0
   27.9555   36.3278   20.8694 C   0  0  2  0  0  0  0  0  0  0  0  0
   28.0565   34.5274   19.3719 C   0  0  2  0  0  0  0  0  0  0  0  0
   28.1806   35.8564   19.6216 N   0  0  0  0  0  0  0  0  0  0  0  0
   26.8233   40.3636   22.8193 C   0  0  0  0  0  0  0  0  0  0  0  0
   29.2992   40.1738   22.7218 C   0  0  0  0  0  0  0  0  0  0  0  0
  1  2  1  0  0  0  0
  3  1  1  1  0  0  0
  3  4  1  0  0  0  0
  3  5  1  0  0  0  0
  5  6  1  6  0  0  0
  5  7  1  0  0  0  0
  7  8  1  6  0  0  0
  7  9  1  0  0  0  0
  9 27  1  0  0  0  0
 10 11  1  0  0  0  0
 11 12  2  0  0  0  0
 11 13  1  0  0  0  0
 13 14  1  0  0  0  0
 14 16  2  0  0  0  0
 15 14  1  1  0  0  0
 15 18  1  0  0  0  0
 15 26  1  0  0  0  0
 17 19  1  1  0  0  0
 17 25  1  0  0  0  0
 17 18  1  0  0  0  0
 19 20  1  0  0  0  0
 20 21  1  6  0  0  0
 20 22  1  0  0  0  0
 22 23  1  6  0  0  0
 22 24  1  0  0  0  0
 23 28  1  0  0  0  0
 23 29  1  0  0  0  0
 25 24  1  6  0  0  0
 25 27  1  0  0  0  0
 26 10  1  6  0  0  0
 26 27  1  0  0  0  0
M  END
>  <CHROM.1>
176.46278300,-175.95179737,178.45180869,175.03845096,-73.88866532,-77.46871147
27.88598216,36.58939446,19.90769719,-1.38935085,-1.46090438,-2.70521305

>  <Name>
ligand

>  <RI>
0

>  <Rbt.Current_Directory>
/home/itssahil/PROJECTS/Mol_Feturizer/New_Systems/rnas/3F4H

>  <Rbt.Executable>
rbdock ($Id: //depot/dev/client3/rdock/2013.1/src/exe/rbdock.cxx#4 $)

>  <Rbt.Library>
libRbt.so (2013.1, Build901 2013/11/27)

>  <Rbt.Parameter_File>
/export/apps/rDock/src/rDock_2013.1_src/data/scripts/dock_solv.prm

>  <Rbt.Receptor>
prm/pocket_docking_7.prm

>  <SCORE>
-45.1215

>  <SCORE.INTER>
-27.3811

>  <SCORE.INTER.CONST>
1

>  <SCORE.INTER.POLAR>
0

>  <SCORE.INTER.ROT>
6

>  <SCORE.INTER.SOLV>
9.5043

>  <SCORE.INTER.VDW>
-29.0222

>  <SCORE.INTER.norm>
-0.944177

>  <SCORE.INTRA>
-17.7404

>  <SCORE.INTRA.DIHEDRAL>
-4.57232

>  <SCORE.INTRA.DIHEDRAL.0>
6.83446

>  <SCORE.INTRA.POLAR>
0

>  <SCORE.INTRA.POLAR.0>
0

>  <SCORE.INTRA.REPUL>
0

>  <SCORE.INTRA.REPUL.0>
0

>  <SCORE.INTRA.SOLV>
0.044265

>  <SCORE.INTRA.SOLV.lig_0>
-26.4601

>  <SCORE.INTRA.VDW>
-15.4764

>  <SCORE.INTRA.VDW.0>
13.7853

>  <SCORE.INTRA.norm>
-0.611738

>  <SCORE.RESTR>
0

>  <SCORE.RESTR.CAVITY>
0

>  <SCORE.RESTR.norm>
0

>  <SCORE.SYSTEM>
0

>  <SCORE.SYSTEM.CONST>
0

>  <SCORE.SYSTEM.DIHEDRAL>
0

>  <SCORE.SYSTEM.SOLV>
0

>  <SCORE.SYSTEM.norm>
0

>  <SCORE.heavy>
29

>  <SCORE.norm>
-1.55591

>  <RMSD>
1.286

$$$$
ligand
 OpenBabel11021811473D
libRbt.so/2013.1/901 2013/11/27
 29 31  0  0  0  0  0  0  0  0999 V2000
   27.4557   40.3246   18.3734 C   0  0  0  0  0  0  0  0  0  0  0  0
   26.2931   40.6578   17.6076 O   0  0  0  0  0  0  0  0  0  0  0  0
   28.4702   39.6334   17.4728 C   0  0  1  0  0  0  0  0  0  0  0  0
   29.6506   39.3822   18.2291 O   0  0  0  0  0  0  0  0  0  0  0  0
   27.9024   38.3284   16.9296 C   0  0  1  0  0  0  0  0  0  0  0  0
   28.8933   37.7595   16.0817 O   0  0  0  0  0  0  0  0  0  0  0  0
   27.4785   37.3136   17.9954 C   0  0  1  0  0  0  0  0  0  0  0  0
   26.7971   36.2375   17.3495 O   0  0  0  0  0  0  0  0  0  0  0  0
   28.6515   36.7301   18.7805 C   0  0  0  0  0  0  0  0  0  0  0  0
   28.5136   33.9652   18.2256 N   0  0  0  0  0  0  0  0  0  0  0  0
   28.4647   32.6365   17.9257 C   0  0  0  0  0  0  0  0  0  0  0  0
   28.8111   32.2279   16.7892 O   0  0  0  0  0  0  0  0  0  0  0  0
   28.0359   31.7399   18.8499 N   0  0  0  0  0  0  0  0  0  0  0  0
   27.6492   32.1448   20.0858 C   0  0  0  0  0  0  0  0  0  0  0  0
   27.6950   33.4968   20.4063 C   0  0  1  0  0  0  0  0  0  0  0  0
   27.2511   31.3116   20.9371 O   0  0  0  0  0  0  0  0  0  0  0  0
   27.3637   35.2213   21.9464 C   0  0  1  0  0  0  0  0  0  0  0  0
   27.3171   33.9096   21.6357 N   0  0  0  0  0  0  0  0  0  0  0  0
   26.9723   35.6374   23.2141 C   0  0  0  0  0  0  0  0  0  0  0  0
   27.0115   36.9823   23.5653 C   0  0  2  0  0  0  0  0  0  0  0  0
   26.5720   37.3637   24.9556 C   0  0  0  0  0  0  0  0  0  0  0  0
   27.4505   37.9310   22.6330 C   0  0  2  0  0  0  0  0  0  0  0  0
   27.5157   39.2689   22.9064 N   0  0  0  0  0  0  0  0  0  0  0  0
   27.8401   37.4970   21.3600 C   0  0  0  0  0  0  0  0  0  0  0  0
   27.8013   36.1495   21.0031 C   0  0  2  0  0  0  0  0  0  0  0  0
   28.1381   34.4215   19.4555 C   0  0  2  0  0  0  0  0  0  0  0  0
   28.1770   35.7422   19.7690 N   0  0  0  0  0  0  0  0  0  0  0  0
   26.5715   40.1771   22.2835 C   0  0  0  0  0  0  0  0  0  0  0  0
   28.5016   39.8365   23.8114 C   0  0  0  0  0  0  0  0  0  0  0  0
  1  2  1  0  0  0  0
  3  1  1  1  0  0  0
  3  4  1  0  0  0  0
  3  5  1  0  0  0  0
  5  6  1  6  0  0  0
  5  7  1  0  0  0  0
  7  8  1  6  0  0  0
  7  9  1  0  0  0  0
  9 27  1  0  0  0  0
 10 11  1  0  0  0  0
 11 12  2  0  0  0  0
 11 13  1  0  0  0  0
 13 14  1  0  0  0  0
 14 16  2  0  0  0  0
 15 14  1  1  0  0  0
 15 18  1  0  0  0  0
 15 26  1  0  0  0  0
 17 19  1  1  0  0  0
 17 25  1  0  0  0  0
 17 18  1  0  0  0  0
 19 20  1  0  0  0  0
 20 21  1  6  0  0  0
 20 22  1  0  0  0  0
 22 23  1  6  0  0  0
 22 24  1  0  0  0  0
 23 28  1  0  0  0  0
 23 29  1  0  0  0  0
 25 24  1  6  0  0  0
 25 27  1  0  0  0  0
 26 10  1  6  0  0  0
 26 27  1  0  0  0  0
M  END
>  <CHROM.1>
176.51437585,178.86947730,171.78144662,-178.84466234,-108.89707262,-87.49180379
27.77338231,36.40637620,19.94438807,-2.01558284,-1.41151945,2.98075775

>  <Name>
ligand

>  <RI>
0

>  <Rbt.Current_Directory>
/home/itssahil/PROJECTS/Mol_Feturizer/New_Systems/rnas/3F4H

>  <Rbt.Executable>
rbdock ($Id: //depot/dev/client3/rdock/2013.1/src/exe/rbdock.cxx#4 $)

>  <Rbt.Library>
libRbt.so (2013.1, Build901 2013/11/27)

>  <Rbt.Parameter_File>
/export/apps/rDock/src/rDock_2013.1_src/data/scripts/dock_solv.prm

>  <Rbt.Receptor>
prm/blind_docking_100.prm

>  <SCORE>
-47.8653

>  <SCORE.INTER>
-30.1487

>  <SCORE.INTER.CONST>
1

>  <SCORE.INTER.POLAR>
0

>  <SCORE.INTER.ROT>
6

>  <SCORE.INTER.SOLV>
10.4029

>  <SCORE.INTER.VDW>
-31.1667

>  <SCORE.INTER.norm>
-1.03961

>  <SCORE.INTRA>
-17.7167

>  <SCORE.INTRA.DIHEDRAL>
-4.46557

>  <SCORE.INTRA.DIHEDRAL.0>
6.83446

>  <SCORE.INTRA.POLAR>
0

>  <SCORE.INTRA.POLAR.0>
0

>  <SCORE.INTRA.REPUL>
0

>  <SCORE.INTRA.REPUL.0>
0

>  <SCORE.INTRA.SOLV>
-0.156882

>  <SCORE.INTRA.SOLV.lig_0>
-26.4601

>  <SCORE.INTRA.VDW>
-15.4054

>  <SCORE.INTRA.VDW.0>
13.7853

>  <SCORE.INTRA.norm>
-0.610919

>  <SCORE.RESTR>
0

>  <SCORE.RESTR.CAVITY>
0

>  <SCORE.RESTR.norm>
0

>  <SCORE.SYSTEM>
0

>  <SCORE.SYSTEM.CONST>
0

>  <SCORE.SYSTEM.DIHEDRAL>
0

>  <SCORE.SYSTEM.SOLV>
0

>  <SCORE.SYSTEM.norm>
0

>  <SCORE.heavy>
29

>  <SCORE.norm>
-1.65053

>  <RMSD>
1.287

$$$$
ligand
 OpenBabel11021811473D
libRbt.so/2013.1/901 2013/11/27
 29 31  0  0  0  0  0  0  0  0999 V2000
   28.5883   40.7252   17.3464 C   0  0  0  0  0  0  0  0  0  0  0  0
   28.5798   40.5578   18.7680 O   0  0  0  0  0  0  0  0  0  0  0  0
   28.7881   39.3702   16.6815 C   0  0  1  0  0  0  0  0  0  0  0  0
   30.0416   38.8399   17.1012 O   0  0  0  0  0  0  0  0  0  0  0  0
   27.6592   38.4184   17.0559 C   0  0  1  0  0  0  0  0  0  0  0  0
   26.7929   38.3305   15.9305 O   0  0  0  0  0  0  0  0  0  0  0  0
   28.1082   37.0179   17.4830 C   0  0  1  0  0  0  0  0  0  0  0  0
   28.9547   36.4842   16.4641 O   0  0  0  0  0  0  0  0  0  0  0  0
   28.8816   37.0020   18.7999 C   0  0  0  0  0  0  0  0  0  0  0  0
   28.6602   34.2806   18.0815 N   0  0  0  0  0  0  0  0  0  0  0  0
   28.5724   32.9739   17.7036 C   0  0  0  0  0  0  0  0  0  0  0  0
   28.9440   32.6169   16.5577 O   0  0  0  0  0  0  0  0  0  0  0  0
   28.0773   32.0441   18.5594 N   0  0  0  0  0  0  0  0  0  0  0  0
   27.6619   32.3934   19.8028 C   0  0  0  0  0  0  0  0  0  0  0  0
   27.7467   33.7223   20.2025 C   0  0  1  0  0  0  0  0  0  0  0  0
   27.2024   31.5298   20.5906 O   0  0  0  0  0  0  0  0  0  0  0  0
   27.4250   35.3686   21.8277 C   0  0  1  0  0  0  0  0  0  0  0  0
   27.3405   34.0794   21.4402 N   0  0  0  0  0  0  0  0  0  0  0  0
   27.0041   35.7275   23.1035 C   0  0  0  0  0  0  0  0  0  0  0  0
   27.0809   37.0478   23.5331 C   0  0  2  0  0  0  0  0  0  0  0  0
   26.6062   37.3669   24.9274 C   0  0  0  0  0  0  0  0  0  0  0  0
   27.5884   38.0296   22.6726 C   0  0  2  0  0  0  0  0  0  0  0  0
   27.6939   39.3463   23.0251 N   0  0  0  0  0  0  0  0  0  0  0  0
   28.0071   37.6533   21.3905 C   0  0  0  0  0  0  0  0  0  0  0  0
   27.9307   36.3307   20.9551 C   0  0  2  0  0  0  0  0  0  0  0  0
   28.2580   34.6811   19.3223 C   0  0  2  0  0  0  0  0  0  0  0  0
   28.3351   35.9793   19.7129 N   0  0  0  0  0  0  0  0  0  0  0  0
   26.8820   40.3394   22.3475 C   0  0  0  0  0  0  0  0  0  0  0  0
   28.5943   39.8084   24.0685 C   0  0  0  0  0  0  0  0  0  0  0  0
  1  2  1  0  0  0  0
  3  1  1  1  0  0  0
  3  4  1  0  0  0  0
  3  5  1  0  0  0  0
  5  6  1  6  0  0  0
  5  7  1  0  0  0  0
  7  8  1  6  0  0  0
  7  9  1  0  0  0  0
  9 27  1  0  0  0  0
 10 11  1  0  0  0  0
 11 12  2  0  0  0  0
 11 13  1  0  0  0  0
 13 14  1  0  0  0  0
 14 16  2  0  0  0  0
 15 14  1  1  0  0  0
 15 18  1  0  0  0  0
 15 26  1  0  0  0  0
 17 19  1  1  0  0  0
 17 25  1  0  0  0  0
 17 18  1  0  0  0  0
 19 20  1  0  0  0  0
 20 21  1  6  0  0  0
 20 22  1  0  0  0  0
 22 23  1  6  0  0  0
 22 24  1  0  0  0  0
 23 28  1  0  0  0  0
 23 29  1  0  0  0  0
 25 24  1  6  0  0  0
 25 27  1  0  0  0  0
 26 10  1  6  0  0  0
 26 27  1  0  0  0  0
M  END
>  <CHROM.1>
-60.83118584,104.01666429,-53.19869147,130.47372933,-113.81041679,-124.69456341
28.02018396,36.54474364,19.76538229,-1.95380878,-1.37531134,-2.91451342

>  <Name>
ligand

>  <RI>
0

>  <Rbt.Current_Directory>
/home/itssahil/PROJECTS/Mol_Feturizer/New_Systems/rnas/3F4H

>  <Rbt.Executable>
rbdock ($Id: //depot/dev/client3/rdock/2013.1/src/exe/rbdock.cxx#4 $)

>  <Rbt.Library>
libRbt.so (2013.1, Build901 2013/11/27)

>  <Rbt.Parameter_File>
/export/apps/rDock/src/rDock_2013.1_src/data/scripts/dock_solv.prm

>  <Rbt.Receptor>
prm/pocket_docking_2.prm

>  <SCORE>
-39.5315

>  <SCORE.INTER>
-28.4444

>  <SCORE.INTER.CONST>
1

>  <SCORE.INTER.POLAR>
0

>  <SCORE.INTER.ROT>
6

>  <SCORE.INTER.SOLV>
10.0557

>  <SCORE.INTER.VDW>
-29.9148

>  <SCORE.INTER.norm>
-0.98084

>  <SCORE.INTRA>
-11.1006

>  <SCORE.INTRA.DIHEDRAL>
4.7255

>  <SCORE.INTRA.DIHEDRAL.0>
6.83446

>  <SCORE.INTRA.POLAR>
0

>  <SCORE.INTRA.POLAR.0>
0

>  <SCORE.INTRA.REPUL>
0

>  <SCORE.INTRA.REPUL.0>
0

>  <SCORE.INTRA.SOLV>
0.618338

>  <SCORE.INTRA.SOLV.lig_0>
-26.4601

>  <SCORE.INTRA.VDW>
-13.7725

>  <SCORE.INTRA.VDW.0>
13.7853

>  <SCORE.INTRA.norm>
-0.382778

>  <SCORE.RESTR>
0.0134346

>  <SCORE.RESTR.CAVITY>
0.0134346

>  <SCORE.RESTR.norm>
0.000463261

>  <SCORE.SYSTEM>
0

>  <SCORE.SYSTEM.CONST>
0

>  <SCORE.SYSTEM.DIHEDRAL>
0

>  <SCORE.SYSTEM.SOLV>
0

>  <SCORE.SYSTEM.norm>
0

>  <SCORE.heavy>
29

>  <SCORE.norm>
-1.36316

>  <RMSD>
1.287

$$$$
ligand
 OpenBabel11021811473D
libRbt.so/2013.1/901 2013/11/27
 29 31  0  0  0  0  0  0  0  0999 V2000
   27.8777   41.1178   16.4741 C   0  0  0  0  0  0  0  0  0  0  0  0
   27.0830   42.3082   16.4614 O   0  0  0  0  0  0  0  0  0  0  0  0
   27.3757   40.1894   17.5715 C   0  0  1  0  0  0  0  0  0  0  0  0
   26.0460   39.7900   17.2540 O   0  0  0  0  0  0  0  0  0  0  0  0
   28.2791   38.9693   17.6954 C   0  0  1  0  0  0  0  0  0  0  0  0
   29.5292   39.4216   18.2027 O   0  0  0  0  0  0  0  0  0  0  0  0
   27.7306   37.8447   18.5786 C   0  0  1  0  0  0  0  0  0  0  0  0
   26.7279   37.1412   17.8442 O   0  0  0  0  0  0  0  0  0  0  0  0
   28.7945   36.8388   19.0136 C   0  0  0  0  0  0  0  0  0  0  0  0
   28.5702   34.0976   18.3758 N   0  0  0  0  0  0  0  0  0  0  0  0
   28.4816   32.7803   18.0370 C   0  0  0  0  0  0  0  0  0  0  0  0
   28.8730   32.3857   16.9102 O   0  0  0  0  0  0  0  0  0  0  0  0
   27.9644   31.8804   18.9114 N   0  0  0  0  0  0  0  0  0  0  0  0
   27.5272   32.2706   20.1352 C   0  0  0  0  0  0  0  0  0  0  0  0
   27.6126   33.6107   20.4949 C   0  0  1  0  0  0  0  0  0  0  0  0
   27.0473   31.4345   20.9402 O   0  0  0  0  0  0  0  0  0  0  0  0
   27.2697   35.3087   22.0618 C   0  0  1  0  0  0  0  0  0  0  0  0
   27.1848   34.0085   21.7128 N   0  0  0  0  0  0  0  0  0  0  0  0
   26.8265   35.7095   23.3173 C   0  0  0  0  0  0  0  0  0  0  0  0
   26.9033   37.0420   23.7072 C   0  0  2  0  0  0  0  0  0  0  0  0
   26.4038   37.4071   25.0814 C   0  0  0  0  0  0  0  0  0  0  0  0
   27.4333   37.9937   22.8266 C   0  0  2  0  0  0  0  0  0  0  0  0
   27.5401   39.3201   23.1401 N   0  0  0  0  0  0  0  0  0  0  0  0
   27.8743   37.5753   21.5653 C   0  0  0  0  0  0  0  0  0  0  0  0
   27.7981   36.2403   21.1696 C   0  0  2  0  0  0  0  0  0  0  0  0
   28.1466   34.5388   19.5955 C   0  0  2  0  0  0  0  0  0  0  0  0
   28.2242   35.8481   19.9471 N   0  0  0  0  0  0  0  0  0  0  0  0
   28.5769   39.7620   24.0535 C   0  0  0  0  0  0  0  0  0  0  0  0
   26.6508   40.3295   22.5893 C   0  0  0  0  0  0  0  0  0  0  0  0
  1  2  1  0  0  0  0
  3  1  1  6  0  0  0
  3  4  1  0  0  0  0
  3  5  1  0  0  0  0
  5  6  1  1  0  0  0
  5  7  1  0  0  0  0
  7  8  1  6  0  0  0
  7  9  1  0  0  0  0
  9 27  1  0  0  0  0
 10 11  1  0  0  0  0
 11 12  2  0  0  0  0
 11 13  1  0  0  0  0
 13 14  1  0  0  0  0
 14 16  2  0  0  0  0
 15 14  1  1  0  0  0
 15 18  1  0  0  0  0
 15 26  1  0  0  0  0
 17 19  1  1  0  0  0
 17 25  1  0  0  0  0
 17 18  1  0  0  0  0
 19 20  1  0  0  0  0
 20 21  1  6  0  0  0
 20 22  1  0  0  0  0
 22 23  1  6  0  0  0
 22 24  1  0  0  0  0
 23 28  1  0  0  0  0
 23 29  1  0  0  0  0
 25 24  1  6  0  0  0
 25 27  1  0  0  0  0
 26 10  1  6  0  0  0
 26 27  1  0  0  0  0
M  END
>  <CHROM.1>
64.00291604,68.31938829,76.71921550,175.41410579,75.01052036,-66.06345213
27.66342579,36.74347838,20.04759732,-1.87910913,-1.44365046,2.68496227

>  <Name>
ligand

>  <RI>
0

>  <Rbt.Current_Directory>
/home/itssahil/PROJECTS/Mol_Feturizer/New_Systems/rnas/3F4H

>  <Rbt.Executable>
rbdock ($Id: //depot/dev/client3/rdock/2013.1/src/exe/rbdock.cxx#4 $)

>  <Rbt.Library>
libRbt.so (2013.1, Build901 2013/11/27)

>  <Rbt.Parameter_File>
/export/apps/rDock/src/rDock_2013.1_src/data/scripts/dock_solv.prm

>  <Rbt.Receptor>
prm/pocket_docking_5.prm

>  <SCORE>
-47.5152

>  <SCORE.INTER>
-30.4577

>  <SCORE.INTER.CONST>
1

>  <SCORE.INTER.POLAR>
0

>  <SCORE.INTER.ROT>
6

>  <SCORE.INTER.SOLV>
11.0688

>  <SCORE.INTER.VDW>
-31.5947

>  <SCORE.INTER.norm>
-1.05026

>  <SCORE.INTRA>
-17.0575

>  <SCORE.INTRA.DIHEDRAL>
-3.45356

>  <SCORE.INTRA.DIHEDRAL.0>
6.83446

>  <SCORE.INTRA.POLAR>
0

>  <SCORE.INTRA.POLAR.0>
0

>  <SCORE.INTRA.REPUL>
0

>  <SCORE.INTRA.REPUL.0>
0

>  <SCORE.INTRA.SOLV>
-0.430487

>  <SCORE.INTRA.SOLV.lig_0>
-26.4601

>  <SCORE.INTRA.VDW>
-15.1155

>  <SCORE.INTRA.VDW.0>
13.7853

>  <SCORE.INTRA.norm>
-0.58819

>  <SCORE.RESTR>
0

>  <SCORE.RESTR.CAVITY>
0

>  <SCORE.RESTR.norm>
0

>  <SCORE.SYSTEM>
0

>  <SCORE.SYSTEM.CONST>
0

>  <SCORE.SYSTEM.DIHEDRAL>
0

>  <SCORE.SYSTEM.SOLV>
0

>  <SCORE.SYSTEM.norm>
0

>  <SCORE.heavy>
29

>  <SCORE.norm>
-1.63845

>  <RMSD>
1.288

$$$$
ligand
 OpenBabel11021811473D
libRbt.so/2013.1/901 2013/11/27
 29 31  0  0  0  0  0  0  0  0999 V2000
   28.0137   41.2262   16.6400 C   0  0  0  0  0  0  0  0  0  0  0  0
   27.1716   42.3821   16.5781 O   0  0  0  0  0  0  0  0  0  0  0  0
   27.4429   40.2416   17.6513 C   0  0  1  0  0  0  0  0  0  0  0  0
   26.1430   39.8512   17.2198 O   0  0  0  0  0  0  0  0  0  0  0  0
   28.3462   39.0217   17.7794 C   0  0  1  0  0  0  0  0  0  0  0  0
   29.5765   39.4664   18.3390 O   0  0  0  0  0  0  0  0  0  0  0  0
   27.7720   37.8762   18.6183 C   0  0  1  0  0  0  0  0  0  0  0  0
   26.7331   37.2441   17.8695 O   0  0  0  0  0  0  0  0  0  0  0  0
   28.8060   36.8141   18.9866 C   0  0  0  0  0  0  0  0  0  0  0  0
   28.5738   34.0729   18.3518 N   0  0  0  0  0  0  0  0  0  0  0  0
   28.4815   32.7554   18.0145 C   0  0  0  0  0  0  0  0  0  0  0  0
   28.8751   32.3579   16.8895 O   0  0  0  0  0  0  0  0  0  0  0  0
   27.9583   31.8586   18.8885 N   0  0  0  0  0  0  0  0  0  0  0  0
   27.5186   32.2520   20.1103 C   0  0  0  0  0  0  0  0  0  0  0  0
   27.6077   33.5924   20.4685 C   0  0  1  0  0  0  0  0  0  0  0  0
   27.0332   31.4188   20.9149 O   0  0  0  0  0  0  0  0  0  0  0  0
   27.2660   35.2936   22.0319 C   0  0  1  0  0  0  0  0  0  0  0  0
   27.1775   33.9934   21.6845 N   0  0  0  0  0  0  0  0  0  0  0  0
   26.8203   35.6978   23.2855 C   0  0  0  0  0  0  0  0  0  0  0  0
   26.9006   37.0306   23.6738 C   0  0  2  0  0  0  0  0  0  0  0  0
   26.3981   37.3993   25.0460 C   0  0  0  0  0  0  0  0  0  0  0  0
   27.4369   37.9791   22.7937 C   0  0  2  0  0  0  0  0  0  0  0  0
   27.5474   39.3056   23.1057 N   0  0  0  0  0  0  0  0  0  0  0  0
   27.8804   37.5574   21.5343 C   0  0  0  0  0  0  0  0  0  0  0  0
   27.8006   36.2221   21.1402 C   0  0  2  0  0  0  0  0  0  0  0  0
   28.1480   34.5172   19.5696 C   0  0  2  0  0  0  0  0  0  0  0  0
   28.2291   35.8267   19.9196 N   0  0  0  0  0  0  0  0  0  0  0  0
   28.5958   39.7476   24.0057 C   0  0  0  0  0  0  0  0  0  0  0  0
   26.6511   40.3148   22.5663 C   0  0  0  0  0  0  0  0  0  0  0  0
  1  2  1  0  0  0  0
  3  1  1  6  0  0  0
  3  4  1  0  0  0  0
  3  5  1  0  0  0  0
  5  6  1  1  0  0  0
  5  7  1  0  0  0  0
  7  8  1  6  0  0  0
  7  9  1  0  0  0  0
  9 27  1  0  0  0  0
 10 11  1  0  0  0  0
 11 12  2  0  0  0  0
 11 13  1  0  0  0  0
 13 14  1  0  0  0  0
 14 16  2  0  0  0  0
 15 14  1  1  0  0  0
 15 18  1  0  0  0  0
 15 26  1  0  0  0  0
 17 19  1  1  0  0  0
 17 25  1  0  0  0  0
 17 18  1  0  0  0  0
 19 20  1  0  0  0  0
 20 21  1  6  0  0  0
 20 22  1  0  0  0  0
 22 23  1  6  0  0  0
 22 24  1  0  0  0  0
 23 28  1  0  0  0  0
 23 29  1  0  0  0  0
 25 24  1  6  0  0  0
 25 27  1  0  0  0  0
 26 10  1  6  0  0  0
 26 27  1  0  0  0  0
M  END
>  <CHROM.1>
60.99384964,65.64414611,72.76385817,173.44732451,75.95330672,-62.36143162
27.68365692,36.75047521,20.04956972,-1.80429366,-1.43778982,2.78334996

>  <Name>
ligand

>  <RI>
0

>  <Rbt.Current_Directory>
/home/itssahil/PROJECTS/Mol_Feturizer/New_Systems/rnas/3F4H

>  <Rbt.Executable>
rbdock ($Id: //depot/dev/client3/rdock/2013.1/src/exe/rbdock.cxx#4 $)

>  <Rbt.Library>
libRbt.so (2013.1, Build901 2013/11/27)

>  <Rbt.Parameter_File>
/export/apps/rDock/src/rDock_2013.1_src/data/scripts/dock_solv.prm

>  <Rbt.Receptor>
prm/pocket_docking_3.prm

>  <SCORE>
-47.6688

>  <SCORE.INTER>
-30.399

>  <SCORE.INTER.CONST>
1

>  <SCORE.INTER.POLAR>
0

>  <SCORE.INTER.ROT>
6

>  <SCORE.INTER.SOLV>
10.9257

>  <SCORE.INTER.VDW>
-31.5079

>  <SCORE.INTER.norm>
-1.04824

>  <SCORE.INTRA>
-17.2698

>  <SCORE.INTRA.DIHEDRAL>
-3.9574

>  <SCORE.INTRA.DIHEDRAL.0>
6.83446

>  <SCORE.INTRA.POLAR>
0

>  <SCORE.INTRA.POLAR.0>
0

>  <SCORE.INTRA.REPUL>
0

>  <SCORE.INTRA.REPUL.0>
0

>  <SCORE.INTRA.SOLV>
-0.422693

>  <SCORE.INTRA.SOLV.lig_0>
-26.4601

>  <SCORE.INTRA.VDW>
-15.0798

>  <SCORE.INTRA.VDW.0>
13.7853

>  <SCORE.INTRA.norm>
-0.595511

>  <SCORE.RESTR>
0

>  <SCORE.RESTR.CAVITY>
0

>  <SCORE.RESTR.norm>
0

>  <SCORE.SYSTEM>
0

>  <SCORE.SYSTEM.CONST>
0

>  <SCORE.SYSTEM.DIHEDRAL>
0

>  <SCORE.SYSTEM.SOLV>
0

>  <SCORE.SYSTEM.norm>
0

>  <SCORE.heavy>
29

>  <SCORE.norm>
-1.64375

>  <RMSD>
1.290

$$$$
ligand
 OpenBabel11021811473D
libRbt.so/2013.1/901 2013/11/27
 29 31  0  0  0  0  0  0  0  0999 V2000
   29.2712   40.7179   16.5680 C   0  0  0  0  0  0  0  0  0  0  0  0
   30.1161   40.8335   15.4183 O   0  0  0  0  0  0  0  0  0  0  0  0
   28.9018   39.2556   16.7758 C   0  0  1  0  0  0  0  0  0  0  0  0
   30.0975   38.5121   16.9902 O   0  0  0  0  0  0  0  0  0  0  0  0
   27.9642   39.1042   17.9667 C   0  0  1  0  0  0  0  0  0  0  0  0
   26.7907   39.8545   17.6759 O   0  0  0  0  0  0  0  0  0  0  0  0
   27.5906   37.6609   18.3172 C   0  0  1  0  0  0  0  0  0  0  0  0
   27.2007   36.9909   17.1178 O   0  0  0  0  0  0  0  0  0  0  0  0
   28.7353   36.8729   18.9510 C   0  0  0  0  0  0  0  0  0  0  0  0
   28.5530   34.1275   18.3180 N   0  0  0  0  0  0  0  0  0  0  0  0
   28.4836   32.8085   17.9810 C   0  0  0  0  0  0  0  0  0  0  0  0
   28.8505   32.4228   16.8430 O   0  0  0  0  0  0  0  0  0  0  0  0
   28.0122   31.8974   18.8696 N   0  0  0  0  0  0  0  0  0  0  0  0
   27.6025   32.2777   20.1058 C   0  0  0  0  0  0  0  0  0  0  0  0
   27.6687   33.6194   20.4639 C   0  0  1  0  0  0  0  0  0  0  0  0
   27.1649   31.4312   20.9240 O   0  0  0  0  0  0  0  0  0  0  0  0
   27.3345   35.3092   22.0413 C   0  0  1  0  0  0  0  0  0  0  0  0
   27.2681   34.0076   21.6941 N   0  0  0  0  0  0  0  0  0  0  0  0
   26.9195   35.7001   23.3096 C   0  0  0  0  0  0  0  0  0  0  0  0
   26.9782   37.0340   23.6980 C   0  0  2  0  0  0  0  0  0  0  0  0
   26.5111   37.3878   25.0865 C   0  0  0  0  0  0  0  0  0  0  0  0
   27.4611   37.9972   22.8030 C   0  0  2  0  0  0  0  0  0  0  0  0
   27.5477   39.3256   23.1142 N   0  0  0  0  0  0  0  0  0  0  0  0
   27.8741   37.5887   21.5290 C   0  0  0  0  0  0  0  0  0  0  0  0
   27.8159   36.2524   21.1348 C   0  0  2  0  0  0  0  0  0  0  0  0
   28.1557   34.5591   19.5500 C   0  0  2  0  0  0  0  0  0  0  0  0
   28.2145   35.8698   19.9000 N   0  0  0  0  0  0  0  0  0  0  0  0
   26.5914   40.2599   22.5511 C   0  0  0  0  0  0  0  0  0  0  0  0
   28.5684   39.8575   24.0020 C   0  0  0  0  0  0  0  0  0  0  0  0
  1  2  1  0  0  0  0
  3  1  1  1  0  0  0
  3  4  1  0  0  0  0
  3  5  1  0  0  0  0
  5  6  1  6  0  0  0
  5  7  1  0  0  0  0
  7  8  1  6  0  0  0
  7  9  1  0  0  0  0
  9 27  1  0  0  0  0
 10 11  1  0  0  0  0
 11 12  2  0  0  0  0
 11 13  1  0  0  0  0
 13 14  1  0  0  0  0
 14 16  2  0  0  0  0
 15 14  1  1  0  0  0
 15 18  1  0  0  0  0
 15 26  1  0  0  0  0
 17 19  1  1  0  0  0
 17 25  1  0  0  0  0
 17 18  1  0  0  0  0
 19 20  1  0  0  0  0
 20 21  1  6  0  0  0
 20 22  1  0  0  0  0
 22 23  1  6  0  0  0
 22 24  1  0  0  0  0
 23 28  1  0  0  0  0
 23 29  1  0  0  0  0
 25 24  1  6  0  0  0
 25 27  1  0  0  0  0
 26 10  1  6  0  0  0
 26 27  1  0  0  0  0
M  END
>  <CHROM.1>
60.72031036,60.67689849,-47.95359839,148.68379318,-105.42016011,-78.32549873
27.96088368,36.60576604,19.89806260,-0.96242444,-1.31914415,-2.94499710

>  <Name>
ligand

>  <RI>
0

>  <Rbt.Current_Directory>
/home/itssahil/PROJECTS/Mol_Feturizer/New_Systems/rnas/3F4H

>  <Rbt.Executable>
rbdock ($Id: //depot/dev/client3/rdock/2013.1/src/exe/rbdock.cxx#4 $)

>  <Rbt.Library>
libRbt.so (2013.1, Build901 2013/11/27)

>  <Rbt.Parameter_File>
/export/apps/rDock/src/rDock_2013.1_src/data/scripts/dock_solv.prm

>  <Rbt.Receptor>
prm/blind_docking_80.prm

>  <SCORE>
-47.597

>  <SCORE.INTER>
-31.4981

>  <SCORE.INTER.CONST>
1

>  <SCORE.INTER.POLAR>
0

>  <SCORE.INTER.ROT>
6

>  <SCORE.INTER.SOLV>
11.4108

>  <SCORE.INTER.VDW>
-32.4024

>  <SCORE.INTER.norm>
-1.08614

>  <SCORE.INTRA>
-16.0989

>  <SCORE.INTRA.DIHEDRAL>
-1.44021

>  <SCORE.INTRA.DIHEDRAL.0>
6.83446

>  <SCORE.INTRA.POLAR>
0

>  <SCORE.INTRA.POLAR.0>
0

>  <SCORE.INTRA.REPUL>
0

>  <SCORE.INTRA.REPUL.0>
0

>  <SCORE.INTRA.SOLV>
-0.269687

>  <SCORE.INTRA.SOLV.lig_0>
-26.4601

>  <SCORE.INTRA.VDW>
-15.2439

>  <SCORE.INTRA.VDW.0>
13.7853

>  <SCORE.INTRA.norm>
-0.555133

>  <SCORE.RESTR>
0

>  <SCORE.RESTR.CAVITY>
0

>  <SCORE.RESTR.norm>
0

>  <SCORE.SYSTEM>
0

>  <SCORE.SYSTEM.CONST>
0

>  <SCORE.SYSTEM.DIHEDRAL>
0

>  <SCORE.SYSTEM.SOLV>
0

>  <SCORE.SYSTEM.norm>
0

>  <SCORE.heavy>
29

>  <SCORE.norm>
-1.64128

>  <RMSD>
1.292

$$$$
ligand
 OpenBabel11021811473D
libRbt.so/2013.1/901 2013/11/27
 29 31  0  0  0  0  0  0  0  0999 V2000
   28.5275   40.3420   16.9918 C   0  0  0  0  0  0  0  0  0  0  0  0
   29.6853   41.1690   16.8354 O   0  0  0  0  0  0  0  0  0  0  0  0
   28.3720   39.9666   18.4591 C   0  0  1  0  0  0  0  0  0  0  0  0
   28.1056   41.1509   19.2041 O   0  0  0  0  0  0  0  0  0  0  0  0
   27.2397   38.9634   18.6379 C   0  0  1  0  0  0  0  0  0  0  0  0
   26.1026   39.4880   17.9623 O   0  0  0  0  0  0  0  0  0  0  0  0
   27.5425   37.5490   18.1346 C   0  0  1  0  0  0  0  0  0  0  0  0
   27.8781   37.6246   16.7485 O   0  0  0  0  0  0  0  0  0  0  0  0
   28.7016   36.8773   18.8681 C   0  0  0  0  0  0  0  0  0  0  0  0
   28.5250   34.1251   18.2637 N   0  0  0  0  0  0  0  0  0  0  0  0
   28.4579   32.8026   17.9402 C   0  0  0  0  0  0  0  0  0  0  0  0
   28.8109   32.4080   16.8009 O   0  0  0  0  0  0  0  0  0  0  0  0
   28.0037   31.8975   18.8438 N   0  0  0  0  0  0  0  0  0  0  0  0
   27.6093   32.2875   20.0821 C   0  0  0  0  0  0  0  0  0  0  0  0
   27.6734   33.6329   20.4265 C   0  0  1  0  0  0  0  0  0  0  0  0
   27.1876   31.4465   20.9142 O   0  0  0  0  0  0  0  0  0  0  0  0
   27.3524   35.3359   21.9924 C   0  0  1  0  0  0  0  0  0  0  0  0
   27.2880   34.0307   21.6585 N   0  0  0  0  0  0  0  0  0  0  0  0
   26.9530   35.7366   23.2626 C   0  0  0  0  0  0  0  0  0  0  0  0
   27.0101   37.0744   23.6375 C   0  0  2  0  0  0  0  0  0  0  0  0
   26.5606   37.4391   25.0291 C   0  0  0  0  0  0  0  0  0  0  0  0
   27.4754   38.0316   22.7269 C   0  0  2  0  0  0  0  0  0  0  0  0
   27.5593   39.3633   23.0242 N   0  0  0  0  0  0  0  0  0  0  0  0
   27.8727   37.6131   21.4511 C   0  0  0  0  0  0  0  0  0  0  0  0
   27.8160   36.2728   21.0704 C   0  0  2  0  0  0  0  0  0  0  0  0
   28.1426   34.5663   19.4970 C   0  0  2  0  0  0  0  0  0  0  0  0
   28.1994   35.8805   19.8338 N   0  0  0  0  0  0  0  0  0  0  0  0
   26.5915   40.2876   22.4643 C   0  0  0  0  0  0  0  0  0  0  0  0
   28.5884   39.9086   23.8940 C   0  0  0  0  0  0  0  0  0  0  0  0
  1  2  1  0  0  0  0
  3  1  1  6  0  0  0
  3  4  1  0  0  0  0
  3  5  1  0  0  0  0
  5  6  1  6  0  0  0
  5  7  1  0  0  0  0
  7  8  1  6  0  0  0
  7  9  1  0  0  0  0
  9 27  1  0  0  0  0
 10 11  1  0  0  0  0
 11 12  2  0  0  0  0
 11 13  1  0  0  0  0
 13 14  1  0  0  0  0
 14 16  2  0  0  0  0
 15 14  1  1  0  0  0
 15 18  1  0  0  0  0
 15 26  1  0  0  0  0
 17 19  1  1  0  0  0
 17 25  1  0  0  0  0
 17 18  1  0  0  0  0
 19 20  1  0  0  0  0
 20 21  1  6  0  0  0
 20 22  1  0  0  0  0
 22 23  1  6  0  0  0
 22 24  1  0  0  0  0
 23 28  1  0  0  0  0
 23 29  1  0  0  0  0
 25 24  1  6  0  0  0
 25 27  1  0  0  0  0
 26 10  1  6  0  0  0
 26 27  1  0  0  0  0
M  END
>  <CHROM.1>
65.06958564,-50.35685936,-57.86566976,103.52921956,-105.50500005,-84.36292682
27.79653193,36.75146305,20.08641129,-1.59044732,-1.38504320,-3.08544354

>  <Name>
ligand

>  <RI>
0

>  <Rbt.Current_Directory>
/home/itssahil/PROJECTS/Mol_Feturizer/New_Systems/rnas/3F4H

>  <Rbt.Executable>
rbdock ($Id: //depot/dev/client3/rdock/2013.1/src/exe/rbdock.cxx#4 $)

>  <Rbt.Library>
libRbt.so (2013.1, Build901 2013/11/27)

>  <Rbt.Parameter_File>
/export/apps/rDock/src/rDock_2013.1_src/data/scripts/dock_solv.prm

>  <Rbt.Receptor>
prm/pocket_docking_4.prm

>  <SCORE>
-45.91

>  <SCORE.INTER>
-30.6913

>  <SCORE.INTER.CONST>
1

>  <SCORE.INTER.POLAR>
0

>  <SCORE.INTER.ROT>
6

>  <SCORE.INTER.SOLV>
10.8557

>  <SCORE.INTER.VDW>
-31.6795

>  <SCORE.INTER.norm>
-1.05832

>  <SCORE.INTRA>
-15.2187

>  <SCORE.INTRA.DIHEDRAL>
0.026457

>  <SCORE.INTRA.DIHEDRAL.0>
6.83446

>  <SCORE.INTRA.POLAR>
0

>  <SCORE.INTRA.POLAR.0>
0

>  <SCORE.INTRA.REPUL>
0

>  <SCORE.INTRA.REPUL.0>
0

>  <SCORE.INTRA.SOLV>
-0.151147

>  <SCORE.INTRA.SOLV.lig_0>
-26.4601

>  <SCORE.INTRA.VDW>
-15.1564

>  <SCORE.INTRA.VDW.0>
13.7853

>  <SCORE.INTRA.norm>
-0.524783

>  <SCORE.RESTR>
0

>  <SCORE.RESTR.CAVITY>
0

>  <SCORE.RESTR.norm>
0

>  <SCORE.SYSTEM>
0

>  <SCORE.SYSTEM.CONST>
0

>  <SCORE.SYSTEM.DIHEDRAL>
0

>  <SCORE.SYSTEM.SOLV>
0

>  <SCORE.SYSTEM.norm>
0

>  <SCORE.heavy>
29

>  <SCORE.norm>
-1.5831

>  <RMSD>
1.293

$$$$
ligand
 OpenBabel11021811473D
libRbt.so/2013.1/901 2013/11/27
 29 31  0  0  0  0  0  0  0  0999 V2000
   28.0459   41.2207   16.6539 C   0  0  0  0  0  0  0  0  0  0  0  0
   27.2297   42.3963   16.6240 O   0  0  0  0  0  0  0  0  0  0  0  0
   27.4554   40.2232   17.6410 C   0  0  1  0  0  0  0  0  0  0  0  0
   26.1626   39.8417   17.1811 O   0  0  0  0  0  0  0  0  0  0  0  0
   28.3540   38.9998   17.7681 C   0  0  1  0  0  0  0  0  0  0  0  0
   29.5900   39.4413   18.3178 O   0  0  0  0  0  0  0  0  0  0  0  0
   27.7802   37.8604   18.6155 C   0  0  1  0  0  0  0  0  0  0  0  0
   26.7491   37.2153   17.8670 O   0  0  0  0  0  0  0  0  0  0  0  0
   28.8171   36.8074   19.0012 C   0  0  0  0  0  0  0  0  0  0  0  0
   28.5840   34.0653   18.3702 N   0  0  0  0  0  0  0  0  0  0  0  0
   28.4913   32.7474   18.0348 C   0  0  0  0  0  0  0  0  0  0  0  0
   28.8874   32.3477   16.9115 O   0  0  0  0  0  0  0  0  0  0  0  0
   27.9649   31.8525   18.9089 N   0  0  0  0  0  0  0  0  0  0  0  0
   27.5224   32.2483   20.1289 C   0  0  0  0  0  0  0  0  0  0  0  0
   27.6118   33.5892   20.4852 C   0  0  1  0  0  0  0  0  0  0  0  0
   27.0340   31.4168   20.9336 O   0  0  0  0  0  0  0  0  0  0  0  0
   27.2677   35.2933   22.0450 C   0  0  1  0  0  0  0  0  0  0  0  0
   27.1789   33.9926   21.6994 N   0  0  0  0  0  0  0  0  0  0  0  0
   26.8191   35.6999   23.2968 C   0  0  0  0  0  0  0  0  0  0  0  0
   26.8997   37.0332   23.6831 C   0  0  2  0  0  0  0  0  0  0  0  0
   26.3939   37.4047   25.0534 C   0  0  0  0  0  0  0  0  0  0  0  0
   27.4392   37.9798   22.8028 C   0  0  2  0  0  0  0  0  0  0  0  0
   27.5502   39.3067   23.1130 N   0  0  0  0  0  0  0  0  0  0  0  0
   27.8856   37.5557   21.5453 C   0  0  0  0  0  0  0  0  0  0  0  0
   27.8055   36.2198   21.1532 C   0  0  2  0  0  0  0  0  0  0  0  0
   28.1554   34.5121   19.5862 C   0  0  2  0  0  0  0  0  0  0  0  0
   28.2369   35.8220   19.9343 N   0  0  0  0  0  0  0  0  0  0  0  0
   28.6041   39.7508   24.0055 C   0  0  0  0  0  0  0  0  0  0  0  0
   26.6489   40.3143   22.5789 C   0  0  0  0  0  0  0  0  0  0  0  0
  1  2  1  0  0  0  0
  3  1  1  6  0  0  0
  3  4  1  0  0  0  0
  3  5  1  0  0  0  0
  5  6  1  1  0  0  0
  5  7  1  0  0  0  0
  7  8  1  6  0  0  0
  7  9  1  0  0  0  0
  9 27  1  0  0  0  0
 10 11  1  0  0  0  0
 11 12  2  0  0  0  0
 11 13  1  0  0  0  0
 13 14  1  0  0  0  0
 14 16  2  0  0  0  0
 15 14  1  1  0  0  0
 15 18  1  0  0  0  0
 15 26  1  0  0  0  0
 17 19  1  1  0  0  0
 17 25  1  0  0  0  0
 17 18  1  0  0  0  0
 19 20  1  0  0  0  0
 20 21  1  6  0  0  0
 20 22  1  0  0  0  0
 22 23  1  6  0  0  0
 22 24  1  0  0  0  0
 23 28  1  0  0  0  0
 23 29  1  0  0  0  0
 25 24  1  6  0  0  0
 25 27  1  0  0  0  0
 26 10  1  6  0  0  0
 26 27  1  0  0  0  0
M  END
>  <CHROM.1>
62.77079333,63.89854869,73.74659336,173.80707560,76.51232420,-63.03720536
27.69314776,36.74484230,20.05835627,-1.78293723,-1.43519020,2.80275664

>  <Name>
ligand

>  <RI>
0

>  <Rbt.Current_Directory>
/home/itssahil/PROJECTS/Mol_Feturizer/New_Systems/rnas/3F4H

>  <Rbt.Executable>
rbdock ($Id: //depot/dev/client3/rdock/2013.1/src/exe/rbdock.cxx#4 $)

>  <Rbt.Library>
libRbt.so (2013.1, Build901 2013/11/27)

>  <Rbt.Parameter_File>
/export/apps/rDock/src/rDock_2013.1_src/data/scripts/dock_solv.prm

>  <Rbt.Receptor>
prm/pocket_docking_5.prm

>  <SCORE>
-47.6385

>  <SCORE.INTER>
-30.3314

>  <SCORE.INTER.CONST>
1

>  <SCORE.INTER.POLAR>
0

>  <SCORE.INTER.ROT>
6

>  <SCORE.INTER.SOLV>
10.9869

>  <SCORE.INTER.VDW>
-31.4832

>  <SCORE.INTER.norm>
-1.04591

>  <SCORE.INTRA>
-17.3071

>  <SCORE.INTRA.DIHEDRAL>
-3.92189

>  <SCORE.INTRA.DIHEDRAL.0>
6.83446

>  <SCORE.INTRA.POLAR>
0

>  <SCORE.INTRA.POLAR.0>
0

>  <SCORE.INTRA.REPUL>
0

>  <SCORE.INTRA.REPUL.0>
0

>  <SCORE.INTRA.SOLV>
-0.430538

>  <SCORE.INTRA.SOLV.lig_0>
-26.4601

>  <SCORE.INTRA.VDW>
-15.1309

>  <SCORE.INTRA.VDW.0>
13.7853

>  <SCORE.INTRA.norm>
-0.596796

>  <SCORE.RESTR>
0

>  <SCORE.RESTR.CAVITY>
0

>  <SCORE.RESTR.norm>
0

>  <SCORE.SYSTEM>
0

>  <SCORE.SYSTEM.CONST>
0

>  <SCORE.SYSTEM.DIHEDRAL>
0

>  <SCORE.SYSTEM.SOLV>
0

>  <SCORE.SYSTEM.norm>
0

>  <SCORE.heavy>
29

>  <SCORE.norm>
-1.64271

>  <RMSD>
1.293

$$$$
ligand
 OpenBabel11021811473D
libRbt.so/2013.1/901 2013/11/27
 29 31  0  0  0  0  0  0  0  0999 V2000
   29.2382   40.6533   16.5209 C   0  0  0  0  0  0  0  0  0  0  0  0
   30.0741   40.7428   15.3624 O   0  0  0  0  0  0  0  0  0  0  0  0
   28.8936   39.1933   16.7811 C   0  0  1  0  0  0  0  0  0  0  0  0
   30.0975   38.4869   17.0638 O   0  0  0  0  0  0  0  0  0  0  0  0
   27.9228   39.0723   17.9487 C   0  0  1  0  0  0  0  0  0  0  0  0
   26.7558   39.8095   17.6033 O   0  0  0  0  0  0  0  0  0  0  0  0
   27.5437   37.6380   18.3293 C   0  0  1  0  0  0  0  0  0  0  0  0
   27.1055   36.9586   17.1520 O   0  0  0  0  0  0  0  0  0  0  0  0
   28.6993   36.8434   18.9341 C   0  0  0  0  0  0  0  0  0  0  0  0
   28.5490   34.0970   18.2967 N   0  0  0  0  0  0  0  0  0  0  0  0
   28.4949   32.7779   17.9574 C   0  0  0  0  0  0  0  0  0  0  0  0
   28.8616   32.3990   16.8170 O   0  0  0  0  0  0  0  0  0  0  0  0
   28.0390   31.8592   18.8463 N   0  0  0  0  0  0  0  0  0  0  0  0
   27.6301   32.2320   20.0851 C   0  0  0  0  0  0  0  0  0  0  0  0
   27.6809   33.5737   20.4455 C   0  0  1  0  0  0  0  0  0  0  0  0
   27.2069   31.3784   20.9035 O   0  0  0  0  0  0  0  0  0  0  0  0
   27.3323   35.2562   22.0276 C   0  0  1  0  0  0  0  0  0  0  0  0
   27.2808   33.9545   21.6782 N   0  0  0  0  0  0  0  0  0  0  0  0
   26.9180   35.6393   23.2985 C   0  0  0  0  0  0  0  0  0  0  0  0
   26.9614   36.9731   23.6892 C   0  0  2  0  0  0  0  0  0  0  0  0
   26.4962   37.3184   25.0805 C   0  0  0  0  0  0  0  0  0  0  0  0
   27.4281   37.9441   22.7940 C   0  0  2  0  0  0  0  0  0  0  0  0
   27.4992   39.2729   23.1073 N   0  0  0  0  0  0  0  0  0  0  0  0
   27.8406   37.5433   21.5173 C   0  0  0  0  0  0  0  0  0  0  0  0
   27.7976   36.2071   21.1208 C   0  0  2  0  0  0  0  0  0  0  0  0
   28.1518   34.5212   19.5312 C   0  0  2  0  0  0  0  0  0  0  0  0
   28.1955   35.8319   19.8835 N   0  0  0  0  0  0  0  0  0  0  0  0
   26.5291   40.1962   22.5497 C   0  0  0  0  0  0  0  0  0  0  0  0
   28.5167   39.8159   23.9921 C   0  0  0  0  0  0  0  0  0  0  0  0
  1  2  1  0  0  0  0
  3  1  1  1  0  0  0
  3  4  1  0  0  0  0
  3  5  1  0  0  0  0
  5  6  1  6  0  0  0
  5  7  1  0  0  0  0
  7  8  1  6  0  0  0
  7  9  1  0  0  0  0
  9 27  1  0  0  0  0
 10 11  1  0  0  0  0
 11 12  2  0  0  0  0
 11 13  1  0  0  0  0
 13 14  1  0  0  0  0
 14 16  2  0  0  0  0
 15 14  1  1  0  0  0
 15 18  1  0  0  0  0
 15 26  1  0  0  0  0
 17 19  1  1  0  0  0
 17 25  1  0  0  0  0
 17 18  1  0  0  0  0
 19 20  1  0  0  0  0
 20 21  1  6  0  0  0
 20 22  1  0  0  0  0
 22 23  1  6  0  0  0
 22 24  1  0  0  0  0
 23 28  1  0  0  0  0
 23 29  1  0  0  0  0
 25 24  1  6  0  0  0
 25 27  1  0  0  0  0
 26 10  1  6  0  0  0
 26 27  1  0  0  0  0
M  END
>  <CHROM.1>
62.92941875,59.30958398,-51.74029945,150.31119194,-105.45239455,-77.11822380
27.94276996,36.55929536,19.88497231,-0.98179930,-1.32084934,-2.97780002

>  <Name>
ligand

>  <RI>
0

>  <Rbt.Current_Directory>
/home/itssahil/PROJECTS/Mol_Feturizer/New_Systems/rnas/3F4H

>  <Rbt.Executable>
rbdock ($Id: //depot/dev/client3/rdock/2013.1/src/exe/rbdock.cxx#4 $)

>  <Rbt.Library>
libRbt.so (2013.1, Build901 2013/11/27)

>  <Rbt.Parameter_File>
/export/apps/rDock/src/rDock_2013.1_src/data/scripts/dock_solv.prm

>  <Rbt.Receptor>
prm/pocket_docking_5.prm

>  <SCORE>
-47.7269

>  <SCORE.INTER>
-31.5522

>  <SCORE.INTER.CONST>
1

>  <SCORE.INTER.POLAR>
0

>  <SCORE.INTER.ROT>
6

>  <SCORE.INTER.SOLV>
11.6341

>  <SCORE.INTER.VDW>
-32.5128

>  <SCORE.INTER.norm>
-1.08801

>  <SCORE.INTRA>
-16.1747

>  <SCORE.INTRA.DIHEDRAL>
-1.90698

>  <SCORE.INTRA.DIHEDRAL.0>
6.83446

>  <SCORE.INTRA.POLAR>
0

>  <SCORE.INTRA.POLAR.0>
0

>  <SCORE.INTRA.REPUL>
0

>  <SCORE.INTRA.REPUL.0>
0

>  <SCORE.INTRA.SOLV>
-0.279319

>  <SCORE.INTRA.SOLV.lig_0>
-26.4601

>  <SCORE.INTRA.VDW>
-15.0815

>  <SCORE.INTRA.VDW.0>
13.7853

>  <SCORE.INTRA.norm>
-0.557748

>  <SCORE.RESTR>
0

>  <SCORE.RESTR.CAVITY>
0

>  <SCORE.RESTR.norm>
0

>  <SCORE.SYSTEM>
0

>  <SCORE.SYSTEM.CONST>
0

>  <SCORE.SYSTEM.DIHEDRAL>
0

>  <SCORE.SYSTEM.SOLV>
0

>  <SCORE.SYSTEM.norm>
0

>  <SCORE.heavy>
29

>  <SCORE.norm>
-1.64575

>  <RMSD>
1.296

$$$$
ligand
 OpenBabel11021811473D
libRbt.so/2013.1/901 2013/11/27
 29 31  0  0  0  0  0  0  0  0999 V2000
   29.2833   40.7183   16.6214 C   0  0  0  0  0  0  0  0  0  0  0  0
   30.1576   40.8459   15.4952 O   0  0  0  0  0  0  0  0  0  0  0  0
   28.9341   39.2502   16.8234 C   0  0  1  0  0  0  0  0  0  0  0  0
   30.1359   38.5293   17.0772 O   0  0  0  0  0  0  0  0  0  0  0  0
   27.9632   39.0858   17.9855 C   0  0  1  0  0  0  0  0  0  0  0  0
   26.7895   39.8214   17.6600 O   0  0  0  0  0  0  0  0  0  0  0  0
   27.5977   37.6375   18.3238 C   0  0  1  0  0  0  0  0  0  0  0  0
   27.2252   36.9715   17.1166 O   0  0  0  0  0  0  0  0  0  0  0  0
   28.7421   36.8549   18.9645 C   0  0  0  0  0  0  0  0  0  0  0  0
   28.5594   34.1111   18.3246 N   0  0  0  0  0  0  0  0  0  0  0  0
   28.4899   32.7930   17.9844 C   0  0  0  0  0  0  0  0  0  0  0  0
   28.8575   32.4099   16.8457 O   0  0  0  0  0  0  0  0  0  0  0  0
   28.0175   31.8798   18.8703 N   0  0  0  0  0  0  0  0  0  0  0  0
   27.6070   32.2572   20.1071 C   0  0  0  0  0  0  0  0  0  0  0  0
   27.6734   33.5980   20.4686 C   0  0  1  0  0  0  0  0  0  0  0  0
   27.1685   31.4088   20.9229 O   0  0  0  0  0  0  0  0  0  0  0  0
   27.3385   35.2840   22.0499 C   0  0  1  0  0  0  0  0  0  0  0  0
   27.2719   33.9833   21.6994 N   0  0  0  0  0  0  0  0  0  0  0  0
   26.9226   35.6719   23.3188 C   0  0  0  0  0  0  0  0  0  0  0  0
   26.9814   37.0048   23.7105 C   0  0  2  0  0  0  0  0  0  0  0  0
   26.5134   37.3554   25.0996 C   0  0  0  0  0  0  0  0  0  0  0  0
   27.4653   37.9701   22.8183 C   0  0  2  0  0  0  0  0  0  0  0  0
   27.5521   39.2977   23.1328 N   0  0  0  0  0  0  0  0  0  0  0  0
   27.8792   37.5646   21.5436 C   0  0  0  0  0  0  0  0  0  0  0  0
   27.8208   36.2292   21.1461 C   0  0  2  0  0  0  0  0  0  0  0  0
   28.1613   34.5398   19.5573 C   0  0  2  0  0  0  0  0  0  0  0  0
   28.2203   35.8496   19.9107 N   0  0  0  0  0  0  0  0  0  0  0  0
   26.5980   40.2340   22.5694 C   0  0  0  0  0  0  0  0  0  0  0  0
   28.5709   39.8267   24.0244 C   0  0  0  0  0  0  0  0  0  0  0  0
  1  2  1  0  0  0  0
  3  1  1  1  0  0  0
  3  4  1  0  0  0  0
  3  5  1  0  0  0  0
  5  6  1  6  0  0  0
  5  7  1  0  0  0  0
  7  8  1  6  0  0  0
  7  9  1  0  0  0  0
  9 27  1  0  0  0  0
 10 11  1  0  0  0  0
 11 12  2  0  0  0  0
 11 13  1  0  0  0  0
 13 14  1  0  0  0  0
 14 16  2  0  0  0  0
 15 14  1  1  0  0  0
 15 18  1  0  0  0  0
 15 26  1  0  0  0  0
 17 19  1  1  0  0  0
 17 25  1  0  0  0  0
 17 18  1  0  0  0  0
 19 20  1  0  0  0  0
 20 21  1  6  0  0  0
 20 22  1  0  0  0  0
 22 23  1  6  0  0  0
 22 24  1  0  0  0  0
 23 28  1  0  0  0  0
 23 29  1  0  0  0  0
 25 24  1  6  0  0  0
 25 27  1  0  0  0  0
 26 10  1  6  0  0  0
 26 27  1  0  0  0  0
M  END
>  <CHROM.1>
60.89970808,60.27685951,-49.16277950,148.21654459,-105.52863996,-78.75985016
27.97008598,36.58710770,19.91491297,-0.97279642,-1.31676502,-2.93480483

>  <Name>
ligand

>  <RI>
0

>  <Rbt.Current_Directory>
/home/itssahil/PROJECTS/Mol_Feturizer/New_Systems/rnas/3F4H

>  <Rbt.Executable>
rbdock ($Id: //depot/dev/client3/rdock/2013.1/src/exe/rbdock.cxx#4 $)

>  <Rbt.Library>
libRbt.so (2013.1, Build901 2013/11/27)

>  <Rbt.Parameter_File>
/export/apps/rDock/src/rDock_2013.1_src/data/scripts/dock_solv.prm

>  <Rbt.Receptor>
prm/pocket_docking_4.prm

>  <SCORE>
-47.592

>  <SCORE.INTER>
-31.5151

>  <SCORE.INTER.CONST>
1

>  <SCORE.INTER.POLAR>
0

>  <SCORE.INTER.ROT>
6

>  <SCORE.INTER.SOLV>
11.4103

>  <SCORE.INTER.VDW>
-32.4135

>  <SCORE.INTER.norm>
-1.08673

>  <SCORE.INTRA>
-16.0769

>  <SCORE.INTRA.DIHEDRAL>
-1.47147

>  <SCORE.INTRA.DIHEDRAL.0>
6.83446

>  <SCORE.INTRA.POLAR>
0

>  <SCORE.INTRA.POLAR.0>
0

>  <SCORE.INTRA.REPUL>
0

>  <SCORE.INTRA.REPUL.0>
0

>  <SCORE.INTRA.SOLV>
-0.272093

>  <SCORE.INTRA.SOLV.lig_0>
-26.4601

>  <SCORE.INTRA.VDW>
-15.2051

>  <SCORE.INTRA.VDW.0>
13.7853

>  <SCORE.INTRA.norm>
-0.554375

>  <SCORE.RESTR>
0

>  <SCORE.RESTR.CAVITY>
0

>  <SCORE.RESTR.norm>
0

>  <SCORE.SYSTEM>
0

>  <SCORE.SYSTEM.CONST>
0

>  <SCORE.SYSTEM.DIHEDRAL>
0

>  <SCORE.SYSTEM.SOLV>
0

>  <SCORE.SYSTEM.norm>
0

>  <SCORE.heavy>
29

>  <SCORE.norm>
-1.6411

>  <RMSD>
1.297

$$$$
ligand
 OpenBabel11021811473D
libRbt.so/2013.1/901 2013/11/27
 29 31  0  0  0  0  0  0  0  0999 V2000
   28.5391   40.4396   15.9389 C   0  0  0  0  0  0  0  0  0  0  0  0
   27.2726   40.1697   15.3290 O   0  0  0  0  0  0  0  0  0  0  0  0
   28.7357   39.5053   17.1248 C   0  0  1  0  0  0  0  0  0  0  0  0
   27.6456   39.6796   18.0247 O   0  0  0  0  0  0  0  0  0  0  0  0
   28.8103   38.0570   16.6587 C   0  0  1  0  0  0  0  0  0  0  0  0
   30.0116   37.9181   15.9089 O   0  0  0  0  0  0  0  0  0  0  0  0
   28.7676   37.0134   17.7789 C   0  0  1  0  0  0  0  0  0  0  0  0
   29.6962   37.4001   18.7926 O   0  0  0  0  0  0  0  0  0  0  0  0
   27.3911   36.8704   18.4250 C   0  0  0  0  0  0  0  0  0  0  0  0
   27.2893   34.0821   17.9936 N   0  0  0  0  0  0  0  0  0  0  0  0
   27.2432   32.7420   17.7489 C   0  0  0  0  0  0  0  0  0  0  0  0
   27.1488   32.3134   16.5716 O   0  0  0  0  0  0  0  0  0  0  0  0
   27.2935   31.8551   18.7750 N   0  0  0  0  0  0  0  0  0  0  0  0
   27.3906   32.2812   20.0595 C   0  0  0  0  0  0  0  0  0  0  0  0
   27.4399   33.6451   20.3241 C   0  0  1  0  0  0  0  0  0  0  0  0
   27.4347   31.4567   21.0059 O   0  0  0  0  0  0  0  0  0  0  0  0
   27.5915   35.4028   21.8548 C   0  0  1  0  0  0  0  0  0  0  0  0
   27.5418   34.0794   21.5991 N   0  0  0  0  0  0  0  0  0  0  0  0
   27.6958   35.8410   23.1703 C   0  0  0  0  0  0  0  0  0  0  0  0
   27.7518   37.1987   23.4658 C   0  0  2  0  0  0  0  0  0  0  0  0
   27.8634   37.6037   24.9132 C   0  0  0  0  0  0  0  0  0  0  0  0
   27.7031   38.1378   22.4278 C   0  0  2  0  0  0  0  0  0  0  0  0
   27.7529   39.4872   22.6416 N   0  0  0  0  0  0  0  0  0  0  0  0
   27.5966   37.6815   21.1083 C   0  0  0  0  0  0  0  0  0  0  0  0
   27.5390   36.3211   20.8074 C   0  0  2  0  0  0  0  0  0  0  0  0
   27.3898   34.5600   19.2677 C   0  0  2  0  0  0  0  0  0  0  0  0
   27.4328   35.8918   19.5290 N   0  0  0  0  0  0  0  0  0  0  0  0
   29.0068   40.1965   22.4711 C   0  0  0  0  0  0  0  0  0  0  0  0
   26.5876   40.2617   23.0354 C   0  0  0  0  0  0  0  0  0  0  0  0
  1  2  1  0  0  0  0
  3  1  1  6  0  0  0
  3  4  1  0  0  0  0
  3  5  1  0  0  0  0
  5  6  1  1  0  0  0
  5  7  1  0  0  0  0
  7  8  1  1  0  0  0
  7  9  1  0  0  0  0
  9 27  1  0  0  0  0
 10 11  1  0  0  0  0
 11 12  2  0  0  0  0
 11 13  1  0  0  0  0
 13 14  1  0  0  0  0
 14 16  2  0  0  0  0
 15 14  1  6  0  0  0
 15 18  1  0  0  0  0
 15 26  1  0  0  0  0
 17 19  1  6  0  0  0
 17 25  1  0  0  0  0
 17 18  1  0  0  0  0
 19 20  1  0  0  0  0
 20 21  1  1  0  0  0
 20 22  1  0  0  0  0
 22 23  1  1  0  0  0
 22 24  1  0  0  0  0
 23 28  1  0  0  0  0
 23 29  1  0  0  0  0
 25 24  1  1  0  0  0
 25 27  1  0  0  0  0
 26 10  1  1  0  0  0
 26 27  1  0  0  0  0
M  END
>  <CHROM.1>
-56.79042626,67.28244863,-47.88182464,-177.70677465,99.07705758,98.74314047
27.86622624,36.55112850,19.66950699,-0.55980425,-1.42514127,-2.23013681

>  <Name>
ligand

>  <RI>
0

>  <Rbt.Current_Directory>
/home/itssahil/PROJECTS/Mol_Feturizer/New_Systems/rnas/3F4H

>  <Rbt.Executable>
rbdock ($Id: //depot/dev/client3/rdock/2013.1/src/exe/rbdock.cxx#4 $)

>  <Rbt.Library>
libRbt.so (2013.1, Build901 2013/11/27)

>  <Rbt.Parameter_File>
/export/apps/rDock/src/rDock_2013.1_src/data/scripts/dock_solv.prm

>  <Rbt.Receptor>
prm/blind_docking_100.prm

>  <SCORE>
-43.2883

>  <SCORE.INTER>
-25.6372

>  <SCORE.INTER.CONST>
1

>  <SCORE.INTER.POLAR>
0

>  <SCORE.INTER.ROT>
6

>  <SCORE.INTER.SOLV>
10.6927

>  <SCORE.INTER.VDW>
-28.2557

>  <SCORE.INTER.norm>
-0.884041

>  <SCORE.INTRA>
-17.6512

>  <SCORE.INTRA.DIHEDRAL>
-4.07557

>  <SCORE.INTRA.DIHEDRAL.0>
6.83446

>  <SCORE.INTRA.POLAR>
0

>  <SCORE.INTRA.POLAR.0>
0

>  <SCORE.INTRA.REPUL>
0

>  <SCORE.INTRA.REPUL.0>
0

>  <SCORE.INTRA.SOLV>
0.258214

>  <SCORE.INTRA.SOLV.lig_0>
-26.4601

>  <SCORE.INTRA.VDW>
-15.7425

>  <SCORE.INTRA.VDW.0>
13.7853

>  <SCORE.INTRA.norm>
-0.60866

>  <SCORE.RESTR>
0

>  <SCORE.RESTR.CAVITY>
0

>  <SCORE.RESTR.norm>
0

>  <SCORE.SYSTEM>
0

>  <SCORE.SYSTEM.CONST>
0

>  <SCORE.SYSTEM.DIHEDRAL>
0

>  <SCORE.SYSTEM.SOLV>
0

>  <SCORE.SYSTEM.norm>
0

>  <SCORE.heavy>
29

>  <SCORE.norm>
-1.4927

>  <RMSD>
1.301

$$$$
ligand
 OpenBabel11021811473D
libRbt.so/2013.1/901 2013/11/27
 29 31  0  0  0  0  0  0  0  0999 V2000
   29.0069   40.4522   16.1824 C   0  0  0  0  0  0  0  0  0  0  0  0
   29.7937   40.5023   14.9876 O   0  0  0  0  0  0  0  0  0  0  0  0
   28.6166   39.0084   16.4674 C   0  0  1  0  0  0  0  0  0  0  0  0
   29.8052   38.2433   16.6408 O   0  0  0  0  0  0  0  0  0  0  0  0
   27.7473   38.9252   17.7156 C   0  0  1  0  0  0  0  0  0  0  0  0
   26.5504   39.6448   17.4430 O   0  0  0  0  0  0  0  0  0  0  0  0
   27.4114   37.5040   18.1770 C   0  0  1  0  0  0  0  0  0  0  0  0
   26.9186   36.7693   17.0559 O   0  0  0  0  0  0  0  0  0  0  0  0
   28.6106   36.7506   18.7489 C   0  0  0  0  0  0  0  0  0  0  0  0
   28.4871   33.9835   18.2019 N   0  0  0  0  0  0  0  0  0  0  0  0
   28.4442   32.6537   17.9054 C   0  0  0  0  0  0  0  0  0  0  0  0
   28.7641   32.2469   16.7605 O   0  0  0  0  0  0  0  0  0  0  0  0
   28.0502   31.7543   18.8422 N   0  0  0  0  0  0  0  0  0  0  0  0
   27.6929   32.1573   20.0875 C   0  0  0  0  0  0  0  0  0  0  0  0
   27.7329   33.5103   20.4047 C   0  0  1  0  0  0  0  0  0  0  0  0
   27.3268   31.3214   20.9505 O   0  0  0  0  0  0  0  0  0  0  0  0
   27.4251   35.2338   21.9507 C   0  0  1  0  0  0  0  0  0  0  0  0
   27.3841   33.9212   21.6432 N   0  0  0  0  0  0  0  0  0  0  0  0
   27.0638   35.6481   23.2279 C   0  0  0  0  0  0  0  0  0  0  0  0
   27.0982   36.9939   23.5759 C   0  0  2  0  0  0  0  0  0  0  0  0
   26.6924   37.3730   24.9770 C   0  0  0  0  0  0  0  0  0  0  0  0
   27.5016   37.9455   22.6306 C   0  0  2  0  0  0  0  0  0  0  0  0
   27.5600   39.2845   22.9003 N   0  0  0  0  0  0  0  0  0  0  0  0
   27.8612   37.5134   21.3482 C   0  0  0  0  0  0  0  0  0  0  0  0
   27.8271   36.1650   20.9944 C   0  0  2  0  0  0  0  0  0  0  0  0
   28.1402   34.4380   19.4409 C   0  0  2  0  0  0  0  0  0  0  0  0
   28.1735   35.7595   19.7513 N   0  0  0  0  0  0  0  0  0  0  0  0
   26.5592   40.1746   22.3430 C   0  0  0  0  0  0  0  0  0  0  0  0
   28.5936   39.8708   23.7374 C   0  0  0  0  0  0  0  0  0  0  0  0
  1  2  1  0  0  0  0
  3  1  1  1  0  0  0
  3  4  1  0  0  0  0
  3  5  1  0  0  0  0
  5  6  1  6  0  0  0
  5  7  1  0  0  0  0
  7  8  1  6  0  0  0
  7  9  1  0  0  0  0
  9 27  1  0  0  0  0
 10 11  1  0  0  0  0
 11 12  2  0  0  0  0
 11 13  1  0  0  0  0
 13 14  1  0  0  0  0
 14 16  2  0  0  0  0
 15 14  1  1  0  0  0
 15 18  1  0  0  0  0
 15 26  1  0  0  0  0
 17 19  1  1  0  0  0
 17 25  1  0  0  0  0
 17 18  1  0  0  0  0
 19 20  1  0  0  0  0
 20 21  1  6  0  0  0
 20 22  1  0  0  0  0
 22 23  1  6  0  0  0
 22 24  1  0  0  0  0
 23 28  1  0  0  0  0
 23 29  1  0  0  0  0
 25 24  1  6  0  0  0
 25 27  1  0  0  0  0
 26 10  1  6  0  0  0
 26 27  1  0  0  0  0
M  END
>  <CHROM.1>
60.29239914,63.18023186,-50.04654952,151.21645644,-106.54741258,-77.10586878
27.90582948,36.47166177,19.73585256,-1.01793191,-1.36987795,-3.07278361

>  <Name>
ligand

>  <RI>
0

>  <Rbt.Current_Directory>
/home/itssahil/PROJECTS/Mol_Feturizer/New_Systems/rnas/3F4H

>  <Rbt.Executable>
rbdock ($Id: //depot/dev/client3/rdock/2013.1/src/exe/rbdock.cxx#4 $)

>  <Rbt.Library>
libRbt.so (2013.1, Build901 2013/11/27)

>  <Rbt.Parameter_File>
/export/apps/rDock/src/rDock_2013.1_src/data/scripts/dock_solv.prm

>  <Rbt.Receptor>
prm/pocket_docking_3.prm

>  <SCORE>
-47.6545

>  <SCORE.INTER>
-31.465

>  <SCORE.INTER.CONST>
1

>  <SCORE.INTER.POLAR>
0

>  <SCORE.INTER.ROT>
6

>  <SCORE.INTER.SOLV>
12.1415

>  <SCORE.INTER.VDW>
-32.6238

>  <SCORE.INTER.norm>
-1.085

>  <SCORE.INTRA>
-16.1895

>  <SCORE.INTRA.DIHEDRAL>
-1.91623

>  <SCORE.INTRA.DIHEDRAL.0>
6.83446

>  <SCORE.INTRA.POLAR>
0

>  <SCORE.INTRA.POLAR.0>
0

>  <SCORE.INTRA.REPUL>
0

>  <SCORE.INTRA.REPUL.0>
0

>  <SCORE.INTRA.SOLV>
-0.262986

>  <SCORE.INTRA.SOLV.lig_0>
-26.4601

>  <SCORE.INTRA.VDW>
-15.0999

>  <SCORE.INTRA.VDW.0>
13.7853

>  <SCORE.INTRA.norm>
-0.558259

>  <SCORE.RESTR>
0

>  <SCORE.RESTR.CAVITY>
0

>  <SCORE.RESTR.norm>
0

>  <SCORE.SYSTEM>
0

>  <SCORE.SYSTEM.CONST>
0

>  <SCORE.SYSTEM.DIHEDRAL>
0

>  <SCORE.SYSTEM.SOLV>
0

>  <SCORE.SYSTEM.norm>
0

>  <SCORE.heavy>
29

>  <SCORE.norm>
-1.64326

>  <RMSD>
1.305

$$$$
ligand
 OpenBabel11021811473D
libRbt.so/2013.1/901 2013/11/27
 29 31  0  0  0  0  0  0  0  0999 V2000
   27.9676   41.2511   16.6636 C   0  0  0  0  0  0  0  0  0  0  0  0
   27.1224   42.4051   16.6107 O   0  0  0  0  0  0  0  0  0  0  0  0
   27.3844   40.2451   17.6464 C   0  0  1  0  0  0  0  0  0  0  0  0
   26.1000   39.8460   17.1777 O   0  0  0  0  0  0  0  0  0  0  0  0
   28.2989   39.0341   17.7788 C   0  0  1  0  0  0  0  0  0  0  0  0
   29.5347   39.4967   18.3111 O   0  0  0  0  0  0  0  0  0  0  0  0
   27.7471   37.8979   18.6450 C   0  0  1  0  0  0  0  0  0  0  0  0
   26.6987   37.2486   17.9249 O   0  0  0  0  0  0  0  0  0  0  0  0
   28.7942   36.8475   19.0099 C   0  0  0  0  0  0  0  0  0  0  0  0
   28.5755   34.1053   18.3745 N   0  0  0  0  0  0  0  0  0  0  0  0
   28.4895   32.7875   18.0368 C   0  0  0  0  0  0  0  0  0  0  0  0
   28.8759   32.3938   16.9080 O   0  0  0  0  0  0  0  0  0  0  0  0
   27.9801   31.8863   18.9144 N   0  0  0  0  0  0  0  0  0  0  0  0
   27.5484   32.2755   20.1404 C   0  0  0  0  0  0  0  0  0  0  0  0
   27.6312   33.6161   20.4991 C   0  0  1  0  0  0  0  0  0  0  0  0
   27.0758   31.4382   20.9484 O   0  0  0  0  0  0  0  0  0  0  0  0
   27.2915   35.3136   22.0671 C   0  0  1  0  0  0  0  0  0  0  0  0
   27.2089   34.0131   21.7192 N   0  0  0  0  0  0  0  0  0  0  0  0
   26.8539   35.7135   23.3249 C   0  0  0  0  0  0  0  0  0  0  0  0
   26.9283   37.0465   23.7138 C   0  0  2  0  0  0  0  0  0  0  0  0
   26.4352   37.4105   25.0906 C   0  0  0  0  0  0  0  0  0  0  0  0
   27.4503   37.9995   22.8299 C   0  0  2  0  0  0  0  0  0  0  0  0
   27.5544   39.3264   23.1422 N   0  0  0  0  0  0  0  0  0  0  0  0
   27.8857   37.5821   21.5663 C   0  0  0  0  0  0  0  0  0  0  0  0
   27.8118   36.2466   21.1717 C   0  0  2  0  0  0  0  0  0  0  0  0
   28.1573   34.5456   19.5964 C   0  0  2  0  0  0  0  0  0  0  0  0
   28.2324   35.8553   19.9469 N   0  0  0  0  0  0  0  0  0  0  0  0
   26.6163   40.2750   22.5725 C   0  0  0  0  0  0  0  0  0  0  0  0
   28.5764   39.8428   24.0377 C   0  0  0  0  0  0  0  0  0  0  0  0
  1  2  1  0  0  0  0
  3  1  1  6  0  0  0
  3  4  1  0  0  0  0
  3  5  1  0  0  0  0
  5  6  1  1  0  0  0
  5  7  1  0  0  0  0
  7  8  1  6  0  0  0
  7  9  1  0  0  0  0
  9 27  1  0  0  0  0
 10 11  1  0  0  0  0
 11 12  2  0  0  0  0
 11 13  1  0  0  0  0
 13 14  1  0  0  0  0
 14 16  2  0  0  0  0
 15 14  1  1  0  0  0
 15 18  1  0  0  0  0
 15 26  1  0  0  0  0
 17 19  1  1  0  0  0
 17 25  1  0  0  0  0
 17 18  1  0  0  0  0
 19 20  1  0  0  0  0
 20 21  1  6  0  0  0
 20 22  1  0  0  0  0
 22 23  1  6  0  0  0
 22 24  1  0  0  0  0
 23 28  1  0  0  0  0
 23 29  1  0  0  0  0
 25 24  1  6  0  0  0
 25 27  1  0  0  0  0
 26 10  1  6  0  0  0
 26 27  1  0  0  0  0
M  END
>  <CHROM.1>
61.72929806,62.72470638,72.61011769,174.58050866,-104.45539090,-62.70581327
27.67961163,36.77203863,20.07279478,-1.86987293,-1.44264831,2.71174643

>  <Name>
ligand

>  <RI>
0

>  <Rbt.Current_Directory>
/home/itssahil/PROJECTS/Mol_Feturizer/New_Systems/rnas/3F4H

>  <Rbt.Executable>
rbdock ($Id: //depot/dev/client3/rdock/2013.1/src/exe/rbdock.cxx#4 $)

>  <Rbt.Library>
libRbt.so (2013.1, Build901 2013/11/27)

>  <Rbt.Parameter_File>
/export/apps/rDock/src/rDock_2013.1_src/data/scripts/dock_solv.prm

>  <Rbt.Receptor>
prm/blind_docking_60.prm

>  <SCORE>
-47.7395

>  <SCORE.INTER>
-30.4029

>  <SCORE.INTER.CONST>
1

>  <SCORE.INTER.POLAR>
0

>  <SCORE.INTER.ROT>
6

>  <SCORE.INTER.SOLV>
10.9103

>  <SCORE.INTER.VDW>
-31.5054

>  <SCORE.INTER.norm>
-1.04838

>  <SCORE.INTRA>
-17.3366

>  <SCORE.INTRA.DIHEDRAL>
-4.10153

>  <SCORE.INTRA.DIHEDRAL.0>
6.83446

>  <SCORE.INTRA.POLAR>
0

>  <SCORE.INTRA.POLAR.0>
0

>  <SCORE.INTRA.REPUL>
0

>  <SCORE.INTRA.REPUL.0>
0

>  <SCORE.INTRA.SOLV>
-0.421503

>  <SCORE.INTRA.SOLV.lig_0>
-26.4601

>  <SCORE.INTRA.VDW>
-15.0751

>  <SCORE.INTRA.VDW.0>
13.7853

>  <SCORE.INTRA.norm>
-0.597814

>  <SCORE.RESTR>
0

>  <SCORE.RESTR.CAVITY>
0

>  <SCORE.RESTR.norm>
0

>  <SCORE.SYSTEM>
0

>  <SCORE.SYSTEM.CONST>
0

>  <SCORE.SYSTEM.DIHEDRAL>
0

>  <SCORE.SYSTEM.SOLV>
0

>  <SCORE.SYSTEM.norm>
0

>  <SCORE.heavy>
29

>  <SCORE.norm>
-1.64619

>  <RMSD>
1.306

$$$$
ligand
 OpenBabel11021811473D
libRbt.so/2013.1/901 2013/11/27
 29 31  0  0  0  0  0  0  0  0999 V2000
   28.1521   40.0543   16.7977 C   0  0  0  0  0  0  0  0  0  0  0  0
   27.0751   40.2274   15.8710 O   0  0  0  0  0  0  0  0  0  0  0  0
   28.9472   38.8124   16.4186 C   0  0  1  0  0  0  0  0  0  0  0  0
   30.0781   38.7181   17.2792 O   0  0  0  0  0  0  0  0  0  0  0  0
   28.0824   37.5645   16.5430 C   0  0  1  0  0  0  0  0  0  0  0  0
   28.8520   36.4698   16.0592 O   0  0  0  0  0  0  0  0  0  0  0  0
   27.5768   37.2657   17.9574 C   0  0  1  0  0  0  0  0  0  0  0  0
   26.6245   36.2040   17.8822 O   0  0  0  0  0  0  0  0  0  0  0  0
   28.6829   36.8442   18.9226 C   0  0  0  0  0  0  0  0  0  0  0  0
   28.5159   34.1003   18.2791 N   0  0  0  0  0  0  0  0  0  0  0  0
   28.4533   32.7824   17.9368 C   0  0  0  0  0  0  0  0  0  0  0  0
   28.8061   32.4054   16.7914 O   0  0  0  0  0  0  0  0  0  0  0  0
   28.0039   31.8627   18.8280 N   0  0  0  0  0  0  0  0  0  0  0  0
   27.6098   32.2334   20.0723 C   0  0  0  0  0  0  0  0  0  0  0  0
   27.6694   33.5740   20.4358 C   0  0  1  0  0  0  0  0  0  0  0  0
   27.1927   31.3790   20.8929 O   0  0  0  0  0  0  0  0  0  0  0  0
   27.3442   35.2531   22.0265 C   0  0  1  0  0  0  0  0  0  0  0  0
   27.2843   33.9526   21.6739 N   0  0  0  0  0  0  0  0  0  0  0  0
   26.9452   35.6341   23.3028 C   0  0  0  0  0  0  0  0  0  0  0  0
   26.9977   36.9667   23.6968 C   0  0  2  0  0  0  0  0  0  0  0  0
   26.5490   37.3096   25.0941 C   0  0  0  0  0  0  0  0  0  0  0  0
   27.4580   37.9385   22.7992 C   0  0  2  0  0  0  0  0  0  0  0  0
   27.5374   39.2662   23.1155 N   0  0  0  0  0  0  0  0  0  0  0  0
   27.8551   37.5399   21.5170 C   0  0  0  0  0  0  0  0  0  0  0  0
   27.8029   36.2049   21.1173 C   0  0  2  0  0  0  0  0  0  0  0  0
   28.1336   34.5224   19.5191 C   0  0  2  0  0  0  0  0  0  0  0  0
   28.1860   35.8319   19.8747 N   0  0  0  0  0  0  0  0  0  0  0  0
   26.5805   40.1985   22.5502 C   0  0  0  0  0  0  0  0  0  0  0  0
   28.5507   39.7991   24.0110 C   0  0  0  0  0  0  0  0  0  0  0  0
  1  2  1  0  0  0  0
  3  1  1  1  0  0  0
  3  4  1  0  0  0  0
  3  5  1  0  0  0  0
  5  6  1  1  0  0  0
  5  7  1  0  0  0  0
  7  8  1  6  0  0  0
  7  9  1  0  0  0  0
  9 27  1  0  0  0  0
 10 11  1  0  0  0  0
 11 12  2  0  0  0  0
 11 13  1  0  0  0  0
 13 14  1  0  0  0  0
 14 16  2  0  0  0  0
 15 14  1  1  0  0  0
 15 18  1  0  0  0  0
 15 26  1  0  0  0  0
 17 19  1  1  0  0  0
 17 25  1  0  0  0  0
 17 18  1  0  0  0  0
 19 20  1  0  0  0  0
 20 21  1  6  0  0  0
 20 22  1  0  0  0  0
 22 23  1  6  0  0  0
 22 24  1  0  0  0  0
 23 28  1  0  0  0  0
 23 29  1  0  0  0  0
 25 24  1  6  0  0  0
 25 27  1  0  0  0  0
 26 10  1  6  0  0  0
 26 27  1  0  0  0  0
M  END
>  <CHROM.1>
175.13983980,174.82840071,171.13091069,-144.66868502,-106.66918889,-98.74232653
27.85780283,36.28725946,19.81781942,-0.55351014,1.39708201,0.04565583

>  <Name>
ligand

>  <RI>
0

>  <Rbt.Current_Directory>
/home/itssahil/PROJECTS/Mol_Feturizer/New_Systems/rnas/3F4H

>  <Rbt.Executable>
rbdock ($Id: //depot/dev/client3/rdock/2013.1/src/exe/rbdock.cxx#4 $)

>  <Rbt.Library>
libRbt.so (2013.1, Build901 2013/11/27)

>  <Rbt.Parameter_File>
/export/apps/rDock/src/rDock_2013.1_src/data/scripts/dock_solv.prm

>  <Rbt.Receptor>
prm/pocket_docking_5.prm

>  <SCORE>
-46.117

>  <SCORE.INTER>
-30.8481

>  <SCORE.INTER.CONST>
1

>  <SCORE.INTER.POLAR>
0

>  <SCORE.INTER.ROT>
6

>  <SCORE.INTER.SOLV>
11.22

>  <SCORE.INTER.VDW>
-31.9054

>  <SCORE.INTER.norm>
-1.06373

>  <SCORE.INTRA>
-15.2689

>  <SCORE.INTRA.DIHEDRAL>
-0.934976

>  <SCORE.INTRA.DIHEDRAL.0>
6.83446

>  <SCORE.INTRA.POLAR>
0

>  <SCORE.INTRA.POLAR.0>
0

>  <SCORE.INTRA.REPUL>
0

>  <SCORE.INTRA.REPUL.0>
0

>  <SCORE.INTRA.SOLV>
0.0278185

>  <SCORE.INTRA.SOLV.lig_0>
-26.4601

>  <SCORE.INTRA.VDW>
-14.8153

>  <SCORE.INTRA.VDW.0>
13.7853

>  <SCORE.INTRA.norm>
-0.526514

>  <SCORE.RESTR>
0

>  <SCORE.RESTR.CAVITY>
0

>  <SCORE.RESTR.norm>
0

>  <SCORE.SYSTEM>
0

>  <SCORE.SYSTEM.CONST>
0

>  <SCORE.SYSTEM.DIHEDRAL>
0

>  <SCORE.SYSTEM.SOLV>
0

>  <SCORE.SYSTEM.norm>
0

>  <SCORE.heavy>
29

>  <SCORE.norm>
-1.59024

>  <RMSD>
1.310

$$$$
ligand
 OpenBabel11021811473D
libRbt.so/2013.1/901 2013/11/27
 29 31  0  0  0  0  0  0  0  0999 V2000
   29.2747   40.5853   16.4182 C   0  0  0  0  0  0  0  0  0  0  0  0
   30.0641   40.6168   15.2246 O   0  0  0  0  0  0  0  0  0  0  0  0
   28.8797   39.1467   16.7223 C   0  0  1  0  0  0  0  0  0  0  0  0
   30.0650   38.3871   16.9378 O   0  0  0  0  0  0  0  0  0  0  0  0
   27.9821   39.0864   17.9515 C   0  0  1  0  0  0  0  0  0  0  0  0
   26.8337   39.8790   17.6728 O   0  0  0  0  0  0  0  0  0  0  0  0
   27.5567   37.6770   18.3739 C   0  0  1  0  0  0  0  0  0  0  0  0
   27.0233   37.0046   17.2325 O   0  0  0  0  0  0  0  0  0  0  0  0
   28.7046   36.8354   18.9278 C   0  0  0  0  0  0  0  0  0  0  0  0
   28.5428   34.0894   18.2919 N   0  0  0  0  0  0  0  0  0  0  0  0
   28.4831   32.7703   17.9534 C   0  0  0  0  0  0  0  0  0  0  0  0
   28.8459   32.3895   16.8124 O   0  0  0  0  0  0  0  0  0  0  0  0
   28.0258   31.8537   18.8437 N   0  0  0  0  0  0  0  0  0  0  0  0
   27.6209   32.2285   20.0832 C   0  0  0  0  0  0  0  0  0  0  0  0
   27.6774   33.5702   20.4428 C   0  0  1  0  0  0  0  0  0  0  0  0
   27.1964   31.3769   20.9029 O   0  0  0  0  0  0  0  0  0  0  0  0
   27.3384   35.2547   22.0250 C   0  0  1  0  0  0  0  0  0  0  0  0
   27.2815   33.9530   21.6762 N   0  0  0  0  0  0  0  0  0  0  0  0
   26.9283   35.6400   23.2965 C   0  0  0  0  0  0  0  0  0  0  0  0
   26.9776   36.9738   23.6865 C   0  0  2  0  0  0  0  0  0  0  0  0
   26.5166   37.3215   25.0786 C   0  0  0  0  0  0  0  0  0  0  0  0
   27.4459   37.9426   22.7898 C   0  0  2  0  0  0  0  0  0  0  0  0
   27.5226   39.2713   23.1024 N   0  0  0  0  0  0  0  0  0  0  0  0
   27.8541   37.5397   21.5125 C   0  0  0  0  0  0  0  0  0  0  0  0
   27.8053   36.2035   21.1167 C   0  0  2  0  0  0  0  0  0  0  0  0
   28.1498   34.5156   19.5271 C   0  0  2  0  0  0  0  0  0  0  0  0
   28.1992   35.8262   19.8787 N   0  0  0  0  0  0  0  0  0  0  0  0
   26.5513   40.1970   22.5509 C   0  0  0  0  0  0  0  0  0  0  0  0
   28.5472   39.8118   23.9803 C   0  0  0  0  0  0  0  0  0  0  0  0
  1  2  1  0  0  0  0
  3  1  1  1  0  0  0
  3  4  1  0  0  0  0
  3  5  1  0  0  0  0
  5  6  1  6  0  0  0
  5  7  1  0  0  0  0
  7  8  1  6  0  0  0
  7  9  1  0  0  0  0
  9 27  1  0  0  0  0
 10 11  1  0  0  0  0
 11 12  2  0  0  0  0
 11 13  1  0  0  0  0
 13 14  1  0  0  0  0
 14 16  2  0  0  0  0
 15 14  1  1  0  0  0
 15 18  1  0  0  0  0
 15 26  1  0  0  0  0
 17 19  1  1  0  0  0
 17 25  1  0  0  0  0
 17 18  1  0  0  0  0
 19 20  1  0  0  0  0
 20 21  1  6  0  0  0
 20 22  1  0  0  0  0
 22 23  1  6  0  0  0
 22 24  1  0  0  0  0
 23 28  1  0  0  0  0
 23 29  1  0  0  0  0
 25 24  1  6  0  0  0
 25 27  1  0  0  0  0
 26 10  1  6  0  0  0
 26 27  1  0  0  0  0
M  END
>  <CHROM.1>
61.55324493,59.05511102,-51.08348069,152.53000657,-105.19380436,-74.49781895
27.94763671,36.55031478,19.87383775,-0.92959923,-1.32208786,-2.97388536

>  <Name>
ligand

>  <RI>
0

>  <Rbt.Current_Directory>
/home/itssahil/PROJECTS/Mol_Feturizer/New_Systems/rnas/3F4H

>  <Rbt.Executable>
rbdock ($Id: //depot/dev/client3/rdock/2013.1/src/exe/rbdock.cxx#4 $)

>  <Rbt.Library>
libRbt.so (2013.1, Build901 2013/11/27)

>  <Rbt.Parameter_File>
/export/apps/rDock/src/rDock_2013.1_src/data/scripts/dock_solv.prm

>  <Rbt.Receptor>
prm/blind_docking_100.prm

>  <SCORE>
-47.7792

>  <SCORE.INTER>
-31.4526

>  <SCORE.INTER.CONST>
1

>  <SCORE.INTER.POLAR>
0

>  <SCORE.INTER.ROT>
6

>  <SCORE.INTER.SOLV>
11.6971

>  <SCORE.INTER.VDW>
-32.4674

>  <SCORE.INTER.norm>
-1.08457

>  <SCORE.INTRA>
-16.3267

>  <SCORE.INTRA.DIHEDRAL>
-2.1967

>  <SCORE.INTRA.DIHEDRAL.0>
6.83446

>  <SCORE.INTRA.POLAR>
0

>  <SCORE.INTRA.POLAR.0>
0

>  <SCORE.INTRA.REPUL>
0

>  <SCORE.INTRA.REPUL.0>
0

>  <SCORE.INTRA.SOLV>
-0.281505

>  <SCORE.INTRA.SOLV.lig_0>
-26.4601

>  <SCORE.INTRA.VDW>
-15.0876

>  <SCORE.INTRA.VDW.0>
13.7853

>  <SCORE.INTRA.norm>
-0.562989

>  <SCORE.RESTR>
0

>  <SCORE.RESTR.CAVITY>
0

>  <SCORE.RESTR.norm>
0

>  <SCORE.SYSTEM>
0

>  <SCORE.SYSTEM.CONST>
0

>  <SCORE.SYSTEM.DIHEDRAL>
0

>  <SCORE.SYSTEM.SOLV>
0

>  <SCORE.SYSTEM.norm>
0

>  <SCORE.heavy>
29

>  <SCORE.norm>
-1.64756

>  <RMSD>
1.313

$$$$
ligand
 OpenBabel11021811473D
libRbt.so/2013.1/901 2013/11/27
 29 31  0  0  0  0  0  0  0  0999 V2000
   29.4145   40.6681   16.5450 C   0  0  0  0  0  0  0  0  0  0  0  0
   30.1791   40.7086   15.3356 O   0  0  0  0  0  0  0  0  0  0  0  0
   28.9899   39.2329   16.8240 C   0  0  1  0  0  0  0  0  0  0  0  0
   30.1592   38.4459   17.0283 O   0  0  0  0  0  0  0  0  0  0  0  0
   28.0889   39.1699   18.0506 C   0  0  1  0  0  0  0  0  0  0  0  0
   26.9690   40.0091   17.7932 O   0  0  0  0  0  0  0  0  0  0  0  0
   27.6145   37.7651   18.4339 C   0  0  1  0  0  0  0  0  0  0  0  0
   27.0402   37.1511   17.2795 O   0  0  0  0  0  0  0  0  0  0  0  0
   28.7359   36.8622   18.9439 C   0  0  0  0  0  0  0  0  0  0  0  0
   28.5435   34.1176   18.3107 N   0  0  0  0  0  0  0  0  0  0  0  0
   28.4693   32.7989   17.9737 C   0  0  0  0  0  0  0  0  0  0  0  0
   28.8372   32.4115   16.8365 O   0  0  0  0  0  0  0  0  0  0  0  0
   27.9920   31.8898   18.8611 N   0  0  0  0  0  0  0  0  0  0  0  0
   27.5810   32.2719   20.0964 C   0  0  0  0  0  0  0  0  0  0  0  0
   27.6521   33.6134   20.4546 C   0  0  1  0  0  0  0  0  0  0  0  0
   27.1380   31.4273   20.9136 O   0  0  0  0  0  0  0  0  0  0  0  0
   27.3214   35.3047   22.0311 C   0  0  1  0  0  0  0  0  0  0  0  0
   27.2503   34.0033   21.6838 N   0  0  0  0  0  0  0  0  0  0  0  0
   26.9051   35.6974   23.2984 C   0  0  0  0  0  0  0  0  0  0  0  0
   26.9685   37.0310   23.6868 C   0  0  2  0  0  0  0  0  0  0  0  0
   26.4998   37.3870   25.0743 C   0  0  0  0  0  0  0  0  0  0  0  0
   27.4575   37.9921   22.7929 C   0  0  2  0  0  0  0  0  0  0  0  0
   27.5490   39.3202   23.1042 N   0  0  0  0  0  0  0  0  0  0  0  0
   27.8718   37.5819   21.5199 C   0  0  0  0  0  0  0  0  0  0  0  0
   27.8088   36.2457   21.1256 C   0  0  2  0  0  0  0  0  0  0  0  0
   28.1451   34.5509   19.5417 C   0  0  2  0  0  0  0  0  0  0  0  0
   28.2087   35.8614   19.8918 N   0  0  0  0  0  0  0  0  0  0  0  0
   28.6115   39.7827   23.9770 C   0  0  0  0  0  0  0  0  0  0  0  0
   26.6182   40.3114   22.5904 C   0  0  0  0  0  0  0  0  0  0  0  0
  1  2  1  0  0  0  0
  3  1  1  1  0  0  0
  3  4  1  0  0  0  0
  3  5  1  0  0  0  0
  5  6  1  6  0  0  0
  5  7  1  0  0  0  0
  7  8  1  6  0  0  0
  7  9  1  0  0  0  0
  9 27  1  0  0  0  0
 10 11  1  0  0  0  0
 11 12  2  0  0  0  0
 11 13  1  0  0  0  0
 13 14  1  0  0  0  0
 14 16  2  0  0  0  0
 15 14  1  1  0  0  0
 15 18  1  0  0  0  0
 15 26  1  0  0  0  0
 17 19  1  1  0  0  0
 17 25  1  0  0  0  0
 17 18  1  0  0  0  0
 19 20  1  0  0  0  0
 20 21  1  6  0  0  0
 20 22  1  0  0  0  0
 22 23  1  6  0  0  0
 22 24  1  0  0  0  0
 23 28  1  0  0  0  0
 23 29  1  0  0  0  0
 25 24  1  6  0  0  0
 25 27  1  0  0  0  0
 26 10  1  6  0  0  0
 26 27  1  0  0  0  0
M  END
>  <CHROM.1>
62.95945399,58.03908908,-52.00957876,151.31193281,75.73588477,-71.55807491
27.97477137,36.60887439,19.90952120,-0.95628724,-1.30610480,-2.92155207

>  <Name>
ligand

>  <RI>
0

>  <Rbt.Current_Directory>
/home/itssahil/PROJECTS/Mol_Feturizer/New_Systems/rnas/3F4H

>  <Rbt.Executable>
rbdock ($Id: //depot/dev/client3/rdock/2013.1/src/exe/rbdock.cxx#4 $)

>  <Rbt.Library>
libRbt.so (2013.1, Build901 2013/11/27)

>  <Rbt.Parameter_File>
/export/apps/rDock/src/rDock_2013.1_src/data/scripts/dock_solv.prm

>  <Rbt.Receptor>
prm/pocket_docking_8.prm

>  <SCORE>
-47.7124

>  <SCORE.INTER>
-31.5186

>  <SCORE.INTER.CONST>
1

>  <SCORE.INTER.POLAR>
0

>  <SCORE.INTER.ROT>
6

>  <SCORE.INTER.SOLV>
11.4353

>  <SCORE.INTER.VDW>
-32.4242

>  <SCORE.INTER.norm>
-1.08685

>  <SCORE.INTRA>
-16.1938

>  <SCORE.INTRA.DIHEDRAL>
-2.05646

>  <SCORE.INTRA.DIHEDRAL.0>
6.83446

>  <SCORE.INTRA.POLAR>
0

>  <SCORE.INTRA.POLAR.0>
0

>  <SCORE.INTRA.REPUL>
0

>  <SCORE.INTRA.REPUL.0>
0

>  <SCORE.INTRA.SOLV>
-0.300041

>  <SCORE.INTRA.SOLV.lig_0>
-26.4601

>  <SCORE.INTRA.VDW>
-15.0155

>  <SCORE.INTRA.VDW.0>
13.7853

>  <SCORE.INTRA.norm>
-0.558406

>  <SCORE.RESTR>
0

>  <SCORE.RESTR.CAVITY>
0

>  <SCORE.RESTR.norm>
0

>  <SCORE.SYSTEM>
0

>  <SCORE.SYSTEM.CONST>
0

>  <SCORE.SYSTEM.DIHEDRAL>
0

>  <SCORE.SYSTEM.SOLV>
0

>  <SCORE.SYSTEM.norm>
0

>  <SCORE.heavy>
29

>  <SCORE.norm>
-1.64526

>  <RMSD>
1.314

$$$$
ligand
 OpenBabel11021811473D
libRbt.so/2013.1/901 2013/11/27
 29 31  0  0  0  0  0  0  0  0999 V2000
   29.1558   40.4010   16.1427 C   0  0  0  0  0  0  0  0  0  0  0  0
   29.9960   40.3969   14.9839 O   0  0  0  0  0  0  0  0  0  0  0  0
   28.7876   38.9681   16.5023 C   0  0  1  0  0  0  0  0  0  0  0  0
   29.9837   38.2531   16.7966 O   0  0  0  0  0  0  0  0  0  0  0  0
   27.8472   38.9415   17.7002 C   0  0  1  0  0  0  0  0  0  0  0  0
   26.6749   39.6583   17.3304 O   0  0  0  0  0  0  0  0  0  0  0  0
   27.4715   37.5424   18.1974 C   0  0  1  0  0  0  0  0  0  0  0  0
   26.9941   36.7812   17.0873 O   0  0  0  0  0  0  0  0  0  0  0  0
   28.6403   36.7856   18.8250 C   0  0  0  0  0  0  0  0  0  0  0  0
   28.5098   34.0228   18.2582 N   0  0  0  0  0  0  0  0  0  0  0  0
   28.4649   32.6951   17.9527 C   0  0  0  0  0  0  0  0  0  0  0  0
   28.8258   32.2908   16.8192 O   0  0  0  0  0  0  0  0  0  0  0  0
   28.0247   31.7951   18.8682 N   0  0  0  0  0  0  0  0  0  0  0  0
   27.6225   32.1954   20.1006 C   0  0  0  0  0  0  0  0  0  0  0  0
   27.6640   33.5462   20.4267 C   0  0  1  0  0  0  0  0  0  0  0  0
   27.2138   31.3590   20.9438 O   0  0  0  0  0  0  0  0  0  0  0  0
   27.3130   35.2649   21.9688 C   0  0  1  0  0  0  0  0  0  0  0  0
   27.2706   33.9544   21.6527 N   0  0  0  0  0  0  0  0  0  0  0  0
   26.9056   35.6764   23.2330 C   0  0  0  0  0  0  0  0  0  0  0  0
   26.9401   37.0199   23.5897 C   0  0  2  0  0  0  0  0  0  0  0  0
   26.4831   37.3961   24.9757 C   0  0  0  0  0  0  0  0  0  0  0  0
   27.3906   37.9721   22.6664 C   0  0  2  0  0  0  0  0  0  0  0  0
   27.4522   39.3090   22.9456 N   0  0  0  0  0  0  0  0  0  0  0  0
   27.7963   37.5429   21.3969 C   0  0  0  0  0  0  0  0  0  0  0  0
   27.7622   36.1967   21.0345 C   0  0  2  0  0  0  0  0  0  0  0  0
   28.1188   34.4745   19.4849 C   0  0  2  0  0  0  0  0  0  0  0  0
   28.1535   35.7940   19.8038 N   0  0  0  0  0  0  0  0  0  0  0  0
   28.4972   39.8145   23.8156 C   0  0  0  0  0  0  0  0  0  0  0  0
   26.5059   40.2678   22.3997 C   0  0  0  0  0  0  0  0  0  0  0  0
  1  2  1  0  0  0  0
  3  1  1  1  0  0  0
  3  4  1  0  0  0  0
  3  5  1  0  0  0  0
  5  6  1  6  0  0  0
  5  7  1  0  0  0  0
  7  8  1  6  0  0  0
  7  9  1  0  0  0  0
  9 27  1  0  0  0  0
 10 11  1  0  0  0  0
 11 12  2  0  0  0  0
 11 13  1  0  0  0  0
 13 14  1  0  0  0  0
 14 16  2  0  0  0  0
 15 14  1  1  0  0  0
 15 18  1  0  0  0  0
 15 26  1  0  0  0  0
 17 19  1  1  0  0  0
 17 25  1  0  0  0  0
 17 18  1  0  0  0  0
 19 20  1  0  0  0  0
 20 21  1  6  0  0  0
 20 22  1  0  0  0  0
 22 23  1  6  0  0  0
 22 24  1  0  0  0  0
 23 28  1  0  0  0  0
 23 29  1  0  0  0  0
 25 24  1  6  0  0  0
 25 27  1  0  0  0  0
 26 10  1  6  0  0  0
 26 27  1  0  0  0  0
M  END
>  <CHROM.1>
61.11476357,60.52307248,-51.98585232,153.69242953,74.33222494,-77.82026434
27.89767257,36.49013442,19.76375186,-0.87386578,-1.33244095,-3.03909277

>  <Name>
ligand

>  <RI>
0

>  <Rbt.Current_Directory>
/home/itssahil/PROJECTS/Mol_Feturizer/New_Systems/rnas/3F4H

>  <Rbt.Executable>
rbdock ($Id: //depot/dev/client3/rdock/2013.1/src/exe/rbdock.cxx#4 $)

>  <Rbt.Library>
libRbt.so (2013.1, Build901 2013/11/27)

>  <Rbt.Parameter_File>
/export/apps/rDock/src/rDock_2013.1_src/data/scripts/dock_solv.prm

>  <Rbt.Receptor>
prm/pocket_docking_5.prm

>  <SCORE>
-47.8544

>  <SCORE.INTER>
-31.4734

>  <SCORE.INTER.CONST>
1

>  <SCORE.INTER.POLAR>
0

>  <SCORE.INTER.ROT>
6

>  <SCORE.INTER.SOLV>
12.2161

>  <SCORE.INTER.VDW>
-32.6543

>  <SCORE.INTER.norm>
-1.08529

>  <SCORE.INTRA>
-16.381

>  <SCORE.INTRA.DIHEDRAL>
-2.41054

>  <SCORE.INTRA.DIHEDRAL.0>
6.83446

>  <SCORE.INTRA.POLAR>
0

>  <SCORE.INTRA.POLAR.0>
0

>  <SCORE.INTRA.REPUL>
0

>  <SCORE.INTRA.REPUL.0>
0

>  <SCORE.INTRA.SOLV>
-0.264442

>  <SCORE.INTRA.SOLV.lig_0>
-26.4601

>  <SCORE.INTRA.VDW>
-15.0435

>  <SCORE.INTRA.VDW.0>
13.7853

>  <SCORE.INTRA.norm>
-0.564862

>  <SCORE.RESTR>
0

>  <SCORE.RESTR.CAVITY>
0

>  <SCORE.RESTR.norm>
0

>  <SCORE.SYSTEM>
0

>  <SCORE.SYSTEM.CONST>
0

>  <SCORE.SYSTEM.DIHEDRAL>
0

>  <SCORE.SYSTEM.SOLV>
0

>  <SCORE.SYSTEM.norm>
0

>  <SCORE.heavy>
29

>  <SCORE.norm>
-1.65015

>  <RMSD>
1.315

$$$$
ligand
 OpenBabel11021811473D
libRbt.so/2013.1/901 2013/11/27
 29 31  0  0  0  0  0  0  0  0999 V2000
   28.0212   41.3183   16.8057 C   0  0  0  0  0  0  0  0  0  0  0  0
   27.1719   42.4701   16.7739 O   0  0  0  0  0  0  0  0  0  0  0  0
   27.4116   40.2690   17.7252 C   0  0  1  0  0  0  0  0  0  0  0  0
   26.1537   39.8717   17.1883 O   0  0  0  0  0  0  0  0  0  0  0  0
   28.3366   39.0653   17.8514 C   0  0  1  0  0  0  0  0  0  0  0  0
   29.5324   39.5178   18.4760 O   0  0  0  0  0  0  0  0  0  0  0  0
   27.7550   37.8805   18.6281 C   0  0  1  0  0  0  0  0  0  0  0  0
   26.7508   37.2614   17.8232 O   0  0  0  0  0  0  0  0  0  0  0  0
   28.7940   36.8210   18.9898 C   0  0  0  0  0  0  0  0  0  0  0  0
   28.5847   34.0776   18.3564 N   0  0  0  0  0  0  0  0  0  0  0  0
   28.5035   32.7592   18.0198 C   0  0  0  0  0  0  0  0  0  0  0  0
   28.9013   32.3642   16.8955 O   0  0  0  0  0  0  0  0  0  0  0  0
   27.9867   31.8587   18.8939 N   0  0  0  0  0  0  0  0  0  0  0  0
   27.5426   32.2493   20.1150 C   0  0  0  0  0  0  0  0  0  0  0  0
   27.6204   33.5905   20.4725 C   0  0  1  0  0  0  0  0  0  0  0  0
   27.0632   31.4126   20.9197 O   0  0  0  0  0  0  0  0  0  0  0  0
   27.2635   35.2899   22.0345 C   0  0  1  0  0  0  0  0  0  0  0  0
   27.1858   33.9888   21.6878 N   0  0  0  0  0  0  0  0  0  0  0  0
   26.8132   35.6912   23.2875 C   0  0  0  0  0  0  0  0  0  0  0  0
   26.8824   37.0248   23.6750 C   0  0  2  0  0  0  0  0  0  0  0  0
   26.3755   37.3903   25.0465 C   0  0  0  0  0  0  0  0  0  0  0  0
   27.4118   37.9771   22.7948 C   0  0  2  0  0  0  0  0  0  0  0  0
   27.5113   39.3047   23.1061 N   0  0  0  0  0  0  0  0  0  0  0  0
   27.8599   37.5583   21.5361 C   0  0  0  0  0  0  0  0  0  0  0  0
   27.7914   36.2222   21.1428 C   0  0  2  0  0  0  0  0  0  0  0  0
   28.1541   34.5192   19.5735 C   0  0  2  0  0  0  0  0  0  0  0  0
   28.2243   35.8295   19.9228 N   0  0  0  0  0  0  0  0  0  0  0  0
   28.5703   39.7592   23.9871 C   0  0  0  0  0  0  0  0  0  0  0  0
   26.5924   40.3028   22.5844 C   0  0  0  0  0  0  0  0  0  0  0  0
  1  2  1  0  0  0  0
  3  1  1  6  0  0  0
  3  4  1  0  0  0  0
  3  5  1  0  0  0  0
  5  6  1  1  0  0  0
  5  7  1  0  0  0  0
  7  8  1  6  0  0  0
  7  9  1  0  0  0  0
  9 27  1  0  0  0  0
 10 11  1  0  0  0  0
 11 12  2  0  0  0  0
 11 13  1  0  0  0  0
 13 14  1  0  0  0  0
 14 16  2  0  0  0  0
 15 14  1  1  0  0  0
 15 18  1  0  0  0  0
 15 26  1  0  0  0  0
 17 19  1  1  0  0  0
 17 25  1  0  0  0  0
 17 18  1  0  0  0  0
 19 20  1  0  0  0  0
 20 21  1  6  0  0  0
 20 22  1  0  0  0  0
 22 23  1  6  0  0  0
 22 24  1  0  0  0  0
 23 28  1  0  0  0  0
 23 29  1  0  0  0  0
 25 24  1  6  0  0  0
 25 27  1  0  0  0  0
 26 10  1  6  0  0  0
 26 27  1  0  0  0  0
M  END
>  <CHROM.1>
62.50455061,63.84211088,72.04909122,170.47757731,77.10043401,-61.93030462
27.67890084,36.76277889,20.07276270,-1.83997172,-1.43201137,2.77024067

>  <Name>
ligand

>  <RI>
0

>  <Rbt.Current_Directory>
/home/itssahil/PROJECTS/Mol_Feturizer/New_Systems/rnas/3F4H

>  <Rbt.Executable>
rbdock ($Id: //depot/dev/client3/rdock/2013.1/src/exe/rbdock.cxx#4 $)

>  <Rbt.Library>
libRbt.so (2013.1, Build901 2013/11/27)

>  <Rbt.Parameter_File>
/export/apps/rDock/src/rDock_2013.1_src/data/scripts/dock_solv.prm

>  <Rbt.Receptor>
prm/blind_docking_80.prm

>  <SCORE>
-47.7178

>  <SCORE.INTER>
-30.4389

>  <SCORE.INTER.CONST>
1

>  <SCORE.INTER.POLAR>
0

>  <SCORE.INTER.ROT>
6

>  <SCORE.INTER.SOLV>
10.9386

>  <SCORE.INTER.VDW>
-31.5388

>  <SCORE.INTER.norm>
-1.04962

>  <SCORE.INTRA>
-17.2789

>  <SCORE.INTRA.DIHEDRAL>
-3.89537

>  <SCORE.INTRA.DIHEDRAL.0>
6.83446

>  <SCORE.INTRA.POLAR>
0

>  <SCORE.INTRA.POLAR.0>
0

>  <SCORE.INTRA.REPUL>
0

>  <SCORE.INTRA.REPUL.0>
0

>  <SCORE.INTRA.SOLV>
-0.437582

>  <SCORE.INTRA.SOLV.lig_0>
-26.4601

>  <SCORE.INTRA.VDW>
-15.1124

>  <SCORE.INTRA.VDW.0>
13.7853

>  <SCORE.INTRA.norm>
-0.595823

>  <SCORE.RESTR>
0

>  <SCORE.RESTR.CAVITY>
0

>  <SCORE.RESTR.norm>
0

>  <SCORE.SYSTEM>
0

>  <SCORE.SYSTEM.CONST>
0

>  <SCORE.SYSTEM.DIHEDRAL>
0

>  <SCORE.SYSTEM.SOLV>
0

>  <SCORE.SYSTEM.norm>
0

>  <SCORE.heavy>
29

>  <SCORE.norm>
-1.64544

>  <RMSD>
1.319

$$$$
ligand
 OpenBabel11021811473D
libRbt.so/2013.1/901 2013/11/27
 29 31  0  0  0  0  0  0  0  0999 V2000
   27.8641   41.3572   16.9159 C   0  0  0  0  0  0  0  0  0  0  0  0
   28.9890   41.9650   17.5595 O   0  0  0  0  0  0  0  0  0  0  0  0
   27.2896   40.2766   17.8217 C   0  0  1  0  0  0  0  0  0  0  0  0
   26.0621   39.8210   17.2612 O   0  0  0  0  0  0  0  0  0  0  0  0
   28.2692   39.1186   17.9616 C   0  0  1  0  0  0  0  0  0  0  0  0
   29.3784   39.5950   18.7149 O   0  0  0  0  0  0  0  0  0  0  0  0
   27.6935   37.8589   18.6152 C   0  0  1  0  0  0  0  0  0  0  0  0
   26.7721   37.2579   17.7045 O   0  0  0  0  0  0  0  0  0  0  0  0
   28.7543   36.8199   18.9728 C   0  0  0  0  0  0  0  0  0  0  0  0
   28.5396   34.0798   18.3271 N   0  0  0  0  0  0  0  0  0  0  0  0
   28.4550   32.7632   17.9843 C   0  0  0  0  0  0  0  0  0  0  0  0
   28.8285   32.3766   16.8487 O   0  0  0  0  0  0  0  0  0  0  0  0
   27.9611   31.8555   18.8641 N   0  0  0  0  0  0  0  0  0  0  0  0
   27.5436   32.2371   20.0974 C   0  0  0  0  0  0  0  0  0  0  0  0
   27.6252   33.5763   20.4615 C   0  0  1  0  0  0  0  0  0  0  0  0
   27.0853   31.3938   20.9075 O   0  0  0  0  0  0  0  0  0  0  0  0
   27.2983   35.2648   22.0419 C   0  0  1  0  0  0  0  0  0  0  0  0
   27.2170   33.9655   21.6888 N   0  0  0  0  0  0  0  0  0  0  0  0
   26.8753   35.6567   23.3072 C   0  0  0  0  0  0  0  0  0  0  0  0
   26.9489   36.9881   23.7014 C   0  0  2  0  0  0  0  0  0  0  0  0
   26.4722   37.3434   25.0863 C   0  0  0  0  0  0  0  0  0  0  0  0
   27.4551   37.9477   22.8154 C   0  0  2  0  0  0  0  0  0  0  0  0
   27.5573   39.2736   23.1327 N   0  0  0  0  0  0  0  0  0  0  0  0
   27.8759   37.5382   21.5443 C   0  0  0  0  0  0  0  0  0  0  0  0
   27.8027   36.2043   21.1442 C   0  0  2  0  0  0  0  0  0  0  0  0
   28.1353   34.5124   19.5565 C   0  0  2  0  0  0  0  0  0  0  0  0
   28.2091   35.8207   19.9123 N   0  0  0  0  0  0  0  0  0  0  0  0
   26.6259   40.2248   22.5565 C   0  0  0  0  0  0  0  0  0  0  0  0
   28.5708   39.7863   24.0399 C   0  0  0  0  0  0  0  0  0  0  0  0
  1  2  1  0  0  0  0
  3  1  1  6  0  0  0
  3  4  1  0  0  0  0
  3  5  1  0  0  0  0
  5  6  1  1  0  0  0
  5  7  1  0  0  0  0
  7  8  1  6  0  0  0
  7  9  1  0  0  0  0
  9 27  1  0  0  0  0
 10 11  1  0  0  0  0
 11 12  2  0  0  0  0
 11 13  1  0  0  0  0
 13 14  1  0  0  0  0
 14 16  2  0  0  0  0
 15 14  1  1  0  0  0
 15 18  1  0  0  0  0
 15 26  1  0  0  0  0
 17 19  1  1  0  0  0
 17 25  1  0  0  0  0
 17 18  1  0  0  0  0
 19 20  1  0  0  0  0
 20 21  1  6  0  0  0
 20 22  1  0  0  0  0
 22 23  1  6  0  0  0
 22 24  1  0  0  0  0
 23 28  1  0  0  0  0
 23 29  1  0  0  0  0
 25 24  1  6  0  0  0
 25 27  1  0  0  0  0
 26 10  1  6  0  0  0
 26 27  1  0  0  0  0
M  END
>  <CHROM.1>
171.48692491,68.99246510,70.47272192,164.44862440,-105.81382690,-63.29876861
27.73554089,36.73400401,20.12036005,-1.57865405,-1.42706116,3.10464048

>  <Name>
ligand

>  <RI>
0

>  <Rbt.Current_Directory>
/home/itssahil/PROJECTS/Mol_Feturizer/New_Systems/rnas/3F4H

>  <Rbt.Executable>
rbdock ($Id: //depot/dev/client3/rdock/2013.1/src/exe/rbdock.cxx#4 $)

>  <Rbt.Library>
libRbt.so (2013.1, Build901 2013/11/27)

>  <Rbt.Parameter_File>
/export/apps/rDock/src/rDock_2013.1_src/data/scripts/dock_solv.prm

>  <Rbt.Receptor>
prm/pocket_docking_3.prm

>  <SCORE>
-47.0497

>  <SCORE.INTER>
-30.4358

>  <SCORE.INTER.CONST>
1

>  <SCORE.INTER.POLAR>
0

>  <SCORE.INTER.ROT>
6

>  <SCORE.INTER.SOLV>
11.5415

>  <SCORE.INTER.VDW>
-31.7377

>  <SCORE.INTER.norm>
-1.04951

>  <SCORE.INTRA>
-16.6139

>  <SCORE.INTRA.DIHEDRAL>
-3.02999

>  <SCORE.INTRA.DIHEDRAL.0>
6.83446

>  <SCORE.INTRA.POLAR>
0

>  <SCORE.INTRA.POLAR.0>
0

>  <SCORE.INTRA.REPUL>
0

>  <SCORE.INTRA.REPUL.0>
0

>  <SCORE.INTRA.SOLV>
-0.101085

>  <SCORE.INTRA.SOLV.lig_0>
-26.4601

>  <SCORE.INTRA.VDW>
-15.0484

>  <SCORE.INTRA.VDW.0>
13.7853

>  <SCORE.INTRA.norm>
-0.572894

>  <SCORE.RESTR>
0

>  <SCORE.RESTR.CAVITY>
0

>  <SCORE.RESTR.norm>
0

>  <SCORE.SYSTEM>
0

>  <SCORE.SYSTEM.CONST>
0

>  <SCORE.SYSTEM.DIHEDRAL>
0

>  <SCORE.SYSTEM.SOLV>
0

>  <SCORE.SYSTEM.norm>
0

>  <SCORE.heavy>
29

>  <SCORE.norm>
-1.6224

>  <RMSD>
1.321

$$$$
ligand
 OpenBabel11021811473D
libRbt.so/2013.1/901 2013/11/27
 29 31  0  0  0  0  0  0  0  0999 V2000
   27.8813   41.3439   16.8562 C   0  0  0  0  0  0  0  0  0  0  0  0
   28.9960   41.9776   17.4924 O   0  0  0  0  0  0  0  0  0  0  0  0
   27.3078   40.2831   17.7857 C   0  0  1  0  0  0  0  0  0  0  0  0
   26.0619   39.8415   17.2555 O   0  0  0  0  0  0  0  0  0  0  0  0
   28.2712   39.1107   17.9190 C   0  0  1  0  0  0  0  0  0  0  0  0
   29.4241   39.5895   18.6018 O   0  0  0  0  0  0  0  0  0  0  0  0
   27.7040   37.8859   18.6427 C   0  0  1  0  0  0  0  0  0  0  0  0
   26.7609   37.2480   17.7806 O   0  0  0  0  0  0  0  0  0  0  0  0
   28.7677   36.8590   19.0259 C   0  0  0  0  0  0  0  0  0  0  0  0
   28.5647   34.1176   18.3818 N   0  0  0  0  0  0  0  0  0  0  0  0
   28.4861   32.8004   18.0398 C   0  0  0  0  0  0  0  0  0  0  0  0
   28.8722   32.4129   16.9088 O   0  0  0  0  0  0  0  0  0  0  0  0
   27.9848   31.8930   18.9157 N   0  0  0  0  0  0  0  0  0  0  0  0
   27.5538   32.2754   20.1441 C   0  0  0  0  0  0  0  0  0  0  0  0
   27.6291   33.6153   20.5072 C   0  0  1  0  0  0  0  0  0  0  0  0
   27.0886   31.4324   20.9505 O   0  0  0  0  0  0  0  0  0  0  0  0
   27.2826   35.3053   22.0818 C   0  0  1  0  0  0  0  0  0  0  0  0
   27.2074   34.0054   21.7297 N   0  0  0  0  0  0  0  0  0  0  0  0
   26.8458   35.6981   23.3421 C   0  0  0  0  0  0  0  0  0  0  0  0
   26.9128   37.0302   23.7352 C   0  0  2  0  0  0  0  0  0  0  0  0
   26.4210   37.3865   25.1146 C   0  0  0  0  0  0  0  0  0  0  0  0
   27.4264   37.9895   22.8533 C   0  0  2  0  0  0  0  0  0  0  0  0
   27.5229   39.3160   23.1698 N   0  0  0  0  0  0  0  0  0  0  0  0
   27.8612   37.5791   21.5871 C   0  0  0  0  0  0  0  0  0  0  0  0
   27.7947   36.2446   21.1882 C   0  0  2  0  0  0  0  0  0  0  0  0
   28.1469   34.5511   19.6063 C   0  0  2  0  0  0  0  0  0  0  0  0
   28.2146   35.8601   19.9610 N   0  0  0  0  0  0  0  0  0  0  0  0
   28.5678   39.7664   24.0697 C   0  0  0  0  0  0  0  0  0  0  0  0
   26.6146   40.3172   22.6354 C   0  0  0  0  0  0  0  0  0  0  0  0
  1  2  1  0  0  0  0
  3  1  1  6  0  0  0
  3  4  1  0  0  0  0
  3  5  1  0  0  0  0
  5  6  1  1  0  0  0
  5  7  1  0  0  0  0
  7  8  1  6  0  0  0
  7  9  1  0  0  0  0
  9 27  1  0  0  0  0
 10 11  1  0  0  0  0
 11 12  2  0  0  0  0
 11 13  1  0  0  0  0
 13 14  1  0  0  0  0
 14 16  2  0  0  0  0
 15 14  1  1  0  0  0
 15 18  1  0  0  0  0
 15 26  1  0  0  0  0
 17 19  1  1  0  0  0
 17 25  1  0  0  0  0
 17 18  1  0  0  0  0
 19 20  1  0  0  0  0
 20 21  1  6  0  0  0
 20 22  1  0  0  0  0
 22 23  1  6  0  0  0
 22 24  1  0  0  0  0
 23 28  1  0  0  0  0
 23 29  1  0  0  0  0
 25 24  1  6  0  0  0
 25 27  1  0  0  0  0
 26 10  1  6  0  0  0
 26 27  1  0  0  0  0
M  END
>  <CHROM.1>
169.16644524,66.92727803,72.36047903,167.81003625,75.38272436,-63.98346971
27.73677164,36.76282884,20.14454595,-1.58122901,-1.41789504,3.08310759

>  <Name>
ligand

>  <RI>
0

>  <Rbt.Current_Directory>
/home/itssahil/PROJECTS/Mol_Feturizer/New_Systems/rnas/3F4H

>  <Rbt.Executable>
rbdock ($Id: //depot/dev/client3/rdock/2013.1/src/exe/rbdock.cxx#4 $)

>  <Rbt.Library>
libRbt.so (2013.1, Build901 2013/11/27)

>  <Rbt.Parameter_File>
/export/apps/rDock/src/rDock_2013.1_src/data/scripts/dock_solv.prm

>  <Rbt.Receptor>
prm/blind_docking_80.prm

>  <SCORE>
-47.1456

>  <SCORE.INTER>
-30.4439

>  <SCORE.INTER.CONST>
1

>  <SCORE.INTER.POLAR>
0

>  <SCORE.INTER.ROT>
6

>  <SCORE.INTER.SOLV>
11.6375

>  <SCORE.INTER.VDW>
-31.7751

>  <SCORE.INTER.norm>
-1.04979

>  <SCORE.INTRA>
-16.7017

>  <SCORE.INTRA.DIHEDRAL>
-3.15011

>  <SCORE.INTRA.DIHEDRAL.0>
6.83446

>  <SCORE.INTRA.POLAR>
0

>  <SCORE.INTRA.POLAR.0>
0

>  <SCORE.INTRA.REPUL>
0

>  <SCORE.INTRA.REPUL.0>
0

>  <SCORE.INTRA.SOLV>
-0.123819

>  <SCORE.INTRA.SOLV.lig_0>
-26.4601

>  <SCORE.INTRA.VDW>
-15.0648

>  <SCORE.INTRA.VDW.0>
13.7853

>  <SCORE.INTRA.norm>
-0.575922

>  <SCORE.RESTR>
0

>  <SCORE.RESTR.CAVITY>
0

>  <SCORE.RESTR.norm>
0

>  <SCORE.SYSTEM>
0

>  <SCORE.SYSTEM.CONST>
0

>  <SCORE.SYSTEM.DIHEDRAL>
0

>  <SCORE.SYSTEM.SOLV>
0

>  <SCORE.SYSTEM.norm>
0

>  <SCORE.heavy>
29

>  <SCORE.norm>
-1.62571

>  <RMSD>
1.322

$$$$
ligand
 OpenBabel11021811473D
libRbt.so/2013.1/901 2013/11/27
 29 31  0  0  0  0  0  0  0  0999 V2000
   29.2006   40.1652   15.8046 C   0  0  0  0  0  0  0  0  0  0  0  0
   30.1322   40.0690   14.7221 O   0  0  0  0  0  0  0  0  0  0  0  0
   28.9376   38.7749   16.3670 C   0  0  1  0  0  0  0  0  0  0  0  0
   30.1584   38.2583   16.8876 O   0  0  0  0  0  0  0  0  0  0  0  0
   27.8783   38.8312   17.4601 C   0  0  1  0  0  0  0  0  0  0  0  0
   26.7067   39.3948   16.8816 O   0  0  0  0  0  0  0  0  0  0  0  0
   27.5466   37.4847   18.1101 C   0  0  1  0  0  0  0  0  0  0  0  0
   27.2514   36.5443   17.0767 O   0  0  0  0  0  0  0  0  0  0  0  0
   28.6867   36.9198   18.9550 C   0  0  0  0  0  0  0  0  0  0  0  0
   28.5017   34.1780   18.3071 N   0  0  0  0  0  0  0  0  0  0  0  0
   28.4306   32.8611   17.9626 C   0  0  0  0  0  0  0  0  0  0  0  0
   28.7833   32.4833   16.8175 O   0  0  0  0  0  0  0  0  0  0  0  0
   27.9728   31.9433   18.8515 N   0  0  0  0  0  0  0  0  0  0  0  0
   27.5787   32.3149   20.0954 C   0  0  0  0  0  0  0  0  0  0  0  0
   27.6469   33.6545   20.4611 C   0  0  1  0  0  0  0  0  0  0  0  0
   27.1537   31.4623   20.9139 O   0  0  0  0  0  0  0  0  0  0  0  0
   27.3300   35.3336   22.0535 C   0  0  1  0  0  0  0  0  0  0  0  0
   27.2617   34.0340   21.6989 N   0  0  0  0  0  0  0  0  0  0  0  0
   26.9309   35.7155   23.3296 C   0  0  0  0  0  0  0  0  0  0  0  0
   26.9920   37.0470   23.7257 C   0  0  2  0  0  0  0  0  0  0  0  0
   26.5426   37.3911   25.1225 C   0  0  0  0  0  0  0  0  0  0  0  0
   27.4611   38.0169   22.8306 C   0  0  2  0  0  0  0  0  0  0  0  0
   27.5491   39.3435   23.1490 N   0  0  0  0  0  0  0  0  0  0  0  0
   27.8581   37.6174   21.5487 C   0  0  0  0  0  0  0  0  0  0  0  0
   27.7974   36.2834   21.1468 C   0  0  2  0  0  0  0  0  0  0  0  0
   28.1198   34.6010   19.5469 C   0  0  2  0  0  0  0  0  0  0  0  0
   28.1806   35.9095   19.9044 N   0  0  0  0  0  0  0  0  0  0  0  0
   26.5968   40.2826   22.5872 C   0  0  0  0  0  0  0  0  0  0  0  0
   28.5674   39.8687   24.0434 C   0  0  0  0  0  0  0  0  0  0  0  0
  1  2  1  0  0  0  0
  3  1  1  1  0  0  0
  3  4  1  0  0  0  0
  3  5  1  0  0  0  0
  5  6  1  6  0  0  0
  5  7  1  0  0  0  0
  7  8  1  6  0  0  0
  7  9  1  0  0  0  0
  9 27  1  0  0  0  0
 10 11  1  0  0  0  0
 11 12  2  0  0  0  0
 11 13  1  0  0  0  0
 13 14  1  0  0  0  0
 14 16  2  0  0  0  0
 15 14  1  1  0  0  0
 15 18  1  0  0  0  0
 15 26  1  0  0  0  0
 17 19  1  1  0  0  0
 17 25  1  0  0  0  0
 17 18  1  0  0  0  0
 19 20  1  0  0  0  0
 20 21  1  6  0  0  0
 20 22  1  0  0  0  0
 22 23  1  6  0  0  0
 22 24  1  0  0  0  0
 23 28  1  0  0  0  0
 23 29  1  0  0  0  0
 25 24  1  6  0  0  0
 25 27  1  0  0  0  0
 26 10  1  6  0  0  0
 26 27  1  0  0  0  0
M  END
>  <CHROM.1>
62.66110100,58.04100438,-51.62734906,160.40475169,-106.42398408,-91.29195671
27.94454521,36.50069231,19.77492029,0.13270625,1.34043992,0.20993344

>  <Name>
ligand

>  <RI>
0

>  <Rbt.Current_Directory>
/home/itssahil/PROJECTS/Mol_Feturizer/New_Systems/rnas/3F4H

>  <Rbt.Executable>
rbdock ($Id: //depot/dev/client3/rdock/2013.1/src/exe/rbdock.cxx#4 $)

>  <Rbt.Library>
libRbt.so (2013.1, Build901 2013/11/27)

>  <Rbt.Parameter_File>
/export/apps/rDock/src/rDock_2013.1_src/data/scripts/dock_solv.prm

>  <Rbt.Receptor>
prm/pocket_docking_6.prm

>  <SCORE>
-48.4333

>  <SCORE.INTER>
-31.6147

>  <SCORE.INTER.CONST>
1

>  <SCORE.INTER.POLAR>
0

>  <SCORE.INTER.ROT>
6

>  <SCORE.INTER.SOLV>
12.1416

>  <SCORE.INTER.VDW>
-32.7237

>  <SCORE.INTER.norm>
-1.09016

>  <SCORE.INTRA>
-16.8185

>  <SCORE.INTRA.DIHEDRAL>
-3.21001

>  <SCORE.INTRA.DIHEDRAL.0>
6.83446

>  <SCORE.INTRA.POLAR>
0

>  <SCORE.INTRA.POLAR.0>
0

>  <SCORE.INTRA.REPUL>
0

>  <SCORE.INTRA.REPUL.0>
0

>  <SCORE.INTRA.SOLV>
-0.202145

>  <SCORE.INTRA.SOLV.lig_0>
-26.4601

>  <SCORE.INTRA.VDW>
-15.1125

>  <SCORE.INTRA.VDW.0>
13.7853

>  <SCORE.INTRA.norm>
-0.57995

>  <SCORE.RESTR>
0

>  <SCORE.RESTR.CAVITY>
0

>  <SCORE.RESTR.norm>
0

>  <SCORE.SYSTEM>
0

>  <SCORE.SYSTEM.CONST>
0

>  <SCORE.SYSTEM.DIHEDRAL>
0

>  <SCORE.SYSTEM.SOLV>
0

>  <SCORE.SYSTEM.norm>
0

>  <SCORE.heavy>
29

>  <SCORE.norm>
-1.67011

>  <RMSD>
1.323

$$$$
ligand
 OpenBabel11021811473D
libRbt.so/2013.1/901 2013/11/27
 29 31  0  0  0  0  0  0  0  0999 V2000
   29.3700   40.4220   16.2469 C   0  0  0  0  0  0  0  0  0  0  0  0
   30.0840   40.3746   15.0072 O   0  0  0  0  0  0  0  0  0  0  0  0
   28.9480   39.0125   16.6386 C   0  0  1  0  0  0  0  0  0  0  0  0
   30.1190   38.2438   16.8954 O   0  0  0  0  0  0  0  0  0  0  0  0
   28.0552   39.0445   17.8724 C   0  0  1  0  0  0  0  0  0  0  0  0
   26.9277   39.8522   17.5546 O   0  0  0  0  0  0  0  0  0  0  0  0
   27.5933   37.6727   18.3728 C   0  0  1  0  0  0  0  0  0  0  0  0
   27.0025   36.9681   17.2800 O   0  0  0  0  0  0  0  0  0  0  0  0
   28.7269   36.8161   18.9332 C   0  0  0  0  0  0  0  0  0  0  0  0
   28.5357   34.0694   18.3083 N   0  0  0  0  0  0  0  0  0  0  0  0
   28.4621   32.7497   17.9752 C   0  0  0  0  0  0  0  0  0  0  0  0
   28.8271   32.3595   16.8381 O   0  0  0  0  0  0  0  0  0  0  0  0
   27.9883   31.8426   18.8667 N   0  0  0  0  0  0  0  0  0  0  0  0
   27.5805   32.2278   20.1020 C   0  0  0  0  0  0  0  0  0  0  0  0
   27.6511   33.5704   20.4562 C   0  0  1  0  0  0  0  0  0  0  0  0
   27.1408   31.3850   20.9229 O   0  0  0  0  0  0  0  0  0  0  0  0
   27.3231   35.2658   22.0289 C   0  0  1  0  0  0  0  0  0  0  0  0
   27.2524   33.9634   21.6855 N   0  0  0  0  0  0  0  0  0  0  0  0
   26.9100   35.6616   23.2962 C   0  0  0  0  0  0  0  0  0  0  0  0
   26.9730   36.9965   23.6807 C   0  0  2  0  0  0  0  0  0  0  0  0
   26.5079   37.3558   25.0685 C   0  0  0  0  0  0  0  0  0  0  0  0
   27.4584   37.9555   22.7826 C   0  0  2  0  0  0  0  0  0  0  0  0
   27.5493   39.2846   23.0899 N   0  0  0  0  0  0  0  0  0  0  0  0
   27.8694   37.5421   21.5096 C   0  0  0  0  0  0  0  0  0  0  0  0
   27.8068   36.2048   21.1193 C   0  0  2  0  0  0  0  0  0  0  0  0
   28.1405   34.5059   19.5392 C   0  0  2  0  0  0  0  0  0  0  0  0
   28.2036   35.8174   19.8854 N   0  0  0  0  0  0  0  0  0  0  0  0
   26.6275   40.2272   22.4848 C   0  0  0  0  0  0  0  0  0  0  0  0
   28.5411   39.8091   24.0141 C   0  0  0  0  0  0  0  0  0  0  0  0
  1  2  1  0  0  0  0
  3  1  1  1  0  0  0
  3  4  1  0  0  0  0
  3  5  1  0  0  0  0
  5  6  1  6  0  0  0
  5  7  1  0  0  0  0
  7  8  1  6  0  0  0
  7  9  1  0  0  0  0
  9 27  1  0  0  0  0
 10 11  1  0  0  0  0
 11 12  2  0  0  0  0
 11 13  1  0  0  0  0
 13 14  1  0  0  0  0
 14 16  2  0  0  0  0
 15 14  1  1  0  0  0
 15 18  1  0  0  0  0
 15 26  1  0  0  0  0
 17 19  1  1  0  0  0
 17 25  1  0  0  0  0
 17 18  1  0  0  0  0
 19 20  1  0  0  0  0
 20 21  1  6  0  0  0
 20 22  1  0  0  0  0
 22 23  1  6  0  0  0
 22 24  1  0  0  0  0
 23 28  1  0  0  0  0
 23 29  1  0  0  0  0
 25 24  1  6  0  0  0
 25 27  1  0  0  0  0
 26 10  1  6  0  0  0
 26 27  1  0  0  0  0
M  END
>  <CHROM.1>
65.07751588,58.50998421,-52.65498984,155.88624783,-107.76146475,-74.27774732
27.95815430,36.52209105,19.85279951,-0.75702100,-1.31845083,-2.94877135

>  <Name>
ligand

>  <RI>
0

>  <Rbt.Current_Directory>
/home/itssahil/PROJECTS/Mol_Feturizer/New_Systems/rnas/3F4H

>  <Rbt.Executable>
rbdock ($Id: //depot/dev/client3/rdock/2013.1/src/exe/rbdock.cxx#4 $)

>  <Rbt.Library>
libRbt.so (2013.1, Build901 2013/11/27)

>  <Rbt.Parameter_File>
/export/apps/rDock/src/rDock_2013.1_src/data/scripts/dock_solv.prm

>  <Rbt.Receptor>
prm/pocket_docking_5.prm

>  <SCORE>
-48.0416

>  <SCORE.INTER>
-31.6411

>  <SCORE.INTER.CONST>
1

>  <SCORE.INTER.POLAR>
0

>  <SCORE.INTER.ROT>
6

>  <SCORE.INTER.SOLV>
11.8951

>  <SCORE.INTER.VDW>
-32.6591

>  <SCORE.INTER.norm>
-1.09107

>  <SCORE.INTRA>
-16.4005

>  <SCORE.INTRA.DIHEDRAL>
-2.65251

>  <SCORE.INTRA.DIHEDRAL.0>
6.83446

>  <SCORE.INTRA.POLAR>
0

>  <SCORE.INTRA.POLAR.0>
0

>  <SCORE.INTRA.REPUL>
0

>  <SCORE.INTRA.REPUL.0>
0

>  <SCORE.INTRA.SOLV>
-0.278705

>  <SCORE.INTRA.SOLV.lig_0>
-26.4601

>  <SCORE.INTRA.VDW>
-14.9349

>  <SCORE.INTRA.VDW.0>
13.7853

>  <SCORE.INTRA.norm>
-0.565536

>  <SCORE.RESTR>
0

>  <SCORE.RESTR.CAVITY>
0

>  <SCORE.RESTR.norm>
0

>  <SCORE.SYSTEM>
0

>  <SCORE.SYSTEM.CONST>
0

>  <SCORE.SYSTEM.DIHEDRAL>
0

>  <SCORE.SYSTEM.SOLV>
0

>  <SCORE.SYSTEM.norm>
0

>  <SCORE.heavy>
29

>  <SCORE.norm>
-1.65661

>  <RMSD>
1.331

$$$$
ligand
 OpenBabel11021811473D
libRbt.so/2013.1/901 2013/11/27
 29 31  0  0  0  0  0  0  0  0999 V2000
   28.4237   39.9764   16.7021 C   0  0  0  0  0  0  0  0  0  0  0  0
   27.2780   40.0714   15.8492 O   0  0  0  0  0  0  0  0  0  0  0  0
   29.1860   38.6984   16.3798 C   0  0  1  0  0  0  0  0  0  0  0  0
   30.2935   38.5949   17.2692 O   0  0  0  0  0  0  0  0  0  0  0  0
   28.2783   37.4834   16.5218 C   0  0  1  0  0  0  0  0  0  0  0  0
   29.0245   36.3492   16.0956 O   0  0  0  0  0  0  0  0  0  0  0  0
   27.7264   37.2488   17.9310 C   0  0  1  0  0  0  0  0  0  0  0  0
   26.7268   36.2311   17.8614 O   0  0  0  0  0  0  0  0  0  0  0  0
   28.7886   36.8036   18.9341 C   0  0  0  0  0  0  0  0  0  0  0  0
   28.5546   34.0601   18.3100 N   0  0  0  0  0  0  0  0  0  0  0  0
   28.4609   32.7415   17.9775 C   0  0  0  0  0  0  0  0  0  0  0  0
   28.8361   32.3425   16.8468 O   0  0  0  0  0  0  0  0  0  0  0  0
   27.9560   31.8450   18.8626 N   0  0  0  0  0  0  0  0  0  0  0  0
   27.5364   32.2400   20.0910 C   0  0  0  0  0  0  0  0  0  0  0  0
   27.6272   33.5815   20.4444 C   0  0  1  0  0  0  0  0  0  0  0  0
   27.0679   31.4071   20.9060 O   0  0  0  0  0  0  0  0  0  0  0  0
   27.3071   35.2854   22.0095 C   0  0  1  0  0  0  0  0  0  0  0  0
   27.2169   33.9840   21.6668 N   0  0  0  0  0  0  0  0  0  0  0  0
   26.8819   35.6911   23.2697 C   0  0  0  0  0  0  0  0  0  0  0  0
   26.9645   37.0251   23.6534 C   0  0  2  0  0  0  0  0  0  0  0  0
   26.4847   37.3955   25.0332 C   0  0  0  0  0  0  0  0  0  0  0  0
   27.4821   37.9733   22.7618 C   0  0  2  0  0  0  0  0  0  0  0  0
   27.5937   39.3009   23.0687 N   0  0  0  0  0  0  0  0  0  0  0  0
   27.9050   37.5500   21.4959 C   0  0  0  0  0  0  0  0  0  0  0  0
   27.8229   36.2135   21.1064 C   0  0  2  0  0  0  0  0  0  0  0  0
   28.1486   34.5060   19.5340 C   0  0  2  0  0  0  0  0  0  0  0  0
   28.2314   35.8166   19.8794 N   0  0  0  0  0  0  0  0  0  0  0  0
   26.6837   40.2570   22.4668 C   0  0  0  0  0  0  0  0  0  0  0  0
   28.5963   39.8107   23.9894 C   0  0  0  0  0  0  0  0  0  0  0  0
  1  2  1  0  0  0  0
  3  1  1  1  0  0  0
  3  4  1  0  0  0  0
  3  5  1  0  0  0  0
  5  6  1  1  0  0  0
  5  7  1  0  0  0  0
  7  8  1  6  0  0  0
  7  9  1  0  0  0  0
  9 27  1  0  0  0  0
 10 11  1  0  0  0  0
 11 12  2  0  0  0  0
 11 13  1  0  0  0  0
 13 14  1  0  0  0  0
 14 16  2  0  0  0  0
 15 14  1  1  0  0  0
 15 18  1  0  0  0  0
 15 26  1  0  0  0  0
 17 19  1  1  0  0  0
 17 25  1  0  0  0  0
 17 18  1  0  0  0  0
 19 20  1  0  0  0  0
 20 21  1  6  0  0  0
 20 22  1  0  0  0  0
 22 23  1  6  0  0  0
 22 24  1  0  0  0  0
 23 28  1  0  0  0  0
 23 29  1  0  0  0  0
 25 24  1  6  0  0  0
 25 27  1  0  0  0  0
 26 10  1  6  0  0  0
 26 27  1  0  0  0  0
M  END
>  <CHROM.1>
-177.89187616,175.09173003,170.18567336,-143.20271093,-106.63420701,-98.80515213
27.91428562,36.27019160,19.80603409,-0.67908118,1.36503702,0.17307065

>  <Name>
ligand

>  <RI>
0

>  <Rbt.Current_Directory>
/home/itssahil/PROJECTS/Mol_Feturizer/New_Systems/rnas/3F4H

>  <Rbt.Executable>
rbdock ($Id: //depot/dev/client3/rdock/2013.1/src/exe/rbdock.cxx#4 $)

>  <Rbt.Library>
libRbt.so (2013.1, Build901 2013/11/27)

>  <Rbt.Parameter_File>
/export/apps/rDock/src/rDock_2013.1_src/data/scripts/dock_solv.prm

>  <Rbt.Receptor>
prm/pocket_docking_6.prm

>  <SCORE>
-45.8108

>  <SCORE.INTER>
-30.7032

>  <SCORE.INTER.CONST>
1

>  <SCORE.INTER.POLAR>
0

>  <SCORE.INTER.ROT>
6

>  <SCORE.INTER.SOLV>
11.1389

>  <SCORE.INTER.VDW>
-31.7818

>  <SCORE.INTER.norm>
-1.05873

>  <SCORE.INTRA>
-15.1076

>  <SCORE.INTRA.DIHEDRAL>
-0.760239

>  <SCORE.INTRA.DIHEDRAL.0>
6.83446

>  <SCORE.INTRA.POLAR>
0

>  <SCORE.INTRA.POLAR.0>
0

>  <SCORE.INTRA.REPUL>
0

>  <SCORE.INTRA.REPUL.0>
0

>  <SCORE.INTRA.SOLV>
0.0876685

>  <SCORE.INTRA.SOLV.lig_0>
-26.4601

>  <SCORE.INTRA.VDW>
-14.7713

>  <SCORE.INTRA.VDW.0>
13.7853

>  <SCORE.INTRA.norm>
-0.520951

>  <SCORE.RESTR>
0

>  <SCORE.RESTR.CAVITY>
0

>  <SCORE.RESTR.norm>
0

>  <SCORE.SYSTEM>
0

>  <SCORE.SYSTEM.CONST>
0

>  <SCORE.SYSTEM.DIHEDRAL>
0

>  <SCORE.SYSTEM.SOLV>
0

>  <SCORE.SYSTEM.norm>
0

>  <SCORE.heavy>
29

>  <SCORE.norm>
-1.57968

>  <RMSD>
1.337

$$$$
ligand
 OpenBabel11021811473D
libRbt.so/2013.1/901 2013/11/27
 29 31  0  0  0  0  0  0  0  0999 V2000
   29.1999   40.2076   15.8817 C   0  0  0  0  0  0  0  0  0  0  0  0
   30.0696   40.0911   14.7508 O   0  0  0  0  0  0  0  0  0  0  0  0
   28.7772   38.8174   16.3366 C   0  0  1  0  0  0  0  0  0  0  0  0
   29.9452   38.0786   16.6807 O   0  0  0  0  0  0  0  0  0  0  0  0
   27.8374   38.9080   17.5320 C   0  0  1  0  0  0  0  0  0  0  0  0
   26.6554   39.5644   17.0886 O   0  0  0  0  0  0  0  0  0  0  0  0
   27.4813   37.5661   18.1786 C   0  0  1  0  0  0  0  0  0  0  0  0
   27.0653   36.6655   17.1512 O   0  0  0  0  0  0  0  0  0  0  0  0
   28.6461   36.9246   18.9298 C   0  0  0  0  0  0  0  0  0  0  0  0
   28.4720   34.1797   18.2921 N   0  0  0  0  0  0  0  0  0  0  0  0
   28.4058   32.8613   17.9524 C   0  0  0  0  0  0  0  0  0  0  0  0
   28.7498   32.4822   16.8050 O   0  0  0  0  0  0  0  0  0  0  0  0
   27.9622   31.9434   18.8484 N   0  0  0  0  0  0  0  0  0  0  0  0
   27.5776   32.3165   20.0949 C   0  0  0  0  0  0  0  0  0  0  0  0
   27.6410   33.6576   20.4558 C   0  0  1  0  0  0  0  0  0  0  0  0
   27.1658   31.4638   20.9199 O   0  0  0  0  0  0  0  0  0  0  0  0
   27.3289   35.3396   22.0460 C   0  0  1  0  0  0  0  0  0  0  0  0
   27.2653   34.0386   21.6961 N   0  0  0  0  0  0  0  0  0  0  0  0
   26.9397   35.7230   23.3247 C   0  0  0  0  0  0  0  0  0  0  0  0
   26.9962   37.0562   23.7161 C   0  0  2  0  0  0  0  0  0  0  0  0
   26.5580   37.4018   25.1161 C   0  0  0  0  0  0  0  0  0  0  0  0
   27.4507   38.0261   22.8136 C   0  0  2  0  0  0  0  0  0  0  0  0
   27.5334   39.3543   23.1271 N   0  0  0  0  0  0  0  0  0  0  0  0
   27.8379   37.6251   21.5291 C   0  0  0  0  0  0  0  0  0  0  0  0
   27.7817   36.2896   21.1319 C   0  0  2  0  0  0  0  0  0  0  0  0
   28.0993   34.6041   19.5342 C   0  0  2  0  0  0  0  0  0  0  0  0
   28.1553   35.9141   19.8871 N   0  0  0  0  0  0  0  0  0  0  0  0
   26.5549   40.2818   22.5918 C   0  0  0  0  0  0  0  0  0  0  0  0
   28.5718   39.8923   23.9904 C   0  0  0  0  0  0  0  0  0  0  0  0
  1  2  1  0  0  0  0
  3  1  1  1  0  0  0
  3  4  1  0  0  0  0
  3  5  1  0  0  0  0
  5  6  1  6  0  0  0
  5  7  1  0  0  0  0
  7  8  1  6  0  0  0
  7  9  1  0  0  0  0
  9 27  1  0  0  0  0
 10 11  1  0  0  0  0
 11 12  2  0  0  0  0
 11 13  1  0  0  0  0
 13 14  1  0  0  0  0
 14 16  2  0  0  0  0
 15 14  1  1  0  0  0
 15 18  1  0  0  0  0
 15 26  1  0  0  0  0
 17 19  1  1  0  0  0
 17 25  1  0  0  0  0
 17 18  1  0  0  0  0
 19 20  1  0  0  0  0
 20 21  1  6  0  0  0
 20 22  1  0  0  0  0
 22 23  1  6  0  0  0
 22 24  1  0  0  0  0
 23 28  1  0  0  0  0
 23 29  1  0  0  0  0
 25 24  1  6  0  0  0
 25 27  1  0  0  0  0
 26 10  1  6  0  0  0
 26 27  1  0  0  0  0
M  END
>  <CHROM.1>
59.45463953,64.33028279,-49.69145100,160.78816701,-105.25766241,-86.41984879
27.90672581,36.51794119,19.77697005,0.20869104,1.34815729,0.17230430

>  <Name>
ligand

>  <RI>
0

>  <Rbt.Current_Directory>
/home/itssahil/PROJECTS/Mol_Feturizer/New_Systems/rnas/3F4H

>  <Rbt.Executable>
rbdock ($Id: //depot/dev/client3/rdock/2013.1/src/exe/rbdock.cxx#4 $)

>  <Rbt.Library>
libRbt.so (2013.1, Build901 2013/11/27)

>  <Rbt.Parameter_File>
/export/apps/rDock/src/rDock_2013.1_src/data/scripts/dock_solv.prm

>  <Rbt.Receptor>
prm/blind_docking_100.prm

>  <SCORE>
-48.4951

>  <SCORE.INTER>
-31.6388

>  <SCORE.INTER.CONST>
1

>  <SCORE.INTER.POLAR>
0

>  <SCORE.INTER.ROT>
6

>  <SCORE.INTER.SOLV>
12.1066

>  <SCORE.INTER.VDW>
-32.7281

>  <SCORE.INTER.norm>
-1.09099

>  <SCORE.INTRA>
-16.8564

>  <SCORE.INTRA.DIHEDRAL>
-3.0952

>  <SCORE.INTRA.DIHEDRAL.0>
6.83446

>  <SCORE.INTRA.POLAR>
0

>  <SCORE.INTRA.POLAR.0>
0

>  <SCORE.INTRA.REPUL>
0

>  <SCORE.INTRA.REPUL.0>
0

>  <SCORE.INTRA.SOLV>
-0.19952

>  <SCORE.INTRA.SOLV.lig_0>
-26.4601

>  <SCORE.INTRA.VDW>
-15.209

>  <SCORE.INTRA.VDW.0>
13.7853

>  <SCORE.INTRA.norm>
-0.581254

>  <SCORE.RESTR>
0

>  <SCORE.RESTR.CAVITY>
0

>  <SCORE.RESTR.norm>
0

>  <SCORE.SYSTEM>
0

>  <SCORE.SYSTEM.CONST>
0

>  <SCORE.SYSTEM.DIHEDRAL>
0

>  <SCORE.SYSTEM.SOLV>
0

>  <SCORE.SYSTEM.norm>
0

>  <SCORE.heavy>
29

>  <SCORE.norm>
-1.67225

>  <RMSD>
1.340

$$$$
ligand
 OpenBabel11021811473D
libRbt.so/2013.1/901 2013/11/27
 29 31  0  0  0  0  0  0  0  0999 V2000
   29.1518   40.1048   15.7233 C   0  0  0  0  0  0  0  0  0  0  0  0
   29.8063   40.9215   16.6998 O   0  0  0  0  0  0  0  0  0  0  0  0
   28.8173   38.7536   16.3402 C   0  0  1  0  0  0  0  0  0  0  0  0
   30.0320   38.1194   16.7282 O   0  0  0  0  0  0  0  0  0  0  0  0
   27.9027   38.9273   17.5458 C   0  0  1  0  0  0  0  0  0  0  0  0
   26.7454   39.6241   17.0987 O   0  0  0  0  0  0  0  0  0  0  0  0
   27.4948   37.6254   18.2418 C   0  0  1  0  0  0  0  0  0  0  0  0
   26.9204   36.7529   17.2679 O   0  0  0  0  0  0  0  0  0  0  0  0
   28.6634   36.8966   18.9022 C   0  0  0  0  0  0  0  0  0  0  0  0
   28.5088   34.1421   18.3020 N   0  0  0  0  0  0  0  0  0  0  0  0
   28.4522   32.8187   17.9804 C   0  0  0  0  0  0  0  0  0  0  0  0
   28.8047   32.4257   16.8403 O   0  0  0  0  0  0  0  0  0  0  0  0
   28.0092   31.9109   18.8867 N   0  0  0  0  0  0  0  0  0  0  0  0
   27.6157   32.2990   20.1258 C   0  0  0  0  0  0  0  0  0  0  0  0
   27.6692   33.6453   20.4683 C   0  0  1  0  0  0  0  0  0  0  0  0
   27.2044   31.4554   20.9605 O   0  0  0  0  0  0  0  0  0  0  0  0
   27.3387   35.3475   22.0332 C   0  0  1  0  0  0  0  0  0  0  0  0
   27.2846   34.0413   21.7011 N   0  0  0  0  0  0  0  0  0  0  0  0
   26.9402   35.7464   23.3043 C   0  0  0  0  0  0  0  0  0  0  0  0
   26.9869   37.0851   23.6773 C   0  0  2  0  0  0  0  0  0  0  0  0
   26.5391   37.4476   25.0699 C   0  0  0  0  0  0  0  0  0  0  0  0
   27.4405   38.0451   22.7637 C   0  0  2  0  0  0  0  0  0  0  0  0
   27.5138   39.3780   23.0591 N   0  0  0  0  0  0  0  0  0  0  0  0
   27.8371   37.6285   21.4871 C   0  0  0  0  0  0  0  0  0  0  0  0
   27.7908   36.2872   21.1083 C   0  0  2  0  0  0  0  0  0  0  0  0
   28.1269   34.5816   19.5360 C   0  0  2  0  0  0  0  0  0  0  0  0
   28.1734   35.8967   19.8709 N   0  0  0  0  0  0  0  0  0  0  0  0
   26.4940   40.2819   22.5615 C   0  0  0  0  0  0  0  0  0  0  0  0
   28.5820   39.9441   23.8662 C   0  0  0  0  0  0  0  0  0  0  0  0
  1  2  1  0  0  0  0
  3  1  1  1  0  0  0
  3  4  1  0  0  0  0
  3  5  1  0  0  0  0
  5  6  1  6  0  0  0
  5  7  1  0  0  0  0
  7  8  1  6  0  0  0
  7  9  1  0  0  0  0
  9 27  1  0  0  0  0
 10 11  1  0  0  0  0
 11 12  2  0  0  0  0
 11 13  1  0  0  0  0
 13 14  1  0  0  0  0
 14 16  2  0  0  0  0
 15 14  1  1  0  0  0
 15 18  1  0  0  0  0
 15 26  1  0  0  0  0
 17 19  1  1  0  0  0
 17 25  1  0  0  0  0
 17 18  1  0  0  0  0
 19 20  1  0  0  0  0
 20 21  1  6  0  0  0
 20 22  1  0  0  0  0
 22 23  1  6  0  0  0
 22 24  1  0  0  0  0
 23 28  1  0  0  0  0
 23 29  1  0  0  0  0
 25 24  1  6  0  0  0
 25 27  1  0  0  0  0
 26 10  1  6  0  0  0
 26 27  1  0  0  0  0
M  END
>  <CHROM.1>
-61.50003939,57.00672149,-54.29925666,163.28770154,-102.13470329,-80.44410803
27.90913942,36.55321284,19.84927120,-1.04872841,-1.34655530,-2.97656043

>  <Name>
ligand

>  <RI>
0

>  <Rbt.Current_Directory>
/home/itssahil/PROJECTS/Mol_Feturizer/New_Systems/rnas/3F4H

>  <Rbt.Executable>
rbdock ($Id: //depot/dev/client3/rdock/2013.1/src/exe/rbdock.cxx#4 $)

>  <Rbt.Library>
libRbt.so (2013.1, Build901 2013/11/27)

>  <Rbt.Parameter_File>
/export/apps/rDock/src/rDock_2013.1_src/data/scripts/dock_solv.prm

>  <Rbt.Receptor>
prm/pocket_docking_6.prm

>  <SCORE>
-48.2978

>  <SCORE.INTER>
-31.4458

>  <SCORE.INTER.CONST>
1

>  <SCORE.INTER.POLAR>
0

>  <SCORE.INTER.ROT>
6

>  <SCORE.INTER.SOLV>
11.101

>  <SCORE.INTER.VDW>
-32.2642

>  <SCORE.INTER.norm>
-1.08434

>  <SCORE.INTRA>
-16.852

>  <SCORE.INTRA.DIHEDRAL>
-3.67084

>  <SCORE.INTRA.DIHEDRAL.0>
6.83446

>  <SCORE.INTRA.POLAR>
0

>  <SCORE.INTRA.POLAR.0>
0

>  <SCORE.INTRA.REPUL>
0

>  <SCORE.INTRA.REPUL.0>
0

>  <SCORE.INTRA.SOLV>
0.136652

>  <SCORE.INTRA.SOLV.lig_0>
-26.4601

>  <SCORE.INTRA.VDW>
-15.0849

>  <SCORE.INTRA.VDW.0>
13.7853

>  <SCORE.INTRA.norm>
-0.581105

>  <SCORE.RESTR>
0

>  <SCORE.RESTR.CAVITY>
0

>  <SCORE.RESTR.norm>
0

>  <SCORE.SYSTEM>
0

>  <SCORE.SYSTEM.CONST>
0

>  <SCORE.SYSTEM.DIHEDRAL>
0

>  <SCORE.SYSTEM.SOLV>
0

>  <SCORE.SYSTEM.norm>
0

>  <SCORE.heavy>
29

>  <SCORE.norm>
-1.66544

>  <RMSD>
1.345

$$$$
ligand
 OpenBabel11021811473D
libRbt.so/2013.1/901 2013/11/27
 29 31  0  0  0  0  0  0  0  0999 V2000
   26.6478   40.1772   18.4704 C   0  0  0  0  0  0  0  0  0  0  0  0
   26.8300   41.4661   19.0658 O   0  0  0  0  0  0  0  0  0  0  0  0
   27.9010   39.8010   17.6918 C   0  0  1  0  0  0  0  0  0  0  0  0
   28.9926   39.7177   18.6029 O   0  0  0  0  0  0  0  0  0  0  0  0
   27.7072   38.4706   16.9757 C   0  0  1  0  0  0  0  0  0  0  0  0
   28.9002   38.2083   16.2459 O   0  0  0  0  0  0  0  0  0  0  0  0
   27.3797   37.2855   17.8889 C   0  0  1  0  0  0  0  0  0  0  0  0
   26.9851   36.1817   17.0731 O   0  0  0  0  0  0  0  0  0  0  0  0
   28.5572   36.8402   18.7537 C   0  0  0  0  0  0  0  0  0  0  0  0
   28.4353   34.0734   18.2050 N   0  0  0  0  0  0  0  0  0  0  0  0
   28.3932   32.7438   17.9076 C   0  0  0  0  0  0  0  0  0  0  0  0
   28.7123   32.3379   16.7622 O   0  0  0  0  0  0  0  0  0  0  0  0
   28.0007   31.8434   18.8443 N   0  0  0  0  0  0  0  0  0  0  0  0
   27.6443   32.2453   20.0902 C   0  0  0  0  0  0  0  0  0  0  0  0
   27.6836   33.5981   20.4082 C   0  0  1  0  0  0  0  0  0  0  0  0
   27.2797   31.4086   20.9530 O   0  0  0  0  0  0  0  0  0  0  0  0
   27.3760   35.3205   21.9556 C   0  0  1  0  0  0  0  0  0  0  0  0
   27.3357   34.0080   21.6474 N   0  0  0  0  0  0  0  0  0  0  0  0
   27.0156   35.7336   23.2335 C   0  0  0  0  0  0  0  0  0  0  0  0
   27.0493   37.0792   23.5824 C   0  0  2  0  0  0  0  0  0  0  0  0
   26.6446   37.4571   24.9841 C   0  0  0  0  0  0  0  0  0  0  0  0
   27.4511   38.0317   22.6373 C   0  0  2  0  0  0  0  0  0  0  0  0
   27.5087   39.3706   22.9077 N   0  0  0  0  0  0  0  0  0  0  0  0
   27.8098   37.6008   21.3542 C   0  0  0  0  0  0  0  0  0  0  0  0
   27.7763   36.2525   20.9996 C   0  0  2  0  0  0  0  0  0  0  0  0
   28.0893   34.5267   19.4446 C   0  0  2  0  0  0  0  0  0  0  0  0
   28.1219   35.8481   19.7558 N   0  0  0  0  0  0  0  0  0  0  0  0
   26.4838   40.2545   22.3855 C   0  0  0  0  0  0  0  0  0  0  0  0
   28.5651   39.9628   23.7117 C   0  0  0  0  0  0  0  0  0  0  0  0
  1  2  1  0  0  0  0
  3  1  1  1  0  0  0
  3  4  1  0  0  0  0
  3  5  1  0  0  0  0
  5  6  1  1  0  0  0
  5  7  1  0  0  0  0
  7  8  1  6  0  0  0
  7  9  1  0  0  0  0
  9 27  1  0  0  0  0
 10 11  1  0  0  0  0
 11 12  2  0  0  0  0
 11 13  1  0  0  0  0
 13 14  1  0  0  0  0
 14 16  2  0  0  0  0
 15 14  1  1  0  0  0
 15 18  1  0  0  0  0
 15 26  1  0  0  0  0
 17 19  1  1  0  0  0
 17 25  1  0  0  0  0
 17 18  1  0  0  0  0
 19 20  1  0  0  0  0
 20 21  1  6  0  0  0
 20 22  1  0  0  0  0
 22 23  1  6  0  0  0
 22 24  1  0  0  0  0
 23 28  1  0  0  0  0
 23 29  1  0  0  0  0
 25 24  1  6  0  0  0
 25 27  1  0  0  0  0
 26 10  1  6  0  0  0
 26 27  1  0  0  0  0
M  END
>  <CHROM.1>
62.28606926,178.43167757,169.37578670,170.95187116,-104.68014713,-94.27020675
27.70690247,36.54430663,20.02145732,-2.13910535,-1.42881994,2.88596137

>  <Name>
ligand

>  <RI>
0

>  <Rbt.Current_Directory>
/home/itssahil/PROJECTS/Mol_Feturizer/New_Systems/rnas/3F4H

>  <Rbt.Executable>
rbdock ($Id: //depot/dev/client3/rdock/2013.1/src/exe/rbdock.cxx#4 $)

>  <Rbt.Library>
libRbt.so (2013.1, Build901 2013/11/27)

>  <Rbt.Parameter_File>
/export/apps/rDock/src/rDock_2013.1_src/data/scripts/dock_solv.prm

>  <Rbt.Receptor>
prm/pocket_docking_6.prm

>  <SCORE>
-48.1306

>  <SCORE.INTER>
-30.1633

>  <SCORE.INTER.CONST>
1

>  <SCORE.INTER.POLAR>
0

>  <SCORE.INTER.ROT>
6

>  <SCORE.INTER.SOLV>
9.6256

>  <SCORE.INTER.VDW>
-30.9174

>  <SCORE.INTER.norm>
-1.04011

>  <SCORE.INTRA>
-17.9673

>  <SCORE.INTRA.DIHEDRAL>
-4.03934

>  <SCORE.INTRA.DIHEDRAL.0>
6.83446

>  <SCORE.INTRA.POLAR>
0

>  <SCORE.INTRA.POLAR.0>
0

>  <SCORE.INTRA.REPUL>
0

>  <SCORE.INTRA.REPUL.0>
0

>  <SCORE.INTRA.SOLV>
-0.00512139

>  <SCORE.INTRA.SOLV.lig_0>
-26.4601

>  <SCORE.INTRA.VDW>
-15.9451

>  <SCORE.INTRA.VDW.0>
13.7853

>  <SCORE.INTRA.norm>
-0.619563

>  <SCORE.RESTR>
0

>  <SCORE.RESTR.CAVITY>
0

>  <SCORE.RESTR.norm>
0

>  <SCORE.SYSTEM>
0

>  <SCORE.SYSTEM.CONST>
0

>  <SCORE.SYSTEM.DIHEDRAL>
0

>  <SCORE.SYSTEM.SOLV>
0

>  <SCORE.SYSTEM.norm>
0

>  <SCORE.heavy>
29

>  <SCORE.norm>
-1.65968

>  <RMSD>
1.351

$$$$
ligand
 OpenBabel11021811473D
libRbt.so/2013.1/901 2013/11/27
 29 31  0  0  0  0  0  0  0  0999 V2000
   29.5035   40.7170   16.6274 C   0  0  0  0  0  0  0  0  0  0  0  0
   30.1608   40.7416   15.3561 O   0  0  0  0  0  0  0  0  0  0  0  0
   28.9893   39.3101   16.9007 C   0  0  1  0  0  0  0  0  0  0  0  0
   30.1034   38.4253   16.9665 O   0  0  0  0  0  0  0  0  0  0  0  0
   28.2050   39.2710   18.2059 C   0  0  1  0  0  0  0  0  0  0  0  0
   27.1289   40.1931   18.0776 O   0  0  0  0  0  0  0  0  0  0  0  0
   27.6692   37.8908   18.5980 C   0  0  1  0  0  0  0  0  0  0  0  0
   26.9878   37.3341   17.4731 O   0  0  0  0  0  0  0  0  0  0  0  0
   28.7619   36.9123   19.0235 C   0  0  0  0  0  0  0  0  0  0  0  0
   28.5760   34.1768   18.3499 N   0  0  0  0  0  0  0  0  0  0  0  0
   28.5055   32.8629   17.9937 C   0  0  0  0  0  0  0  0  0  0  0  0
   28.8880   32.4911   16.8562 O   0  0  0  0  0  0  0  0  0  0  0  0
   28.0159   31.9421   18.8622 N   0  0  0  0  0  0  0  0  0  0  0  0
   27.5891   32.3074   20.0971 C   0  0  0  0  0  0  0  0  0  0  0  0
   27.6563   33.6437   20.4747 C   0  0  1  0  0  0  0  0  0  0  0  0
   27.1348   31.4519   20.8967 O   0  0  0  0  0  0  0  0  0  0  0  0
   27.3061   35.3134   22.0701 C   0  0  1  0  0  0  0  0  0  0  0  0
   27.2387   34.0170   21.7039 N   0  0  0  0  0  0  0  0  0  0  0  0
   26.8734   35.6888   23.3371 C   0  0  0  0  0  0  0  0  0  0  0  0
   26.9326   37.0169   23.7448 C   0  0  2  0  0  0  0  0  0  0  0  0
   26.4460   37.3540   25.1307 C   0  0  0  0  0  0  0  0  0  0  0  0
   27.4340   37.9899   22.8707 C   0  0  2  0  0  0  0  0  0  0  0  0
   27.5222   39.3135   23.2016 N   0  0  0  0  0  0  0  0  0  0  0  0
   27.8646   37.5969   21.5977 C   0  0  0  0  0  0  0  0  0  0  0  0
   27.8059   36.2664   21.1842 C   0  0  2  0  0  0  0  0  0  0  0  0
   28.1619   34.5934   19.5815 C   0  0  2  0  0  0  0  0  0  0  0  0
   28.2217   35.8988   19.9505 N   0  0  0  0  0  0  0  0  0  0  0  0
   28.5786   39.7643   24.0877 C   0  0  0  0  0  0  0  0  0  0  0  0
   26.5938   40.3111   22.6959 C   0  0  0  0  0  0  0  0  0  0  0  0
  1  2  1  0  0  0  0
  3  1  1  1  0  0  0
  3  4  1  0  0  0  0
  3  5  1  0  0  0  0
  5  6  1  6  0  0  0
  5  7  1  0  0  0  0
  7  8  1  6  0  0  0
  7  9  1  0  0  0  0
  9 27  1  0  0  0  0
 10 11  1  0  0  0  0
 11 12  2  0  0  0  0
 11 13  1  0  0  0  0
 13 14  1  0  0  0  0
 14 16  2  0  0  0  0
 15 14  1  1  0  0  0
 15 18  1  0  0  0  0
 15 26  1  0  0  0  0
 17 19  1  1  0  0  0
 17 25  1  0  0  0  0
 17 18  1  0  0  0  0
 19 20  1  0  0  0  0
 20 21  1  6  0  0  0
 20 22  1  0  0  0  0
 22 23  1  6  0  0  0
 22 24  1  0  0  0  0
 23 28  1  0  0  0  0
 23 29  1  0  0  0  0
 25 24  1  6  0  0  0
 25 27  1  0  0  0  0
 26 10  1  6  0  0  0
 26 27  1  0  0  0  0
M  END
>  <CHROM.1>
62.54194379,58.79410523,-49.96141661,153.35075221,76.12625045,-67.06818844
27.98298123,36.65103518,19.97668647,-0.96443272,-1.29450573,-2.92967470

>  <Name>
ligand

>  <RI>
0

>  <Rbt.Current_Directory>
/home/itssahil/PROJECTS/Mol_Feturizer/New_Systems/rnas/3F4H

>  <Rbt.Executable>
rbdock ($Id: //depot/dev/client3/rdock/2013.1/src/exe/rbdock.cxx#4 $)

>  <Rbt.Library>
libRbt.so (2013.1, Build901 2013/11/27)

>  <Rbt.Parameter_File>
/export/apps/rDock/src/rDock_2013.1_src/data/scripts/dock_solv.prm

>  <Rbt.Receptor>
prm/blind_docking_60.prm

>  <SCORE>
-47.6736

>  <SCORE.INTER>
-31.4258

>  <SCORE.INTER.CONST>
1

>  <SCORE.INTER.POLAR>
0

>  <SCORE.INTER.ROT>
6

>  <SCORE.INTER.SOLV>
11.3038

>  <SCORE.INTER.VDW>
-32.3185

>  <SCORE.INTER.norm>
-1.08365

>  <SCORE.INTRA>
-16.2478

>  <SCORE.INTRA.DIHEDRAL>
-2.23053

>  <SCORE.INTRA.DIHEDRAL.0>
6.83446

>  <SCORE.INTRA.POLAR>
0

>  <SCORE.INTRA.POLAR.0>
0

>  <SCORE.INTRA.REPUL>
0

>  <SCORE.INTRA.REPUL.0>
0

>  <SCORE.INTRA.SOLV>
-0.29608

>  <SCORE.INTRA.SOLV.lig_0>
-26.4601

>  <SCORE.INTRA.VDW>
-14.9845

>  <SCORE.INTRA.VDW.0>
13.7853

>  <SCORE.INTRA.norm>
-0.560268

>  <SCORE.RESTR>
0

>  <SCORE.RESTR.CAVITY>
0

>  <SCORE.RESTR.norm>
0

>  <SCORE.SYSTEM>
0

>  <SCORE.SYSTEM.CONST>
0

>  <SCORE.SYSTEM.DIHEDRAL>
0

>  <SCORE.SYSTEM.SOLV>
0

>  <SCORE.SYSTEM.norm>
0

>  <SCORE.heavy>
29

>  <SCORE.norm>
-1.64392

>  <RMSD>
1.354

$$$$
ligand
 OpenBabel11021811473D
libRbt.so/2013.1/901 2013/11/27
 29 31  0  0  0  0  0  0  0  0999 V2000
   27.8313   40.9207   16.2549 C   0  0  0  0  0  0  0  0  0  0  0  0
   29.0368   40.6795   15.5217 O   0  0  0  0  0  0  0  0  0  0  0  0
   27.2641   39.5939   16.7410 C   0  0  1  0  0  0  0  0  0  0  0  0
   27.0311   38.7594   15.6106 O   0  0  0  0  0  0  0  0  0  0  0  0
   28.2310   38.9197   17.7058 C   0  0  1  0  0  0  0  0  0  0  0  0
   28.5016   39.8497   18.7482 O   0  0  0  0  0  0  0  0  0  0  0  0
   27.7370   37.5967   18.2984 C   0  0  1  0  0  0  0  0  0  0  0  0
   27.2129   36.7947   17.2393 O   0  0  0  0  0  0  0  0  0  0  0  0
   28.8327   36.7982   19.0016 C   0  0  0  0  0  0  0  0  0  0  0  0
   28.5994   34.0560   18.3713 N   0  0  0  0  0  0  0  0  0  0  0  0
   28.5068   32.7379   18.0364 C   0  0  0  0  0  0  0  0  0  0  0  0
   28.9092   32.3367   16.9159 O   0  0  0  0  0  0  0  0  0  0  0  0
   27.9736   31.8445   18.9079 N   0  0  0  0  0  0  0  0  0  0  0  0
   27.5242   32.2420   20.1248 C   0  0  0  0  0  0  0  0  0  0  0  0
   27.6134   33.5829   20.4806 C   0  0  1  0  0  0  0  0  0  0  0  0
   27.0296   31.4119   20.9271 O   0  0  0  0  0  0  0  0  0  0  0  0
   27.2622   35.2889   22.0369 C   0  0  1  0  0  0  0  0  0  0  0  0
   27.1735   33.9880   21.6918 N   0  0  0  0  0  0  0  0  0  0  0  0
   26.8064   35.6971   23.2855 C   0  0  0  0  0  0  0  0  0  0  0  0
   26.8866   37.0307   23.6713 C   0  0  2  0  0  0  0  0  0  0  0  0
   26.3729   37.4040   25.0381 C   0  0  0  0  0  0  0  0  0  0  0  0
   27.4330   37.9757   22.7936 C   0  0  2  0  0  0  0  0  0  0  0  0
   27.5441   39.3027   23.1035 N   0  0  0  0  0  0  0  0  0  0  0  0
   27.8865   37.5499   21.5392 C   0  0  0  0  0  0  0  0  0  0  0  0
   27.8069   36.2139   21.1477 C   0  0  2  0  0  0  0  0  0  0  0  0
   28.1639   34.5043   19.5843 C   0  0  2  0  0  0  0  0  0  0  0  0
   28.2452   35.8145   19.9318 N   0  0  0  0  0  0  0  0  0  0  0  0
   28.6145   39.7506   23.9741 C   0  0  0  0  0  0  0  0  0  0  0  0
   26.6269   40.3066   22.5901 C   0  0  0  0  0  0  0  0  0  0  0  0
  1  2  1  0  0  0  0
  3  1  1  6  0  0  0
  3  4  1  0  0  0  0
  3  5  1  0  0  0  0
  5  6  1  1  0  0  0
  5  7  1  0  0  0  0
  7  8  1  6  0  0  0
  7  9  1  0  0  0  0
  9 27  1  0  0  0  0
 10 11  1  0  0  0  0
 11 12  2  0  0  0  0
 11 13  1  0  0  0  0
 13 14  1  0  0  0  0
 14 16  2  0  0  0  0
 15 14  1  1  0  0  0
 15 18  1  0  0  0  0
 15 26  1  0  0  0  0
 17 19  1  1  0  0  0
 17 25  1  0  0  0  0
 17 18  1  0  0  0  0
 19 20  1  0  0  0  0
 20 21  1  6  0  0  0
 20 22  1  0  0  0  0
 22 23  1  6  0  0  0
 22 24  1  0  0  0  0
 23 28  1  0  0  0  0
 23 29  1  0  0  0  0
 25 24  1  6  0  0  0
 25 27  1  0  0  0  0
 26 10  1  6  0  0  0
 26 27  1  0  0  0  0
M  END
>  <CHROM.1>
-58.11773843,55.20966480,46.85237336,160.19870675,78.12689295,-79.40586927
27.75680195,36.58541716,19.88328991,-1.30800545,-1.43341242,3.05673281

>  <Name>
ligand

>  <RI>
0

>  <Rbt.Current_Directory>
/home/itssahil/PROJECTS/Mol_Feturizer/New_Systems/rnas/3F4H

>  <Rbt.Executable>
rbdock ($Id: //depot/dev/client3/rdock/2013.1/src/exe/rbdock.cxx#4 $)

>  <Rbt.Library>
libRbt.so (2013.1, Build901 2013/11/27)

>  <Rbt.Parameter_File>
/export/apps/rDock/src/rDock_2013.1_src/data/scripts/dock_solv.prm

>  <Rbt.Receptor>
prm/pocket_docking_4.prm

>  <SCORE>
-47.7098

>  <SCORE.INTER>
-31.1387

>  <SCORE.INTER.CONST>
1

>  <SCORE.INTER.POLAR>
0

>  <SCORE.INTER.ROT>
6

>  <SCORE.INTER.SOLV>
12.5098

>  <SCORE.INTER.VDW>
-32.529

>  <SCORE.INTER.norm>
-1.07375

>  <SCORE.INTRA>
-16.5711

>  <SCORE.INTRA.DIHEDRAL>
-2.76191

>  <SCORE.INTRA.DIHEDRAL.0>
6.83446

>  <SCORE.INTRA.POLAR>
0

>  <SCORE.INTRA.POLAR.0>
0

>  <SCORE.INTRA.REPUL>
0

>  <SCORE.INTRA.REPUL.0>
0

>  <SCORE.INTRA.SOLV>
0.102264

>  <SCORE.INTRA.SOLV.lig_0>
-26.4601

>  <SCORE.INTRA.VDW>
-15.2413

>  <SCORE.INTRA.VDW.0>
13.7853

>  <SCORE.INTRA.norm>
-0.571418

>  <SCORE.RESTR>
0

>  <SCORE.RESTR.CAVITY>
0

>  <SCORE.RESTR.norm>
0

>  <SCORE.SYSTEM>
0

>  <SCORE.SYSTEM.CONST>
0

>  <SCORE.SYSTEM.DIHEDRAL>
0

>  <SCORE.SYSTEM.SOLV>
0

>  <SCORE.SYSTEM.norm>
0

>  <SCORE.heavy>
29

>  <SCORE.norm>
-1.64516

>  <RMSD>
1.355

$$$$
ligand
 OpenBabel11021811473D
libRbt.so/2013.1/901 2013/11/27
 29 31  0  0  0  0  0  0  0  0999 V2000
   26.6892   40.1292   18.3834 C   0  0  0  0  0  0  0  0  0  0  0  0
   25.6027   40.3174   17.4707 O   0  0  0  0  0  0  0  0  0  0  0  0
   27.9306   39.7100   17.6080 C   0  0  1  0  0  0  0  0  0  0  0  0
   29.0215   39.6109   18.5182 O   0  0  0  0  0  0  0  0  0  0  0  0
   27.7009   38.3754   16.9105 C   0  0  1  0  0  0  0  0  0  0  0  0
   28.8727   38.0881   16.1562 O   0  0  0  0  0  0  0  0  0  0  0  0
   27.3775   37.2047   17.8435 C   0  0  1  0  0  0  0  0  0  0  0  0
   26.9734   36.0902   17.0470 O   0  0  0  0  0  0  0  0  0  0  0  0
   28.5607   36.7686   18.7052 C   0  0  0  0  0  0  0  0  0  0  0  0
   28.4753   33.9923   18.1992 N   0  0  0  0  0  0  0  0  0  0  0  0
   28.4508   32.6578   17.9224 C   0  0  0  0  0  0  0  0  0  0  0  0
   28.7809   32.2382   16.7851 O   0  0  0  0  0  0  0  0  0  0  0  0
   28.0643   31.7674   18.8709 N   0  0  0  0  0  0  0  0  0  0  0  0
   27.6964   32.1842   20.1085 C   0  0  0  0  0  0  0  0  0  0  0  0
   27.7177   33.5422   20.4056 C   0  0  1  0  0  0  0  0  0  0  0  0
   27.3374   31.3566   20.9824 O   0  0  0  0  0  0  0  0  0  0  0  0
   27.3810   35.2844   21.9244 C   0  0  1  0  0  0  0  0  0  0  0  0
   27.3582   33.9669   21.6364 N   0  0  0  0  0  0  0  0  0  0  0  0
   27.0088   35.7129   23.1938 C   0  0  0  0  0  0  0  0  0  0  0  0
   27.0243   37.0641   23.5218 C   0  0  2  0  0  0  0  0  0  0  0  0
   26.6076   37.4587   24.9154 C   0  0  0  0  0  0  0  0  0  0  0  0
   27.4196   38.0067   22.5641 C   0  0  2  0  0  0  0  0  0  0  0  0
   27.4596   39.3502   22.8139 N   0  0  0  0  0  0  0  0  0  0  0  0
   27.7903   37.5603   21.2898 C   0  0  0  0  0  0  0  0  0  0  0  0
   27.7751   36.2064   20.9560 C   0  0  2  0  0  0  0  0  0  0  0  0
   28.1171   34.4606   19.4297 C   0  0  2  0  0  0  0  0  0  0  0  0
   28.1321   35.7869   19.7205 N   0  0  0  0  0  0  0  0  0  0  0  0
   28.5237   39.8978   23.6338 C   0  0  0  0  0  0  0  0  0  0  0  0
   26.4711   40.2753   22.2848 C   0  0  0  0  0  0  0  0  0  0  0  0
  1  2  1  0  0  0  0
  3  1  1  1  0  0  0
  3  4  1  0  0  0  0
  3  5  1  0  0  0  0
  5  6  1  1  0  0  0
  5  7  1  0  0  0  0
  7  8  1  6  0  0  0
  7  9  1  0  0  0  0
  9 27  1  0  0  0  0
 10 11  1  0  0  0  0
 11 12  2  0  0  0  0
 11 13  1  0  0  0  0
 13 14  1  0  0  0  0
 14 16  2  0  0  0  0
 15 14  1  1  0  0  0
 15 18  1  0  0  0  0
 15 26  1  0  0  0  0
 17 19  1  1  0  0  0
 17 25  1  0  0  0  0
 17 18  1  0  0  0  0
 19 20  1  0  0  0  0
 20 21  1  6  0  0  0
 20 22  1  0  0  0  0
 22 23  1  6  0  0  0
 22 24  1  0  0  0  0
 23 28  1  0  0  0  0
 23 29  1  0  0  0  0
 25 24  1  6  0  0  0
 25 27  1  0  0  0  0
 26 10  1  6  0  0  0
 26 27  1  0  0  0  0
M  END
>  <CHROM.1>
176.30405716,177.03883983,170.50444936,171.25561890,74.43905267,-93.26886186
27.66696531,36.44125624,19.91782489,-2.48287212,-1.43833354,2.52352393

>  <Name>
ligand

>  <RI>
0

>  <Rbt.Current_Directory>
/home/itssahil/PROJECTS/Mol_Feturizer/New_Systems/rnas/3F4H

>  <Rbt.Executable>
rbdock ($Id: //depot/dev/client3/rdock/2013.1/src/exe/rbdock.cxx#4 $)

>  <Rbt.Library>
libRbt.so (2013.1, Build901 2013/11/27)

>  <Rbt.Parameter_File>
/export/apps/rDock/src/rDock_2013.1_src/data/scripts/dock_solv.prm

>  <Rbt.Receptor>
prm/pocket_docking_3.prm

>  <SCORE>
-48.2769

>  <SCORE.INTER>
-30.4771

>  <SCORE.INTER.CONST>
1

>  <SCORE.INTER.POLAR>
0

>  <SCORE.INTER.ROT>
6

>  <SCORE.INTER.SOLV>
10.7859

>  <SCORE.INTER.VDW>
-31.5134

>  <SCORE.INTER.norm>
-1.05093

>  <SCORE.INTRA>
-17.7998

>  <SCORE.INTRA.DIHEDRAL>
-4.08351

>  <SCORE.INTRA.DIHEDRAL.0>
6.83446

>  <SCORE.INTRA.POLAR>
0

>  <SCORE.INTRA.POLAR.0>
0

>  <SCORE.INTRA.REPUL>
0

>  <SCORE.INTRA.REPUL.0>
0

>  <SCORE.INTRA.SOLV>
-0.100724

>  <SCORE.INTRA.SOLV.lig_0>
-26.4601

>  <SCORE.INTRA.VDW>
-15.7077

>  <SCORE.INTRA.VDW.0>
13.7853

>  <SCORE.INTRA.norm>
-0.613787

>  <SCORE.RESTR>
0

>  <SCORE.RESTR.CAVITY>
0

>  <SCORE.RESTR.norm>
0

>  <SCORE.SYSTEM>
0

>  <SCORE.SYSTEM.CONST>
0

>  <SCORE.SYSTEM.DIHEDRAL>
0

>  <SCORE.SYSTEM.SOLV>
0

>  <SCORE.SYSTEM.norm>
0

>  <SCORE.heavy>
29

>  <SCORE.norm>
-1.66472

>  <RMSD>
1.356

$$$$
ligand
 OpenBabel11021811473D
libRbt.so/2013.1/901 2013/11/27
 29 31  0  0  0  0  0  0  0  0999 V2000
   28.3848   40.3610   17.1001 C   0  0  0  0  0  0  0  0  0  0  0  0
   29.4827   41.2614   16.9196 O   0  0  0  0  0  0  0  0  0  0  0  0
   28.3044   39.9530   18.5648 C   0  0  1  0  0  0  0  0  0  0  0  0
   28.0428   41.1152   19.3453 O   0  0  0  0  0  0  0  0  0  0  0  0
   27.2063   38.9180   18.7727 C   0  0  1  0  0  0  0  0  0  0  0  0
   26.0227   39.4351   18.1758 O   0  0  0  0  0  0  0  0  0  0  0  0
   27.5129   37.5269   18.2101 C   0  0  1  0  0  0  0  0  0  0  0  0
   27.8403   37.6610   16.8264 O   0  0  0  0  0  0  0  0  0  0  0  0
   28.6792   36.8314   18.9091 C   0  0  0  0  0  0  0  0  0  0  0  0
   28.5314   34.0796   18.2952 N   0  0  0  0  0  0  0  0  0  0  0  0
   28.4782   32.7576   17.9672 C   0  0  0  0  0  0  0  0  0  0  0  0
   28.8368   32.3704   16.8270 O   0  0  0  0  0  0  0  0  0  0  0  0
   28.0320   31.8449   18.8671 N   0  0  0  0  0  0  0  0  0  0  0  0
   27.6319   32.2267   20.1060 C   0  0  0  0  0  0  0  0  0  0  0  0
   27.6819   33.5714   20.4551 C   0  0  1  0  0  0  0  0  0  0  0  0
   27.2177   31.3787   20.9347 O   0  0  0  0  0  0  0  0  0  0  0  0
   27.3414   35.2658   22.0263 C   0  0  1  0  0  0  0  0  0  0  0  0
   27.2907   33.9612   21.6878 N   0  0  0  0  0  0  0  0  0  0  0  0
   26.9362   35.6582   23.2972 C   0  0  0  0  0  0  0  0  0  0  0  0
   26.9791   36.9953   23.6767 C   0  0  2  0  0  0  0  0  0  0  0  0
   26.5241   37.3506   25.0688 C   0  0  0  0  0  0  0  0  0  0  0  0
   27.4359   37.9601   22.7699 C   0  0  2  0  0  0  0  0  0  0  0  0
   27.5059   39.2917   23.0719 N   0  0  0  0  0  0  0  0  0  0  0  0
   27.8393   37.5501   21.4933 C   0  0  0  0  0  0  0  0  0  0  0  0
   27.7968   36.2105   21.1080 C   0  0  2  0  0  0  0  0  0  0  0  0
   28.1429   34.5127   19.5294 C   0  0  2  0  0  0  0  0  0  0  0  0
   28.1859   35.8263   19.8707 N   0  0  0  0  0  0  0  0  0  0  0  0
   28.5621   39.7777   23.9395 C   0  0  0  0  0  0  0  0  0  0  0  0
   26.5578   40.2637   22.5530 C   0  0  0  0  0  0  0  0  0  0  0  0
  1  2  1  0  0  0  0
  3  1  1  6  0  0  0
  3  4  1  0  0  0  0
  3  5  1  0  0  0  0
  5  6  1  6  0  0  0
  5  7  1  0  0  0  0
  7  8  1  6  0  0  0
  7  9  1  0  0  0  0
  9 27  1  0  0  0  0
 10 11  1  0  0  0  0
 11 12  2  0  0  0  0
 11 13  1  0  0  0  0
 13 14  1  0  0  0  0
 14 16  2  0  0  0  0
 15 14  1  1  0  0  0
 15 18  1  0  0  0  0
 15 26  1  0  0  0  0
 17 19  1  1  0  0  0
 17 25  1  0  0  0  0
 17 18  1  0  0  0  0
 19 20  1  0  0  0  0
 20 21  1  6  0  0  0
 20 22  1  0  0  0  0
 22 23  1  6  0  0  0
 22 24  1  0  0  0  0
 23 28  1  0  0  0  0
 23 29  1  0  0  0  0
 25 24  1  6  0  0  0
 25 27  1  0  0  0  0
 26 10  1  6  0  0  0
 26 27  1  0  0  0  0
M  END
>  <CHROM.1>
62.84259240,-51.16249475,-54.83420113,101.53434795,74.96635388,-82.45795662
27.76564206,36.70629459,20.14744051,-1.66448492,-1.38729733,3.13124756

>  <Name>
ligand

>  <RI>
0

>  <Rbt.Current_Directory>
/home/itssahil/PROJECTS/Mol_Feturizer/New_Systems/rnas/3F4H

>  <Rbt.Executable>
rbdock ($Id: //depot/dev/client3/rdock/2013.1/src/exe/rbdock.cxx#4 $)

>  <Rbt.Library>
libRbt.so (2013.1, Build901 2013/11/27)

>  <Rbt.Parameter_File>
/export/apps/rDock/src/rDock_2013.1_src/data/scripts/dock_solv.prm

>  <Rbt.Receptor>
prm/pocket_docking_5.prm

>  <SCORE>
-45.9933

>  <SCORE.INTER>
-30.8276

>  <SCORE.INTER.CONST>
1

>  <SCORE.INTER.POLAR>
0

>  <SCORE.INTER.ROT>
6

>  <SCORE.INTER.SOLV>
11.0228

>  <SCORE.INTER.VDW>
-31.826

>  <SCORE.INTER.norm>
-1.06302

>  <SCORE.INTRA>
-15.1657

>  <SCORE.INTRA.DIHEDRAL>
-0.229569

>  <SCORE.INTRA.DIHEDRAL.0>
6.83446

>  <SCORE.INTRA.POLAR>
0

>  <SCORE.INTRA.POLAR.0>
0

>  <SCORE.INTRA.REPUL>
0

>  <SCORE.INTRA.REPUL.0>
0

>  <SCORE.INTRA.SOLV>
-0.075241

>  <SCORE.INTRA.SOLV.lig_0>
-26.4601

>  <SCORE.INTRA.VDW>
-15.0133

>  <SCORE.INTRA.VDW.0>
13.7853

>  <SCORE.INTRA.norm>
-0.522956

>  <SCORE.RESTR>
0

>  <SCORE.RESTR.CAVITY>
0

>  <SCORE.RESTR.norm>
0

>  <SCORE.SYSTEM>
0

>  <SCORE.SYSTEM.CONST>
0

>  <SCORE.SYSTEM.DIHEDRAL>
0

>  <SCORE.SYSTEM.SOLV>
0

>  <SCORE.SYSTEM.norm>
0

>  <SCORE.heavy>
29

>  <SCORE.norm>
-1.58598

>  <RMSD>
1.357

$$$$
ligand
 OpenBabel11021811473D
libRbt.so/2013.1/901 2013/11/27
 29 31  0  0  0  0  0  0  0  0999 V2000
   28.3964   40.4044   17.1145 C   0  0  0  0  0  0  0  0  0  0  0  0
   29.4861   41.3162   16.9407 O   0  0  0  0  0  0  0  0  0  0  0  0
   28.3449   39.9532   18.5678 C   0  0  1  0  0  0  0  0  0  0  0  0
   28.0789   41.0884   19.3856 O   0  0  0  0  0  0  0  0  0  0  0  0
   27.2652   38.8965   18.7623 C   0  0  1  0  0  0  0  0  0  0  0  0
   26.0789   39.3902   18.1511 O   0  0  0  0  0  0  0  0  0  0  0  0
   27.6062   37.5120   18.2033 C   0  0  1  0  0  0  0  0  0  0  0  0
   27.9944   37.6592   16.8368 O   0  0  0  0  0  0  0  0  0  0  0  0
   28.7447   36.8184   18.9486 C   0  0  0  0  0  0  0  0  0  0  0  0
   28.5479   34.0695   18.3356 N   0  0  0  0  0  0  0  0  0  0  0  0
   28.4717   32.7485   18.0082 C   0  0  0  0  0  0  0  0  0  0  0  0
   28.8405   32.3519   16.8746 O   0  0  0  0  0  0  0  0  0  0  0  0
   27.9912   31.8469   18.9017 N   0  0  0  0  0  0  0  0  0  0  0  0
   27.5791   32.2391   20.1335 C   0  0  0  0  0  0  0  0  0  0  0  0
   27.6522   33.5830   20.4817 C   0  0  1  0  0  0  0  0  0  0  0  0
   27.1332   31.4014   20.9562 O   0  0  0  0  0  0  0  0  0  0  0  0
   27.3224   35.2867   22.0451 C   0  0  1  0  0  0  0  0  0  0  0  0
   27.2493   33.9829   21.7074 N   0  0  0  0  0  0  0  0  0  0  0  0
   26.9049   35.6896   23.3088 C   0  0  0  0  0  0  0  0  0  0  0  0
   26.9704   37.0260   23.6874 C   0  0  2  0  0  0  0  0  0  0  0  0
   26.5002   37.3932   25.0714 C   0  0  0  0  0  0  0  0  0  0  0  0
   27.4627   37.9795   22.7871 C   0  0  2  0  0  0  0  0  0  0  0  0
   27.5563   39.3097   23.0886 N   0  0  0  0  0  0  0  0  0  0  0  0
   27.8781   37.5589   21.5178 C   0  0  0  0  0  0  0  0  0  0  0  0
   27.8131   36.2200   21.1334 C   0  0  2  0  0  0  0  0  0  0  0  0
   28.1485   34.5128   19.5627 C   0  0  2  0  0  0  0  0  0  0  0  0
   28.2141   35.8257   19.9031 N   0  0  0  0  0  0  0  0  0  0  0  0
   26.5822   40.2395   22.5493 C   0  0  0  0  0  0  0  0  0  0  0  0
   28.6021   39.8477   23.9428 C   0  0  0  0  0  0  0  0  0  0  0  0
  1  2  1  0  0  0  0
  3  1  1  6  0  0  0
  3  4  1  0  0  0  0
  3  5  1  0  0  0  0
  5  6  1  6  0  0  0
  5  7  1  0  0  0  0
  7  8  1  6  0  0  0
  7  9  1  0  0  0  0
  9 27  1  0  0  0  0
 10 11  1  0  0  0  0
 11 12  2  0  0  0  0
 11 13  1  0  0  0  0
 13 14  1  0  0  0  0
 14 16  2  0  0  0  0
 15 14  1  1  0  0  0
 15 18  1  0  0  0  0
 15 26  1  0  0  0  0
 17 19  1  1  0  0  0
 17 25  1  0  0  0  0
 17 18  1  0  0  0  0
 19 20  1  0  0  0  0
 20 21  1  6  0  0  0
 20 22  1  0  0  0  0
 22 23  1  6  0  0  0
 22 24  1  0  0  0  0
 23 28  1  0  0  0  0
 23 29  1  0  0  0  0
 25 24  1  6  0  0  0
 25 27  1  0  0  0  0
 26 10  1  6  0  0  0
 26 27  1  0  0  0  0
M  END
>  <CHROM.1>
63.37850133,-48.85863979,-52.76171090,100.15589350,-103.44028605,-83.93875367
27.78160186,36.71412645,20.16581879,-1.60537397,-1.38053225,-3.09712371

>  <Name>
ligand

>  <RI>
0

>  <Rbt.Current_Directory>
/home/itssahil/PROJECTS/Mol_Feturizer/New_Systems/rnas/3F4H

>  <Rbt.Executable>
rbdock ($Id: //depot/dev/client3/rdock/2013.1/src/exe/rbdock.cxx#4 $)

>  <Rbt.Library>
libRbt.so (2013.1, Build901 2013/11/27)

>  <Rbt.Parameter_File>
/export/apps/rDock/src/rDock_2013.1_src/data/scripts/dock_solv.prm

>  <Rbt.Receptor>
prm/blind_docking_100.prm

>  <SCORE>
-45.9458

>  <SCORE.INTER>
-30.6613

>  <SCORE.INTER.CONST>
1

>  <SCORE.INTER.POLAR>
0

>  <SCORE.INTER.ROT>
6

>  <SCORE.INTER.SOLV>
11.0117

>  <SCORE.INTER.VDW>
-31.7115

>  <SCORE.INTER.norm>
-1.05729

>  <SCORE.INTRA>
-15.2845

>  <SCORE.INTRA.DIHEDRAL>
-0.123227

>  <SCORE.INTRA.DIHEDRAL.0>
6.83446

>  <SCORE.INTRA.POLAR>
0

>  <SCORE.INTRA.POLAR.0>
0

>  <SCORE.INTRA.REPUL>
0

>  <SCORE.INTRA.REPUL.0>
0

>  <SCORE.INTRA.SOLV>
-0.073404

>  <SCORE.INTRA.SOLV.lig_0>
-26.4601

>  <SCORE.INTRA.VDW>
-15.1861

>  <SCORE.INTRA.VDW.0>
13.7853

>  <SCORE.INTRA.norm>
-0.52705

>  <SCORE.RESTR>
0

>  <SCORE.RESTR.CAVITY>
0

>  <SCORE.RESTR.norm>
0

>  <SCORE.SYSTEM>
0

>  <SCORE.SYSTEM.CONST>
0

>  <SCORE.SYSTEM.DIHEDRAL>
0

>  <SCORE.SYSTEM.SOLV>
0

>  <SCORE.SYSTEM.norm>
0

>  <SCORE.heavy>
29

>  <SCORE.norm>
-1.58434

>  <RMSD>
1.358

$$$$
ligand
 OpenBabel11021811473D
libRbt.so/2013.1/901 2013/11/27
 29 31  0  0  0  0  0  0  0  0999 V2000
   28.0621   41.6553   17.6646 C   0  0  0  0  0  0  0  0  0  0  0  0
   28.6171   41.4032   16.3694 O   0  0  0  0  0  0  0  0  0  0  0  0
   27.3575   40.4010   18.1628 C   0  0  1  0  0  0  0  0  0  0  0  0
   26.3464   40.0462   17.2245 O   0  0  0  0  0  0  0  0  0  0  0  0
   28.3512   39.2581   18.3269 C   0  0  1  0  0  0  0  0  0  0  0  0
   29.2779   39.6482   19.3338 O   0  0  0  0  0  0  0  0  0  0  0  0
   27.7285   37.9050   18.6829 C   0  0  1  0  0  0  0  0  0  0  0  0
   26.9392   37.4654   17.5768 O   0  0  0  0  0  0  0  0  0  0  0  0
   28.7608   36.8221   18.9901 C   0  0  0  0  0  0  0  0  0  0  0  0
   28.5528   34.0776   18.3612 N   0  0  0  0  0  0  0  0  0  0  0  0
   28.4716   32.7587   18.0265 C   0  0  0  0  0  0  0  0  0  0  0  0
   28.8537   32.3647   16.8963 O   0  0  0  0  0  0  0  0  0  0  0  0
   27.9719   31.8565   18.9087 N   0  0  0  0  0  0  0  0  0  0  0  0
   27.5452   32.2459   20.1364 C   0  0  0  0  0  0  0  0  0  0  0  0
   27.6232   33.5876   20.4921 C   0  0  1  0  0  0  0  0  0  0  0  0
   27.0816   31.4077   20.9487 O   0  0  0  0  0  0  0  0  0  0  0  0
   27.2836   35.2864   22.0588 C   0  0  1  0  0  0  0  0  0  0  0  0
   27.2058   33.9847   21.7138 N   0  0  0  0  0  0  0  0  0  0  0  0
   26.8511   35.6864   23.3183 C   0  0  0  0  0  0  0  0  0  0  0  0
   26.9209   37.0205   23.7042 C   0  0  2  0  0  0  0  0  0  0  0  0
   26.4338   37.3847   25.0831 C   0  0  0  0  0  0  0  0  0  0  0  0
   27.4328   37.9745   22.8155 C   0  0  2  0  0  0  0  0  0  0  0  0
   27.5318   39.3026   23.1247 N   0  0  0  0  0  0  0  0  0  0  0  0
   27.8632   37.5569   21.5502 C   0  0  0  0  0  0  0  0  0  0  0  0
   27.7939   36.2203   21.1586 C   0  0  2  0  0  0  0  0  0  0  0  0
   28.1392   34.5180   19.5846 C   0  0  2  0  0  0  0  0  0  0  0  0
   28.2095   35.8288   19.9322 N   0  0  0  0  0  0  0  0  0  0  0  0
   28.6039   39.7621   23.9872 C   0  0  0  0  0  0  0  0  0  0  0  0
   26.5997   40.2965   22.6186 C   0  0  0  0  0  0  0  0  0  0  0  0
  1  2  1  0  0  0  0
  3  1  1  6  0  0  0
  3  4  1  0  0  0  0
  3  5  1  0  0  0  0
  5  6  1  1  0  0  0
  5  7  1  0  0  0  0
  7  8  1  6  0  0  0
  7  9  1  0  0  0  0
  9 27  1  0  0  0  0
 10 11  1  0  0  0  0
 11 12  2  0  0  0  0
 11 13  1  0  0  0  0
 13 14  1  0  0  0  0
 14 16  2  0  0  0  0
 15 14  1  1  0  0  0
 15 18  1  0  0  0  0
 15 26  1  0  0  0  0
 17 19  1  1  0  0  0
 17 25  1  0  0  0  0
 17 18  1  0  0  0  0
 19 20  1  0  0  0  0
 20 21  1  6  0  0  0
 20 22  1  0  0  0  0
 22 23  1  6  0  0  0
 22 24  1  0  0  0  0
 23 28  1  0  0  0  0
 23 29  1  0  0  0  0
 25 24  1  6  0  0  0
 25 27  1  0  0  0  0
 26 10  1  6  0  0  0
 26 27  1  0  0  0  0
M  END
>  <CHROM.1>
-58.32505083,63.46882382,66.20465691,151.51497132,77.20850960,-59.90638614
27.74445270,36.76205901,20.15670987,-1.61592687,-1.41964847,3.06333549

>  <Name>
ligand

>  <RI>
0

>  <Rbt.Current_Directory>
/home/itssahil/PROJECTS/Mol_Feturizer/New_Systems/rnas/3F4H

>  <Rbt.Executable>
rbdock ($Id: //depot/dev/client3/rdock/2013.1/src/exe/rbdock.cxx#4 $)

>  <Rbt.Library>
libRbt.so (2013.1, Build901 2013/11/27)

>  <Rbt.Parameter_File>
/export/apps/rDock/src/rDock_2013.1_src/data/scripts/dock_solv.prm

>  <Rbt.Receptor>
prm/pocket_docking_6.prm

>  <SCORE>
-46.9613

>  <SCORE.INTER>
-30.5843

>  <SCORE.INTER.CONST>
1

>  <SCORE.INTER.POLAR>
0

>  <SCORE.INTER.ROT>
6

>  <SCORE.INTER.SOLV>
10.894

>  <SCORE.INTER.VDW>
-31.6209

>  <SCORE.INTER.norm>
-1.05463

>  <SCORE.INTRA>
-16.377

>  <SCORE.INTRA.DIHEDRAL>
-2.18578

>  <SCORE.INTRA.DIHEDRAL.0>
6.83446

>  <SCORE.INTRA.POLAR>
0

>  <SCORE.INTRA.POLAR.0>
0

>  <SCORE.INTRA.REPUL>
0

>  <SCORE.INTRA.REPUL.0>
0

>  <SCORE.INTRA.SOLV>
0.030479

>  <SCORE.INTRA.SOLV.lig_0>
-26.4601

>  <SCORE.INTRA.VDW>
-15.2994

>  <SCORE.INTRA.VDW.0>
13.7853

>  <SCORE.INTRA.norm>
-0.564725

>  <SCORE.RESTR>
0

>  <SCORE.RESTR.CAVITY>
0

>  <SCORE.RESTR.norm>
0

>  <SCORE.SYSTEM>
0

>  <SCORE.SYSTEM.CONST>
0

>  <SCORE.SYSTEM.DIHEDRAL>
0

>  <SCORE.SYSTEM.SOLV>
0

>  <SCORE.SYSTEM.norm>
0

>  <SCORE.heavy>
29

>  <SCORE.norm>
-1.61936

>  <RMSD>
1.358

$$$$
ligand
 OpenBabel11021811473D
libRbt.so/2013.1/901 2013/11/27
 29 31  0  0  0  0  0  0  0  0999 V2000
   29.3580   40.3868   16.2083 C   0  0  0  0  0  0  0  0  0  0  0  0
   30.0031   40.3071   14.9329 O   0  0  0  0  0  0  0  0  0  0  0  0
   28.8281   39.0117   16.5908 C   0  0  1  0  0  0  0  0  0  0  0  0
   29.9286   38.1131   16.6893 O   0  0  0  0  0  0  0  0  0  0  0  0
   28.0779   39.0764   17.9150 C   0  0  1  0  0  0  0  0  0  0  0  0
   26.9783   39.9608   17.7324 O   0  0  0  0  0  0  0  0  0  0  0  0
   27.5836   37.7274   18.4455 C   0  0  1  0  0  0  0  0  0  0  0  0
   26.8750   37.0622   17.3990 O   0  0  0  0  0  0  0  0  0  0  0  0
   28.7097   36.8088   18.9153 C   0  0  0  0  0  0  0  0  0  0  0  0
   28.5502   34.0609   18.2866 N   0  0  0  0  0  0  0  0  0  0  0  0
   28.4918   32.7409   17.9517 C   0  0  0  0  0  0  0  0  0  0  0  0
   28.8606   32.3567   16.8138 O   0  0  0  0  0  0  0  0  0  0  0  0
   28.0293   31.8271   18.8421 N   0  0  0  0  0  0  0  0  0  0  0  0
   27.6178   32.2057   20.0783 C   0  0  0  0  0  0  0  0  0  0  0  0
   27.6730   33.5484   20.4344 C   0  0  1  0  0  0  0  0  0  0  0  0
   27.1886   31.3566   20.8982 O   0  0  0  0  0  0  0  0  0  0  0  0
   27.3261   35.2377   22.0097 C   0  0  1  0  0  0  0  0  0  0  0  0
   27.2705   33.9350   21.6645 N   0  0  0  0  0  0  0  0  0  0  0  0
   26.9093   35.6268   23.2779 C   0  0  0  0  0  0  0  0  0  0  0  0
   26.9570   36.9617   23.6643 C   0  0  2  0  0  0  0  0  0  0  0  0
   26.4886   37.3136   25.0529 C   0  0  0  0  0  0  0  0  0  0  0  0
   27.4305   37.9277   22.7673 C   0  0  2  0  0  0  0  0  0  0  0  0
   27.5061   39.2573   23.0764 N   0  0  0  0  0  0  0  0  0  0  0  0
   27.8455   37.5209   21.4934 C   0  0  0  0  0  0  0  0  0  0  0  0
   27.7983   36.1835   21.1012 C   0  0  2  0  0  0  0  0  0  0  0  0
   28.1507   34.4909   19.5184 C   0  0  2  0  0  0  0  0  0  0  0  0
   28.1987   35.8026   19.8665 N   0  0  0  0  0  0  0  0  0  0  0  0
   28.5739   39.7368   23.9333 C   0  0  0  0  0  0  0  0  0  0  0  0
   26.5526   40.2336   22.5757 C   0  0  0  0  0  0  0  0  0  0  0  0
  1  2  1  0  0  0  0
  3  1  1  1  0  0  0
  3  4  1  0  0  0  0
  3  5  1  0  0  0  0
  5  6  1  6  0  0  0
  5  7  1  0  0  0  0
  7  8  1  6  0  0  0
  7  9  1  0  0  0  0
  9 27  1  0  0  0  0
 10 11  1  0  0  0  0
 11 12  2  0  0  0  0
 11 13  1  0  0  0  0
 13 14  1  0  0  0  0
 14 16  2  0  0  0  0
 15 14  1  1  0  0  0
 15 18  1  0  0  0  0
 15 26  1  0  0  0  0
 17 19  1  1  0  0  0
 17 25  1  0  0  0  0
 17 18  1  0  0  0  0
 19 20  1  0  0  0  0
 20 21  1  6  0  0  0
 20 22  1  0  0  0  0
 22 23  1  6  0  0  0
 22 24  1  0  0  0  0
 23 28  1  0  0  0  0
 23 29  1  0  0  0  0
 25 24  1  6  0  0  0
 25 27  1  0  0  0  0
 26 10  1  6  0  0  0
 26 27  1  0  0  0  0
M  END
>  <CHROM.1>
61.50550840,61.37828244,-50.54935434,157.85408078,76.38946741,-69.58011131
27.94224473,36.50780533,19.84216164,-0.81398287,-1.32066891,-3.00218969

>  <Name>
ligand

>  <RI>
0

>  <Rbt.Current_Directory>
/home/itssahil/PROJECTS/Mol_Feturizer/New_Systems/rnas/3F4H

>  <Rbt.Executable>
rbdock ($Id: //depot/dev/client3/rdock/2013.1/src/exe/rbdock.cxx#4 $)

>  <Rbt.Library>
libRbt.so (2013.1, Build901 2013/11/27)

>  <Rbt.Parameter_File>
/export/apps/rDock/src/rDock_2013.1_src/data/scripts/dock_solv.prm

>  <Rbt.Receptor>
prm/pocket_docking_7.prm

>  <SCORE>
-48.1875

>  <SCORE.INTER>
-31.5558

>  <SCORE.INTER.CONST>
1

>  <SCORE.INTER.POLAR>
0

>  <SCORE.INTER.ROT>
6

>  <SCORE.INTER.SOLV>
12.0312

>  <SCORE.INTER.VDW>
-32.6476

>  <SCORE.INTER.norm>
-1.08813

>  <SCORE.INTRA>
-16.6317

>  <SCORE.INTRA.DIHEDRAL>
-2.87286

>  <SCORE.INTRA.DIHEDRAL.0>
6.83446

>  <SCORE.INTRA.POLAR>
0

>  <SCORE.INTRA.POLAR.0>
0

>  <SCORE.INTRA.REPUL>
0

>  <SCORE.INTRA.REPUL.0>
0

>  <SCORE.INTRA.SOLV>
-0.279572

>  <SCORE.INTRA.SOLV.lig_0>
-26.4601

>  <SCORE.INTRA.VDW>
-15.0555

>  <SCORE.INTRA.VDW.0>
13.7853

>  <SCORE.INTRA.norm>
-0.573507

>  <SCORE.RESTR>
0

>  <SCORE.RESTR.CAVITY>
0

>  <SCORE.RESTR.norm>
0

>  <SCORE.SYSTEM>
0

>  <SCORE.SYSTEM.CONST>
0

>  <SCORE.SYSTEM.DIHEDRAL>
0

>  <SCORE.SYSTEM.SOLV>
0

>  <SCORE.SYSTEM.norm>
0

>  <SCORE.heavy>
29

>  <SCORE.norm>
-1.66164

>  <RMSD>
1.360

$$$$
ligand
 OpenBabel11021811473D
libRbt.so/2013.1/901 2013/11/27
 29 31  0  0  0  0  0  0  0  0999 V2000
   26.6581   40.1059   18.4614 C   0  0  0  0  0  0  0  0  0  0  0  0
   26.8215   41.4236   18.9960 O   0  0  0  0  0  0  0  0  0  0  0  0
   27.9117   39.7170   17.6898 C   0  0  1  0  0  0  0  0  0  0  0  0
   28.9974   39.6230   18.6067 O   0  0  0  0  0  0  0  0  0  0  0  0
   27.7084   38.3885   16.9727 C   0  0  1  0  0  0  0  0  0  0  0  0
   28.8954   38.1236   16.2340 O   0  0  0  0  0  0  0  0  0  0  0  0
   27.3835   37.2029   17.8862 C   0  0  1  0  0  0  0  0  0  0  0  0
   26.9539   36.1102   17.0732 O   0  0  0  0  0  0  0  0  0  0  0  0
   28.5733   36.7345   18.7216 C   0  0  0  0  0  0  0  0  0  0  0  0
   28.4319   33.9658   18.1874 N   0  0  0  0  0  0  0  0  0  0  0  0
   28.3800   32.6351   17.8968 C   0  0  0  0  0  0  0  0  0  0  0  0
   28.6846   32.2223   16.7499 O   0  0  0  0  0  0  0  0  0  0  0  0
   27.9934   31.7411   18.8419 N   0  0  0  0  0  0  0  0  0  0  0  0
   27.6525   32.1505   20.0897 C   0  0  0  0  0  0  0  0  0  0  0  0
   27.7020   33.5046   20.4009 C   0  0  1  0  0  0  0  0  0  0  0  0
   27.2933   31.3197   20.9604 O   0  0  0  0  0  0  0  0  0  0  0  0
   27.4197   35.2356   21.9433 C   0  0  1  0  0  0  0  0  0  0  0  0
   27.3696   33.9219   21.6418 N   0  0  0  0  0  0  0  0  0  0  0  0
   27.0752   35.6565   23.2231 C   0  0  0  0  0  0  0  0  0  0  0  0
   27.1193   37.0035   23.5652 C   0  0  2  0  0  0  0  0  0  0  0  0
   26.7318   37.3900   24.9695 C   0  0  0  0  0  0  0  0  0  0  0  0
   27.5154   37.9496   22.6113 C   0  0  2  0  0  0  0  0  0  0  0  0
   27.5825   39.2895   22.8748 N   0  0  0  0  0  0  0  0  0  0  0  0
   27.8580   37.5109   21.3265 C   0  0  0  0  0  0  0  0  0  0  0  0
   27.8140   36.1612   20.9786 C   0  0  2  0  0  0  0  0  0  0  0  0
   28.1016   34.4267   19.4285 C   0  0  2  0  0  0  0  0  0  0  0  0
   28.1441   35.7493   19.7331 N   0  0  0  0  0  0  0  0  0  0  0  0
   26.5786   40.1814   22.3262 C   0  0  0  0  0  0  0  0  0  0  0  0
   28.6287   39.8749   23.6968 C   0  0  0  0  0  0  0  0  0  0  0  0
  1  2  1  0  0  0  0
  3  1  1  1  0  0  0
  3  4  1  0  0  0  0
  3  5  1  0  0  0  0
  5  6  1  1  0  0  0
  5  7  1  0  0  0  0
  7  8  1  6  0  0  0
  7  9  1  0  0  0  0
  9 27  1  0  0  0  0
 10 11  1  0  0  0  0
 11 12  2  0  0  0  0
 11 13  1  0  0  0  0
 13 14  1  0  0  0  0
 14 16  2  0  0  0  0
 15 14  1  1  0  0  0
 15 18  1  0  0  0  0
 15 26  1  0  0  0  0
 17 19  1  1  0  0  0
 17 25  1  0  0  0  0
 17 18  1  0  0  0  0
 19 20  1  0  0  0  0
 20 21  1  6  0  0  0
 20 22  1  0  0  0  0
 22 23  1  6  0  0  0
 22 24  1  0  0  0  0
 23 28  1  0  0  0  0
 23 29  1  0  0  0  0
 25 24  1  6  0  0  0
 25 27  1  0  0  0  0
 26 10  1  6  0  0  0
 26 27  1  0  0  0  0
M  END
>  <CHROM.1>
65.44654503,177.61150544,168.23093891,170.59800007,-106.52417193,-93.11753031
27.73016388,36.45752848,20.00571866,-2.13781845,-1.44221341,2.87283561

>  <Name>
ligand

>  <RI>
0

>  <Rbt.Current_Directory>
/home/itssahil/PROJECTS/Mol_Feturizer/New_Systems/rnas/3F4H

>  <Rbt.Executable>
rbdock ($Id: //depot/dev/client3/rdock/2013.1/src/exe/rbdock.cxx#4 $)

>  <Rbt.Library>
libRbt.so (2013.1, Build901 2013/11/27)

>  <Rbt.Parameter_File>
/export/apps/rDock/src/rDock_2013.1_src/data/scripts/dock_solv.prm

>  <Rbt.Receptor>
prm/pocket_docking_3.prm

>  <SCORE>
-48.2448

>  <SCORE.INTER>
-30.3917

>  <SCORE.INTER.CONST>
1

>  <SCORE.INTER.POLAR>
0

>  <SCORE.INTER.ROT>
6

>  <SCORE.INTER.SOLV>
9.70354

>  <SCORE.INTER.VDW>
-31.0956

>  <SCORE.INTER.norm>
-1.04799

>  <SCORE.INTRA>
-17.8532

>  <SCORE.INTRA.DIHEDRAL>
-3.82805

>  <SCORE.INTRA.DIHEDRAL.0>
6.83446

>  <SCORE.INTRA.POLAR>
0

>  <SCORE.INTRA.POLAR.0>
0

>  <SCORE.INTRA.REPUL>
0

>  <SCORE.INTRA.REPUL.0>
0

>  <SCORE.INTRA.SOLV>
-0.0120363

>  <SCORE.INTRA.SOLV.lig_0>
-26.4601

>  <SCORE.INTRA.VDW>
-15.9331

>  <SCORE.INTRA.VDW.0>
13.7853

>  <SCORE.INTRA.norm>
-0.615627

>  <SCORE.RESTR>
0

>  <SCORE.RESTR.CAVITY>
0

>  <SCORE.RESTR.norm>
0

>  <SCORE.SYSTEM>
0

>  <SCORE.SYSTEM.CONST>
0

>  <SCORE.SYSTEM.DIHEDRAL>
0

>  <SCORE.SYSTEM.SOLV>
0

>  <SCORE.SYSTEM.norm>
0

>  <SCORE.heavy>
29

>  <SCORE.norm>
-1.66361

>  <RMSD>
1.363

$$$$
ligand
 OpenBabel11021811473D
libRbt.so/2013.1/901 2013/11/27
 29 31  0  0  0  0  0  0  0  0999 V2000
   29.1719   40.0834   15.7292 C   0  0  0  0  0  0  0  0  0  0  0  0
   29.9730   40.7729   16.6945 O   0  0  0  0  0  0  0  0  0  0  0  0
   28.7364   38.7420   16.3028 C   0  0  1  0  0  0  0  0  0  0  0  0
   29.9005   37.9821   16.6126 O   0  0  0  0  0  0  0  0  0  0  0  0
   27.8886   38.9438   17.5521 C   0  0  1  0  0  0  0  0  0  0  0  0
   26.7337   39.6779   17.1623 O   0  0  0  0  0  0  0  0  0  0  0  0
   27.4739   37.6551   18.2682 C   0  0  1  0  0  0  0  0  0  0  0  0
   26.8744   36.7795   17.3124 O   0  0  0  0  0  0  0  0  0  0  0  0
   28.6423   36.9183   18.9201 C   0  0  0  0  0  0  0  0  0  0  0  0
   28.5035   34.1685   18.2952 N   0  0  0  0  0  0  0  0  0  0  0  0
   28.4545   32.8477   17.9619 C   0  0  0  0  0  0  0  0  0  0  0  0
   28.8145   32.4662   16.8202 O   0  0  0  0  0  0  0  0  0  0  0  0
   28.0111   31.9300   18.8581 N   0  0  0  0  0  0  0  0  0  0  0  0
   27.6097   32.3055   20.0985 C   0  0  0  0  0  0  0  0  0  0  0  0
   27.6553   33.6491   20.4529 C   0  0  1  0  0  0  0  0  0  0  0  0
   27.1981   31.4529   20.9237 O   0  0  0  0  0  0  0  0  0  0  0  0
   27.3091   35.3360   22.0308 C   0  0  1  0  0  0  0  0  0  0  0  0
   27.2627   34.0326   21.6871 N   0  0  0  0  0  0  0  0  0  0  0  0
   26.9024   35.7220   23.3033 C   0  0  0  0  0  0  0  0  0  0  0  0
   26.9410   37.0577   23.6881 C   0  0  2  0  0  0  0  0  0  0  0  0
   26.4846   37.4060   25.0816 C   0  0  0  0  0  0  0  0  0  0  0  0
   27.3948   38.0276   22.7852 C   0  0  2  0  0  0  0  0  0  0  0  0
   27.4605   39.3582   23.0925 N   0  0  0  0  0  0  0  0  0  0  0  0
   27.7997   37.6240   21.5071 C   0  0  0  0  0  0  0  0  0  0  0  0
   27.7615   36.2858   21.1164 C   0  0  2  0  0  0  0  0  0  0  0  0
   28.1133   34.5955   19.5311 C   0  0  2  0  0  0  0  0  0  0  0  0
   28.1521   35.9079   19.8776 N   0  0  0  0  0  0  0  0  0  0  0  0
   28.5263   39.8472   23.9465 C   0  0  0  0  0  0  0  0  0  0  0  0
   26.4982   40.3262   22.5926 C   0  0  0  0  0  0  0  0  0  0  0  0
  1  2  1  0  0  0  0
  3  1  1  1  0  0  0
  3  4  1  0  0  0  0
  3  5  1  0  0  0  0
  5  6  1  6  0  0  0
  5  7  1  0  0  0  0
  7  8  1  6  0  0  0
  7  9  1  0  0  0  0
  9 27  1  0  0  0  0
 10 11  1  0  0  0  0
 11 12  2  0  0  0  0
 11 13  1  0  0  0  0
 13 14  1  0  0  0  0
 14 16  2  0  0  0  0
 15 14  1  1  0  0  0
 15 18  1  0  0  0  0
 15 26  1  0  0  0  0
 17 19  1  1  0  0  0
 17 25  1  0  0  0  0
 17 18  1  0  0  0  0
 19 20  1  0  0  0  0
 20 21  1  6  0  0  0
 20 22  1  0  0  0  0
 22 23  1  6  0  0  0
 22 24  1  0  0  0  0
 23 28  1  0  0  0  0
 23 29  1  0  0  0  0
 25 24  1  6  0  0  0
 25 27  1  0  0  0  0
 26 10  1  6  0  0  0
 26 27  1  0  0  0  0
M  END
>  <CHROM.1>
-59.63974167,61.30617248,-51.90992103,164.95789880,75.86100825,-80.00041781
27.88929828,36.54405071,19.85120009,-0.96530196,-1.34131978,-2.98708472

>  <Name>
ligand

>  <RI>
0

>  <Rbt.Current_Directory>
/home/itssahil/PROJECTS/Mol_Feturizer/New_Systems/rnas/3F4H

>  <Rbt.Executable>
rbdock ($Id: //depot/dev/client3/rdock/2013.1/src/exe/rbdock.cxx#4 $)

>  <Rbt.Library>
libRbt.so (2013.1, Build901 2013/11/27)

>  <Rbt.Parameter_File>
/export/apps/rDock/src/rDock_2013.1_src/data/scripts/dock_solv.prm

>  <Rbt.Receptor>
prm/pocket_docking_7.prm

>  <SCORE>
-48.6743

>  <SCORE.INTER>
-31.7611

>  <SCORE.INTER.CONST>
1

>  <SCORE.INTER.POLAR>
0

>  <SCORE.INTER.ROT>
6

>  <SCORE.INTER.SOLV>
11.2081

>  <SCORE.INTER.VDW>
-32.5101

>  <SCORE.INTER.norm>
-1.09521

>  <SCORE.INTRA>
-16.9132

>  <SCORE.INTRA.DIHEDRAL>
-3.75774

>  <SCORE.INTRA.DIHEDRAL.0>
6.83446

>  <SCORE.INTRA.POLAR>
0

>  <SCORE.INTRA.POLAR.0>
0

>  <SCORE.INTRA.REPUL>
0

>  <SCORE.INTRA.REPUL.0>
0

>  <SCORE.INTRA.SOLV>
0.138492

>  <SCORE.INTRA.SOLV.lig_0>
-26.4601

>  <SCORE.INTRA.VDW>
-15.1036

>  <SCORE.INTRA.VDW.0>
13.7853

>  <SCORE.INTRA.norm>
-0.583214

>  <SCORE.RESTR>
0

>  <SCORE.RESTR.CAVITY>
0

>  <SCORE.RESTR.norm>
0

>  <SCORE.SYSTEM>
0

>  <SCORE.SYSTEM.CONST>
0

>  <SCORE.SYSTEM.DIHEDRAL>
0

>  <SCORE.SYSTEM.SOLV>
0

>  <SCORE.SYSTEM.norm>
0

>  <SCORE.heavy>
29

>  <SCORE.norm>
-1.67842

>  <RMSD>
1.365

$$$$
ligand
 OpenBabel11021811473D
libRbt.so/2013.1/901 2013/11/27
 29 31  0  0  0  0  0  0  0  0999 V2000
   29.4655   40.4745   16.3367 C   0  0  0  0  0  0  0  0  0  0  0  0
   30.1030   40.4199   15.0563 O   0  0  0  0  0  0  0  0  0  0  0  0
   28.8873   39.1059   16.6695 C   0  0  1  0  0  0  0  0  0  0  0  0
   29.9538   38.1634   16.7200 O   0  0  0  0  0  0  0  0  0  0  0  0
   28.1525   39.1451   18.0033 C   0  0  1  0  0  0  0  0  0  0  0  0
   27.0685   40.0555   17.8594 O   0  0  0  0  0  0  0  0  0  0  0  0
   27.6376   37.7905   18.4987 C   0  0  1  0  0  0  0  0  0  0  0  0
   26.9645   37.1406   17.4198 O   0  0  0  0  0  0  0  0  0  0  0  0
   28.7450   36.8633   18.9953 C   0  0  0  0  0  0  0  0  0  0  0  0
   28.5389   34.1236   18.3450 N   0  0  0  0  0  0  0  0  0  0  0  0
   28.4583   32.8074   17.9998 C   0  0  0  0  0  0  0  0  0  0  0  0
   28.8325   32.4239   16.8634 O   0  0  0  0  0  0  0  0  0  0  0  0
   27.9679   31.8966   18.8784 N   0  0  0  0  0  0  0  0  0  0  0  0
   27.5499   32.2746   20.1126 C   0  0  0  0  0  0  0  0  0  0  0  0
   27.6273   33.6134   20.4789 C   0  0  1  0  0  0  0  0  0  0  0  0
   27.0948   31.4284   20.9215 O   0  0  0  0  0  0  0  0  0  0  0  0
   27.2958   35.2981   22.0625 C   0  0  1  0  0  0  0  0  0  0  0  0
   27.2186   33.9992   21.7072 N   0  0  0  0  0  0  0  0  0  0  0  0
   26.8723   35.6864   23.3287 C   0  0  0  0  0  0  0  0  0  0  0  0
   26.9418   37.0174   23.7252 C   0  0  2  0  0  0  0  0  0  0  0  0
   26.4647   37.3687   25.1110 C   0  0  0  0  0  0  0  0  0  0  0  0
   27.4443   37.9802   22.8406 C   0  0  2  0  0  0  0  0  0  0  0  0
   27.5425   39.3058   23.1602 N   0  0  0  0  0  0  0  0  0  0  0  0
   27.8657   37.5742   21.5685 C   0  0  0  0  0  0  0  0  0  0  0  0
   27.7967   36.2408   21.1662 C   0  0  2  0  0  0  0  0  0  0  0  0
   28.1339   34.5527   19.5753 C   0  0  2  0  0  0  0  0  0  0  0  0
   28.2036   35.8607   19.9334 N   0  0  0  0  0  0  0  0  0  0  0  0
   26.5912   40.2511   22.6071 C   0  0  0  0  0  0  0  0  0  0  0  0
   28.5709   39.8239   24.0472 C   0  0  0  0  0  0  0  0  0  0  0  0
  1  2  1  0  0  0  0
  3  1  1  1  0  0  0
  3  4  1  0  0  0  0
  3  5  1  0  0  0  0
  5  6  1  6  0  0  0
  5  7  1  0  0  0  0
  7  8  1  6  0  0  0
  7  9  1  0  0  0  0
  9 27  1  0  0  0  0
 10 11  1  0  0  0  0
 11 12  2  0  0  0  0
 11 13  1  0  0  0  0
 13 14  1  0  0  0  0
 14 16  2  0  0  0  0
 15 14  1  1  0  0  0
 15 18  1  0  0  0  0
 15 26  1  0  0  0  0
 17 19  1  1  0  0  0
 17 25  1  0  0  0  0
 17 18  1  0  0  0  0
 19 20  1  0  0  0  0
 20 21  1  6  0  0  0
 20 22  1  0  0  0  0
 22 23  1  6  0  0  0
 22 24  1  0  0  0  0
 23 28  1  0  0  0  0
 23 29  1  0  0  0  0
 25 24  1  6  0  0  0
 25 27  1  0  0  0  0
 26 10  1  6  0  0  0
 26 27  1  0  0  0  0
M  END
>  <CHROM.1>
61.11864604,62.59036239,-47.60059626,156.86368375,-104.58494726,-70.66626293
27.95180595,36.57408707,19.90650729,-0.76218312,-1.30966754,-2.93760730

>  <Name>
ligand

>  <RI>
0

>  <Rbt.Current_Directory>
/home/itssahil/PROJECTS/Mol_Feturizer/New_Systems/rnas/3F4H

>  <Rbt.Executable>
rbdock ($Id: //depot/dev/client3/rdock/2013.1/src/exe/rbdock.cxx#4 $)

>  <Rbt.Library>
libRbt.so (2013.1, Build901 2013/11/27)

>  <Rbt.Parameter_File>
/export/apps/rDock/src/rDock_2013.1_src/data/scripts/dock_solv.prm

>  <Rbt.Receptor>
prm/pocket_docking_8.prm

>  <SCORE>
-48.0577

>  <SCORE.INTER>
-31.4931

>  <SCORE.INTER.CONST>
1

>  <SCORE.INTER.POLAR>
0

>  <SCORE.INTER.ROT>
6

>  <SCORE.INTER.SOLV>
11.6649

>  <SCORE.INTER.VDW>
-32.4837

>  <SCORE.INTER.norm>
-1.08597

>  <SCORE.INTRA>
-16.5646

>  <SCORE.INTRA.DIHEDRAL>
-2.50609

>  <SCORE.INTRA.DIHEDRAL.0>
6.83446

>  <SCORE.INTRA.POLAR>
0

>  <SCORE.INTRA.POLAR.0>
0

>  <SCORE.INTRA.REPUL>
0

>  <SCORE.INTRA.REPUL.0>
0

>  <SCORE.INTRA.SOLV>
-0.27035

>  <SCORE.INTRA.SOLV.lig_0>
-26.4601

>  <SCORE.INTRA.VDW>
-15.1764

>  <SCORE.INTRA.VDW.0>
13.7853

>  <SCORE.INTRA.norm>
-0.571193

>  <SCORE.RESTR>
0

>  <SCORE.RESTR.CAVITY>
0

>  <SCORE.RESTR.norm>
0

>  <SCORE.SYSTEM>
0

>  <SCORE.SYSTEM.CONST>
0

>  <SCORE.SYSTEM.DIHEDRAL>
0

>  <SCORE.SYSTEM.SOLV>
0

>  <SCORE.SYSTEM.norm>
0

>  <SCORE.heavy>
29

>  <SCORE.norm>
-1.65716

>  <RMSD>
1.366

$$$$
ligand
 OpenBabel11021811473D
libRbt.so/2013.1/901 2013/11/27
 29 31  0  0  0  0  0  0  0  0999 V2000
   29.3007   40.1567   15.8827 C   0  0  0  0  0  0  0  0  0  0  0  0
   28.3284   41.1974   15.7394 O   0  0  0  0  0  0  0  0  0  0  0  0
   28.6111   38.8863   16.3608 C   0  0  1  0  0  0  0  0  0  0  0  0
   29.5606   37.8247   16.3526 O   0  0  0  0  0  0  0  0  0  0  0  0
   28.0456   39.0791   17.7620 C   0  0  1  0  0  0  0  0  0  0  0  0
   26.9841   40.0213   17.6609 O   0  0  0  0  0  0  0  0  0  0  0  0
   27.5482   37.7996   18.4411 C   0  0  1  0  0  0  0  0  0  0  0  0
   26.7420   37.0774   17.5095 O   0  0  0  0  0  0  0  0  0  0  0  0
   28.6756   36.8802   18.9065 C   0  0  0  0  0  0  0  0  0  0  0  0
   28.5067   34.1303   18.2894 N   0  0  0  0  0  0  0  0  0  0  0  0
   28.4435   32.8091   17.9600 C   0  0  0  0  0  0  0  0  0  0  0  0
   28.8040   32.4198   16.8211 O   0  0  0  0  0  0  0  0  0  0  0  0
   27.9852   31.8996   18.8569 N   0  0  0  0  0  0  0  0  0  0  0  0
   27.5827   32.2838   20.0944 C   0  0  0  0  0  0  0  0  0  0  0  0
   27.6428   33.6277   20.4449 C   0  0  1  0  0  0  0  0  0  0  0  0
   27.1573   31.4387   20.9204 O   0  0  0  0  0  0  0  0  0  0  0  0
   27.3097   35.3237   22.0160 C   0  0  1  0  0  0  0  0  0  0  0  0
   27.2493   34.0198   21.6761 N   0  0  0  0  0  0  0  0  0  0  0  0
   26.9020   35.7185   23.2854 C   0  0  0  0  0  0  0  0  0  0  0  0
   26.9548   37.0548   23.6663 C   0  0  2  0  0  0  0  0  0  0  0  0
   26.4964   37.4129   25.0567 C   0  0  0  0  0  0  0  0  0  0  0  0
   27.4242   38.0164   22.7625 C   0  0  2  0  0  0  0  0  0  0  0  0
   27.5044   39.3470   23.0660 N   0  0  0  0  0  0  0  0  0  0  0  0
   27.8299   37.6039   21.4874 C   0  0  0  0  0  0  0  0  0  0  0  0
   27.7776   36.2651   21.1007 C   0  0  2  0  0  0  0  0  0  0  0  0
   28.1162   34.5658   19.5222 C   0  0  2  0  0  0  0  0  0  0  0  0
   28.1690   35.8787   19.8649 N   0  0  0  0  0  0  0  0  0  0  0  0
   28.6018   39.8340   23.8803 C   0  0  0  0  0  0  0  0  0  0  0  0
   26.5271   40.3171   22.6005 C   0  0  0  0  0  0  0  0  0  0  0  0
  1  2  1  0  0  0  0
  3  1  1  1  0  0  0
  3  4  1  0  0  0  0
  3  5  1  0  0  0  0
  5  6  1  6  0  0  0
  5  7  1  0  0  0  0
  7  8  1  6  0  0  0
  7  9  1  0  0  0  0
  9 27  1  0  0  0  0
 10 11  1  0  0  0  0
 11 12  2  0  0  0  0
 11 13  1  0  0  0  0
 13 14  1  0  0  0  0
 14 16  2  0  0  0  0
 15 14  1  1  0  0  0
 15 18  1  0  0  0  0
 15 26  1  0  0  0  0
 17 19  1  1  0  0  0
 17 25  1  0  0  0  0
 17 18  1  0  0  0  0
 19 20  1  0  0  0  0
 20 21  1  6  0  0  0
 20 22  1  0  0  0  0
 22 23  1  6  0  0  0
 22 24  1  0  0  0  0
 23 28  1  0  0  0  0
 23 29  1  0  0  0  0
 25 24  1  6  0  0  0
 25 27  1  0  0  0  0
 26 10  1  6  0  0  0
 26 27  1  0  0  0  0
M  END
>  <CHROM.1>
173.48751464,67.60226803,-46.82418111,164.18379663,78.26284099,-69.55488283
27.82795981,36.58284172,19.84034323,-1.18336116,-1.37664027,3.13374607

>  <Name>
ligand

>  <RI>
0

>  <Rbt.Current_Directory>
/home/itssahil/PROJECTS/Mol_Feturizer/New_Systems/rnas/3F4H

>  <Rbt.Executable>
rbdock ($Id: //depot/dev/client3/rdock/2013.1/src/exe/rbdock.cxx#4 $)

>  <Rbt.Library>
libRbt.so (2013.1, Build901 2013/11/27)

>  <Rbt.Parameter_File>
/export/apps/rDock/src/rDock_2013.1_src/data/scripts/dock_solv.prm

>  <Rbt.Receptor>
prm/pocket_docking_8.prm

>  <SCORE>
-47.9457

>  <SCORE.INTER>
-31.4719

>  <SCORE.INTER.CONST>
1

>  <SCORE.INTER.POLAR>
0

>  <SCORE.INTER.ROT>
6

>  <SCORE.INTER.SOLV>
10.9409

>  <SCORE.INTER.VDW>
-32.2282

>  <SCORE.INTER.norm>
-1.08524

>  <SCORE.INTRA>
-16.4738

>  <SCORE.INTRA.DIHEDRAL>
-2.96068

>  <SCORE.INTRA.DIHEDRAL.0>
6.83446

>  <SCORE.INTRA.POLAR>
0

>  <SCORE.INTRA.POLAR.0>
0

>  <SCORE.INTRA.REPUL>
0

>  <SCORE.INTRA.REPUL.0>
0

>  <SCORE.INTRA.SOLV>
0.114729

>  <SCORE.INTRA.SOLV.lig_0>
-26.4601

>  <SCORE.INTRA.VDW>
-15.0509

>  <SCORE.INTRA.VDW.0>
13.7853

>  <SCORE.INTRA.norm>
-0.568064

>  <SCORE.RESTR>
0

>  <SCORE.RESTR.CAVITY>
0

>  <SCORE.RESTR.norm>
0

>  <SCORE.SYSTEM>
0

>  <SCORE.SYSTEM.CONST>
0

>  <SCORE.SYSTEM.DIHEDRAL>
0

>  <SCORE.SYSTEM.SOLV>
0

>  <SCORE.SYSTEM.norm>
0

>  <SCORE.heavy>
29

>  <SCORE.norm>
-1.6533

>  <RMSD>
1.368

$$$$
ligand
 OpenBabel11021811473D
libRbt.so/2013.1/901 2013/11/27
 29 31  0  0  0  0  0  0  0  0999 V2000
   30.1478   38.8759   17.0624 C   0  0  0  0  0  0  0  0  0  0  0  0
   30.9703   40.0472   17.0418 O   0  0  0  0  0  0  0  0  0  0  0  0
   28.6938   39.2785   16.8574 C   0  0  1  0  0  0  0  0  0  0  0  0
   28.6093   40.0938   15.6926 O   0  0  0  0  0  0  0  0  0  0  0  0
   27.8131   38.0451   16.7046 C   0  0  1  0  0  0  0  0  0  0  0  0
   28.4972   37.1445   15.8411 O   0  0  0  0  0  0  0  0  0  0  0  0
   27.4514   37.3415   18.0161 C   0  0  1  0  0  0  0  0  0  0  0  0
   26.4905   36.3237   17.7329 O   0  0  0  0  0  0  0  0  0  0  0  0
   28.6471   36.6876   18.7056 C   0  0  0  0  0  0  0  0  0  0  0  0
   28.5083   33.9162   18.1851 N   0  0  0  0  0  0  0  0  0  0  0  0
   28.4583   32.5839   17.9013 C   0  0  0  0  0  0  0  0  0  0  0  0
   28.7836   32.1635   16.7629 O   0  0  0  0  0  0  0  0  0  0  0  0
   28.0513   31.6965   18.8440 N   0  0  0  0  0  0  0  0  0  0  0  0
   27.6878   32.1142   20.0827 C   0  0  0  0  0  0  0  0  0  0  0  0
   27.7350   33.4699   20.3868 C   0  0  1  0  0  0  0  0  0  0  0  0
   27.3097   31.2895   20.9512 O   0  0  0  0  0  0  0  0  0  0  0  0
   27.4280   35.2108   21.9135 C   0  0  1  0  0  0  0  0  0  0  0  0
   27.3800   33.8955   21.6187 N   0  0  0  0  0  0  0  0  0  0  0  0
   27.0603   35.6401   23.1839 C   0  0  0  0  0  0  0  0  0  0  0  0
   27.1015   36.9890   23.5189 C   0  0  2  0  0  0  0  0  0  0  0  0
   26.6883   37.3848   24.9132 C   0  0  0  0  0  0  0  0  0  0  0  0
   27.5184   37.9284   22.5672 C   0  0  2  0  0  0  0  0  0  0  0  0
   27.5842   39.2696   22.8241 N   0  0  0  0  0  0  0  0  0  0  0  0
   27.8843   37.4813   21.2918 C   0  0  0  0  0  0  0  0  0  0  0  0
   27.8433   36.1296   20.9511 C   0  0  2  0  0  0  0  0  0  0  0  0
   28.1556   34.3852   19.4169 C   0  0  2  0  0  0  0  0  0  0  0  0
   28.1959   35.7095   19.7145 N   0  0  0  0  0  0  0  0  0  0  0  0
   28.6538   39.7913   23.6537 C   0  0  0  0  0  0  0  0  0  0  0  0
   26.6184   40.2174   22.2932 C   0  0  0  0  0  0  0  0  0  0  0  0
  1  2  1  0  0  0  0
  3  1  1  6  0  0  0
  3  4  1  0  0  0  0
  3  5  1  0  0  0  0
  5  6  1  6  0  0  0
  5  7  1  0  0  0  0
  7  8  1  6  0  0  0
  7  9  1  0  0  0  0
  9 27  1  0  0  0  0
 10 11  1  0  0  0  0
 11 12  2  0  0  0  0
 11 13  1  0  0  0  0
 13 14  1  0  0  0  0
 14 16  2  0  0  0  0
 15 14  1  1  0  0  0
 15 18  1  0  0  0  0
 15 26  1  0  0  0  0
 17 19  1  1  0  0  0
 17 25  1  0  0  0  0
 17 18  1  0  0  0  0
 19 20  1  0  0  0  0
 20 21  1  6  0  0  0
 20 22  1  0  0  0  0
 22 23  1  6  0  0  0
 22 24  1  0  0  0  0
 23 28  1  0  0  0  0
 23 29  1  0  0  0  0
 25 24  1  6  0  0  0
 25 27  1  0  0  0  0
 26 10  1  6  0  0  0
 26 27  1  0  0  0  0
M  END
>  <CHROM.1>
51.97429758,-43.52394769,172.44287309,-163.15563023,74.23517025,-82.88662194
28.02277147,36.30340144,19.72372190,-1.18282972,-1.32481572,-2.78621241

>  <Name>
ligand

>  <RI>
0

>  <Rbt.Current_Directory>
/home/itssahil/PROJECTS/Mol_Feturizer/New_Systems/rnas/3F4H

>  <Rbt.Executable>
rbdock ($Id: //depot/dev/client3/rdock/2013.1/src/exe/rbdock.cxx#4 $)

>  <Rbt.Library>
libRbt.so (2013.1, Build901 2013/11/27)

>  <Rbt.Parameter_File>
/export/apps/rDock/src/rDock_2013.1_src/data/scripts/dock_solv.prm

>  <Rbt.Receptor>
prm/pocket_docking_7.prm

>  <SCORE>
-46.1807

>  <SCORE.INTER>
-30.7438

>  <SCORE.INTER.CONST>
1

>  <SCORE.INTER.POLAR>
0

>  <SCORE.INTER.ROT>
6

>  <SCORE.INTER.SOLV>
12.052

>  <SCORE.INTER.VDW>
-32.1132

>  <SCORE.INTER.norm>
-1.06013

>  <SCORE.INTRA>
-15.4369

>  <SCORE.INTRA.DIHEDRAL>
-2.42499

>  <SCORE.INTRA.DIHEDRAL.0>
6.83446

>  <SCORE.INTRA.POLAR>
0

>  <SCORE.INTRA.POLAR.0>
0

>  <SCORE.INTRA.REPUL>
0

>  <SCORE.INTRA.REPUL.0>
0

>  <SCORE.INTRA.SOLV>
-0.405937

>  <SCORE.INTRA.SOLV.lig_0>
-26.4601

>  <SCORE.INTRA.VDW>
-14.0214

>  <SCORE.INTRA.VDW.0>
13.7853

>  <SCORE.INTRA.norm>
-0.532307

>  <SCORE.RESTR>
0

>  <SCORE.RESTR.CAVITY>
0

>  <SCORE.RESTR.norm>
0

>  <SCORE.SYSTEM>
0

>  <SCORE.SYSTEM.CONST>
0

>  <SCORE.SYSTEM.DIHEDRAL>
0

>  <SCORE.SYSTEM.SOLV>
0

>  <SCORE.SYSTEM.norm>
0

>  <SCORE.heavy>
29

>  <SCORE.norm>
-1.59244

>  <RMSD>
1.371

$$$$
ligand
 OpenBabel11021811473D
libRbt.so/2013.1/901 2013/11/27
 29 31  0  0  0  0  0  0  0  0999 V2000
   29.4811   39.8960   15.7425 C   0  0  0  0  0  0  0  0  0  0  0  0
   28.5257   40.9121   15.4205 O   0  0  0  0  0  0  0  0  0  0  0  0
   28.7477   38.6431   16.2013 C   0  0  1  0  0  0  0  0  0  0  0  0
   29.7084   37.6224   16.4534 O   0  0  0  0  0  0  0  0  0  0  0  0
   27.9363   38.9279   17.4586 C   0  0  1  0  0  0  0  0  0  0  0  0
   26.7898   39.6704   17.0599 O   0  0  0  0  0  0  0  0  0  0  0  0
   27.5091   37.6871   18.2483 C   0  0  1  0  0  0  0  0  0  0  0  0
   26.9644   36.7348   17.3339 O   0  0  0  0  0  0  0  0  0  0  0  0
   28.6582   37.0196   19.0011 C   0  0  0  0  0  0  0  0  0  0  0  0
   28.4996   34.2853   18.3160 N   0  0  0  0  0  0  0  0  0  0  0  0
   28.4416   32.9724   17.9539 C   0  0  0  0  0  0  0  0  0  0  0  0
   28.8119   32.6116   16.8088 O   0  0  0  0  0  0  0  0  0  0  0  0
   27.9779   32.0405   18.8247 N   0  0  0  0  0  0  0  0  0  0  0  0
   27.5648   32.3937   20.0679 C   0  0  0  0  0  0  0  0  0  0  0  0
   27.6195   33.7288   20.4515 C   0  0  1  0  0  0  0  0  0  0  0  0
   27.1345   31.5279   20.8697 O   0  0  0  0  0  0  0  0  0  0  0  0
   27.2706   35.3853   22.0607 C   0  0  1  0  0  0  0  0  0  0  0  0
   27.2154   34.0900   21.6888 N   0  0  0  0  0  0  0  0  0  0  0  0
   26.8520   35.7484   23.3361 C   0  0  0  0  0  0  0  0  0  0  0  0
   26.8992   37.0751   23.7498 C   0  0  2  0  0  0  0  0  0  0  0  0
   26.4290   37.3984   25.1448 C   0  0  0  0  0  0  0  0  0  0  0  0
   27.3739   38.0593   22.8735 C   0  0  2  0  0  0  0  0  0  0  0  0
   27.4490   39.3823   23.2100 N   0  0  0  0  0  0  0  0  0  0  0  0
   27.7906   37.6787   21.5921 C   0  0  0  0  0  0  0  0  0  0  0  0
   27.7439   36.3497   21.1725 C   0  0  2  0  0  0  0  0  0  0  0  0
   28.0984   34.6899   19.5558 C   0  0  2  0  0  0  0  0  0  0  0  0
   28.1460   35.9941   19.9307 N   0  0  0  0  0  0  0  0  0  0  0  0
   28.5330   39.8493   24.0533 C   0  0  0  0  0  0  0  0  0  0  0  0
   26.4793   40.3635   22.7520 C   0  0  0  0  0  0  0  0  0  0  0  0
  1  2  1  0  0  0  0
  3  1  1  1  0  0  0
  3  4  1  0  0  0  0
  3  5  1  0  0  0  0
  5  6  1  6  0  0  0
  5  7  1  0  0  0  0
  7  8  1  6  0  0  0
  7  9  1  0  0  0  0
  9 27  1  0  0  0  0
 10 11  1  0  0  0  0
 11 12  2  0  0  0  0
 11 13  1  0  0  0  0
 13 14  1  0  0  0  0
 14 16  2  0  0  0  0
 15 14  1  1  0  0  0
 15 18  1  0  0  0  0
 15 26  1  0  0  0  0
 17 19  1  1  0  0  0
 17 25  1  0  0  0  0
 17 18  1  0  0  0  0
 19 20  1  0  0  0  0
 20 21  1  6  0  0  0
 20 22  1  0  0  0  0
 22 23  1  6  0  0  0
 22 24  1  0  0  0  0
 23 28  1  0  0  0  0
 23 29  1  0  0  0  0
 25 24  1  6  0  0  0
 25 27  1  0  0  0  0
 26 10  1  6  0  0  0
 26 27  1  0  0  0  0
M  END
>  <CHROM.1>
177.13639074,75.12789798,-47.23000658,169.52258325,77.77892615,-85.60793295
27.82638158,36.57029918,19.81231489,0.28280714,1.37247549,0.02452139

>  <Name>
ligand

>  <RI>
0

>  <Rbt.Current_Directory>
/home/itssahil/PROJECTS/Mol_Feturizer/New_Systems/rnas/3F4H

>  <Rbt.Executable>
rbdock ($Id: //depot/dev/client3/rdock/2013.1/src/exe/rbdock.cxx#4 $)

>  <Rbt.Library>
libRbt.so (2013.1, Build901 2013/11/27)

>  <Rbt.Parameter_File>
/export/apps/rDock/src/rDock_2013.1_src/data/scripts/dock_solv.prm

>  <Rbt.Receptor>
prm/pocket_docking_3.prm

>  <SCORE>
-48.1732

>  <SCORE.INTER>
-31.5387

>  <SCORE.INTER.CONST>
1

>  <SCORE.INTER.POLAR>
0

>  <SCORE.INTER.ROT>
6

>  <SCORE.INTER.SOLV>
11.1857

>  <SCORE.INTER.VDW>
-32.3544

>  <SCORE.INTER.norm>
-1.08754

>  <SCORE.INTRA>
-16.6345

>  <SCORE.INTRA.DIHEDRAL>
-2.97753

>  <SCORE.INTRA.DIHEDRAL.0>
6.83446

>  <SCORE.INTRA.POLAR>
0

>  <SCORE.INTRA.POLAR.0>
0

>  <SCORE.INTRA.REPUL>
0

>  <SCORE.INTRA.REPUL.0>
0

>  <SCORE.INTRA.SOLV>
0.20373

>  <SCORE.INTRA.SOLV.lig_0>
-26.4601

>  <SCORE.INTRA.VDW>
-15.2476

>  <SCORE.INTRA.VDW.0>
13.7853

>  <SCORE.INTRA.norm>
-0.573604

>  <SCORE.RESTR>
0

>  <SCORE.RESTR.CAVITY>
0

>  <SCORE.RESTR.norm>
0

>  <SCORE.SYSTEM>
0

>  <SCORE.SYSTEM.CONST>
0

>  <SCORE.SYSTEM.DIHEDRAL>
0

>  <SCORE.SYSTEM.SOLV>
0

>  <SCORE.SYSTEM.norm>
0

>  <SCORE.heavy>
29

>  <SCORE.norm>
-1.66115

>  <RMSD>
1.373

$$$$
ligand
 OpenBabel11021811473D
libRbt.so/2013.1/901 2013/11/27
 29 31  0  0  0  0  0  0  0  0999 V2000
   28.3079   40.3957   17.1690 C   0  0  0  0  0  0  0  0  0  0  0  0
   29.3507   41.3681   17.0423 O   0  0  0  0  0  0  0  0  0  0  0  0
   28.2163   39.9425   18.6196 C   0  0  1  0  0  0  0  0  0  0  0  0
   27.8806   41.0677   19.4256 O   0  0  0  0  0  0  0  0  0  0  0  0
   27.1665   38.8495   18.7737 C   0  0  1  0  0  0  0  0  0  0  0  0
   25.9732   39.3233   18.1604 O   0  0  0  0  0  0  0  0  0  0  0  0
   27.5555   37.4906   18.1840 C   0  0  1  0  0  0  0  0  0  0  0  0
   27.9494   37.6836   16.8249 O   0  0  0  0  0  0  0  0  0  0  0  0
   28.7096   36.8151   18.9219 C   0  0  0  0  0  0  0  0  0  0  0  0
   28.5578   34.0648   18.3022 N   0  0  0  0  0  0  0  0  0  0  0  0
   28.5030   32.7435   17.9715 C   0  0  0  0  0  0  0  0  0  0  0  0
   28.8731   32.3566   16.8350 O   0  0  0  0  0  0  0  0  0  0  0  0
   28.0427   31.8314   18.8648 N   0  0  0  0  0  0  0  0  0  0  0  0
   27.6299   32.2129   20.0997 C   0  0  0  0  0  0  0  0  0  0  0  0
   27.6813   33.5570   20.4513 C   0  0  1  0  0  0  0  0  0  0  0  0
   27.2028   31.3654   20.9223 O   0  0  0  0  0  0  0  0  0  0  0  0
   27.3296   35.2504   22.0211 C   0  0  1  0  0  0  0  0  0  0  0  0
   27.2776   33.9464   21.6801 N   0  0  0  0  0  0  0  0  0  0  0  0
   26.9114   35.6426   23.2879 C   0  0  0  0  0  0  0  0  0  0  0  0
   26.9553   36.9789   23.6699 C   0  0  2  0  0  0  0  0  0  0  0  0
   26.4857   37.3340   25.0572 C   0  0  0  0  0  0  0  0  0  0  0  0
   27.4265   37.9432   22.7698 C   0  0  2  0  0  0  0  0  0  0  0  0
   27.4984   39.2740   23.0746 N   0  0  0  0  0  0  0  0  0  0  0  0
   27.8429   37.5334   21.4974 C   0  0  0  0  0  0  0  0  0  0  0  0
   27.7994   36.1946   21.1096 C   0  0  2  0  0  0  0  0  0  0  0  0
   28.1568   34.4977   19.5325 C   0  0  2  0  0  0  0  0  0  0  0  0
   28.2011   35.8106   19.8762 N   0  0  0  0  0  0  0  0  0  0  0  0
   28.5501   39.7554   23.9501 C   0  0  0  0  0  0  0  0  0  0  0  0
   26.5566   40.2497   22.5511 C   0  0  0  0  0  0  0  0  0  0  0  0
  1  2  1  0  0  0  0
  3  1  1  6  0  0  0
  3  4  1  0  0  0  0
  3  5  1  0  0  0  0
  5  6  1  6  0  0  0
  5  7  1  0  0  0  0
  7  8  1  6  0  0  0
  7  9  1  0  0  0  0
  9 27  1  0  0  0  0
 10 11  1  0  0  0  0
 11 12  2  0  0  0  0
 11 13  1  0  0  0  0
 13 14  1  0  0  0  0
 14 16  2  0  0  0  0
 15 14  1  1  0  0  0
 15 18  1  0  0  0  0
 15 26  1  0  0  0  0
 17 19  1  1  0  0  0
 17 25  1  0  0  0  0
 17 18  1  0  0  0  0
 19 20  1  0  0  0  0
 20 21  1  6  0  0  0
 20 22  1  0  0  0  0
 22 23  1  6  0  0  0
 22 24  1  0  0  0  0
 23 28  1  0  0  0  0
 23 29  1  0  0  0  0
 25 24  1  6  0  0  0
 25 27  1  0  0  0  0
 26 10  1  6  0  0  0
 26 27  1  0  0  0  0
M  END
>  <CHROM.1>
62.00224251,-50.97973883,-53.02036191,98.49453135,75.25172405,-83.94145031
27.75098702,36.69155026,20.15810480,-1.71662129,-1.38743338,3.09113230

>  <Name>
ligand

>  <RI>
0

>  <Rbt.Current_Directory>
/home/itssahil/PROJECTS/Mol_Feturizer/New_Systems/rnas/3F4H

>  <Rbt.Executable>
rbdock ($Id: //depot/dev/client3/rdock/2013.1/src/exe/rbdock.cxx#4 $)

>  <Rbt.Library>
libRbt.so (2013.1, Build901 2013/11/27)

>  <Rbt.Parameter_File>
/export/apps/rDock/src/rDock_2013.1_src/data/scripts/dock_solv.prm

>  <Rbt.Receptor>
prm/pocket_docking_5.prm

>  <SCORE>
-45.8497

>  <SCORE.INTER>
-30.5336

>  <SCORE.INTER.CONST>
1

>  <SCORE.INTER.POLAR>
0

>  <SCORE.INTER.ROT>
6

>  <SCORE.INTER.SOLV>
11.115

>  <SCORE.INTER.VDW>
-31.6607

>  <SCORE.INTER.norm>
-1.05288

>  <SCORE.INTRA>
-15.3161

>  <SCORE.INTRA.DIHEDRAL>
-0.515866

>  <SCORE.INTRA.DIHEDRAL.0>
6.83446

>  <SCORE.INTRA.POLAR>
0

>  <SCORE.INTRA.POLAR.0>
0

>  <SCORE.INTRA.REPUL>
0

>  <SCORE.INTRA.REPUL.0>
0

>  <SCORE.INTRA.SOLV>
-0.0150156

>  <SCORE.INTRA.SOLV.lig_0>
-26.4601

>  <SCORE.INTRA.VDW>
-15.0506

>  <SCORE.INTRA.VDW.0>
13.7853

>  <SCORE.INTRA.norm>
-0.52814

>  <SCORE.RESTR>
0

>  <SCORE.RESTR.CAVITY>
0

>  <SCORE.RESTR.norm>
0

>  <SCORE.SYSTEM>
0

>  <SCORE.SYSTEM.CONST>
0

>  <SCORE.SYSTEM.DIHEDRAL>
0

>  <SCORE.SYSTEM.SOLV>
0

>  <SCORE.SYSTEM.norm>
0

>  <SCORE.heavy>
29

>  <SCORE.norm>
-1.58102

>  <RMSD>
1.374

$$$$
ligand
 OpenBabel11021811473D
libRbt.so/2013.1/901 2013/11/27
 29 31  0  0  0  0  0  0  0  0999 V2000
   29.4962   39.8498   15.7111 C   0  0  0  0  0  0  0  0  0  0  0  0
   28.5502   40.8895   15.4413 O   0  0  0  0  0  0  0  0  0  0  0  0
   28.7546   38.6011   16.1682 C   0  0  1  0  0  0  0  0  0  0  0  0
   29.7085   37.5737   16.4189 O   0  0  0  0  0  0  0  0  0  0  0  0
   27.9450   38.8895   17.4258 C   0  0  1  0  0  0  0  0  0  0  0  0
   26.7979   39.6308   17.0266 O   0  0  0  0  0  0  0  0  0  0  0  0
   27.5189   37.6510   18.2197 C   0  0  1  0  0  0  0  0  0  0  0  0
   26.9877   36.6896   17.3069 O   0  0  0  0  0  0  0  0  0  0  0  0
   28.6658   36.9954   18.9862 C   0  0  0  0  0  0  0  0  0  0  0  0
   28.4896   34.2616   18.3029 N   0  0  0  0  0  0  0  0  0  0  0  0
   28.4231   32.9489   17.9417 C   0  0  0  0  0  0  0  0  0  0  0  0
   28.7864   32.5857   16.7952 O   0  0  0  0  0  0  0  0  0  0  0  0
   27.9582   32.0199   18.8150 N   0  0  0  0  0  0  0  0  0  0  0  0
   27.5525   32.3758   20.0598 C   0  0  0  0  0  0  0  0  0  0  0  0
   27.6159   33.7108   20.4426 C   0  0  1  0  0  0  0  0  0  0  0  0
   27.1211   31.5127   20.8639 O   0  0  0  0  0  0  0  0  0  0  0  0
   27.2829   35.3699   22.0526 C   0  0  1  0  0  0  0  0  0  0  0  0
   27.2192   34.0747   21.6814 N   0  0  0  0  0  0  0  0  0  0  0  0
   26.8720   35.7357   23.3296 C   0  0  0  0  0  0  0  0  0  0  0  0
   26.9280   37.0623   23.7425 C   0  0  2  0  0  0  0  0  0  0  0  0
   26.4657   37.3887   25.1393 C   0  0  0  0  0  0  0  0  0  0  0  0
   27.4041   38.0436   22.8637 C   0  0  2  0  0  0  0  0  0  0  0  0
   27.4878   39.3663   23.1992 N   0  0  0  0  0  0  0  0  0  0  0  0
   27.8131   37.6603   21.5806 C   0  0  0  0  0  0  0  0  0  0  0  0
   27.7575   36.3313   21.1618 C   0  0  2  0  0  0  0  0  0  0  0  0
   28.0961   34.6689   19.5443 C   0  0  2  0  0  0  0  0  0  0  0  0
   28.1522   35.9730   19.9185 N   0  0  0  0  0  0  0  0  0  0  0  0
   26.5038   40.3015   22.6879 C   0  0  0  0  0  0  0  0  0  0  0  0
   28.5325   39.8909   24.0631 C   0  0  0  0  0  0  0  0  0  0  0  0
  1  2  1  0  0  0  0
  3  1  1  1  0  0  0
  3  4  1  0  0  0  0
  3  5  1  0  0  0  0
  5  6  1  6  0  0  0
  5  7  1  0  0  0  0
  7  8  1  6  0  0  0
  7  9  1  0  0  0  0
  9 27  1  0  0  0  0
 10 11  1  0  0  0  0
 11 12  2  0  0  0  0
 11 13  1  0  0  0  0
 13 14  1  0  0  0  0
 14 16  2  0  0  0  0
 15 14  1  1  0  0  0
 15 18  1  0  0  0  0
 15 26  1  0  0  0  0
 17 19  1  1  0  0  0
 17 25  1  0  0  0  0
 17 18  1  0  0  0  0
 19 20  1  0  0  0  0
 20 21  1  6  0  0  0
 20 22  1  0  0  0  0
 22 23  1  6  0  0  0
 22 24  1  0  0  0  0
 23 28  1  0  0  0  0
 23 29  1  0  0  0  0
 25 24  1  6  0  0  0
 25 27  1  0  0  0  0
 26 10  1  6  0  0  0
 26 27  1  0  0  0  0
M  END
>  <CHROM.1>
179.41892327,75.58447626,-46.54216363,169.49116630,-103.68046378,-86.63375518
27.83440136,36.54632761,19.79686182,0.23205067,1.37562134,0.05153876

>  <Name>
ligand

>  <RI>
0

>  <Rbt.Current_Directory>
/home/itssahil/PROJECTS/Mol_Feturizer/New_Systems/rnas/3F4H

>  <Rbt.Executable>
rbdock ($Id: //depot/dev/client3/rdock/2013.1/src/exe/rbdock.cxx#4 $)

>  <Rbt.Library>
libRbt.so (2013.1, Build901 2013/11/27)

>  <Rbt.Parameter_File>
/export/apps/rDock/src/rDock_2013.1_src/data/scripts/dock_solv.prm

>  <Rbt.Receptor>
prm/pocket_docking_5.prm

>  <SCORE>
-47.9534

>  <SCORE.INTER>
-31.4021

>  <SCORE.INTER.CONST>
1

>  <SCORE.INTER.POLAR>
0

>  <SCORE.INTER.ROT>
6

>  <SCORE.INTER.SOLV>
11.1477

>  <SCORE.INTER.VDW>
-32.2507

>  <SCORE.INTER.norm>
-1.08283

>  <SCORE.INTRA>
-16.5513

>  <SCORE.INTRA.DIHEDRAL>
-2.89654

>  <SCORE.INTRA.DIHEDRAL.0>
6.83446

>  <SCORE.INTRA.POLAR>
0

>  <SCORE.INTRA.POLAR.0>
0

>  <SCORE.INTRA.REPUL>
0

>  <SCORE.INTRA.REPUL.0>
0

>  <SCORE.INTRA.SOLV>
0.221201

>  <SCORE.INTRA.SOLV.lig_0>
-26.4601

>  <SCORE.INTRA.VDW>
-15.2136

>  <SCORE.INTRA.VDW.0>
13.7853

>  <SCORE.INTRA.norm>
-0.570735

>  <SCORE.RESTR>
0

>  <SCORE.RESTR.CAVITY>
0

>  <SCORE.RESTR.norm>
0

>  <SCORE.SYSTEM>
0

>  <SCORE.SYSTEM.CONST>
0

>  <SCORE.SYSTEM.DIHEDRAL>
0

>  <SCORE.SYSTEM.SOLV>
0

>  <SCORE.SYSTEM.norm>
0

>  <SCORE.heavy>
29

>  <SCORE.norm>
-1.65357

>  <RMSD>
1.374

$$$$
ligand
 OpenBabel11021811473D
libRbt.so/2013.1/901 2013/11/27
 29 31  0  0  0  0  0  0  0  0999 V2000
   29.4605   40.3713   16.2332 C   0  0  0  0  0  0  0  0  0  0  0  0
   30.0384   40.3001   14.9256 O   0  0  0  0  0  0  0  0  0  0  0  0
   28.8787   39.0132   16.6008 C   0  0  1  0  0  0  0  0  0  0  0  0
   29.9383   38.0624   16.6420 O   0  0  0  0  0  0  0  0  0  0  0  0
   28.1750   39.0796   17.9501 C   0  0  1  0  0  0  0  0  0  0  0  0
   27.1029   40.0061   17.8200 O   0  0  0  0  0  0  0  0  0  0  0  0
   27.6495   37.7394   18.4728 C   0  0  1  0  0  0  0  0  0  0  0  0
   26.9291   37.0951   17.4214 O   0  0  0  0  0  0  0  0  0  0  0  0
   28.7538   36.7937   18.9410 C   0  0  0  0  0  0  0  0  0  0  0  0
   28.5626   34.0492   18.3067 N   0  0  0  0  0  0  0  0  0  0  0  0
   28.4893   32.7306   17.9692 C   0  0  0  0  0  0  0  0  0  0  0  0
   28.8655   32.3426   16.8350 O   0  0  0  0  0  0  0  0  0  0  0  0
   28.0039   31.8223   18.8530 N   0  0  0  0  0  0  0  0  0  0  0  0
   27.5838   32.2051   20.0850 C   0  0  0  0  0  0  0  0  0  0  0  0
   27.6539   33.5465   20.4436 C   0  0  1  0  0  0  0  0  0  0  0  0
   27.1333   31.3612   20.8988 O   0  0  0  0  0  0  0  0  0  0  0  0
   27.3131   35.2385   22.0173 C   0  0  1  0  0  0  0  0  0  0  0  0
   27.2430   33.9372   21.6696 N   0  0  0  0  0  0  0  0  0  0  0  0
   26.8875   35.6319   23.2812 C   0  0  0  0  0  0  0  0  0  0  0  0
   26.9497   36.9655   23.6700 C   0  0  2  0  0  0  0  0  0  0  0  0
   26.4706   37.3222   25.0537 C   0  0  0  0  0  0  0  0  0  0  0  0
   27.4469   37.9258   22.7798 C   0  0  2  0  0  0  0  0  0  0  0  0
   27.5378   39.2539   23.0917 N   0  0  0  0  0  0  0  0  0  0  0  0
   27.8706   37.5148   21.5101 C   0  0  0  0  0  0  0  0  0  0  0  0
   27.8089   36.1787   21.1155 C   0  0  2  0  0  0  0  0  0  0  0  0
   28.1552   34.4833   19.5345 C   0  0  2  0  0  0  0  0  0  0  0  0
   28.2179   35.7937   19.8849 N   0  0  0  0  0  0  0  0  0  0  0  0
   28.5999   39.7165   23.9647 C   0  0  0  0  0  0  0  0  0  0  0  0
   26.6065   40.2448   22.5782 C   0  0  0  0  0  0  0  0  0  0  0  0
  1  2  1  0  0  0  0
  3  1  1  1  0  0  0
  3  4  1  0  0  0  0
  3  5  1  0  0  0  0
  5  6  1  6  0  0  0
  5  7  1  0  0  0  0
  7  8  1  6  0  0  0
  7  9  1  0  0  0  0
  9 27  1  0  0  0  0
 10 11  1  0  0  0  0
 11 12  2  0  0  0  0
 11 13  1  0  0  0  0
 13 14  1  0  0  0  0
 14 16  2  0  0  0  0
 15 14  1  1  0  0  0
 15 18  1  0  0  0  0
 15 26  1  0  0  0  0
 17 19  1  1  0  0  0
 17 25  1  0  0  0  0
 17 18  1  0  0  0  0
 19 20  1  0  0  0  0
 20 21  1  6  0  0  0
 20 22  1  0  0  0  0
 22 23  1  6  0  0  0
 22 24  1  0  0  0  0
 23 28  1  0  0  0  0
 23 29  1  0  0  0  0
 25 24  1  6  0  0  0
 25 27  1  0  0  0  0
 26 10  1  6  0  0  0
 26 27  1  0  0  0  0
M  END
>  <CHROM.1>
62.56196518,62.07614857,-48.23351309,157.91237798,76.18958551,-68.89231922
27.96281134,36.50605895,19.85649151,-0.77509412,-1.31244119,-2.96580535

>  <Name>
ligand

>  <RI>
0

>  <Rbt.Current_Directory>
/home/itssahil/PROJECTS/Mol_Feturizer/New_Systems/rnas/3F4H

>  <Rbt.Executable>
rbdock ($Id: //depot/dev/client3/rdock/2013.1/src/exe/rbdock.cxx#4 $)

>  <Rbt.Library>
libRbt.so (2013.1, Build901 2013/11/27)

>  <Rbt.Parameter_File>
/export/apps/rDock/src/rDock_2013.1_src/data/scripts/dock_solv.prm

>  <Rbt.Receptor>
prm/pocket_docking_5.prm

>  <SCORE>
-48.1303

>  <SCORE.INTER>
-31.5269

>  <SCORE.INTER.CONST>
1

>  <SCORE.INTER.POLAR>
0

>  <SCORE.INTER.ROT>
6

>  <SCORE.INTER.SOLV>
11.969

>  <SCORE.INTER.VDW>
-32.6076

>  <SCORE.INTER.norm>
-1.08714

>  <SCORE.INTRA>
-16.6034

>  <SCORE.INTRA.DIHEDRAL>
-2.68632

>  <SCORE.INTRA.DIHEDRAL.0>
6.83446

>  <SCORE.INTRA.POLAR>
0

>  <SCORE.INTRA.POLAR.0>
0

>  <SCORE.INTRA.REPUL>
0

>  <SCORE.INTRA.REPUL.0>
0

>  <SCORE.INTRA.SOLV>
-0.276769

>  <SCORE.INTRA.SOLV.lig_0>
-26.4601

>  <SCORE.INTRA.VDW>
-15.1219

>  <SCORE.INTRA.VDW.0>
13.7853

>  <SCORE.INTRA.norm>
-0.572531

>  <SCORE.RESTR>
0

>  <SCORE.RESTR.CAVITY>
0

>  <SCORE.RESTR.norm>
0

>  <SCORE.SYSTEM>
0

>  <SCORE.SYSTEM.CONST>
0

>  <SCORE.SYSTEM.DIHEDRAL>
0

>  <SCORE.SYSTEM.SOLV>
0

>  <SCORE.SYSTEM.norm>
0

>  <SCORE.heavy>
29

>  <SCORE.norm>
-1.65967

>  <RMSD>
1.374

$$$$
ligand
 OpenBabel11021811473D
libRbt.so/2013.1/901 2013/11/27
 29 31  0  0  0  0  0  0  0  0999 V2000
   27.5380   40.8390   16.0800 C   0  0  0  0  0  0  0  0  0  0  0  0
   28.8498   40.7497   15.5142 O   0  0  0  0  0  0  0  0  0  0  0  0
   27.0993   39.4599   16.5531 C   0  0  1  0  0  0  0  0  0  0  0  0
   27.0406   38.5915   15.4257 O   0  0  0  0  0  0  0  0  0  0  0  0
   28.0728   38.9149   17.5902 C   0  0  1  0  0  0  0  0  0  0  0  0
   28.0932   39.8376   18.6733 O   0  0  0  0  0  0  0  0  0  0  0  0
   27.7504   37.5090   18.1049 C   0  0  1  0  0  0  0  0  0  0  0  0
   27.6224   36.6350   16.9827 O   0  0  0  0  0  0  0  0  0  0  0  0
   28.8230   36.9392   19.0310 C   0  0  0  0  0  0  0  0  0  0  0  0
   28.5968   34.2034   18.3711 N   0  0  0  0  0  0  0  0  0  0  0  0
   28.5077   32.8888   18.0219 C   0  0  0  0  0  0  0  0  0  0  0  0
   28.9086   32.5013   16.8960 O   0  0  0  0  0  0  0  0  0  0  0  0
   27.9796   31.9841   18.8848 N   0  0  0  0  0  0  0  0  0  0  0  0
   27.5320   32.3667   20.1072 C   0  0  0  0  0  0  0  0  0  0  0  0
   27.6178   33.7039   20.4775 C   0  0  1  0  0  0  0  0  0  0  0  0
   27.0421   31.5262   20.9015 O   0  0  0  0  0  0  0  0  0  0  0  0
   27.2651   35.3914   22.0534 C   0  0  1  0  0  0  0  0  0  0  0  0
   27.1797   34.0942   21.6942 N   0  0  0  0  0  0  0  0  0  0  0  0
   26.8112   35.7844   23.3076 C   0  0  0  0  0  0  0  0  0  0  0  0
   26.8881   37.1139   23.7078 C   0  0  2  0  0  0  0  0  0  0  0  0
   26.3766   37.4704   25.0800 C   0  0  0  0  0  0  0  0  0  0  0  0
   27.4291   38.0704   22.8393 C   0  0  2  0  0  0  0  0  0  0  0  0
   27.5368   39.3942   23.1635 N   0  0  0  0  0  0  0  0  0  0  0  0
   27.8808   37.6599   21.5792 C   0  0  0  0  0  0  0  0  0  0  0  0
   27.8045   36.3280   21.1731 C   0  0  2  0  0  0  0  0  0  0  0  0
   28.1630   34.6369   19.5900 C   0  0  2  0  0  0  0  0  0  0  0  0
   28.2410   35.9434   19.9518 N   0  0  0  0  0  0  0  0  0  0  0  0
   28.5902   39.8317   24.0597 C   0  0  0  0  0  0  0  0  0  0  0  0
   26.6322   40.4049   22.6409 C   0  0  0  0  0  0  0  0  0  0  0  0
  1  2  1  0  0  0  0
  3  1  1  6  0  0  0
  3  4  1  0  0  0  0
  3  5  1  0  0  0  0
  5  6  1  1  0  0  0
  5  7  1  0  0  0  0
  7  8  1  6  0  0  0
  7  9  1  0  0  0  0
  9 27  1  0  0  0  0
 10 11  1  0  0  0  0
 11 12  2  0  0  0  0
 11 13  1  0  0  0  0
 13 14  1  0  0  0  0
 14 16  2  0  0  0  0
 15 14  1  1  0  0  0
 15 18  1  0  0  0  0
 15 26  1  0  0  0  0
 17 19  1  1  0  0  0
 17 25  1  0  0  0  0
 17 18  1  0  0  0  0
 19 20  1  0  0  0  0
 20 21  1  6  0  0  0
 20 22  1  0  0  0  0
 22 23  1  6  0  0  0
 22 24  1  0  0  0  0
 23 28  1  0  0  0  0
 23 29  1  0  0  0  0
 25 24  1  6  0  0  0
 25 27  1  0  0  0  0
 26 10  1  6  0  0  0
 26 27  1  0  0  0  0
M  END
>  <CHROM.1>
-62.13124299,59.13920521,53.84651732,154.02072043,76.78101975,-92.73455096
27.72904511,36.64513979,19.85257430,-1.27420051,-1.44749343,2.91060389

>  <Name>
ligand

>  <RI>
0

>  <Rbt.Current_Directory>
/home/itssahil/PROJECTS/Mol_Feturizer/New_Systems/rnas/3F4H

>  <Rbt.Executable>
rbdock ($Id: //depot/dev/client3/rdock/2013.1/src/exe/rbdock.cxx#4 $)

>  <Rbt.Library>
libRbt.so (2013.1, Build901 2013/11/27)

>  <Rbt.Parameter_File>
/export/apps/rDock/src/rDock_2013.1_src/data/scripts/dock_solv.prm

>  <Rbt.Receptor>
prm/blind_docking_60.prm

>  <SCORE>
-47.6849

>  <SCORE.INTER>
-31.0686

>  <SCORE.INTER.CONST>
1

>  <SCORE.INTER.POLAR>
0

>  <SCORE.INTER.ROT>
6

>  <SCORE.INTER.SOLV>
12.1937

>  <SCORE.INTER.VDW>
-32.377

>  <SCORE.INTER.norm>
-1.07133

>  <SCORE.INTRA>
-16.6162

>  <SCORE.INTRA.DIHEDRAL>
-2.518

>  <SCORE.INTRA.DIHEDRAL.0>
6.83446

>  <SCORE.INTRA.POLAR>
0

>  <SCORE.INTRA.POLAR.0>
0

>  <SCORE.INTRA.REPUL>
0

>  <SCORE.INTRA.REPUL.0>
0

>  <SCORE.INTRA.SOLV>
0.134983

>  <SCORE.INTRA.SOLV.lig_0>
-26.4601

>  <SCORE.INTRA.VDW>
-15.4247

>  <SCORE.INTRA.VDW.0>
13.7853

>  <SCORE.INTRA.norm>
-0.572974

>  <SCORE.RESTR>
0

>  <SCORE.RESTR.CAVITY>
0

>  <SCORE.RESTR.norm>
0

>  <SCORE.SYSTEM>
0

>  <SCORE.SYSTEM.CONST>
0

>  <SCORE.SYSTEM.DIHEDRAL>
0

>  <SCORE.SYSTEM.SOLV>
0

>  <SCORE.SYSTEM.norm>
0

>  <SCORE.heavy>
29

>  <SCORE.norm>
-1.64431

>  <RMSD>
1.376

$$$$
ligand
 OpenBabel11021811473D
libRbt.so/2013.1/901 2013/11/27
 29 31  0  0  0  0  0  0  0  0999 V2000
   30.3061   38.8271   17.1039 C   0  0  0  0  0  0  0  0  0  0  0  0
   31.1836   39.9541   17.0104 O   0  0  0  0  0  0  0  0  0  0  0  0
   28.8672   39.2944   16.9330 C   0  0  1  0  0  0  0  0  0  0  0  0
   28.7987   40.1425   15.7909 O   0  0  0  0  0  0  0  0  0  0  0  0
   27.9338   38.1025   16.7635 C   0  0  1  0  0  0  0  0  0  0  0  0
   28.5863   37.1768   15.9022 O   0  0  0  0  0  0  0  0  0  0  0  0
   27.5262   37.4090   18.0667 C   0  0  1  0  0  0  0  0  0  0  0  0
   26.5470   36.4149   17.7627 O   0  0  0  0  0  0  0  0  0  0  0  0
   28.6901   36.7262   18.7823 C   0  0  0  0  0  0  0  0  0  0  0  0
   28.5349   33.9647   18.2156 N   0  0  0  0  0  0  0  0  0  0  0  0
   28.4781   32.6374   17.9103 C   0  0  0  0  0  0  0  0  0  0  0  0
   28.8363   32.2298   16.7771 O   0  0  0  0  0  0  0  0  0  0  0  0
   28.0288   31.7416   18.8254 N   0  0  0  0  0  0  0  0  0  0  0  0
   27.6290   32.1457   20.0574 C   0  0  0  0  0  0  0  0  0  0  0  0
   27.6826   33.4961   20.3833 C   0  0  1  0  0  0  0  0  0  0  0  0
   27.2119   31.3132   20.9002 O   0  0  0  0  0  0  0  0  0  0  0  0
   27.3459   35.2181   21.9250 C   0  0  1  0  0  0  0  0  0  0  0  0
   27.2918   33.9080   21.6089 N   0  0  0  0  0  0  0  0  0  0  0  0
   26.9410   35.6334   23.1888 C   0  0  0  0  0  0  0  0  0  0  0  0
   26.9875   36.9766   23.5453 C   0  0  2  0  0  0  0  0  0  0  0  0
   26.5326   37.3571   24.9308 C   0  0  0  0  0  0  0  0  0  0  0  0
   27.4476   37.9245   22.6224 C   0  0  2  0  0  0  0  0  0  0  0  0
   27.5212   39.2608   22.9015 N   0  0  0  0  0  0  0  0  0  0  0  0
   27.8506   37.4915   21.3533 C   0  0  0  0  0  0  0  0  0  0  0  0
   27.8045   36.1456   20.9910 C   0  0  2  0  0  0  0  0  0  0  0  0
   28.1468   34.4201   19.4419 C   0  0  2  0  0  0  0  0  0  0  0  0
   28.1933   35.7392   19.7607 N   0  0  0  0  0  0  0  0  0  0  0  0
   28.5315   39.7488   23.8210 C   0  0  0  0  0  0  0  0  0  0  0  0
   26.6216   40.2360   22.3076 C   0  0  0  0  0  0  0  0  0  0  0  0
  1  2  1  0  0  0  0
  3  1  1  6  0  0  0
  3  4  1  0  0  0  0
  3  5  1  0  0  0  0
  5  6  1  6  0  0  0
  5  7  1  0  0  0  0
  7  8  1  6  0  0  0
  7  9  1  0  0  0  0
  9 27  1  0  0  0  0
 10 11  1  0  0  0  0
 11 12  2  0  0  0  0
 11 13  1  0  0  0  0
 13 14  1  0  0  0  0
 14 16  2  0  0  0  0
 15 14  1  1  0  0  0
 15 18  1  0  0  0  0
 15 26  1  0  0  0  0
 17 19  1  1  0  0  0
 17 25  1  0  0  0  0
 17 18  1  0  0  0  0
 19 20  1  0  0  0  0
 20 21  1  6  0  0  0
 20 22  1  0  0  0  0
 22 23  1  6  0  0  0
 22 24  1  0  0  0  0
 23 28  1  0  0  0  0
 23 29  1  0  0  0  0
 25 24  1  6  0  0  0
 25 27  1  0  0  0  0
 26 10  1  6  0  0  0
 26 27  1  0  0  0  0
M  END
>  <CHROM.1>
48.15865356,-41.58551782,173.80333820,-161.94076510,71.49652035,-82.68505334
28.02964979,36.32167673,19.75691908,-1.06163410,-1.28672571,-2.77889975

>  <Name>
ligand

>  <RI>
0

>  <Rbt.Current_Directory>
/home/itssahil/PROJECTS/Mol_Feturizer/New_Systems/rnas/3F4H

>  <Rbt.Executable>
rbdock ($Id: //depot/dev/client3/rdock/2013.1/src/exe/rbdock.cxx#4 $)

>  <Rbt.Library>
libRbt.so (2013.1, Build901 2013/11/27)

>  <Rbt.Parameter_File>
/export/apps/rDock/src/rDock_2013.1_src/data/scripts/dock_solv.prm

>  <Rbt.Receptor>
prm/pocket_docking_7.prm

>  <SCORE>
-46.0834

>  <SCORE.INTER>
-31.1923

>  <SCORE.INTER.CONST>
1

>  <SCORE.INTER.POLAR>
0

>  <SCORE.INTER.ROT>
6

>  <SCORE.INTER.SOLV>
12.0692

>  <SCORE.INTER.VDW>
-32.4179

>  <SCORE.INTER.norm>
-1.0756

>  <SCORE.INTRA>
-14.8911

>  <SCORE.INTRA.DIHEDRAL>
-1.88254

>  <SCORE.INTRA.DIHEDRAL.0>
6.83446

>  <SCORE.INTRA.POLAR>
0

>  <SCORE.INTRA.POLAR.0>
0

>  <SCORE.INTRA.REPUL>
0

>  <SCORE.INTRA.REPUL.0>
0

>  <SCORE.INTRA.SOLV>
-0.390794

>  <SCORE.INTRA.SOLV.lig_0>
-26.4601

>  <SCORE.INTRA.VDW>
-13.7545

>  <SCORE.INTRA.VDW.0>
13.7853

>  <SCORE.INTRA.norm>
-0.513488

>  <SCORE.RESTR>
0

>  <SCORE.RESTR.CAVITY>
0

>  <SCORE.RESTR.norm>
0

>  <SCORE.SYSTEM>
0

>  <SCORE.SYSTEM.CONST>
0

>  <SCORE.SYSTEM.DIHEDRAL>
0

>  <SCORE.SYSTEM.SOLV>
0

>  <SCORE.SYSTEM.norm>
0

>  <SCORE.heavy>
29

>  <SCORE.norm>
-1.58908

>  <RMSD>
1.380

$$$$
ligand
 OpenBabel11021811473D
libRbt.so/2013.1/901 2013/11/27
 29 31  0  0  0  0  0  0  0  0999 V2000
   29.3077   40.0077   15.7650 C   0  0  0  0  0  0  0  0  0  0  0  0
   28.3596   41.0728   15.6397 O   0  0  0  0  0  0  0  0  0  0  0  0
   28.6028   38.7666   16.2950 C   0  0  1  0  0  0  0  0  0  0  0  0
   29.5467   37.7020   16.3593 O   0  0  0  0  0  0  0  0  0  0  0  0
   28.0124   39.0339   17.6735 C   0  0  1  0  0  0  0  0  0  0  0  0
   26.9303   39.9412   17.4986 O   0  0  0  0  0  0  0  0  0  0  0  0
   27.5359   37.7881   18.4263 C   0  0  1  0  0  0  0  0  0  0  0  0
   26.7595   36.9892   17.5326 O   0  0  0  0  0  0  0  0  0  0  0  0
   28.6779   36.9275   18.9627 C   0  0  0  0  0  0  0  0  0  0  0  0
   28.5252   34.1830   18.3180 N   0  0  0  0  0  0  0  0  0  0  0  0
   28.4701   32.8648   17.9754 C   0  0  0  0  0  0  0  0  0  0  0  0
   28.8412   32.4879   16.8358 O   0  0  0  0  0  0  0  0  0  0  0  0
   28.0084   31.9448   18.8600 N   0  0  0  0  0  0  0  0  0  0  0  0
   27.5944   32.3155   20.0978 C   0  0  0  0  0  0  0  0  0  0  0  0
   27.6462   33.6563   20.4616 C   0  0  1  0  0  0  0  0  0  0  0  0
   27.1659   31.4608   20.9122 O   0  0  0  0  0  0  0  0  0  0  0  0
   27.2937   35.3357   22.0461 C   0  0  1  0  0  0  0  0  0  0  0  0
   27.2413   34.0349   21.6933 N   0  0  0  0  0  0  0  0  0  0  0  0
   26.8743   35.7166   23.3160 C   0  0  0  0  0  0  0  0  0  0  0  0
   26.9186   37.0494   23.7101 C   0  0  2  0  0  0  0  0  0  0  0  0
   26.4477   37.3923   25.1000 C   0  0  0  0  0  0  0  0  0  0  0  0
   27.3913   38.0215   22.8193 C   0  0  2  0  0  0  0  0  0  0  0  0
   27.4636   39.3495   23.1361 N   0  0  0  0  0  0  0  0  0  0  0  0
   27.8088   37.6230   21.5436 C   0  0  0  0  0  0  0  0  0  0  0  0
   27.7650   36.2878   21.1437 C   0  0  2  0  0  0  0  0  0  0  0  0
   28.1231   34.6050   19.5517 C   0  0  2  0  0  0  0  0  0  0  0  0
   28.1679   35.9147   19.9074 N   0  0  0  0  0  0  0  0  0  0  0  0
   28.5261   39.8255   24.0016 C   0  0  0  0  0  0  0  0  0  0  0  0
   26.5118   40.3274   22.6355 C   0  0  0  0  0  0  0  0  0  0  0  0
  1  2  1  0  0  0  0
  3  1  1  1  0  0  0
  3  4  1  0  0  0  0
  3  5  1  0  0  0  0
  5  6  1  6  0  0  0
  5  7  1  0  0  0  0
  7  8  1  6  0  0  0
  7  9  1  0  0  0  0
  9 27  1  0  0  0  0
 10 11  1  0  0  0  0
 11 12  2  0  0  0  0
 11 13  1  0  0  0  0
 13 14  1  0  0  0  0
 14 16  2  0  0  0  0
 15 14  1  1  0  0  0
 15 18  1  0  0  0  0
 15 26  1  0  0  0  0
 17 19  1  1  0  0  0
 17 25  1  0  0  0  0
 17 18  1  0  0  0  0
 19 20  1  0  0  0  0
 20 21  1  6  0  0  0
 20 22  1  0  0  0  0
 22 23  1  6  0  0  0
 22 24  1  0  0  0  0
 23 28  1  0  0  0  0
 23 29  1  0  0  0  0
 25 24  1  6  0  0  0
 25 27  1  0  0  0  0
 26 10  1  6  0  0  0
 26 27  1  0  0  0  0
M  END
>  <CHROM.1>
177.54604390,69.42380456,-46.89007528,168.07288084,76.14042917,-73.29004466
27.81909029,36.57126648,19.84661071,-0.95559338,-1.37522734,3.10300706

>  <Name>
ligand

>  <RI>
0

>  <Rbt.Current_Directory>
/home/itssahil/PROJECTS/Mol_Feturizer/New_Systems/rnas/3F4H

>  <Rbt.Executable>
rbdock ($Id: //depot/dev/client3/rdock/2013.1/src/exe/rbdock.cxx#4 $)

>  <Rbt.Library>
libRbt.so (2013.1, Build901 2013/11/27)

>  <Rbt.Parameter_File>
/export/apps/rDock/src/rDock_2013.1_src/data/scripts/dock_solv.prm

>  <Rbt.Receptor>
prm/pocket_docking_3.prm

>  <SCORE>
-48.2189

>  <SCORE.INTER>
-31.6641

>  <SCORE.INTER.CONST>
1

>  <SCORE.INTER.POLAR>
0

>  <SCORE.INTER.ROT>
6

>  <SCORE.INTER.SOLV>
11.1206

>  <SCORE.INTER.VDW>
-32.4162

>  <SCORE.INTER.norm>
-1.09186

>  <SCORE.INTRA>
-16.5548

>  <SCORE.INTRA.DIHEDRAL>
-3.33775

>  <SCORE.INTRA.DIHEDRAL.0>
6.83446

>  <SCORE.INTRA.POLAR>
0

>  <SCORE.INTRA.POLAR.0>
0

>  <SCORE.INTRA.REPUL>
0

>  <SCORE.INTRA.REPUL.0>
0

>  <SCORE.INTRA.SOLV>
0.162133

>  <SCORE.INTRA.SOLV.lig_0>
-26.4601

>  <SCORE.INTRA.VDW>
-14.967

>  <SCORE.INTRA.VDW.0>
13.7853

>  <SCORE.INTRA.norm>
-0.570856

>  <SCORE.RESTR>
0

>  <SCORE.RESTR.CAVITY>
0

>  <SCORE.RESTR.norm>
0

>  <SCORE.SYSTEM>
0

>  <SCORE.SYSTEM.CONST>
0

>  <SCORE.SYSTEM.DIHEDRAL>
0

>  <SCORE.SYSTEM.SOLV>
0

>  <SCORE.SYSTEM.norm>
0

>  <SCORE.heavy>
29

>  <SCORE.norm>
-1.66272

>  <RMSD>
1.384

$$$$
ligand
 OpenBabel11021811473D
libRbt.so/2013.1/901 2013/11/27
 29 31  0  0  0  0  0  0  0  0999 V2000
   26.7434   40.1552   18.5818 C   0  0  0  0  0  0  0  0  0  0  0  0
   25.7250   40.3467   17.5944 O   0  0  0  0  0  0  0  0  0  0  0  0
   28.0461   39.7720   17.8931 C   0  0  1  0  0  0  0  0  0  0  0  0
   29.0625   39.6475   18.8830 O   0  0  0  0  0  0  0  0  0  0  0  0
   27.8846   38.4617   17.1332 C   0  0  1  0  0  0  0  0  0  0  0  0
   29.1119   38.2137   16.4572 O   0  0  0  0  0  0  0  0  0  0  0  0
   27.5085   37.2544   17.9973 C   0  0  1  0  0  0  0  0  0  0  0  0
   27.1023   36.1905   17.1354 O   0  0  0  0  0  0  0  0  0  0  0  0
   28.6565   36.7483   18.8682 C   0  0  0  0  0  0  0  0  0  0  0  0
   28.5071   33.9883   18.2923 N   0  0  0  0  0  0  0  0  0  0  0  0
   28.4529   32.6620   17.9824 C   0  0  0  0  0  0  0  0  0  0  0  0
   28.8046   32.2598   16.8453 O   0  0  0  0  0  0  0  0  0  0  0  0
   28.0132   31.7612   18.8973 N   0  0  0  0  0  0  0  0  0  0  0  0
   27.6207   32.1593   20.1336 C   0  0  0  0  0  0  0  0  0  0  0  0
   27.6718   33.5086   20.4642 C   0  0  1  0  0  0  0  0  0  0  0  0
   27.2125   31.3221   20.9762 O   0  0  0  0  0  0  0  0  0  0  0  0
   27.3399   35.2237   22.0146 C   0  0  1  0  0  0  0  0  0  0  0  0
   27.2882   33.9146   21.6941 N   0  0  0  0  0  0  0  0  0  0  0  0
   26.9425   35.6329   23.2828 C   0  0  0  0  0  0  0  0  0  0  0  0
   26.9867   36.9749   23.6440 C   0  0  2  0  0  0  0  0  0  0  0  0
   26.5402   37.3486   25.0341 C   0  0  0  0  0  0  0  0  0  0  0  0
   27.4369   37.9278   22.7214 C   0  0  2  0  0  0  0  0  0  0  0  0
   27.5077   39.2634   23.0050 N   0  0  0  0  0  0  0  0  0  0  0  0
   27.8325   37.5010   21.4479 C   0  0  0  0  0  0  0  0  0  0  0  0
   27.7886   36.1563   21.0809 C   0  0  2  0  0  0  0  0  0  0  0  0
   28.1261   34.4378   19.5230 C   0  0  2  0  0  0  0  0  0  0  0  0
   28.1702   35.7558   19.8464 N   0  0  0  0  0  0  0  0  0  0  0  0
   26.5538   40.1773   22.4056 C   0  0  0  0  0  0  0  0  0  0  0  0
   28.5089   39.8227   23.8980 C   0  0  0  0  0  0  0  0  0  0  0  0
  1  2  1  0  0  0  0
  3  1  1  1  0  0  0
  3  4  1  0  0  0  0
  3  5  1  0  0  0  0
  5  6  1  1  0  0  0
  5  7  1  0  0  0  0
  7  8  1  6  0  0  0
  7  9  1  0  0  0  0
  9 27  1  0  0  0  0
 10 11  1  0  0  0  0
 11 12  2  0  0  0  0
 11 13  1  0  0  0  0
 13 14  1  0  0  0  0
 14 16  2  0  0  0  0
 15 14  1  1  0  0  0
 15 18  1  0  0  0  0
 15 26  1  0  0  0  0
 17 19  1  1  0  0  0
 17 25  1  0  0  0  0
 17 18  1  0  0  0  0
 19 20  1  0  0  0  0
 20 21  1  6  0  0  0
 20 22  1  0  0  0  0
 22 23  1  6  0  0  0
 22 24  1  0  0  0  0
 23 28  1  0  0  0  0
 23 29  1  0  0  0  0
 25 24  1  6  0  0  0
 25 27  1  0  0  0  0
 26 10  1  6  0  0  0
 26 27  1  0  0  0  0
M  END
>  <CHROM.1>
177.27822806,176.64890046,167.15700729,169.67221761,-107.53448309,-92.41928050
27.69799074,36.42716249,20.05549863,-2.26060520,-1.42882229,2.75876034

>  <Name>
ligand

>  <RI>
0

>  <Rbt.Current_Directory>
/home/itssahil/PROJECTS/Mol_Feturizer/New_Systems/rnas/3F4H

>  <Rbt.Executable>
rbdock ($Id: //depot/dev/client3/rdock/2013.1/src/exe/rbdock.cxx#4 $)

>  <Rbt.Library>
libRbt.so (2013.1, Build901 2013/11/27)

>  <Rbt.Parameter_File>
/export/apps/rDock/src/rDock_2013.1_src/data/scripts/dock_solv.prm

>  <Rbt.Receptor>
prm/pocket_docking_3.prm

>  <SCORE>
-48.3055

>  <SCORE.INTER>
-30.645

>  <SCORE.INTER.CONST>
1

>  <SCORE.INTER.POLAR>
0

>  <SCORE.INTER.ROT>
6

>  <SCORE.INTER.SOLV>
10.5672

>  <SCORE.INTER.VDW>
-31.5524

>  <SCORE.INTER.norm>
-1.05673

>  <SCORE.INTRA>
-17.6604

>  <SCORE.INTRA.DIHEDRAL>
-3.72977

>  <SCORE.INTRA.DIHEDRAL.0>
6.83446

>  <SCORE.INTRA.POLAR>
0

>  <SCORE.INTRA.POLAR.0>
0

>  <SCORE.INTRA.REPUL>
0

>  <SCORE.INTRA.REPUL.0>
0

>  <SCORE.INTRA.SOLV>
-0.0754782

>  <SCORE.INTRA.SOLV.lig_0>
-26.4601

>  <SCORE.INTRA.VDW>
-15.7578

>  <SCORE.INTRA.VDW.0>
13.7853

>  <SCORE.INTRA.norm>
-0.608981

>  <SCORE.RESTR>
0

>  <SCORE.RESTR.CAVITY>
0

>  <SCORE.RESTR.norm>
0

>  <SCORE.SYSTEM>
0

>  <SCORE.SYSTEM.CONST>
0

>  <SCORE.SYSTEM.DIHEDRAL>
0

>  <SCORE.SYSTEM.SOLV>
0

>  <SCORE.SYSTEM.norm>
0

>  <SCORE.heavy>
29

>  <SCORE.norm>
-1.66571

>  <RMSD>
1.387

$$$$
ligand
 OpenBabel11021811473D
libRbt.so/2013.1/901 2013/11/27
 29 31  0  0  0  0  0  0  0  0999 V2000
   27.3414   39.9243   16.1062 C   0  0  0  0  0  0  0  0  0  0  0  0
   28.6412   40.1559   15.5530 O   0  0  0  0  0  0  0  0  0  0  0  0
   27.3930   40.1273   17.6142 C   0  0  1  0  0  0  0  0  0  0  0  0
   26.0792   39.9629   18.1389 O   0  0  0  0  0  0  0  0  0  0  0  0
   28.3477   39.1291   18.2564 C   0  0  1  0  0  0  0  0  0  0  0  0
   28.8162   39.7138   19.4661 O   0  0  0  0  0  0  0  0  0  0  0  0
   27.7473   37.7488   18.5392 C   0  0  1  0  0  0  0  0  0  0  0  0
   27.0789   37.2965   17.3609 O   0  0  0  0  0  0  0  0  0  0  0  0
   28.7880   36.7004   18.9272 C   0  0  0  0  0  0  0  0  0  0  0  0
   28.5653   33.9518   18.3217 N   0  0  0  0  0  0  0  0  0  0  0  0
   28.4775   32.6304   17.9986 C   0  0  0  0  0  0  0  0  0  0  0  0
   28.8726   32.2223   16.8779 O   0  0  0  0  0  0  0  0  0  0  0  0
   27.9573   31.7412   18.8821 N   0  0  0  0  0  0  0  0  0  0  0  0
   27.5161   32.1462   20.0996 C   0  0  0  0  0  0  0  0  0  0  0  0
   27.6005   33.4906   20.4434 C   0  0  1  0  0  0  0  0  0  0  0  0
   27.0334   31.3200   20.9130 O   0  0  0  0  0  0  0  0  0  0  0  0
   27.2529   35.2074   21.9885 C   0  0  1  0  0  0  0  0  0  0  0  0
   27.1689   33.9032   21.6550 N   0  0  0  0  0  0  0  0  0  0  0  0
   26.8056   35.6234   23.2377 C   0  0  0  0  0  0  0  0  0  0  0  0
   26.8814   36.9605   23.6117 C   0  0  2  0  0  0  0  0  0  0  0  0
   26.3774   37.3422   24.9798 C   0  0  0  0  0  0  0  0  0  0  0  0
   27.4145   37.9014   22.7215 C   0  0  2  0  0  0  0  0  0  0  0  0
   27.5205   39.2315   23.0193 N   0  0  0  0  0  0  0  0  0  0  0  0
   27.8595   37.4678   21.4667 C   0  0  0  0  0  0  0  0  0  0  0  0
   27.7844   36.1281   21.0870 C   0  0  2  0  0  0  0  0  0  0  0  0
   28.1378   34.4077   19.5347 C   0  0  2  0  0  0  0  0  0  0  0  0
   28.2144   35.7211   19.8706 N   0  0  0  0  0  0  0  0  0  0  0  0
   26.5886   40.1762   22.4331 C   0  0  0  0  0  0  0  0  0  0  0  0
   28.5385   39.7552   23.9150 C   0  0  0  0  0  0  0  0  0  0  0  0
  1  2  1  0  0  0  0
  3  1  1  6  0  0  0
  3  4  1  0  0  0  0
  3  5  1  0  0  0  0
  5  6  1  1  0  0  0
  5  7  1  0  0  0  0
  7  8  1  6  0  0  0
  7  9  1  0  0  0  0
  9 27  1  0  0  0  0
 10 11  1  0  0  0  0
 11 12  2  0  0  0  0
 11 13  1  0  0  0  0
 13 14  1  0  0  0  0
 14 16  2  0  0  0  0
 15 14  1  1  0  0  0
 15 18  1  0  0  0  0
 15 26  1  0  0  0  0
 17 19  1  1  0  0  0
 17 25  1  0  0  0  0
 17 18  1  0  0  0  0
 19 20  1  0  0  0  0
 20 21  1  6  0  0  0
 20 22  1  0  0  0  0
 22 23  1  6  0  0  0
 22 24  1  0  0  0  0
 23 28  1  0  0  0  0
 23 29  1  0  0  0  0
 25 24  1  6  0  0  0
 25 27  1  0  0  0  0
 26 10  1  6  0  0  0
 26 27  1  0  0  0  0
M  END
>  <CHROM.1>
176.96146381,154.04219526,48.69830778,147.99868143,-104.28942387,-62.79340725
27.68534304,36.56078835,20.02943996,-1.85195495,-1.42681791,2.88077270

>  <Name>
ligand

>  <RI>
0

>  <Rbt.Current_Directory>
/home/itssahil/PROJECTS/Mol_Feturizer/New_Systems/rnas/3F4H

>  <Rbt.Executable>
rbdock ($Id: //depot/dev/client3/rdock/2013.1/src/exe/rbdock.cxx#4 $)

>  <Rbt.Library>
libRbt.so (2013.1, Build901 2013/11/27)

>  <Rbt.Parameter_File>
/export/apps/rDock/src/rDock_2013.1_src/data/scripts/dock_solv.prm

>  <Rbt.Receptor>
prm/pocket_docking_3.prm

>  <SCORE>
-46.4127

>  <SCORE.INTER>
-31.3092

>  <SCORE.INTER.CONST>
1

>  <SCORE.INTER.POLAR>
0

>  <SCORE.INTER.ROT>
6

>  <SCORE.INTER.SOLV>
11.9229

>  <SCORE.INTER.VDW>
-32.4471

>  <SCORE.INTER.norm>
-1.07963

>  <SCORE.INTRA>
-15.1035

>  <SCORE.INTRA.DIHEDRAL>
0.724851

>  <SCORE.INTRA.DIHEDRAL.0>
6.83446

>  <SCORE.INTRA.POLAR>
0

>  <SCORE.INTRA.POLAR.0>
0

>  <SCORE.INTRA.REPUL>
0

>  <SCORE.INTRA.REPUL.0>
0

>  <SCORE.INTRA.SOLV>
0.38367

>  <SCORE.INTRA.SOLV.lig_0>
-26.4601

>  <SCORE.INTRA.VDW>
-15.6578

>  <SCORE.INTRA.VDW.0>
13.7853

>  <SCORE.INTRA.norm>
-0.52081

>  <SCORE.RESTR>
0

>  <SCORE.RESTR.CAVITY>
0

>  <SCORE.RESTR.norm>
0

>  <SCORE.SYSTEM>
0

>  <SCORE.SYSTEM.CONST>
0

>  <SCORE.SYSTEM.DIHEDRAL>
0

>  <SCORE.SYSTEM.SOLV>
0

>  <SCORE.SYSTEM.norm>
0

>  <SCORE.heavy>
29

>  <SCORE.norm>
-1.60044

>  <RMSD>
1.387

$$$$
ligand
 OpenBabel11021811473D
libRbt.so/2013.1/901 2013/11/27
 29 31  0  0  0  0  0  0  0  0999 V2000
   27.4786   39.8894   16.2348 C   0  0  0  0  0  0  0  0  0  0  0  0
   26.8049   39.9188   17.4975 O   0  0  0  0  0  0  0  0  0  0  0  0
   28.5980   38.8587   16.2858 C   0  0  1  0  0  0  0  0  0  0  0  0
   29.4661   39.1855   17.3666 O   0  0  0  0  0  0  0  0  0  0  0  0
   28.0281   37.4581   16.4701 C   0  0  1  0  0  0  0  0  0  0  0  0
   29.0561   36.5371   16.1243 O   0  0  0  0  0  0  0  0  0  0  0  0
   27.5017   37.1532   17.8756 C   0  0  1  0  0  0  0  0  0  0  0  0
   26.6313   36.0236   17.7972 O   0  0  0  0  0  0  0  0  0  0  0  0
   28.6049   36.8339   18.8825 C   0  0  0  0  0  0  0  0  0  0  0  0
   28.4919   34.0777   18.2810 N   0  0  0  0  0  0  0  0  0  0  0  0
   28.4548   32.7537   17.9586 C   0  0  0  0  0  0  0  0  0  0  0  0
   28.7995   32.3682   16.8136 O   0  0  0  0  0  0  0  0  0  0  0  0
   28.0399   31.8373   18.8696 N   0  0  0  0  0  0  0  0  0  0  0  0
   27.6555   32.2171   20.1141 C   0  0  0  0  0  0  0  0  0  0  0  0
   27.6894   33.5639   20.4575 C   0  0  1  0  0  0  0  0  0  0  0  0
   27.2702   31.3655   20.9530 O   0  0  0  0  0  0  0  0  0  0  0  0
   27.3487   35.2584   22.0284 C   0  0  1  0  0  0  0  0  0  0  0  0
   27.3137   33.9518   21.6956 N   0  0  0  0  0  0  0  0  0  0  0  0
   26.9597   35.6489   23.3050 C   0  0  0  0  0  0  0  0  0  0  0  0
   26.9872   36.9879   23.6790 C   0  0  2  0  0  0  0  0  0  0  0  0
   26.5510   37.3410   25.0777 C   0  0  0  0  0  0  0  0  0  0  0  0
   27.4118   37.9567   22.7608 C   0  0  2  0  0  0  0  0  0  0  0  0
   27.4650   39.2904   23.0568 N   0  0  0  0  0  0  0  0  0  0  0  0
   27.7992   37.5485   21.4787 C   0  0  0  0  0  0  0  0  0  0  0  0
   27.7720   36.2069   21.0989 C   0  0  2  0  0  0  0  0  0  0  0  0
   28.1182   34.5091   19.5204 C   0  0  2  0  0  0  0  0  0  0  0  0
   28.1455   35.8245   19.8562 N   0  0  0  0  0  0  0  0  0  0  0  0
   28.5667   39.8085   23.8456 C   0  0  0  0  0  0  0  0  0  0  0  0
   26.4542   40.2335   22.6078 C   0  0  0  0  0  0  0  0  0  0  0  0
  1  2  1  0  0  0  0
  3  1  1  1  0  0  0
  3  4  1  0  0  0  0
  3  5  1  0  0  0  0
  5  6  1  1  0  0  0
  5  7  1  0  0  0  0
  7  8  1  6  0  0  0
  7  9  1  0  0  0  0
  9 27  1  0  0  0  0
 10 11  1  0  0  0  0
 11 12  2  0  0  0  0
 11 13  1  0  0  0  0
 13 14  1  0  0  0  0
 14 16  2  0  0  0  0
 15 14  1  1  0  0  0
 15 18  1  0  0  0  0
 15 26  1  0  0  0  0
 17 19  1  1  0  0  0
 17 25  1  0  0  0  0
 17 18  1  0  0  0  0
 19 20  1  0  0  0  0
 20 21  1  6  0  0  0
 20 22  1  0  0  0  0
 22 23  1  6  0  0  0
 22 24  1  0  0  0  0
 23 28  1  0  0  0  0
 23 29  1  0  0  0  0
 25 24  1  6  0  0  0
 25 27  1  0  0  0  0
 26 10  1  6  0  0  0
 26 27  1  0  0  0  0
M  END
>  <CHROM.1>
-56.61655677,163.46276116,161.40043707,-145.59606263,78.18219509,-102.17496223
27.78280270,36.27703419,19.85274158,-0.60583128,1.40905694,-0.14367734

>  <Name>
ligand

>  <RI>
0

>  <Rbt.Current_Directory>
/home/itssahil/PROJECTS/Mol_Feturizer/New_Systems/rnas/3F4H

>  <Rbt.Executable>
rbdock ($Id: //depot/dev/client3/rdock/2013.1/src/exe/rbdock.cxx#4 $)

>  <Rbt.Library>
libRbt.so (2013.1, Build901 2013/11/27)

>  <Rbt.Parameter_File>
/export/apps/rDock/src/rDock_2013.1_src/data/scripts/dock_solv.prm

>  <Rbt.Receptor>
prm/pocket_docking_5.prm

>  <SCORE>
-45.4956

>  <SCORE.INTER>
-31.1673

>  <SCORE.INTER.CONST>
1

>  <SCORE.INTER.POLAR>
0

>  <SCORE.INTER.ROT>
6

>  <SCORE.INTER.SOLV>
10.7422

>  <SCORE.INTER.VDW>
-31.9589

>  <SCORE.INTER.norm>
-1.07473

>  <SCORE.INTRA>
-14.3283

>  <SCORE.INTRA.DIHEDRAL>
0.633978

>  <SCORE.INTRA.DIHEDRAL.0>
6.83446

>  <SCORE.INTRA.POLAR>
0

>  <SCORE.INTRA.POLAR.0>
0

>  <SCORE.INTRA.REPUL>
0

>  <SCORE.INTRA.REPUL.0>
0

>  <SCORE.INTRA.SOLV>
0.511847

>  <SCORE.INTRA.SOLV.lig_0>
-26.4601

>  <SCORE.INTRA.VDW>
-14.9012

>  <SCORE.INTRA.VDW.0>
13.7853

>  <SCORE.INTRA.norm>
-0.49408

>  <SCORE.RESTR>
0

>  <SCORE.RESTR.CAVITY>
0

>  <SCORE.RESTR.norm>
0

>  <SCORE.SYSTEM>
0

>  <SCORE.SYSTEM.CONST>
0

>  <SCORE.SYSTEM.DIHEDRAL>
0

>  <SCORE.SYSTEM.SOLV>
0

>  <SCORE.SYSTEM.norm>
0

>  <SCORE.heavy>
29

>  <SCORE.norm>
-1.56881

>  <RMSD>
1.387

$$$$
ligand
 OpenBabel11021811473D
libRbt.so/2013.1/901 2013/11/27
 29 31  0  0  0  0  0  0  0  0999 V2000
   26.8734   41.1162   16.5191 C   0  0  0  0  0  0  0  0  0  0  0  0
   28.1965   41.5324   16.1653 O   0  0  0  0  0  0  0  0  0  0  0  0
   26.8566   39.6065   16.7153 C   0  0  1  0  0  0  0  0  0  0  0  0
   27.2426   38.9862   15.4928 O   0  0  0  0  0  0  0  0  0  0  0  0
   27.8051   39.2017   17.8364 C   0  0  1  0  0  0  0  0  0  0  0  0
   27.2175   39.6301   19.0595 O   0  0  0  0  0  0  0  0  0  0  0  0
   28.1261   37.7057   17.9043 C   0  0  1  0  0  0  0  0  0  0  0  0
   28.8062   37.3343   16.7047 O   0  0  0  0  0  0  0  0  0  0  0  0
   29.0117   37.3267   19.0895 C   0  0  0  0  0  0  0  0  0  0  0  0
   28.7344   34.6767   18.1557 N   0  0  0  0  0  0  0  0  0  0  0  0
   28.6215   33.4060   17.6755 C   0  0  0  0  0  0  0  0  0  0  0  0
   29.0427   33.1205   16.5267 O   0  0  0  0  0  0  0  0  0  0  0  0
   28.0476   32.4356   18.4310 N   0  0  0  0  0  0  0  0  0  0  0  0
   27.5769   32.7080   19.6741 C   0  0  0  0  0  0  0  0  0  0  0  0
   27.6865   33.9992   20.1775 C   0  0  1  0  0  0  0  0  0  0  0  0
   27.0447   31.8071   20.3688 O   0  0  0  0  0  0  0  0  0  0  0  0
   27.3341   35.5321   21.9042 C   0  0  1  0  0  0  0  0  0  0  0  0
   27.2257   34.2795   21.4159 N   0  0  0  0  0  0  0  0  0  0  0  0
   26.8566   35.8118   23.1798 C   0  0  0  0  0  0  0  0  0  0  0  0
   26.9562   37.0926   23.7120 C   0  0  2  0  0  0  0  0  0  0  0  0
   26.4171   37.3261   25.0999 C   0  0  0  0  0  0  0  0  0  0  0  0
   27.5446   38.1147   22.9563 C   0  0  2  0  0  0  0  0  0  0  0  0
   27.6768   39.3966   23.4129 N   0  0  0  0  0  0  0  0  0  0  0  0
   28.0196   37.8182   21.6729 C   0  0  0  0  0  0  0  0  0  0  0  0
   27.9207   36.5355   21.1348 C   0  0  2  0  0  0  0  0  0  0  0  0
   28.2789   34.9997   19.4007 C   0  0  2  0  0  0  0  0  0  0  0  0
   28.3801   36.2614   19.8923 N   0  0  0  0  0  0  0  0  0  0  0  0
   28.5719   39.6769   24.5196 C   0  0  0  0  0  0  0  0  0  0  0  0
   26.9535   40.5146   22.8300 C   0  0  0  0  0  0  0  0  0  0  0  0
  1  2  1  0  0  0  0
  3  1  1  6  0  0  0
  3  4  1  0  0  0  0
  3  5  1  0  0  0  0
  5  6  1  1  0  0  0
  5  7  1  0  0  0  0
  7  8  1  6  0  0  0
  7  9  1  0  0  0  0
  9 27  1  0  0  0  0
 10 11  1  0  0  0  0
 11 12  2  0  0  0  0
 11 13  1  0  0  0  0
 13 14  1  0  0  0  0
 14 16  2  0  0  0  0
 15 14  1  1  0  0  0
 15 18  1  0  0  0  0
 15 26  1  0  0  0  0
 17 19  1  1  0  0  0
 17 25  1  0  0  0  0
 17 18  1  0  0  0  0
 19 20  1  0  0  0  0
 20 21  1  6  0  0  0
 20 22  1  0  0  0  0
 22 23  1  6  0  0  0
 22 24  1  0  0  0  0
 23 28  1  0  0  0  0
 23 29  1  0  0  0  0
 25 24  1  6  0  0  0
 25 27  1  0  0  0  0
 26 10  1  6  0  0  0
 26 27  1  0  0  0  0
M  END
>  <CHROM.1>
-60.45497104,71.28549240,63.29765010,125.53993775,67.27590224,-110.90752112
27.76628876,36.89799968,19.83116892,0.67189184,1.45182461,-0.52294719

>  <Name>
ligand

>  <RI>
0

>  <Rbt.Current_Directory>
/home/itssahil/PROJECTS/Mol_Feturizer/New_Systems/rnas/3F4H

>  <Rbt.Executable>
rbdock ($Id: //depot/dev/client3/rdock/2013.1/src/exe/rbdock.cxx#4 $)

>  <Rbt.Library>
libRbt.so (2013.1, Build901 2013/11/27)

>  <Rbt.Parameter_File>
/export/apps/rDock/src/rDock_2013.1_src/data/scripts/dock_solv.prm

>  <Rbt.Receptor>
prm/pocket_docking_2.prm

>  <SCORE>
-43.0671

>  <SCORE.INTER>
-28.5745

>  <SCORE.INTER.CONST>
1

>  <SCORE.INTER.POLAR>
0

>  <SCORE.INTER.ROT>
6

>  <SCORE.INTER.SOLV>
10.1856

>  <SCORE.INTER.VDW>
-30.0449

>  <SCORE.INTER.norm>
-0.985328

>  <SCORE.INTRA>
-14.4926

>  <SCORE.INTRA.DIHEDRAL>
0.876747

>  <SCORE.INTRA.DIHEDRAL.0>
6.83446

>  <SCORE.INTRA.POLAR>
0

>  <SCORE.INTRA.POLAR.0>
0

>  <SCORE.INTRA.REPUL>
0

>  <SCORE.INTRA.REPUL.0>
0

>  <SCORE.INTRA.SOLV>
0.162598

>  <SCORE.INTRA.SOLV.lig_0>
-26.4601

>  <SCORE.INTRA.VDW>
-15.0122

>  <SCORE.INTRA.VDW.0>
13.7853

>  <SCORE.INTRA.norm>
-0.499744

>  <SCORE.RESTR>
0

>  <SCORE.RESTR.CAVITY>
0

>  <SCORE.RESTR.norm>
0

>  <SCORE.SYSTEM>
0

>  <SCORE.SYSTEM.CONST>
0

>  <SCORE.SYSTEM.DIHEDRAL>
0

>  <SCORE.SYSTEM.SOLV>
0

>  <SCORE.SYSTEM.norm>
0

>  <SCORE.heavy>
29

>  <SCORE.norm>
-1.48507

>  <RMSD>
1.388

$$$$
ligand
 OpenBabel11021811473D
libRbt.so/2013.1/901 2013/11/27
 29 31  0  0  0  0  0  0  0  0999 V2000
   29.0901   40.1282   15.5663 C   0  0  0  0  0  0  0  0  0  0  0  0
   30.3592   40.7613   15.7595 O   0  0  0  0  0  0  0  0  0  0  0  0
   28.2452   40.3017   16.8209 C   0  0  1  0  0  0  0  0  0  0  0  0
   26.9425   39.7862   16.5649 O   0  0  0  0  0  0  0  0  0  0  0  0
   28.8800   39.5737   17.9988 C   0  0  1  0  0  0  0  0  0  0  0  0
   28.2532   40.0591   19.1804 O   0  0  0  0  0  0  0  0  0  0  0  0
   28.7839   38.0462   17.9436 C   0  0  1  0  0  0  0  0  0  0  0  0
   29.7306   37.5001   18.8629 O   0  0  0  0  0  0  0  0  0  0  0  0
   27.4016   37.5099   18.3105 C   0  0  0  0  0  0  0  0  0  0  0  0
   27.4478   34.8012   17.5157 N   0  0  0  0  0  0  0  0  0  0  0  0
   27.4723   33.5044   17.0965 C   0  0  0  0  0  0  0  0  0  0  0  0
   27.3848   33.2295   15.8737 O   0  0  0  0  0  0  0  0  0  0  0  0
   27.5861   32.4947   17.9963 N   0  0  0  0  0  0  0  0  0  0  0  0
   27.6780   32.7531   19.3250 C   0  0  0  0  0  0  0  0  0  0  0  0
   27.6556   34.0710   19.7670 C   0  0  1  0  0  0  0  0  0  0  0  0
   27.7810   31.8153   20.1541 O   0  0  0  0  0  0  0  0  0  0  0  0
   27.7318   35.6182   21.5152 C   0  0  1  0  0  0  0  0  0  0  0  0
   27.7516   34.3392   21.0874 N   0  0  0  0  0  0  0  0  0  0  0  0
   27.8306   35.8850   22.8763 C   0  0  0  0  0  0  0  0  0  0  0  0
   27.8157   37.1930   23.3480 C   0  0  2  0  0  0  0  0  0  0  0  0
   27.9255   37.4101   24.8353 C   0  0  0  0  0  0  0  0  0  0  0  0
   27.7004   38.2561   22.4433 C   0  0  2  0  0  0  0  0  0  0  0  0
   27.6787   39.5664   22.8330 N   0  0  0  0  0  0  0  0  0  0  0  0
   27.6004   37.9718   21.0759 C   0  0  0  0  0  0  0  0  0  0  0  0
   27.6137   36.6616   20.5985 C   0  0  2  0  0  0  0  0  0  0  0  0
   27.5399   35.1124   18.8410 C   0  0  2  0  0  0  0  0  0  0  0  0
   27.5131   36.3987   19.2754 N   0  0  0  0  0  0  0  0  0  0  0  0
   26.5201   40.0896   23.5319 C   0  0  0  0  0  0  0  0  0  0  0  0
   28.7826   40.4775   22.5799 C   0  0  0  0  0  0  0  0  0  0  0  0
  1  2  1  0  0  0  0
  3  1  1  6  0  0  0
  3  4  1  0  0  0  0
  3  5  1  0  0  0  0
  5  6  1  1  0  0  0
  5  7  1  0  0  0  0
  7  8  1  1  0  0  0
  7  9  1  0  0  0  0
  9 27  1  0  0  0  0
 10 11  1  0  0  0  0
 11 12  2  0  0  0  0
 11 13  1  0  0  0  0
 13 14  1  0  0  0  0
 14 16  2  0  0  0  0
 15 14  1  6  0  0  0
 15 18  1  0  0  0  0
 15 26  1  0  0  0  0
 17 19  1  6  0  0  0
 17 25  1  0  0  0  0
 17 18  1  0  0  0  0
 19 20  1  0  0  0  0
 20 21  1  1  0  0  0
 20 22  1  0  0  0  0
 22 23  1  1  0  0  0
 22 24  1  0  0  0  0
 23 28  1  0  0  0  0
 23 29  1  0  0  0  0
 25 24  1  1  0  0  0
 25 27  1  0  0  0  0
 26 10  1  1  0  0  0
 26 27  1  0  0  0  0
M  END
>  <CHROM.1>
174.22678104,164.96633574,163.19032190,-132.70661597,-70.63091324,84.57592788
27.97655953,37.01254803,19.57684115,-0.92562377,-1.40434024,-2.26842795

>  <Name>
ligand

>  <RI>
0

>  <Rbt.Current_Directory>
/home/itssahil/PROJECTS/Mol_Feturizer/New_Systems/rnas/3F4H

>  <Rbt.Executable>
rbdock ($Id: //depot/dev/client3/rdock/2013.1/src/exe/rbdock.cxx#4 $)

>  <Rbt.Library>
libRbt.so (2013.1, Build901 2013/11/27)

>  <Rbt.Parameter_File>
/export/apps/rDock/src/rDock_2013.1_src/data/scripts/dock_solv.prm

>  <Rbt.Receptor>
prm/pocket_docking_2.prm

>  <SCORE>
-35.2432

>  <SCORE.INTER>
-21.7209

>  <SCORE.INTER.CONST>
1

>  <SCORE.INTER.POLAR>
0

>  <SCORE.INTER.ROT>
6

>  <SCORE.INTER.SOLV>
9.7634

>  <SCORE.INTER.VDW>
-25.3351

>  <SCORE.INTER.norm>
-0.748996

>  <SCORE.INTRA>
-13.9197

>  <SCORE.INTRA.DIHEDRAL>
1.7641

>  <SCORE.INTRA.DIHEDRAL.0>
6.83446

>  <SCORE.INTRA.POLAR>
0

>  <SCORE.INTRA.POLAR.0>
0

>  <SCORE.INTRA.REPUL>
0

>  <SCORE.INTRA.REPUL.0>
0

>  <SCORE.INTRA.SOLV>
0.411834

>  <SCORE.INTRA.SOLV.lig_0>
-26.4601

>  <SCORE.INTRA.VDW>
-15.0076

>  <SCORE.INTRA.VDW.0>
13.7853

>  <SCORE.INTRA.norm>
-0.479988

>  <SCORE.RESTR>
0.397343

>  <SCORE.RESTR.CAVITY>
0.397343

>  <SCORE.RESTR.norm>
0.0137015

>  <SCORE.SYSTEM>
0

>  <SCORE.SYSTEM.CONST>
0

>  <SCORE.SYSTEM.DIHEDRAL>
0

>  <SCORE.SYSTEM.SOLV>
0

>  <SCORE.SYSTEM.norm>
0

>  <SCORE.heavy>
29

>  <SCORE.norm>
-1.21528

>  <RMSD>
1.389

$$$$
ligand
 OpenBabel11021811473D
libRbt.so/2013.1/901 2013/11/27
 29 31  0  0  0  0  0  0  0  0999 V2000
   29.3312   40.0503   15.8646 C   0  0  0  0  0  0  0  0  0  0  0  0
   28.3829   41.1170   15.7561 O   0  0  0  0  0  0  0  0  0  0  0  0
   28.6178   38.7883   16.3299 C   0  0  1  0  0  0  0  0  0  0  0  0
   29.5431   37.7061   16.2963 O   0  0  0  0  0  0  0  0  0  0  0  0
   28.0696   38.9719   17.7392 C   0  0  1  0  0  0  0  0  0  0  0  0
   27.0103   39.9184   17.6582 O   0  0  0  0  0  0  0  0  0  0  0  0
   27.5761   37.6888   18.4141 C   0  0  1  0  0  0  0  0  0  0  0  0
   26.7962   36.9529   17.4707 O   0  0  0  0  0  0  0  0  0  0  0  0
   28.7062   36.7854   18.9037 C   0  0  0  0  0  0  0  0  0  0  0  0
   28.5556   34.0314   18.3005 N   0  0  0  0  0  0  0  0  0  0  0  0
   28.5015   32.7082   17.9778 C   0  0  0  0  0  0  0  0  0  0  0  0
   28.8735   32.3143   16.8442 O   0  0  0  0  0  0  0  0  0  0  0  0
   28.0400   31.8014   18.8759 N   0  0  0  0  0  0  0  0  0  0  0  0
   27.6253   32.1904   20.1078 C   0  0  0  0  0  0  0  0  0  0  0  0
   27.6760   33.5365   20.4513 C   0  0  1  0  0  0  0  0  0  0  0  0
   27.1969   31.3478   20.9349 O   0  0  0  0  0  0  0  0  0  0  0  0
   27.3215   35.2394   22.0102 C   0  0  1  0  0  0  0  0  0  0  0  0
   27.2702   33.9334   21.6771 N   0  0  0  0  0  0  0  0  0  0  0  0
   26.9013   35.6392   23.2739 C   0  0  0  0  0  0  0  0  0  0  0  0
   26.9445   36.9778   23.6479 C   0  0  2  0  0  0  0  0  0  0  0  0
   26.4726   37.3414   25.0323 C   0  0  0  0  0  0  0  0  0  0  0  0
   27.4169   37.9367   22.7427 C   0  0  2  0  0  0  0  0  0  0  0  0
   27.4881   39.2694   23.0395 N   0  0  0  0  0  0  0  0  0  0  0  0
   27.8353   37.5193   21.4734 C   0  0  0  0  0  0  0  0  0  0  0  0
   27.7926   36.1781   21.0937 C   0  0  2  0  0  0  0  0  0  0  0  0
   28.1527   34.4718   19.5275 C   0  0  2  0  0  0  0  0  0  0  0  0
   28.1964   35.7867   19.8633 N   0  0  0  0  0  0  0  0  0  0  0  0
   28.5295   39.7541   23.9256 C   0  0  0  0  0  0  0  0  0  0  0  0
   26.5559   40.2438   22.4971 C   0  0  0  0  0  0  0  0  0  0  0  0
  1  2  1  0  0  0  0
  3  1  1  1  0  0  0
  3  4  1  0  0  0  0
  3  5  1  0  0  0  0
  5  6  1  6  0  0  0
  5  7  1  0  0  0  0
  7  8  1  6  0  0  0
  7  9  1  0  0  0  0
  9 27  1  0  0  0  0
 10 11  1  0  0  0  0
 11 12  2  0  0  0  0
 11 13  1  0  0  0  0
 13 14  1  0  0  0  0
 14 16  2  0  0  0  0
 15 14  1  1  0  0  0
 15 18  1  0  0  0  0
 15 26  1  0  0  0  0
 17 19  1  1  0  0  0
 17 25  1  0  0  0  0
 17 18  1  0  0  0  0
 19 20  1  0  0  0  0
 20 21  1  6  0  0  0
 20 22  1  0  0  0  0
 22 23  1  6  0  0  0
 22 24  1  0  0  0  0
 23 28  1  0  0  0  0
 23 29  1  0  0  0  0
 25 24  1  6  0  0  0
 25 27  1  0  0  0  0
 26 10  1  6  0  0  0
 26 27  1  0  0  0  0
M  END
>  <CHROM.1>
173.91536071,68.78008803,-44.75046399,163.81533396,74.56562050,-70.06882670
27.84890962,36.48973363,19.83119978,-1.21394860,-1.37020961,3.10330377

>  <Name>
ligand

>  <RI>
0

>  <Rbt.Current_Directory>
/home/itssahil/PROJECTS/Mol_Feturizer/New_Systems/rnas/3F4H

>  <Rbt.Executable>
rbdock ($Id: //depot/dev/client3/rdock/2013.1/src/exe/rbdock.cxx#4 $)

>  <Rbt.Library>
libRbt.so (2013.1, Build901 2013/11/27)

>  <Rbt.Parameter_File>
/export/apps/rDock/src/rDock_2013.1_src/data/scripts/dock_solv.prm

>  <Rbt.Receptor>
prm/blind_docking_100.prm

>  <SCORE>
-48.081

>  <SCORE.INTER>
-31.8038

>  <SCORE.INTER.CONST>
1

>  <SCORE.INTER.POLAR>
0

>  <SCORE.INTER.ROT>
6

>  <SCORE.INTER.SOLV>
11.2199

>  <SCORE.INTER.VDW>
-32.5425

>  <SCORE.INTER.norm>
-1.09668

>  <SCORE.INTRA>
-16.2772

>  <SCORE.INTRA.DIHEDRAL>
-2.67486

>  <SCORE.INTRA.DIHEDRAL.0>
6.83446

>  <SCORE.INTRA.POLAR>
0

>  <SCORE.INTRA.POLAR.0>
0

>  <SCORE.INTRA.REPUL>
0

>  <SCORE.INTRA.REPUL.0>
0

>  <SCORE.INTRA.SOLV>
0.120921

>  <SCORE.INTRA.SOLV.lig_0>
-26.4601

>  <SCORE.INTRA.VDW>
-15.0002

>  <SCORE.INTRA.VDW.0>
13.7853

>  <SCORE.INTRA.norm>
-0.561282

>  <SCORE.RESTR>
0

>  <SCORE.RESTR.CAVITY>
0

>  <SCORE.RESTR.norm>
0

>  <SCORE.SYSTEM>
0

>  <SCORE.SYSTEM.CONST>
0

>  <SCORE.SYSTEM.DIHEDRAL>
0

>  <SCORE.SYSTEM.SOLV>
0

>  <SCORE.SYSTEM.norm>
0

>  <SCORE.heavy>
29

>  <SCORE.norm>
-1.65796

>  <RMSD>
1.394

$$$$
ligand
 OpenBabel11021811473D
libRbt.so/2013.1/901 2013/11/27
 29 31  0  0  0  0  0  0  0  0999 V2000
   26.6360   40.0727   18.5246 C   0  0  0  0  0  0  0  0  0  0  0  0
   26.7595   41.3475   19.1637 O   0  0  0  0  0  0  0  0  0  0  0  0
   27.9404   39.7373   17.8147 C   0  0  1  0  0  0  0  0  0  0  0  0
   28.9749   39.6416   18.7888 O   0  0  0  0  0  0  0  0  0  0  0  0
   27.8118   38.4266   17.0493 C   0  0  1  0  0  0  0  0  0  0  0  0
   29.0428   38.2153   16.3675 O   0  0  0  0  0  0  0  0  0  0  0  0
   27.4721   37.2056   17.9091 C   0  0  1  0  0  0  0  0  0  0  0  0
   27.1199   36.1263   17.0426 O   0  0  0  0  0  0  0  0  0  0  0  0
   28.6275   36.7454   18.7957 C   0  0  0  0  0  0  0  0  0  0  0  0
   28.4869   33.9837   18.2258 N   0  0  0  0  0  0  0  0  0  0  0  0
   28.4364   32.6567   17.9185 C   0  0  0  0  0  0  0  0  0  0  0  0
   28.7727   32.2552   16.7765 O   0  0  0  0  0  0  0  0  0  0  0  0
   28.0169   31.7543   18.8413 N   0  0  0  0  0  0  0  0  0  0  0  0
   27.6413   32.1516   20.0831 C   0  0  0  0  0  0  0  0  0  0  0  0
   27.6889   33.5017   20.4111 C   0  0  1  0  0  0  0  0  0  0  0  0
   27.2518   31.3130   20.9331 O   0  0  0  0  0  0  0  0  0  0  0  0
   27.3702   35.2168   21.9644 C   0  0  1  0  0  0  0  0  0  0  0  0
   27.3220   33.9069   21.6463 N   0  0  0  0  0  0  0  0  0  0  0  0
   26.9901   35.6251   23.2381 C   0  0  0  0  0  0  0  0  0  0  0  0
   27.0314   36.9679   23.5968 C   0  0  2  0  0  0  0  0  0  0  0  0
   26.6044   37.3406   24.9933 C   0  0  0  0  0  0  0  0  0  0  0  0
   27.4609   37.9224   22.6661 C   0  0  2  0  0  0  0  0  0  0  0  0
   27.5275   39.2588   22.9468 N   0  0  0  0  0  0  0  0  0  0  0  0
   27.8392   37.4963   21.3870 C   0  0  0  0  0  0  0  0  0  0  0  0
   27.7982   36.1509   21.0225 C   0  0  2  0  0  0  0  0  0  0  0  0
   28.1223   34.4324   19.4618 C   0  0  2  0  0  0  0  0  0  0  0  0
   28.1629   35.7512   19.7827 N   0  0  0  0  0  0  0  0  0  0  0  0
   26.5811   40.1706   22.3325 C   0  0  0  0  0  0  0  0  0  0  0  0
   28.5168   39.8210   23.8512 C   0  0  0  0  0  0  0  0  0  0  0  0
  1  2  1  0  0  0  0
  3  1  1  1  0  0  0
  3  4  1  0  0  0  0
  3  5  1  0  0  0  0
  5  6  1  1  0  0  0
  5  7  1  0  0  0  0
  7  8  1  6  0  0  0
  7  9  1  0  0  0  0
  9 27  1  0  0  0  0
 10 11  1  0  0  0  0
 11 12  2  0  0  0  0
 11 13  1  0  0  0  0
 13 14  1  0  0  0  0
 14 16  2  0  0  0  0
 15 14  1  1  0  0  0
 15 18  1  0  0  0  0
 15 26  1  0  0  0  0
 17 19  1  1  0  0  0
 17 25  1  0  0  0  0
 17 18  1  0  0  0  0
 19 20  1  0  0  0  0
 20 21  1  6  0  0  0
 20 22  1  0  0  0  0
 22 23  1  6  0  0  0
 22 24  1  0  0  0  0
 23 28  1  0  0  0  0
 23 29  1  0  0  0  0
 25 24  1  6  0  0  0
 25 27  1  0  0  0  0
 26 10  1  6  0  0  0
 26 27  1  0  0  0  0
M  END
>  <CHROM.1>
62.48524687,177.37127452,168.40168760,168.73644646,-109.21713771,-94.45642615
27.73265680,36.45367373,20.05738298,-2.11099283,-1.41711132,2.92296162

>  <Name>
ligand

>  <RI>
0

>  <Rbt.Current_Directory>
/home/itssahil/PROJECTS/Mol_Feturizer/New_Systems/rnas/3F4H

>  <Rbt.Executable>
rbdock ($Id: //depot/dev/client3/rdock/2013.1/src/exe/rbdock.cxx#4 $)

>  <Rbt.Library>
libRbt.so (2013.1, Build901 2013/11/27)

>  <Rbt.Parameter_File>
/export/apps/rDock/src/rDock_2013.1_src/data/scripts/dock_solv.prm

>  <Rbt.Receptor>
prm/pocket_docking_7.prm

>  <SCORE>
-48.2314

>  <SCORE.INTER>
-30.5404

>  <SCORE.INTER.CONST>
1

>  <SCORE.INTER.POLAR>
0

>  <SCORE.INTER.ROT>
6

>  <SCORE.INTER.SOLV>
9.67986

>  <SCORE.INTER.VDW>
-31.1869

>  <SCORE.INTER.norm>
-1.05312

>  <SCORE.INTRA>
-17.691

>  <SCORE.INTRA.DIHEDRAL>
-3.78858

>  <SCORE.INTRA.DIHEDRAL.0>
6.83446

>  <SCORE.INTRA.POLAR>
0

>  <SCORE.INTRA.POLAR.0>
0

>  <SCORE.INTRA.REPUL>
0

>  <SCORE.INTRA.REPUL.0>
0

>  <SCORE.INTRA.SOLV>
0.0584726

>  <SCORE.INTRA.SOLV.lig_0>
-26.4601

>  <SCORE.INTRA.VDW>
-15.826

>  <SCORE.INTRA.VDW.0>
13.7853

>  <SCORE.INTRA.norm>
-0.610035

>  <SCORE.RESTR>
0

>  <SCORE.RESTR.CAVITY>
0

>  <SCORE.RESTR.norm>
0

>  <SCORE.SYSTEM>
0

>  <SCORE.SYSTEM.CONST>
0

>  <SCORE.SYSTEM.DIHEDRAL>
0

>  <SCORE.SYSTEM.SOLV>
0

>  <SCORE.SYSTEM.norm>
0

>  <SCORE.heavy>
29

>  <SCORE.norm>
-1.66315

>  <RMSD>
1.394

$$$$
ligand
 OpenBabel11021811473D
libRbt.so/2013.1/901 2013/11/27
 29 31  0  0  0  0  0  0  0  0999 V2000
   27.8438   41.0035   16.3465 C   0  0  0  0  0  0  0  0  0  0  0  0
   26.9353   41.6245   15.4312 O   0  0  0  0  0  0  0  0  0  0  0  0
   27.2729   39.6638   16.7910 C   0  0  1  0  0  0  0  0  0  0  0  0
   27.0872   38.8460   15.6398 O   0  0  0  0  0  0  0  0  0  0  0  0
   28.2123   38.9825   17.7778 C   0  0  1  0  0  0  0  0  0  0  0  0
   28.4366   39.8969   18.8446 O   0  0  0  0  0  0  0  0  0  0  0  0
   27.7114   37.6447   18.3302 C   0  0  1  0  0  0  0  0  0  0  0  0
   27.1537   36.8911   17.2528 O   0  0  0  0  0  0  0  0  0  0  0  0
   28.8097   36.8048   18.9790 C   0  0  0  0  0  0  0  0  0  0  0  0
   28.5785   34.0633   18.3450 N   0  0  0  0  0  0  0  0  0  0  0  0
   28.4867   32.7457   18.0082 C   0  0  0  0  0  0  0  0  0  0  0  0
   28.8837   32.3474   16.8847 O   0  0  0  0  0  0  0  0  0  0  0  0
   27.9603   31.8496   18.8810 N   0  0  0  0  0  0  0  0  0  0  0  0
   27.5169   32.2439   20.1012 C   0  0  0  0  0  0  0  0  0  0  0  0
   27.6053   33.5844   20.4589 C   0  0  1  0  0  0  0  0  0  0  0  0
   27.0285   31.4113   20.9047 O   0  0  0  0  0  0  0  0  0  0  0  0
   27.2594   35.2867   22.0203 C   0  0  1  0  0  0  0  0  0  0  0  0
   27.1714   33.9863   21.6733 N   0  0  0  0  0  0  0  0  0  0  0  0
   26.8098   35.6918   23.2722 C   0  0  0  0  0  0  0  0  0  0  0  0
   26.8894   37.0248   23.6600 C   0  0  2  0  0  0  0  0  0  0  0  0
   26.3826   37.3945   25.0303 C   0  0  0  0  0  0  0  0  0  0  0  0
   27.4289   37.9726   22.7810 C   0  0  2  0  0  0  0  0  0  0  0  0
   27.5391   39.2992   23.0927 N   0  0  0  0  0  0  0  0  0  0  0  0
   27.8763   37.5500   21.5233 C   0  0  0  0  0  0  0  0  0  0  0  0
   27.7972   36.2145   21.1298 C   0  0  2  0  0  0  0  0  0  0  0  0
   28.1489   34.5086   19.5612 C   0  0  2  0  0  0  0  0  0  0  0  0
   28.2295   35.8182   19.9107 N   0  0  0  0  0  0  0  0  0  0  0  0
   28.5914   39.7427   23.9873 C   0  0  0  0  0  0  0  0  0  0  0  0
   26.6383   40.3070   22.5581 C   0  0  0  0  0  0  0  0  0  0  0  0
  1  2  1  0  0  0  0
  3  1  1  6  0  0  0
  3  4  1  0  0  0  0
  3  5  1  0  0  0  0
  5  6  1  1  0  0  0
  5  7  1  0  0  0  0
  7  8  1  6  0  0  0
  7  9  1  0  0  0  0
  9 27  1  0  0  0  0
 10 11  1  0  0  0  0
 11 12  2  0  0  0  0
 11 13  1  0  0  0  0
 13 14  1  0  0  0  0
 14 16  2  0  0  0  0
 15 14  1  1  0  0  0
 15 18  1  0  0  0  0
 15 26  1  0  0  0  0
 17 19  1  1  0  0  0
 17 25  1  0  0  0  0
 17 18  1  0  0  0  0
 19 20  1  0  0  0  0
 20 21  1  6  0  0  0
 20 22  1  0  0  0  0
 22 23  1  6  0  0  0
 22 24  1  0  0  0  0
 23 28  1  0  0  0  0
 23 29  1  0  0  0  0
 25 24  1  6  0  0  0
 25 27  1  0  0  0  0
 26 10  1  6  0  0  0
 26 27  1  0  0  0  0
M  END
>  <CHROM.1>
59.38551563,55.26953525,43.14620103,158.70143730,76.45179754,-76.87720755
27.66283786,36.64182334,19.88033944,-1.81362130,-1.46878503,2.58374363

>  <Name>
ligand

>  <RI>
0

>  <Rbt.Current_Directory>
/home/itssahil/PROJECTS/Mol_Feturizer/New_Systems/rnas/3F4H

>  <Rbt.Executable>
rbdock ($Id: //depot/dev/client3/rdock/2013.1/src/exe/rbdock.cxx#4 $)

>  <Rbt.Library>
libRbt.so (2013.1, Build901 2013/11/27)

>  <Rbt.Parameter_File>
/export/apps/rDock/src/rDock_2013.1_src/data/scripts/dock_solv.prm

>  <Rbt.Receptor>
prm/pocket_docking_5.prm

>  <SCORE>
-47.6589

>  <SCORE.INTER>
-31.3095

>  <SCORE.INTER.CONST>
1

>  <SCORE.INTER.POLAR>
0

>  <SCORE.INTER.ROT>
6

>  <SCORE.INTER.SOLV>
12.7746

>  <SCORE.INTER.VDW>
-32.7312

>  <SCORE.INTER.norm>
-1.07964

>  <SCORE.INTRA>
-16.3494

>  <SCORE.INTRA.DIHEDRAL>
-2.22396

>  <SCORE.INTRA.DIHEDRAL.0>
6.83446

>  <SCORE.INTRA.POLAR>
0

>  <SCORE.INTRA.POLAR.0>
0

>  <SCORE.INTRA.REPUL>
0

>  <SCORE.INTRA.REPUL.0>
0

>  <SCORE.INTRA.SOLV>
-0.232333

>  <SCORE.INTRA.SOLV.lig_0>
-26.4601

>  <SCORE.INTRA.VDW>
-15.1212

>  <SCORE.INTRA.VDW.0>
13.7853

>  <SCORE.INTRA.norm>
-0.563772

>  <SCORE.RESTR>
0

>  <SCORE.RESTR.CAVITY>
0

>  <SCORE.RESTR.norm>
0

>  <SCORE.SYSTEM>
0

>  <SCORE.SYSTEM.CONST>
0

>  <SCORE.SYSTEM.DIHEDRAL>
0

>  <SCORE.SYSTEM.SOLV>
0

>  <SCORE.SYSTEM.norm>
0

>  <SCORE.heavy>
29

>  <SCORE.norm>
-1.64341

>  <RMSD>
1.397

$$$$
ligand
 OpenBabel11021811473D
libRbt.so/2013.1/901 2013/11/27
 29 31  0  0  0  0  0  0  0  0999 V2000
   29.8909   40.2126   15.5132 C   0  0  0  0  0  0  0  0  0  0  0  0
   29.4209   41.5616   15.4228 O   0  0  0  0  0  0  0  0  0  0  0  0
   29.5160   39.6394   16.8730 C   0  0  1  0  0  0  0  0  0  0  0  0
   28.0961   39.5706   16.9600 O   0  0  0  0  0  0  0  0  0  0  0  0
   30.1248   38.2552   17.0567 C   0  0  1  0  0  0  0  0  0  0  0  0
   31.5383   38.4058   16.9936 O   0  0  0  0  0  0  0  0  0  0  0  0
   29.7307   37.5416   18.3533 C   0  0  1  0  0  0  0  0  0  0  0  0
   29.9458   38.4366   19.4453 O   0  0  0  0  0  0  0  0  0  0  0  0
   28.2697   37.0976   18.3836 C   0  0  0  0  0  0  0  0  0  0  0  0
   28.2640   34.3227   17.8629 N   0  0  0  0  0  0  0  0  0  0  0  0
   28.2726   32.9900   17.5770 C   0  0  0  0  0  0  0  0  0  0  0  0
   28.4516   32.5937   16.3982 O   0  0  0  0  0  0  0  0  0  0  0  0
   28.0826   32.0758   18.5619 N   0  0  0  0  0  0  0  0  0  0  0  0
   27.8815   32.4667   19.8455 C   0  0  0  0  0  0  0  0  0  0  0  0
   27.8714   33.8227   20.1522 C   0  0  1  0  0  0  0  0  0  0  0  0
   27.7040   31.6171   20.7532 O   0  0  0  0  0  0  0  0  0  0  0  0
   27.6695   35.5377   21.7249 C   0  0  1  0  0  0  0  0  0  0  0  0
   27.6772   34.2221   21.4279 N   0  0  0  0  0  0  0  0  0  0  0  0
   27.4682   35.9400   23.0406 C   0  0  0  0  0  0  0  0  0  0  0  0
   27.4575   37.2887   23.3788 C   0  0  2  0  0  0  0  0  0  0  0  0
   27.2328   37.6542   24.8235 C   0  0  0  0  0  0  0  0  0  0  0  0
   27.6519   38.2555   22.3841 C   0  0  2  0  0  0  0  0  0  0  0  0
   27.6540   39.5983   22.6411 N   0  0  0  0  0  0  0  0  0  0  0  0
   27.8519   37.8353   21.0635 C   0  0  0  0  0  0  0  0  0  0  0  0
   27.8622   36.4839   20.7196 C   0  0  2  0  0  0  0  0  0  0  0  0
   28.0686   34.7657   19.1387 C   0  0  2  0  0  0  0  0  0  0  0  0
   28.0531   36.0897   19.4397 N   0  0  0  0  0  0  0  0  0  0  0  0
   28.8732   40.2421   23.0923 C   0  0  0  0  0  0  0  0  0  0  0  0
   26.4726   40.4292   22.4776 C   0  0  0  0  0  0  0  0  0  0  0  0
  1  2  1  0  0  0  0
  3  1  1  6  0  0  0
  3  4  1  0  0  0  0
  3  5  1  0  0  0  0
  5  6  1  1  0  0  0
  5  7  1  0  0  0  0
  7  8  1  1  0  0  0
  7  9  1  0  0  0  0
  9 27  1  0  0  0  0
 10 11  1  0  0  0  0
 11 12  2  0  0  0  0
 11 13  1  0  0  0  0
 13 14  1  0  0  0  0
 14 16  2  0  0  0  0
 15 14  1  1  0  0  0
 15 18  1  0  0  0  0
 15 26  1  0  0  0  0
 17 19  1  1  0  0  0
 17 25  1  0  0  0  0
 17 18  1  0  0  0  0
 19 20  1  0  0  0  0
 20 21  1  6  0  0  0
 20 22  1  0  0  0  0
 22 23  1  6  0  0  0
 22 24  1  0  0  0  0
 23 28  1  0  0  0  0
 23 29  1  0  0  0  0
 25 24  1  6  0  0  0
 25 27  1  0  0  0  0
 26 10  1  6  0  0  0
 26 27  1  0  0  0  0
M  END
>  <CHROM.1>
64.64436425,61.41532837,-50.15219772,163.10151313,84.65608205,82.41622770
28.41733204,36.79924149,19.63155317,-0.81794281,-1.25786428,-2.75776302

>  <Name>
ligand

>  <RI>
0

>  <Rbt.Current_Directory>
/home/itssahil/PROJECTS/Mol_Feturizer/New_Systems/rnas/3F4H

>  <Rbt.Executable>
rbdock ($Id: //depot/dev/client3/rdock/2013.1/src/exe/rbdock.cxx#4 $)

>  <Rbt.Library>
libRbt.so (2013.1, Build901 2013/11/27)

>  <Rbt.Parameter_File>
/export/apps/rDock/src/rDock_2013.1_src/data/scripts/dock_solv.prm

>  <Rbt.Receptor>
prm/pocket_docking_5.prm

>  <SCORE>
-45.662

>  <SCORE.INTER>
-28.6744

>  <SCORE.INTER.CONST>
1

>  <SCORE.INTER.POLAR>
0

>  <SCORE.INTER.ROT>
6

>  <SCORE.INTER.SOLV>
11.4116

>  <SCORE.INTER.VDW>
-30.5201

>  <SCORE.INTER.norm>
-0.988773

>  <SCORE.INTRA>
-16.9876

>  <SCORE.INTRA.DIHEDRAL>
-3.44728

>  <SCORE.INTRA.DIHEDRAL.0>
6.83446

>  <SCORE.INTRA.POLAR>
0

>  <SCORE.INTRA.POLAR.0>
0

>  <SCORE.INTRA.REPUL>
0

>  <SCORE.INTRA.REPUL.0>
0

>  <SCORE.INTRA.SOLV>
-0.00470135

>  <SCORE.INTRA.SOLV.lig_0>
-26.4601

>  <SCORE.INTRA.VDW>
-15.2616

>  <SCORE.INTRA.VDW.0>
13.7853

>  <SCORE.INTRA.norm>
-0.58578

>  <SCORE.RESTR>
0

>  <SCORE.RESTR.CAVITY>
0

>  <SCORE.RESTR.norm>
0

>  <SCORE.SYSTEM>
0

>  <SCORE.SYSTEM.CONST>
0

>  <SCORE.SYSTEM.DIHEDRAL>
0

>  <SCORE.SYSTEM.SOLV>
0

>  <SCORE.SYSTEM.norm>
0

>  <SCORE.heavy>
29

>  <SCORE.norm>
-1.57455

>  <RMSD>
1.397

$$$$
ligand
 OpenBabel11021811473D
libRbt.so/2013.1/901 2013/11/27
 29 31  0  0  0  0  0  0  0  0999 V2000
   26.4451   40.1503   18.6200 C   0  0  0  0  0  0  0  0  0  0  0  0
   25.5575   40.3788   17.5206 O   0  0  0  0  0  0  0  0  0  0  0  0
   27.8463   39.8823   18.0880 C   0  0  1  0  0  0  0  0  0  0  0  0
   28.7336   39.7505   19.1942 O   0  0  0  0  0  0  0  0  0  0  0  0
   27.8645   38.6160   17.2416 C   0  0  1  0  0  0  0  0  0  0  0  0
   29.1588   38.5186   16.6585 O   0  0  0  0  0  0  0  0  0  0  0  0
   27.5317   37.3267   17.9983 C   0  0  1  0  0  0  0  0  0  0  0  0
   27.2515   36.3019   17.0440 O   0  0  0  0  0  0  0  0  0  0  0  0
   28.6651   36.8402   18.8991 C   0  0  0  0  0  0  0  0  0  0  0  0
   28.5005   34.0852   18.3038 N   0  0  0  0  0  0  0  0  0  0  0  0
   28.4391   32.7614   17.9846 C   0  0  0  0  0  0  0  0  0  0  0  0
   28.7922   32.3648   16.8460 O   0  0  0  0  0  0  0  0  0  0  0  0
   27.9905   31.8572   18.8918 N   0  0  0  0  0  0  0  0  0  0  0  0
   27.5962   32.2493   20.1294 C   0  0  0  0  0  0  0  0  0  0  0  0
   27.6546   33.5960   20.4694 C   0  0  1  0  0  0  0  0  0  0  0  0
   27.1798   31.4090   20.9649 O   0  0  0  0  0  0  0  0  0  0  0  0
   27.3279   35.3025   22.0304 C   0  0  1  0  0  0  0  0  0  0  0  0
   27.2691   33.9960   21.7007 N   0  0  0  0  0  0  0  0  0  0  0  0
   26.9286   35.7055   23.2999 C   0  0  0  0  0  0  0  0  0  0  0  0
   26.9800   37.0448   23.6704 C   0  0  2  0  0  0  0  0  0  0  0  0
   26.5310   37.4118   25.0615 C   0  0  0  0  0  0  0  0  0  0  0  0
   27.4394   38.0011   22.7559 C   0  0  2  0  0  0  0  0  0  0  0  0
   27.5175   39.3342   23.0489 N   0  0  0  0  0  0  0  0  0  0  0  0
   27.8368   37.5805   21.4809 C   0  0  0  0  0  0  0  0  0  0  0  0
   27.7858   36.2387   21.1046 C   0  0  2  0  0  0  0  0  0  0  0  0
   28.1179   34.5286   19.5362 C   0  0  2  0  0  0  0  0  0  0  0  0
   28.1691   35.8442   19.8687 N   0  0  0  0  0  0  0  0  0  0  0  0
   26.5906   40.2622   22.4292 C   0  0  0  0  0  0  0  0  0  0  0  0
   28.5005   39.8773   23.9718 C   0  0  0  0  0  0  0  0  0  0  0  0
  1  2  1  0  0  0  0
  3  1  1  1  0  0  0
  3  4  1  0  0  0  0
  3  5  1  0  0  0  0
  5  6  1  1  0  0  0
  5  7  1  0  0  0  0
  7  8  1  6  0  0  0
  7  9  1  0  0  0  0
  9 27  1  0  0  0  0
 10 11  1  0  0  0  0
 11 12  2  0  0  0  0
 11 13  1  0  0  0  0
 13 14  1  0  0  0  0
 14 16  2  0  0  0  0
 15 14  1  1  0  0  0
 15 18  1  0  0  0  0
 15 26  1  0  0  0  0
 17 19  1  1  0  0  0
 17 25  1  0  0  0  0
 17 18  1  0  0  0  0
 19 20  1  0  0  0  0
 20 21  1  6  0  0  0
 20 22  1  0  0  0  0
 22 23  1  6  0  0  0
 22 24  1  0  0  0  0
 23 28  1  0  0  0  0
 23 29  1  0  0  0  0
 25 24  1  6  0  0  0
 25 27  1  0  0  0  0
 26 10  1  6  0  0  0
 26 27  1  0  0  0  0
M  END
>  <CHROM.1>
175.97257882,173.41116249,165.35466473,164.04117661,-108.91562312,-94.21145783
27.66403106,36.51883283,20.09392117,-2.38831789,-1.43692358,2.64152013

>  <Name>
ligand

>  <RI>
0

>  <Rbt.Current_Directory>
/home/itssahil/PROJECTS/Mol_Feturizer/New_Systems/rnas/3F4H

>  <Rbt.Executable>
rbdock ($Id: //depot/dev/client3/rdock/2013.1/src/exe/rbdock.cxx#4 $)

>  <Rbt.Library>
libRbt.so (2013.1, Build901 2013/11/27)

>  <Rbt.Parameter_File>
/export/apps/rDock/src/rDock_2013.1_src/data/scripts/dock_solv.prm

>  <Rbt.Receptor>
prm/pocket_docking_4.prm

>  <SCORE>
-48.2593

>  <SCORE.INTER>
-30.9311

>  <SCORE.INTER.CONST>
1

>  <SCORE.INTER.POLAR>
0

>  <SCORE.INTER.ROT>
6

>  <SCORE.INTER.SOLV>
10.2402

>  <SCORE.INTER.VDW>
-31.6342

>  <SCORE.INTER.norm>
-1.06659

>  <SCORE.INTRA>
-17.3282

>  <SCORE.INTRA.DIHEDRAL>
-2.9208

>  <SCORE.INTRA.DIHEDRAL.0>
6.83446

>  <SCORE.INTRA.POLAR>
0

>  <SCORE.INTRA.POLAR.0>
0

>  <SCORE.INTRA.REPUL>
0

>  <SCORE.INTRA.REPUL.0>
0

>  <SCORE.INTRA.SOLV>
0.0602186

>  <SCORE.INTRA.SOLV.lig_0>
-26.4601

>  <SCORE.INTRA.VDW>
-15.8979

>  <SCORE.INTRA.VDW.0>
13.7853

>  <SCORE.INTRA.norm>
-0.597525

>  <SCORE.RESTR>
0

>  <SCORE.RESTR.CAVITY>
0

>  <SCORE.RESTR.norm>
0

>  <SCORE.SYSTEM>
0

>  <SCORE.SYSTEM.CONST>
0

>  <SCORE.SYSTEM.DIHEDRAL>
0

>  <SCORE.SYSTEM.SOLV>
0

>  <SCORE.SYSTEM.norm>
0

>  <SCORE.heavy>
29

>  <SCORE.norm>
-1.66411

>  <RMSD>
1.399

$$$$
ligand
 OpenBabel11021811473D
libRbt.so/2013.1/901 2013/11/27
 29 31  0  0  0  0  0  0  0  0999 V2000
   27.8617   40.8056   16.0273 C   0  0  0  0  0  0  0  0  0  0  0  0
   26.8605   41.4498   15.2327 O   0  0  0  0  0  0  0  0  0  0  0  0
   27.2967   39.5111   16.5959 C   0  0  1  0  0  0  0  0  0  0  0  0
   27.0064   38.6301   15.5152 O   0  0  0  0  0  0  0  0  0  0  0  0
   28.2929   38.8663   17.5510 C   0  0  1  0  0  0  0  0  0  0  0  0
   28.6834   39.8637   18.4877 O   0  0  0  0  0  0  0  0  0  0  0  0
   27.7741   37.6284   18.2886 C   0  0  1  0  0  0  0  0  0  0  0  0
   27.2088   36.7342   17.3292 O   0  0  0  0  0  0  0  0  0  0  0  0
   28.8606   36.8773   19.0556 C   0  0  0  0  0  0  0  0  0  0  0  0
   28.6150   34.1441   18.3919 N   0  0  0  0  0  0  0  0  0  0  0  0
   28.5167   32.8306   18.0411 C   0  0  0  0  0  0  0  0  0  0  0  0
   28.9233   32.4401   16.9182 O   0  0  0  0  0  0  0  0  0  0  0  0
   27.9733   31.9302   18.8989 N   0  0  0  0  0  0  0  0  0  0  0  0
   27.5191   32.3161   20.1178 C   0  0  0  0  0  0  0  0  0  0  0  0
   27.6141   33.6523   20.4898 C   0  0  1  0  0  0  0  0  0  0  0  0
   27.0150   31.4796   20.9075 O   0  0  0  0  0  0  0  0  0  0  0  0
   27.2638   35.3419   22.0639 C   0  0  1  0  0  0  0  0  0  0  0  0
   27.1695   34.0457   21.7031 N   0  0  0  0  0  0  0  0  0  0  0  0
   26.8031   35.7382   23.3146 C   0  0  0  0  0  0  0  0  0  0  0  0
   26.8888   37.0667   23.7164 C   0  0  2  0  0  0  0  0  0  0  0  0
   26.3694   37.4270   25.0845 C   0  0  0  0  0  0  0  0  0  0  0  0
   27.4458   38.0187   22.8531 C   0  0  2  0  0  0  0  0  0  0  0  0
   27.5628   39.3413   23.1790 N   0  0  0  0  0  0  0  0  0  0  0  0
   27.9041   37.6049   21.5964 C   0  0  0  0  0  0  0  0  0  0  0  0
   27.8190   36.2740   21.1888 C   0  0  2  0  0  0  0  0  0  0  0  0
   28.1751   34.5808   19.6075 C   0  0  2  0  0  0  0  0  0  0  0  0
   28.2620   35.8863   19.9708 N   0  0  0  0  0  0  0  0  0  0  0  0
   28.6300   39.7726   24.0619 C   0  0  0  0  0  0  0  0  0  0  0  0
   26.6551   40.3567   22.6713 C   0  0  0  0  0  0  0  0  0  0  0  0
  1  2  1  0  0  0  0
  3  1  1  6  0  0  0
  3  4  1  0  0  0  0
  3  5  1  0  0  0  0
  5  6  1  1  0  0  0
  5  7  1  0  0  0  0
  7  8  1  6  0  0  0
  7  9  1  0  0  0  0
  9 27  1  0  0  0  0
 10 11  1  0  0  0  0
 11 12  2  0  0  0  0
 11 13  1  0  0  0  0
 13 14  1  0  0  0  0
 14 16  2  0  0  0  0
 15 14  1  1  0  0  0
 15 18  1  0  0  0  0
 15 26  1  0  0  0  0
 17 19  1  1  0  0  0
 17 25  1  0  0  0  0
 17 18  1  0  0  0  0
 19 20  1  0  0  0  0
 20 21  1  6  0  0  0
 20 22  1  0  0  0  0
 22 23  1  6  0  0  0
 22 24  1  0  0  0  0
 23 28  1  0  0  0  0
 23 29  1  0  0  0  0
 25 24  1  6  0  0  0
 25 27  1  0  0  0  0
 26 10  1  6  0  0  0
 26 27  1  0  0  0  0
M  END
>  <CHROM.1>
64.11852936,51.58298180,50.32499530,167.60797416,78.07333706,-83.06555688
27.68682615,36.64522561,19.86573649,-1.63297648,-1.47222953,2.58367550

>  <Name>
ligand

>  <RI>
0

>  <Rbt.Current_Directory>
/home/itssahil/PROJECTS/Mol_Feturizer/New_Systems/rnas/3F4H

>  <Rbt.Executable>
rbdock ($Id: //depot/dev/client3/rdock/2013.1/src/exe/rbdock.cxx#4 $)

>  <Rbt.Library>
libRbt.so (2013.1, Build901 2013/11/27)

>  <Rbt.Parameter_File>
/export/apps/rDock/src/rDock_2013.1_src/data/scripts/dock_solv.prm

>  <Rbt.Receptor>
prm/pocket_docking_6.prm

>  <SCORE>
-48.0782

>  <SCORE.INTER>
-30.8496

>  <SCORE.INTER.CONST>
1

>  <SCORE.INTER.POLAR>
0

>  <SCORE.INTER.ROT>
6

>  <SCORE.INTER.SOLV>
13.2516

>  <SCORE.INTER.VDW>
-32.5836

>  <SCORE.INTER.norm>
-1.06378

>  <SCORE.INTRA>
-17.2286

>  <SCORE.INTRA.DIHEDRAL>
-3.57788

>  <SCORE.INTRA.DIHEDRAL.0>
6.83446

>  <SCORE.INTRA.POLAR>
0

>  <SCORE.INTRA.POLAR.0>
0

>  <SCORE.INTRA.REPUL>
0

>  <SCORE.INTRA.REPUL.0>
0

>  <SCORE.INTRA.SOLV>
-0.327121

>  <SCORE.INTRA.SOLV.lig_0>
-26.4601

>  <SCORE.INTRA.VDW>
-15.2761

>  <SCORE.INTRA.VDW.0>
13.7853

>  <SCORE.INTRA.norm>
-0.594088

>  <SCORE.RESTR>
0

>  <SCORE.RESTR.CAVITY>
0

>  <SCORE.RESTR.norm>
0

>  <SCORE.SYSTEM>
0

>  <SCORE.SYSTEM.CONST>
0

>  <SCORE.SYSTEM.DIHEDRAL>
0

>  <SCORE.SYSTEM.SOLV>
0

>  <SCORE.SYSTEM.norm>
0

>  <SCORE.heavy>
29

>  <SCORE.norm>
-1.65787

>  <RMSD>
1.400

$$$$
ligand
 OpenBabel11021811473D
libRbt.so/2013.1/901 2013/11/27
 29 31  0  0  0  0  0  0  0  0999 V2000
   26.4376   40.2193   18.5920 C   0  0  0  0  0  0  0  0  0  0  0  0
   25.5589   40.4344   17.4827 O   0  0  0  0  0  0  0  0  0  0  0  0
   27.8310   39.8905   18.0737 C   0  0  1  0  0  0  0  0  0  0  0  0
   28.7084   39.7545   19.1873 O   0  0  0  0  0  0  0  0  0  0  0  0
   27.8089   38.6044   17.2577 C   0  0  1  0  0  0  0  0  0  0  0  0
   29.0860   38.4739   16.6440 O   0  0  0  0  0  0  0  0  0  0  0  0
   27.4775   37.3385   18.0534 C   0  0  1  0  0  0  0  0  0  0  0  0
   27.1266   36.3046   17.1327 O   0  0  0  0  0  0  0  0  0  0  0  0
   28.6380   36.8375   18.9107 C   0  0  0  0  0  0  0  0  0  0  0  0
   28.4917   34.0849   18.2999 N   0  0  0  0  0  0  0  0  0  0  0  0
   28.4385   32.7626   17.9730 C   0  0  0  0  0  0  0  0  0  0  0  0
   28.7746   32.3773   16.8253 O   0  0  0  0  0  0  0  0  0  0  0  0
   28.0166   31.8476   18.8822 N   0  0  0  0  0  0  0  0  0  0  0  0
   27.6412   32.2273   20.1295 C   0  0  0  0  0  0  0  0  0  0  0  0
   27.6915   33.5723   20.4775 C   0  0  1  0  0  0  0  0  0  0  0  0
   27.2494   31.3771   20.9668 O   0  0  0  0  0  0  0  0  0  0  0  0
   27.3758   35.2649   22.0558 C   0  0  1  0  0  0  0  0  0  0  0  0
   27.3248   33.9600   21.7184 N   0  0  0  0  0  0  0  0  0  0  0  0
   26.9959   35.6551   23.3352 C   0  0  0  0  0  0  0  0  0  0  0  0
   27.0398   36.9924   23.7138 C   0  0  2  0  0  0  0  0  0  0  0  0
   26.6129   37.3454   25.1154 C   0  0  0  0  0  0  0  0  0  0  0  0
   27.4719   37.9597   22.7975 C   0  0  2  0  0  0  0  0  0  0  0  0
   27.5412   39.2916   23.0980 N   0  0  0  0  0  0  0  0  0  0  0  0
   27.8499   37.5517   21.5125 C   0  0  0  0  0  0  0  0  0  0  0  0
   27.8063   36.2120   21.1281 C   0  0  2  0  0  0  0  0  0  0  0  0
   28.1274   34.5160   19.5422 C   0  0  2  0  0  0  0  0  0  0  0  0
   28.1708   35.8298   19.8826 N   0  0  0  0  0  0  0  0  0  0  0  0
   28.6035   39.7807   23.9564 C   0  0  0  0  0  0  0  0  0  0  0  0
   26.5865   40.2610   22.5864 C   0  0  0  0  0  0  0  0  0  0  0  0
  1  2  1  0  0  0  0
  3  1  1  1  0  0  0
  3  4  1  0  0  0  0
  3  5  1  0  0  0  0
  5  6  1  1  0  0  0
  5  7  1  0  0  0  0
  7  8  1  6  0  0  0
  7  9  1  0  0  0  0
  9 27  1  0  0  0  0
 10 11  1  0  0  0  0
 11 12  2  0  0  0  0
 11 13  1  0  0  0  0
 13 14  1  0  0  0  0
 14 16  2  0  0  0  0
 15 14  1  1  0  0  0
 15 18  1  0  0  0  0
 15 26  1  0  0  0  0
 17 19  1  1  0  0  0
 17 25  1  0  0  0  0
 17 18  1  0  0  0  0
 19 20  1  0  0  0  0
 20 21  1  6  0  0  0
 20 22  1  0  0  0  0
 22 23  1  6  0  0  0
 22 24  1  0  0  0  0
 23 28  1  0  0  0  0
 23 29  1  0  0  0  0
 25 24  1  6  0  0  0
 25 27  1  0  0  0  0
 26 10  1  6  0  0  0
 26 27  1  0  0  0  0
M  END
>  <CHROM.1>
176.74360698,171.31813942,163.98219010,166.46832723,74.19667309,-93.06295348
27.67220863,36.50268165,20.11151326,-2.50145439,-1.44877333,2.51877955

>  <Name>
ligand

>  <RI>
0

>  <Rbt.Current_Directory>
/home/itssahil/PROJECTS/Mol_Feturizer/New_Systems/rnas/3F4H

>  <Rbt.Executable>
rbdock ($Id: //depot/dev/client3/rdock/2013.1/src/exe/rbdock.cxx#4 $)

>  <Rbt.Library>
libRbt.so (2013.1, Build901 2013/11/27)

>  <Rbt.Parameter_File>
/export/apps/rDock/src/rDock_2013.1_src/data/scripts/dock_solv.prm

>  <Rbt.Receptor>
prm/pocket_docking_3.prm

>  <SCORE>
-48.3119

>  <SCORE.INTER>
-30.9157

>  <SCORE.INTER.CONST>
1

>  <SCORE.INTER.POLAR>
0

>  <SCORE.INTER.ROT>
6

>  <SCORE.INTER.SOLV>
10.3121

>  <SCORE.INTER.VDW>
-31.6478

>  <SCORE.INTER.norm>
-1.06606

>  <SCORE.INTRA>
-17.3962

>  <SCORE.INTRA.DIHEDRAL>
-2.92132

>  <SCORE.INTRA.DIHEDRAL.0>
6.83446

>  <SCORE.INTRA.POLAR>
0

>  <SCORE.INTRA.POLAR.0>
0

>  <SCORE.INTRA.REPUL>
0

>  <SCORE.INTRA.REPUL.0>
0

>  <SCORE.INTRA.SOLV>
0.00295633

>  <SCORE.INTRA.SOLV.lig_0>
-26.4601

>  <SCORE.INTRA.VDW>
-15.9371

>  <SCORE.INTRA.VDW.0>
13.7853

>  <SCORE.INTRA.norm>
-0.59987

>  <SCORE.RESTR>
0

>  <SCORE.RESTR.CAVITY>
0

>  <SCORE.RESTR.norm>
0

>  <SCORE.SYSTEM>
0

>  <SCORE.SYSTEM.CONST>
0

>  <SCORE.SYSTEM.DIHEDRAL>
0

>  <SCORE.SYSTEM.SOLV>
0

>  <SCORE.SYSTEM.norm>
0

>  <SCORE.heavy>
29

>  <SCORE.norm>
-1.66593

>  <RMSD>
1.401

$$$$
ligand
 OpenBabel11021811473D
libRbt.so/2013.1/901 2013/11/27
 29 31  0  0  0  0  0  0  0  0999 V2000
   29.2902   39.9947   15.8081 C   0  0  0  0  0  0  0  0  0  0  0  0
   28.4028   41.1173   15.7736 O   0  0  0  0  0  0  0  0  0  0  0  0
   28.5460   38.7817   16.3494 C   0  0  1  0  0  0  0  0  0  0  0  0
   29.4126   37.6532   16.2865 O   0  0  0  0  0  0  0  0  0  0  0  0
   28.0979   39.0251   17.7847 C   0  0  1  0  0  0  0  0  0  0  0  0
   27.0839   40.0226   17.7451 O   0  0  0  0  0  0  0  0  0  0  0  0
   27.5848   37.7845   18.5219 C   0  0  1  0  0  0  0  0  0  0  0  0
   26.6675   37.0988   17.6687 O   0  0  0  0  0  0  0  0  0  0  0  0
   28.6920   36.8075   18.9122 C   0  0  0  0  0  0  0  0  0  0  0  0
   28.5353   34.0588   18.2867 N   0  0  0  0  0  0  0  0  0  0  0  0
   28.4781   32.7383   17.9532 C   0  0  0  0  0  0  0  0  0  0  0  0
   28.8434   32.3537   16.8143 O   0  0  0  0  0  0  0  0  0  0  0  0
   28.0206   31.8244   18.8462 N   0  0  0  0  0  0  0  0  0  0  0  0
   27.6131   32.2035   20.0836 C   0  0  0  0  0  0  0  0  0  0  0  0
   27.6670   33.5467   20.4381 C   0  0  1  0  0  0  0  0  0  0  0  0
   27.1884   31.3544   20.9059 O   0  0  0  0  0  0  0  0  0  0  0  0
   27.3229   35.2367   22.0132 C   0  0  1  0  0  0  0  0  0  0  0  0
   27.2684   33.9336   21.6694 N   0  0  0  0  0  0  0  0  0  0  0  0
   26.9100   35.6263   23.2825 C   0  0  0  0  0  0  0  0  0  0  0  0
   26.9566   36.9616   23.6675 C   0  0  2  0  0  0  0  0  0  0  0  0
   26.4927   37.3140   25.0575 C   0  0  0  0  0  0  0  0  0  0  0  0
   27.4250   37.9277   22.7678 C   0  0  2  0  0  0  0  0  0  0  0  0
   27.4992   39.2577   23.0754 N   0  0  0  0  0  0  0  0  0  0  0  0
   27.8360   37.5205   21.4928 C   0  0  0  0  0  0  0  0  0  0  0  0
   27.7898   36.1826   21.1020 C   0  0  2  0  0  0  0  0  0  0  0  0
   28.1396   34.4892   19.5196 C   0  0  2  0  0  0  0  0  0  0  0  0
   28.1864   35.8012   19.8662 N   0  0  0  0  0  0  0  0  0  0  0  0
   28.5487   39.7346   23.9560 C   0  0  0  0  0  0  0  0  0  0  0  0
   26.5622   40.2369   22.5500 C   0  0  0  0  0  0  0  0  0  0  0  0
  1  2  1  0  0  0  0
  3  1  1  1  0  0  0
  3  4  1  0  0  0  0
  3  5  1  0  0  0  0
  5  6  1  6  0  0  0
  5  7  1  0  0  0  0
  7  8  1  6  0  0  0
  7  9  1  0  0  0  0
  9 27  1  0  0  0  0
 10 11  1  0  0  0  0
 11 12  2  0  0  0  0
 11 13  1  0  0  0  0
 13 14  1  0  0  0  0
 14 16  2  0  0  0  0
 15 14  1  1  0  0  0
 15 18  1  0  0  0  0
 15 26  1  0  0  0  0
 17 19  1  1  0  0  0
 17 25  1  0  0  0  0
 17 18  1  0  0  0  0
 19 20  1  0  0  0  0
 20 21  1  6  0  0  0
 20 22  1  0  0  0  0
 22 23  1  6  0  0  0
 22 24  1  0  0  0  0
 23 28  1  0  0  0  0
 23 29  1  0  0  0  0
 25 24  1  6  0  0  0
 25 27  1  0  0  0  0
 26 10  1  6  0  0  0
 26 27  1  0  0  0  0
M  END
>  <CHROM.1>
175.85028014,68.76813559,-47.16343607,167.39798547,74.78541394,-65.56369563
27.83703499,36.50389786,19.84862764,-1.21960497,-1.37512941,3.11311770

>  <Name>
ligand

>  <RI>
0

>  <Rbt.Current_Directory>
/home/itssahil/PROJECTS/Mol_Feturizer/New_Systems/rnas/3F4H

>  <Rbt.Executable>
rbdock ($Id: //depot/dev/client3/rdock/2013.1/src/exe/rbdock.cxx#4 $)

>  <Rbt.Library>
libRbt.so (2013.1, Build901 2013/11/27)

>  <Rbt.Parameter_File>
/export/apps/rDock/src/rDock_2013.1_src/data/scripts/dock_solv.prm

>  <Rbt.Receptor>
prm/pocket_docking_5.prm

>  <SCORE>
-48.1261

>  <SCORE.INTER>
-31.7701

>  <SCORE.INTER.CONST>
1

>  <SCORE.INTER.POLAR>
0

>  <SCORE.INTER.ROT>
6

>  <SCORE.INTER.SOLV>
11.1643

>  <SCORE.INTER.VDW>
-32.5015

>  <SCORE.INTER.norm>
-1.09552

>  <SCORE.INTRA>
-16.356

>  <SCORE.INTRA.DIHEDRAL>
-3.32112

>  <SCORE.INTRA.DIHEDRAL.0>
6.83446

>  <SCORE.INTRA.POLAR>
0

>  <SCORE.INTRA.POLAR.0>
0

>  <SCORE.INTRA.REPUL>
0

>  <SCORE.INTRA.REPUL.0>
0

>  <SCORE.INTRA.SOLV>
0.131652

>  <SCORE.INTRA.SOLV.lig_0>
-26.4601

>  <SCORE.INTRA.VDW>
-14.7612

>  <SCORE.INTRA.VDW.0>
13.7853

>  <SCORE.INTRA.norm>
-0.563998

>  <SCORE.RESTR>
0

>  <SCORE.RESTR.CAVITY>
0

>  <SCORE.RESTR.norm>
0

>  <SCORE.SYSTEM>
0

>  <SCORE.SYSTEM.CONST>
0

>  <SCORE.SYSTEM.DIHEDRAL>
0

>  <SCORE.SYSTEM.SOLV>
0

>  <SCORE.SYSTEM.norm>
0

>  <SCORE.heavy>
29

>  <SCORE.norm>
-1.65952

>  <RMSD>
1.404

$$$$
ligand
 OpenBabel11021811473D
libRbt.so/2013.1/901 2013/11/27
 29 31  0  0  0  0  0  0  0  0999 V2000
   26.7612   40.0912   18.5966 C   0  0  0  0  0  0  0  0  0  0  0  0
   25.7513   40.3386   17.6128 O   0  0  0  0  0  0  0  0  0  0  0  0
   28.0610   39.7136   17.8994 C   0  0  1  0  0  0  0  0  0  0  0  0
   29.0810   39.5789   18.8842 O   0  0  0  0  0  0  0  0  0  0  0  0
   27.8956   38.4108   17.1275 C   0  0  1  0  0  0  0  0  0  0  0  0
   29.1182   38.1715   16.4399 O   0  0  0  0  0  0  0  0  0  0  0  0
   27.5277   37.1944   17.9821 C   0  0  1  0  0  0  0  0  0  0  0  0
   27.1636   36.1231   17.1107 O   0  0  0  0  0  0  0  0  0  0  0  0
   28.6676   36.7123   18.8771 C   0  0  0  0  0  0  0  0  0  0  0  0
   28.5281   33.9485   18.3174 N   0  0  0  0  0  0  0  0  0  0  0  0
   28.4789   32.6202   18.0154 C   0  0  0  0  0  0  0  0  0  0  0  0
   28.8383   32.2118   16.8829 O   0  0  0  0  0  0  0  0  0  0  0  0
   28.0358   31.7240   18.9332 N   0  0  0  0  0  0  0  0  0  0  0  0
   27.6350   32.1288   20.1646 C   0  0  0  0  0  0  0  0  0  0  0  0
   27.6809   33.4803   20.4872 C   0  0  1  0  0  0  0  0  0  0  0  0
   27.2237   31.2959   21.0099 O   0  0  0  0  0  0  0  0  0  0  0  0
   27.3356   35.2041   22.0249 C   0  0  1  0  0  0  0  0  0  0  0  0
   27.2889   33.8929   21.7122 N   0  0  0  0  0  0  0  0  0  0  0  0
   26.9297   35.6201   23.2881 C   0  0  0  0  0  0  0  0  0  0  0  0
   26.9686   36.9644   23.6413 C   0  0  2  0  0  0  0  0  0  0  0  0
   26.5129   37.3456   25.0263 C   0  0  0  0  0  0  0  0  0  0  0  0
   27.4221   37.9127   22.7155 C   0  0  2  0  0  0  0  0  0  0  0  0
   27.4880   39.2502   22.9913 N   0  0  0  0  0  0  0  0  0  0  0  0
   27.8263   37.4790   21.4471 C   0  0  0  0  0  0  0  0  0  0  0  0
   27.7878   36.1320   21.0882 C   0  0  2  0  0  0  0  0  0  0  0  0
   28.1386   34.4046   19.5430 C   0  0  2  0  0  0  0  0  0  0  0  0
   28.1777   35.7248   19.8585 N   0  0  0  0  0  0  0  0  0  0  0  0
   28.5061   39.7483   23.8967 C   0  0  0  0  0  0  0  0  0  0  0  0
   26.5727   40.2166   22.4073 C   0  0  0  0  0  0  0  0  0  0  0  0
  1  2  1  0  0  0  0
  3  1  1  1  0  0  0
  3  4  1  0  0  0  0
  3  5  1  0  0  0  0
  5  6  1  1  0  0  0
  5  7  1  0  0  0  0
  7  8  1  6  0  0  0
  7  9  1  0  0  0  0
  9 27  1  0  0  0  0
 10 11  1  0  0  0  0
 11 12  2  0  0  0  0
 11 13  1  0  0  0  0
 13 14  1  0  0  0  0
 14 16  2  0  0  0  0
 15 14  1  1  0  0  0
 15 18  1  0  0  0  0
 15 26  1  0  0  0  0
 17 19  1  1  0  0  0
 17 25  1  0  0  0  0
 17 18  1  0  0  0  0
 19 20  1  0  0  0  0
 20 21  1  6  0  0  0
 20 22  1  0  0  0  0
 22 23  1  6  0  0  0
 22 24  1  0  0  0  0
 23 28  1  0  0  0  0
 23 29  1  0  0  0  0
 25 24  1  6  0  0  0
 25 27  1  0  0  0  0
 26 10  1  6  0  0  0
 26 27  1  0  0  0  0
M  END
>  <CHROM.1>
175.27064120,176.40049474,169.25357867,168.72577575,72.19381475,-93.28662354
27.70764907,36.39400478,20.06389620,-2.25919349,-1.42231715,2.76045515

>  <Name>
ligand

>  <RI>
0

>  <Rbt.Current_Directory>
/home/itssahil/PROJECTS/Mol_Feturizer/New_Systems/rnas/3F4H

>  <Rbt.Executable>
rbdock ($Id: //depot/dev/client3/rdock/2013.1/src/exe/rbdock.cxx#4 $)

>  <Rbt.Library>
libRbt.so (2013.1, Build901 2013/11/27)

>  <Rbt.Parameter_File>
/export/apps/rDock/src/rDock_2013.1_src/data/scripts/dock_solv.prm

>  <Rbt.Receptor>
prm/pocket_docking_3.prm

>  <SCORE>
-48.4109

>  <SCORE.INTER>
-30.8102

>  <SCORE.INTER.CONST>
1

>  <SCORE.INTER.POLAR>
0

>  <SCORE.INTER.ROT>
6

>  <SCORE.INTER.SOLV>
10.6749

>  <SCORE.INTER.VDW>
-31.6984

>  <SCORE.INTER.norm>
-1.06242

>  <SCORE.INTRA>
-17.6007

>  <SCORE.INTRA.DIHEDRAL>
-3.77169

>  <SCORE.INTRA.DIHEDRAL.0>
6.83446

>  <SCORE.INTRA.POLAR>
0

>  <SCORE.INTRA.POLAR.0>
0

>  <SCORE.INTRA.REPUL>
0

>  <SCORE.INTRA.REPUL.0>
0

>  <SCORE.INTRA.SOLV>
-0.0689663

>  <SCORE.INTRA.SOLV.lig_0>
-26.4601

>  <SCORE.INTRA.VDW>
-15.6803

>  <SCORE.INTRA.VDW.0>
13.7853

>  <SCORE.INTRA.norm>
-0.606919

>  <SCORE.RESTR>
0

>  <SCORE.RESTR.CAVITY>
0

>  <SCORE.RESTR.norm>
0

>  <SCORE.SYSTEM>
0

>  <SCORE.SYSTEM.CONST>
0

>  <SCORE.SYSTEM.DIHEDRAL>
0

>  <SCORE.SYSTEM.SOLV>
0

>  <SCORE.SYSTEM.norm>
0

>  <SCORE.heavy>
29

>  <SCORE.norm>
-1.66934

>  <RMSD>
1.407

$$$$
ligand
 OpenBabel11021811473D
libRbt.so/2013.1/901 2013/11/27
 29 31  0  0  0  0  0  0  0  0999 V2000
   26.7224   40.0899   18.5793 C   0  0  0  0  0  0  0  0  0  0  0  0
   26.8569   41.3728   19.1999 O   0  0  0  0  0  0  0  0  0  0  0  0
   28.0215   39.7363   17.8684 C   0  0  1  0  0  0  0  0  0  0  0  0
   29.0533   39.6170   18.8428 O   0  0  0  0  0  0  0  0  0  0  0  0
   27.8709   38.4325   17.0952 C   0  0  1  0  0  0  0  0  0  0  0  0
   29.0999   38.2022   16.4160 O   0  0  0  0  0  0  0  0  0  0  0  0
   27.5060   37.2132   17.9471 C   0  0  1  0  0  0  0  0  0  0  0  0
   27.1625   36.1373   17.0729 O   0  0  0  0  0  0  0  0  0  0  0  0
   28.6407   36.7437   18.8552 C   0  0  0  0  0  0  0  0  0  0  0  0
   28.4785   33.9872   18.2664 N   0  0  0  0  0  0  0  0  0  0  0  0
   28.4181   32.6627   17.9502 C   0  0  0  0  0  0  0  0  0  0  0  0
   28.7667   32.2643   16.8108 O   0  0  0  0  0  0  0  0  0  0  0  0
   27.9754   31.7594   18.8613 N   0  0  0  0  0  0  0  0  0  0  0  0
   27.5860   32.1534   20.0999 C   0  0  0  0  0  0  0  0  0  0  0  0
   27.6434   33.5009   20.4369 C   0  0  1  0  0  0  0  0  0  0  0  0
   27.1750   31.3141   20.9390 O   0  0  0  0  0  0  0  0  0  0  0  0
   27.3208   35.2101   21.9958 C   0  0  1  0  0  0  0  0  0  0  0  0
   27.2629   33.9027   21.6691 N   0  0  0  0  0  0  0  0  0  0  0  0
   26.9266   35.6149   23.2663 C   0  0  0  0  0  0  0  0  0  0  0  0
   26.9772   36.9550   23.6338 C   0  0  2  0  0  0  0  0  0  0  0  0
   26.5339   37.3241   25.0262 C   0  0  0  0  0  0  0  0  0  0  0  0
   27.4306   37.9103   22.7153 C   0  0  2  0  0  0  0  0  0  0  0  0
   27.5076   39.2442   23.0052 N   0  0  0  0  0  0  0  0  0  0  0  0
   27.8229   37.4878   21.4393 C   0  0  0  0  0  0  0  0  0  0  0  0
   27.7727   36.1451   21.0660 C   0  0  2  0  0  0  0  0  0  0  0  0
   28.1008   34.4325   19.4996 C   0  0  2  0  0  0  0  0  0  0  0  0
   28.1510   35.7488   19.8292 N   0  0  0  0  0  0  0  0  0  0  0  0
   26.5660   40.1671   22.4001 C   0  0  0  0  0  0  0  0  0  0  0  0
   28.5036   39.7930   23.9105 C   0  0  0  0  0  0  0  0  0  0  0  0
  1  2  1  0  0  0  0
  3  1  1  1  0  0  0
  3  4  1  0  0  0  0
  3  5  1  0  0  0  0
  5  6  1  1  0  0  0
  5  7  1  0  0  0  0
  7  8  1  6  0  0  0
  7  9  1  0  0  0  0
  9 27  1  0  0  0  0
 10 11  1  0  0  0  0
 11 12  2  0  0  0  0
 11 13  1  0  0  0  0
 13 14  1  0  0  0  0
 14 16  2  0  0  0  0
 15 14  1  1  0  0  0
 15 18  1  0  0  0  0
 15 26  1  0  0  0  0
 17 19  1  1  0  0  0
 17 25  1  0  0  0  0
 17 18  1  0  0  0  0
 19 20  1  0  0  0  0
 20 21  1  6  0  0  0
 20 22  1  0  0  0  0
 22 23  1  6  0  0  0
 22 24  1  0  0  0  0
 23 28  1  0  0  0  0
 23 29  1  0  0  0  0
 25 24  1  6  0  0  0
 25 27  1  0  0  0  0
 26 10  1  6  0  0  0
 26 27  1  0  0  0  0
M  END
>  <CHROM.1>
63.81665677,177.52057279,169.55872986,168.91867272,-108.18828632,-94.92906293
27.72946481,36.45124620,20.09761753,-2.01566803,-1.40335717,3.02490322

>  <Name>
ligand

>  <RI>
0

>  <Rbt.Current_Directory>
/home/itssahil/PROJECTS/Mol_Feturizer/New_Systems/rnas/3F4H

>  <Rbt.Executable>
rbdock ($Id: //depot/dev/client3/rdock/2013.1/src/exe/rbdock.cxx#4 $)

>  <Rbt.Library>
libRbt.so (2013.1, Build901 2013/11/27)

>  <Rbt.Parameter_File>
/export/apps/rDock/src/rDock_2013.1_src/data/scripts/dock_solv.prm

>  <Rbt.Receptor>
prm/blind_docking_100.prm

>  <SCORE>
-48.366

>  <SCORE.INTER>
-30.6249

>  <SCORE.INTER.CONST>
1

>  <SCORE.INTER.POLAR>
0

>  <SCORE.INTER.ROT>
6

>  <SCORE.INTER.SOLV>
9.71787

>  <SCORE.INTER.VDW>
-31.2559

>  <SCORE.INTER.norm>
-1.05603

>  <SCORE.INTRA>
-17.7411

>  <SCORE.INTRA.DIHEDRAL>
-3.86557

>  <SCORE.INTRA.DIHEDRAL.0>
6.83446

>  <SCORE.INTRA.POLAR>
0

>  <SCORE.INTRA.POLAR.0>
0

>  <SCORE.INTRA.REPUL>
0

>  <SCORE.INTRA.REPUL.0>
0

>  <SCORE.INTRA.SOLV>
0.0502038

>  <SCORE.INTRA.SOLV.lig_0>
-26.4601

>  <SCORE.INTRA.VDW>
-15.8334

>  <SCORE.INTRA.VDW.0>
13.7853

>  <SCORE.INTRA.norm>
-0.611763

>  <SCORE.RESTR>
0

>  <SCORE.RESTR.CAVITY>
0

>  <SCORE.RESTR.norm>
0

>  <SCORE.SYSTEM>
0

>  <SCORE.SYSTEM.CONST>
0

>  <SCORE.SYSTEM.DIHEDRAL>
0

>  <SCORE.SYSTEM.SOLV>
0

>  <SCORE.SYSTEM.norm>
0

>  <SCORE.heavy>
29

>  <SCORE.norm>
-1.66779

>  <RMSD>
1.408

$$$$
ligand
 OpenBabel11021811473D
libRbt.so/2013.1/901 2013/11/27
 29 31  0  0  0  0  0  0  0  0999 V2000
   28.5665   40.3343   17.4078 C   0  0  0  0  0  0  0  0  0  0  0  0
   27.5075   41.1426   16.8842 O   0  0  0  0  0  0  0  0  0  0  0  0
   28.1999   39.8724   18.8115 C   0  0  1  0  0  0  0  0  0  0  0  0
   27.7455   40.9990   19.5550 O   0  0  0  0  0  0  0  0  0  0  0  0
   27.1168   38.8027   18.7573 C   0  0  1  0  0  0  0  0  0  0  0  0
   26.0336   39.3388   18.0064 O   0  0  0  0  0  0  0  0  0  0  0  0
   27.5585   37.4641   18.1584 C   0  0  1  0  0  0  0  0  0  0  0  0
   27.9844   37.6889   16.8139 O   0  0  0  0  0  0  0  0  0  0  0  0
   28.7097   36.8079   18.9180 C   0  0  0  0  0  0  0  0  0  0  0  0
   28.5493   34.0599   18.2907 N   0  0  0  0  0  0  0  0  0  0  0  0
   28.4903   32.7397   17.9563 C   0  0  0  0  0  0  0  0  0  0  0  0
   28.8580   32.3549   16.8182 O   0  0  0  0  0  0  0  0  0  0  0  0
   28.0286   31.8263   18.8476 N   0  0  0  0  0  0  0  0  0  0  0  0
   27.6185   32.2055   20.0841 C   0  0  0  0  0  0  0  0  0  0  0  0
   27.6741   33.5484   20.4395 C   0  0  1  0  0  0  0  0  0  0  0  0
   27.1899   31.3569   20.9048 O   0  0  0  0  0  0  0  0  0  0  0  0
   27.3291   35.2384   22.0144 C   0  0  1  0  0  0  0  0  0  0  0  0
   27.2730   33.9355   21.6698 N   0  0  0  0  0  0  0  0  0  0  0  0
   26.9136   35.6281   23.2829 C   0  0  0  0  0  0  0  0  0  0  0  0
   26.9619   36.9632   23.6686 C   0  0  2  0  0  0  0  0  0  0  0  0
   26.4949   37.3157   25.0575 C   0  0  0  0  0  0  0  0  0  0  0  0
   27.4346   37.9287   22.7707 C   0  0  2  0  0  0  0  0  0  0  0  0
   27.5106   39.2585   23.0792 N   0  0  0  0  0  0  0  0  0  0  0  0
   27.8482   37.5214   21.4966 C   0  0  0  0  0  0  0  0  0  0  0  0
   27.8004   36.1838   21.1050 C   0  0  2  0  0  0  0  0  0  0  0  0
   28.1510   34.4904   19.5227 C   0  0  2  0  0  0  0  0  0  0  0  0
   28.1996   35.8022   19.8701 N   0  0  0  0  0  0  0  0  0  0  0  0
   26.5515   40.1851   22.5083 C   0  0  0  0  0  0  0  0  0  0  0  0
   28.5227   39.7992   23.9715 C   0  0  0  0  0  0  0  0  0  0  0  0
  1  2  1  0  0  0  0
  3  1  1  6  0  0  0
  3  4  1  0  0  0  0
  3  5  1  0  0  0  0
  5  6  1  6  0  0  0
  5  7  1  0  0  0  0
  7  8  1  6  0  0  0
  7  9  1  0  0  0  0
  9 27  1  0  0  0  0
 10 11  1  0  0  0  0
 11 12  2  0  0  0  0
 11 13  1  0  0  0  0
 13 14  1  0  0  0  0
 14 16  2  0  0  0  0
 15 14  1  1  0  0  0
 15 18  1  0  0  0  0
 15 26  1  0  0  0  0
 17 19  1  1  0  0  0
 17 25  1  0  0  0  0
 17 18  1  0  0  0  0
 19 20  1  0  0  0  0
 20 21  1  6  0  0  0
 20 22  1  0  0  0  0
 22 23  1  6  0  0  0
 22 24  1  0  0  0  0
 23 28  1  0  0  0  0
 23 29  1  0  0  0  0
 25 24  1  6  0  0  0
 25 27  1  0  0  0  0
 26 10  1  6  0  0  0
 26 27  1  0  0  0  0
M  END
>  <CHROM.1>
-48.16116781,-54.34536510,-60.53296602,96.89228334,-105.89016313,-85.35778882
27.67939644,36.66678509,20.15778313,-2.03437174,-1.42731442,2.80585445

>  <Name>
ligand

>  <RI>
0

>  <Rbt.Current_Directory>
/home/itssahil/PROJECTS/Mol_Feturizer/New_Systems/rnas/3F4H

>  <Rbt.Executable>
rbdock ($Id: //depot/dev/client3/rdock/2013.1/src/exe/rbdock.cxx#4 $)

>  <Rbt.Library>
libRbt.so (2013.1, Build901 2013/11/27)

>  <Rbt.Parameter_File>
/export/apps/rDock/src/rDock_2013.1_src/data/scripts/dock_solv.prm

>  <Rbt.Receptor>
prm/pocket_docking_7.prm

>  <SCORE>
-45.2065

>  <SCORE.INTER>
-30.4411

>  <SCORE.INTER.CONST>
1

>  <SCORE.INTER.POLAR>
0

>  <SCORE.INTER.ROT>
6

>  <SCORE.INTER.SOLV>
10.2954

>  <SCORE.INTER.VDW>
-31.3259

>  <SCORE.INTER.norm>
-1.04969

>  <SCORE.INTRA>
-14.7654

>  <SCORE.INTRA.DIHEDRAL>
-0.595872

>  <SCORE.INTRA.DIHEDRAL.0>
6.83446

>  <SCORE.INTRA.POLAR>
0

>  <SCORE.INTRA.POLAR.0>
0

>  <SCORE.INTRA.REPUL>
0

>  <SCORE.INTRA.REPUL.0>
0

>  <SCORE.INTRA.SOLV>
0.842727

>  <SCORE.INTRA.SOLV.lig_0>
-26.4601

>  <SCORE.INTRA.VDW>
-14.8888

>  <SCORE.INTRA.VDW.0>
13.7853

>  <SCORE.INTRA.norm>
-0.509151

>  <SCORE.RESTR>
0

>  <SCORE.RESTR.CAVITY>
0

>  <SCORE.RESTR.norm>
0

>  <SCORE.SYSTEM>
0

>  <SCORE.SYSTEM.CONST>
0

>  <SCORE.SYSTEM.DIHEDRAL>
0

>  <SCORE.SYSTEM.SOLV>
0

>  <SCORE.SYSTEM.norm>
0

>  <SCORE.heavy>
29

>  <SCORE.norm>
-1.55885

>  <RMSD>
1.409

$$$$
ligand
 OpenBabel11021811473D
libRbt.so/2013.1/901 2013/11/27
 29 31  0  0  0  0  0  0  0  0999 V2000
   29.5022   39.7720   15.5947 C   0  0  0  0  0  0  0  0  0  0  0  0
   30.2658   40.5408   16.5300 O   0  0  0  0  0  0  0  0  0  0  0  0
   29.0475   38.4794   16.2585 C   0  0  1  0  0  0  0  0  0  0  0  0
   30.1967   37.7857   16.7343 O   0  0  0  0  0  0  0  0  0  0  0  0
   28.0941   38.7751   17.4091 C   0  0  1  0  0  0  0  0  0  0  0  0
   26.9628   39.4390   16.8576 O   0  0  0  0  0  0  0  0  0  0  0  0
   27.6444   37.5487   18.2086 C   0  0  1  0  0  0  0  0  0  0  0  0
   27.1379   36.5745   17.2954 O   0  0  0  0  0  0  0  0  0  0  0  0
   28.7685   36.9034   19.0165 C   0  0  0  0  0  0  0  0  0  0  0  0
   28.5753   34.1661   18.3521 N   0  0  0  0  0  0  0  0  0  0  0  0
   28.5012   32.8513   18.0002 C   0  0  0  0  0  0  0  0  0  0  0  0
   28.8807   32.4749   16.8632 O   0  0  0  0  0  0  0  0  0  0  0  0
   28.0113   31.9343   18.8726 N   0  0  0  0  0  0  0  0  0  0  0  0
   27.5875   32.3046   20.1071 C   0  0  0  0  0  0  0  0  0  0  0  0
   27.6584   33.6419   20.4803 C   0  0  1  0  0  0  0  0  0  0  0  0
   27.1329   31.4527   20.9103 O   0  0  0  0  0  0  0  0  0  0  0  0
   27.3148   35.3175   22.0709 C   0  0  1  0  0  0  0  0  0  0  0  0
   27.2439   34.0201   21.7090 N   0  0  0  0  0  0  0  0  0  0  0  0
   26.8854   35.6980   23.3375 C   0  0  0  0  0  0  0  0  0  0  0  0
   26.9482   37.0272   23.7408 C   0  0  2  0  0  0  0  0  0  0  0  0
   26.4649   37.3698   25.1266 C   0  0  0  0  0  0  0  0  0  0  0  0
   27.4501   37.9963   22.8627 C   0  0  2  0  0  0  0  0  0  0  0  0
   27.5419   39.3207   23.1891 N   0  0  0  0  0  0  0  0  0  0  0  0
   27.8775   37.5983   21.5901 C   0  0  0  0  0  0  0  0  0  0  0  0
   27.8151   36.2666   21.1810 C   0  0  2  0  0  0  0  0  0  0  0  0
   28.1644   34.5876   19.5831 C   0  0  2  0  0  0  0  0  0  0  0  0
   28.2278   35.8941   19.9478 N   0  0  0  0  0  0  0  0  0  0  0  0
   26.5771   40.2620   22.6528 C   0  0  0  0  0  0  0  0  0  0  0  0
   28.5765   39.8413   24.0673 C   0  0  0  0  0  0  0  0  0  0  0  0
  1  2  1  0  0  0  0
  3  1  1  1  0  0  0
  3  4  1  0  0  0  0
  3  5  1  0  0  0  0
  5  6  1  6  0  0  0
  5  7  1  0  0  0  0
  7  8  1  6  0  0  0
  7  9  1  0  0  0  0
  9 27  1  0  0  0  0
 10 11  1  0  0  0  0
 11 12  2  0  0  0  0
 11 13  1  0  0  0  0
 13 14  1  0  0  0  0
 14 16  2  0  0  0  0
 15 14  1  1  0  0  0
 15 18  1  0  0  0  0
 15 26  1  0  0  0  0
 17 19  1  1  0  0  0
 17 25  1  0  0  0  0
 17 18  1  0  0  0  0
 19 20  1  0  0  0  0
 20 21  1  6  0  0  0
 20 22  1  0  0  0  0
 22 23  1  6  0  0  0
 22 24  1  0  0  0  0
 23 28  1  0  0  0  0
 23 29  1  0  0  0  0
 25 24  1  6  0  0  0
 25 27  1  0  0  0  0
 26 10  1  6  0  0  0
 26 27  1  0  0  0  0
M  END
>  <CHROM.1>
-56.62093109,61.15761361,-52.16924652,169.55532520,-103.69575109,-87.54835588
27.99070708,36.46923236,19.86044727,-0.01862990,1.31260806,0.25103352

>  <Name>
ligand

>  <RI>
0

>  <Rbt.Current_Directory>
/home/itssahil/PROJECTS/Mol_Feturizer/New_Systems/rnas/3F4H

>  <Rbt.Executable>
rbdock ($Id: //depot/dev/client3/rdock/2013.1/src/exe/rbdock.cxx#4 $)

>  <Rbt.Library>
libRbt.so (2013.1, Build901 2013/11/27)

>  <Rbt.Parameter_File>
/export/apps/rDock/src/rDock_2013.1_src/data/scripts/dock_solv.prm

>  <Rbt.Receptor>
prm/pocket_docking_8.prm

>  <SCORE>
-48.7241

>  <SCORE.INTER>
-31.4847

>  <SCORE.INTER.CONST>
1

>  <SCORE.INTER.POLAR>
0

>  <SCORE.INTER.ROT>
6

>  <SCORE.INTER.SOLV>
11.3396

>  <SCORE.INTER.VDW>
-32.3697

>  <SCORE.INTER.norm>
-1.08568

>  <SCORE.INTRA>
-17.2394

>  <SCORE.INTRA.DIHEDRAL>
-4.1217

>  <SCORE.INTRA.DIHEDRAL.0>
6.83446

>  <SCORE.INTRA.POLAR>
0

>  <SCORE.INTRA.POLAR.0>
0

>  <SCORE.INTRA.REPUL>
0

>  <SCORE.INTRA.REPUL.0>
0

>  <SCORE.INTRA.SOLV>
0.166661

>  <SCORE.INTRA.SOLV.lig_0>
-26.4601

>  <SCORE.INTRA.VDW>
-15.2619

>  <SCORE.INTRA.VDW.0>
13.7853

>  <SCORE.INTRA.norm>
-0.594462

>  <SCORE.RESTR>
0

>  <SCORE.RESTR.CAVITY>
0

>  <SCORE.RESTR.norm>
0

>  <SCORE.SYSTEM>
0

>  <SCORE.SYSTEM.CONST>
0

>  <SCORE.SYSTEM.DIHEDRAL>
0

>  <SCORE.SYSTEM.SOLV>
0

>  <SCORE.SYSTEM.norm>
0

>  <SCORE.heavy>
29

>  <SCORE.norm>
-1.68014

>  <RMSD>
1.410

$$$$
ligand
 OpenBabel11021811473D
libRbt.so/2013.1/901 2013/11/27
 29 31  0  0  0  0  0  0  0  0999 V2000
   29.2448   40.0555   15.7398 C   0  0  0  0  0  0  0  0  0  0  0  0
   30.3848   40.4791   16.4947 O   0  0  0  0  0  0  0  0  0  0  0  0
   28.6807   38.7812   16.3530 C   0  0  1  0  0  0  0  0  0  0  0  0
   29.7099   37.7971   16.3803 O   0  0  0  0  0  0  0  0  0  0  0  0
   28.1659   39.0473   17.7618 C   0  0  1  0  0  0  0  0  0  0  0  0
   27.1436   40.0314   17.6569 O   0  0  0  0  0  0  0  0  0  0  0  0
   27.6343   37.8154   18.5002 C   0  0  1  0  0  0  0  0  0  0  0  0
   26.7358   37.1216   17.6337 O   0  0  0  0  0  0  0  0  0  0  0  0
   28.7308   36.8412   18.9262 C   0  0  0  0  0  0  0  0  0  0  0  0
   28.5378   34.0960   18.2955 N   0  0  0  0  0  0  0  0  0  0  0  0
   28.4635   32.7769   17.9597 C   0  0  0  0  0  0  0  0  0  0  0  0
   28.8339   32.3881   16.8239 O   0  0  0  0  0  0  0  0  0  0  0  0
   27.9833   31.8692   18.8470 N   0  0  0  0  0  0  0  0  0  0  0  0
   27.5695   32.2530   20.0808 C   0  0  0  0  0  0  0  0  0  0  0  0
   27.6407   33.5948   20.4377 C   0  0  1  0  0  0  0  0  0  0  0  0
   27.1238   31.4096   20.8978 O   0  0  0  0  0  0  0  0  0  0  0  0
   27.3074   35.2881   22.0116 C   0  0  1  0  0  0  0  0  0  0  0  0
   27.2362   33.9864   21.6655 N   0  0  0  0  0  0  0  0  0  0  0  0
   26.8882   35.6825   23.2774 C   0  0  0  0  0  0  0  0  0  0  0  0
   26.9517   37.0165   23.6645 C   0  0  2  0  0  0  0  0  0  0  0  0
   26.4798   37.3743   25.0504 C   0  0  0  0  0  0  0  0  0  0  0  0
   27.4437   37.9763   22.7708 C   0  0  2  0  0  0  0  0  0  0  0  0
   27.5355   39.3046   23.0809 N   0  0  0  0  0  0  0  0  0  0  0  0
   27.8608   37.5643   21.4992 C   0  0  0  0  0  0  0  0  0  0  0  0
   27.7978   36.2278   21.1063 C   0  0  2  0  0  0  0  0  0  0  0  0
   28.1368   34.5310   19.5251 C   0  0  2  0  0  0  0  0  0  0  0  0
   28.2005   35.8417   19.8739 N   0  0  0  0  0  0  0  0  0  0  0  0
   26.6183   40.2500   22.4730 C   0  0  0  0  0  0  0  0  0  0  0  0
   28.5237   39.8257   24.0108 C   0  0  0  0  0  0  0  0  0  0  0  0
  1  2  1  0  0  0  0
  3  1  1  1  0  0  0
  3  4  1  0  0  0  0
  3  5  1  0  0  0  0
  5  6  1  6  0  0  0
  5  7  1  0  0  0  0
  7  8  1  6  0  0  0
  7  9  1  0  0  0  0
  9 27  1  0  0  0  0
 10 11  1  0  0  0  0
 11 12  2  0  0  0  0
 11 13  1  0  0  0  0
 13 14  1  0  0  0  0
 14 16  2  0  0  0  0
 15 14  1  1  0  0  0
 15 18  1  0  0  0  0
 15 26  1  0  0  0  0
 17 19  1  1  0  0  0
 17 25  1  0  0  0  0
 17 18  1  0  0  0  0
 19 20  1  0  0  0  0
 20 21  1  6  0  0  0
 20 22  1  0  0  0  0
 22 23  1  6  0  0  0
 22 24  1  0  0  0  0
 23 28  1  0  0  0  0
 23 29  1  0  0  0  0
 25 24  1  6  0  0  0
 25 27  1  0  0  0  0
 26 10  1  6  0  0  0
 26 27  1  0  0  0  0
M  END
>  <CHROM.1>
-57.07809564,60.07870362,-48.71511445,167.68054266,-107.73165162,-66.93590984
27.93651605,36.52240422,19.87316793,-1.03255694,-1.31693261,-2.93851913

>  <Name>
ligand

>  <RI>
0

>  <Rbt.Current_Directory>
/home/itssahil/PROJECTS/Mol_Feturizer/New_Systems/rnas/3F4H

>  <Rbt.Executable>
rbdock ($Id: //depot/dev/client3/rdock/2013.1/src/exe/rbdock.cxx#4 $)

>  <Rbt.Library>
libRbt.so (2013.1, Build901 2013/11/27)

>  <Rbt.Parameter_File>
/export/apps/rDock/src/rDock_2013.1_src/data/scripts/dock_solv.prm

>  <Rbt.Receptor>
prm/blind_docking_80.prm

>  <SCORE>
-48.6207

>  <SCORE.INTER>
-31.8695

>  <SCORE.INTER.CONST>
1

>  <SCORE.INTER.POLAR>
0

>  <SCORE.INTER.ROT>
6

>  <SCORE.INTER.SOLV>
11.2479

>  <SCORE.INTER.VDW>
-32.5956

>  <SCORE.INTER.norm>
-1.09895

>  <SCORE.INTRA>
-16.7512

>  <SCORE.INTRA.DIHEDRAL>
-3.78524

>  <SCORE.INTRA.DIHEDRAL.0>
6.83446

>  <SCORE.INTRA.POLAR>
0

>  <SCORE.INTRA.POLAR.0>
0

>  <SCORE.INTRA.REPUL>
0

>  <SCORE.INTRA.REPUL.0>
0

>  <SCORE.INTRA.SOLV>
0.105607

>  <SCORE.INTRA.SOLV.lig_0>
-26.4601

>  <SCORE.INTRA.VDW>
-14.9114

>  <SCORE.INTRA.VDW.0>
13.7853

>  <SCORE.INTRA.norm>
-0.577628

>  <SCORE.RESTR>
0

>  <SCORE.RESTR.CAVITY>
0

>  <SCORE.RESTR.norm>
0

>  <SCORE.SYSTEM>
0

>  <SCORE.SYSTEM.CONST>
0

>  <SCORE.SYSTEM.DIHEDRAL>
0

>  <SCORE.SYSTEM.SOLV>
0

>  <SCORE.SYSTEM.norm>
0

>  <SCORE.heavy>
29

>  <SCORE.norm>
-1.67658

>  <RMSD>
1.412

$$$$
ligand
 OpenBabel11021811473D
libRbt.so/2013.1/901 2013/11/27
 29 31  0  0  0  0  0  0  0  0999 V2000
   29.2514   40.0554   15.7332 C   0  0  0  0  0  0  0  0  0  0  0  0
   30.3233   40.5384   16.5496 O   0  0  0  0  0  0  0  0  0  0  0  0
   28.7158   38.7576   16.3222 C   0  0  1  0  0  0  0  0  0  0  0  0
   29.7922   37.8316   16.4322 O   0  0  0  0  0  0  0  0  0  0  0  0
   28.0914   39.0076   17.6890 C   0  0  1  0  0  0  0  0  0  0  0  0
   27.0170   39.9211   17.4996 O   0  0  0  0  0  0  0  0  0  0  0  0
   27.5921   37.7531   18.4118 C   0  0  1  0  0  0  0  0  0  0  0  0
   26.8274   36.9747   17.4905 O   0  0  0  0  0  0  0  0  0  0  0  0
   28.7178   36.8756   18.9555 C   0  0  0  0  0  0  0  0  0  0  0  0
   28.5449   34.1284   18.3274 N   0  0  0  0  0  0  0  0  0  0  0  0
   28.4804   32.8085   17.9930 C   0  0  0  0  0  0  0  0  0  0  0  0
   28.8602   32.4203   16.8601 O   0  0  0  0  0  0  0  0  0  0  0  0
   28.0000   31.8992   18.8786 N   0  0  0  0  0  0  0  0  0  0  0  0
   27.5764   32.2822   20.1093 C   0  0  0  0  0  0  0  0  0  0  0  0
   27.6375   33.6249   20.4647 C   0  0  1  0  0  0  0  0  0  0  0  0
   27.1306   31.4373   20.9247 O   0  0  0  0  0  0  0  0  0  0  0  0
   27.2844   35.3183   22.0341 C   0  0  1  0  0  0  0  0  0  0  0  0
   27.2230   34.0158   21.6894 N   0  0  0  0  0  0  0  0  0  0  0  0
   26.8551   35.7120   23.2967 C   0  0  0  0  0  0  0  0  0  0  0  0
   26.9084   37.0469   23.6824 C   0  0  2  0  0  0  0  0  0  0  0  0
   26.4258   37.4038   25.0648 C   0  0  0  0  0  0  0  0  0  0  0  0
   27.4002   38.0083   22.7904 C   0  0  2  0  0  0  0  0  0  0  0  0
   27.4823   39.3376   23.0992 N   0  0  0  0  0  0  0  0  0  0  0  0
   27.8277   37.5970   21.5220 C   0  0  0  0  0  0  0  0  0  0  0  0
   27.7749   36.2596   21.1306 C   0  0  2  0  0  0  0  0  0  0  0  0
   28.1337   34.5627   19.5538 C   0  0  2  0  0  0  0  0  0  0  0  0
   28.1875   35.8743   19.9012 N   0  0  0  0  0  0  0  0  0  0  0  0
   28.5485   39.8111   23.9614 C   0  0  0  0  0  0  0  0  0  0  0  0
   26.5374   40.3193   22.5929 C   0  0  0  0  0  0  0  0  0  0  0  0
  1  2  1  0  0  0  0
  3  1  1  1  0  0  0
  3  4  1  0  0  0  0
  3  5  1  0  0  0  0
  5  6  1  6  0  0  0
  5  7  1  0  0  0  0
  7  8  1  6  0  0  0
  7  9  1  0  0  0  0
  9 27  1  0  0  0  0
 10 11  1  0  0  0  0
 11 12  2  0  0  0  0
 11 13  1  0  0  0  0
 13 14  1  0  0  0  0
 14 16  2  0  0  0  0
 15 14  1  1  0  0  0
 15 18  1  0  0  0  0
 15 26  1  0  0  0  0
 17 19  1  1  0  0  0
 17 25  1  0  0  0  0
 17 18  1  0  0  0  0
 19 20  1  0  0  0  0
 20 21  1  6  0  0  0
 20 22  1  0  0  0  0
 22 23  1  6  0  0  0
 22 24  1  0  0  0  0
 23 28  1  0  0  0  0
 23 29  1  0  0  0  0
 25 24  1  6  0  0  0
 25 27  1  0  0  0  0
 26 10  1  6  0  0  0
 26 27  1  0  0  0  0
M  END
>  <CHROM.1>
-56.35018720,60.76121025,-47.33222313,166.55636247,76.80249965,-72.70734579
27.92278882,36.53338091,19.87767950,-0.94646636,-1.31583618,-2.96006478

>  <Name>
ligand

>  <RI>
0

>  <Rbt.Current_Directory>
/home/itssahil/PROJECTS/Mol_Feturizer/New_Systems/rnas/3F4H

>  <Rbt.Executable>
rbdock ($Id: //depot/dev/client3/rdock/2013.1/src/exe/rbdock.cxx#4 $)

>  <Rbt.Library>
libRbt.so (2013.1, Build901 2013/11/27)

>  <Rbt.Parameter_File>
/export/apps/rDock/src/rDock_2013.1_src/data/scripts/dock_solv.prm

>  <Rbt.Receptor>
prm/blind_docking_80.prm

>  <SCORE>
-48.6667

>  <SCORE.INTER>
-31.6908

>  <SCORE.INTER.CONST>
1

>  <SCORE.INTER.POLAR>
0

>  <SCORE.INTER.ROT>
6

>  <SCORE.INTER.SOLV>
11.3139

>  <SCORE.INTER.VDW>
-32.4985

>  <SCORE.INTER.norm>
-1.09279

>  <SCORE.INTRA>
-16.9759

>  <SCORE.INTRA.DIHEDRAL>
-3.54491

>  <SCORE.INTRA.DIHEDRAL.0>
6.83446

>  <SCORE.INTRA.POLAR>
0

>  <SCORE.INTRA.POLAR.0>
0

>  <SCORE.INTRA.REPUL>
0

>  <SCORE.INTRA.REPUL.0>
0

>  <SCORE.INTRA.SOLV>
0.112863

>  <SCORE.INTRA.SOLV.lig_0>
-26.4601

>  <SCORE.INTRA.VDW>
-15.2599

>  <SCORE.INTRA.VDW.0>
13.7853

>  <SCORE.INTRA.norm>
-0.585377

>  <SCORE.RESTR>
0

>  <SCORE.RESTR.CAVITY>
0

>  <SCORE.RESTR.norm>
0

>  <SCORE.SYSTEM>
0

>  <SCORE.SYSTEM.CONST>
0

>  <SCORE.SYSTEM.DIHEDRAL>
0

>  <SCORE.SYSTEM.SOLV>
0

>  <SCORE.SYSTEM.norm>
0

>  <SCORE.heavy>
29

>  <SCORE.norm>
-1.67816

>  <RMSD>
1.412

$$$$
ligand
 OpenBabel11021811473D
libRbt.so/2013.1/901 2013/11/27
 29 31  0  0  0  0  0  0  0  0999 V2000
   29.3603   39.8928   15.7704 C   0  0  0  0  0  0  0  0  0  0  0  0
   28.4150   40.9583   15.6291 O   0  0  0  0  0  0  0  0  0  0  0  0
   28.6453   38.6508   16.2847 C   0  0  1  0  0  0  0  0  0  0  0  0
   29.5791   37.5764   16.3297 O   0  0  0  0  0  0  0  0  0  0  0  0
   28.0626   38.9034   17.6693 C   0  0  1  0  0  0  0  0  0  0  0  0
   26.9943   39.8303   17.5131 O   0  0  0  0  0  0  0  0  0  0  0  0
   27.5686   37.6524   18.4018 C   0  0  1  0  0  0  0  0  0  0  0  0
   26.7704   36.8856   17.4993 O   0  0  0  0  0  0  0  0  0  0  0  0
   28.6985   36.7603   18.9122 C   0  0  0  0  0  0  0  0  0  0  0  0
   28.5206   34.0090   18.3042 N   0  0  0  0  0  0  0  0  0  0  0  0
   28.4533   32.6869   17.9791 C   0  0  0  0  0  0  0  0  0  0  0  0
   28.8176   32.2920   16.8434 O   0  0  0  0  0  0  0  0  0  0  0  0
   27.9868   31.7826   18.8772 N   0  0  0  0  0  0  0  0  0  0  0  0
   27.5801   32.1729   20.1113 C   0  0  0  0  0  0  0  0  0  0  0  0
   27.6443   33.5179   20.4573 C   0  0  1  0  0  0  0  0  0  0  0  0
   27.1471   31.3327   20.9383 O   0  0  0  0  0  0  0  0  0  0  0  0
   27.3110   35.2209   22.0207 C   0  0  1  0  0  0  0  0  0  0  0  0
   27.2466   33.9160   21.6852 N   0  0  0  0  0  0  0  0  0  0  0  0
   26.8991   35.6220   23.2868 C   0  0  0  0  0  0  0  0  0  0  0  0
   26.9558   36.9594   23.6631 C   0  0  2  0  0  0  0  0  0  0  0  0
   26.4923   37.3245   25.0500 C   0  0  0  0  0  0  0  0  0  0  0  0
   27.4337   37.9157   22.7581 C   0  0  2  0  0  0  0  0  0  0  0  0
   27.5181   39.2471   23.0573 N   0  0  0  0  0  0  0  0  0  0  0  0
   27.8437   37.4970   21.4865 C   0  0  0  0  0  0  0  0  0  0  0  0
   27.7873   36.1570   21.1043 C   0  0  2  0  0  0  0  0  0  0  0  0
   28.1262   34.4506   19.5335 C   0  0  2  0  0  0  0  0  0  0  0  0
   28.1830   35.7644   19.8718 N   0  0  0  0  0  0  0  0  0  0  0  0
   26.5777   40.1786   22.4636 C   0  0  0  0  0  0  0  0  0  0  0  0
   28.5210   39.7849   23.9616 C   0  0  0  0  0  0  0  0  0  0  0  0
  1  2  1  0  0  0  0
  3  1  1  1  0  0  0
  3  4  1  0  0  0  0
  3  5  1  0  0  0  0
  5  6  1  6  0  0  0
  5  7  1  0  0  0  0
  7  8  1  6  0  0  0
  7  9  1  0  0  0  0
  9 27  1  0  0  0  0
 10 11  1  0  0  0  0
 11 12  2  0  0  0  0
 11 13  1  0  0  0  0
 13 14  1  0  0  0  0
 14 16  2  0  0  0  0
 15 14  1  1  0  0  0
 15 18  1  0  0  0  0
 15 26  1  0  0  0  0
 17 19  1  1  0  0  0
 17 25  1  0  0  0  0
 17 18  1  0  0  0  0
 19 20  1  0  0  0  0
 20 21  1  6  0  0  0
 20 22  1  0  0  0  0
 22 23  1  6  0  0  0
 22 24  1  0  0  0  0
 23 28  1  0  0  0  0
 23 29  1  0  0  0  0
 25 24  1  6  0  0  0
 25 27  1  0  0  0  0
 26 10  1  6  0  0  0
 26 27  1  0  0  0  0
M  END
>  <CHROM.1>
175.94816993,69.05541210,-47.26422810,166.41132773,-106.89648725,-71.49126799
27.84078166,36.44454085,19.82067373,-1.05478466,-1.37453448,3.14131097

>  <Name>
ligand

>  <RI>
0

>  <Rbt.Current_Directory>
/home/itssahil/PROJECTS/Mol_Feturizer/New_Systems/rnas/3F4H

>  <Rbt.Executable>
rbdock ($Id: //depot/dev/client3/rdock/2013.1/src/exe/rbdock.cxx#4 $)

>  <Rbt.Library>
libRbt.so (2013.1, Build901 2013/11/27)

>  <Rbt.Parameter_File>
/export/apps/rDock/src/rDock_2013.1_src/data/scripts/dock_solv.prm

>  <Rbt.Receptor>
prm/pocket_docking_7.prm

>  <SCORE>
-48.198

>  <SCORE.INTER>
-31.8063

>  <SCORE.INTER.CONST>
1

>  <SCORE.INTER.POLAR>
0

>  <SCORE.INTER.ROT>
6

>  <SCORE.INTER.SOLV>
11.3584

>  <SCORE.INTER.VDW>
-32.5903

>  <SCORE.INTER.norm>
-1.09677

>  <SCORE.INTRA>
-16.3916

>  <SCORE.INTRA.DIHEDRAL>
-3.2174

>  <SCORE.INTRA.DIHEDRAL.0>
6.83446

>  <SCORE.INTRA.POLAR>
0

>  <SCORE.INTRA.POLAR.0>
0

>  <SCORE.INTRA.REPUL>
0

>  <SCORE.INTRA.REPUL.0>
0

>  <SCORE.INTRA.SOLV>
0.143494

>  <SCORE.INTRA.SOLV.lig_0>
-26.4601

>  <SCORE.INTRA.VDW>
-14.8547

>  <SCORE.INTRA.VDW.0>
13.7853

>  <SCORE.INTRA.norm>
-0.565229

>  <SCORE.RESTR>
0

>  <SCORE.RESTR.CAVITY>
0

>  <SCORE.RESTR.norm>
0

>  <SCORE.SYSTEM>
0

>  <SCORE.SYSTEM.CONST>
0

>  <SCORE.SYSTEM.DIHEDRAL>
0

>  <SCORE.SYSTEM.SOLV>
0

>  <SCORE.SYSTEM.norm>
0

>  <SCORE.heavy>
29

>  <SCORE.norm>
-1.662

>  <RMSD>
1.412

$$$$
ligand
 OpenBabel11021811473D
libRbt.so/2013.1/901 2013/11/27
 29 31  0  0  0  0  0  0  0  0999 V2000
   26.6015   40.1712   18.8152 C   0  0  0  0  0  0  0  0  0  0  0  0
   25.5861   40.4216   17.8379 O   0  0  0  0  0  0  0  0  0  0  0  0
   27.9250   39.9088   18.1097 C   0  0  1  0  0  0  0  0  0  0  0  0
   28.9432   39.7652   19.0951 O   0  0  0  0  0  0  0  0  0  0  0  0
   27.8356   38.6515   17.2544 C   0  0  1  0  0  0  0  0  0  0  0  0
   29.0838   38.5076   16.5867 O   0  0  0  0  0  0  0  0  0  0  0  0
   27.5004   37.3691   18.0218 C   0  0  1  0  0  0  0  0  0  0  0  0
   27.1978   36.3425   17.0762 O   0  0  0  0  0  0  0  0  0  0  0  0
   28.6409   36.8758   18.9099 C   0  0  0  0  0  0  0  0  0  0  0  0
   28.4908   34.1257   18.2891 N   0  0  0  0  0  0  0  0  0  0  0  0
   28.4363   32.8046   17.9576 C   0  0  0  0  0  0  0  0  0  0  0  0
   28.7882   32.4209   16.8142 O   0  0  0  0  0  0  0  0  0  0  0  0
   27.9959   31.8891   18.8575 N   0  0  0  0  0  0  0  0  0  0  0  0
   27.6031   32.2672   20.0999 C   0  0  0  0  0  0  0  0  0  0  0  0
   27.6545   33.6110   20.4525 C   0  0  1  0  0  0  0  0  0  0  0  0
   27.1943   31.4166   20.9287 O   0  0  0  0  0  0  0  0  0  0  0  0
   27.3225   35.3007   22.0305 C   0  0  1  0  0  0  0  0  0  0  0  0
   27.2705   33.9970   21.6887 N   0  0  0  0  0  0  0  0  0  0  0  0
   26.9247   35.6892   23.3050 C   0  0  0  0  0  0  0  0  0  0  0  0
   26.9693   37.0252   23.6881 C   0  0  2  0  0  0  0  0  0  0  0  0
   26.5224   37.3764   25.0839 C   0  0  0  0  0  0  0  0  0  0  0  0
   27.4202   37.9929   22.7813 C   0  0  2  0  0  0  0  0  0  0  0  0
   27.4913   39.3236   23.0867 N   0  0  0  0  0  0  0  0  0  0  0  0
   27.8161   37.5867   21.5012 C   0  0  0  0  0  0  0  0  0  0  0  0
   27.7719   36.2482   21.1123 C   0  0  2  0  0  0  0  0  0  0  0  0
   28.1094   34.5551   19.5268 C   0  0  2  0  0  0  0  0  0  0  0  0
   28.1538   35.8678   19.8716 N   0  0  0  0  0  0  0  0  0  0  0  0
   26.5325   40.2462   22.5087 C   0  0  0  0  0  0  0  0  0  0  0  0
   28.4976   39.8693   23.9825 C   0  0  0  0  0  0  0  0  0  0  0  0
  1  2  1  0  0  0  0
  3  1  1  1  0  0  0
  3  4  1  0  0  0  0
  3  5  1  0  0  0  0
  5  6  1  1  0  0  0
  5  7  1  0  0  0  0
  7  8  1  6  0  0  0
  7  9  1  0  0  0  0
  9 27  1  0  0  0  0
 10 11  1  0  0  0  0
 11 12  2  0  0  0  0
 11 13  1  0  0  0  0
 13 14  1  0  0  0  0
 14 16  2  0  0  0  0
 15 14  1  1  0  0  0
 15 18  1  0  0  0  0
 15 26  1  0  0  0  0
 17 19  1  1  0  0  0
 17 25  1  0  0  0  0
 17 18  1  0  0  0  0
 19 20  1  0  0  0  0
 20 21  1  6  0  0  0
 20 22  1  0  0  0  0
 22 23  1  6  0  0  0
 22 24  1  0  0  0  0
 23 28  1  0  0  0  0
 23 29  1  0  0  0  0
 25 24  1  6  0  0  0
 25 27  1  0  0  0  0
 26 10  1  6  0  0  0
 26 27  1  0  0  0  0
M  END
>  <CHROM.1>
175.53062823,177.51816336,168.94200450,165.26465800,-107.13436315,-93.93456742
27.66756526,36.53327266,20.11084356,-2.32168643,-1.42911419,2.73215620

>  <Name>
ligand

>  <RI>
0

>  <Rbt.Current_Directory>
/home/itssahil/PROJECTS/Mol_Feturizer/New_Systems/rnas/3F4H

>  <Rbt.Executable>
rbdock ($Id: //depot/dev/client3/rdock/2013.1/src/exe/rbdock.cxx#4 $)

>  <Rbt.Library>
libRbt.so (2013.1, Build901 2013/11/27)

>  <Rbt.Parameter_File>
/export/apps/rDock/src/rDock_2013.1_src/data/scripts/dock_solv.prm

>  <Rbt.Receptor>
prm/pocket_docking_6.prm

>  <SCORE>
-48.277

>  <SCORE.INTER>
-30.6719

>  <SCORE.INTER.CONST>
1

>  <SCORE.INTER.POLAR>
0

>  <SCORE.INTER.ROT>
6

>  <SCORE.INTER.SOLV>
10.182

>  <SCORE.INTER.VDW>
-31.4419

>  <SCORE.INTER.norm>
-1.05765

>  <SCORE.INTRA>
-17.6051

>  <SCORE.INTRA.DIHEDRAL>
-3.48001

>  <SCORE.INTRA.DIHEDRAL.0>
6.83446

>  <SCORE.INTRA.POLAR>
0

>  <SCORE.INTRA.POLAR.0>
0

>  <SCORE.INTRA.REPUL>
0

>  <SCORE.INTRA.REPUL.0>
0

>  <SCORE.INTRA.SOLV>
0.00063789

>  <SCORE.INTRA.SOLV.lig_0>
-26.4601

>  <SCORE.INTRA.VDW>
-15.8654

>  <SCORE.INTRA.VDW.0>
13.7853

>  <SCORE.INTRA.norm>
-0.607073

>  <SCORE.RESTR>
0

>  <SCORE.RESTR.CAVITY>
0

>  <SCORE.RESTR.norm>
0

>  <SCORE.SYSTEM>
0

>  <SCORE.SYSTEM.CONST>
0

>  <SCORE.SYSTEM.DIHEDRAL>
0

>  <SCORE.SYSTEM.SOLV>
0

>  <SCORE.SYSTEM.norm>
0

>  <SCORE.heavy>
29

>  <SCORE.norm>
-1.66472

>  <RMSD>
1.413

$$$$
ligand
 OpenBabel11021811473D
libRbt.so/2013.1/901 2013/11/27
 29 31  0  0  0  0  0  0  0  0999 V2000
   26.4716   40.0423   18.5671 C   0  0  0  0  0  0  0  0  0  0  0  0
   26.5889   41.3312   19.1787 O   0  0  0  0  0  0  0  0  0  0  0  0
   27.7465   39.7345   17.7938 C   0  0  1  0  0  0  0  0  0  0  0  0
   28.8278   39.6520   18.7171 O   0  0  0  0  0  0  0  0  0  0  0  0
   27.6048   38.4260   17.0270 C   0  0  1  0  0  0  0  0  0  0  0  0
   28.8056   38.2407   16.2863 O   0  0  0  0  0  0  0  0  0  0  0  0
   27.3279   37.1943   17.8940 C   0  0  1  0  0  0  0  0  0  0  0  0
   26.9793   36.1069   17.0363 O   0  0  0  0  0  0  0  0  0  0  0  0
   28.5237   36.7660   18.7421 C   0  0  0  0  0  0  0  0  0  0  0  0
   28.4070   34.0008   18.1843 N   0  0  0  0  0  0  0  0  0  0  0  0
   28.3665   32.6722   17.8821 C   0  0  0  0  0  0  0  0  0  0  0  0
   28.6626   32.2732   16.7282 O   0  0  0  0  0  0  0  0  0  0  0  0
   28.0006   31.7654   18.8233 N   0  0  0  0  0  0  0  0  0  0  0  0
   27.6695   32.1598   20.0786 C   0  0  0  0  0  0  0  0  0  0  0  0
   27.7074   33.5115   20.4015 C   0  0  1  0  0  0  0  0  0  0  0  0
   27.3294   31.3172   20.9456 O   0  0  0  0  0  0  0  0  0  0  0  0
   27.4235   35.2253   21.9629 C   0  0  1  0  0  0  0  0  0  0  0  0
   27.3845   33.9139   21.6499 N   0  0  0  0  0  0  0  0  0  0  0  0
   27.0889   35.6307   23.2502 C   0  0  0  0  0  0  0  0  0  0  0  0
   27.1220   36.9750   23.6041 C   0  0  2  0  0  0  0  0  0  0  0  0
   26.7462   37.3444   25.0161 C   0  0  0  0  0  0  0  0  0  0  0  0
   27.4967   37.9340   22.6545 C   0  0  2  0  0  0  0  0  0  0  0  0
   27.5520   39.2721   22.9294 N   0  0  0  0  0  0  0  0  0  0  0  0
   27.8295   37.5108   21.3619 C   0  0  0  0  0  0  0  0  0  0  0  0
   27.7966   36.1639   21.0023 C   0  0  2  0  0  0  0  0  0  0  0  0
   28.0857   34.4467   19.4332 C   0  0  2  0  0  0  0  0  0  0  0  0
   28.1170   35.7669   19.7494 N   0  0  0  0  0  0  0  0  0  0  0  0
   26.5806   40.1695   22.3330 C   0  0  0  0  0  0  0  0  0  0  0  0
   28.5533   39.8503   23.8102 C   0  0  0  0  0  0  0  0  0  0  0  0
  1  2  1  0  0  0  0
  3  1  1  1  0  0  0
  3  4  1  0  0  0  0
  3  5  1  0  0  0  0
  5  6  1  1  0  0  0
  5  7  1  0  0  0  0
  7  8  1  6  0  0  0
  7  9  1  0  0  0  0
  9 27  1  0  0  0  0
 10 11  1  0  0  0  0
 11 12  2  0  0  0  0
 11 13  1  0  0  0  0
 13 14  1  0  0  0  0
 14 16  2  0  0  0  0
 15 14  1  1  0  0  0
 15 18  1  0  0  0  0
 15 26  1  0  0  0  0
 17 19  1  1  0  0  0
 17 25  1  0  0  0  0
 17 18  1  0  0  0  0
 19 20  1  0  0  0  0
 20 21  1  6  0  0  0
 20 22  1  0  0  0  0
 22 23  1  6  0  0  0
 22 24  1  0  0  0  0
 23 28  1  0  0  0  0
 23 29  1  0  0  0  0
 25 24  1  6  0  0  0
 25 27  1  0  0  0  0
 26 10  1  6  0  0  0
 26 27  1  0  0  0  0
M  END
>  <CHROM.1>
64.01116083,177.38225775,169.51207771,168.18723635,-110.33982726,-94.98857026
27.68717998,36.46046302,20.03988038,-2.32828863,-1.45064694,2.70875648

>  <Name>
ligand

>  <RI>
0

>  <Rbt.Current_Directory>
/home/itssahil/PROJECTS/Mol_Feturizer/New_Systems/rnas/3F4H

>  <Rbt.Executable>
rbdock ($Id: //depot/dev/client3/rdock/2013.1/src/exe/rbdock.cxx#4 $)

>  <Rbt.Library>
libRbt.so (2013.1, Build901 2013/11/27)

>  <Rbt.Parameter_File>
/export/apps/rDock/src/rDock_2013.1_src/data/scripts/dock_solv.prm

>  <Rbt.Receptor>
prm/pocket_docking_7.prm

>  <SCORE>
-48.2913

>  <SCORE.INTER>
-30.6863

>  <SCORE.INTER.CONST>
1

>  <SCORE.INTER.POLAR>
0

>  <SCORE.INTER.ROT>
6

>  <SCORE.INTER.SOLV>
9.73208

>  <SCORE.INTER.VDW>
-31.3015

>  <SCORE.INTER.norm>
-1.05815

>  <SCORE.INTRA>
-17.605

>  <SCORE.INTRA.DIHEDRAL>
-3.79712

>  <SCORE.INTRA.DIHEDRAL.0>
6.83446

>  <SCORE.INTRA.POLAR>
0

>  <SCORE.INTRA.POLAR.0>
0

>  <SCORE.INTRA.REPUL>
0

>  <SCORE.INTRA.REPUL.0>
0

>  <SCORE.INTRA.SOLV>
0.0771521

>  <SCORE.INTRA.SOLV.lig_0>
-26.4601

>  <SCORE.INTRA.VDW>
-15.745

>  <SCORE.INTRA.VDW.0>
13.7853

>  <SCORE.INTRA.norm>
-0.60707

>  <SCORE.RESTR>
0

>  <SCORE.RESTR.CAVITY>
0

>  <SCORE.RESTR.norm>
0

>  <SCORE.SYSTEM>
0

>  <SCORE.SYSTEM.CONST>
0

>  <SCORE.SYSTEM.DIHEDRAL>
0

>  <SCORE.SYSTEM.SOLV>
0

>  <SCORE.SYSTEM.norm>
0

>  <SCORE.heavy>
29

>  <SCORE.norm>
-1.66522

>  <RMSD>
1.413

$$$$
ligand
 OpenBabel11021811473D
libRbt.so/2013.1/901 2013/11/27
 29 31  0  0  0  0  0  0  0  0999 V2000
   26.7630   40.0920   17.5133 C   0  0  0  0  0  0  0  0  0  0  0  0
   26.3352   39.4994   18.7440 O   0  0  0  0  0  0  0  0  0  0  0  0
   28.0758   39.4554   17.0780 C   0  0  1  0  0  0  0  0  0  0  0  0
   28.9911   39.5141   18.1676 O   0  0  0  0  0  0  0  0  0  0  0  0
   27.8541   38.0102   16.6507 C   0  0  1  0  0  0  0  0  0  0  0  0
   29.0577   37.5640   16.0367 O   0  0  0  0  0  0  0  0  0  0  0  0
   27.4560   37.0551   17.7798 C   0  0  1  0  0  0  0  0  0  0  0  0
   26.9436   35.8557   17.1979 O   0  0  0  0  0  0  0  0  0  0  0  0
   28.6181   36.6794   18.6970 C   0  0  0  0  0  0  0  0  0  0  0  0
   28.4853   33.9079   18.1751 N   0  0  0  0  0  0  0  0  0  0  0  0
   28.4377   32.5756   17.8905 C   0  0  0  0  0  0  0  0  0  0  0  0
   28.7493   32.1581   16.7472 O   0  0  0  0  0  0  0  0  0  0  0  0
   28.0479   31.6853   18.8377 N   0  0  0  0  0  0  0  0  0  0  0  0
   27.6995   32.0999   20.0817 C   0  0  0  0  0  0  0  0  0  0  0  0
   27.7444   33.4555   20.3868 C   0  0  1  0  0  0  0  0  0  0  0  0
   27.3373   31.2724   20.9544 O   0  0  0  0  0  0  0  0  0  0  0  0
   27.4502   35.1932   21.9196 C   0  0  1  0  0  0  0  0  0  0  0  0
   27.4045   33.8780   21.6239 N   0  0  0  0  0  0  0  0  0  0  0  0
   27.0981   35.6193   23.1954 C   0  0  0  0  0  0  0  0  0  0  0  0
   27.1375   36.9681   23.5314 C   0  0  2  0  0  0  0  0  0  0  0  0
   26.7417   37.3603   24.9317 C   0  0  0  0  0  0  0  0  0  0  0  0
   27.5368   37.9105   22.5752 C   0  0  2  0  0  0  0  0  0  0  0  0
   27.5998   39.2517   22.8327 N   0  0  0  0  0  0  0  0  0  0  0  0
   27.8872   37.4665   21.2944 C   0  0  0  0  0  0  0  0  0  0  0  0
   27.8479   36.1151   20.9526 C   0  0  2  0  0  0  0  0  0  0  0  0
   28.1474   34.3739   19.4123 C   0  0  2  0  0  0  0  0  0  0  0  0
   28.1855   35.6980   19.7108 N   0  0  0  0  0  0  0  0  0  0  0  0
   26.6065   40.1411   22.2610 C   0  0  0  0  0  0  0  0  0  0  0  0
   28.6309   39.8411   23.6708 C   0  0  0  0  0  0  0  0  0  0  0  0
  1  2  1  0  0  0  0
  3  1  1  1  0  0  0
  3  4  1  0  0  0  0
  3  5  1  0  0  0  0
  5  6  1  1  0  0  0
  5  7  1  0  0  0  0
  7  8  1  6  0  0  0
  7  9  1  0  0  0  0
  9 27  1  0  0  0  0
 10 11  1  0  0  0  0
 11 12  2  0  0  0  0
 11 13  1  0  0  0  0
 13 14  1  0  0  0  0
 14 16  2  0  0  0  0
 15 14  1  1  0  0  0
 15 18  1  0  0  0  0
 15 26  1  0  0  0  0
 17 19  1  1  0  0  0
 17 25  1  0  0  0  0
 17 18  1  0  0  0  0
 19 20  1  0  0  0  0
 20 21  1  6  0  0  0
 20 22  1  0  0  0  0
 22 23  1  6  0  0  0
 22 24  1  0  0  0  0
 23 28  1  0  0  0  0
 23 29  1  0  0  0  0
 25 24  1  6  0  0  0
 25 27  1  0  0  0  0
 26 10  1  6  0  0  0
 26 27  1  0  0  0  0
M  END
>  <CHROM.1>
-51.76494978,169.68298703,164.76414741,-176.63868719,-107.28762226,-97.75652687
27.75774016,36.28416065,19.89136889,-2.31541435,-1.44135643,2.81255189

>  <Name>
ligand

>  <RI>
0

>  <Rbt.Current_Directory>
/home/itssahil/PROJECTS/Mol_Feturizer/New_Systems/rnas/3F4H

>  <Rbt.Executable>
rbdock ($Id: //depot/dev/client3/rdock/2013.1/src/exe/rbdock.cxx#4 $)

>  <Rbt.Library>
libRbt.so (2013.1, Build901 2013/11/27)

>  <Rbt.Parameter_File>
/export/apps/rDock/src/rDock_2013.1_src/data/scripts/dock_solv.prm

>  <Rbt.Receptor>
prm/pocket_docking_7.prm

>  <SCORE>
-47.418

>  <SCORE.INTER>
-30.6296

>  <SCORE.INTER.CONST>
1

>  <SCORE.INTER.POLAR>
0

>  <SCORE.INTER.ROT>
6

>  <SCORE.INTER.SOLV>
10.4429

>  <SCORE.INTER.VDW>
-31.5007

>  <SCORE.INTER.norm>
-1.05619

>  <SCORE.INTRA>
-16.7884

>  <SCORE.INTRA.DIHEDRAL>
-3.29316

>  <SCORE.INTRA.DIHEDRAL.0>
6.83446

>  <SCORE.INTRA.POLAR>
0

>  <SCORE.INTRA.POLAR.0>
0

>  <SCORE.INTRA.REPUL>
0

>  <SCORE.INTRA.REPUL.0>
0

>  <SCORE.INTRA.SOLV>
0.603223

>  <SCORE.INTRA.SOLV.lig_0>
-26.4601

>  <SCORE.INTRA.VDW>
-15.4435

>  <SCORE.INTRA.VDW.0>
13.7853

>  <SCORE.INTRA.norm>
-0.578911

>  <SCORE.RESTR>
0

>  <SCORE.RESTR.CAVITY>
0

>  <SCORE.RESTR.norm>
0

>  <SCORE.SYSTEM>
0

>  <SCORE.SYSTEM.CONST>
0

>  <SCORE.SYSTEM.DIHEDRAL>
0

>  <SCORE.SYSTEM.SOLV>
0

>  <SCORE.SYSTEM.norm>
0

>  <SCORE.heavy>
29

>  <SCORE.norm>
-1.63511

>  <RMSD>
1.414

$$$$
ligand
 OpenBabel11021811473D
libRbt.so/2013.1/901 2013/11/27
 29 31  0  0  0  0  0  0  0  0999 V2000
   26.6475   40.1021   18.7065 C   0  0  0  0  0  0  0  0  0  0  0  0
   25.6233   40.3741   17.7442 O   0  0  0  0  0  0  0  0  0  0  0  0
   27.9445   39.7714   17.9808 C   0  0  1  0  0  0  0  0  0  0  0  0
   28.9796   39.6229   18.9477 O   0  0  0  0  0  0  0  0  0  0  0  0
   27.7921   38.4918   17.1684 C   0  0  1  0  0  0  0  0  0  0  0  0
   29.0112   38.2951   16.4615 O   0  0  0  0  0  0  0  0  0  0  0  0
   27.4525   37.2423   17.9863 C   0  0  1  0  0  0  0  0  0  0  0  0
   27.0898   36.1962   17.0842 O   0  0  0  0  0  0  0  0  0  0  0  0
   28.6115   36.7458   18.8483 C   0  0  0  0  0  0  0  0  0  0  0  0
   28.4634   33.9879   18.2625 N   0  0  0  0  0  0  0  0  0  0  0  0
   28.4094   32.6627   17.9476 C   0  0  0  0  0  0  0  0  0  0  0  0
   28.7471   32.2666   16.8042 O   0  0  0  0  0  0  0  0  0  0  0  0
   27.9849   31.7565   18.8644 N   0  0  0  0  0  0  0  0  0  0  0  0
   27.6077   32.1480   20.1075 C   0  0  0  0  0  0  0  0  0  0  0  0
   27.6588   33.4962   20.4433 C   0  0  1  0  0  0  0  0  0  0  0  0
   27.2135   31.3060   20.9519 O   0  0  0  0  0  0  0  0  0  0  0  0
   27.3420   35.2035   22.0054 C   0  0  1  0  0  0  0  0  0  0  0  0
   27.2903   33.8956   21.6799 N   0  0  0  0  0  0  0  0  0  0  0  0
   26.9602   35.6059   23.2805 C   0  0  0  0  0  0  0  0  0  0  0  0
   27.0049   36.9465   23.6469 C   0  0  2  0  0  0  0  0  0  0  0  0
   26.5758   37.3128   25.0444 C   0  0  0  0  0  0  0  0  0  0  0  0
   27.4396   37.9049   22.7225 C   0  0  2  0  0  0  0  0  0  0  0  0
   27.5099   39.2394   23.0109 N   0  0  0  0  0  0  0  0  0  0  0  0
   27.8196   37.4848   21.4420 C   0  0  0  0  0  0  0  0  0  0  0  0
   27.7752   36.1416   21.0698 C   0  0  2  0  0  0  0  0  0  0  0  0
   28.0974   34.4308   19.5002 C   0  0  2  0  0  0  0  0  0  0  0  0
   28.1415   35.7476   19.8286 N   0  0  0  0  0  0  0  0  0  0  0  0
   26.5684   40.1578   22.3989 C   0  0  0  0  0  0  0  0  0  0  0  0
   28.4984   39.7933   23.9213 C   0  0  0  0  0  0  0  0  0  0  0  0
  1  2  1  0  0  0  0
  3  1  1  1  0  0  0
  3  4  1  0  0  0  0
  3  5  1  0  0  0  0
  5  6  1  1  0  0  0
  5  7  1  0  0  0  0
  7  8  1  6  0  0  0
  7  9  1  0  0  0  0
  9 27  1  0  0  0  0
 10 11  1  0  0  0  0
 11 12  2  0  0  0  0
 11 13  1  0  0  0  0
 13 14  1  0  0  0  0
 14 16  2  0  0  0  0
 15 14  1  1  0  0  0
 15 18  1  0  0  0  0
 15 26  1  0  0  0  0
 17 19  1  1  0  0  0
 17 25  1  0  0  0  0
 17 18  1  0  0  0  0
 19 20  1  0  0  0  0
 20 21  1  6  0  0  0
 20 22  1  0  0  0  0
 22 23  1  6  0  0  0
 22 24  1  0  0  0  0
 23 28  1  0  0  0  0
 23 29  1  0  0  0  0
 25 24  1  6  0  0  0
 25 27  1  0  0  0  0
 26 10  1  6  0  0  0
 26 27  1  0  0  0  0
M  END
>  <CHROM.1>
174.79891869,176.59549085,168.94984689,167.09180487,-109.25435754,-92.94224742
27.66619042,36.41902277,20.06094940,-2.34051514,-1.43906471,2.69079994

>  <Name>
ligand

>  <RI>
0

>  <Rbt.Current_Directory>
/home/itssahil/PROJECTS/Mol_Feturizer/New_Systems/rnas/3F4H

>  <Rbt.Executable>
rbdock ($Id: //depot/dev/client3/rdock/2013.1/src/exe/rbdock.cxx#4 $)

>  <Rbt.Library>
libRbt.so (2013.1, Build901 2013/11/27)

>  <Rbt.Parameter_File>
/export/apps/rDock/src/rDock_2013.1_src/data/scripts/dock_solv.prm

>  <Rbt.Receptor>
prm/pocket_docking_5.prm

>  <SCORE>
-48.3407

>  <SCORE.INTER>
-30.7826

>  <SCORE.INTER.CONST>
1

>  <SCORE.INTER.POLAR>
0

>  <SCORE.INTER.ROT>
6

>  <SCORE.INTER.SOLV>
10.5231

>  <SCORE.INTER.VDW>
-31.6294

>  <SCORE.INTER.norm>
-1.06147

>  <SCORE.INTRA>
-17.5581

>  <SCORE.INTRA.DIHEDRAL>
-3.60255

>  <SCORE.INTRA.DIHEDRAL.0>
6.83446

>  <SCORE.INTRA.POLAR>
0

>  <SCORE.INTRA.POLAR.0>
0

>  <SCORE.INTRA.REPUL>
0

>  <SCORE.INTRA.REPUL.0>
0

>  <SCORE.INTRA.SOLV>
-0.040362

>  <SCORE.INTRA.SOLV.lig_0>
-26.4601

>  <SCORE.INTRA.VDW>
-15.7367

>  <SCORE.INTRA.VDW.0>
13.7853

>  <SCORE.INTRA.norm>
-0.605453

>  <SCORE.RESTR>
0

>  <SCORE.RESTR.CAVITY>
0

>  <SCORE.RESTR.norm>
0

>  <SCORE.SYSTEM>
0

>  <SCORE.SYSTEM.CONST>
0

>  <SCORE.SYSTEM.DIHEDRAL>
0

>  <SCORE.SYSTEM.SOLV>
0

>  <SCORE.SYSTEM.norm>
0

>  <SCORE.heavy>
29

>  <SCORE.norm>
-1.66692

>  <RMSD>
1.415

$$$$
ligand
 OpenBabel11021811473D
libRbt.so/2013.1/901 2013/11/27
 29 31  0  0  0  0  0  0  0  0999 V2000
   29.9347   40.1434   15.4386 C   0  0  0  0  0  0  0  0  0  0  0  0
   29.4325   41.4780   15.3140 O   0  0  0  0  0  0  0  0  0  0  0  0
   29.5982   39.6065   16.8230 C   0  0  1  0  0  0  0  0  0  0  0  0
   28.1817   39.5886   16.9701 O   0  0  0  0  0  0  0  0  0  0  0  0
   30.1667   38.2052   17.0065 C   0  0  1  0  0  0  0  0  0  0  0  0
   31.5832   38.3121   16.9242 O   0  0  0  0  0  0  0  0  0  0  0  0
   29.7681   37.5108   18.3120 C   0  0  1  0  0  0  0  0  0  0  0  0
   30.0045   38.4123   19.3941 O   0  0  0  0  0  0  0  0  0  0  0  0
   28.2999   37.0919   18.3547 C   0  0  0  0  0  0  0  0  0  0  0  0
   28.2987   34.3106   17.8696 N   0  0  0  0  0  0  0  0  0  0  0  0
   28.3098   32.9743   17.6008 C   0  0  0  0  0  0  0  0  0  0  0  0
   28.5004   32.5629   16.4291 O   0  0  0  0  0  0  0  0  0  0  0  0
   28.1097   32.0728   18.5954 N   0  0  0  0  0  0  0  0  0  0  0  0
   27.8958   32.4802   19.8718 C   0  0  0  0  0  0  0  0  0  0  0  0
   27.8831   33.8399   20.1611 C   0  0  1  0  0  0  0  0  0  0  0  0
   27.7090   31.6423   20.7886 O   0  0  0  0  0  0  0  0  0  0  0  0
   27.6659   35.5750   21.7095 C   0  0  1  0  0  0  0  0  0  0  0  0
   27.6762   34.2557   21.4295 N   0  0  0  0  0  0  0  0  0  0  0  0
   27.4516   35.9941   23.0179 C   0  0  0  0  0  0  0  0  0  0  0  0
   27.4378   37.3471   23.3386 C   0  0  2  0  0  0  0  0  0  0  0  0
   27.1988   37.7311   24.7762 C   0  0  0  0  0  0  0  0  0  0  0  0
   27.6424   38.3010   22.3336 C   0  0  2  0  0  0  0  0  0  0  0  0
   27.6424   39.6470   22.5735 N   0  0  0  0  0  0  0  0  0  0  0  0
   27.8556   37.8639   21.0206 C   0  0  0  0  0  0  0  0  0  0  0  0
   27.8690   36.5082   20.6942 C   0  0  2  0  0  0  0  0  0  0  0  0
   28.0906   34.7698   19.1375 C   0  0  2  0  0  0  0  0  0  0  0  0
   28.0725   36.0976   19.4214 N   0  0  0  0  0  0  0  0  0  0  0  0
   28.8487   40.2912   23.0575 C   0  0  0  0  0  0  0  0  0  0  0  0
   26.4713   40.4810   22.3594 C   0  0  0  0  0  0  0  0  0  0  0  0
  1  2  1  0  0  0  0
  3  1  1  6  0  0  0
  3  4  1  0  0  0  0
  3  5  1  0  0  0  0
  5  6  1  1  0  0  0
  5  7  1  0  0  0  0
  7  8  1  1  0  0  0
  7  9  1  0  0  0  0
  9 27  1  0  0  0  0
 10 11  1  0  0  0  0
 11 12  2  0  0  0  0
 11 13  1  0  0  0  0
 13 14  1  0  0  0  0
 14 16  2  0  0  0  0
 15 14  1  1  0  0  0
 15 18  1  0  0  0  0
 15 26  1  0  0  0  0
 17 19  1  1  0  0  0
 17 25  1  0  0  0  0
 17 18  1  0  0  0  0
 19 20  1  0  0  0  0
 20 21  1  6  0  0  0
 20 22  1  0  0  0  0
 22 23  1  6  0  0  0
 22 24  1  0  0  0  0
 23 28  1  0  0  0  0
 23 29  1  0  0  0  0
 25 24  1  6  0  0  0
 25 27  1  0  0  0  0
 26 10  1  6  0  0  0
 26 27  1  0  0  0  0
M  END
>  <CHROM.1>
61.03144828,63.21995695,-49.22486575,163.08819760,83.26336985,83.74369059
28.43698339,36.80270303,19.60382322,-0.82488114,-1.24851305,-2.78607365

>  <Name>
ligand

>  <RI>
0

>  <Rbt.Current_Directory>
/home/itssahil/PROJECTS/Mol_Feturizer/New_Systems/rnas/3F4H

>  <Rbt.Executable>
rbdock ($Id: //depot/dev/client3/rdock/2013.1/src/exe/rbdock.cxx#4 $)

>  <Rbt.Library>
libRbt.so (2013.1, Build901 2013/11/27)

>  <Rbt.Parameter_File>
/export/apps/rDock/src/rDock_2013.1_src/data/scripts/dock_solv.prm

>  <Rbt.Receptor>
prm/pocket_docking_6.prm

>  <SCORE>
-45.6155

>  <SCORE.INTER>
-28.5745

>  <SCORE.INTER.CONST>
1

>  <SCORE.INTER.POLAR>
0

>  <SCORE.INTER.ROT>
6

>  <SCORE.INTER.SOLV>
11.5032

>  <SCORE.INTER.VDW>
-30.4841

>  <SCORE.INTER.norm>
-0.985329

>  <SCORE.INTRA>
-17.041

>  <SCORE.INTRA.DIHEDRAL>
-3.42104

>  <SCORE.INTRA.DIHEDRAL.0>
6.83446

>  <SCORE.INTRA.POLAR>
0

>  <SCORE.INTRA.POLAR.0>
0

>  <SCORE.INTRA.REPUL>
0

>  <SCORE.INTRA.REPUL.0>
0

>  <SCORE.INTRA.SOLV>
-0.0295118

>  <SCORE.INTRA.SOLV.lig_0>
-26.4601

>  <SCORE.INTRA.VDW>
-15.3157

>  <SCORE.INTRA.VDW.0>
13.7853

>  <SCORE.INTRA.norm>
-0.587619

>  <SCORE.RESTR>
0

>  <SCORE.RESTR.CAVITY>
0

>  <SCORE.RESTR.norm>
0

>  <SCORE.SYSTEM>
0

>  <SCORE.SYSTEM.CONST>
0

>  <SCORE.SYSTEM.DIHEDRAL>
0

>  <SCORE.SYSTEM.SOLV>
0

>  <SCORE.SYSTEM.norm>
0

>  <SCORE.heavy>
29

>  <SCORE.norm>
-1.57295

>  <RMSD>
1.415

$$$$
ligand
 OpenBabel11021811473D
libRbt.so/2013.1/901 2013/11/27
 29 31  0  0  0  0  0  0  0  0999 V2000
   26.6553   40.0915   18.5422 C   0  0  0  0  0  0  0  0  0  0  0  0
   26.7818   41.3606   19.1921 O   0  0  0  0  0  0  0  0  0  0  0  0
   27.9716   39.7412   17.8621 C   0  0  1  0  0  0  0  0  0  0  0  0
   28.9848   39.6447   18.8583 O   0  0  0  0  0  0  0  0  0  0  0  0
   27.8488   38.4260   17.1035 C   0  0  1  0  0  0  0  0  0  0  0  0
   29.0892   38.2047   16.4422 O   0  0  0  0  0  0  0  0  0  0  0  0
   27.4903   37.2122   17.9660 C   0  0  1  0  0  0  0  0  0  0  0  0
   27.1325   36.1332   17.1015 O   0  0  0  0  0  0  0  0  0  0  0  0
   28.6347   36.7435   18.8623 C   0  0  0  0  0  0  0  0  0  0  0  0
   28.4853   33.9843   18.2827 N   0  0  0  0  0  0  0  0  0  0  0  0
   28.4310   32.6584   17.9710 C   0  0  0  0  0  0  0  0  0  0  0  0
   28.7762   32.2586   16.8310 O   0  0  0  0  0  0  0  0  0  0  0  0
   27.9980   31.7555   18.8870 N   0  0  0  0  0  0  0  0  0  0  0  0
   27.6125   32.1511   20.1263 C   0  0  0  0  0  0  0  0  0  0  0  0
   27.6639   33.5000   20.4589 C   0  0  1  0  0  0  0  0  0  0  0  0
   27.2105   31.3120   20.9700 O   0  0  0  0  0  0  0  0  0  0  0  0
   27.3391   35.2120   22.0141 C   0  0  1  0  0  0  0  0  0  0  0  0
   27.2872   33.9034   21.6917 N   0  0  0  0  0  0  0  0  0  0  0  0
   26.9489   35.6185   23.2853 C   0  0  0  0  0  0  0  0  0  0  0  0
   26.9936   36.9601   23.6485 C   0  0  2  0  0  0  0  0  0  0  0  0
   26.5551   37.3309   25.0419 C   0  0  0  0  0  0  0  0  0  0  0  0
   27.4370   37.9151   22.7248 C   0  0  2  0  0  0  0  0  0  0  0  0
   27.5078   39.2503   23.0102 N   0  0  0  0  0  0  0  0  0  0  0  0
   27.8254   37.4908   21.4482 C   0  0  0  0  0  0  0  0  0  0  0  0
   27.7810   36.1468   21.0792 C   0  0  2  0  0  0  0  0  0  0  0  0
   28.1112   34.4312   19.5165 C   0  0  2  0  0  0  0  0  0  0  0  0
   28.1555   35.7488   19.8418 N   0  0  0  0  0  0  0  0  0  0  0  0
   26.5702   40.1685   22.3918 C   0  0  0  0  0  0  0  0  0  0  0  0
   28.4931   39.8051   23.9236 C   0  0  0  0  0  0  0  0  0  0  0  0
  1  2  1  0  0  0  0
  3  1  1  1  0  0  0
  3  4  1  0  0  0  0
  3  5  1  0  0  0  0
  5  6  1  1  0  0  0
  5  7  1  0  0  0  0
  7  8  1  6  0  0  0
  7  9  1  0  0  0  0
  9 27  1  0  0  0  0
 10 11  1  0  0  0  0
 11 12  2  0  0  0  0
 11 13  1  0  0  0  0
 13 14  1  0  0  0  0
 14 16  2  0  0  0  0
 15 14  1  1  0  0  0
 15 18  1  0  0  0  0
 15 26  1  0  0  0  0
 17 19  1  1  0  0  0
 17 25  1  0  0  0  0
 17 18  1  0  0  0  0
 19 20  1  0  0  0  0
 20 21  1  6  0  0  0
 20 22  1  0  0  0  0
 22 23  1  6  0  0  0
 22 24  1  0  0  0  0
 23 28  1  0  0  0  0
 23 29  1  0  0  0  0
 25 24  1  6  0  0  0
 25 27  1  0  0  0  0
 26 10  1  6  0  0  0
 26 27  1  0  0  0  0
M  END
>  <CHROM.1>
61.60664638,177.01100427,167.77834916,169.27713685,-109.08228707,-94.46044389
27.72539873,36.45255201,20.11059131,-2.06985465,-1.40930888,2.96366125

>  <Name>
ligand

>  <RI>
0

>  <Rbt.Current_Directory>
/home/itssahil/PROJECTS/Mol_Feturizer/New_Systems/rnas/3F4H

>  <Rbt.Executable>
rbdock ($Id: //depot/dev/client3/rdock/2013.1/src/exe/rbdock.cxx#4 $)

>  <Rbt.Library>
libRbt.so (2013.1, Build901 2013/11/27)

>  <Rbt.Parameter_File>
/export/apps/rDock/src/rDock_2013.1_src/data/scripts/dock_solv.prm

>  <Rbt.Receptor>
prm/blind_docking_100.prm

>  <SCORE>
-48.3902

>  <SCORE.INTER>
-30.7086

>  <SCORE.INTER.CONST>
1

>  <SCORE.INTER.POLAR>
0

>  <SCORE.INTER.ROT>
6

>  <SCORE.INTER.SOLV>
9.76119

>  <SCORE.INTER.VDW>
-31.3262

>  <SCORE.INTER.norm>
-1.05892

>  <SCORE.INTRA>
-17.6816

>  <SCORE.INTRA.DIHEDRAL>
-3.78291

>  <SCORE.INTRA.DIHEDRAL.0>
6.83446

>  <SCORE.INTRA.POLAR>
0

>  <SCORE.INTRA.POLAR.0>
0

>  <SCORE.INTRA.REPUL>
0

>  <SCORE.INTRA.REPUL.0>
0

>  <SCORE.INTRA.SOLV>
0.0433843

>  <SCORE.INTRA.SOLV.lig_0>
-26.4601

>  <SCORE.INTRA.VDW>
-15.8118

>  <SCORE.INTRA.VDW.0>
13.7853

>  <SCORE.INTRA.norm>
-0.609711

>  <SCORE.RESTR>
0

>  <SCORE.RESTR.CAVITY>
0

>  <SCORE.RESTR.norm>
0

>  <SCORE.SYSTEM>
0

>  <SCORE.SYSTEM.CONST>
0

>  <SCORE.SYSTEM.DIHEDRAL>
0

>  <SCORE.SYSTEM.SOLV>
0

>  <SCORE.SYSTEM.norm>
0

>  <SCORE.heavy>
29

>  <SCORE.norm>
-1.66863

>  <RMSD>
1.417

$$$$
ligand
 OpenBabel11021811473D
libRbt.so/2013.1/901 2013/11/27
 29 31  0  0  0  0  0  0  0  0999 V2000
   26.7330   40.0213   18.5403 C   0  0  0  0  0  0  0  0  0  0  0  0
   26.8850   41.2988   19.1679 O   0  0  0  0  0  0  0  0  0  0  0  0
   28.0105   39.6756   17.7875 C   0  0  1  0  0  0  0  0  0  0  0  0
   29.0800   39.5916   18.7243 O   0  0  0  0  0  0  0  0  0  0  0  0
   27.8533   38.3551   17.0445 C   0  0  1  0  0  0  0  0  0  0  0  0
   29.0748   38.1120   16.3562 O   0  0  0  0  0  0  0  0  0  0  0  0
   27.5004   37.1540   17.9268 C   0  0  1  0  0  0  0  0  0  0  0  0
   27.1585   36.0560   17.0799 O   0  0  0  0  0  0  0  0  0  0  0  0
   28.6431   36.7125   18.8390 C   0  0  0  0  0  0  0  0  0  0  0  0
   28.4950   33.9470   18.2902 N   0  0  0  0  0  0  0  0  0  0  0  0
   28.4412   32.6177   17.9931 C   0  0  0  0  0  0  0  0  0  0  0  0
   28.7837   32.2057   16.8567 O   0  0  0  0  0  0  0  0  0  0  0  0
   28.0116   31.7245   18.9202 N   0  0  0  0  0  0  0  0  0  0  0  0
   27.6291   32.1332   20.1561 C   0  0  0  0  0  0  0  0  0  0  0  0
   27.6799   33.4857   20.4737 C   0  0  1  0  0  0  0  0  0  0  0  0
   27.2302   31.3031   21.0101 O   0  0  0  0  0  0  0  0  0  0  0  0
   27.3577   35.2145   22.0109 C   0  0  1  0  0  0  0  0  0  0  0  0
   27.3062   33.9023   21.7031 N   0  0  0  0  0  0  0  0  0  0  0  0
   26.9705   35.6345   23.2787 C   0  0  0  0  0  0  0  0  0  0  0  0
   27.0148   36.9800   23.6270 C   0  0  2  0  0  0  0  0  0  0  0  0
   26.5797   37.3657   25.0174 C   0  0  0  0  0  0  0  0  0  0  0  0
   27.4547   37.9253   22.6916 C   0  0  2  0  0  0  0  0  0  0  0  0
   27.5249   39.2636   22.9621 N   0  0  0  0  0  0  0  0  0  0  0  0
   27.8400   37.4874   21.4187 C   0  0  0  0  0  0  0  0  0  0  0  0
   27.7960   36.1393   21.0647 C   0  0  2  0  0  0  0  0  0  0  0  0
   28.1238   34.4070   19.5200 C   0  0  2  0  0  0  0  0  0  0  0  0
   28.1676   35.7282   19.8306 N   0  0  0  0  0  0  0  0  0  0  0  0
   26.5763   40.1723   22.3466 C   0  0  0  0  0  0  0  0  0  0  0  0
   28.5202   39.8310   23.8567 C   0  0  0  0  0  0  0  0  0  0  0  0
  1  2  1  0  0  0  0
  3  1  1  1  0  0  0
  3  4  1  0  0  0  0
  3  5  1  0  0  0  0
  5  6  1  1  0  0  0
  5  7  1  0  0  0  0
  7  8  1  6  0  0  0
  7  9  1  0  0  0  0
  9 27  1  0  0  0  0
 10 11  1  0  0  0  0
 11 12  2  0  0  0  0
 11 13  1  0  0  0  0
 13 14  1  0  0  0  0
 14 16  2  0  0  0  0
 15 14  1  1  0  0  0
 15 18  1  0  0  0  0
 15 26  1  0  0  0  0
 17 19  1  1  0  0  0
 17 25  1  0  0  0  0
 17 18  1  0  0  0  0
 19 20  1  0  0  0  0
 20 21  1  6  0  0  0
 20 22  1  0  0  0  0
 22 23  1  6  0  0  0
 22 24  1  0  0  0  0
 23 28  1  0  0  0  0
 23 29  1  0  0  0  0
 25 24  1  6  0  0  0
 25 27  1  0  0  0  0
 26 10  1  6  0  0  0
 26 27  1  0  0  0  0
M  END
>  <CHROM.1>
61.96034332,179.25013503,169.98416415,169.45694400,-108.47455012,-95.33797434
27.74934615,36.42665978,20.08946884,-2.04640404,-1.40804450,2.98639274

>  <Name>
ligand

>  <RI>
0

>  <Rbt.Current_Directory>
/home/itssahil/PROJECTS/Mol_Feturizer/New_Systems/rnas/3F4H

>  <Rbt.Executable>
rbdock ($Id: //depot/dev/client3/rdock/2013.1/src/exe/rbdock.cxx#4 $)

>  <Rbt.Library>
libRbt.so (2013.1, Build901 2013/11/27)

>  <Rbt.Parameter_File>
/export/apps/rDock/src/rDock_2013.1_src/data/scripts/dock_solv.prm

>  <Rbt.Receptor>
prm/blind_docking_100.prm

>  <SCORE>
-48.234

>  <SCORE.INTER>
-30.5075

>  <SCORE.INTER.CONST>
1

>  <SCORE.INTER.POLAR>
0

>  <SCORE.INTER.ROT>
6

>  <SCORE.INTER.SOLV>
9.78025

>  <SCORE.INTER.VDW>
-31.1984

>  <SCORE.INTER.norm>
-1.05198

>  <SCORE.INTRA>
-17.7265

>  <SCORE.INTRA.DIHEDRAL>
-3.99439

>  <SCORE.INTRA.DIHEDRAL.0>
6.83446

>  <SCORE.INTRA.POLAR>
0

>  <SCORE.INTRA.POLAR.0>
0

>  <SCORE.INTRA.REPUL>
0

>  <SCORE.INTRA.REPUL.0>
0

>  <SCORE.INTRA.SOLV>
0.0672082

>  <SCORE.INTRA.SOLV.lig_0>
-26.4601

>  <SCORE.INTRA.VDW>
-15.7629

>  <SCORE.INTRA.VDW.0>
13.7853

>  <SCORE.INTRA.norm>
-0.611258

>  <SCORE.RESTR>
0

>  <SCORE.RESTR.CAVITY>
0

>  <SCORE.RESTR.norm>
0

>  <SCORE.SYSTEM>
0

>  <SCORE.SYSTEM.CONST>
0

>  <SCORE.SYSTEM.DIHEDRAL>
0

>  <SCORE.SYSTEM.SOLV>
0

>  <SCORE.SYSTEM.norm>
0

>  <SCORE.heavy>
29

>  <SCORE.norm>
-1.66324

>  <RMSD>
1.417

$$$$
ligand
 OpenBabel11021811473D
libRbt.so/2013.1/901 2013/11/27
 29 31  0  0  0  0  0  0  0  0999 V2000
   28.8720   40.2756   17.4595 C   0  0  0  0  0  0  0  0  0  0  0  0
   29.8758   39.3506   17.0284 O   0  0  0  0  0  0  0  0  0  0  0  0
   28.3486   39.8501   18.8244 C   0  0  1  0  0  0  0  0  0  0  0  0
   27.9000   41.0095   19.5194 O   0  0  0  0  0  0  0  0  0  0  0  0
   27.2094   38.8503   18.6730 C   0  0  1  0  0  0  0  0  0  0  0  0
   26.2453   39.4393   17.8080 O   0  0  0  0  0  0  0  0  0  0  0  0
   27.6216   37.4750   18.1399 C   0  0  1  0  0  0  0  0  0  0  0  0
   28.0589   37.6263   16.7888 O   0  0  0  0  0  0  0  0  0  0  0  0
   28.7533   36.8281   18.9359 C   0  0  0  0  0  0  0  0  0  0  0  0
   28.5508   34.0791   18.3254 N   0  0  0  0  0  0  0  0  0  0  0  0
   28.4719   32.7579   17.9992 C   0  0  0  0  0  0  0  0  0  0  0  0
   28.8415   32.3593   16.8665 O   0  0  0  0  0  0  0  0  0  0  0  0
   27.9878   31.8584   18.8929 N   0  0  0  0  0  0  0  0  0  0  0  0
   27.5748   32.2529   20.1237 C   0  0  0  0  0  0  0  0  0  0  0  0
   27.6507   33.5969   20.4707 C   0  0  1  0  0  0  0  0  0  0  0  0
   27.1256   31.4171   20.9466 O   0  0  0  0  0  0  0  0  0  0  0  0
   27.3226   35.3030   22.0318 C   0  0  1  0  0  0  0  0  0  0  0  0
   27.2469   33.9990   21.6953 N   0  0  0  0  0  0  0  0  0  0  0  0
   26.9042   35.7082   23.2944 C   0  0  0  0  0  0  0  0  0  0  0  0
   26.9723   37.0448   23.6718 C   0  0  2  0  0  0  0  0  0  0  0  0
   26.5010   37.4145   25.0547 C   0  0  0  0  0  0  0  0  0  0  0  0
   27.4683   37.9962   22.7713 C   0  0  2  0  0  0  0  0  0  0  0  0
   27.5647   39.3265   23.0716 N   0  0  0  0  0  0  0  0  0  0  0  0
   27.8846   37.5733   21.5030 C   0  0  0  0  0  0  0  0  0  0  0  0
   27.8169   36.2342   21.1199 C   0  0  2  0  0  0  0  0  0  0  0  0
   28.1506   34.5246   19.5514 C   0  0  2  0  0  0  0  0  0  0  0  0
   28.2189   35.8376   19.8906 N   0  0  0  0  0  0  0  0  0  0  0  0
   26.6238   40.2650   22.4899 C   0  0  0  0  0  0  0  0  0  0  0  0
   28.5809   39.8562   23.9657 C   0  0  0  0  0  0  0  0  0  0  0  0
  1  2  1  0  0  0  0
  3  1  1  6  0  0  0
  3  4  1  0  0  0  0
  3  5  1  0  0  0  0
  5  6  1  6  0  0  0
  5  7  1  0  0  0  0
  7  8  1  6  0  0  0
  7  9  1  0  0  0  0
  9 27  1  0  0  0  0
 10 11  1  0  0  0  0
 11 12  2  0  0  0  0
 11 13  1  0  0  0  0
 13 14  1  0  0  0  0
 14 16  2  0  0  0  0
 15 14  1  1  0  0  0
 15 18  1  0  0  0  0
 15 26  1  0  0  0  0
 17 19  1  1  0  0  0
 17 25  1  0  0  0  0
 17 18  1  0  0  0  0
 19 20  1  0  0  0  0
 20 21  1  6  0  0  0
 20 22  1  0  0  0  0
 22 23  1  6  0  0  0
 22 24  1  0  0  0  0
 23 28  1  0  0  0  0
 23 29  1  0  0  0  0
 25 24  1  6  0  0  0
 25 27  1  0  0  0  0
 26 10  1  6  0  0  0
 26 27  1  0  0  0  0
M  END
>  <CHROM.1>
151.82164761,-53.53071703,-66.82581707,99.34763860,-105.74348055,-86.69185734
27.81650799,36.63217018,20.16537795,-1.73199364,-1.36429195,-3.07880064

>  <Name>
ligand

>  <RI>
0

>  <Rbt.Current_Directory>
/home/itssahil/PROJECTS/Mol_Feturizer/New_Systems/rnas/3F4H

>  <Rbt.Executable>
rbdock ($Id: //depot/dev/client3/rdock/2013.1/src/exe/rbdock.cxx#4 $)

>  <Rbt.Library>
libRbt.so (2013.1, Build901 2013/11/27)

>  <Rbt.Parameter_File>
/export/apps/rDock/src/rDock_2013.1_src/data/scripts/dock_solv.prm

>  <Rbt.Receptor>
prm/pocket_docking_4.prm

>  <SCORE>
-44.0161

>  <SCORE.INTER>
-30.2841

>  <SCORE.INTER.CONST>
1

>  <SCORE.INTER.POLAR>
0

>  <SCORE.INTER.ROT>
6

>  <SCORE.INTER.SOLV>
10.2728

>  <SCORE.INTER.VDW>
-31.2137

>  <SCORE.INTER.norm>
-1.04428

>  <SCORE.INTRA>
-13.732

>  <SCORE.INTRA.DIHEDRAL>
1.82998

>  <SCORE.INTRA.DIHEDRAL.0>
6.83446

>  <SCORE.INTRA.POLAR>
0

>  <SCORE.INTRA.POLAR.0>
0

>  <SCORE.INTRA.REPUL>
0

>  <SCORE.INTRA.REPUL.0>
0

>  <SCORE.INTRA.SOLV>
0.823458

>  <SCORE.INTRA.SOLV.lig_0>
-26.4601

>  <SCORE.INTRA.VDW>
-15.0587

>  <SCORE.INTRA.VDW.0>
13.7853

>  <SCORE.INTRA.norm>
-0.473517

>  <SCORE.RESTR>
0

>  <SCORE.RESTR.CAVITY>
0

>  <SCORE.RESTR.norm>
0

>  <SCORE.SYSTEM>
0

>  <SCORE.SYSTEM.CONST>
0

>  <SCORE.SYSTEM.DIHEDRAL>
0

>  <SCORE.SYSTEM.SOLV>
0

>  <SCORE.SYSTEM.norm>
0

>  <SCORE.heavy>
29

>  <SCORE.norm>
-1.5178

>  <RMSD>
1.417

$$$$
ligand
 OpenBabel11021811473D
libRbt.so/2013.1/901 2013/11/27
 29 31  0  0  0  0  0  0  0  0999 V2000
   26.5135   40.1739   18.7503 C   0  0  0  0  0  0  0  0  0  0  0  0
   25.5119   40.3895   17.7506 O   0  0  0  0  0  0  0  0  0  0  0  0
   27.8472   39.8896   18.0730 C   0  0  1  0  0  0  0  0  0  0  0  0
   28.8447   39.7450   19.0792 O   0  0  0  0  0  0  0  0  0  0  0  0
   27.7601   38.6246   17.2289 C   0  0  1  0  0  0  0  0  0  0  0  0
   29.0039   38.4842   16.5523 O   0  0  0  0  0  0  0  0  0  0  0  0
   27.4405   37.3462   18.0096 C   0  0  1  0  0  0  0  0  0  0  0  0
   27.1147   36.3159   17.0759 O   0  0  0  0  0  0  0  0  0  0  0  0
   28.6001   36.8550   18.8737 C   0  0  0  0  0  0  0  0  0  0  0  0
   28.4868   34.0968   18.2816 N   0  0  0  0  0  0  0  0  0  0  0  0
   28.4497   32.7718   17.9638 C   0  0  0  0  0  0  0  0  0  0  0  0
   28.8000   32.3816   16.8221 O   0  0  0  0  0  0  0  0  0  0  0  0
   28.0286   31.8591   18.8758 N   0  0  0  0  0  0  0  0  0  0  0  0
   27.6382   32.2440   20.1169 C   0  0  0  0  0  0  0  0  0  0  0  0
   27.6720   33.5919   20.4556 C   0  0  1  0  0  0  0  0  0  0  0  0
   27.2473   31.3960   20.9568 O   0  0  0  0  0  0  0  0  0  0  0  0
   27.3251   35.2925   22.0186 C   0  0  1  0  0  0  0  0  0  0  0  0
   27.2902   33.9848   21.6902 N   0  0  0  0  0  0  0  0  0  0  0  0
   26.9298   35.6882   23.2916 C   0  0  0  0  0  0  0  0  0  0  0  0
   26.9570   37.0285   23.6609 C   0  0  2  0  0  0  0  0  0  0  0  0
   26.5138   37.3872   25.0560 C   0  0  0  0  0  0  0  0  0  0  0  0
   27.3877   37.9934   22.7415 C   0  0  2  0  0  0  0  0  0  0  0  0
   27.4411   39.3281   23.0329 N   0  0  0  0  0  0  0  0  0  0  0  0
   27.7815   37.5801   21.4629 C   0  0  0  0  0  0  0  0  0  0  0  0
   27.7546   36.2372   21.0879 C   0  0  2  0  0  0  0  0  0  0  0  0
   28.1070   34.5332   19.5174 C   0  0  2  0  0  0  0  0  0  0  0  0
   28.1342   35.8498   19.8486 N   0  0  0  0  0  0  0  0  0  0  0  0
   28.4875   39.8331   23.9015 C   0  0  0  0  0  0  0  0  0  0  0  0
   26.4846   40.2849   22.5016 C   0  0  0  0  0  0  0  0  0  0  0  0
  1  2  1  0  0  0  0
  3  1  1  1  0  0  0
  3  4  1  0  0  0  0
  3  5  1  0  0  0  0
  5  6  1  1  0  0  0
  5  7  1  0  0  0  0
  7  8  1  6  0  0  0
  7  9  1  0  0  0  0
  9 27  1  0  0  0  0
 10 11  1  0  0  0  0
 11 12  2  0  0  0  0
 11 13  1  0  0  0  0
 13 14  1  0  0  0  0
 14 16  2  0  0  0  0
 15 14  1  1  0  0  0
 15 18  1  0  0  0  0
 15 26  1  0  0  0  0
 17 19  1  1  0  0  0
 17 25  1  0  0  0  0
 17 18  1  0  0  0  0
 19 20  1  0  0  0  0
 20 21  1  6  0  0  0
 20 22  1  0  0  0  0
 22 23  1  6  0  0  0
 22 24  1  0  0  0  0
 23 28  1  0  0  0  0
 23 29  1  0  0  0  0
 25 24  1  6  0  0  0
 25 27  1  0  0  0  0
 26 10  1  6  0  0  0
 26 27  1  0  0  0  0
M  END
>  <CHROM.1>
177.08979336,175.62899302,167.93308093,165.40069983,73.95570546,-92.62225890
27.64113971,36.51776666,20.08995151,-2.43265996,-1.43013330,2.60243525

>  <Name>
ligand

>  <RI>
0

>  <Rbt.Current_Directory>
/home/itssahil/PROJECTS/Mol_Feturizer/New_Systems/rnas/3F4H

>  <Rbt.Executable>
rbdock ($Id: //depot/dev/client3/rdock/2013.1/src/exe/rbdock.cxx#4 $)

>  <Rbt.Library>
libRbt.so (2013.1, Build901 2013/11/27)

>  <Rbt.Parameter_File>
/export/apps/rDock/src/rDock_2013.1_src/data/scripts/dock_solv.prm

>  <Rbt.Receptor>
prm/pocket_docking_6.prm

>  <SCORE>
-48.294

>  <SCORE.INTER>
-30.6657

>  <SCORE.INTER.CONST>
1

>  <SCORE.INTER.POLAR>
0

>  <SCORE.INTER.ROT>
6

>  <SCORE.INTER.SOLV>
10.4565

>  <SCORE.INTER.VDW>
-31.5293

>  <SCORE.INTER.norm>
-1.05744

>  <SCORE.INTRA>
-17.6323

>  <SCORE.INTRA.DIHEDRAL>
-3.40633

>  <SCORE.INTRA.DIHEDRAL.0>
6.83446

>  <SCORE.INTRA.POLAR>
0

>  <SCORE.INTRA.POLAR.0>
0

>  <SCORE.INTRA.REPUL>
0

>  <SCORE.INTRA.REPUL.0>
0

>  <SCORE.INTRA.SOLV>
0.0142492

>  <SCORE.INTRA.SOLV.lig_0>
-26.4601

>  <SCORE.INTRA.VDW>
-15.9363

>  <SCORE.INTRA.VDW.0>
13.7853

>  <SCORE.INTRA.norm>
-0.608011

>  <SCORE.RESTR>
0.00404327

>  <SCORE.RESTR.CAVITY>
0.00404327

>  <SCORE.RESTR.norm>
0.000139423

>  <SCORE.SYSTEM>
0

>  <SCORE.SYSTEM.CONST>
0

>  <SCORE.SYSTEM.DIHEDRAL>
0

>  <SCORE.SYSTEM.SOLV>
0

>  <SCORE.SYSTEM.norm>
0

>  <SCORE.heavy>
29

>  <SCORE.norm>
-1.66531

>  <RMSD>
1.421

$$$$
ligand
 OpenBabel11021811473D
libRbt.so/2013.1/901 2013/11/27
 29 31  0  0  0  0  0  0  0  0999 V2000
   27.0253   40.2360   16.4084 C   0  0  0  0  0  0  0  0  0  0  0  0
   28.2710   40.6008   15.8050 O   0  0  0  0  0  0  0  0  0  0  0  0
   27.1623   40.3005   17.9234 C   0  0  1  0  0  0  0  0  0  0  0  0
   25.8932   40.0196   18.5056 O   0  0  0  0  0  0  0  0  0  0  0  0
   28.2010   39.2984   18.4102 C   0  0  1  0  0  0  0  0  0  0  0  0
   28.7163   39.7916   19.6414 O   0  0  0  0  0  0  0  0  0  0  0  0
   27.6847   37.8681   18.5930 C   0  0  1  0  0  0  0  0  0  0  0  0
   27.1444   37.4201   17.3493 O   0  0  0  0  0  0  0  0  0  0  0  0
   28.7675   36.8808   19.0239 C   0  0  0  0  0  0  0  0  0  0  0  0
   28.5558   34.1420   18.3717 N   0  0  0  0  0  0  0  0  0  0  0  0
   28.4728   32.8262   18.0257 C   0  0  0  0  0  0  0  0  0  0  0  0
   28.8518   32.4418   16.8912 O   0  0  0  0  0  0  0  0  0  0  0  0
   27.9747   31.9168   18.9013 N   0  0  0  0  0  0  0  0  0  0  0  0
   27.5513   32.2958   20.1334 C   0  0  0  0  0  0  0  0  0  0  0  0
   27.6312   33.6343   20.5006 C   0  0  1  0  0  0  0  0  0  0  0  0
   27.0890   31.4509   20.9396 O   0  0  0  0  0  0  0  0  0  0  0  0
   27.2967   35.3196   22.0828 C   0  0  1  0  0  0  0  0  0  0  0  0
   27.2171   34.0211   21.7267 N   0  0  0  0  0  0  0  0  0  0  0  0
   26.8677   35.7090   23.3468 C   0  0  0  0  0  0  0  0  0  0  0  0
   26.9394   37.0396   23.7441 C   0  0  2  0  0  0  0  0  0  0  0  0
   26.4560   37.3921   25.1274 C   0  0  0  0  0  0  0  0  0  0  0  0
   27.4499   38.0010   22.8625 C   0  0  2  0  0  0  0  0  0  0  0  0
   27.5507   39.3262   23.1830 N   0  0  0  0  0  0  0  0  0  0  0  0
   27.8768   37.5940   21.5926 C   0  0  0  0  0  0  0  0  0  0  0  0
   27.8055   36.2609   21.1895 C   0  0  2  0  0  0  0  0  0  0  0  0
   28.1456   34.5721   19.5999 C   0  0  2  0  0  0  0  0  0  0  0  0
   28.2178   35.8798   19.9587 N   0  0  0  0  0  0  0  0  0  0  0  0
   26.5947   40.2722   22.6393 C   0  0  0  0  0  0  0  0  0  0  0  0
   28.5866   39.8432   24.0619 C   0  0  0  0  0  0  0  0  0  0  0  0
  1  2  1  0  0  0  0
  3  1  1  6  0  0  0
  3  4  1  0  0  0  0
  3  5  1  0  0  0  0
  5  6  1  1  0  0  0
  5  7  1  0  0  0  0
  7  8  1  6  0  0  0
  7  9  1  0  0  0  0
  9 27  1  0  0  0  0
 10 11  1  0  0  0  0
 11 12  2  0  0  0  0
 11 13  1  0  0  0  0
 13 14  1  0  0  0  0
 14 16  2  0  0  0  0
 15 14  1  1  0  0  0
 15 18  1  0  0  0  0
 15 26  1  0  0  0  0
 17 19  1  1  0  0  0
 17 25  1  0  0  0  0
 17 18  1  0  0  0  0
 19 20  1  0  0  0  0
 20 21  1  6  0  0  0
 20 22  1  0  0  0  0
 22 23  1  6  0  0  0
 22 24  1  0  0  0  0
 23 28  1  0  0  0  0
 23 29  1  0  0  0  0
 25 24  1  6  0  0  0
 25 27  1  0  0  0  0
 26 10  1  6  0  0  0
 26 27  1  0  0  0  0
M  END
>  <CHROM.1>
176.29342573,154.07908970,57.35706022,143.96356145,-103.76364697,-66.94313111
27.65421515,36.70912534,20.15289225,-2.09760527,-1.44827730,2.67040485

>  <Name>
ligand

>  <RI>
0

>  <Rbt.Current_Directory>
/home/itssahil/PROJECTS/Mol_Feturizer/New_Systems/rnas/3F4H

>  <Rbt.Executable>
rbdock ($Id: //depot/dev/client3/rdock/2013.1/src/exe/rbdock.cxx#4 $)

>  <Rbt.Library>
libRbt.so (2013.1, Build901 2013/11/27)

>  <Rbt.Parameter_File>
/export/apps/rDock/src/rDock_2013.1_src/data/scripts/dock_solv.prm

>  <Rbt.Receptor>
prm/pocket_docking_4.prm

>  <SCORE>
-46.4467

>  <SCORE.INTER>
-31.0693

>  <SCORE.INTER.CONST>
1

>  <SCORE.INTER.POLAR>
0

>  <SCORE.INTER.ROT>
6

>  <SCORE.INTER.SOLV>
11.1738

>  <SCORE.INTER.VDW>
-32.0375

>  <SCORE.INTER.norm>
-1.07136

>  <SCORE.INTRA>
-15.3774

>  <SCORE.INTRA.DIHEDRAL>
0.85002

>  <SCORE.INTRA.DIHEDRAL.0>
6.83446

>  <SCORE.INTRA.POLAR>
0

>  <SCORE.INTRA.POLAR.0>
0

>  <SCORE.INTRA.REPUL>
0

>  <SCORE.INTRA.REPUL.0>
0

>  <SCORE.INTRA.SOLV>
0.401187

>  <SCORE.INTRA.SOLV.lig_0>
-26.4601

>  <SCORE.INTRA.VDW>
-16.003

>  <SCORE.INTRA.VDW.0>
13.7853

>  <SCORE.INTRA.norm>
-0.530254

>  <SCORE.RESTR>
0

>  <SCORE.RESTR.CAVITY>
0

>  <SCORE.RESTR.norm>
0

>  <SCORE.SYSTEM>
0

>  <SCORE.SYSTEM.CONST>
0

>  <SCORE.SYSTEM.DIHEDRAL>
0

>  <SCORE.SYSTEM.SOLV>
0

>  <SCORE.SYSTEM.norm>
0

>  <SCORE.heavy>
29

>  <SCORE.norm>
-1.60161

>  <RMSD>
1.422

$$$$
ligand
 OpenBabel11021811473D
libRbt.so/2013.1/901 2013/11/27
 29 31  0  0  0  0  0  0  0  0999 V2000
   30.1676   39.0538   17.9078 C   0  0  0  0  0  0  0  0  0  0  0  0
   30.9671   38.6129   16.8054 O   0  0  0  0  0  0  0  0  0  0  0  0
   28.7995   39.4842   17.3967 C   0  0  1  0  0  0  0  0  0  0  0  0
   28.9847   40.3718   16.2984 O   0  0  0  0  0  0  0  0  0  0  0  0
   27.9836   38.2723   16.9656 C   0  0  1  0  0  0  0  0  0  0  0  0
   28.7791   37.5363   16.0436 O   0  0  0  0  0  0  0  0  0  0  0  0
   27.5257   37.3606   18.1078 C   0  0  1  0  0  0  0  0  0  0  0  0
   26.6689   36.3540   17.5671 O   0  0  0  0  0  0  0  0  0  0  0  0
   28.6778   36.6657   18.8308 C   0  0  0  0  0  0  0  0  0  0  0  0
   28.5037   33.9031   18.2753 N   0  0  0  0  0  0  0  0  0  0  0  0
   28.4382   32.5749   17.9755 C   0  0  0  0  0  0  0  0  0  0  0  0
   28.8023   32.1590   16.8472 O   0  0  0  0  0  0  0  0  0  0  0  0
   27.9736   31.6872   18.8908 N   0  0  0  0  0  0  0  0  0  0  0  0
   27.5670   32.1003   20.1176 C   0  0  0  0  0  0  0  0  0  0  0  0
   27.6294   33.4517   20.4379 C   0  0  1  0  0  0  0  0  0  0  0  0
   27.1358   31.2753   20.9606 O   0  0  0  0  0  0  0  0  0  0  0  0
   27.2945   35.1836   21.9688 C   0  0  1  0  0  0  0  0  0  0  0  0
   27.2319   33.8725   21.6583 N   0  0  0  0  0  0  0  0  0  0  0  0
   26.8827   35.6081   23.2273 C   0  0  0  0  0  0  0  0  0  0  0  0
   26.9377   36.9525   23.5781 C   0  0  2  0  0  0  0  0  0  0  0  0
   26.4745   37.3432   24.9581 C   0  0  0  0  0  0  0  0  0  0  0  0
   27.4135   37.8922   22.6548 C   0  0  2  0  0  0  0  0  0  0  0  0
   27.4962   39.2291   22.9285 N   0  0  0  0  0  0  0  0  0  0  0  0
   27.8234   37.4499   21.3911 C   0  0  0  0  0  0  0  0  0  0  0  0
   27.7689   36.1029   21.0345 C   0  0  2  0  0  0  0  0  0  0  0  0
   28.1093   34.3673   19.4962 C   0  0  2  0  0  0  0  0  0  0  0  0
   28.1644   35.6875   19.8094 N   0  0  0  0  0  0  0  0  0  0  0  0
   26.5692   40.1506   22.2992 C   0  0  0  0  0  0  0  0  0  0  0  0
   28.4841   39.7827   23.8398 C   0  0  0  0  0  0  0  0  0  0  0  0
  1  2  1  0  0  0  0
  3  1  1  6  0  0  0
  3  4  1  0  0  0  0
  3  5  1  0  0  0  0
  5  6  1  6  0  0  0
  5  7  1  0  0  0  0
  7  8  1  6  0  0  0
  7  9  1  0  0  0  0
  9 27  1  0  0  0  0
 10 11  1  0  0  0  0
 11 12  2  0  0  0  0
 11 13  1  0  0  0  0
 13 14  1  0  0  0  0
 14 16  2  0  0  0  0
 15 14  1  1  0  0  0
 15 18  1  0  0  0  0
 15 26  1  0  0  0  0
 17 19  1  1  0  0  0
 17 25  1  0  0  0  0
 17 18  1  0  0  0  0
 19 20  1  0  0  0  0
 20 21  1  6  0  0  0
 20 22  1  0  0  0  0
 22 23  1  6  0  0  0
 22 24  1  0  0  0  0
 23 28  1  0  0  0  0
 23 29  1  0  0  0  0
 25 24  1  6  0  0  0
 25 27  1  0  0  0  0
 26 10  1  6  0  0  0
 26 27  1  0  0  0  0
M  END
>  <CHROM.1>
-49.61849886,-53.27066552,174.31608827,-173.39298292,-107.99538155,-82.37335134
28.00419460,36.27772237,19.84943240,-1.52888329,-1.27543249,-2.81241112

>  <Name>
ligand

>  <RI>
0

>  <Rbt.Current_Directory>
/home/itssahil/PROJECTS/Mol_Feturizer/New_Systems/rnas/3F4H

>  <Rbt.Executable>
rbdock ($Id: //depot/dev/client3/rdock/2013.1/src/exe/rbdock.cxx#4 $)

>  <Rbt.Library>
libRbt.so (2013.1, Build901 2013/11/27)

>  <Rbt.Parameter_File>
/export/apps/rDock/src/rDock_2013.1_src/data/scripts/dock_solv.prm

>  <Rbt.Receptor>
prm/pocket_docking_3.prm

>  <SCORE>
-46.2099

>  <SCORE.INTER>
-30.9624

>  <SCORE.INTER.CONST>
1

>  <SCORE.INTER.POLAR>
0

>  <SCORE.INTER.ROT>
6

>  <SCORE.INTER.SOLV>
10.9569

>  <SCORE.INTER.VDW>
-31.8939

>  <SCORE.INTER.norm>
-1.06767

>  <SCORE.INTRA>
-15.2476

>  <SCORE.INTRA.DIHEDRAL>
-3.95248

>  <SCORE.INTRA.DIHEDRAL.0>
6.83446

>  <SCORE.INTRA.POLAR>
0

>  <SCORE.INTRA.POLAR.0>
0

>  <SCORE.INTRA.REPUL>
0

>  <SCORE.INTRA.REPUL.0>
0

>  <SCORE.INTRA.SOLV>
0.288391

>  <SCORE.INTRA.SOLV.lig_0>
-26.4601

>  <SCORE.INTRA.VDW>
-13.4155

>  <SCORE.INTRA.VDW.0>
13.7853

>  <SCORE.INTRA.norm>
-0.525779

>  <SCORE.RESTR>
0

>  <SCORE.RESTR.CAVITY>
0

>  <SCORE.RESTR.norm>
0

>  <SCORE.SYSTEM>
0

>  <SCORE.SYSTEM.CONST>
0

>  <SCORE.SYSTEM.DIHEDRAL>
0

>  <SCORE.SYSTEM.SOLV>
0

>  <SCORE.SYSTEM.norm>
0

>  <SCORE.heavy>
29

>  <SCORE.norm>
-1.59345

>  <RMSD>
1.423

$$$$
ligand
 OpenBabel11021811473D
libRbt.so/2013.1/901 2013/11/27
 29 31  0  0  0  0  0  0  0  0999 V2000
   26.5495   40.1584   18.7841 C   0  0  0  0  0  0  0  0  0  0  0  0
   25.5700   40.4472   17.7810 O   0  0  0  0  0  0  0  0  0  0  0  0
   27.8877   39.8777   18.1143 C   0  0  1  0  0  0  0  0  0  0  0  0
   28.8774   39.7227   19.1267 O   0  0  0  0  0  0  0  0  0  0  0  0
   27.8049   38.6202   17.2587 C   0  0  1  0  0  0  0  0  0  0  0  0
   29.0529   38.4846   16.5889 O   0  0  0  0  0  0  0  0  0  0  0  0
   27.4790   37.3355   18.0260 C   0  0  1  0  0  0  0  0  0  0  0  0
   27.1681   36.3109   17.0808 O   0  0  0  0  0  0  0  0  0  0  0  0
   28.6289   36.8413   18.9013 C   0  0  0  0  0  0  0  0  0  0  0  0
   28.5091   34.0889   18.2838 N   0  0  0  0  0  0  0  0  0  0  0  0
   28.4691   32.7669   17.9538 C   0  0  0  0  0  0  0  0  0  0  0  0
   28.8252   32.3857   16.8109 O   0  0  0  0  0  0  0  0  0  0  0  0
   28.0389   31.8477   18.8549 N   0  0  0  0  0  0  0  0  0  0  0  0
   27.6420   32.2229   20.0969 C   0  0  0  0  0  0  0  0  0  0  0  0
   27.6786   33.5676   20.4479 C   0  0  1  0  0  0  0  0  0  0  0  0
   27.2426   31.3688   20.9267 O   0  0  0  0  0  0  0  0  0  0  0  0
   27.3281   35.2554   22.0239 C   0  0  1  0  0  0  0  0  0  0  0  0
   27.2904   33.9508   21.6836 N   0  0  0  0  0  0  0  0  0  0  0  0
   26.9261   35.6411   23.2979 C   0  0  0  0  0  0  0  0  0  0  0  0
   26.9559   36.9779   23.6794 C   0  0  2  0  0  0  0  0  0  0  0  0
   26.5052   37.3258   25.0748 C   0  0  0  0  0  0  0  0  0  0  0  0
   27.3961   37.9494   22.7714 C   0  0  2  0  0  0  0  0  0  0  0  0
   27.4525   39.2812   23.0752 N   0  0  0  0  0  0  0  0  0  0  0  0
   27.7964   37.5461   21.4918 C   0  0  0  0  0  0  0  0  0  0  0  0
   27.7670   36.2068   21.1045 C   0  0  2  0  0  0  0  0  0  0  0  0
   28.1230   34.5156   19.5210 C   0  0  2  0  0  0  0  0  0  0  0  0
   28.1530   35.8291   19.8642 N   0  0  0  0  0  0  0  0  0  0  0  0
   28.5071   39.7777   23.9388 C   0  0  0  0  0  0  0  0  0  0  0  0
   26.4913   40.2433   22.5622 C   0  0  0  0  0  0  0  0  0  0  0  0
  1  2  1  0  0  0  0
  3  1  1  1  0  0  0
  3  4  1  0  0  0  0
  3  5  1  0  0  0  0
  5  6  1  1  0  0  0
  5  7  1  0  0  0  0
  7  8  1  6  0  0  0
  7  9  1  0  0  0  0
  9 27  1  0  0  0  0
 10 11  1  0  0  0  0
 11 12  2  0  0  0  0
 11 13  1  0  0  0  0
 13 14  1  0  0  0  0
 14 16  2  0  0  0  0
 15 14  1  1  0  0  0
 15 18  1  0  0  0  0
 15 26  1  0  0  0  0
 17 19  1  1  0  0  0
 17 25  1  0  0  0  0
 17 18  1  0  0  0  0
 19 20  1  0  0  0  0
 20 21  1  6  0  0  0
 20 22  1  0  0  0  0
 22 23  1  6  0  0  0
 22 24  1  0  0  0  0
 23 28  1  0  0  0  0
 23 29  1  0  0  0  0
 25 24  1  6  0  0  0
 25 27  1  0  0  0  0
 26 10  1  6  0  0  0
 26 27  1  0  0  0  0
M  END
>  <CHROM.1>
174.35088515,175.56171173,168.36387629,165.32458494,74.87934155,-93.12674541
27.66133785,36.49656585,20.10580079,-2.39038099,-1.42606013,2.65198105

>  <Name>
ligand

>  <RI>
0

>  <Rbt.Current_Directory>
/home/itssahil/PROJECTS/Mol_Feturizer/New_Systems/rnas/3F4H

>  <Rbt.Executable>
rbdock ($Id: //depot/dev/client3/rdock/2013.1/src/exe/rbdock.cxx#4 $)

>  <Rbt.Library>
libRbt.so (2013.1, Build901 2013/11/27)

>  <Rbt.Parameter_File>
/export/apps/rDock/src/rDock_2013.1_src/data/scripts/dock_solv.prm

>  <Rbt.Receptor>
prm/pocket_docking_5.prm

>  <SCORE>
-48.4721

>  <SCORE.INTER>
-30.8044

>  <SCORE.INTER.CONST>
1

>  <SCORE.INTER.POLAR>
0

>  <SCORE.INTER.ROT>
6

>  <SCORE.INTER.SOLV>
10.3797

>  <SCORE.INTER.VDW>
-31.5962

>  <SCORE.INTER.norm>
-1.06222

>  <SCORE.INTRA>
-17.6677

>  <SCORE.INTRA.DIHEDRAL>
-3.34768

>  <SCORE.INTRA.DIHEDRAL.0>
6.83446

>  <SCORE.INTRA.POLAR>
0

>  <SCORE.INTRA.POLAR.0>
0

>  <SCORE.INTRA.REPUL>
0

>  <SCORE.INTRA.REPUL.0>
0

>  <SCORE.INTRA.SOLV>
-0.00529689

>  <SCORE.INTRA.SOLV.lig_0>
-26.4601

>  <SCORE.INTRA.VDW>
-15.9912

>  <SCORE.INTRA.VDW.0>
13.7853

>  <SCORE.INTRA.norm>
-0.609231

>  <SCORE.RESTR>
0

>  <SCORE.RESTR.CAVITY>
0

>  <SCORE.RESTR.norm>
0

>  <SCORE.SYSTEM>
0

>  <SCORE.SYSTEM.CONST>
0

>  <SCORE.SYSTEM.DIHEDRAL>
0

>  <SCORE.SYSTEM.SOLV>
0

>  <SCORE.SYSTEM.norm>
0

>  <SCORE.heavy>
29

>  <SCORE.norm>
-1.67145

>  <RMSD>
1.424

$$$$
ligand
 OpenBabel11021811473D
libRbt.so/2013.1/901 2013/11/27
 29 31  0  0  0  0  0  0  0  0999 V2000
   26.7391   40.3220   16.8421 C   0  0  0  0  0  0  0  0  0  0  0  0
   27.7606   40.4860   15.8528 O   0  0  0  0  0  0  0  0  0  0  0  0
   27.3629   40.4080   18.2283 C   0  0  1  0  0  0  0  0  0  0  0  0
   26.3234   40.3296   19.1987 O   0  0  0  0  0  0  0  0  0  0  0  0
   28.3656   39.2800   18.4350 C   0  0  1  0  0  0  0  0  0  0  0  0
   29.1877   39.6451   19.5375 O   0  0  0  0  0  0  0  0  0  0  0  0
   27.7468   37.9000   18.6765 C   0  0  1  0  0  0  0  0  0  0  0  0
   27.0461   37.5059   17.4961 O   0  0  0  0  0  0  0  0  0  0  0  0
   28.7767   36.8197   19.0006 C   0  0  0  0  0  0  0  0  0  0  0  0
   28.5637   34.0762   18.3687 N   0  0  0  0  0  0  0  0  0  0  0  0
   28.4804   32.7578   18.0327 C   0  0  0  0  0  0  0  0  0  0  0  0
   28.8701   32.3630   16.9054 O   0  0  0  0  0  0  0  0  0  0  0  0
   27.9704   31.8571   18.9105 N   0  0  0  0  0  0  0  0  0  0  0  0
   27.5354   32.2475   20.1349 C   0  0  0  0  0  0  0  0  0  0  0  0
   27.6154   33.5887   20.4919 C   0  0  1  0  0  0  0  0  0  0  0  0
   27.0622   31.4106   20.9431 O   0  0  0  0  0  0  0  0  0  0  0  0
   27.2694   35.2880   22.0566 C   0  0  1  0  0  0  0  0  0  0  0  0
   27.1896   33.9868   21.7104 N   0  0  0  0  0  0  0  0  0  0  0  0
   26.8283   35.6890   23.3128 C   0  0  0  0  0  0  0  0  0  0  0  0
   26.8999   37.0227   23.6999 C   0  0  2  0  0  0  0  0  0  0  0  0
   26.4031   37.3880   25.0751 C   0  0  0  0  0  0  0  0  0  0  0  0
   27.4224   37.9752   22.8158 C   0  0  2  0  0  0  0  0  0  0  0  0
   27.5237   39.3028   23.1264 N   0  0  0  0  0  0  0  0  0  0  0  0
   27.8613   37.5566   21.5538 C   0  0  0  0  0  0  0  0  0  0  0  0
   27.7903   36.2204   21.1610 C   0  0  2  0  0  0  0  0  0  0  0  0
   28.1420   34.5176   19.5890 C   0  0  2  0  0  0  0  0  0  0  0  0
   28.2143   35.8280   19.9378 N   0  0  0  0  0  0  0  0  0  0  0  0
   28.5900   39.7579   23.9985 C   0  0  0  0  0  0  0  0  0  0  0  0
   26.5998   40.3004   22.6126 C   0  0  0  0  0  0  0  0  0  0  0  0
  1  2  1  0  0  0  0
  3  1  1  6  0  0  0
  3  4  1  0  0  0  0
  3  5  1  0  0  0  0
  5  6  1  1  0  0  0
  5  7  1  0  0  0  0
  7  8  1  6  0  0  0
  7  9  1  0  0  0  0
  9 27  1  0  0  0  0
 10 11  1  0  0  0  0
 11 12  2  0  0  0  0
 11 13  1  0  0  0  0
 13 14  1  0  0  0  0
 14 16  2  0  0  0  0
 15 14  1  1  0  0  0
 15 18  1  0  0  0  0
 15 26  1  0  0  0  0
 17 19  1  1  0  0  0
 17 25  1  0  0  0  0
 17 18  1  0  0  0  0
 19 20  1  0  0  0  0
 20 21  1  6  0  0  0
 20 22  1  0  0  0  0
 22 23  1  6  0  0  0
 22 24  1  0  0  0  0
 23 28  1  0  0  0  0
 23 29  1  0  0  0  0
 25 24  1  6  0  0  0
 25 27  1  0  0  0  0
 26 10  1  6  0  0  0
 26 27  1  0  0  0  0
M  END
>  <CHROM.1>
176.29733217,162.45704041,64.90390856,146.90048266,77.16345122,-60.38562541
27.66046130,36.69228139,20.19767280,-2.08280077,-1.44075664,2.72666186

>  <Name>
ligand

>  <RI>
0

>  <Rbt.Current_Directory>
/home/itssahil/PROJECTS/Mol_Feturizer/New_Systems/rnas/3F4H

>  <Rbt.Executable>
rbdock ($Id: //depot/dev/client3/rdock/2013.1/src/exe/rbdock.cxx#4 $)

>  <Rbt.Library>
libRbt.so (2013.1, Build901 2013/11/27)

>  <Rbt.Parameter_File>
/export/apps/rDock/src/rDock_2013.1_src/data/scripts/dock_solv.prm

>  <Rbt.Receptor>
prm/pocket_docking_4.prm

>  <SCORE>
-46.6479

>  <SCORE.INTER>
-30.7917

>  <SCORE.INTER.CONST>
1

>  <SCORE.INTER.POLAR>
0

>  <SCORE.INTER.ROT>
6

>  <SCORE.INTER.SOLV>
11.2172

>  <SCORE.INTER.VDW>
-31.8669

>  <SCORE.INTER.norm>
-1.06178

>  <SCORE.INTRA>
-15.8562

>  <SCORE.INTRA.DIHEDRAL>
-0.557151

>  <SCORE.INTRA.DIHEDRAL.0>
6.83446

>  <SCORE.INTRA.POLAR>
0

>  <SCORE.INTRA.POLAR.0>
0

>  <SCORE.INTRA.REPUL>
0

>  <SCORE.INTRA.REPUL.0>
0

>  <SCORE.INTRA.SOLV>
0.392908

>  <SCORE.INTRA.SOLV.lig_0>
-26.4601

>  <SCORE.INTRA.VDW>
-15.7741

>  <SCORE.INTRA.VDW.0>
13.7853

>  <SCORE.INTRA.norm>
-0.546765

>  <SCORE.RESTR>
0

>  <SCORE.RESTR.CAVITY>
0

>  <SCORE.RESTR.norm>
0

>  <SCORE.SYSTEM>
0

>  <SCORE.SYSTEM.CONST>
0

>  <SCORE.SYSTEM.DIHEDRAL>
0

>  <SCORE.SYSTEM.SOLV>
0

>  <SCORE.SYSTEM.norm>
0

>  <SCORE.heavy>
29

>  <SCORE.norm>
-1.60855

>  <RMSD>
1.427

$$$$
ligand
 OpenBabel11021811473D
libRbt.so/2013.1/901 2013/11/27
 29 31  0  0  0  0  0  0  0  0999 V2000
   26.7426   40.0490   18.5721 C   0  0  0  0  0  0  0  0  0  0  0  0
   26.8813   41.3196   19.2166 O   0  0  0  0  0  0  0  0  0  0  0  0
   28.0458   39.6972   17.8679 C   0  0  1  0  0  0  0  0  0  0  0  0
   29.0740   39.5847   18.8470 O   0  0  0  0  0  0  0  0  0  0  0  0
   27.9027   38.3902   17.0987 C   0  0  1  0  0  0  0  0  0  0  0  0
   29.1359   38.1606   16.4269 O   0  0  0  0  0  0  0  0  0  0  0  0
   27.5363   37.1730   17.9530 C   0  0  1  0  0  0  0  0  0  0  0  0
   27.2076   36.0910   17.0808 O   0  0  0  0  0  0  0  0  0  0  0  0
   28.6647   36.7145   18.8745 C   0  0  0  0  0  0  0  0  0  0  0  0
   28.5142   33.9546   18.2991 N   0  0  0  0  0  0  0  0  0  0  0  0
   28.4597   32.6282   17.9895 C   0  0  0  0  0  0  0  0  0  0  0  0
   28.8177   32.2248   16.8547 O   0  0  0  0  0  0  0  0  0  0  0  0
   28.0128   31.7286   18.9021 N   0  0  0  0  0  0  0  0  0  0  0  0
   27.6132   32.1279   20.1357 C   0  0  0  0  0  0  0  0  0  0  0  0
   27.6646   33.4774   20.4659 C   0  0  1  0  0  0  0  0  0  0  0  0
   27.1984   31.2920   20.9762 O   0  0  0  0  0  0  0  0  0  0  0  0
   27.3259   35.1938   22.0134 C   0  0  1  0  0  0  0  0  0  0  0  0
   27.2740   33.8846   21.6932 N   0  0  0  0  0  0  0  0  0  0  0  0
   26.9213   35.6043   23.2788 C   0  0  0  0  0  0  0  0  0  0  0  0
   26.9656   36.9465   23.6396 C   0  0  2  0  0  0  0  0  0  0  0  0
   26.5111   37.3216   25.0267 C   0  0  0  0  0  0  0  0  0  0  0  0
   27.4231   37.8981   22.7194 C   0  0  2  0  0  0  0  0  0  0  0  0
   27.4944   39.2337   23.0028 N   0  0  0  0  0  0  0  0  0  0  0  0
   27.8259   37.4700   21.4486 C   0  0  0  0  0  0  0  0  0  0  0  0
   27.7820   36.1252   21.0820 C   0  0  2  0  0  0  0  0  0  0  0  0
   28.1263   34.4053   19.5271 C   0  0  2  0  0  0  0  0  0  0  0  0
   28.1706   35.7234   19.8501 N   0  0  0  0  0  0  0  0  0  0  0  0
   28.5368   39.7275   23.8826 C   0  0  0  0  0  0  0  0  0  0  0  0
   26.5612   40.2025   22.4518 C   0  0  0  0  0  0  0  0  0  0  0  0
  1  2  1  0  0  0  0
  3  1  1  1  0  0  0
  3  4  1  0  0  0  0
  3  5  1  0  0  0  0
  5  6  1  1  0  0  0
  5  7  1  0  0  0  0
  7  8  1  6  0  0  0
  7  9  1  0  0  0  0
  9 27  1  0  0  0  0
 10 11  1  0  0  0  0
 11 12  2  0  0  0  0
 11 13  1  0  0  0  0
 13 14  1  0  0  0  0
 14 16  2  0  0  0  0
 15 14  1  1  0  0  0
 15 18  1  0  0  0  0
 15 26  1  0  0  0  0
 17 19  1  1  0  0  0
 17 25  1  0  0  0  0
 17 18  1  0  0  0  0
 19 20  1  0  0  0  0
 20 21  1  6  0  0  0
 20 22  1  0  0  0  0
 22 23  1  6  0  0  0
 22 24  1  0  0  0  0
 23 28  1  0  0  0  0
 23 29  1  0  0  0  0
 25 24  1  6  0  0  0
 25 27  1  0  0  0  0
 26 10  1  6  0  0  0
 26 27  1  0  0  0  0
M  END
>  <CHROM.1>
62.40450295,177.60108722,169.87918282,168.81849616,73.86378986,-95.09553869
27.74856058,36.42408959,20.11411802,-2.02324655,-1.39599474,3.01608066

>  <Name>
ligand

>  <RI>
0

>  <Rbt.Current_Directory>
/home/itssahil/PROJECTS/Mol_Feturizer/New_Systems/rnas/3F4H

>  <Rbt.Executable>
rbdock ($Id: //depot/dev/client3/rdock/2013.1/src/exe/rbdock.cxx#4 $)

>  <Rbt.Library>
libRbt.so (2013.1, Build901 2013/11/27)

>  <Rbt.Parameter_File>
/export/apps/rDock/src/rDock_2013.1_src/data/scripts/dock_solv.prm

>  <Rbt.Receptor>
prm/pocket_docking_3.prm

>  <SCORE>
-48.4236

>  <SCORE.INTER>
-30.6024

>  <SCORE.INTER.CONST>
1

>  <SCORE.INTER.POLAR>
0

>  <SCORE.INTER.ROT>
6

>  <SCORE.INTER.SOLV>
9.83728

>  <SCORE.INTER.VDW>
-31.2807

>  <SCORE.INTER.norm>
-1.05525

>  <SCORE.INTRA>
-17.8212

>  <SCORE.INTRA.DIHEDRAL>
-3.91389

>  <SCORE.INTRA.DIHEDRAL.0>
6.83446

>  <SCORE.INTRA.POLAR>
0

>  <SCORE.INTRA.POLAR.0>
0

>  <SCORE.INTRA.REPUL>
0

>  <SCORE.INTRA.REPUL.0>
0

>  <SCORE.INTRA.SOLV>
0.0501186

>  <SCORE.INTRA.SOLV.lig_0>
-26.4601

>  <SCORE.INTRA.VDW>
-15.8893

>  <SCORE.INTRA.VDW.0>
13.7853

>  <SCORE.INTRA.norm>
-0.614524

>  <SCORE.RESTR>
0

>  <SCORE.RESTR.CAVITY>
0

>  <SCORE.RESTR.norm>
0

>  <SCORE.SYSTEM>
0

>  <SCORE.SYSTEM.CONST>
0

>  <SCORE.SYSTEM.DIHEDRAL>
0

>  <SCORE.SYSTEM.SOLV>
0

>  <SCORE.SYSTEM.norm>
0

>  <SCORE.heavy>
29

>  <SCORE.norm>
-1.66978

>  <RMSD>
1.429

$$$$
ligand
 OpenBabel11021811473D
libRbt.so/2013.1/901 2013/11/27
 29 31  0  0  0  0  0  0  0  0999 V2000
   29.4551   39.8067   15.6394 C   0  0  0  0  0  0  0  0  0  0  0  0
   30.2695   40.4579   16.6199 O   0  0  0  0  0  0  0  0  0  0  0  0
   28.9253   38.4997   16.2131 C   0  0  1  0  0  0  0  0  0  0  0  0
   30.0334   37.6828   16.5781 O   0  0  0  0  0  0  0  0  0  0  0  0
   28.0426   38.7661   17.4256 C   0  0  1  0  0  0  0  0  0  0  0  0
   26.8979   39.4745   16.9648 O   0  0  0  0  0  0  0  0  0  0  0  0
   27.6101   37.5166   18.1986 C   0  0  1  0  0  0  0  0  0  0  0  0
   27.1496   36.5422   17.2615 O   0  0  0  0  0  0  0  0  0  0  0  0
   28.7344   36.8906   19.0212 C   0  0  0  0  0  0  0  0  0  0  0  0
   28.5357   34.1540   18.3557 N   0  0  0  0  0  0  0  0  0  0  0  0
   28.4588   32.8395   18.0032 C   0  0  0  0  0  0  0  0  0  0  0  0
   28.8325   32.4637   16.8641 O   0  0  0  0  0  0  0  0  0  0  0  0
   27.9723   31.9223   18.8772 N   0  0  0  0  0  0  0  0  0  0  0  0
   27.5549   32.2920   20.1141 C   0  0  0  0  0  0  0  0  0  0  0  0
   27.6288   33.6290   20.4880 C   0  0  1  0  0  0  0  0  0  0  0  0
   27.1035   31.4399   20.9188 O   0  0  0  0  0  0  0  0  0  0  0  0
   27.2943   35.3036   22.0815 C   0  0  1  0  0  0  0  0  0  0  0  0
   27.2206   34.0065   21.7190 N   0  0  0  0  0  0  0  0  0  0  0  0
   26.8714   35.6835   23.3504 C   0  0  0  0  0  0  0  0  0  0  0  0
   26.9373   37.0124   23.7544 C   0  0  2  0  0  0  0  0  0  0  0  0
   26.4611   37.3544   25.1428 C   0  0  0  0  0  0  0  0  0  0  0  0
   27.4357   37.9817   22.8746 C   0  0  2  0  0  0  0  0  0  0  0  0
   27.5302   39.3058   23.2015 N   0  0  0  0  0  0  0  0  0  0  0  0
   27.8566   37.5843   21.5997 C   0  0  0  0  0  0  0  0  0  0  0  0
   27.7911   36.2530   21.1899 C   0  0  2  0  0  0  0  0  0  0  0  0
   28.1311   34.5749   19.5890 C   0  0  2  0  0  0  0  0  0  0  0  0
   28.1974   35.8811   19.9543 N   0  0  0  0  0  0  0  0  0  0  0  0
   28.5844   39.7532   24.0920 C   0  0  0  0  0  0  0  0  0  0  0  0
   26.6107   40.3074   22.6875 C   0  0  0  0  0  0  0  0  0  0  0  0
  1  2  1  0  0  0  0
  3  1  1  1  0  0  0
  3  4  1  0  0  0  0
  3  5  1  0  0  0  0
  5  6  1  6  0  0  0
  5  7  1  0  0  0  0
  7  8  1  6  0  0  0
  7  9  1  0  0  0  0
  9 27  1  0  0  0  0
 10 11  1  0  0  0  0
 11 12  2  0  0  0  0
 11 13  1  0  0  0  0
 13 14  1  0  0  0  0
 14 16  2  0  0  0  0
 15 14  1  1  0  0  0
 15 18  1  0  0  0  0
 15 26  1  0  0  0  0
 17 19  1  1  0  0  0
 17 25  1  0  0  0  0
 17 18  1  0  0  0  0
 19 20  1  0  0  0  0
 20 21  1  6  0  0  0
 20 22  1  0  0  0  0
 22 23  1  6  0  0  0
 22 24  1  0  0  0  0
 23 28  1  0  0  0  0
 23 29  1  0  0  0  0
 25 24  1  6  0  0  0
 25 27  1  0  0  0  0
 26 10  1  6  0  0  0
 26 27  1  0  0  0  0
M  END
>  <CHROM.1>
-58.87933735,65.32556599,-46.79341237,167.93775294,75.40406990,-88.73288559
27.95843453,36.45244437,19.86847576,-0.08677862,1.32012176,0.25815701

>  <Name>
ligand

>  <RI>
0

>  <Rbt.Current_Directory>
/home/itssahil/PROJECTS/Mol_Feturizer/New_Systems/rnas/3F4H

>  <Rbt.Executable>
rbdock ($Id: //depot/dev/client3/rdock/2013.1/src/exe/rbdock.cxx#4 $)

>  <Rbt.Library>
libRbt.so (2013.1, Build901 2013/11/27)

>  <Rbt.Parameter_File>
/export/apps/rDock/src/rDock_2013.1_src/data/scripts/dock_solv.prm

>  <Rbt.Receptor>
prm/pocket_docking_6.prm

>  <SCORE>
-48.6878

>  <SCORE.INTER>
-31.6328

>  <SCORE.INTER.CONST>
1

>  <SCORE.INTER.POLAR>
0

>  <SCORE.INTER.ROT>
6

>  <SCORE.INTER.SOLV>
11.259

>  <SCORE.INTER.VDW>
-32.4415

>  <SCORE.INTER.norm>
-1.09079

>  <SCORE.INTRA>
-17.055

>  <SCORE.INTRA.DIHEDRAL>
-3.53993

>  <SCORE.INTRA.DIHEDRAL.0>
6.83446

>  <SCORE.INTRA.POLAR>
0

>  <SCORE.INTRA.POLAR.0>
0

>  <SCORE.INTRA.REPUL>
0

>  <SCORE.INTRA.REPUL.0>
0

>  <SCORE.INTRA.SOLV>
0.19802

>  <SCORE.INTRA.SOLV.lig_0>
-26.4601

>  <SCORE.INTRA.VDW>
-15.384

>  <SCORE.INTRA.VDW.0>
13.7853

>  <SCORE.INTRA.norm>
-0.588103

>  <SCORE.RESTR>
0

>  <SCORE.RESTR.CAVITY>
0

>  <SCORE.RESTR.norm>
0

>  <SCORE.SYSTEM>
0

>  <SCORE.SYSTEM.CONST>
0

>  <SCORE.SYSTEM.DIHEDRAL>
0

>  <SCORE.SYSTEM.SOLV>
0

>  <SCORE.SYSTEM.norm>
0

>  <SCORE.heavy>
29

>  <SCORE.norm>
-1.67889

>  <RMSD>
1.431

$$$$
ligand
 OpenBabel11021811473D
libRbt.so/2013.1/901 2013/11/27
 29 31  0  0  0  0  0  0  0  0999 V2000
   29.5017   39.7459   15.6235 C   0  0  0  0  0  0  0  0  0  0  0  0
   28.7692   40.9748   15.5776 O   0  0  0  0  0  0  0  0  0  0  0  0
   28.6540   38.6800   16.3042 C   0  0  1  0  0  0  0  0  0  0  0  0
   29.3860   37.4584   16.3166 O   0  0  0  0  0  0  0  0  0  0  0  0
   28.3041   39.1013   17.7256 C   0  0  1  0  0  0  0  0  0  0  0  0
   27.3578   40.1596   17.6295 O   0  0  0  0  0  0  0  0  0  0  0  0
   27.7520   37.9833   18.6149 C   0  0  1  0  0  0  0  0  0  0  0  0
   26.7848   37.2460   17.8662 O   0  0  0  0  0  0  0  0  0  0  0  0
   28.8221   37.0073   19.0998 C   0  0  0  0  0  0  0  0  0  0  0  0
   28.5790   34.2854   18.3903 N   0  0  0  0  0  0  0  0  0  0  0  0
   28.4816   32.9779   18.0172 C   0  0  0  0  0  0  0  0  0  0  0  0
   28.8783   32.6089   16.8837 O   0  0  0  0  0  0  0  0  0  0  0  0
   27.9498   32.0606   18.8643 N   0  0  0  0  0  0  0  0  0  0  0  0
   27.5064   32.4233   20.0943 C   0  0  0  0  0  0  0  0  0  0  0  0
   27.6006   33.7530   20.4889 C   0  0  1  0  0  0  0  0  0  0  0  0
   27.0131   31.5712   20.8740 O   0  0  0  0  0  0  0  0  0  0  0  0
   27.2604   35.4133   22.0961 C   0  0  1  0  0  0  0  0  0  0  0  0
   27.1669   34.1233   21.7134 N   0  0  0  0  0  0  0  0  0  0  0  0
   26.8109   35.7858   23.3582 C   0  0  0  0  0  0  0  0  0  0  0  0
   26.8961   37.1072   23.7826 C   0  0  2  0  0  0  0  0  0  0  0  0
   26.3891   37.4415   25.1620 C   0  0  0  0  0  0  0  0  0  0  0  0
   27.4413   38.0763   22.9308 C   0  0  2  0  0  0  0  0  0  0  0  0
   27.5571   39.3933   23.2790 N   0  0  0  0  0  0  0  0  0  0  0  0
   27.8884   37.6864   21.6625 C   0  0  0  0  0  0  0  0  0  0  0  0
   27.8038   36.3627   21.2322 C   0  0  2  0  0  0  0  0  0  0  0  0
   28.1498   34.6990   19.6177 C   0  0  2  0  0  0  0  0  0  0  0  0
   28.2359   35.9981   20.0033 N   0  0  0  0  0  0  0  0  0  0  0  0
   26.5662   40.3483   22.8201 C   0  0  0  0  0  0  0  0  0  0  0  0
   28.6435   39.8926   24.1057 C   0  0  0  0  0  0  0  0  0  0  0  0
  1  2  1  0  0  0  0
  3  1  1  1  0  0  0
  3  4  1  0  0  0  0
  3  5  1  0  0  0  0
  5  6  1  6  0  0  0
  5  7  1  0  0  0  0
  7  8  1  6  0  0  0
  7  9  1  0  0  0  0
  9 27  1  0  0  0  0
 10 11  1  0  0  0  0
 11 12  2  0  0  0  0
 11 13  1  0  0  0  0
 13 14  1  0  0  0  0
 14 16  2  0  0  0  0
 15 14  1  1  0  0  0
 15 18  1  0  0  0  0
 15 26  1  0  0  0  0
 17 19  1  1  0  0  0
 17 25  1  0  0  0  0
 17 18  1  0  0  0  0
 19 20  1  0  0  0  0
 20 21  1  6  0  0  0
 20 22  1  0  0  0  0
 22 23  1  6  0  0  0
 22 24  1  0  0  0  0
 23 28  1  0  0  0  0
 23 29  1  0  0  0  0
 25 24  1  6  0  0  0
 25 27  1  0  0  0  0
 26 10  1  6  0  0  0
 26 27  1  0  0  0  0
M  END
>  <CHROM.1>
178.81101651,71.45897731,-44.77884556,177.17047020,-98.84812975,-69.52662107
27.87856875,36.63011435,19.91304154,0.35540849,1.35355069,0.11519425

>  <Name>
ligand

>  <RI>
0

>  <Rbt.Current_Directory>
/home/itssahil/PROJECTS/Mol_Feturizer/New_Systems/rnas/3F4H

>  <Rbt.Executable>
rbdock ($Id: //depot/dev/client3/rdock/2013.1/src/exe/rbdock.cxx#4 $)

>  <Rbt.Library>
libRbt.so (2013.1, Build901 2013/11/27)

>  <Rbt.Parameter_File>
/export/apps/rDock/src/rDock_2013.1_src/data/scripts/dock_solv.prm

>  <Rbt.Receptor>
prm/blind_docking_60.prm

>  <SCORE>
-47.4979

>  <SCORE.INTER>
-30.6589

>  <SCORE.INTER.CONST>
1

>  <SCORE.INTER.POLAR>
0

>  <SCORE.INTER.ROT>
6

>  <SCORE.INTER.SOLV>
10.8493

>  <SCORE.INTER.VDW>
-31.6557

>  <SCORE.INTER.norm>
-1.0572

>  <SCORE.INTRA>
-16.839

>  <SCORE.INTRA.DIHEDRAL>
-3.48217

>  <SCORE.INTRA.DIHEDRAL.0>
6.83446

>  <SCORE.INTRA.POLAR>
0

>  <SCORE.INTRA.POLAR.0>
0

>  <SCORE.INTRA.REPUL>
0

>  <SCORE.INTRA.REPUL.0>
0

>  <SCORE.INTRA.SOLV>
0.197941

>  <SCORE.INTRA.SOLV.lig_0>
-26.4601

>  <SCORE.INTRA.VDW>
-15.1969

>  <SCORE.INTRA.VDW.0>
13.7853

>  <SCORE.INTRA.norm>
-0.580654

>  <SCORE.RESTR>
0

>  <SCORE.RESTR.CAVITY>
0

>  <SCORE.RESTR.norm>
0

>  <SCORE.SYSTEM>
0

>  <SCORE.SYSTEM.CONST>
0

>  <SCORE.SYSTEM.DIHEDRAL>
0

>  <SCORE.SYSTEM.SOLV>
0

>  <SCORE.SYSTEM.norm>
0

>  <SCORE.heavy>
29

>  <SCORE.norm>
-1.63786

>  <RMSD>
1.433

$$$$
ligand
 OpenBabel11021811473D
libRbt.so/2013.1/901 2013/11/27
 29 31  0  0  0  0  0  0  0  0999 V2000
   29.3881   39.8547   15.6266 C   0  0  0  0  0  0  0  0  0  0  0  0
   30.3085   40.4990   16.5136 O   0  0  0  0  0  0  0  0  0  0  0  0
   28.8650   38.5834   16.2810 C   0  0  1  0  0  0  0  0  0  0  0  0
   29.9758   37.7642   16.6319 O   0  0  0  0  0  0  0  0  0  0  0  0
   28.0425   38.9179   17.5188 C   0  0  1  0  0  0  0  0  0  0  0  0
   26.9207   39.6783   17.0853 O   0  0  0  0  0  0  0  0  0  0  0  0
   27.5733   37.7071   18.3308 C   0  0  1  0  0  0  0  0  0  0  0  0
   26.9748   36.7677   17.4369 O   0  0  0  0  0  0  0  0  0  0  0  0
   28.7030   36.9999   19.0766 C   0  0  0  0  0  0  0  0  0  0  0  0
   28.5172   34.2643   18.4035 N   0  0  0  0  0  0  0  0  0  0  0  0
   28.4467   32.9503   18.0475 C   0  0  0  0  0  0  0  0  0  0  0  0
   28.8304   32.5781   16.9106 O   0  0  0  0  0  0  0  0  0  0  0  0
   27.9560   32.0298   18.9157 N   0  0  0  0  0  0  0  0  0  0  0  0
   27.5279   32.3956   20.1501 C   0  0  0  0  0  0  0  0  0  0  0  0
   27.5950   33.7319   20.5274 C   0  0  1  0  0  0  0  0  0  0  0  0
   27.0726   31.5404   20.9493 O   0  0  0  0  0  0  0  0  0  0  0  0
   27.2434   35.4021   22.1220 C   0  0  1  0  0  0  0  0  0  0  0  0
   27.1761   34.1056   21.7560 N   0  0  0  0  0  0  0  0  0  0  0  0
   26.8095   35.7779   23.3884 C   0  0  0  0  0  0  0  0  0  0  0  0
   26.8685   37.1061   23.7958 C   0  0  2  0  0  0  0  0  0  0  0  0
   26.3804   37.4437   25.1812 C   0  0  0  0  0  0  0  0  0  0  0  0
   27.3711   38.0787   22.9221 C   0  0  2  0  0  0  0  0  0  0  0  0
   27.4593   39.4024   23.2527 N   0  0  0  0  0  0  0  0  0  0  0  0
   27.8030   37.6854   21.6496 C   0  0  0  0  0  0  0  0  0  0  0  0
   27.7445   36.3548   21.2364 C   0  0  2  0  0  0  0  0  0  0  0  0
   28.1018   34.6813   19.6345 C   0  0  2  0  0  0  0  0  0  0  0  0
   28.1616   35.9868   20.0033 N   0  0  0  0  0  0  0  0  0  0  0  0
   28.5556   39.8648   24.0826 C   0  0  0  0  0  0  0  0  0  0  0  0
   26.4918   40.3889   22.8014 C   0  0  0  0  0  0  0  0  0  0  0  0
  1  2  1  0  0  0  0
  3  1  1  1  0  0  0
  3  4  1  0  0  0  0
  3  5  1  0  0  0  0
  5  6  1  6  0  0  0
  5  7  1  0  0  0  0
  7  8  1  6  0  0  0
  7  9  1  0  0  0  0
  9 27  1  0  0  0  0
 10 11  1  0  0  0  0
 11 12  2  0  0  0  0
 11 13  1  0  0  0  0
 13 14  1  0  0  0  0
 14 16  2  0  0  0  0
 15 14  1  1  0  0  0
 15 18  1  0  0  0  0
 15 26  1  0  0  0  0
 17 19  1  1  0  0  0
 17 25  1  0  0  0  0
 17 18  1  0  0  0  0
 19 20  1  0  0  0  0
 20 21  1  6  0  0  0
 20 22  1  0  0  0  0
 22 23  1  6  0  0  0
 22 24  1  0  0  0  0
 23 28  1  0  0  0  0
 23 29  1  0  0  0  0
 25 24  1  6  0  0  0
 25 27  1  0  0  0  0
 26 10  1  6  0  0  0
 26 27  1  0  0  0  0
M  END
>  <CHROM.1>
-55.99428947,62.70940155,-49.30458675,170.88907651,79.37083049,-83.98872184
27.91492622,36.56205642,19.91862406,-0.03382101,1.31247412,0.22822705

>  <Name>
ligand

>  <RI>
0

>  <Rbt.Current_Directory>
/home/itssahil/PROJECTS/Mol_Feturizer/New_Systems/rnas/3F4H

>  <Rbt.Executable>
rbdock ($Id: //depot/dev/client3/rdock/2013.1/src/exe/rbdock.cxx#4 $)

>  <Rbt.Library>
libRbt.so (2013.1, Build901 2013/11/27)

>  <Rbt.Parameter_File>
/export/apps/rDock/src/rDock_2013.1_src/data/scripts/dock_solv.prm

>  <Rbt.Receptor>
prm/pocket_docking_3.prm

>  <SCORE>
-48.7298

>  <SCORE.INTER>
-31.3968

>  <SCORE.INTER.CONST>
1

>  <SCORE.INTER.POLAR>
0

>  <SCORE.INTER.ROT>
6

>  <SCORE.INTER.SOLV>
11.1983

>  <SCORE.INTER.VDW>
-32.264

>  <SCORE.INTER.norm>
-1.08265

>  <SCORE.INTRA>
-17.333

>  <SCORE.INTRA.DIHEDRAL>
-3.9883

>  <SCORE.INTRA.DIHEDRAL.0>
6.83446

>  <SCORE.INTRA.POLAR>
0

>  <SCORE.INTRA.POLAR.0>
0

>  <SCORE.INTRA.REPUL>
0

>  <SCORE.INTRA.REPUL.0>
0

>  <SCORE.INTRA.SOLV>
0.160182

>  <SCORE.INTRA.SOLV.lig_0>
-26.4601

>  <SCORE.INTRA.VDW>
-15.4189

>  <SCORE.INTRA.VDW.0>
13.7853

>  <SCORE.INTRA.norm>
-0.597689

>  <SCORE.RESTR>
0

>  <SCORE.RESTR.CAVITY>
0

>  <SCORE.RESTR.norm>
0

>  <SCORE.SYSTEM>
0

>  <SCORE.SYSTEM.CONST>
0

>  <SCORE.SYSTEM.DIHEDRAL>
0

>  <SCORE.SYSTEM.SOLV>
0

>  <SCORE.SYSTEM.norm>
0

>  <SCORE.heavy>
29

>  <SCORE.norm>
-1.68034

>  <RMSD>
1.433

$$$$
ligand
 OpenBabel11021811473D
libRbt.so/2013.1/901 2013/11/27
 29 31  0  0  0  0  0  0  0  0999 V2000
   26.6461   40.0308   18.5399 C   0  0  0  0  0  0  0  0  0  0  0  0
   26.7455   41.3084   19.1778 O   0  0  0  0  0  0  0  0  0  0  0  0
   27.9674   39.7054   17.8569 C   0  0  1  0  0  0  0  0  0  0  0  0
   28.9833   39.6219   18.8516 O   0  0  0  0  0  0  0  0  0  0  0  0
   27.8659   38.3914   17.0931 C   0  0  1  0  0  0  0  0  0  0  0  0
   29.1134   38.1873   16.4399 O   0  0  0  0  0  0  0  0  0  0  0  0
   27.5161   37.1705   17.9490 C   0  0  1  0  0  0  0  0  0  0  0  0
   27.2141   36.0795   17.0783 O   0  0  0  0  0  0  0  0  0  0  0  0
   28.6462   36.7364   18.8802 C   0  0  0  0  0  0  0  0  0  0  0  0
   28.5098   33.9756   18.3049 N   0  0  0  0  0  0  0  0  0  0  0  0
   28.4619   32.6490   17.9953 C   0  0  0  0  0  0  0  0  0  0  0  0
   28.8170   32.2480   16.8588 O   0  0  0  0  0  0  0  0  0  0  0  0
   28.0249   31.7465   18.9098 N   0  0  0  0  0  0  0  0  0  0  0  0
   27.6288   32.1432   20.1454 C   0  0  0  0  0  0  0  0  0  0  0  0
   27.6735   33.4929   20.4757 C   0  0  1  0  0  0  0  0  0  0  0  0
   27.2231   31.3045   20.9877 O   0  0  0  0  0  0  0  0  0  0  0  0
   27.3317   35.2069   22.0252 C   0  0  1  0  0  0  0  0  0  0  0  0
   27.2863   33.8974   21.7049 N   0  0  0  0  0  0  0  0  0  0  0  0
   26.9307   35.6146   23.2926 C   0  0  0  0  0  0  0  0  0  0  0  0
   26.9684   36.9570   23.6535 C   0  0  2  0  0  0  0  0  0  0  0  0
   26.5183   37.3291   25.0429 C   0  0  0  0  0  0  0  0  0  0  0  0
   27.4158   37.9116   22.7313 C   0  0  2  0  0  0  0  0  0  0  0  0
   27.4803   39.2475   23.0146 N   0  0  0  0  0  0  0  0  0  0  0  0
   27.8151   37.4861   21.4585 C   0  0  0  0  0  0  0  0  0  0  0  0
   27.7777   36.1412   21.0918 C   0  0  2  0  0  0  0  0  0  0  0  0
   28.1250   34.4237   19.5349 C   0  0  2  0  0  0  0  0  0  0  0  0
   28.1628   35.7421   19.8580 N   0  0  0  0  0  0  0  0  0  0  0  0
   28.5252   39.7478   23.8877 C   0  0  0  0  0  0  0  0  0  0  0  0
   26.5371   40.2103   22.4702 C   0  0  0  0  0  0  0  0  0  0  0  0
  1  2  1  0  0  0  0
  3  1  1  1  0  0  0
  3  4  1  0  0  0  0
  3  5  1  0  0  0  0
  5  6  1  1  0  0  0
  5  7  1  0  0  0  0
  7  8  1  6  0  0  0
  7  9  1  0  0  0  0
  9 27  1  0  0  0  0
 10 11  1  0  0  0  0
 11 12  2  0  0  0  0
 11 13  1  0  0  0  0
 13 14  1  0  0  0  0
 14 16  2  0  0  0  0
 15 14  1  1  0  0  0
 15 18  1  0  0  0  0
 15 26  1  0  0  0  0
 17 19  1  1  0  0  0
 17 25  1  0  0  0  0
 17 18  1  0  0  0  0
 19 20  1  0  0  0  0
 20 21  1  6  0  0  0
 20 22  1  0  0  0  0
 22 23  1  6  0  0  0
 22 24  1  0  0  0  0
 23 28  1  0  0  0  0
 23 29  1  0  0  0  0
 25 24  1  6  0  0  0
 25 27  1  0  0  0  0
 26 10  1  6  0  0  0
 26 27  1  0  0  0  0
M  END
>  <CHROM.1>
62.46731830,177.55263150,169.39110769,168.67350755,73.97177191,-96.05595896
27.73080423,36.43635275,20.11840690,-2.09344370,-1.40185837,2.94758455

>  <Name>
ligand

>  <RI>
0

>  <Rbt.Current_Directory>
/home/itssahil/PROJECTS/Mol_Feturizer/New_Systems/rnas/3F4H

>  <Rbt.Executable>
rbdock ($Id: //depot/dev/client3/rdock/2013.1/src/exe/rbdock.cxx#4 $)

>  <Rbt.Library>
libRbt.so (2013.1, Build901 2013/11/27)

>  <Rbt.Parameter_File>
/export/apps/rDock/src/rDock_2013.1_src/data/scripts/dock_solv.prm

>  <Rbt.Receptor>
prm/pocket_docking_7.prm

>  <SCORE>
-48.4235

>  <SCORE.INTER>
-30.6373

>  <SCORE.INTER.CONST>
1

>  <SCORE.INTER.POLAR>
0

>  <SCORE.INTER.ROT>
6

>  <SCORE.INTER.SOLV>
9.82044

>  <SCORE.INTER.VDW>
-31.2984

>  <SCORE.INTER.norm>
-1.05646

>  <SCORE.INTRA>
-17.7862

>  <SCORE.INTRA.DIHEDRAL>
-3.86542

>  <SCORE.INTRA.DIHEDRAL.0>
6.83446

>  <SCORE.INTRA.POLAR>
0

>  <SCORE.INTRA.POLAR.0>
0

>  <SCORE.INTRA.REPUL>
0

>  <SCORE.INTRA.REPUL.0>
0

>  <SCORE.INTRA.SOLV>
0.0497754

>  <SCORE.INTRA.SOLV.lig_0>
-26.4601

>  <SCORE.INTRA.VDW>
-15.8784

>  <SCORE.INTRA.VDW.0>
13.7853

>  <SCORE.INTRA.norm>
-0.613317

>  <SCORE.RESTR>
0

>  <SCORE.RESTR.CAVITY>
0

>  <SCORE.RESTR.norm>
0

>  <SCORE.SYSTEM>
0

>  <SCORE.SYSTEM.CONST>
0

>  <SCORE.SYSTEM.DIHEDRAL>
0

>  <SCORE.SYSTEM.SOLV>
0

>  <SCORE.SYSTEM.norm>
0

>  <SCORE.heavy>
29

>  <SCORE.norm>
-1.66978

>  <RMSD>
1.436

$$$$
ligand
 OpenBabel11021811473D
libRbt.so/2013.1/901 2013/11/27
 29 31  0  0  0  0  0  0  0  0999 V2000
   27.6875   39.2493   15.7899 C   0  0  0  0  0  0  0  0  0  0  0  0
   27.1588   40.5722   15.6503 O   0  0  0  0  0  0  0  0  0  0  0  0
   28.8201   39.2650   16.8072 C   0  0  1  0  0  0  0  0  0  0  0  0
   29.6467   40.3955   16.5479 O   0  0  0  0  0  0  0  0  0  0  0  0
   28.2657   39.3292   18.2246 C   0  0  1  0  0  0  0  0  0  0  0  0
   27.2789   40.3541   18.2440 O   0  0  0  0  0  0  0  0  0  0  0  0
   27.6708   38.0182   18.7470 C   0  0  1  0  0  0  0  0  0  0  0  0
   26.8030   37.4849   17.7459 O   0  0  0  0  0  0  0  0  0  0  0  0
   28.7229   36.9611   19.0759 C   0  0  0  0  0  0  0  0  0  0  0  0
   28.5098   34.2278   18.4014 N   0  0  0  0  0  0  0  0  0  0  0  0
   28.4261   32.9148   18.0447 C   0  0  0  0  0  0  0  0  0  0  0  0
   28.8022   32.5400   16.9061 O   0  0  0  0  0  0  0  0  0  0  0  0
   27.9301   31.9981   18.9140 N   0  0  0  0  0  0  0  0  0  0  0  0
   27.5098   32.3668   20.1502 C   0  0  0  0  0  0  0  0  0  0  0  0
   27.5905   33.7022   20.5283 C   0  0  1  0  0  0  0  0  0  0  0  0
   27.0496   31.5152   20.9504 O   0  0  0  0  0  0  0  0  0  0  0  0
   27.2598   35.3742   22.1253 C   0  0  1  0  0  0  0  0  0  0  0  0
   27.1794   34.0787   21.7587 N   0  0  0  0  0  0  0  0  0  0  0  0
   26.8339   35.7530   23.3936 C   0  0  0  0  0  0  0  0  0  0  0  0
   26.9065   37.0803   23.8018 C   0  0  2  0  0  0  0  0  0  0  0  0
   26.4265   37.4212   25.1892 C   0  0  0  0  0  0  0  0  0  0  0  0
   27.4147   38.0490   22.9270 C   0  0  2  0  0  0  0  0  0  0  0  0
   27.5162   39.3715   23.2583 N   0  0  0  0  0  0  0  0  0  0  0  0
   27.8385   37.6527   21.6527 C   0  0  0  0  0  0  0  0  0  0  0  0
   27.7664   36.3230   21.2387 C   0  0  2  0  0  0  0  0  0  0  0  0
   28.1026   34.6476   19.6342 C   0  0  2  0  0  0  0  0  0  0  0  0
   28.1756   35.9522   20.0038 N   0  0  0  0  0  0  0  0  0  0  0  0
   26.5495   40.3195   22.7374 C   0  0  0  0  0  0  0  0  0  0  0  0
   28.5632   39.8836   24.1268 C   0  0  0  0  0  0  0  0  0  0  0  0
  1  2  1  0  0  0  0
  3  1  1  6  0  0  0
  3  4  1  0  0  0  0
  3  5  1  0  0  0  0
  5  6  1  6  0  0  0
  5  7  1  0  0  0  0
  7  8  1  6  0  0  0
  7  9  1  0  0  0  0
  9 27  1  0  0  0  0
 10 11  1  0  0  0  0
 11 12  2  0  0  0  0
 11 13  1  0  0  0  0
 13 14  1  0  0  0  0
 14 16  2  0  0  0  0
 15 14  1  1  0  0  0
 15 18  1  0  0  0  0
 15 26  1  0  0  0  0
 17 19  1  1  0  0  0
 17 25  1  0  0  0  0
 17 18  1  0  0  0  0
 19 20  1  0  0  0  0
 20 21  1  6  0  0  0
 20 22  1  0  0  0  0
 22 23  1  6  0  0  0
 22 24  1  0  0  0  0
 23 28  1  0  0  0  0
 23 29  1  0  0  0  0
 25 24  1  6  0  0  0
 25 27  1  0  0  0  0
 26 10  1  6  0  0  0
 26 27  1  0  0  0  0
M  END
>  <CHROM.1>
-44.14185957,-47.58599047,-47.51182741,159.34294874,-103.04911366,-62.24925768
27.74025852,36.72984446,19.99938754,-1.27844547,-1.41796099,3.08048864

>  <Name>
ligand

>  <RI>
0

>  <Rbt.Current_Directory>
/home/itssahil/PROJECTS/Mol_Feturizer/New_Systems/rnas/3F4H

>  <Rbt.Executable>
rbdock ($Id: //depot/dev/client3/rdock/2013.1/src/exe/rbdock.cxx#4 $)

>  <Rbt.Library>
libRbt.so (2013.1, Build901 2013/11/27)

>  <Rbt.Parameter_File>
/export/apps/rDock/src/rDock_2013.1_src/data/scripts/dock_solv.prm

>  <Rbt.Receptor>
prm/pocket_docking_3.prm

>  <SCORE>
-45.2233

>  <SCORE.INTER>
-30.9909

>  <SCORE.INTER.CONST>
1

>  <SCORE.INTER.POLAR>
0

>  <SCORE.INTER.ROT>
6

>  <SCORE.INTER.SOLV>
11.5647

>  <SCORE.INTER.VDW>
-32.1155

>  <SCORE.INTER.norm>
-1.06865

>  <SCORE.INTRA>
-14.2324

>  <SCORE.INTRA.DIHEDRAL>
-1.45265

>  <SCORE.INTRA.DIHEDRAL.0>
6.83446

>  <SCORE.INTRA.POLAR>
0

>  <SCORE.INTRA.POLAR.0>
0

>  <SCORE.INTRA.REPUL>
0

>  <SCORE.INTRA.REPUL.0>
0

>  <SCORE.INTRA.SOLV>
0.335379

>  <SCORE.INTRA.SOLV.lig_0>
-26.4601

>  <SCORE.INTRA.VDW>
-13.6738

>  <SCORE.INTRA.VDW.0>
13.7853

>  <SCORE.INTRA.norm>
-0.490773

>  <SCORE.RESTR>
0

>  <SCORE.RESTR.CAVITY>
0

>  <SCORE.RESTR.norm>
0

>  <SCORE.SYSTEM>
0

>  <SCORE.SYSTEM.CONST>
0

>  <SCORE.SYSTEM.DIHEDRAL>
0

>  <SCORE.SYSTEM.SOLV>
0

>  <SCORE.SYSTEM.norm>
0

>  <SCORE.heavy>
29

>  <SCORE.norm>
-1.55943

>  <RMSD>
1.439

$$$$
ligand
 OpenBabel11021811473D
libRbt.so/2013.1/901 2013/11/27
 29 31  0  0  0  0  0  0  0  0999 V2000
   26.6601   40.0406   18.6259 C   0  0  0  0  0  0  0  0  0  0  0  0
   26.7946   41.2930   19.3058 O   0  0  0  0  0  0  0  0  0  0  0  0
   27.9610   39.7179   17.9037 C   0  0  1  0  0  0  0  0  0  0  0  0
   28.9999   39.6026   18.8711 O   0  0  0  0  0  0  0  0  0  0  0  0
   27.8277   38.4223   17.1138 C   0  0  1  0  0  0  0  0  0  0  0  0
   29.0544   38.2246   16.4204 O   0  0  0  0  0  0  0  0  0  0  0  0
   27.4935   37.1847   17.9518 C   0  0  1  0  0  0  0  0  0  0  0  0
   27.1901   36.1069   17.0653 O   0  0  0  0  0  0  0  0  0  0  0  0
   28.6350   36.7418   18.8648 C   0  0  0  0  0  0  0  0  0  0  0  0
   28.4909   33.9804   18.2948 N   0  0  0  0  0  0  0  0  0  0  0  0
   28.4390   32.6534   17.9876 C   0  0  0  0  0  0  0  0  0  0  0  0
   28.7828   32.2505   16.8483 O   0  0  0  0  0  0  0  0  0  0  0  0
   28.0100   31.7525   18.9076 N   0  0  0  0  0  0  0  0  0  0  0  0
   27.6261   32.1513   20.1463 C   0  0  0  0  0  0  0  0  0  0  0  0
   27.6750   33.5014   20.4743 C   0  0  1  0  0  0  0  0  0  0  0  0
   27.2278   31.3142   20.9937 O   0  0  0  0  0  0  0  0  0  0  0  0
   27.3495   35.2180   22.0244 C   0  0  1  0  0  0  0  0  0  0  0  0
   27.2999   33.9081   21.7065 N   0  0  0  0  0  0  0  0  0  0  0  0
   26.9610   35.6278   23.2951 C   0  0  0  0  0  0  0  0  0  0  0  0
   27.0033   36.9707   23.6537 C   0  0  2  0  0  0  0  0  0  0  0  0
   26.5668   37.3451   25.0467 C   0  0  0  0  0  0  0  0  0  0  0  0
   27.4425   37.9236   22.7258 C   0  0  2  0  0  0  0  0  0  0  0  0
   27.5108   39.2599   23.0066 N   0  0  0  0  0  0  0  0  0  0  0  0
   27.8293   37.4960   21.4499 C   0  0  0  0  0  0  0  0  0  0  0  0
   27.7873   36.1506   21.0855 C   0  0  2  0  0  0  0  0  0  0  0  0
   28.1182   34.4306   19.5279 C   0  0  2  0  0  0  0  0  0  0  0  0
   28.1602   35.7494   19.8486 N   0  0  0  0  0  0  0  0  0  0  0  0
   26.5620   40.1722   22.3968 C   0  0  0  0  0  0  0  0  0  0  0  0
   28.5043   39.8216   23.9067 C   0  0  0  0  0  0  0  0  0  0  0  0
  1  2  1  0  0  0  0
  3  1  1  1  0  0  0
  3  4  1  0  0  0  0
  3  5  1  0  0  0  0
  5  6  1  1  0  0  0
  5  7  1  0  0  0  0
  7  8  1  6  0  0  0
  7  9  1  0  0  0  0
  9 27  1  0  0  0  0
 10 11  1  0  0  0  0
 11 12  2  0  0  0  0
 11 13  1  0  0  0  0
 13 14  1  0  0  0  0
 14 16  2  0  0  0  0
 15 14  1  1  0  0  0
 15 18  1  0  0  0  0
 15 26  1  0  0  0  0
 17 19  1  1  0  0  0
 17 25  1  0  0  0  0
 17 18  1  0  0  0  0
 19 20  1  0  0  0  0
 20 21  1  6  0  0  0
 20 22  1  0  0  0  0
 22 23  1  6  0  0  0
 22 24  1  0  0  0  0
 23 28  1  0  0  0  0
 23 29  1  0  0  0  0
 25 24  1  6  0  0  0
 25 27  1  0  0  0  0
 26 10  1  6  0  0  0
 26 27  1  0  0  0  0
M  END
>  <CHROM.1>
61.60662844,177.25953051,170.78111728,167.45589718,-108.51319287,-95.55768986
27.73216825,36.44679655,20.12371397,-2.08602413,-1.40901557,2.96039655

>  <Name>
ligand

>  <RI>
0

>  <Rbt.Current_Directory>
/home/itssahil/PROJECTS/Mol_Feturizer/New_Systems/rnas/3F4H

>  <Rbt.Executable>
rbdock ($Id: //depot/dev/client3/rdock/2013.1/src/exe/rbdock.cxx#4 $)

>  <Rbt.Library>
libRbt.so (2013.1, Build901 2013/11/27)

>  <Rbt.Parameter_File>
/export/apps/rDock/src/rDock_2013.1_src/data/scripts/dock_solv.prm

>  <Rbt.Receptor>
prm/pocket_docking_3.prm

>  <SCORE>
-48.3387

>  <SCORE.INTER>
-30.6717

>  <SCORE.INTER.CONST>
1

>  <SCORE.INTER.POLAR>
0

>  <SCORE.INTER.ROT>
6

>  <SCORE.INTER.SOLV>
9.74878

>  <SCORE.INTER.VDW>
-31.2974

>  <SCORE.INTER.norm>
-1.05764

>  <SCORE.INTRA>
-17.667

>  <SCORE.INTRA.DIHEDRAL>
-3.8717

>  <SCORE.INTRA.DIHEDRAL.0>
6.83446

>  <SCORE.INTRA.POLAR>
0

>  <SCORE.INTRA.POLAR.0>
0

>  <SCORE.INTRA.REPUL>
0

>  <SCORE.INTRA.REPUL.0>
0

>  <SCORE.INTRA.SOLV>
0.123133

>  <SCORE.INTRA.SOLV.lig_0>
-26.4601

>  <SCORE.INTRA.VDW>
-15.7928

>  <SCORE.INTRA.VDW.0>
13.7853

>  <SCORE.INTRA.norm>
-0.609208

>  <SCORE.RESTR>
0

>  <SCORE.RESTR.CAVITY>
0

>  <SCORE.RESTR.norm>
0

>  <SCORE.SYSTEM>
0

>  <SCORE.SYSTEM.CONST>
0

>  <SCORE.SYSTEM.DIHEDRAL>
0

>  <SCORE.SYSTEM.SOLV>
0

>  <SCORE.SYSTEM.norm>
0

>  <SCORE.heavy>
29

>  <SCORE.norm>
-1.66685

>  <RMSD>
1.441

$$$$
ligand
 OpenBabel11021811473D
libRbt.so/2013.1/901 2013/11/27
 29 31  0  0  0  0  0  0  0  0999 V2000
   26.4699   40.0608   18.6934 C   0  0  0  0  0  0  0  0  0  0  0  0
   25.4951   40.3085   17.6750 O   0  0  0  0  0  0  0  0  0  0  0  0
   27.8203   39.7937   18.0429 C   0  0  1  0  0  0  0  0  0  0  0  0
   28.8017   39.6751   19.0682 O   0  0  0  0  0  0  0  0  0  0  0  0
   27.7702   38.5200   17.2089 C   0  0  1  0  0  0  0  0  0  0  0  0
   29.0284   38.3952   16.5561 O   0  0  0  0  0  0  0  0  0  0  0  0
   27.4582   37.2433   17.9951 C   0  0  1  0  0  0  0  0  0  0  0  0
   27.1516   36.2034   17.0655 O   0  0  0  0  0  0  0  0  0  0  0  0
   28.6160   36.7705   18.8720 C   0  0  0  0  0  0  0  0  0  0  0  0
   28.5024   34.0068   18.3061 N   0  0  0  0  0  0  0  0  0  0  0  0
   28.4652   32.6788   18.0009 C   0  0  0  0  0  0  0  0  0  0  0  0
   28.8147   32.2779   16.8626 O   0  0  0  0  0  0  0  0  0  0  0  0
   28.0450   31.7748   18.9218 N   0  0  0  0  0  0  0  0  0  0  0  0
   27.6554   32.1713   20.1595 C   0  0  0  0  0  0  0  0  0  0  0  0
   27.6893   33.5224   20.4854 C   0  0  1  0  0  0  0  0  0  0  0  0
   27.2652   31.3312   21.0077 O   0  0  0  0  0  0  0  0  0  0  0  0
   27.3435   35.2377   22.0325 C   0  0  1  0  0  0  0  0  0  0  0  0
   27.3085   33.9269   21.7166 N   0  0  0  0  0  0  0  0  0  0  0  0
   26.9491   35.6453   23.3021 C   0  0  0  0  0  0  0  0  0  0  0  0
   26.9765   36.9890   23.6586 C   0  0  2  0  0  0  0  0  0  0  0  0
   26.5343   37.3609   25.0506 C   0  0  0  0  0  0  0  0  0  0  0  0
   27.4064   37.9453   22.7298 C   0  0  2  0  0  0  0  0  0  0  0  0
   27.4599   39.2826   23.0086 N   0  0  0  0  0  0  0  0  0  0  0  0
   27.7992   37.5199   21.4549 C   0  0  0  0  0  0  0  0  0  0  0  0
   27.7722   36.1735   21.0926 C   0  0  2  0  0  0  0  0  0  0  0  0
   28.1235   34.4548   19.5380 C   0  0  2  0  0  0  0  0  0  0  0  0
   28.1508   35.7745   19.8568 N   0  0  0  0  0  0  0  0  0  0  0  0
   28.4940   39.7929   23.8887 C   0  0  0  0  0  0  0  0  0  0  0  0
   26.5154   40.2373   22.4524 C   0  0  0  0  0  0  0  0  0  0  0  0
  1  2  1  0  0  0  0
  3  1  1  1  0  0  0
  3  4  1  0  0  0  0
  3  5  1  0  0  0  0
  5  6  1  1  0  0  0
  5  7  1  0  0  0  0
  7  8  1  6  0  0  0
  7  9  1  0  0  0  0
  9 27  1  0  0  0  0
 10 11  1  0  0  0  0
 11 12  2  0  0  0  0
 11 13  1  0  0  0  0
 13 14  1  0  0  0  0
 14 16  2  0  0  0  0
 15 14  1  1  0  0  0
 15 18  1  0  0  0  0
 15 26  1  0  0  0  0
 17 19  1  1  0  0  0
 17 25  1  0  0  0  0
 17 18  1  0  0  0  0
 19 20  1  0  0  0  0
 20 21  1  6  0  0  0
 20 22  1  0  0  0  0
 22 23  1  6  0  0  0
 22 24  1  0  0  0  0
 23 28  1  0  0  0  0
 23 29  1  0  0  0  0
 25 24  1  6  0  0  0
 25 27  1  0  0  0  0
 26 10  1  6  0  0  0
 26 27  1  0  0  0  0
M  END
>  <CHROM.1>
174.57161500,175.63364802,167.25673450,164.94432535,72.97096938,-93.17752532
27.65213073,36.44448813,20.09013415,-2.46845952,-1.43170219,2.55538543

>  <Name>
ligand

>  <RI>
0

>  <Rbt.Current_Directory>
/home/itssahil/PROJECTS/Mol_Feturizer/New_Systems/rnas/3F4H

>  <Rbt.Executable>
rbdock ($Id: //depot/dev/client3/rdock/2013.1/src/exe/rbdock.cxx#4 $)

>  <Rbt.Library>
libRbt.so (2013.1, Build901 2013/11/27)

>  <Rbt.Parameter_File>
/export/apps/rDock/src/rDock_2013.1_src/data/scripts/dock_solv.prm

>  <Rbt.Receptor>
prm/pocket_docking_7.prm

>  <SCORE>
-48.4605

>  <SCORE.INTER>
-30.9467

>  <SCORE.INTER.CONST>
1

>  <SCORE.INTER.POLAR>
0

>  <SCORE.INTER.ROT>
6

>  <SCORE.INTER.SOLV>
10.7207

>  <SCORE.INTER.VDW>
-31.8047

>  <SCORE.INTER.norm>
-1.06713

>  <SCORE.INTRA>
-17.5138

>  <SCORE.INTRA.DIHEDRAL>
-3.22806

>  <SCORE.INTRA.DIHEDRAL.0>
6.83446

>  <SCORE.INTRA.POLAR>
0

>  <SCORE.INTRA.POLAR.0>
0

>  <SCORE.INTRA.REPUL>
0

>  <SCORE.INTRA.REPUL.0>
0

>  <SCORE.INTRA.SOLV>
0.0144684

>  <SCORE.INTRA.SOLV.lig_0>
-26.4601

>  <SCORE.INTRA.VDW>
-15.9071

>  <SCORE.INTRA.VDW.0>
13.7853

>  <SCORE.INTRA.norm>
-0.603926

>  <SCORE.RESTR>
0

>  <SCORE.RESTR.CAVITY>
0

>  <SCORE.RESTR.norm>
0

>  <SCORE.SYSTEM>
0

>  <SCORE.SYSTEM.CONST>
0

>  <SCORE.SYSTEM.DIHEDRAL>
0

>  <SCORE.SYSTEM.SOLV>
0

>  <SCORE.SYSTEM.norm>
0

>  <SCORE.heavy>
29

>  <SCORE.norm>
-1.67105

>  <RMSD>
1.447

$$$$
ligand
 OpenBabel11021811473D
libRbt.so/2013.1/901 2013/11/27
 29 31  0  0  0  0  0  0  0  0999 V2000
   26.5556   40.1693   18.7006 C   0  0  0  0  0  0  0  0  0  0  0  0
   26.6187   41.4148   19.4033 O   0  0  0  0  0  0  0  0  0  0  0  0
   27.9038   39.8893   18.0510 C   0  0  1  0  0  0  0  0  0  0  0  0
   28.8837   39.7636   19.0768 O   0  0  0  0  0  0  0  0  0  0  0  0
   27.8428   38.6149   17.2188 C   0  0  1  0  0  0  0  0  0  0  0  0
   29.1062   38.4684   16.5810 O   0  0  0  0  0  0  0  0  0  0  0  0
   27.5011   37.3450   18.0038 C   0  0  1  0  0  0  0  0  0  0  0  0
   27.1993   36.3052   17.0724 O   0  0  0  0  0  0  0  0  0  0  0  0
   28.6367   36.8619   18.9037 C   0  0  0  0  0  0  0  0  0  0  0  0
   28.5063   34.1055   18.3065 N   0  0  0  0  0  0  0  0  0  0  0  0
   28.4615   32.7812   17.9866 C   0  0  0  0  0  0  0  0  0  0  0  0
   28.8261   32.3890   16.8500 O   0  0  0  0  0  0  0  0  0  0  0  0
   28.0174   31.8717   18.8907 N   0  0  0  0  0  0  0  0  0  0  0  0
   27.6110   32.2590   20.1259 C   0  0  0  0  0  0  0  0  0  0  0  0
   27.6524   33.6061   20.4667 C   0  0  1  0  0  0  0  0  0  0  0  0
   27.1988   31.4138   20.9585 O   0  0  0  0  0  0  0  0  0  0  0  0
   27.2971   35.3083   22.0261 C   0  0  1  0  0  0  0  0  0  0  0  0
   27.2549   34.0013   21.6956 N   0  0  0  0  0  0  0  0  0  0  0  0
   26.8855   35.7064   23.2932 C   0  0  0  0  0  0  0  0  0  0  0  0
   26.9197   37.0460   23.6645 C   0  0  2  0  0  0  0  0  0  0  0  0
   26.4580   37.4075   25.0529 C   0  0  0  0  0  0  0  0  0  0  0  0
   27.3742   38.0077   22.7532 C   0  0  2  0  0  0  0  0  0  0  0  0
   27.4357   39.3415   23.0471 N   0  0  0  0  0  0  0  0  0  0  0  0
   27.7841   37.5920   21.4805 C   0  0  0  0  0  0  0  0  0  0  0  0
   27.7503   36.2498   21.1035 C   0  0  2  0  0  0  0  0  0  0  0  0
   28.1112   34.5442   19.5367 C   0  0  2  0  0  0  0  0  0  0  0  0
   28.1457   35.8601   19.8699 N   0  0  0  0  0  0  0  0  0  0  0  0
   28.4963   39.8414   23.9013 C   0  0  0  0  0  0  0  0  0  0  0  0
   26.4742   40.3024   22.5324 C   0  0  0  0  0  0  0  0  0  0  0  0
  1  2  1  0  0  0  0
  3  1  1  1  0  0  0
  3  4  1  0  0  0  0
  3  5  1  0  0  0  0
  5  6  1  1  0  0  0
  5  7  1  0  0  0  0
  7  8  1  6  0  0  0
  7  9  1  0  0  0  0
  9 27  1  0  0  0  0
 10 11  1  0  0  0  0
 11 12  2  0  0  0  0
 11 13  1  0  0  0  0
 13 14  1  0  0  0  0
 14 16  2  0  0  0  0
 15 14  1  1  0  0  0
 15 18  1  0  0  0  0
 15 26  1  0  0  0  0
 17 19  1  1  0  0  0
 17 25  1  0  0  0  0
 17 18  1  0  0  0  0
 19 20  1  0  0  0  0
 20 21  1  6  0  0  0
 20 22  1  0  0  0  0
 22 23  1  6  0  0  0
 22 24  1  0  0  0  0
 23 28  1  0  0  0  0
 23 29  1  0  0  0  0
 25 24  1  6  0  0  0
 25 27  1  0  0  0  0
 26 10  1  6  0  0  0
 26 27  1  0  0  0  0
M  END
>  <CHROM.1>
62.56133860,176.40271488,167.72999747,165.79939826,75.75526384,-93.73003330
27.69548593,36.56747883,20.16398517,-2.11425773,-1.39493845,2.93364317

>  <Name>
ligand

>  <RI>
0

>  <Rbt.Current_Directory>
/home/itssahil/PROJECTS/Mol_Feturizer/New_Systems/rnas/3F4H

>  <Rbt.Executable>
rbdock ($Id: //depot/dev/client3/rdock/2013.1/src/exe/rbdock.cxx#4 $)

>  <Rbt.Library>
libRbt.so (2013.1, Build901 2013/11/27)

>  <Rbt.Parameter_File>
/export/apps/rDock/src/rDock_2013.1_src/data/scripts/dock_solv.prm

>  <Rbt.Receptor>
prm/pocket_docking_6.prm

>  <SCORE>
-48.3527

>  <SCORE.INTER>
-30.5613

>  <SCORE.INTER.CONST>
1

>  <SCORE.INTER.POLAR>
0

>  <SCORE.INTER.ROT>
6

>  <SCORE.INTER.SOLV>
9.63391

>  <SCORE.INTER.VDW>
-31.1855

>  <SCORE.INTER.norm>
-1.05384

>  <SCORE.INTRA>
-17.7914

>  <SCORE.INTRA.DIHEDRAL>
-3.45834

>  <SCORE.INTRA.DIHEDRAL.0>
6.83446

>  <SCORE.INTRA.POLAR>
0

>  <SCORE.INTRA.POLAR.0>
0

>  <SCORE.INTRA.REPUL>
0

>  <SCORE.INTRA.REPUL.0>
0

>  <SCORE.INTRA.SOLV>
0.129277

>  <SCORE.INTRA.SOLV.lig_0>
-26.4601

>  <SCORE.INTRA.VDW>
-16.1269

>  <SCORE.INTRA.VDW.0>
13.7853

>  <SCORE.INTRA.norm>
-0.613497

>  <SCORE.RESTR>
0

>  <SCORE.RESTR.CAVITY>
0

>  <SCORE.RESTR.norm>
0

>  <SCORE.SYSTEM>
0

>  <SCORE.SYSTEM.CONST>
0

>  <SCORE.SYSTEM.DIHEDRAL>
0

>  <SCORE.SYSTEM.SOLV>
0

>  <SCORE.SYSTEM.norm>
0

>  <SCORE.heavy>
29

>  <SCORE.norm>
-1.66734

>  <RMSD>
1.450

$$$$
ligand
 OpenBabel11021811473D
libRbt.so/2013.1/901 2013/11/27
 29 31  0  0  0  0  0  0  0  0999 V2000
   27.6827   40.6149   15.8684 C   0  0  0  0  0  0  0  0  0  0  0  0
   27.5667   41.6694   16.8293 O   0  0  0  0  0  0  0  0  0  0  0  0
   27.1583   39.3209   16.4757 C   0  0  1  0  0  0  0  0  0  0  0  0
   26.9758   38.3710   15.4304 O   0  0  0  0  0  0  0  0  0  0  0  0
   28.1339   38.7832   17.5147 C   0  0  1  0  0  0  0  0  0  0  0  0
   28.2856   39.7894   18.5093 O   0  0  0  0  0  0  0  0  0  0  0  0
   27.7216   37.4598   18.1660 C   0  0  1  0  0  0  0  0  0  0  0  0
   27.4191   36.5221   17.1322 O   0  0  0  0  0  0  0  0  0  0  0  0
   28.8071   36.8545   19.0538 C   0  0  0  0  0  0  0  0  0  0  0  0
   28.5794   34.1166   18.4031 N   0  0  0  0  0  0  0  0  0  0  0  0
   28.4894   32.8009   18.0582 C   0  0  0  0  0  0  0  0  0  0  0  0
   28.8861   32.4102   16.9320 O   0  0  0  0  0  0  0  0  0  0  0  0
   27.9650   31.8987   18.9259 N   0  0  0  0  0  0  0  0  0  0  0  0
   27.5219   32.2848   20.1487 C   0  0  0  0  0  0  0  0  0  0  0  0
   27.6086   33.6232   20.5147 C   0  0  1  0  0  0  0  0  0  0  0  0
   27.0354   31.4465   20.9475 O   0  0  0  0  0  0  0  0  0  0  0  0
   27.2613   35.3153   22.0868 C   0  0  1  0  0  0  0  0  0  0  0  0
   27.1750   34.0169   21.7319 N   0  0  0  0  0  0  0  0  0  0  0  0
   26.8121   35.7120   23.3415 C   0  0  0  0  0  0  0  0  0  0  0  0
   26.8900   37.0427   23.7375 C   0  0  2  0  0  0  0  0  0  0  0  0
   26.3837   37.4032   25.1104 C   0  0  0  0  0  0  0  0  0  0  0  0
   27.4274   37.9967   22.8640 C   0  0  2  0  0  0  0  0  0  0  0  0
   27.5358   39.3215   23.1837 N   0  0  0  0  0  0  0  0  0  0  0  0
   27.8744   37.5825   21.6033 C   0  0  0  0  0  0  0  0  0  0  0  0
   27.7971   36.2494   21.2016 C   0  0  2  0  0  0  0  0  0  0  0  0
   28.1501   34.5537   19.6223 C   0  0  2  0  0  0  0  0  0  0  0  0
   28.2290   35.8613   19.9798 N   0  0  0  0  0  0  0  0  0  0  0  0
   28.5789   39.7590   24.0919 C   0  0  0  0  0  0  0  0  0  0  0  0
   26.6422   40.3333   22.6446 C   0  0  0  0  0  0  0  0  0  0  0  0
  1  2  1  0  0  0  0
  3  1  1  6  0  0  0
  3  4  1  0  0  0  0
  3  5  1  0  0  0  0
  5  6  1  1  0  0  0
  5  7  1  0  0  0  0
  7  8  1  6  0  0  0
  7  9  1  0  0  0  0
  9 27  1  0  0  0  0
 10 11  1  0  0  0  0
 11 12  2  0  0  0  0
 11 13  1  0  0  0  0
 13 14  1  0  0  0  0
 14 16  2  0  0  0  0
 15 14  1  1  0  0  0
 15 18  1  0  0  0  0
 15 26  1  0  0  0  0
 17 19  1  1  0  0  0
 17 25  1  0  0  0  0
 17 18  1  0  0  0  0
 19 20  1  0  0  0  0
 20 21  1  6  0  0  0
 20 22  1  0  0  0  0
 22 23  1  6  0  0  0
 22 24  1  0  0  0  0
 23 28  1  0  0  0  0
 23 29  1  0  0  0  0
 25 24  1  6  0  0  0
 25 27  1  0  0  0  0
 26 10  1  6  0  0  0
 26 27  1  0  0  0  0
M  END
>  <CHROM.1>
166.10534590,58.84817684,51.81861758,161.35947089,75.76766298,-90.58558459
27.67726625,36.59275254,19.91643968,-1.78091533,-1.46685821,2.70598242

>  <Name>
ligand

>  <RI>
0

>  <Rbt.Current_Directory>
/home/itssahil/PROJECTS/Mol_Feturizer/New_Systems/rnas/3F4H

>  <Rbt.Executable>
rbdock ($Id: //depot/dev/client3/rdock/2013.1/src/exe/rbdock.cxx#4 $)

>  <Rbt.Library>
libRbt.so (2013.1, Build901 2013/11/27)

>  <Rbt.Parameter_File>
/export/apps/rDock/src/rDock_2013.1_src/data/scripts/dock_solv.prm

>  <Rbt.Receptor>
prm/pocket_docking_4.prm

>  <SCORE>
-47.6692

>  <SCORE.INTER>
-31.2107

>  <SCORE.INTER.CONST>
1

>  <SCORE.INTER.POLAR>
0

>  <SCORE.INTER.ROT>
6

>  <SCORE.INTER.SOLV>
11.6968

>  <SCORE.INTER.VDW>
-32.3061

>  <SCORE.INTER.norm>
-1.07623

>  <SCORE.INTRA>
-16.4585

>  <SCORE.INTRA.DIHEDRAL>
-2.6821

>  <SCORE.INTRA.DIHEDRAL.0>
6.83446

>  <SCORE.INTRA.POLAR>
0

>  <SCORE.INTRA.POLAR.0>
0

>  <SCORE.INTRA.REPUL>
0

>  <SCORE.INTRA.REPUL.0>
0

>  <SCORE.INTRA.SOLV>
0.0488783

>  <SCORE.INTRA.SOLV.lig_0>
-26.4601

>  <SCORE.INTRA.VDW>
-15.1419

>  <SCORE.INTRA.VDW.0>
13.7853

>  <SCORE.INTRA.norm>
-0.567534

>  <SCORE.RESTR>
0

>  <SCORE.RESTR.CAVITY>
0

>  <SCORE.RESTR.norm>
0

>  <SCORE.SYSTEM>
0

>  <SCORE.SYSTEM.CONST>
0

>  <SCORE.SYSTEM.DIHEDRAL>
0

>  <SCORE.SYSTEM.SOLV>
0

>  <SCORE.SYSTEM.norm>
0

>  <SCORE.heavy>
29

>  <SCORE.norm>
-1.64377

>  <RMSD>
1.451

$$$$
ligand
 OpenBabel11021811473D
libRbt.so/2013.1/901 2013/11/27
 29 31  0  0  0  0  0  0  0  0999 V2000
   26.4852   40.0819   18.6227 C   0  0  0  0  0  0  0  0  0  0  0  0
   26.5566   41.3012   19.3693 O   0  0  0  0  0  0  0  0  0  0  0  0
   27.8294   39.8201   17.9574 C   0  0  1  0  0  0  0  0  0  0  0  0
   28.8268   39.7318   18.9702 O   0  0  0  0  0  0  0  0  0  0  0  0
   27.7835   38.5313   17.1466 C   0  0  1  0  0  0  0  0  0  0  0  0
   29.0413   38.3998   16.4945 O   0  0  0  0  0  0  0  0  0  0  0  0
   27.4778   37.2678   17.9563 C   0  0  1  0  0  0  0  0  0  0  0  0
   27.2470   36.1921   17.0456 O   0  0  0  0  0  0  0  0  0  0  0  0
   28.6096   36.8593   18.8970 C   0  0  0  0  0  0  0  0  0  0  0  0
   28.4941   34.1047   18.2885 N   0  0  0  0  0  0  0  0  0  0  0  0
   28.4560   32.7816   17.9628 C   0  0  0  0  0  0  0  0  0  0  0  0
   28.8061   32.3980   16.8188 O   0  0  0  0  0  0  0  0  0  0  0  0
   28.0342   31.8639   18.8693 N   0  0  0  0  0  0  0  0  0  0  0  0
   27.6438   32.2417   20.1126 C   0  0  0  0  0  0  0  0  0  0  0  0
   27.6786   33.5875   20.4593 C   0  0  1  0  0  0  0  0  0  0  0  0
   27.2522   31.3889   20.9474 O   0  0  0  0  0  0  0  0  0  0  0  0
   27.3329   35.2791   22.0324 C   0  0  1  0  0  0  0  0  0  0  0  0
   27.2970   33.9733   21.6962 N   0  0  0  0  0  0  0  0  0  0  0  0
   26.9377   35.6674   23.3077 C   0  0  0  0  0  0  0  0  0  0  0  0
   26.9660   37.0055   23.6850 C   0  0  2  0  0  0  0  0  0  0  0  0
   26.5229   37.3562   25.0821 C   0  0  0  0  0  0  0  0  0  0  0  0
   27.3976   37.9755   22.7714 C   0  0  2  0  0  0  0  0  0  0  0  0
   27.4520   39.3084   23.0708 N   0  0  0  0  0  0  0  0  0  0  0  0
   27.7912   37.5695   21.4904 C   0  0  0  0  0  0  0  0  0  0  0  0
   27.7633   36.2289   21.1074 C   0  0  2  0  0  0  0  0  0  0  0  0
   28.1145   34.5340   19.5268 C   0  0  2  0  0  0  0  0  0  0  0  0
   28.1427   35.8486   19.8659 N   0  0  0  0  0  0  0  0  0  0  0  0
   28.5122   39.8111   23.9238 C   0  0  0  0  0  0  0  0  0  0  0  0
   26.4830   40.2656   22.5633 C   0  0  0  0  0  0  0  0  0  0  0  0
  1  2  1  0  0  0  0
  3  1  1  1  0  0  0
  3  4  1  0  0  0  0
  3  5  1  0  0  0  0
  5  6  1  1  0  0  0
  5  7  1  0  0  0  0
  7  8  1  6  0  0  0
  7  9  1  0  0  0  0
  9 27  1  0  0  0  0
 10 11  1  0  0  0  0
 11 12  2  0  0  0  0
 11 13  1  0  0  0  0
 13 14  1  0  0  0  0
 14 16  2  0  0  0  0
 15 14  1  1  0  0  0
 15 18  1  0  0  0  0
 15 26  1  0  0  0  0
 17 19  1  1  0  0  0
 17 25  1  0  0  0  0
 17 18  1  0  0  0  0
 19 20  1  0  0  0  0
 20 21  1  6  0  0  0
 20 22  1  0  0  0  0
 22 23  1  6  0  0  0
 22 24  1  0  0  0  0
 23 28  1  0  0  0  0
 23 29  1  0  0  0  0
 25 24  1  6  0  0  0
 25 27  1  0  0  0  0
 26 10  1  6  0  0  0
 26 27  1  0  0  0  0
M  END
>  <CHROM.1>
59.20148251,176.52759170,170.42308963,166.52494121,75.02075306,-97.52456195
27.69535731,36.52876570,20.14514693,-2.20947769,-1.40825530,2.85991828

>  <Name>
ligand

>  <RI>
0

>  <Rbt.Current_Directory>
/home/itssahil/PROJECTS/Mol_Feturizer/New_Systems/rnas/3F4H

>  <Rbt.Executable>
rbdock ($Id: //depot/dev/client3/rdock/2013.1/src/exe/rbdock.cxx#4 $)

>  <Rbt.Library>
libRbt.so (2013.1, Build901 2013/11/27)

>  <Rbt.Parameter_File>
/export/apps/rDock/src/rDock_2013.1_src/data/scripts/dock_solv.prm

>  <Rbt.Receptor>
prm/pocket_docking_4.prm

>  <SCORE>
-48.2886

>  <SCORE.INTER>
-30.5739

>  <SCORE.INTER.CONST>
1

>  <SCORE.INTER.POLAR>
0

>  <SCORE.INTER.ROT>
6

>  <SCORE.INTER.SOLV>
9.6169

>  <SCORE.INTER.VDW>
-31.1882

>  <SCORE.INTER.norm>
-1.05427

>  <SCORE.INTRA>
-17.7258

>  <SCORE.INTRA.DIHEDRAL>
-3.75742

>  <SCORE.INTRA.DIHEDRAL.0>
6.83446

>  <SCORE.INTRA.POLAR>
0

>  <SCORE.INTRA.POLAR.0>
0

>  <SCORE.INTRA.REPUL>
0

>  <SCORE.INTRA.REPUL.0>
0

>  <SCORE.INTRA.SOLV>
0.124217

>  <SCORE.INTRA.SOLV.lig_0>
-26.4601

>  <SCORE.INTRA.VDW>
-15.9092

>  <SCORE.INTRA.VDW.0>
13.7853

>  <SCORE.INTRA.norm>
-0.611235

>  <SCORE.RESTR>
0.0110598

>  <SCORE.RESTR.CAVITY>
0.0110598

>  <SCORE.RESTR.norm>
0.000381371

>  <SCORE.SYSTEM>
0

>  <SCORE.SYSTEM.CONST>
0

>  <SCORE.SYSTEM.DIHEDRAL>
0

>  <SCORE.SYSTEM.SOLV>
0

>  <SCORE.SYSTEM.norm>
0

>  <SCORE.heavy>
29

>  <SCORE.norm>
-1.66513

>  <RMSD>
1.452

$$$$
ligand
 OpenBabel11021811473D
libRbt.so/2013.1/901 2013/11/27
 29 31  0  0  0  0  0  0  0  0999 V2000
   26.7101   40.5505   17.2034 C   0  0  0  0  0  0  0  0  0  0  0  0
   25.7525   41.2706   16.4203 O   0  0  0  0  0  0  0  0  0  0  0  0
   27.4231   39.5369   16.3189 C   0  0  1  0  0  0  0  0  0  0  0  0
   28.1026   40.2386   15.2825 O   0  0  0  0  0  0  0  0  0  0  0  0
   28.4108   38.7143   17.1363 C   0  0  1  0  0  0  0  0  0  0  0  0
   29.4036   39.6105   17.6221 O   0  0  0  0  0  0  0  0  0  0  0  0
   27.7949   37.9328   18.3006 C   0  0  1  0  0  0  0  0  0  0  0  0
   27.0402   36.8447   17.7657 O   0  0  0  0  0  0  0  0  0  0  0  0
   28.8314   37.3626   19.2666 C   0  0  0  0  0  0  0  0  0  0  0  0
   28.6036   34.6839   18.4039 N   0  0  0  0  0  0  0  0  0  0  0  0
   28.5140   33.3991   17.9576 C   0  0  0  0  0  0  0  0  0  0  0  0
   28.9264   33.0941   16.8107 O   0  0  0  0  0  0  0  0  0  0  0  0
   27.9731   32.4354   18.7454 N   0  0  0  0  0  0  0  0  0  0  0  0
   27.5129   32.7285   19.9876 C   0  0  0  0  0  0  0  0  0  0  0  0
   27.5990   34.0344   20.4567 C   0  0  1  0  0  0  0  0  0  0  0  0
   27.0112   31.8337   20.7123 O   0  0  0  0  0  0  0  0  0  0  0  0
   27.2340   35.6024   22.1489 C   0  0  1  0  0  0  0  0  0  0  0  0
   27.1484   34.3356   21.6939 N   0  0  0  0  0  0  0  0  0  0  0  0
   26.7672   35.9036   23.4236 C   0  0  0  0  0  0  0  0  0  0  0  0
   26.8440   37.1996   23.9218 C   0  0  2  0  0  0  0  0  0  0  0  0
   26.3182   37.4560   25.3108 C   0  0  0  0  0  0  0  0  0  0  0  0
   27.3981   38.2153   23.1324 C   0  0  2  0  0  0  0  0  0  0  0  0
   27.5065   39.5111   23.5546 N   0  0  0  0  0  0  0  0  0  0  0  0
   27.8628   37.8971   21.8504 C   0  0  0  0  0  0  0  0  0  0  0  0
   27.7866   36.5991   21.3462 C   0  0  2  0  0  0  0  0  0  0  0  0
   28.1574   35.0281   19.6466 C   0  0  2  0  0  0  0  0  0  0  0  0
   28.2357   36.3040   20.1048 N   0  0  0  0  0  0  0  0  0  0  0  0
   26.4518   40.4583   23.2468 C   0  0  0  0  0  0  0  0  0  0  0  0
   28.6471   39.9946   24.3149 C   0  0  0  0  0  0  0  0  0  0  0  0
  1  2  1  0  0  0  0
  3  1  1  1  0  0  0
  3  4  1  0  0  0  0
  3  5  1  0  0  0  0
  5  6  1  1  0  0  0
  5  7  1  0  0  0  0
  7  8  1  6  0  0  0
  7  9  1  0  0  0  0
  9 27  1  0  0  0  0
 10 11  1  0  0  0  0
 11 12  2  0  0  0  0
 11 13  1  0  0  0  0
 13 14  1  0  0  0  0
 14 16  2  0  0  0  0
 15 14  1  1  0  0  0
 15 18  1  0  0  0  0
 15 26  1  0  0  0  0
 17 19  1  1  0  0  0
 17 25  1  0  0  0  0
 17 18  1  0  0  0  0
 19 20  1  0  0  0  0
 20 21  1  6  0  0  0
 20 22  1  0  0  0  0
 22 23  1  6  0  0  0
 22 24  1  0  0  0  0
 23 28  1  0  0  0  0
 23 29  1  0  0  0  0
 25 24  1  6  0  0  0
 25 27  1  0  0  0  0
 26 10  1  6  0  0  0
 26 27  1  0  0  0  0
M  END
>  <CHROM.1>
61.13155792,-63.81274226,71.97640512,-162.72464412,-92.79231723,-96.91441494
27.65430009,36.92819200,19.98036147,1.18477568,1.44216637,-0.58778779

>  <Name>
ligand

>  <RI>
0

>  <Rbt.Current_Directory>
/home/itssahil/PROJECTS/Mol_Feturizer/New_Systems/rnas/3F4H

>  <Rbt.Executable>
rbdock ($Id: //depot/dev/client3/rdock/2013.1/src/exe/rbdock.cxx#4 $)

>  <Rbt.Library>
libRbt.so (2013.1, Build901 2013/11/27)

>  <Rbt.Parameter_File>
/export/apps/rDock/src/rDock_2013.1_src/data/scripts/dock_solv.prm

>  <Rbt.Receptor>
prm/blind_docking_80.prm

>  <SCORE>
-45.0284

>  <SCORE.INTER>
-28.2234

>  <SCORE.INTER.CONST>
1

>  <SCORE.INTER.POLAR>
0

>  <SCORE.INTER.ROT>
6

>  <SCORE.INTER.SOLV>
11.2551

>  <SCORE.INTER.VDW>
-30.1673

>  <SCORE.INTER.norm>
-0.973221

>  <SCORE.INTRA>
-16.805

>  <SCORE.INTRA.DIHEDRAL>
-3.20515

>  <SCORE.INTRA.DIHEDRAL.0>
6.83446

>  <SCORE.INTRA.POLAR>
0

>  <SCORE.INTRA.POLAR.0>
0

>  <SCORE.INTRA.REPUL>
0

>  <SCORE.INTRA.REPUL.0>
0

>  <SCORE.INTRA.SOLV>
-0.406603

>  <SCORE.INTRA.SOLV.lig_0>
-26.4601

>  <SCORE.INTRA.VDW>
-14.9992

>  <SCORE.INTRA.VDW.0>
13.7853

>  <SCORE.INTRA.norm>
-0.579484

>  <SCORE.RESTR>
0

>  <SCORE.RESTR.CAVITY>
0

>  <SCORE.RESTR.norm>
0

>  <SCORE.SYSTEM>
0

>  <SCORE.SYSTEM.CONST>
0

>  <SCORE.SYSTEM.DIHEDRAL>
0

>  <SCORE.SYSTEM.SOLV>
0

>  <SCORE.SYSTEM.norm>
0

>  <SCORE.heavy>
29

>  <SCORE.norm>
-1.5527

>  <RMSD>
1.459

$$$$
ligand
 OpenBabel11021811473D
libRbt.so/2013.1/901 2013/11/27
 29 31  0  0  0  0  0  0  0  0999 V2000
   29.4217   39.4610   15.9136 C   0  0  0  0  0  0  0  0  0  0  0  0
   29.0411   40.7430   15.4031 O   0  0  0  0  0  0  0  0  0  0  0  0
   29.3553   39.4853   17.4345 C   0  0  1  0  0  0  0  0  0  0  0  0
   28.0115   39.7497   17.8252 O   0  0  0  0  0  0  0  0  0  0  0  0
   29.8220   38.1552   18.0120 C   0  0  1  0  0  0  0  0  0  0  0  0
   29.8265   38.2904   19.4285 O   0  0  0  0  0  0  0  0  0  0  0  0
   28.9817   36.9417   17.6036 C   0  0  1  0  0  0  0  0  0  0  0  0
   29.6756   35.7576   17.9987 O   0  0  0  0  0  0  0  0  0  0  0  0
   27.5962   36.9170   18.2460 C   0  0  0  0  0  0  0  0  0  0  0  0
   27.5032   34.1169   17.8966 N   0  0  0  0  0  0  0  0  0  0  0  0
   27.4636   32.7699   17.6916 C   0  0  0  0  0  0  0  0  0  0  0  0
   27.4381   32.3048   16.5247 O   0  0  0  0  0  0  0  0  0  0  0  0
   27.4457   31.9158   18.7461 N   0  0  0  0  0  0  0  0  0  0  0  0
   27.4673   32.3818   20.0201 C   0  0  0  0  0  0  0  0  0  0  0  0
   27.5091   33.7532   20.2445 C   0  0  1  0  0  0  0  0  0  0  0  0
   27.4485   31.5875   20.9928 O   0  0  0  0  0  0  0  0  0  0  0  0
   27.5785   35.5577   21.7258 C   0  0  1  0  0  0  0  0  0  0  0  0
   27.5360   34.2271   21.5091 N   0  0  0  0  0  0  0  0  0  0  0  0
   27.6054   36.0368   23.0309 C   0  0  0  0  0  0  0  0  0  0  0  0
   27.6519   37.4029   23.2866 C   0  0  2  0  0  0  0  0  0  0  0  0
   27.6779   37.8530   24.7247 C   0  0  0  0  0  0  0  0  0  0  0  0
   27.6723   38.3089   22.2187 C   0  0  2  0  0  0  0  0  0  0  0  0
   27.7176   39.6642   22.3929 N   0  0  0  0  0  0  0  0  0  0  0  0
   27.6434   37.8116   20.9101 C   0  0  0  0  0  0  0  0  0  0  0  0
   27.5955   36.4426   20.6490 C   0  0  2  0  0  0  0  0  0  0  0  0
   27.5290   34.6344   19.1589 C   0  0  2  0  0  0  0  0  0  0  0  0
   27.5645   35.9736   19.3805 N   0  0  0  0  0  0  0  0  0  0  0  0
   28.9980   40.3461   22.3984 C   0  0  0  0  0  0  0  0  0  0  0  0
   26.5222   40.4715   22.5723 C   0  0  0  0  0  0  0  0  0  0  0  0
  1  2  1  0  0  0  0
  3  1  1  6  0  0  0
  3  4  1  0  0  0  0
  3  5  1  0  0  0  0
  5  6  1  1  0  0  0
  5  7  1  0  0  0  0
  7  8  1  1  0  0  0
  7  9  1  0  0  0  0
  9 27  1  0  0  0  0
 10 11  1  0  0  0  0
 11 12  2  0  0  0  0
 11 13  1  0  0  0  0
 13 14  1  0  0  0  0
 14 16  2  0  0  0  0
 15 14  1  6  0  0  0
 15 18  1  0  0  0  0
 15 26  1  0  0  0  0
 17 19  1  6  0  0  0
 17 25  1  0  0  0  0
 17 18  1  0  0  0  0
 19 20  1  0  0  0  0
 20 21  1  1  0  0  0
 20 22  1  0  0  0  0
 22 23  1  1  0  0  0
 22 24  1  0  0  0  0
 23 28  1  0  0  0  0
 23 29  1  0  0  0  0
 25 24  1  1  0  0  0
 25 27  1  0  0  0  0
 26 10  1  1  0  0  0
 26 27  1  0  0  0  0
M  END
>  <CHROM.1>
61.68149705,175.73346212,168.99323799,-101.60938344,93.46655541,103.68630476
28.07203512,36.57773385,19.72491759,-1.02777823,-1.32661775,-2.46203841

>  <Name>
ligand

>  <RI>
0

>  <Rbt.Current_Directory>
/home/itssahil/PROJECTS/Mol_Feturizer/New_Systems/rnas/3F4H

>  <Rbt.Executable>
rbdock ($Id: //depot/dev/client3/rdock/2013.1/src/exe/rbdock.cxx#4 $)

>  <Rbt.Library>
libRbt.so (2013.1, Build901 2013/11/27)

>  <Rbt.Parameter_File>
/export/apps/rDock/src/rDock_2013.1_src/data/scripts/dock_solv.prm

>  <Rbt.Receptor>
prm/blind_docking_80.prm

>  <SCORE>
-40.664

>  <SCORE.INTER>
-25.4492

>  <SCORE.INTER.CONST>
1

>  <SCORE.INTER.POLAR>
0

>  <SCORE.INTER.ROT>
6

>  <SCORE.INTER.SOLV>
10.4458

>  <SCORE.INTER.VDW>
-28.048

>  <SCORE.INTER.norm>
-0.877557

>  <SCORE.INTRA>
-15.2149

>  <SCORE.INTRA.DIHEDRAL>
-0.169828

>  <SCORE.INTRA.DIHEDRAL.0>
6.83446

>  <SCORE.INTRA.POLAR>
0

>  <SCORE.INTRA.POLAR.0>
0

>  <SCORE.INTRA.REPUL>
0

>  <SCORE.INTRA.REPUL.0>
0

>  <SCORE.INTRA.SOLV>
0.507862

>  <SCORE.INTRA.SOLV.lig_0>
-26.4601

>  <SCORE.INTRA.VDW>
-15.3839

>  <SCORE.INTRA.VDW.0>
13.7853

>  <SCORE.INTRA.norm>
-0.52465

>  <SCORE.RESTR>
0

>  <SCORE.RESTR.CAVITY>
0

>  <SCORE.RESTR.norm>
0

>  <SCORE.SYSTEM>
0

>  <SCORE.SYSTEM.CONST>
0

>  <SCORE.SYSTEM.DIHEDRAL>
0

>  <SCORE.SYSTEM.SOLV>
0

>  <SCORE.SYSTEM.norm>
0

>  <SCORE.heavy>
29

>  <SCORE.norm>
-1.40221

>  <RMSD>
1.460

$$$$
ligand
 OpenBabel11021811473D
libRbt.so/2013.1/901 2013/11/27
 29 31  0  0  0  0  0  0  0  0999 V2000
   26.7952   40.4699   17.6914 C   0  0  0  0  0  0  0  0  0  0  0  0
   25.9044   41.4532   17.1542 O   0  0  0  0  0  0  0  0  0  0  0  0
   27.1075   39.4348   16.6194 C   0  0  1  0  0  0  0  0  0  0  0  0
   27.5990   40.1108   15.4662 O   0  0  0  0  0  0  0  0  0  0  0  0
   28.1385   38.4342   17.1255 C   0  0  1  0  0  0  0  0  0  0  0  0
   29.2696   39.1798   17.5607 O   0  0  0  0  0  0  0  0  0  0  0  0
   27.6514   37.5157   18.2501 C   0  0  1  0  0  0  0  0  0  0  0  0
   26.6755   36.6219   17.7132 O   0  0  0  0  0  0  0  0  0  0  0  0
   28.7650   36.6811   18.8793 C   0  0  0  0  0  0  0  0  0  0  0  0
   28.5607   33.9238   18.3074 N   0  0  0  0  0  0  0  0  0  0  0  0
   28.4815   32.5981   18.0002 C   0  0  0  0  0  0  0  0  0  0  0  0
   28.8703   32.1804   16.8809 O   0  0  0  0  0  0  0  0  0  0  0  0
   27.9765   31.7148   18.8983 N   0  0  0  0  0  0  0  0  0  0  0  0
   27.5425   32.1301   20.1149 C   0  0  0  0  0  0  0  0  0  0  0  0
   27.6183   33.4790   20.4426 C   0  0  1  0  0  0  0  0  0  0  0  0
   27.0740   31.3092   20.9420 O   0  0  0  0  0  0  0  0  0  0  0  0
   27.2694   35.2104   21.9709 C   0  0  1  0  0  0  0  0  0  0  0  0
   27.1936   33.9018   21.6531 N   0  0  0  0  0  0  0  0  0  0  0  0
   26.8293   35.6370   23.2191 C   0  0  0  0  0  0  0  0  0  0  0  0
   26.8968   36.9790   23.5771 C   0  0  2  0  0  0  0  0  0  0  0  0
   26.4015   37.3721   24.9451 C   0  0  0  0  0  0  0  0  0  0  0  0
   27.4141   37.9140   22.6715 C   0  0  2  0  0  0  0  0  0  0  0  0
   27.5113   39.2483   22.9531 N   0  0  0  0  0  0  0  0  0  0  0  0
   27.8520   37.4697   21.4180 C   0  0  0  0  0  0  0  0  0  0  0  0
   27.7851   36.1252   21.0543 C   0  0  2  0  0  0  0  0  0  0  0  0
   28.1398   34.3900   19.5188 C   0  0  2  0  0  0  0  0  0  0  0  0
   28.2081   35.7079   19.8390 N   0  0  0  0  0  0  0  0  0  0  0  0
   28.5589   39.7221   23.8377 C   0  0  0  0  0  0  0  0  0  0  0  0
   26.6010   40.2351   22.3958 C   0  0  0  0  0  0  0  0  0  0  0  0
  1  2  1  0  0  0  0
  3  1  1  1  0  0  0
  3  4  1  0  0  0  0
  3  5  1  0  0  0  0
  5  6  1  1  0  0  0
  5  7  1  0  0  0  0
  7  8  1  6  0  0  0
  7  9  1  0  0  0  0
  9 27  1  0  0  0  0
 10 11  1  0  0  0  0
 11 12  2  0  0  0  0
 11 13  1  0  0  0  0
 13 14  1  0  0  0  0
 14 16  2  0  0  0  0
 15 14  1  1  0  0  0
 15 18  1  0  0  0  0
 15 26  1  0  0  0  0
 17 19  1  1  0  0  0
 17 25  1  0  0  0  0
 17 18  1  0  0  0  0
 19 20  1  0  0  0  0
 20 21  1  6  0  0  0
 20 22  1  0  0  0  0
 22 23  1  6  0  0  0
 22 24  1  0  0  0  0
 23 28  1  0  0  0  0
 23 29  1  0  0  0  0
 25 24  1  6  0  0  0
 25 27  1  0  0  0  0
 26 10  1  6  0  0  0
 26 27  1  0  0  0  0
M  END
>  <CHROM.1>
54.45145918,-55.05032774,68.85611647,-173.28530690,75.74129895,-75.53736283
27.60663177,36.53308435,19.88535081,-2.18347894,-1.43754485,2.40250587

>  <Name>
ligand

>  <RI>
0

>  <Rbt.Current_Directory>
/home/itssahil/PROJECTS/Mol_Feturizer/New_Systems/rnas/3F4H

>  <Rbt.Executable>
rbdock ($Id: //depot/dev/client3/rdock/2013.1/src/exe/rbdock.cxx#4 $)

>  <Rbt.Library>
libRbt.so (2013.1, Build901 2013/11/27)

>  <Rbt.Parameter_File>
/export/apps/rDock/src/rDock_2013.1_src/data/scripts/dock_solv.prm

>  <Rbt.Receptor>
prm/pocket_docking_3.prm

>  <SCORE>
-48.365

>  <SCORE.INTER>
-31.0528

>  <SCORE.INTER.CONST>
1

>  <SCORE.INTER.POLAR>
0

>  <SCORE.INTER.ROT>
6

>  <SCORE.INTER.SOLV>
12.2968

>  <SCORE.INTER.VDW>
-32.4008

>  <SCORE.INTER.norm>
-1.07079

>  <SCORE.INTRA>
-17.3122

>  <SCORE.INTRA.DIHEDRAL>
-4.13862

>  <SCORE.INTRA.DIHEDRAL.0>
6.83446

>  <SCORE.INTRA.POLAR>
0

>  <SCORE.INTRA.POLAR.0>
0

>  <SCORE.INTRA.REPUL>
0

>  <SCORE.INTRA.REPUL.0>
0

>  <SCORE.INTRA.SOLV>
-0.515014

>  <SCORE.INTRA.SOLV.lig_0>
-26.4601

>  <SCORE.INTRA.VDW>
-14.9854

>  <SCORE.INTRA.VDW.0>
13.7853

>  <SCORE.INTRA.norm>
-0.596971

>  <SCORE.RESTR>
0

>  <SCORE.RESTR.CAVITY>
0

>  <SCORE.RESTR.norm>
0

>  <SCORE.SYSTEM>
0

>  <SCORE.SYSTEM.CONST>
0

>  <SCORE.SYSTEM.DIHEDRAL>
0

>  <SCORE.SYSTEM.SOLV>
0

>  <SCORE.SYSTEM.norm>
0

>  <SCORE.heavy>
29

>  <SCORE.norm>
-1.66776

>  <RMSD>
1.460

$$$$
ligand
 OpenBabel11021811473D
libRbt.so/2013.1/901 2013/11/27
 29 31  0  0  0  0  0  0  0  0999 V2000
   26.5055   40.0211   18.6636 C   0  0  0  0  0  0  0  0  0  0  0  0
   26.5731   41.2628   19.3725 O   0  0  0  0  0  0  0  0  0  0  0  0
   27.8367   39.7643   17.9708 C   0  0  1  0  0  0  0  0  0  0  0  0
   28.8540   39.6730   18.9633 O   0  0  0  0  0  0  0  0  0  0  0  0
   27.7766   38.4791   17.1552 C   0  0  1  0  0  0  0  0  0  0  0  0
   29.0301   38.3405   16.4961 O   0  0  0  0  0  0  0  0  0  0  0  0
   27.4653   37.2148   17.9615 C   0  0  1  0  0  0  0  0  0  0  0  0
   27.1643   36.1589   17.0482 O   0  0  0  0  0  0  0  0  0  0  0  0
   28.6214   36.7595   18.8497 C   0  0  0  0  0  0  0  0  0  0  0  0
   28.4943   33.9994   18.2692 N   0  0  0  0  0  0  0  0  0  0  0  0
   28.4503   32.6733   17.9567 C   0  0  0  0  0  0  0  0  0  0  0  0
   28.7893   32.2778   16.8135 O   0  0  0  0  0  0  0  0  0  0  0  0
   28.0344   31.7655   18.8759 N   0  0  0  0  0  0  0  0  0  0  0  0
   27.6561   32.1562   20.1189 C   0  0  0  0  0  0  0  0  0  0  0  0
   27.6970   33.5053   20.4521 C   0  0  1  0  0  0  0  0  0  0  0  0
   27.2700   31.3126   20.9654 O   0  0  0  0  0  0  0  0  0  0  0  0
   27.3692   35.2129   22.0116 C   0  0  1  0  0  0  0  0  0  0  0  0
   27.3274   33.9040   21.6886 N   0  0  0  0  0  0  0  0  0  0  0  0
   26.9864   35.6146   23.2866 C   0  0  0  0  0  0  0  0  0  0  0  0
   27.0210   36.9562   23.6505 C   0  0  2  0  0  0  0  0  0  0  0  0
   26.5913   37.3216   25.0481 C   0  0  0  0  0  0  0  0  0  0  0  0
   27.4467   37.9163   22.7237 C   0  0  2  0  0  0  0  0  0  0  0  0
   27.5068   39.2519   23.0095 N   0  0  0  0  0  0  0  0  0  0  0  0
   27.8278   37.4969   21.4433 C   0  0  0  0  0  0  0  0  0  0  0  0
   27.7935   36.1527   21.0736 C   0  0  2  0  0  0  0  0  0  0  0  0
   28.1267   34.4417   19.5066 C   0  0  2  0  0  0  0  0  0  0  0  0
   28.1609   35.7594   19.8325 N   0  0  0  0  0  0  0  0  0  0  0  0
   26.5581   40.1619   22.3962 C   0  0  0  0  0  0  0  0  0  0  0  0
   28.4913   39.8150   23.9186 C   0  0  0  0  0  0  0  0  0  0  0  0
  1  2  1  0  0  0  0
  3  1  1  1  0  0  0
  3  4  1  0  0  0  0
  3  5  1  0  0  0  0
  5  6  1  1  0  0  0
  5  7  1  0  0  0  0
  7  8  1  6  0  0  0
  7  9  1  0  0  0  0
  9 27  1  0  0  0  0
 10 11  1  0  0  0  0
 11 12  2  0  0  0  0
 11 13  1  0  0  0  0
 13 14  1  0  0  0  0
 14 16  2  0  0  0  0
 15 14  1  1  0  0  0
 15 18  1  0  0  0  0
 15 26  1  0  0  0  0
 17 19  1  1  0  0  0
 17 25  1  0  0  0  0
 17 18  1  0  0  0  0
 19 20  1  0  0  0  0
 20 21  1  6  0  0  0
 20 22  1  0  0  0  0
 22 23  1  6  0  0  0
 22 24  1  0  0  0  0
 23 28  1  0  0  0  0
 23 29  1  0  0  0  0
 25 24  1  6  0  0  0
 25 27  1  0  0  0  0
 26 10  1  6  0  0  0
 26 27  1  0  0  0  0
M  END
>  <CHROM.1>
61.39900011,177.51682115,167.92497059,166.02886110,-109.32985348,-94.61280122
27.71122095,36.46009375,20.12751461,-2.19808224,-1.41689055,2.85013959

>  <Name>
ligand

>  <RI>
0

>  <Rbt.Current_Directory>
/home/itssahil/PROJECTS/Mol_Feturizer/New_Systems/rnas/3F4H

>  <Rbt.Executable>
rbdock ($Id: //depot/dev/client3/rdock/2013.1/src/exe/rbdock.cxx#4 $)

>  <Rbt.Library>
libRbt.so (2013.1, Build901 2013/11/27)

>  <Rbt.Parameter_File>
/export/apps/rDock/src/rDock_2013.1_src/data/scripts/dock_solv.prm

>  <Rbt.Receptor>
prm/blind_docking_100.prm

>  <SCORE>
-48.2319

>  <SCORE.INTER>
-30.6729

>  <SCORE.INTER.CONST>
1

>  <SCORE.INTER.POLAR>
0

>  <SCORE.INTER.ROT>
6

>  <SCORE.INTER.SOLV>
9.77244

>  <SCORE.INTER.VDW>
-31.3061

>  <SCORE.INTER.norm>
-1.05769

>  <SCORE.INTRA>
-17.559

>  <SCORE.INTRA.DIHEDRAL>
-3.53706

>  <SCORE.INTRA.DIHEDRAL.0>
6.83446

>  <SCORE.INTRA.POLAR>
0

>  <SCORE.INTRA.POLAR.0>
0

>  <SCORE.INTRA.REPUL>
0

>  <SCORE.INTRA.REPUL.0>
0

>  <SCORE.INTRA.SOLV>
0.15893

>  <SCORE.INTRA.SOLV.lig_0>
-26.4601

>  <SCORE.INTRA.VDW>
-15.8699

>  <SCORE.INTRA.VDW.0>
13.7853

>  <SCORE.INTRA.norm>
-0.605481

>  <SCORE.RESTR>
0

>  <SCORE.RESTR.CAVITY>
0

>  <SCORE.RESTR.norm>
0

>  <SCORE.SYSTEM>
0

>  <SCORE.SYSTEM.CONST>
0

>  <SCORE.SYSTEM.DIHEDRAL>
0

>  <SCORE.SYSTEM.SOLV>
0

>  <SCORE.SYSTEM.norm>
0

>  <SCORE.heavy>
29

>  <SCORE.norm>
-1.66317

>  <RMSD>
1.461

$$$$
ligand
 OpenBabel11021811473D
libRbt.so/2013.1/901 2013/11/27
 29 31  0  0  0  0  0  0  0  0999 V2000
   29.8955   40.4900   15.4722 C   0  0  0  0  0  0  0  0  0  0  0  0
   28.9372   41.5525   15.5119 O   0  0  0  0  0  0  0  0  0  0  0  0
   29.1905   39.1665   15.7359 C   0  0  1  0  0  0  0  0  0  0  0  0
   30.1397   38.1131   15.6031 O   0  0  0  0  0  0  0  0  0  0  0  0
   28.5788   39.1545   17.1309 C   0  0  1  0  0  0  0  0  0  0  0  0
   27.2933   39.7564   17.0315 O   0  0  0  0  0  0  0  0  0  0  0  0
   28.4611   37.7696   17.7743 C   0  0  1  0  0  0  0  0  0  0  0  0
   29.6670   37.4999   18.4904 O   0  0  0  0  0  0  0  0  0  0  0  0
   27.2921   37.6493   18.7499 C   0  0  0  0  0  0  0  0  0  0  0  0
   27.4284   35.0161   17.7404 N   0  0  0  0  0  0  0  0  0  0  0  0
   27.4954   33.7586   17.2186 C   0  0  0  0  0  0  0  0  0  0  0  0
   27.3998   33.5786   15.9789 O   0  0  0  0  0  0  0  0  0  0  0  0
   27.6607   32.6858   18.0333 N   0  0  0  0  0  0  0  0  0  0  0  0
   27.7629   32.8412   19.3772 C   0  0  0  0  0  0  0  0  0  0  0  0
   27.6976   34.1180   19.9235 C   0  0  1  0  0  0  0  0  0  0  0  0
   27.9137   31.8452   20.1273 O   0  0  0  0  0  0  0  0  0  0  0  0
   27.7419   35.5231   21.7887 C   0  0  1  0  0  0  0  0  0  0  0  0
   27.8034   34.2838   21.2598 N   0  0  0  0  0  0  0  0  0  0  0  0
   27.8512   35.6846   23.1655 C   0  0  0  0  0  0  0  0  0  0  0  0
   27.7942   36.9494   23.7404 C   0  0  2  0  0  0  0  0  0  0  0  0
   27.9182   37.0517   25.2389 C   0  0  0  0  0  0  0  0  0  0  0  0
   27.6252   38.0757   22.9252 C   0  0  2  0  0  0  0  0  0  0  0  0
   27.5600   39.3491   23.4187 N   0  0  0  0  0  0  0  0  0  0  0  0
   27.5153   37.8973   21.5407 C   0  0  0  0  0  0  0  0  0  0  0  0
   27.5707   36.6307   20.9600 C   0  0  2  0  0  0  0  0  0  0  0  0
   27.5287   35.2244   19.0852 C   0  0  2  0  0  0  0  0  0  0  0  0
   27.4600   36.4701   19.6213 N   0  0  0  0  0  0  0  0  0  0  0  0
   26.4591   39.7297   24.2833 C   0  0  0  0  0  0  0  0  0  0  0  0
   28.5613   40.3586   23.1167 C   0  0  0  0  0  0  0  0  0  0  0  0
  1  2  1  0  0  0  0
  3  1  1  1  0  0  0
  3  4  1  0  0  0  0
  3  5  1  0  0  0  0
  5  6  1  6  0  0  0
  5  7  1  0  0  0  0
  7  8  1  1  0  0  0
  7  9  1  0  0  0  0
  9 27  1  0  0  0  0
 10 11  1  0  0  0  0
 11 12  2  0  0  0  0
 11 13  1  0  0  0  0
 13 14  1  0  0  0  0
 14 16  2  0  0  0  0
 15 14  1  6  0  0  0
 15 18  1  0  0  0  0
 15 26  1  0  0  0  0
 17 19  1  6  0  0  0
 17 25  1  0  0  0  0
 17 18  1  0  0  0  0
 19 20  1  0  0  0  0
 20 21  1  1  0  0  0
 20 22  1  0  0  0  0
 22 23  1  1  0  0  0
 22 24  1  0  0  0  0
 23 28  1  0  0  0  0
 23 29  1  0  0  0  0
 25 24  1  1  0  0  0
 25 27  1  0  0  0  0
 26 10  1  1  0  0  0
 26 27  1  0  0  0  0
M  END
>  <CHROM.1>
176.09881083,85.81195355,89.18675873,-163.11104315,-64.43739574,118.26526049
28.03280717,36.90382513,19.57039529,-0.50124417,1.38338868,0.69098085

>  <Name>
ligand

>  <RI>
0

>  <Rbt.Current_Directory>
/home/itssahil/PROJECTS/Mol_Feturizer/New_Systems/rnas/3F4H

>  <Rbt.Executable>
rbdock ($Id: //depot/dev/client3/rdock/2013.1/src/exe/rbdock.cxx#4 $)

>  <Rbt.Library>
libRbt.so (2013.1, Build901 2013/11/27)

>  <Rbt.Parameter_File>
/export/apps/rDock/src/rDock_2013.1_src/data/scripts/dock_solv.prm

>  <Rbt.Receptor>
prm/pocket_docking_2.prm

>  <SCORE>
-35.9437

>  <SCORE.INTER>
-22.6741

>  <SCORE.INTER.CONST>
1

>  <SCORE.INTER.POLAR>
0

>  <SCORE.INTER.ROT>
6

>  <SCORE.INTER.SOLV>
10.2251

>  <SCORE.INTER.VDW>
-26.1244

>  <SCORE.INTER.norm>
-0.781865

>  <SCORE.INTRA>
-13.383

>  <SCORE.INTRA.DIHEDRAL>
0.883371

>  <SCORE.INTRA.DIHEDRAL.0>
6.83446

>  <SCORE.INTRA.POLAR>
0

>  <SCORE.INTRA.POLAR.0>
0

>  <SCORE.INTRA.REPUL>
0

>  <SCORE.INTRA.REPUL.0>
0

>  <SCORE.INTRA.SOLV>
-0.0493108

>  <SCORE.INTRA.SOLV.lig_0>
-26.4601

>  <SCORE.INTRA.VDW>
-13.8

>  <SCORE.INTRA.VDW.0>
13.7853

>  <SCORE.INTRA.norm>
-0.461483

>  <SCORE.RESTR>
0.113399

>  <SCORE.RESTR.CAVITY>
0.113399

>  <SCORE.RESTR.norm>
0.00391033

>  <SCORE.SYSTEM>
0

>  <SCORE.SYSTEM.CONST>
0

>  <SCORE.SYSTEM.DIHEDRAL>
0

>  <SCORE.SYSTEM.SOLV>
0

>  <SCORE.SYSTEM.norm>
0

>  <SCORE.heavy>
29

>  <SCORE.norm>
-1.23944

>  <RMSD>
1.468

$$$$
ligand
 OpenBabel11021811473D
libRbt.so/2013.1/901 2013/11/27
 29 31  0  0  0  0  0  0  0  0999 V2000
   27.8272   41.6038   17.3336 C   0  0  0  0  0  0  0  0  0  0  0  0
   28.5195   42.2653   18.3976 O   0  0  0  0  0  0  0  0  0  0  0  0
   27.1686   40.3405   17.8709 C   0  0  1  0  0  0  0  0  0  0  0  0
   26.2802   39.8355   16.8788 O   0  0  0  0  0  0  0  0  0  0  0  0
   28.2204   39.2955   18.2203 C   0  0  1  0  0  0  0  0  0  0  0  0
   29.0149   39.8337   19.2709 O   0  0  0  0  0  0  0  0  0  0  0  0
   27.6638   37.9290   18.6307 C   0  0  1  0  0  0  0  0  0  0  0  0
   26.9734   37.3680   17.5135 O   0  0  0  0  0  0  0  0  0  0  0  0
   28.7419   36.9396   19.0687 C   0  0  0  0  0  0  0  0  0  0  0  0
   28.5317   34.2016   18.4128 N   0  0  0  0  0  0  0  0  0  0  0  0
   28.4497   32.8861   18.0653 C   0  0  0  0  0  0  0  0  0  0  0  0
   28.8369   32.5021   16.9334 O   0  0  0  0  0  0  0  0  0  0  0  0
   27.9436   31.9767   18.9364 N   0  0  0  0  0  0  0  0  0  0  0  0
   27.5113   32.3554   20.1654 C   0  0  0  0  0  0  0  0  0  0  0  0
   27.5900   33.6935   20.5341 C   0  0  1  0  0  0  0  0  0  0  0  0
   27.0417   31.5105   20.9674 O   0  0  0  0  0  0  0  0  0  0  0  0
   27.2455   35.3781   22.1150 C   0  0  1  0  0  0  0  0  0  0  0  0
   27.1670   34.0799   21.7573 N   0  0  0  0  0  0  0  0  0  0  0  0
   26.8072   35.7671   23.3759 C   0  0  0  0  0  0  0  0  0  0  0  0
   26.8776   37.0974   23.7747 C   0  0  2  0  0  0  0  0  0  0  0  0
   26.3840   37.4495   25.1545 C   0  0  0  0  0  0  0  0  0  0  0  0
   27.3961   38.0587   22.8978 C   0  0  2  0  0  0  0  0  0  0  0  0
   27.4961   39.3836   23.2200 N   0  0  0  0  0  0  0  0  0  0  0  0
   27.8322   37.6521   21.6309 C   0  0  0  0  0  0  0  0  0  0  0  0
   27.7624   36.3194   21.2263 C   0  0  2  0  0  0  0  0  0  0  0  0
   28.1126   34.6313   19.6382 C   0  0  2  0  0  0  0  0  0  0  0  0
   28.1837   35.9386   19.9985 N   0  0  0  0  0  0  0  0  0  0  0  0
   28.5686   39.8338   24.0868 C   0  0  0  0  0  0  0  0  0  0  0  0
   26.5646   40.3830   22.7239 C   0  0  0  0  0  0  0  0  0  0  0  0
  1  2  1  0  0  0  0
  3  1  1  6  0  0  0
  3  4  1  0  0  0  0
  3  5  1  0  0  0  0
  5  6  1  1  0  0  0
  5  7  1  0  0  0  0
  7  8  1  6  0  0  0
  7  9  1  0  0  0  0
  9 27  1  0  0  0  0
 10 11  1  0  0  0  0
 11 12  2  0  0  0  0
 11 13  1  0  0  0  0
 13 14  1  0  0  0  0
 14 16  2  0  0  0  0
 15 14  1  1  0  0  0
 15 18  1  0  0  0  0
 15 26  1  0  0  0  0
 17 19  1  1  0  0  0
 17 25  1  0  0  0  0
 17 18  1  0  0  0  0
 19 20  1  0  0  0  0
 20 21  1  6  0  0  0
 20 22  1  0  0  0  0
 22 23  1  6  0  0  0
 22 24  1  0  0  0  0
 23 28  1  0  0  0  0
 23 29  1  0  0  0  0
 25 24  1  6  0  0  0
 25 27  1  0  0  0  0
 26 10  1  6  0  0  0
 26 27  1  0  0  0  0
M  END
>  <CHROM.1>
168.94338375,63.53401370,63.94825784,153.92382174,77.52777339,-66.91778719
27.68485152,36.86047708,20.23570942,-1.70542177,-1.44027171,3.03767497

>  <Name>
ligand

>  <RI>
0

>  <Rbt.Current_Directory>
/home/itssahil/PROJECTS/Mol_Feturizer/New_Systems/rnas/3F4H

>  <Rbt.Executable>
rbdock ($Id: //depot/dev/client3/rdock/2013.1/src/exe/rbdock.cxx#4 $)

>  <Rbt.Library>
libRbt.so (2013.1, Build901 2013/11/27)

>  <Rbt.Parameter_File>
/export/apps/rDock/src/rDock_2013.1_src/data/scripts/dock_solv.prm

>  <Rbt.Receptor>
prm/pocket_docking_8.prm

>  <SCORE>
-46.7223

>  <SCORE.INTER>
-30.2745

>  <SCORE.INTER.CONST>
1

>  <SCORE.INTER.POLAR>
0

>  <SCORE.INTER.ROT>
6

>  <SCORE.INTER.SOLV>
11.2494

>  <SCORE.INTER.VDW>
-31.5328

>  <SCORE.INTER.norm>
-1.04395

>  <SCORE.INTRA>
-16.4478

>  <SCORE.INTRA.DIHEDRAL>
-2.15776

>  <SCORE.INTRA.DIHEDRAL.0>
6.83446

>  <SCORE.INTRA.POLAR>
0

>  <SCORE.INTRA.POLAR.0>
0

>  <SCORE.INTRA.REPUL>
0

>  <SCORE.INTRA.REPUL.0>
0

>  <SCORE.INTRA.SOLV>
-0.00541712

>  <SCORE.INTRA.SOLV.lig_0>
-26.4601

>  <SCORE.INTRA.VDW>
-15.3662

>  <SCORE.INTRA.VDW.0>
13.7853

>  <SCORE.INTRA.norm>
-0.567166

>  <SCORE.RESTR>
0

>  <SCORE.RESTR.CAVITY>
0

>  <SCORE.RESTR.norm>
0

>  <SCORE.SYSTEM>
0

>  <SCORE.SYSTEM.CONST>
0

>  <SCORE.SYSTEM.DIHEDRAL>
0

>  <SCORE.SYSTEM.SOLV>
0

>  <SCORE.SYSTEM.norm>
0

>  <SCORE.heavy>
29

>  <SCORE.norm>
-1.61111

>  <RMSD>
1.481

$$$$
ligand
 OpenBabel11021811473D
libRbt.so/2013.1/901 2013/11/27
 29 31  0  0  0  0  0  0  0  0999 V2000
   26.1374   40.1997   17.4322 C   0  0  0  0  0  0  0  0  0  0  0  0
   25.4467   41.4521   17.4919 O   0  0  0  0  0  0  0  0  0  0  0  0
   27.5444   40.3743   17.9870 C   0  0  1  0  0  0  0  0  0  0  0  0
   27.4475   40.7820   19.3482 O   0  0  0  0  0  0  0  0  0  0  0  0
   28.3277   39.0723   17.8793 C   0  0  1  0  0  0  0  0  0  0  0  0
   29.6602   39.3476   18.2957 O   0  0  0  0  0  0  0  0  0  0  0  0
   27.7561   37.9042   18.6883 C   0  0  1  0  0  0  0  0  0  0  0  0
   26.6947   37.3116   17.9387 O   0  0  0  0  0  0  0  0  0  0  0  0
   28.7839   36.8175   18.9972 C   0  0  0  0  0  0  0  0  0  0  0  0
   28.5550   34.0793   18.3481 N   0  0  0  0  0  0  0  0  0  0  0  0
   28.4639   32.7636   18.0038 C   0  0  0  0  0  0  0  0  0  0  0  0
   28.8435   32.3750   16.8709 O   0  0  0  0  0  0  0  0  0  0  0  0
   27.9567   31.8589   18.8791 N   0  0  0  0  0  0  0  0  0  0  0  0
   27.5324   32.2426   20.1094 C   0  0  0  0  0  0  0  0  0  0  0  0
   27.6205   33.5811   20.4749 C   0  0  1  0  0  0  0  0  0  0  0  0
   27.0618   31.4021   20.9153 O   0  0  0  0  0  0  0  0  0  0  0  0
   27.2931   35.2709   22.0538 C   0  0  1  0  0  0  0  0  0  0  0  0
   27.2055   33.9724   21.6993 N   0  0  0  0  0  0  0  0  0  0  0  0
   26.8630   35.6650   23.3160 C   0  0  0  0  0  0  0  0  0  0  0  0
   26.9429   36.9957   23.7117 C   0  0  2  0  0  0  0  0  0  0  0  0
   26.4578   37.3535   25.0930 C   0  0  0  0  0  0  0  0  0  0  0  0
   27.4627   37.9522   22.8303 C   0  0  2  0  0  0  0  0  0  0  0  0
   27.5718   39.2771   23.1493 N   0  0  0  0  0  0  0  0  0  0  0  0
   27.8905   37.5405   21.5622 C   0  0  0  0  0  0  0  0  0  0  0  0
   27.8112   36.2074   21.1608 C   0  0  2  0  0  0  0  0  0  0  0  0
   28.1442   34.5140   19.5746 C   0  0  2  0  0  0  0  0  0  0  0  0
   28.2244   35.8216   19.9318 N   0  0  0  0  0  0  0  0  0  0  0  0
   26.6415   40.2330   22.5789 C   0  0  0  0  0  0  0  0  0  0  0  0
   28.5915   39.7842   24.0525 C   0  0  0  0  0  0  0  0  0  0  0  0
  1  2  1  0  0  0  0
  3  1  1  1  0  0  0
  3  4  1  0  0  0  0
  3  5  1  0  0  0  0
  5  6  1  1  0  0  0
  5  7  1  0  0  0  0
  7  8  1  6  0  0  0
  7  9  1  0  0  0  0
  9 27  1  0  0  0  0
 10 11  1  0  0  0  0
 11 12  2  0  0  0  0
 11 13  1  0  0  0  0
 13 14  1  0  0  0  0
 14 16  2  0  0  0  0
 15 14  1  1  0  0  0
 15 18  1  0  0  0  0
 15 26  1  0  0  0  0
 17 19  1  1  0  0  0
 17 25  1  0  0  0  0
 17 18  1  0  0  0  0
 19 20  1  0  0  0  0
 20 21  1  6  0  0  0
 20 22  1  0  0  0  0
 22 23  1  6  0  0  0
 22 24  1  0  0  0  0
 23 28  1  0  0  0  0
 23 29  1  0  0  0  0
 25 24  1  6  0  0  0
 25 27  1  0  0  0  0
 26 10  1  6  0  0  0
 26 27  1  0  0  0  0
M  END
>  <CHROM.1>
61.40293329,174.57515935,81.69276099,172.07227004,-105.07570721,-60.38241604
27.61145013,36.70926791,20.22818587,-2.41351754,-1.44415363,2.40419881

>  <Name>
ligand

>  <RI>
0

>  <Rbt.Current_Directory>
/home/itssahil/PROJECTS/Mol_Feturizer/New_Systems/rnas/3F4H

>  <Rbt.Executable>
rbdock ($Id: //depot/dev/client3/rdock/2013.1/src/exe/rbdock.cxx#4 $)

>  <Rbt.Library>
libRbt.so (2013.1, Build901 2013/11/27)

>  <Rbt.Parameter_File>
/export/apps/rDock/src/rDock_2013.1_src/data/scripts/dock_solv.prm

>  <Rbt.Receptor>
prm/blind_docking_60.prm

>  <SCORE>
-46.6919

>  <SCORE.INTER>
-30.2181

>  <SCORE.INTER.CONST>
1

>  <SCORE.INTER.POLAR>
0

>  <SCORE.INTER.ROT>
6

>  <SCORE.INTER.SOLV>
10.7125

>  <SCORE.INTER.VDW>
-31.3162

>  <SCORE.INTER.norm>
-1.042

>  <SCORE.INTRA>
-16.4738

>  <SCORE.INTRA.DIHEDRAL>
-2.92398

>  <SCORE.INTRA.DIHEDRAL.0>
6.83446

>  <SCORE.INTRA.POLAR>
0

>  <SCORE.INTRA.POLAR.0>
0

>  <SCORE.INTRA.REPUL>
0

>  <SCORE.INTRA.REPUL.0>
0

>  <SCORE.INTRA.SOLV>
-0.112215

>  <SCORE.INTRA.SOLV.lig_0>
-26.4601

>  <SCORE.INTRA.VDW>
-14.9557

>  <SCORE.INTRA.VDW.0>
13.7853

>  <SCORE.INTRA.norm>
-0.568063

>  <SCORE.RESTR>
0

>  <SCORE.RESTR.CAVITY>
0

>  <SCORE.RESTR.norm>
0

>  <SCORE.SYSTEM>
0

>  <SCORE.SYSTEM.CONST>
0

>  <SCORE.SYSTEM.DIHEDRAL>
0

>  <SCORE.SYSTEM.SOLV>
0

>  <SCORE.SYSTEM.norm>
0

>  <SCORE.heavy>
29

>  <SCORE.norm>
-1.61007

>  <RMSD>
1.487

$$$$
ligand
 OpenBabel11021811473D
libRbt.so/2013.1/901 2013/11/27
 29 31  0  0  0  0  0  0  0  0999 V2000
   29.5691   39.7963   15.8239 C   0  0  0  0  0  0  0  0  0  0  0  0
   30.7337   39.8640   16.6535 O   0  0  0  0  0  0  0  0  0  0  0  0
   28.6609   38.6804   16.3220 C   0  0  1  0  0  0  0  0  0  0  0  0
   29.4044   37.4658   16.3420 O   0  0  0  0  0  0  0  0  0  0  0  0
   28.1336   39.0008   17.7148 C   0  0  1  0  0  0  0  0  0  0  0  0
   27.0978   39.9642   17.5608 O   0  0  0  0  0  0  0  0  0  0  0  0
   27.6153   37.7949   18.5039 C   0  0  1  0  0  0  0  0  0  0  0  0
   26.6998   37.0739   17.6784 O   0  0  0  0  0  0  0  0  0  0  0  0
   28.7190   36.8339   18.9411 C   0  0  0  0  0  0  0  0  0  0  0  0
   28.5077   34.0947   18.2904 N   0  0  0  0  0  0  0  0  0  0  0  0
   28.4243   32.7788   17.9448 C   0  0  0  0  0  0  0  0  0  0  0  0
   28.7836   32.3972   16.8029 O   0  0  0  0  0  0  0  0  0  0  0  0
   27.9469   31.8663   18.8287 N   0  0  0  0  0  0  0  0  0  0  0  0
   27.5451   32.2423   20.0689 C   0  0  0  0  0  0  0  0  0  0  0  0
   27.6256   33.5808   20.4358 C   0  0  1  0  0  0  0  0  0  0  0  0
   27.1020   31.3946   20.8828 O   0  0  0  0  0  0  0  0  0  0  0  0
   27.3132   35.2632   22.0256 C   0  0  1  0  0  0  0  0  0  0  0  0
   27.2329   33.9646   21.6699 N   0  0  0  0  0  0  0  0  0  0  0  0
   26.9063   35.6495   23.2979 C   0  0  0  0  0  0  0  0  0  0  0  0
   26.9793   36.9801   23.6950 C   0  0  2  0  0  0  0  0  0  0  0  0
   26.5204   37.3291   25.0875 C   0  0  0  0  0  0  0  0  0  0  0  0
   27.4686   37.9445   22.8049 C   0  0  2  0  0  0  0  0  0  0  0  0
   27.5693   39.2700   23.1247 N   0  0  0  0  0  0  0  0  0  0  0  0
   27.8734   37.5407   21.5268 C   0  0  0  0  0  0  0  0  0  0  0  0
   27.8008   36.2076   21.1238 C   0  0  2  0  0  0  0  0  0  0  0  0
   28.1187   34.5219   19.5265 C   0  0  2  0  0  0  0  0  0  0  0  0
   28.1916   35.8295   19.8852 N   0  0  0  0  0  0  0  0  0  0  0  0
   28.6371   39.7200   23.9974 C   0  0  0  0  0  0  0  0  0  0  0  0
   26.6431   40.2702   22.6202 C   0  0  0  0  0  0  0  0  0  0  0  0
  1  2  1  0  0  0  0
  3  1  1  1  0  0  0
  3  4  1  0  0  0  0
  3  5  1  0  0  0  0
  5  6  1  6  0  0  0
  5  7  1  0  0  0  0
  7  8  1  6  0  0  0
  7  9  1  0  0  0  0
  9 27  1  0  0  0  0
 10 11  1  0  0  0  0
 11 12  2  0  0  0  0
 11 13  1  0  0  0  0
 13 14  1  0  0  0  0
 14 16  2  0  0  0  0
 15 14  1  1  0  0  0
 15 18  1  0  0  0  0
 15 26  1  0  0  0  0
 17 19  1  1  0  0  0
 17 25  1  0  0  0  0
 17 18  1  0  0  0  0
 19 20  1  0  0  0  0
 20 21  1  6  0  0  0
 20 22  1  0  0  0  0
 22 23  1  6  0  0  0
 22 24  1  0  0  0  0
 23 28  1  0  0  0  0
 23 29  1  0  0  0  0
 25 24  1  6  0  0  0
 25 27  1  0  0  0  0
 26 10  1  6  0  0  0
 26 27  1  0  0  0  0
M  END
>  <CHROM.1>
-56.20931507,77.00089825,-50.51727222,170.23905369,75.57354423,-68.39288176
27.94576948,36.45110142,19.88679651,-1.48539448,-1.31446093,-2.88527645

>  <Name>
ligand

>  <RI>
0

>  <Rbt.Current_Directory>
/home/itssahil/PROJECTS/Mol_Feturizer/New_Systems/rnas/3F4H

>  <Rbt.Executable>
rbdock ($Id: //depot/dev/client3/rdock/2013.1/src/exe/rbdock.cxx#4 $)

>  <Rbt.Library>
libRbt.so (2013.1, Build901 2013/11/27)

>  <Rbt.Parameter_File>
/export/apps/rDock/src/rDock_2013.1_src/data/scripts/dock_solv.prm

>  <Rbt.Receptor>
prm/pocket_docking_8.prm

>  <SCORE>
-47.7739

>  <SCORE.INTER>
-31.4684

>  <SCORE.INTER.CONST>
1

>  <SCORE.INTER.POLAR>
0

>  <SCORE.INTER.ROT>
6

>  <SCORE.INTER.SOLV>
11.2204

>  <SCORE.INTER.VDW>
-32.319

>  <SCORE.INTER.norm>
-1.08512

>  <SCORE.INTRA>
-16.311

>  <SCORE.INTRA.DIHEDRAL>
-3.08636

>  <SCORE.INTRA.DIHEDRAL.0>
6.83446

>  <SCORE.INTRA.POLAR>
0

>  <SCORE.INTRA.POLAR.0>
0

>  <SCORE.INTRA.REPUL>
0

>  <SCORE.INTRA.REPUL.0>
0

>  <SCORE.INTRA.SOLV>
0.189796

>  <SCORE.INTRA.SOLV.lig_0>
-26.4601

>  <SCORE.INTRA.VDW>
-14.8627

>  <SCORE.INTRA.VDW.0>
13.7853

>  <SCORE.INTRA.norm>
-0.562448

>  <SCORE.RESTR>
0.0054307

>  <SCORE.RESTR.CAVITY>
0.0054307

>  <SCORE.RESTR.norm>
0.000187266

>  <SCORE.SYSTEM>
0

>  <SCORE.SYSTEM.CONST>
0

>  <SCORE.SYSTEM.DIHEDRAL>
0

>  <SCORE.SYSTEM.SOLV>
0

>  <SCORE.SYSTEM.norm>
0

>  <SCORE.heavy>
29

>  <SCORE.norm>
-1.64738

>  <RMSD>
1.487

$$$$
ligand
 OpenBabel11021811473D
libRbt.so/2013.1/901 2013/11/27
 29 31  0  0  0  0  0  0  0  0999 V2000
   26.2889   40.0179   18.6851 C   0  0  0  0  0  0  0  0  0  0  0  0
   26.2225   41.2509   19.4091 O   0  0  0  0  0  0  0  0  0  0  0  0
   27.6849   39.8525   18.1003 C   0  0  1  0  0  0  0  0  0  0  0  0
   28.6184   39.7684   19.1725 O   0  0  0  0  0  0  0  0  0  0  0  0
   27.7582   38.6005   17.2357 C   0  0  1  0  0  0  0  0  0  0  0  0
   29.0539   38.5706   16.6483 O   0  0  0  0  0  0  0  0  0  0  0  0
   27.4868   37.2868   17.9746 C   0  0  1  0  0  0  0  0  0  0  0  0
   27.3113   36.2515   17.0066 O   0  0  0  0  0  0  0  0  0  0  0  0
   28.6176   36.8722   18.9139 C   0  0  0  0  0  0  0  0  0  0  0  0
   28.4609   34.1254   18.2802 N   0  0  0  0  0  0  0  0  0  0  0  0
   28.4026   32.8061   17.9422 C   0  0  0  0  0  0  0  0  0  0  0  0
   28.7353   32.4294   16.7908 O   0  0  0  0  0  0  0  0  0  0  0  0
   27.9791   31.8849   18.8444 N   0  0  0  0  0  0  0  0  0  0  0  0
   27.6072   32.2553   20.0956 C   0  0  0  0  0  0  0  0  0  0  0  0
   27.6627   33.5972   20.4548 C   0  0  1  0  0  0  0  0  0  0  0  0
   27.2140   31.3994   20.9264 O   0  0  0  0  0  0  0  0  0  0  0  0
   27.3554   35.2774   22.0478 C   0  0  1  0  0  0  0  0  0  0  0  0
   27.2995   33.9756   21.6996 N   0  0  0  0  0  0  0  0  0  0  0  0
   26.9791   35.6582   23.3312 C   0  0  0  0  0  0  0  0  0  0  0  0
   27.0283   36.9921   23.7209 C   0  0  2  0  0  0  0  0  0  0  0  0
   26.6050   37.3346   25.1262 C   0  0  0  0  0  0  0  0  0  0  0  0
   27.4621   37.9655   22.8120 C   0  0  2  0  0  0  0  0  0  0  0  0
   27.5365   39.2946   23.1236 N   0  0  0  0  0  0  0  0  0  0  0  0
   27.8365   37.5672   21.5230 C   0  0  0  0  0  0  0  0  0  0  0  0
   27.7876   36.2308   21.1274 C   0  0  2  0  0  0  0  0  0  0  0  0
   28.1002   34.5472   19.5267 C   0  0  2  0  0  0  0  0  0  0  0  0
   28.1486   35.8580   19.8781 N   0  0  0  0  0  0  0  0  0  0  0  0
   26.5722   40.2204   22.5602 C   0  0  0  0  0  0  0  0  0  0  0  0
   28.5518   39.8354   24.0122 C   0  0  0  0  0  0  0  0  0  0  0  0
  1  2  1  0  0  0  0
  3  1  1  1  0  0  0
  3  4  1  0  0  0  0
  3  5  1  0  0  0  0
  5  6  1  1  0  0  0
  5  7  1  0  0  0  0
  7  8  1  6  0  0  0
  7  9  1  0  0  0  0
  9 27  1  0  0  0  0
 10 11  1  0  0  0  0
 11 12  2  0  0  0  0
 11 13  1  0  0  0  0
 13 14  1  0  0  0  0
 14 16  2  0  0  0  0
 15 14  1  1  0  0  0
 15 18  1  0  0  0  0
 15 26  1  0  0  0  0
 17 19  1  1  0  0  0
 17 25  1  0  0  0  0
 17 18  1  0  0  0  0
 19 20  1  0  0  0  0
 20 21  1  6  0  0  0
 20 22  1  0  0  0  0
 22 23  1  6  0  0  0
 22 24  1  0  0  0  0
 23 28  1  0  0  0  0
 23 29  1  0  0  0  0
 25 24  1  6  0  0  0
 25 27  1  0  0  0  0
 26 10  1  6  0  0  0
 26 27  1  0  0  0  0
M  END
>  <CHROM.1>
63.11595981,175.70493187,167.96609704,162.92557211,-107.55994674,-98.47172235
27.67273768,36.54186443,20.17842350,-2.30662414,-1.42709971,2.77296171

>  <Name>
ligand

>  <RI>
0

>  <Rbt.Current_Directory>
/home/itssahil/PROJECTS/Mol_Feturizer/New_Systems/rnas/3F4H

>  <Rbt.Executable>
rbdock ($Id: //depot/dev/client3/rdock/2013.1/src/exe/rbdock.cxx#4 $)

>  <Rbt.Library>
libRbt.so (2013.1, Build901 2013/11/27)

>  <Rbt.Parameter_File>
/export/apps/rDock/src/rDock_2013.1_src/data/scripts/dock_solv.prm

>  <Rbt.Receptor>
prm/blind_docking_60.prm

>  <SCORE>
-48.1794

>  <SCORE.INTER>
-30.7447

>  <SCORE.INTER.CONST>
1

>  <SCORE.INTER.POLAR>
0

>  <SCORE.INTER.ROT>
6

>  <SCORE.INTER.SOLV>
9.44784

>  <SCORE.INTER.VDW>
-31.2458

>  <SCORE.INTER.norm>
-1.06016

>  <SCORE.INTRA>
-17.4352

>  <SCORE.INTRA.DIHEDRAL>
-3.15997

>  <SCORE.INTRA.DIHEDRAL.0>
6.83446

>  <SCORE.INTRA.POLAR>
0

>  <SCORE.INTRA.POLAR.0>
0

>  <SCORE.INTRA.REPUL>
0

>  <SCORE.INTRA.REPUL.0>
0

>  <SCORE.INTRA.SOLV>
0.211836

>  <SCORE.INTRA.SOLV.lig_0>
-26.4601

>  <SCORE.INTRA.VDW>
-15.9612

>  <SCORE.INTRA.VDW.0>
13.7853

>  <SCORE.INTRA.norm>
-0.601215

>  <SCORE.RESTR>
0.000584089

>  <SCORE.RESTR.CAVITY>
0.000584089

>  <SCORE.RESTR.norm>
2.0141e-05

>  <SCORE.SYSTEM>
0

>  <SCORE.SYSTEM.CONST>
0

>  <SCORE.SYSTEM.DIHEDRAL>
0

>  <SCORE.SYSTEM.SOLV>
0

>  <SCORE.SYSTEM.norm>
0

>  <SCORE.heavy>
29

>  <SCORE.norm>
-1.66136

>  <RMSD>
1.493

$$$$
ligand
 OpenBabel11021811473D
libRbt.so/2013.1/901 2013/11/27
 29 31  0  0  0  0  0  0  0  0999 V2000
   30.0592   40.1224   15.7358 C   0  0  0  0  0  0  0  0  0  0  0  0
   29.6610   41.2588   16.5097 O   0  0  0  0  0  0  0  0  0  0  0  0
   30.1441   38.9016   16.6417 C   0  0  1  0  0  0  0  0  0  0  0  0
   31.0599   39.1822   17.6957 O   0  0  0  0  0  0  0  0  0  0  0  0
   28.7726   38.5599   17.2096 C   0  0  1  0  0  0  0  0  0  0  0  0
   27.9418   38.1976   16.1128 O   0  0  0  0  0  0  0  0  0  0  0  0
   28.7666   37.4474   18.2622 C   0  0  1  0  0  0  0  0  0  0  0  0
   29.4445   37.9224   19.4259 O   0  0  0  0  0  0  0  0  0  0  0  0
   27.3633   37.0087   18.6757 C   0  0  0  0  0  0  0  0  0  0  0  0
   27.2883   34.2475   18.0911 N   0  0  0  0  0  0  0  0  0  0  0  0
   27.2547   32.9226   17.7727 C   0  0  0  0  0  0  0  0  0  0  0  0
   27.1512   32.5589   16.5746 O   0  0  0  0  0  0  0  0  0  0  0  0
   27.3272   31.9808   18.7473 N   0  0  0  0  0  0  0  0  0  0  0  0
   27.4347   32.3361   20.0523 C   0  0  0  0  0  0  0  0  0  0  0  0
   27.4716   33.6838   20.3918 C   0  0  1  0  0  0  0  0  0  0  0  0
   27.4994   31.4610   20.9509 O   0  0  0  0  0  0  0  0  0  0  0  0
   27.6212   35.3555   22.0161 C   0  0  1  0  0  0  0  0  0  0  0  0
   27.5836   34.0479   21.6878 N   0  0  0  0  0  0  0  0  0  0  0  0
   27.7361   35.7214   23.3527 C   0  0  0  0  0  0  0  0  0  0  0  0
   27.7800   37.0611   23.7226 C   0  0  2  0  0  0  0  0  0  0  0  0
   27.9041   37.3866   25.1889 C   0  0  0  0  0  0  0  0  0  0  0  0
   27.7082   38.0557   22.7390 C   0  0  2  0  0  0  0  0  0  0  0  0
   27.7451   39.3917   23.0270 N   0  0  0  0  0  0  0  0  0  0  0  0
   27.5914   37.6720   21.3975 C   0  0  0  0  0  0  0  0  0  0  0  0
   27.5457   36.3298   21.0221 C   0  0  2  0  0  0  0  0  0  0  0  0
   27.3984   34.6551   19.3886 C   0  0  2  0  0  0  0  0  0  0  0  0
   27.4293   35.9709   19.7230 N   0  0  0  0  0  0  0  0  0  0  0  0
   28.9547   40.1498   22.7688 C   0  0  0  0  0  0  0  0  0  0  0  0
   26.6085   40.1043   23.5865 C   0  0  0  0  0  0  0  0  0  0  0  0
  1  2  1  0  0  0  0
  3  1  1  6  0  0  0
  3  4  1  0  0  0  0
  3  5  1  0  0  0  0
  5  6  1  6  0  0  0
  5  7  1  0  0  0  0
  7  8  1  1  0  0  0
  7  9  1  0  0  0  0
  9 27  1  0  0  0  0
 10 11  1  0  0  0  0
 11 12  2  0  0  0  0
 11 13  1  0  0  0  0
 13 14  1  0  0  0  0
 14 16  2  0  0  0  0
 15 14  1  6  0  0  0
 15 18  1  0  0  0  0
 15 26  1  0  0  0  0
 17 19  1  6  0  0  0
 17 25  1  0  0  0  0
 17 18  1  0  0  0  0
 19 20  1  0  0  0  0
 20 21  1  1  0  0  0
 20 22  1  0  0  0  0
 22 23  1  1  0  0  0
 22 24  1  0  0  0  0
 23 28  1  0  0  0  0
 23 29  1  0  0  0  0
 25 24  1  1  0  0  0
 25 27  1  0  0  0  0
 26 10  1  1  0  0  0
 26 27  1  0  0  0  0
M  END
>  <CHROM.1>
-57.34174623,64.08969036,67.28070713,-178.02987985,104.58549744,84.95066753
28.11468894,36.61382551,19.87219569,-0.32026248,-1.27169521,-2.21382026

>  <Name>
ligand

>  <RI>
0

>  <Rbt.Current_Directory>
/home/itssahil/PROJECTS/Mol_Feturizer/New_Systems/rnas/3F4H

>  <Rbt.Executable>
rbdock ($Id: //depot/dev/client3/rdock/2013.1/src/exe/rbdock.cxx#4 $)

>  <Rbt.Library>
libRbt.so (2013.1, Build901 2013/11/27)

>  <Rbt.Parameter_File>
/export/apps/rDock/src/rDock_2013.1_src/data/scripts/dock_solv.prm

>  <Rbt.Receptor>
prm/pocket_docking_4.prm

>  <SCORE>
-44.1654

>  <SCORE.INTER>
-26.8672

>  <SCORE.INTER.CONST>
1

>  <SCORE.INTER.POLAR>
0

>  <SCORE.INTER.ROT>
6

>  <SCORE.INTER.SOLV>
10.9337

>  <SCORE.INTER.VDW>
-29.156

>  <SCORE.INTER.norm>
-0.926456

>  <SCORE.INTRA>
-17.2982

>  <SCORE.INTRA.DIHEDRAL>
-4.55615

>  <SCORE.INTRA.DIHEDRAL.0>
6.83446

>  <SCORE.INTRA.POLAR>
0

>  <SCORE.INTRA.POLAR.0>
0

>  <SCORE.INTRA.REPUL>
0

>  <SCORE.INTRA.REPUL.0>
0

>  <SCORE.INTRA.SOLV>
0.191294

>  <SCORE.INTRA.SOLV.lig_0>
-26.4601

>  <SCORE.INTRA.VDW>
-15.1158

>  <SCORE.INTRA.VDW.0>
13.7853

>  <SCORE.INTRA.norm>
-0.596489

>  <SCORE.RESTR>
0

>  <SCORE.RESTR.CAVITY>
0

>  <SCORE.RESTR.norm>
0

>  <SCORE.SYSTEM>
0

>  <SCORE.SYSTEM.CONST>
0

>  <SCORE.SYSTEM.DIHEDRAL>
0

>  <SCORE.SYSTEM.SOLV>
0

>  <SCORE.SYSTEM.norm>
0

>  <SCORE.heavy>
29

>  <SCORE.norm>
-1.52295

>  <RMSD>
1.496

$$$$
ligand
 OpenBabel11021811473D
libRbt.so/2013.1/901 2013/11/27
 29 31  0  0  0  0  0  0  0  0999 V2000
   26.6455   40.5164   17.2387 C   0  0  0  0  0  0  0  0  0  0  0  0
   25.7985   41.2818   16.3753 O   0  0  0  0  0  0  0  0  0  0  0  0
   27.4304   39.5091   16.4096 C   0  0  1  0  0  0  0  0  0  0  0  0
   28.1154   40.2089   15.3755 O   0  0  0  0  0  0  0  0  0  0  0  0
   28.4229   38.7536   17.2841 C   0  0  1  0  0  0  0  0  0  0  0  0
   29.2981   39.7183   17.8567 O   0  0  0  0  0  0  0  0  0  0  0  0
   27.7931   37.8970   18.3865 C   0  0  1  0  0  0  0  0  0  0  0  0
   27.0949   36.8126   17.7731 O   0  0  0  0  0  0  0  0  0  0  0  0
   28.8137   37.3140   19.3617 C   0  0  0  0  0  0  0  0  0  0  0  0
   28.5992   34.6238   18.5321 N   0  0  0  0  0  0  0  0  0  0  0  0
   28.5167   33.3329   18.1021 C   0  0  0  0  0  0  0  0  0  0  0  0
   28.9557   33.0106   16.9698 O   0  0  0  0  0  0  0  0  0  0  0  0
   27.9544   32.3819   18.8903 N   0  0  0  0  0  0  0  0  0  0  0  0
   27.4653   32.6939   20.1168 C   0  0  0  0  0  0  0  0  0  0  0  0
   27.5438   34.0062   20.5691 C   0  0  1  0  0  0  0  0  0  0  0  0
   26.9439   31.8108   20.8418 O   0  0  0  0  0  0  0  0  0  0  0  0
   27.1427   35.5991   22.2296 C   0  0  1  0  0  0  0  0  0  0  0  0
   27.0645   34.3261   21.7908 N   0  0  0  0  0  0  0  0  0  0  0  0
   26.6463   35.9196   23.4883 C   0  0  0  0  0  0  0  0  0  0  0  0
   26.7147   37.2224   23.9697 C   0  0  2  0  0  0  0  0  0  0  0  0
   26.1564   37.4999   25.3418 C   0  0  0  0  0  0  0  0  0  0  0  0
   27.2904   38.2253   23.1795 C   0  0  2  0  0  0  0  0  0  0  0  0
   27.3923   39.5268   23.5857 N   0  0  0  0  0  0  0  0  0  0  0  0
   27.7848   37.8877   21.9137 C   0  0  0  0  0  0  0  0  0  0  0  0
   27.7172   36.5828   21.4264 C   0  0  2  0  0  0  0  0  0  0  0  0
   28.1243   34.9868   19.7587 C   0  0  2  0  0  0  0  0  0  0  0  0
   28.1951   36.2689   20.2004 N   0  0  0  0  0  0  0  0  0  0  0  0
   26.4786   40.5198   23.0533 C   0  0  0  0  0  0  0  0  0  0  0  0
   28.3880   39.9720   24.5465 C   0  0  0  0  0  0  0  0  0  0  0  0
  1  2  1  0  0  0  0
  3  1  1  1  0  0  0
  3  4  1  0  0  0  0
  3  5  1  0  0  0  0
  5  6  1  1  0  0  0
  5  7  1  0  0  0  0
  7  8  1  6  0  0  0
  7  9  1  0  0  0  0
  9 27  1  0  0  0  0
 10 11  1  0  0  0  0
 11 12  2  0  0  0  0
 11 13  1  0  0  0  0
 13 14  1  0  0  0  0
 14 16  2  0  0  0  0
 15 14  1  1  0  0  0
 15 18  1  0  0  0  0
 15 26  1  0  0  0  0
 17 19  1  1  0  0  0
 17 25  1  0  0  0  0
 17 18  1  0  0  0  0
 19 20  1  0  0  0  0
 20 21  1  6  0  0  0
 20 22  1  0  0  0  0
 22 23  1  6  0  0  0
 22 24  1  0  0  0  0
 23 28  1  0  0  0  0
 23 29  1  0  0  0  0
 25 24  1  6  0  0  0
 25 27  1  0  0  0  0
 26 10  1  6  0  0  0
 26 27  1  0  0  0  0
M  END
>  <CHROM.1>
54.36677873,-59.46125526,67.98470240,-167.17771487,-103.36580911,-95.51820193
27.60468575,36.91608848,20.06545533,1.31326706,1.42795967,-0.55064096

>  <Name>
ligand

>  <RI>
0

>  <Rbt.Current_Directory>
/home/itssahil/PROJECTS/Mol_Feturizer/New_Systems/rnas/3F4H

>  <Rbt.Executable>
rbdock ($Id: //depot/dev/client3/rdock/2013.1/src/exe/rbdock.cxx#4 $)

>  <Rbt.Library>
libRbt.so (2013.1, Build901 2013/11/27)

>  <Rbt.Parameter_File>
/export/apps/rDock/src/rDock_2013.1_src/data/scripts/dock_solv.prm

>  <Rbt.Receptor>
prm/blind_docking_60.prm

>  <SCORE>
-45.6307

>  <SCORE.INTER>
-28.5357

>  <SCORE.INTER.CONST>
1

>  <SCORE.INTER.POLAR>
0

>  <SCORE.INTER.ROT>
6

>  <SCORE.INTER.SOLV>
11.6159

>  <SCORE.INTER.VDW>
-30.4958

>  <SCORE.INTER.norm>
-0.983989

>  <SCORE.INTRA>
-17.095

>  <SCORE.INTRA.DIHEDRAL>
-3.85648

>  <SCORE.INTRA.DIHEDRAL.0>
6.83446

>  <SCORE.INTRA.POLAR>
0

>  <SCORE.INTRA.POLAR.0>
0

>  <SCORE.INTRA.REPUL>
0

>  <SCORE.INTRA.REPUL.0>
0

>  <SCORE.INTRA.SOLV>
-0.405023

>  <SCORE.INTRA.SOLV.lig_0>
-26.4601

>  <SCORE.INTRA.VDW>
-14.9642

>  <SCORE.INTRA.VDW.0>
13.7853

>  <SCORE.INTRA.norm>
-0.589482

>  <SCORE.RESTR>
0

>  <SCORE.RESTR.CAVITY>
0

>  <SCORE.RESTR.norm>
0

>  <SCORE.SYSTEM>
0

>  <SCORE.SYSTEM.CONST>
0

>  <SCORE.SYSTEM.DIHEDRAL>
0

>  <SCORE.SYSTEM.SOLV>
0

>  <SCORE.SYSTEM.norm>
0

>  <SCORE.heavy>
29

>  <SCORE.norm>
-1.57347

>  <RMSD>
1.508

$$$$
ligand
 OpenBabel11021811473D
libRbt.so/2013.1/901 2013/11/27
 29 31  0  0  0  0  0  0  0  0999 V2000
   30.4698   38.4697   17.0585 C   0  0  0  0  0  0  0  0  0  0  0  0
   31.4044   39.5122   17.3564 O   0  0  0  0  0  0  0  0  0  0  0  0
   29.0990   39.0810   16.8029 C   0  0  1  0  0  0  0  0  0  0  0  0
   29.1578   39.8376   15.5977 O   0  0  0  0  0  0  0  0  0  0  0  0
   28.0394   37.9921   16.6926 C   0  0  1  0  0  0  0  0  0  0  0  0
   28.5780   36.9632   15.8703 O   0  0  0  0  0  0  0  0  0  0  0  0
   27.5724   37.4057   18.0281 C   0  0  1  0  0  0  0  0  0  0  0  0
   26.6330   36.3639   17.7606 O   0  0  0  0  0  0  0  0  0  0  0  0
   28.7073   36.8188   18.8650 C   0  0  0  0  0  0  0  0  0  0  0  0
   28.5296   34.0577   18.3031 N   0  0  0  0  0  0  0  0  0  0  0  0
   28.4625   32.7303   18.0003 C   0  0  0  0  0  0  0  0  0  0  0  0
   28.8332   32.3155   16.8738 O   0  0  0  0  0  0  0  0  0  0  0  0
   27.9893   31.8421   18.9108 N   0  0  0  0  0  0  0  0  0  0  0  0
   27.5756   32.2540   20.1356 C   0  0  0  0  0  0  0  0  0  0  0  0
   27.6394   33.6046   20.4588 C   0  0  1  0  0  0  0  0  0  0  0  0
   27.1364   31.4285   20.9741 O   0  0  0  0  0  0  0  0  0  0  0  0
   27.2988   35.3345   21.9908 C   0  0  1  0  0  0  0  0  0  0  0  0
   27.2348   34.0242   21.6773 N   0  0  0  0  0  0  0  0  0  0  0  0
   26.8796   35.7577   23.2473 C   0  0  0  0  0  0  0  0  0  0  0  0
   26.9359   37.1013   23.6010 C   0  0  2  0  0  0  0  0  0  0  0  0
   26.4644   37.4906   24.9785 C   0  0  0  0  0  0  0  0  0  0  0  0
   27.4205   38.0414   22.6827 C   0  0  2  0  0  0  0  0  0  0  0  0
   27.5049   39.3776   22.9596 N   0  0  0  0  0  0  0  0  0  0  0  0
   27.8377   37.6005   21.4210 C   0  0  0  0  0  0  0  0  0  0  0  0
   27.7820   36.2542   21.0615 C   0  0  2  0  0  0  0  0  0  0  0  0
   28.1281   34.5207   19.5222 C   0  0  2  0  0  0  0  0  0  0  0  0
   28.1847   35.8401   19.8383 N   0  0  0  0  0  0  0  0  0  0  0  0
   28.5439   39.8638   23.8475 C   0  0  0  0  0  0  0  0  0  0  0  0
   26.5891   40.3544   22.3937 C   0  0  0  0  0  0  0  0  0  0  0  0
  1  2  1  0  0  0  0
  3  1  1  6  0  0  0
  3  4  1  0  0  0  0
  3  5  1  0  0  0  0
  5  6  1  6  0  0  0
  5  7  1  0  0  0  0
  7  8  1  6  0  0  0
  7  9  1  0  0  0  0
  9 27  1  0  0  0  0
 10 11  1  0  0  0  0
 11 12  2  0  0  0  0
 11 13  1  0  0  0  0
 13 14  1  0  0  0  0
 14 16  2  0  0  0  0
 15 14  1  1  0  0  0
 15 18  1  0  0  0  0
 15 26  1  0  0  0  0
 17 19  1  1  0  0  0
 17 25  1  0  0  0  0
 17 18  1  0  0  0  0
 19 20  1  0  0  0  0
 20 21  1  6  0  0  0
 20 22  1  0  0  0  0
 22 23  1  6  0  0  0
 22 24  1  0  0  0  0
 23 28  1  0  0  0  0
 23 29  1  0  0  0  0
 25 24  1  6  0  0  0
 25 27  1  0  0  0  0
 26 10  1  6  0  0  0
 26 27  1  0  0  0  0
M  END
>  <CHROM.1>
67.46812303,-44.51035743,-177.37331361,-158.10918481,74.19027836,-88.62580602
28.05335726,36.33498958,19.80251479,-0.71910864,1.25613949,0.40014025

>  <Name>
ligand

>  <RI>
0

>  <Rbt.Current_Directory>
/home/itssahil/PROJECTS/Mol_Feturizer/New_Systems/rnas/3F4H

>  <Rbt.Executable>
rbdock ($Id: //depot/dev/client3/rdock/2013.1/src/exe/rbdock.cxx#4 $)

>  <Rbt.Library>
libRbt.so (2013.1, Build901 2013/11/27)

>  <Rbt.Parameter_File>
/export/apps/rDock/src/rDock_2013.1_src/data/scripts/dock_solv.prm

>  <Rbt.Receptor>
prm/blind_docking_80.prm

>  <SCORE>
-46.2688

>  <SCORE.INTER>
-31.3132

>  <SCORE.INTER.CONST>
1

>  <SCORE.INTER.POLAR>
0

>  <SCORE.INTER.ROT>
6

>  <SCORE.INTER.SOLV>
11.9676

>  <SCORE.INTER.VDW>
-32.4647

>  <SCORE.INTER.norm>
-1.07977

>  <SCORE.INTRA>
-14.9556

>  <SCORE.INTRA.DIHEDRAL>
-2.16116

>  <SCORE.INTRA.DIHEDRAL.0>
6.83446

>  <SCORE.INTRA.POLAR>
0

>  <SCORE.INTRA.POLAR.0>
0

>  <SCORE.INTRA.REPUL>
0

>  <SCORE.INTRA.REPUL.0>
0

>  <SCORE.INTRA.SOLV>
-0.326552

>  <SCORE.INTRA.SOLV.lig_0>
-26.4601

>  <SCORE.INTRA.VDW>
-13.7117

>  <SCORE.INTRA.VDW.0>
13.7853

>  <SCORE.INTRA.norm>
-0.515709

>  <SCORE.RESTR>
0

>  <SCORE.RESTR.CAVITY>
0

>  <SCORE.RESTR.norm>
0

>  <SCORE.SYSTEM>
0

>  <SCORE.SYSTEM.CONST>
0

>  <SCORE.SYSTEM.DIHEDRAL>
0

>  <SCORE.SYSTEM.SOLV>
0

>  <SCORE.SYSTEM.norm>
0

>  <SCORE.heavy>
29

>  <SCORE.norm>
-1.59548

>  <RMSD>
1.508

$$$$
ligand
 OpenBabel11021811473D
libRbt.so/2013.1/901 2013/11/27
 29 31  0  0  0  0  0  0  0  0999 V2000
   26.1243   40.2387   17.4723 C   0  0  0  0  0  0  0  0  0  0  0  0
   25.4306   41.4901   17.5140 O   0  0  0  0  0  0  0  0  0  0  0  0
   27.5232   40.4196   18.0454 C   0  0  1  0  0  0  0  0  0  0  0  0
   27.4068   40.8106   19.4100 O   0  0  0  0  0  0  0  0  0  0  0  0
   28.3196   39.1261   17.9320 C   0  0  1  0  0  0  0  0  0  0  0  0
   29.6415   39.4059   18.3780 O   0  0  0  0  0  0  0  0  0  0  0  0
   27.7430   37.9404   18.7112 C   0  0  1  0  0  0  0  0  0  0  0  0
   26.7047   37.3479   17.9300 O   0  0  0  0  0  0  0  0  0  0  0  0
   28.7754   36.8600   19.0269 C   0  0  0  0  0  0  0  0  0  0  0  0
   28.5582   34.1216   18.3748 N   0  0  0  0  0  0  0  0  0  0  0  0
   28.4728   32.8058   18.0291 C   0  0  0  0  0  0  0  0  0  0  0  0
   28.8576   32.4195   16.8972 O   0  0  0  0  0  0  0  0  0  0  0  0
   27.9659   31.8987   18.9020 N   0  0  0  0  0  0  0  0  0  0  0  0
   27.5361   32.2798   20.1311 C   0  0  0  0  0  0  0  0  0  0  0  0
   27.6183   33.6183   20.4981 C   0  0  1  0  0  0  0  0  0  0  0  0
   27.0658   31.4370   20.9348 O   0  0  0  0  0  0  0  0  0  0  0  0
   27.2798   35.3056   22.0773 C   0  0  1  0  0  0  0  0  0  0  0  0
   27.1979   34.0071   21.7214 N   0  0  0  0  0  0  0  0  0  0  0  0
   26.8441   35.6972   23.3383 C   0  0  0  0  0  0  0  0  0  0  0  0
   26.9180   37.0278   23.7354 C   0  0  2  0  0  0  0  0  0  0  0  0
   26.4271   37.3827   25.1154 C   0  0  0  0  0  0  0  0  0  0  0  0
   27.4374   37.9868   22.8565 C   0  0  2  0  0  0  0  0  0  0  0  0
   27.5408   39.3119   23.1769 N   0  0  0  0  0  0  0  0  0  0  0  0
   27.8709   37.5777   21.5896 C   0  0  0  0  0  0  0  0  0  0  0  0
   27.7975   36.2446   21.1867 C   0  0  2  0  0  0  0  0  0  0  0  0
   28.1418   34.5538   19.6002 C   0  0  2  0  0  0  0  0  0  0  0  0
   28.2163   35.8614   19.9588 N   0  0  0  0  0  0  0  0  0  0  0  0
   26.5825   40.2587   22.6387 C   0  0  0  0  0  0  0  0  0  0  0  0
   28.5817   39.8278   24.0505 C   0  0  0  0  0  0  0  0  0  0  0  0
  1  2  1  0  0  0  0
  3  1  1  1  0  0  0
  3  4  1  0  0  0  0
  3  5  1  0  0  0  0
  5  6  1  1  0  0  0
  5  7  1  0  0  0  0
  7  8  1  6  0  0  0
  7  9  1  0  0  0  0
  9 27  1  0  0  0  0
 10 11  1  0  0  0  0
 11 12  2  0  0  0  0
 11 13  1  0  0  0  0
 13 14  1  0  0  0  0
 14 16  2  0  0  0  0
 15 14  1  1  0  0  0
 15 18  1  0  0  0  0
 15 26  1  0  0  0  0
 17 19  1  1  0  0  0
 17 25  1  0  0  0  0
 17 18  1  0  0  0  0
 19 20  1  0  0  0  0
 20 21  1  6  0  0  0
 20 22  1  0  0  0  0
 22 23  1  6  0  0  0
 22 24  1  0  0  0  0
 23 28  1  0  0  0  0
 23 29  1  0  0  0  0
 25 24  1  6  0  0  0
 25 27  1  0  0  0  0
 26 10  1  6  0  0  0
 26 27  1  0  0  0  0
M  END
>  <CHROM.1>
62.53622859,175.07091325,81.91368826,170.78108658,-103.07336548,-60.60326905
27.59917554,36.74764660,20.25804149,-2.42068862,-1.43957117,2.40105870

>  <Name>
ligand

>  <RI>
0

>  <Rbt.Current_Directory>
/home/itssahil/PROJECTS/Mol_Feturizer/New_Systems/rnas/3F4H

>  <Rbt.Executable>
rbdock ($Id: //depot/dev/client3/rdock/2013.1/src/exe/rbdock.cxx#4 $)

>  <Rbt.Library>
libRbt.so (2013.1, Build901 2013/11/27)

>  <Rbt.Parameter_File>
/export/apps/rDock/src/rDock_2013.1_src/data/scripts/dock_solv.prm

>  <Rbt.Receptor>
prm/pocket_docking_6.prm

>  <SCORE>
-46.7711

>  <SCORE.INTER>
-30.2654

>  <SCORE.INTER.CONST>
1

>  <SCORE.INTER.POLAR>
0

>  <SCORE.INTER.ROT>
6

>  <SCORE.INTER.SOLV>
10.6851

>  <SCORE.INTER.VDW>
-31.3386

>  <SCORE.INTER.norm>
-1.04363

>  <SCORE.INTRA>
-16.5057

>  <SCORE.INTRA.DIHEDRAL>
-2.82044

>  <SCORE.INTRA.DIHEDRAL.0>
6.83446

>  <SCORE.INTRA.POLAR>
0

>  <SCORE.INTRA.POLAR.0>
0

>  <SCORE.INTRA.REPUL>
0

>  <SCORE.INTRA.REPUL.0>
0

>  <SCORE.INTRA.SOLV>
-0.11333

>  <SCORE.INTRA.SOLV.lig_0>
-26.4601

>  <SCORE.INTRA.VDW>
-15.0388

>  <SCORE.INTRA.VDW.0>
13.7853

>  <SCORE.INTRA.norm>
-0.569161

>  <SCORE.RESTR>
0

>  <SCORE.RESTR.CAVITY>
0

>  <SCORE.RESTR.norm>
0

>  <SCORE.SYSTEM>
0

>  <SCORE.SYSTEM.CONST>
0

>  <SCORE.SYSTEM.DIHEDRAL>
0

>  <SCORE.SYSTEM.SOLV>
0

>  <SCORE.SYSTEM.norm>
0

>  <SCORE.heavy>
29

>  <SCORE.norm>
-1.6128

>  <RMSD>
1.509

$$$$
ligand
 OpenBabel11021811473D
libRbt.so/2013.1/901 2013/11/27
 29 31  0  0  0  0  0  0  0  0999 V2000
   27.7692   38.9073   16.0708 C   0  0  0  0  0  0  0  0  0  0  0  0
   27.3413   40.1672   15.5431 O   0  0  0  0  0  0  0  0  0  0  0  0
   29.2907   38.8684   16.1086 C   0  0  1  0  0  0  0  0  0  0  0  0
   29.7426   39.7748   17.1099 O   0  0  0  0  0  0  0  0  0  0  0  0
   29.7829   37.4587   16.4103 C   0  0  1  0  0  0  0  0  0  0  0  0
   31.1609   37.4103   16.0588 O   0  0  0  0  0  0  0  0  0  0  0  0
   29.5953   37.0042   17.8608 C   0  0  1  0  0  0  0  0  0  0  0  0
   30.2675   37.9302   18.7153 O   0  0  0  0  0  0  0  0  0  0  0  0
   28.1318   36.9355   18.2924 C   0  0  0  0  0  0  0  0  0  0  0  0
   28.1011   34.1453   17.8622 N   0  0  0  0  0  0  0  0  0  0  0  0
   28.0963   32.8041   17.6192 C   0  0  0  0  0  0  0  0  0  0  0  0
   28.2267   32.3696   16.4476 O   0  0  0  0  0  0  0  0  0  0  0  0
   27.9451   31.9225   18.6400 N   0  0  0  0  0  0  0  0  0  0  0  0
   27.7968   32.3551   19.9174 C   0  0  0  0  0  0  0  0  0  0  0  0
   27.8011   33.7203   20.1804 C   0  0  1  0  0  0  0  0  0  0  0  0
   27.6550   31.5356   20.8585 O   0  0  0  0  0  0  0  0  0  0  0  0
   27.6655   35.4856   21.7038 C   0  0  1  0  0  0  0  0  0  0  0  0
   27.6593   34.1610   21.4493 N   0  0  0  0  0  0  0  0  0  0  0  0
   27.5183   35.9305   23.0130 C   0  0  0  0  0  0  0  0  0  0  0  0
   27.5232   37.2894   23.3076 C   0  0  2  0  0  0  0  0  0  0  0  0
   27.3579   37.7019   24.7477 C   0  0  0  0  0  0  0  0  0  0  0  0
   27.6785   38.2232   22.2751 C   0  0  2  0  0  0  0  0  0  0  0  0
   27.6929   39.5735   22.4884 N   0  0  0  0  0  0  0  0  0  0  0  0
   27.8242   37.7602   20.9618 C   0  0  0  0  0  0  0  0  0  0  0  0
   27.8186   36.3984   20.6616 C   0  0  2  0  0  0  0  0  0  0  0  0
   27.9583   34.6296   19.1298 C   0  0  2  0  0  0  0  0  0  0  0  0
   27.9569   35.9627   19.3884 N   0  0  0  0  0  0  0  0  0  0  0  0
   26.4869   40.3492   22.2688 C   0  0  0  0  0  0  0  0  0  0  0  0
   28.8795   40.2833   22.9370 C   0  0  0  0  0  0  0  0  0  0  0  0
  1  2  1  0  0  0  0
  3  1  1  1  0  0  0
  3  4  1  0  0  0  0
  3  5  1  0  0  0  0
  5  6  1  1  0  0  0
  5  7  1  0  0  0  0
  7  8  1  1  0  0  0
  7  9  1  0  0  0  0
  9 27  1  0  0  0  0
 10 11  1  0  0  0  0
 11 12  2  0  0  0  0
 11 13  1  0  0  0  0
 13 14  1  0  0  0  0
 14 16  2  0  0  0  0
 15 14  1  1  0  0  0
 15 18  1  0  0  0  0
 15 26  1  0  0  0  0
 17 19  1  1  0  0  0
 17 25  1  0  0  0  0
 17 18  1  0  0  0  0
 19 20  1  0  0  0  0
 20 21  1  6  0  0  0
 20 22  1  0  0  0  0
 22 23  1  6  0  0  0
 22 24  1  0  0  0  0
 23 28  1  0  0  0  0
 23 29  1  0  0  0  0
 25 24  1  6  0  0  0
 25 27  1  0  0  0  0
 26 10  1  6  0  0  0
 26 27  1  0  0  0  0
M  END
>  <CHROM.1>
69.64331935,163.75483634,-57.39452549,154.22533523,-98.36313590,102.34326241
28.26516713,36.51578091,19.50796757,-1.83356637,-1.32527817,-2.80916613

>  <Name>
ligand

>  <RI>
0

>  <Rbt.Current_Directory>
/home/itssahil/PROJECTS/Mol_Feturizer/New_Systems/rnas/3F4H

>  <Rbt.Executable>
rbdock ($Id: //depot/dev/client3/rdock/2013.1/src/exe/rbdock.cxx#4 $)

>  <Rbt.Library>
libRbt.so (2013.1, Build901 2013/11/27)

>  <Rbt.Parameter_File>
/export/apps/rDock/src/rDock_2013.1_src/data/scripts/dock_solv.prm

>  <Rbt.Receptor>
prm/blind_docking_100.prm

>  <SCORE>
-42.774

>  <SCORE.INTER>
-27.5105

>  <SCORE.INTER.CONST>
1

>  <SCORE.INTER.POLAR>
0

>  <SCORE.INTER.ROT>
6

>  <SCORE.INTER.SOLV>
11.025

>  <SCORE.INTER.VDW>
-29.6153

>  <SCORE.INTER.norm>
-0.948638

>  <SCORE.INTRA>
-15.2635

>  <SCORE.INTRA.DIHEDRAL>
-1.51969

>  <SCORE.INTRA.DIHEDRAL.0>
6.83446

>  <SCORE.INTRA.POLAR>
0

>  <SCORE.INTRA.POLAR.0>
0

>  <SCORE.INTRA.REPUL>
0

>  <SCORE.INTRA.REPUL.0>
0

>  <SCORE.INTRA.SOLV>
0.0112063

>  <SCORE.INTRA.SOLV.lig_0>
-26.4601

>  <SCORE.INTRA.VDW>
-14.5093

>  <SCORE.INTRA.VDW.0>
13.7853

>  <SCORE.INTRA.norm>
-0.526328

>  <SCORE.RESTR>
0

>  <SCORE.RESTR.CAVITY>
0

>  <SCORE.RESTR.norm>
0

>  <SCORE.SYSTEM>
0

>  <SCORE.SYSTEM.CONST>
0

>  <SCORE.SYSTEM.DIHEDRAL>
0

>  <SCORE.SYSTEM.SOLV>
0

>  <SCORE.SYSTEM.norm>
0

>  <SCORE.heavy>
29

>  <SCORE.norm>
-1.47497

>  <RMSD>
1.517

$$$$
ligand
 OpenBabel11021811473D
libRbt.so/2013.1/901 2013/11/27
 29 31  0  0  0  0  0  0  0  0999 V2000
   29.6164   38.5614   16.3893 C   0  0  0  0  0  0  0  0  0  0  0  0
   30.2137   38.9412   15.1451 O   0  0  0  0  0  0  0  0  0  0  0  0
   28.4000   39.4386   16.6518 C   0  0  1  0  0  0  0  0  0  0  0  0
   27.4264   39.1762   15.6460 O   0  0  0  0  0  0  0  0  0  0  0  0
   27.8234   39.1549   18.0329 C   0  0  1  0  0  0  0  0  0  0  0  0
   26.6920   40.0018   18.1982 O   0  0  0  0  0  0  0  0  0  0  0  0
   27.4277   37.6965   18.2821 C   0  0  1  0  0  0  0  0  0  0  0  0
   26.9034   37.1566   17.0683 O   0  0  0  0  0  0  0  0  0  0  0  0
   28.5943   36.8173   18.7283 C   0  0  0  0  0  0  0  0  0  0  0  0
   28.4655   34.0474   18.1973 N   0  0  0  0  0  0  0  0  0  0  0  0
   28.4203   32.7160   17.9084 C   0  0  0  0  0  0  0  0  0  0  0  0
   28.7441   32.3015   16.7674 O   0  0  0  0  0  0  0  0  0  0  0  0
   28.0196   31.8232   18.8488 N   0  0  0  0  0  0  0  0  0  0  0  0
   27.6579   32.2346   20.0901 C   0  0  0  0  0  0  0  0  0  0  0  0
   27.7003   33.5893   20.3994 C   0  0  1  0  0  0  0  0  0  0  0  0
   27.2857   31.4049   20.9565 O   0  0  0  0  0  0  0  0  0  0  0  0
   27.3904   35.3229   21.9337 C   0  0  1  0  0  0  0  0  0  0  0  0
   27.3471   34.0086   21.6339 N   0  0  0  0  0  0  0  0  0  0  0  0
   27.0246   35.7457   23.2069 C   0  0  0  0  0  0  0  0  0  0  0  0
   27.0611   37.0935   23.5471 C   0  0  2  0  0  0  0  0  0  0  0  0
   26.6503   37.4820   24.9441 C   0  0  0  0  0  0  0  0  0  0  0  0
   27.4714   38.0383   22.5979 C   0  0  2  0  0  0  0  0  0  0  0  0
   27.5323   39.3788   22.8598 N   0  0  0  0  0  0  0  0  0  0  0  0
   27.8355   37.5977   21.3197 C   0  0  0  0  0  0  0  0  0  0  0  0
   27.7992   36.2472   20.9738 C   0  0  2  0  0  0  0  0  0  0  0  0
   28.1144   34.5101   19.4319 C   0  0  2  0  0  0  0  0  0  0  0  0
   28.1500   35.8334   19.7346 N   0  0  0  0  0  0  0  0  0  0  0  0
   26.4850   40.2554   22.3708 C   0  0  0  0  0  0  0  0  0  0  0  0
   28.6140   39.9797   23.6225 C   0  0  0  0  0  0  0  0  0  0  0  0
  1  2  1  0  0  0  0
  3  1  1  6  0  0  0
  3  4  1  0  0  0  0
  3  5  1  0  0  0  0
  5  6  1  6  0  0  0
  5  7  1  0  0  0  0
  7  8  1  6  0  0  0
  7  9  1  0  0  0  0
  9 27  1  0  0  0  0
 10 11  1  0  0  0  0
 11 12  2  0  0  0  0
 11 13  1  0  0  0  0
 13 14  1  0  0  0  0
 14 16  2  0  0  0  0
 15 14  1  1  0  0  0
 15 18  1  0  0  0  0
 15 26  1  0  0  0  0
 17 19  1  1  0  0  0
 17 25  1  0  0  0  0
 17 18  1  0  0  0  0
 19 20  1  0  0  0  0
 20 21  1  6  0  0  0
 20 22  1  0  0  0  0
 22 23  1  6  0  0  0
 22 24  1  0  0  0  0
 23 28  1  0  0  0  0
 23 29  1  0  0  0  0
 25 24  1  6  0  0  0
 25 27  1  0  0  0  0
 26 10  1  6  0  0  0
 26 27  1  0  0  0  0
M  END
>  <CHROM.1>
64.52724661,-179.61886065,-36.05900214,142.72972950,-102.25916329,-69.60187409
27.82864547,36.49564619,19.74841804,-1.87296320,-1.38326323,3.05678039

>  <Name>
ligand

>  <RI>
0

>  <Rbt.Current_Directory>
/home/itssahil/PROJECTS/Mol_Feturizer/New_Systems/rnas/3F4H

>  <Rbt.Executable>
rbdock ($Id: //depot/dev/client3/rdock/2013.1/src/exe/rbdock.cxx#4 $)

>  <Rbt.Library>
libRbt.so (2013.1, Build901 2013/11/27)

>  <Rbt.Parameter_File>
/export/apps/rDock/src/rDock_2013.1_src/data/scripts/dock_solv.prm

>  <Rbt.Receptor>
prm/pocket_docking_8.prm

>  <SCORE>
-44.4721

>  <SCORE.INTER>
-30.4386

>  <SCORE.INTER.CONST>
1

>  <SCORE.INTER.POLAR>
0

>  <SCORE.INTER.ROT>
6

>  <SCORE.INTER.SOLV>
12.1547

>  <SCORE.INTER.VDW>
-31.944

>  <SCORE.INTER.norm>
-1.04961

>  <SCORE.INTRA>
-14.0335

>  <SCORE.INTRA.DIHEDRAL>
0.746442

>  <SCORE.INTRA.DIHEDRAL.0>
6.83446

>  <SCORE.INTRA.POLAR>
0

>  <SCORE.INTRA.POLAR.0>
0

>  <SCORE.INTRA.REPUL>
0

>  <SCORE.INTRA.REPUL.0>
0

>  <SCORE.INTRA.SOLV>
0.038842

>  <SCORE.INTRA.SOLV.lig_0>
-26.4601

>  <SCORE.INTRA.VDW>
-14.4262

>  <SCORE.INTRA.VDW.0>
13.7853

>  <SCORE.INTRA.norm>
-0.483914

>  <SCORE.RESTR>
0

>  <SCORE.RESTR.CAVITY>
0

>  <SCORE.RESTR.norm>
0

>  <SCORE.SYSTEM>
0

>  <SCORE.SYSTEM.CONST>
0

>  <SCORE.SYSTEM.DIHEDRAL>
0

>  <SCORE.SYSTEM.SOLV>
0

>  <SCORE.SYSTEM.norm>
0

>  <SCORE.heavy>
29

>  <SCORE.norm>
-1.53352

>  <RMSD>
1.519

$$$$
ligand
 OpenBabel11021811473D
libRbt.so/2013.1/901 2013/11/27
 29 31  0  0  0  0  0  0  0  0999 V2000
   26.1780   40.3468   18.0531 C   0  0  0  0  0  0  0  0  0  0  0  0
   26.9725   41.2938   18.7748 O   0  0  0  0  0  0  0  0  0  0  0  0
   27.0111   39.7425   16.9311 C   0  0  1  0  0  0  0  0  0  0  0  0
   27.5842   40.8019   16.1711 O   0  0  0  0  0  0  0  0  0  0  0  0
   28.1049   38.8472   17.4989 C   0  0  1  0  0  0  0  0  0  0  0  0
   29.0005   39.6843   18.2213 O   0  0  0  0  0  0  0  0  0  0  0  0
   27.6093   37.7103   18.3975 C   0  0  1  0  0  0  0  0  0  0  0  0
   26.7656   36.8570   17.6232 O   0  0  0  0  0  0  0  0  0  0  0  0
   28.7364   36.8610   18.9816 C   0  0  0  0  0  0  0  0  0  0  0  0
   28.5347   34.1192   18.3389 N   0  0  0  0  0  0  0  0  0  0  0  0
   28.4562   32.8019   17.9974 C   0  0  0  0  0  0  0  0  0  0  0  0
   28.8282   32.4164   16.8609 O   0  0  0  0  0  0  0  0  0  0  0  0
   27.9702   31.8923   18.8795 N   0  0  0  0  0  0  0  0  0  0  0  0
   27.5546   32.2725   20.1139 C   0  0  0  0  0  0  0  0  0  0  0  0
   27.6300   33.6125   20.4766 C   0  0  1  0  0  0  0  0  0  0  0  0
   27.1035   31.4274   20.9261 O   0  0  0  0  0  0  0  0  0  0  0  0
   27.2989   35.3005   22.0566 C   0  0  1  0  0  0  0  0  0  0  0  0
   27.2236   34.0005   21.7049 N   0  0  0  0  0  0  0  0  0  0  0  0
   26.8778   35.6912   23.3230 C   0  0  0  0  0  0  0  0  0  0  0  0
   26.9453   37.0233   23.7159 C   0  0  2  0  0  0  0  0  0  0  0  0
   26.4711   37.3771   25.1020 C   0  0  0  0  0  0  0  0  0  0  0  0
   27.4434   37.9849   22.8275 C   0  0  2  0  0  0  0  0  0  0  0  0
   27.5393   39.3116   23.1434 N   0  0  0  0  0  0  0  0  0  0  0  0
   27.8623   37.5767   21.5553 C   0  0  0  0  0  0  0  0  0  0  0  0
   27.7952   36.2420   21.1566 C   0  0  2  0  0  0  0  0  0  0  0  0
   28.1320   34.5506   19.5692 C   0  0  2  0  0  0  0  0  0  0  0  0
   28.1998   35.8596   19.9237 N   0  0  0  0  0  0  0  0  0  0  0  0
   26.5840   40.2532   22.5910 C   0  0  0  0  0  0  0  0  0  0  0  0
   28.5693   39.8344   24.0258 C   0  0  0  0  0  0  0  0  0  0  0  0
  1  2  1  0  0  0  0
  3  1  1  1  0  0  0
  3  4  1  0  0  0  0
  3  5  1  0  0  0  0
  5  6  1  1  0  0  0
  5  7  1  0  0  0  0
  7  8  1  6  0  0  0
  7  9  1  0  0  0  0
  9 27  1  0  0  0  0
 10 11  1  0  0  0  0
 11 12  2  0  0  0  0
 11 13  1  0  0  0  0
 13 14  1  0  0  0  0
 14 16  2  0  0  0  0
 15 14  1  1  0  0  0
 15 18  1  0  0  0  0
 15 26  1  0  0  0  0
 17 19  1  1  0  0  0
 17 25  1  0  0  0  0
 17 18  1  0  0  0  0
 19 20  1  0  0  0  0
 20 21  1  6  0  0  0
 20 22  1  0  0  0  0
 22 23  1  6  0  0  0
 22 24  1  0  0  0  0
 23 28  1  0  0  0  0
 23 29  1  0  0  0  0
 25 24  1  6  0  0  0
 25 27  1  0  0  0  0
 26 10  1  6  0  0  0
 26 27  1  0  0  0  0
M  END
>  <CHROM.1>
-51.94379039,-65.77299253,61.59244061,175.22996784,-104.55356271,-75.32890025
27.62089748,36.69342294,20.10036062,-2.18211738,-1.44913301,2.57642868

>  <Name>
ligand

>  <RI>
0

>  <Rbt.Current_Directory>
/home/itssahil/PROJECTS/Mol_Feturizer/New_Systems/rnas/3F4H

>  <Rbt.Executable>
rbdock ($Id: //depot/dev/client3/rdock/2013.1/src/exe/rbdock.cxx#4 $)

>  <Rbt.Library>
libRbt.so (2013.1, Build901 2013/11/27)

>  <Rbt.Parameter_File>
/export/apps/rDock/src/rDock_2013.1_src/data/scripts/dock_solv.prm

>  <Rbt.Receptor>
prm/blind_docking_80.prm

>  <SCORE>
-48.6819

>  <SCORE.INTER>
-31.3949

>  <SCORE.INTER.CONST>
1

>  <SCORE.INTER.POLAR>
0

>  <SCORE.INTER.ROT>
6

>  <SCORE.INTER.SOLV>
10.5503

>  <SCORE.INTER.VDW>
-32.0467

>  <SCORE.INTER.norm>
-1.08258

>  <SCORE.INTRA>
-17.287

>  <SCORE.INTRA.DIHEDRAL>
-4.34398

>  <SCORE.INTRA.DIHEDRAL.0>
6.83446

>  <SCORE.INTRA.POLAR>
0

>  <SCORE.INTRA.POLAR.0>
0

>  <SCORE.INTRA.REPUL>
0

>  <SCORE.INTRA.REPUL.0>
0

>  <SCORE.INTRA.SOLV>
0.211356

>  <SCORE.INTRA.SOLV.lig_0>
-26.4601

>  <SCORE.INTRA.VDW>
-15.2207

>  <SCORE.INTRA.VDW.0>
13.7853

>  <SCORE.INTRA.norm>
-0.596105

>  <SCORE.RESTR>
0

>  <SCORE.RESTR.CAVITY>
0

>  <SCORE.RESTR.norm>
0

>  <SCORE.SYSTEM>
0

>  <SCORE.SYSTEM.CONST>
0

>  <SCORE.SYSTEM.DIHEDRAL>
0

>  <SCORE.SYSTEM.SOLV>
0

>  <SCORE.SYSTEM.norm>
0

>  <SCORE.heavy>
29

>  <SCORE.norm>
-1.67869

>  <RMSD>
1.522

$$$$
ligand
 OpenBabel11021811473D
libRbt.so/2013.1/901 2013/11/27
 29 31  0  0  0  0  0  0  0  0999 V2000
   26.0838   40.2552   17.4496 C   0  0  0  0  0  0  0  0  0  0  0  0
   25.3445   41.4776   17.5408 O   0  0  0  0  0  0  0  0  0  0  0  0
   27.4440   40.4396   18.1084 C   0  0  1  0  0  0  0  0  0  0  0  0
   27.2426   40.7708   19.4788 O   0  0  0  0  0  0  0  0  0  0  0  0
   28.2739   39.1680   17.9880 C   0  0  1  0  0  0  0  0  0  0  0  0
   29.5732   39.4652   18.4862 O   0  0  0  0  0  0  0  0  0  0  0  0
   27.6995   37.9488   18.7154 C   0  0  1  0  0  0  0  0  0  0  0  0
   26.6773   37.3755   17.8993 O   0  0  0  0  0  0  0  0  0  0  0  0
   28.7386   36.8675   19.0047 C   0  0  0  0  0  0  0  0  0  0  0  0
   28.5445   34.1284   18.3482 N   0  0  0  0  0  0  0  0  0  0  0  0
   28.4699   32.8126   18.0002 C   0  0  0  0  0  0  0  0  0  0  0  0
   28.8496   32.4328   16.8644 O   0  0  0  0  0  0  0  0  0  0  0  0
   27.9794   31.8983   18.8751 N   0  0  0  0  0  0  0  0  0  0  0  0
   27.5555   32.2724   20.1085 C   0  0  0  0  0  0  0  0  0  0  0  0
   27.6269   33.6108   20.4778 C   0  0  1  0  0  0  0  0  0  0  0  0
   27.1004   31.4230   20.9140 O   0  0  0  0  0  0  0  0  0  0  0  0
   27.2836   35.2911   22.0634 C   0  0  1  0  0  0  0  0  0  0  0  0
   27.2122   33.9927   21.7053 N   0  0  0  0  0  0  0  0  0  0  0  0
   26.8540   35.6754   23.3288 C   0  0  0  0  0  0  0  0  0  0  0  0
   26.9173   37.0059   23.7282 C   0  0  2  0  0  0  0  0  0  0  0  0
   26.4338   37.3527   25.1129 C   0  0  0  0  0  0  0  0  0  0  0  0
   27.4198   37.9721   22.8474 C   0  0  2  0  0  0  0  0  0  0  0  0
   27.5120   39.2975   23.1700 N   0  0  0  0  0  0  0  0  0  0  0  0
   27.8473   37.5702   21.5761 C   0  0  0  0  0  0  0  0  0  0  0  0
   27.7845   36.2374   21.1709 C   0  0  2  0  0  0  0  0  0  0  0  0
   28.1334   34.5537   19.5779 C   0  0  2  0  0  0  0  0  0  0  0  0
   28.1973   35.8611   19.9388 N   0  0  0  0  0  0  0  0  0  0  0  0
   28.5734   39.7515   24.0485 C   0  0  0  0  0  0  0  0  0  0  0  0
   26.5831   40.2938   22.6628 C   0  0  0  0  0  0  0  0  0  0  0  0
  1  2  1  0  0  0  0
  3  1  1  1  0  0  0
  3  4  1  0  0  0  0
  3  5  1  0  0  0  0
  5  6  1  1  0  0  0
  5  7  1  0  0  0  0
  7  8  1  6  0  0  0
  7  9  1  0  0  0  0
  9 27  1  0  0  0  0
 10 11  1  0  0  0  0
 11 12  2  0  0  0  0
 11 13  1  0  0  0  0
 13 14  1  0  0  0  0
 14 16  2  0  0  0  0
 15 14  1  1  0  0  0
 15 18  1  0  0  0  0
 15 26  1  0  0  0  0
 17 19  1  1  0  0  0
 17 25  1  0  0  0  0
 17 18  1  0  0  0  0
 19 20  1  0  0  0  0
 20 21  1  6  0  0  0
 20 22  1  0  0  0  0
 22 23  1  6  0  0  0
 22 24  1  0  0  0  0
 23 28  1  0  0  0  0
 23 29  1  0  0  0  0
 25 24  1  6  0  0  0
 25 27  1  0  0  0  0
 26 10  1  6  0  0  0
 26 27  1  0  0  0  0
M  END
>  <CHROM.1>
60.68699602,173.52777301,80.38902590,168.30036446,76.30932599,-59.78869980
27.57616095,36.74578186,20.25769552,-2.53533757,-1.43981028,2.29303400

>  <Name>
ligand

>  <RI>
0

>  <Rbt.Current_Directory>
/home/itssahil/PROJECTS/Mol_Feturizer/New_Systems/rnas/3F4H

>  <Rbt.Executable>
rbdock ($Id: //depot/dev/client3/rdock/2013.1/src/exe/rbdock.cxx#4 $)

>  <Rbt.Library>
libRbt.so (2013.1, Build901 2013/11/27)

>  <Rbt.Parameter_File>
/export/apps/rDock/src/rDock_2013.1_src/data/scripts/dock_solv.prm

>  <Rbt.Receptor>
prm/pocket_docking_4.prm

>  <SCORE>
-46.7162

>  <SCORE.INTER>
-30.2569

>  <SCORE.INTER.CONST>
1

>  <SCORE.INTER.POLAR>
0

>  <SCORE.INTER.ROT>
6

>  <SCORE.INTER.SOLV>
10.7448

>  <SCORE.INTER.VDW>
-31.3528

>  <SCORE.INTER.norm>
-1.04334

>  <SCORE.INTRA>
-16.4594

>  <SCORE.INTRA.DIHEDRAL>
-2.79317

>  <SCORE.INTRA.DIHEDRAL.0>
6.83446

>  <SCORE.INTRA.POLAR>
0

>  <SCORE.INTRA.POLAR.0>
0

>  <SCORE.INTRA.REPUL>
0

>  <SCORE.INTRA.REPUL.0>
0

>  <SCORE.INTRA.SOLV>
-0.0722691

>  <SCORE.INTRA.SOLV.lig_0>
-26.4601

>  <SCORE.INTRA.VDW>
-15.0267

>  <SCORE.INTRA.VDW.0>
13.7853

>  <SCORE.INTRA.norm>
-0.567565

>  <SCORE.RESTR>
0

>  <SCORE.RESTR.CAVITY>
0

>  <SCORE.RESTR.norm>
0

>  <SCORE.SYSTEM>
0

>  <SCORE.SYSTEM.CONST>
0

>  <SCORE.SYSTEM.DIHEDRAL>
0

>  <SCORE.SYSTEM.SOLV>
0

>  <SCORE.SYSTEM.norm>
0

>  <SCORE.heavy>
29

>  <SCORE.norm>
-1.6109

>  <RMSD>
1.530

$$$$
ligand
 OpenBabel11021811473D
libRbt.so/2013.1/901 2013/11/27
 29 31  0  0  0  0  0  0  0  0999 V2000
   26.5814   41.0243   16.5420 C   0  0  0  0  0  0  0  0  0  0  0  0
   27.8301   41.7135   16.4210 O   0  0  0  0  0  0  0  0  0  0  0  0
   26.8397   39.5262   16.6264 C   0  0  1  0  0  0  0  0  0  0  0  0
   27.5650   39.1254   15.4680 O   0  0  0  0  0  0  0  0  0  0  0  0
   27.6268   39.1889   17.8862 C   0  0  1  0  0  0  0  0  0  0  0  0
   26.8562   39.6359   18.9957 O   0  0  0  0  0  0  0  0  0  0  0  0
   27.9767   37.7073   18.0535 C   0  0  1  0  0  0  0  0  0  0  0  0
   28.6787   37.2740   16.8877 O   0  0  0  0  0  0  0  0  0  0  0  0
   28.8553   37.4233   19.2702 C   0  0  0  0  0  0  0  0  0  0  0  0
   28.6082   34.7580   18.3720 N   0  0  0  0  0  0  0  0  0  0  0  0
   28.5089   33.4800   17.9084 C   0  0  0  0  0  0  0  0  0  0  0  0
   28.9065   33.1903   16.7523 O   0  0  0  0  0  0  0  0  0  0  0  0
   27.9744   32.5068   18.6888 N   0  0  0  0  0  0  0  0  0  0  0  0
   27.5302   32.7835   19.9406 C   0  0  0  0  0  0  0  0  0  0  0  0
   27.6262   34.0822   20.4272 C   0  0  1  0  0  0  0  0  0  0  0  0
   27.0343   31.8799   20.6583 O   0  0  0  0  0  0  0  0  0  0  0  0
   27.2869   35.6269   22.1461 C   0  0  1  0  0  0  0  0  0  0  0  0
   27.1916   34.3669   21.6740 N   0  0  0  0  0  0  0  0  0  0  0  0
   26.8365   35.9112   23.4305 C   0  0  0  0  0  0  0  0  0  0  0  0
   26.9236   37.1995   23.9463 C   0  0  2  0  0  0  0  0  0  0  0  0
   26.4154   37.4376   25.3450 C   0  0  0  0  0  0  0  0  0  0  0  0
   27.4715   38.2248   23.1649 C   0  0  2  0  0  0  0  0  0  0  0  0
   27.5893   39.5140   23.6043 N   0  0  0  0  0  0  0  0  0  0  0  0
   27.9196   37.9236   21.8730 C   0  0  0  0  0  0  0  0  0  0  0  0
   27.8331   36.6332   21.3512 C   0  0  2  0  0  0  0  0  0  0  0  0
   28.1782   35.0857   19.6248 C   0  0  2  0  0  0  0  0  0  0  0  0
   28.2662   36.3546   20.1003 N   0  0  0  0  0  0  0  0  0  0  0  0
   26.5570   40.4808   23.2817 C   0  0  0  0  0  0  0  0  0  0  0  0
   28.7182   39.9714   24.3976 C   0  0  0  0  0  0  0  0  0  0  0  0
  1  2  1  0  0  0  0
  3  1  1  6  0  0  0
  3  4  1  0  0  0  0
  3  5  1  0  0  0  0
  5  6  1  1  0  0  0
  5  7  1  0  0  0  0
  7  8  1  6  0  0  0
  7  9  1  0  0  0  0
  9 27  1  0  0  0  0
 10 11  1  0  0  0  0
 11 12  2  0  0  0  0
 11 13  1  0  0  0  0
 13 14  1  0  0  0  0
 14 16  2  0  0  0  0
 15 14  1  1  0  0  0
 15 18  1  0  0  0  0
 15 26  1  0  0  0  0
 17 19  1  1  0  0  0
 17 25  1  0  0  0  0
 17 18  1  0  0  0  0
 19 20  1  0  0  0  0
 20 21  1  6  0  0  0
 20 22  1  0  0  0  0
 22 23  1  6  0  0  0
 22 24  1  0  0  0  0
 23 28  1  0  0  0  0
 23 29  1  0  0  0  0
 25 24  1  6  0  0  0
 25 27  1  0  0  0  0
 26 10  1  6  0  0  0
 26 27  1  0  0  0  0
M  END
>  <CHROM.1>
-57.35955710,58.92675035,55.43490943,128.15157617,-95.00237042,-114.63794609
27.66660399,36.96959372,20.00828141,0.93245608,1.45179347,-0.67591365

>  <Name>
ligand

>  <RI>
0

>  <Rbt.Current_Directory>
/home/itssahil/PROJECTS/Mol_Feturizer/New_Systems/rnas/3F4H

>  <Rbt.Executable>
rbdock ($Id: //depot/dev/client3/rdock/2013.1/src/exe/rbdock.cxx#4 $)

>  <Rbt.Library>
libRbt.so (2013.1, Build901 2013/11/27)

>  <Rbt.Parameter_File>
/export/apps/rDock/src/rDock_2013.1_src/data/scripts/dock_solv.prm

>  <Rbt.Receptor>
prm/pocket_docking_5.prm

>  <SCORE>
-43.5577

>  <SCORE.INTER>
-28.265

>  <SCORE.INTER.CONST>
1

>  <SCORE.INTER.POLAR>
0

>  <SCORE.INTER.ROT>
6

>  <SCORE.INTER.SOLV>
10.0194

>  <SCORE.INTER.VDW>
-29.7831

>  <SCORE.INTER.norm>
-0.974657

>  <SCORE.INTRA>
-15.2927

>  <SCORE.INTRA.DIHEDRAL>
0.354362

>  <SCORE.INTRA.DIHEDRAL.0>
6.83446

>  <SCORE.INTRA.POLAR>
0

>  <SCORE.INTRA.POLAR.0>
0

>  <SCORE.INTRA.REPUL>
0

>  <SCORE.INTRA.REPUL.0>
0

>  <SCORE.INTRA.SOLV>
0.117793

>  <SCORE.INTRA.SOLV.lig_0>
-26.4601

>  <SCORE.INTRA.VDW>
-15.5287

>  <SCORE.INTRA.VDW.0>
13.7853

>  <SCORE.INTRA.norm>
-0.527333

>  <SCORE.RESTR>
0

>  <SCORE.RESTR.CAVITY>
0

>  <SCORE.RESTR.norm>
0

>  <SCORE.SYSTEM>
0

>  <SCORE.SYSTEM.CONST>
0

>  <SCORE.SYSTEM.DIHEDRAL>
0

>  <SCORE.SYSTEM.SOLV>
0

>  <SCORE.SYSTEM.norm>
0

>  <SCORE.heavy>
29

>  <SCORE.norm>
-1.50199

>  <RMSD>
1.530

$$$$
ligand
 OpenBabel11021811473D
libRbt.so/2013.1/901 2013/11/27
 29 31  0  0  0  0  0  0  0  0999 V2000
   27.7806   40.4495   15.6071 C   0  0  0  0  0  0  0  0  0  0  0  0
   27.7964   41.5683   16.4997 O   0  0  0  0  0  0  0  0  0  0  0  0
   27.2469   39.2274   16.3418 C   0  0  1  0  0  0  0  0  0  0  0  0
   27.0951   38.1657   15.4047 O   0  0  0  0  0  0  0  0  0  0  0  0
   28.1985   38.8158   17.4578 C   0  0  1  0  0  0  0  0  0  0  0  0
   28.2568   39.8972   18.3807 O   0  0  0  0  0  0  0  0  0  0  0  0
   27.8201   37.5234   18.1873 C   0  0  1  0  0  0  0  0  0  0  0  0
   27.8632   36.4462   17.2506 O   0  0  0  0  0  0  0  0  0  0  0  0
   28.7550   37.1829   19.3462 C   0  0  0  0  0  0  0  0  0  0  0  0
   28.5442   34.4708   18.5902 N   0  0  0  0  0  0  0  0  0  0  0  0
   28.4632   33.1687   18.1953 C   0  0  0  0  0  0  0  0  0  0  0  0
   28.8910   32.8185   17.0671 O   0  0  0  0  0  0  0  0  0  0  0  0
   27.9143   32.2363   19.0146 N   0  0  0  0  0  0  0  0  0  0  0  0
   27.4375   32.5784   20.2380 C   0  0  0  0  0  0  0  0  0  0  0  0
   27.5147   33.9024   20.6546 C   0  0  1  0  0  0  0  0  0  0  0  0
   26.9285   31.7123   20.9919 O   0  0  0  0  0  0  0  0  0  0  0  0
   27.1245   35.5368   22.2770 C   0  0  1  0  0  0  0  0  0  0  0  0
   27.0476   34.2523   21.8728 N   0  0  0  0  0  0  0  0  0  0  0  0
   26.6407   35.8882   23.5323 C   0  0  0  0  0  0  0  0  0  0  0  0
   26.7082   37.2035   23.9784 C   0  0  2  0  0  0  0  0  0  0  0  0
   26.1640   37.5147   25.3490 C   0  0  0  0  0  0  0  0  0  0  0  0
   27.2702   38.1879   23.1555 C   0  0  2  0  0  0  0  0  0  0  0  0
   27.3703   39.5000   23.5261 N   0  0  0  0  0  0  0  0  0  0  0  0
   27.7520   37.8192   21.8936 C   0  0  0  0  0  0  0  0  0  0  0  0
   27.6852   36.5016   21.4416 C   0  0  2  0  0  0  0  0  0  0  0  0
   28.0813   34.8639   19.8121 C   0  0  2  0  0  0  0  0  0  0  0  0
   28.1508   36.1575   20.2190 N   0  0  0  0  0  0  0  0  0  0  0  0
   28.4489   39.9200   24.4006 C   0  0  0  0  0  0  0  0  0  0  0  0
   26.4330   40.5153   23.0749 C   0  0  0  0  0  0  0  0  0  0  0  0
  1  2  1  0  0  0  0
  3  1  1  6  0  0  0
  3  4  1  0  0  0  0
  3  5  1  0  0  0  0
  5  6  1  1  0  0  0
  5  7  1  0  0  0  0
  7  8  1  6  0  0  0
  7  9  1  0  0  0  0
  9 27  1  0  0  0  0
 10 11  1  0  0  0  0
 11 12  2  0  0  0  0
 11 13  1  0  0  0  0
 13 14  1  0  0  0  0
 14 16  2  0  0  0  0
 15 14  1  1  0  0  0
 15 18  1  0  0  0  0
 15 26  1  0  0  0  0
 17 19  1  1  0  0  0
 17 25  1  0  0  0  0
 17 18  1  0  0  0  0
 19 20  1  0  0  0  0
 20 21  1  6  0  0  0
 20 22  1  0  0  0  0
 22 23  1  6  0  0  0
 22 24  1  0  0  0  0
 23 28  1  0  0  0  0
 23 29  1  0  0  0  0
 25 24  1  6  0  0  0
 25 27  1  0  0  0  0
 26 10  1  6  0  0  0
 26 27  1  0  0  0  0
M  END
>  <CHROM.1>
173.51757151,62.33757833,62.89068590,164.87903384,80.33003922,-107.38268892
27.64172502,36.75614731,20.03681872,0.56241144,1.43906689,-0.24527027

>  <Name>
ligand

>  <RI>
0

>  <Rbt.Current_Directory>
/home/itssahil/PROJECTS/Mol_Feturizer/New_Systems/rnas/3F4H

>  <Rbt.Executable>
rbdock ($Id: //depot/dev/client3/rdock/2013.1/src/exe/rbdock.cxx#4 $)

>  <Rbt.Library>
libRbt.so (2013.1, Build901 2013/11/27)

>  <Rbt.Parameter_File>
/export/apps/rDock/src/rDock_2013.1_src/data/scripts/dock_solv.prm

>  <Rbt.Receptor>
prm/pocket_docking_6.prm

>  <SCORE>
-46.0142

>  <SCORE.INTER>
-29.7374

>  <SCORE.INTER.CONST>
1

>  <SCORE.INTER.POLAR>
0

>  <SCORE.INTER.ROT>
6

>  <SCORE.INTER.SOLV>
11.2954

>  <SCORE.INTER.VDW>
-31.1901

>  <SCORE.INTER.norm>
-1.02543

>  <SCORE.INTRA>
-16.2767

>  <SCORE.INTRA.DIHEDRAL>
-3.79535

>  <SCORE.INTRA.DIHEDRAL.0>
6.83446

>  <SCORE.INTRA.POLAR>
0

>  <SCORE.INTRA.POLAR.0>
0

>  <SCORE.INTRA.REPUL>
0

>  <SCORE.INTRA.REPUL.0>
0

>  <SCORE.INTRA.SOLV>
0.241419

>  <SCORE.INTRA.SOLV.lig_0>
-26.4601

>  <SCORE.INTRA.VDW>
-14.4998

>  <SCORE.INTRA.VDW.0>
13.7853

>  <SCORE.INTRA.norm>
-0.561266

>  <SCORE.RESTR>
0

>  <SCORE.RESTR.CAVITY>
0

>  <SCORE.RESTR.norm>
0

>  <SCORE.SYSTEM>
0

>  <SCORE.SYSTEM.CONST>
0

>  <SCORE.SYSTEM.DIHEDRAL>
0

>  <SCORE.SYSTEM.SOLV>
0

>  <SCORE.SYSTEM.norm>
0

>  <SCORE.heavy>
29

>  <SCORE.norm>
-1.5867

>  <RMSD>
1.532

$$$$
ligand
 OpenBabel11021811473D
libRbt.so/2013.1/901 2013/11/27
 29 31  0  0  0  0  0  0  0  0999 V2000
   26.1050   40.3422   18.0518 C   0  0  0  0  0  0  0  0  0  0  0  0
   26.8749   41.3530   18.7109 O   0  0  0  0  0  0  0  0  0  0  0  0
   26.9397   39.7177   16.9421 C   0  0  1  0  0  0  0  0  0  0  0  0
   27.4902   40.7628   16.1463 O   0  0  0  0  0  0  0  0  0  0  0  0
   28.0518   38.8575   17.5282 C   0  0  1  0  0  0  0  0  0  0  0  0
   28.8934   39.7181   18.2870 O   0  0  0  0  0  0  0  0  0  0  0  0
   27.5768   37.6889   18.3968 C   0  0  1  0  0  0  0  0  0  0  0  0
   26.7580   36.8348   17.5970 O   0  0  0  0  0  0  0  0  0  0  0  0
   28.7194   36.8523   18.9688 C   0  0  0  0  0  0  0  0  0  0  0  0
   28.5267   34.1094   18.3281 N   0  0  0  0  0  0  0  0  0  0  0  0
   28.4521   32.7917   17.9873 C   0  0  0  0  0  0  0  0  0  0  0  0
   28.8092   32.4091   16.8451 O   0  0  0  0  0  0  0  0  0  0  0  0
   27.9860   31.8784   18.8764 N   0  0  0  0  0  0  0  0  0  0  0  0
   27.5868   32.2554   20.1172 C   0  0  0  0  0  0  0  0  0  0  0  0
   27.6585   33.5957   20.4793 C   0  0  1  0  0  0  0  0  0  0  0  0
   27.1541   31.4069   20.9359 O   0  0  0  0  0  0  0  0  0  0  0  0
   27.3402   35.2809   22.0650 C   0  0  1  0  0  0  0  0  0  0  0  0
   27.2685   33.9805   21.7139 N   0  0  0  0  0  0  0  0  0  0  0  0
   26.9360   35.6682   23.3378 C   0  0  0  0  0  0  0  0  0  0  0  0
   27.0004   37.0007   23.7302 C   0  0  2  0  0  0  0  0  0  0  0  0
   26.5451   37.3507   25.1236 C   0  0  0  0  0  0  0  0  0  0  0  0
   27.4780   37.9660   22.8346 C   0  0  2  0  0  0  0  0  0  0  0  0
   27.5697   39.2932   23.1496 N   0  0  0  0  0  0  0  0  0  0  0  0
   27.8801   37.5610   21.5560 C   0  0  0  0  0  0  0  0  0  0  0  0
   27.8161   36.2261   21.1578 C   0  0  2  0  0  0  0  0  0  0  0  0
   28.1400   34.5376   19.5646 C   0  0  2  0  0  0  0  0  0  0  0  0
   28.2042   35.8469   19.9186 N   0  0  0  0  0  0  0  0  0  0  0  0
   26.6318   40.2362   22.5703 C   0  0  0  0  0  0  0  0  0  0  0  0
   28.5780   39.8153   24.0572 C   0  0  0  0  0  0  0  0  0  0  0  0
  1  2  1  0  0  0  0
  3  1  1  1  0  0  0
  3  4  1  0  0  0  0
  3  5  1  0  0  0  0
  5  6  1  1  0  0  0
  5  7  1  0  0  0  0
  7  8  1  6  0  0  0
  7  9  1  0  0  0  0
  9 27  1  0  0  0  0
 10 11  1  0  0  0  0
 11 12  2  0  0  0  0
 11 13  1  0  0  0  0
 13 14  1  0  0  0  0
 14 16  2  0  0  0  0
 15 14  1  1  0  0  0
 15 18  1  0  0  0  0
 15 26  1  0  0  0  0
 17 19  1  1  0  0  0
 17 25  1  0  0  0  0
 17 18  1  0  0  0  0
 19 20  1  0  0  0  0
 20 21  1  6  0  0  0
 20 22  1  0  0  0  0
 22 23  1  6  0  0  0
 22 24  1  0  0  0  0
 23 28  1  0  0  0  0
 23 29  1  0  0  0  0
 25 24  1  6  0  0  0
 25 27  1  0  0  0  0
 26 10  1  6  0  0  0
 26 27  1  0  0  0  0
M  END
>  <CHROM.1>
-50.10901068,-62.26040322,59.97715562,173.31846248,-106.99296365,-75.63921910
27.61838189,36.68172715,20.10117410,-2.33461027,-1.45878100,2.41734047

>  <Name>
ligand

>  <RI>
0

>  <Rbt.Current_Directory>
/home/itssahil/PROJECTS/Mol_Feturizer/New_Systems/rnas/3F4H

>  <Rbt.Executable>
rbdock ($Id: //depot/dev/client3/rdock/2013.1/src/exe/rbdock.cxx#4 $)

>  <Rbt.Library>
libRbt.so (2013.1, Build901 2013/11/27)

>  <Rbt.Parameter_File>
/export/apps/rDock/src/rDock_2013.1_src/data/scripts/dock_solv.prm

>  <Rbt.Receptor>
prm/pocket_docking_4.prm

>  <SCORE>
-48.7175

>  <SCORE.INTER>
-31.5713

>  <SCORE.INTER.CONST>
1

>  <SCORE.INTER.POLAR>
0

>  <SCORE.INTER.ROT>
6

>  <SCORE.INTER.SOLV>
10.6085

>  <SCORE.INTER.VDW>
-32.1837

>  <SCORE.INTER.norm>
-1.08866

>  <SCORE.INTRA>
-17.1463

>  <SCORE.INTRA.DIHEDRAL>
-4.26101

>  <SCORE.INTRA.DIHEDRAL.0>
6.83446

>  <SCORE.INTRA.POLAR>
0

>  <SCORE.INTRA.POLAR.0>
0

>  <SCORE.INTRA.REPUL>
0

>  <SCORE.INTRA.REPUL.0>
0

>  <SCORE.INTRA.SOLV>
0.182301

>  <SCORE.INTRA.SOLV.lig_0>
-26.4601

>  <SCORE.INTRA.VDW>
-15.1069

>  <SCORE.INTRA.VDW.0>
13.7853

>  <SCORE.INTRA.norm>
-0.59125

>  <SCORE.RESTR>
0

>  <SCORE.RESTR.CAVITY>
0

>  <SCORE.RESTR.norm>
0

>  <SCORE.SYSTEM>
0

>  <SCORE.SYSTEM.CONST>
0

>  <SCORE.SYSTEM.DIHEDRAL>
0

>  <SCORE.SYSTEM.SOLV>
0

>  <SCORE.SYSTEM.norm>
0

>  <SCORE.heavy>
29

>  <SCORE.norm>
-1.67991

>  <RMSD>
1.533

$$$$
ligand
 OpenBabel11021811473D
libRbt.so/2013.1/901 2013/11/27
 29 31  0  0  0  0  0  0  0  0999 V2000
   26.7255   40.3568   16.8774 C   0  0  0  0  0  0  0  0  0  0  0  0
   25.8526   41.4785   16.7074 O   0  0  0  0  0  0  0  0  0  0  0  0
   27.3422   40.4056   18.2686 C   0  0  1  0  0  0  0  0  0  0  0  0
   26.2984   40.2947   19.2311 O   0  0  0  0  0  0  0  0  0  0  0  0
   28.3490   39.2766   18.4477 C   0  0  1  0  0  0  0  0  0  0  0  0
   29.1844   39.6285   19.5446 O   0  0  0  0  0  0  0  0  0  0  0  0
   27.7353   37.8926   18.6786 C   0  0  1  0  0  0  0  0  0  0  0  0
   27.0309   37.5076   17.4974 O   0  0  0  0  0  0  0  0  0  0  0  0
   28.7697   36.8123   18.9883 C   0  0  0  0  0  0  0  0  0  0  0  0
   28.5493   34.0748   18.3338 N   0  0  0  0  0  0  0  0  0  0  0  0
   28.4622   32.7595   17.9867 C   0  0  0  0  0  0  0  0  0  0  0  0
   28.8411   32.3747   16.8523 O   0  0  0  0  0  0  0  0  0  0  0  0
   27.9599   31.8511   18.8611 N   0  0  0  0  0  0  0  0  0  0  0  0
   27.5364   32.2307   20.0929 C   0  0  0  0  0  0  0  0  0  0  0  0
   27.6205   33.5686   20.4612 C   0  0  1  0  0  0  0  0  0  0  0  0
   27.0703   31.3868   20.8979 O   0  0  0  0  0  0  0  0  0  0  0  0
   27.2900   35.2538   22.0443 C   0  0  1  0  0  0  0  0  0  0  0  0
   27.2064   33.9559   21.6872 N   0  0  0  0  0  0  0  0  0  0  0  0
   26.8609   35.6437   23.3082 C   0  0  0  0  0  0  0  0  0  0  0  0
   26.9368   36.9738   23.7066 C   0  0  2  0  0  0  0  0  0  0  0  0
   26.4530   37.3269   25.0896 C   0  0  0  0  0  0  0  0  0  0  0  0
   27.4516   37.9341   22.8263 C   0  0  2  0  0  0  0  0  0  0  0  0
   27.5565   39.2587   23.1479 N   0  0  0  0  0  0  0  0  0  0  0  0
   27.8785   37.5266   21.5565 C   0  0  0  0  0  0  0  0  0  0  0  0
   27.8031   36.1941   21.1523 C   0  0  2  0  0  0  0  0  0  0  0  0
   28.1392   34.5054   19.5619 C   0  0  2  0  0  0  0  0  0  0  0  0
   28.2155   35.8125   19.9218 N   0  0  0  0  0  0  0  0  0  0  0  0
   26.6231   40.2128   22.5797 C   0  0  0  0  0  0  0  0  0  0  0  0
   28.5750   39.7672   24.0519 C   0  0  0  0  0  0  0  0  0  0  0  0
  1  2  1  0  0  0  0
  3  1  1  6  0  0  0
  3  4  1  0  0  0  0
  3  5  1  0  0  0  0
  5  6  1  1  0  0  0
  5  7  1  0  0  0  0
  7  8  1  6  0  0  0
  7  9  1  0  0  0  0
  9 27  1  0  0  0  0
 10 11  1  0  0  0  0
 11 12  2  0  0  0  0
 11 13  1  0  0  0  0
 13 14  1  0  0  0  0
 14 16  2  0  0  0  0
 15 14  1  1  0  0  0
 15 18  1  0  0  0  0
 15 26  1  0  0  0  0
 17 19  1  1  0  0  0
 17 25  1  0  0  0  0
 17 18  1  0  0  0  0
 19 20  1  0  0  0  0
 20 21  1  6  0  0  0
 20 22  1  0  0  0  0
 22 23  1  6  0  0  0
 22 24  1  0  0  0  0
 23 28  1  0  0  0  0
 23 29  1  0  0  0  0
 25 24  1  6  0  0  0
 25 27  1  0  0  0  0
 26 10  1  6  0  0  0
 26 27  1  0  0  0  0
M  END
>  <CHROM.1>
62.66957664,161.10761127,65.44362234,146.72040573,-105.16820180,-60.64285299
27.58607640,36.71324612,20.22546580,-2.63553991,-1.45743478,2.15957419

>  <Name>
ligand

>  <RI>
0

>  <Rbt.Current_Directory>
/home/itssahil/PROJECTS/Mol_Feturizer/New_Systems/rnas/3F4H

>  <Rbt.Executable>
rbdock ($Id: //depot/dev/client3/rdock/2013.1/src/exe/rbdock.cxx#4 $)

>  <Rbt.Library>
libRbt.so (2013.1, Build901 2013/11/27)

>  <Rbt.Parameter_File>
/export/apps/rDock/src/rDock_2013.1_src/data/scripts/dock_solv.prm

>  <Rbt.Receptor>
prm/pocket_docking_7.prm

>  <SCORE>
-46.6156

>  <SCORE.INTER>
-30.745

>  <SCORE.INTER.CONST>
1

>  <SCORE.INTER.POLAR>
0

>  <SCORE.INTER.ROT>
6

>  <SCORE.INTER.SOLV>
10.9883

>  <SCORE.INTER.VDW>
-31.7594

>  <SCORE.INTER.norm>
-1.06017

>  <SCORE.INTRA>
-15.8705

>  <SCORE.INTRA.DIHEDRAL>
-0.383986

>  <SCORE.INTRA.DIHEDRAL.0>
6.83446

>  <SCORE.INTRA.POLAR>
0

>  <SCORE.INTRA.POLAR.0>
0

>  <SCORE.INTRA.REPUL>
0

>  <SCORE.INTRA.REPUL.0>
0

>  <SCORE.INTRA.SOLV>
0.119708

>  <SCORE.INTRA.SOLV.lig_0>
-26.4601

>  <SCORE.INTRA.VDW>
-15.7384

>  <SCORE.INTRA.VDW.0>
13.7853

>  <SCORE.INTRA.norm>
-0.54726

>  <SCORE.RESTR>
0

>  <SCORE.RESTR.CAVITY>
0

>  <SCORE.RESTR.norm>
0

>  <SCORE.SYSTEM>
0

>  <SCORE.SYSTEM.CONST>
0

>  <SCORE.SYSTEM.DIHEDRAL>
0

>  <SCORE.SYSTEM.SOLV>
0

>  <SCORE.SYSTEM.norm>
0

>  <SCORE.heavy>
29

>  <SCORE.norm>
-1.60743

>  <RMSD>
1.533

$$$$
ligand
 OpenBabel11021811473D
libRbt.so/2013.1/901 2013/11/27
 29 31  0  0  0  0  0  0  0  0999 V2000
   26.7902   40.3389   16.8383 C   0  0  0  0  0  0  0  0  0  0  0  0
   25.9571   41.4822   16.6200 O   0  0  0  0  0  0  0  0  0  0  0  0
   27.3799   40.4065   18.2403 C   0  0  1  0  0  0  0  0  0  0  0  0
   26.3165   40.3210   19.1839 O   0  0  0  0  0  0  0  0  0  0  0  0
   28.3731   39.2724   18.4586 C   0  0  1  0  0  0  0  0  0  0  0  0
   29.1890   39.6354   19.5664 O   0  0  0  0  0  0  0  0  0  0  0  0
   27.7429   37.8975   18.6997 C   0  0  1  0  0  0  0  0  0  0  0  0
   27.0310   37.5138   17.5226 O   0  0  0  0  0  0  0  0  0  0  0  0
   28.7646   36.8065   19.0138 C   0  0  0  0  0  0  0  0  0  0  0  0
   28.5429   34.0633   18.3837 N   0  0  0  0  0  0  0  0  0  0  0  0
   28.4554   32.7450   18.0485 C   0  0  0  0  0  0  0  0  0  0  0  0
   28.8440   32.3482   16.9215 O   0  0  0  0  0  0  0  0  0  0  0  0
   27.9424   31.8465   18.9268 N   0  0  0  0  0  0  0  0  0  0  0  0
   27.5084   32.2390   20.1509 C   0  0  0  0  0  0  0  0  0  0  0  0
   27.5927   33.5802   20.5070 C   0  0  1  0  0  0  0  0  0  0  0  0
   27.0325   31.4042   20.9596 O   0  0  0  0  0  0  0  0  0  0  0  0
   27.2520   35.2816   22.0706 C   0  0  1  0  0  0  0  0  0  0  0  0
   27.1681   33.9804   21.7253 N   0  0  0  0  0  0  0  0  0  0  0  0
   26.8120   35.6848   23.3265 C   0  0  0  0  0  0  0  0  0  0  0  0
   26.8878   37.0185   23.7128 C   0  0  2  0  0  0  0  0  0  0  0  0
   26.3920   37.3862   25.0877 C   0  0  0  0  0  0  0  0  0  0  0  0
   27.4135   37.9688   22.8282 C   0  0  2  0  0  0  0  0  0  0  0  0
   27.5190   39.2962   23.1380 N   0  0  0  0  0  0  0  0  0  0  0  0
   27.8512   37.5479   21.5665 C   0  0  0  0  0  0  0  0  0  0  0  0
   27.7760   36.2118   21.1745 C   0  0  2  0  0  0  0  0  0  0  0  0
   28.1224   34.5069   19.6036 C   0  0  2  0  0  0  0  0  0  0  0  0
   28.1989   35.8172   19.9516 N   0  0  0  0  0  0  0  0  0  0  0  0
   28.5969   39.7509   23.9959 C   0  0  0  0  0  0  0  0  0  0  0  0
   26.5885   40.2941   22.6369 C   0  0  0  0  0  0  0  0  0  0  0  0
  1  2  1  0  0  0  0
  3  1  1  6  0  0  0
  3  4  1  0  0  0  0
  3  5  1  0  0  0  0
  5  6  1  1  0  0  0
  5  7  1  0  0  0  0
  7  8  1  6  0  0  0
  7  9  1  0  0  0  0
  9 27  1  0  0  0  0
 10 11  1  0  0  0  0
 11 12  2  0  0  0  0
 11 13  1  0  0  0  0
 13 14  1  0  0  0  0
 14 16  2  0  0  0  0
 15 14  1  1  0  0  0
 15 18  1  0  0  0  0
 15 26  1  0  0  0  0
 17 19  1  1  0  0  0
 17 25  1  0  0  0  0
 17 18  1  0  0  0  0
 19 20  1  0  0  0  0
 20 21  1  6  0  0  0
 20 22  1  0  0  0  0
 22 23  1  6  0  0  0
 22 24  1  0  0  0  0
 23 28  1  0  0  0  0
 23 29  1  0  0  0  0
 25 24  1  6  0  0  0
 25 27  1  0  0  0  0
 26 10  1  6  0  0  0
 26 27  1  0  0  0  0
M  END
>  <CHROM.1>
64.10351739,161.16190482,63.99670355,146.89525963,77.95853268,-59.82562839
27.57801560,36.72616706,20.24173664,-2.51732208,-1.45543236,2.26309536

>  <Name>
ligand

>  <RI>
0

>  <Rbt.Current_Directory>
/home/itssahil/PROJECTS/Mol_Feturizer/New_Systems/rnas/3F4H

>  <Rbt.Executable>
rbdock ($Id: //depot/dev/client3/rdock/2013.1/src/exe/rbdock.cxx#4 $)

>  <Rbt.Library>
libRbt.so (2013.1, Build901 2013/11/27)

>  <Rbt.Parameter_File>
/export/apps/rDock/src/rDock_2013.1_src/data/scripts/dock_solv.prm

>  <Rbt.Receptor>
prm/pocket_docking_4.prm

>  <SCORE>
-46.5487

>  <SCORE.INTER>
-30.5902

>  <SCORE.INTER.CONST>
1

>  <SCORE.INTER.POLAR>
0

>  <SCORE.INTER.ROT>
6

>  <SCORE.INTER.SOLV>
11.1029

>  <SCORE.INTER.VDW>
-31.6944

>  <SCORE.INTER.norm>
-1.05483

>  <SCORE.INTRA>
-15.9586

>  <SCORE.INTRA.DIHEDRAL>
-0.430367

>  <SCORE.INTRA.DIHEDRAL.0>
6.83446

>  <SCORE.INTRA.POLAR>
0

>  <SCORE.INTRA.POLAR.0>
0

>  <SCORE.INTRA.REPUL>
0

>  <SCORE.INTRA.REPUL.0>
0

>  <SCORE.INTRA.SOLV>
0.10566

>  <SCORE.INTRA.SOLV.lig_0>
-26.4601

>  <SCORE.INTRA.VDW>
-15.7962

>  <SCORE.INTRA.VDW.0>
13.7853

>  <SCORE.INTRA.norm>
-0.550295

>  <SCORE.RESTR>
0

>  <SCORE.RESTR.CAVITY>
0

>  <SCORE.RESTR.norm>
0

>  <SCORE.SYSTEM>
0

>  <SCORE.SYSTEM.CONST>
0

>  <SCORE.SYSTEM.DIHEDRAL>
0

>  <SCORE.SYSTEM.SOLV>
0

>  <SCORE.SYSTEM.norm>
0

>  <SCORE.heavy>
29

>  <SCORE.norm>
-1.60513

>  <RMSD>
1.538

$$$$
ligand
 OpenBabel11021811473D
libRbt.so/2013.1/901 2013/11/27
 29 31  0  0  0  0  0  0  0  0999 V2000
   26.0220   40.2473   17.9933 C   0  0  0  0  0  0  0  0  0  0  0  0
   26.7747   41.2164   18.7304 O   0  0  0  0  0  0  0  0  0  0  0  0
   26.8943   39.6670   16.8886 C   0  0  1  0  0  0  0  0  0  0  0  0
   27.4385   40.7419   16.1291 O   0  0  0  0  0  0  0  0  0  0  0  0
   28.0123   38.8178   17.4796 C   0  0  1  0  0  0  0  0  0  0  0  0
   28.8541   39.6904   18.2245 O   0  0  0  0  0  0  0  0  0  0  0  0
   27.5457   37.6577   18.3639 C   0  0  1  0  0  0  0  0  0  0  0  0
   26.6965   36.8112   17.5881 O   0  0  0  0  0  0  0  0  0  0  0  0
   28.6924   36.8090   18.9093 C   0  0  0  0  0  0  0  0  0  0  0  0
   28.5191   34.0607   18.2864 N   0  0  0  0  0  0  0  0  0  0  0  0
   28.4537   32.7403   17.9541 C   0  0  0  0  0  0  0  0  0  0  0  0
   28.8100   32.3533   16.8131 O   0  0  0  0  0  0  0  0  0  0  0  0
   27.9977   31.8291   18.8505 N   0  0  0  0  0  0  0  0  0  0  0  0
   27.5997   32.2107   20.0902 C   0  0  0  0  0  0  0  0  0  0  0  0
   27.6621   33.5538   20.4436 C   0  0  1  0  0  0  0  0  0  0  0  0
   27.1764   31.3640   20.9157 O   0  0  0  0  0  0  0  0  0  0  0  0
   27.3358   35.2464   22.0198 C   0  0  1  0  0  0  0  0  0  0  0  0
   27.2731   33.9433   21.6771 N   0  0  0  0  0  0  0  0  0  0  0  0
   26.9328   35.6385   23.2915 C   0  0  0  0  0  0  0  0  0  0  0  0
   26.9880   36.9739   23.6753 C   0  0  2  0  0  0  0  0  0  0  0  0
   26.5346   37.3291   25.0680 C   0  0  0  0  0  0  0  0  0  0  0  0
   27.4552   37.9372   22.7722 C   0  0  2  0  0  0  0  0  0  0  0  0
   27.5375   39.2671   23.0785 N   0  0  0  0  0  0  0  0  0  0  0  0
   27.8562   37.5274   21.4948 C   0  0  0  0  0  0  0  0  0  0  0  0
   27.8014   36.1896   21.1051 C   0  0  2  0  0  0  0  0  0  0  0  0
   28.1332   34.4936   19.5215 C   0  0  2  0  0  0  0  0  0  0  0  0
   28.1883   35.8056   19.8671 N   0  0  0  0  0  0  0  0  0  0  0  0
   26.5904   40.1991   22.4963 C   0  0  0  0  0  0  0  0  0  0  0  0
   28.5446   39.8027   23.9794 C   0  0  0  0  0  0  0  0  0  0  0  0
  1  2  1  0  0  0  0
  3  1  1  1  0  0  0
  3  4  1  0  0  0  0
  3  5  1  0  0  0  0
  5  6  1  1  0  0  0
  5  7  1  0  0  0  0
  7  8  1  6  0  0  0
  7  9  1  0  0  0  0
  9 27  1  0  0  0  0
 10 11  1  0  0  0  0
 11 12  2  0  0  0  0
 11 13  1  0  0  0  0
 13 14  1  0  0  0  0
 14 16  2  0  0  0  0
 15 14  1  1  0  0  0
 15 18  1  0  0  0  0
 15 26  1  0  0  0  0
 17 19  1  1  0  0  0
 17 25  1  0  0  0  0
 17 18  1  0  0  0  0
 19 20  1  0  0  0  0
 20 21  1  6  0  0  0
 20 22  1  0  0  0  0
 22 23  1  6  0  0  0
 22 24  1  0  0  0  0
 23 28  1  0  0  0  0
 23 29  1  0  0  0  0
 25 24  1  6  0  0  0
 25 27  1  0  0  0  0
 26 10  1  6  0  0  0
 26 27  1  0  0  0  0
M  END
>  <CHROM.1>
-52.68346586,-64.96435113,58.39042751,173.77163095,-106.99729232,-74.13325466
27.59478570,36.63951386,20.05800708,-2.40634105,-1.45486900,2.34811685

>  <Name>
ligand

>  <RI>
0

>  <Rbt.Current_Directory>
/home/itssahil/PROJECTS/Mol_Feturizer/New_Systems/rnas/3F4H

>  <Rbt.Executable>
rbdock ($Id: //depot/dev/client3/rdock/2013.1/src/exe/rbdock.cxx#4 $)

>  <Rbt.Library>
libRbt.so (2013.1, Build901 2013/11/27)

>  <Rbt.Parameter_File>
/export/apps/rDock/src/rDock_2013.1_src/data/scripts/dock_solv.prm

>  <Rbt.Receptor>
prm/pocket_docking_3.prm

>  <SCORE>
-48.8227

>  <SCORE.INTER>
-31.6382

>  <SCORE.INTER.CONST>
1

>  <SCORE.INTER.POLAR>
0

>  <SCORE.INTER.ROT>
6

>  <SCORE.INTER.SOLV>
10.8736

>  <SCORE.INTER.VDW>
-32.3166

>  <SCORE.INTER.norm>
-1.09097

>  <SCORE.INTRA>
-17.1846

>  <SCORE.INTRA.DIHEDRAL>
-4.35679

>  <SCORE.INTRA.DIHEDRAL.0>
6.83446

>  <SCORE.INTRA.POLAR>
0

>  <SCORE.INTRA.POLAR.0>
0

>  <SCORE.INTRA.REPUL>
0

>  <SCORE.INTRA.REPUL.0>
0

>  <SCORE.INTRA.SOLV>
0.221093

>  <SCORE.INTRA.SOLV.lig_0>
-26.4601

>  <SCORE.INTRA.VDW>
-15.1167

>  <SCORE.INTRA.VDW.0>
13.7853

>  <SCORE.INTRA.norm>
-0.592572

>  <SCORE.RESTR>
0

>  <SCORE.RESTR.CAVITY>
0

>  <SCORE.RESTR.norm>
0

>  <SCORE.SYSTEM>
0

>  <SCORE.SYSTEM.CONST>
0

>  <SCORE.SYSTEM.DIHEDRAL>
0

>  <SCORE.SYSTEM.SOLV>
0

>  <SCORE.SYSTEM.norm>
0

>  <SCORE.heavy>
29

>  <SCORE.norm>
-1.68354

>  <RMSD>
1.541

$$$$
ligand
 OpenBabel11021811473D
libRbt.so/2013.1/901 2013/11/27
 29 31  0  0  0  0  0  0  0  0999 V2000
   26.7139   40.3458   16.8883 C   0  0  0  0  0  0  0  0  0  0  0  0
   25.8349   41.4618   16.7132 O   0  0  0  0  0  0  0  0  0  0  0  0
   27.3707   40.4331   18.2591 C   0  0  1  0  0  0  0  0  0  0  0  0
   26.3540   40.3641   19.2540 O   0  0  0  0  0  0  0  0  0  0  0  0
   28.3716   39.3001   18.4463 C   0  0  1  0  0  0  0  0  0  0  0  0
   29.2167   39.6610   19.5327 O   0  0  0  0  0  0  0  0  0  0  0  0
   27.7508   37.9232   18.6997 C   0  0  1  0  0  0  0  0  0  0  0  0
   27.0363   37.5269   17.5284 O   0  0  0  0  0  0  0  0  0  0  0  0
   28.7804   36.8406   19.0171 C   0  0  0  0  0  0  0  0  0  0  0  0
   28.5680   34.0997   18.3743 N   0  0  0  0  0  0  0  0  0  0  0  0
   28.4850   32.7826   18.0331 C   0  0  0  0  0  0  0  0  0  0  0  0
   28.8742   32.3925   16.9040 O   0  0  0  0  0  0  0  0  0  0  0  0
   27.9757   31.8782   18.9075 N   0  0  0  0  0  0  0  0  0  0  0  0
   27.5411   32.2635   20.1336 C   0  0  0  0  0  0  0  0  0  0  0  0
   27.6208   33.6033   20.4960 C   0  0  1  0  0  0  0  0  0  0  0  0
   27.0686   31.4232   20.9387 O   0  0  0  0  0  0  0  0  0  0  0  0
   27.2751   35.2961   22.0677 C   0  0  1  0  0  0  0  0  0  0  0  0
   27.1956   33.9963   21.7163 N   0  0  0  0  0  0  0  0  0  0  0  0
   26.8345   35.6920   23.3257 C   0  0  0  0  0  0  0  0  0  0  0  0
   26.9057   37.0241   23.7181 C   0  0  2  0  0  0  0  0  0  0  0  0
   26.4095   37.3836   25.0950 C   0  0  0  0  0  0  0  0  0  0  0  0
   27.4275   37.9803   22.8377 C   0  0  2  0  0  0  0  0  0  0  0  0
   27.5286   39.3067   23.1536 N   0  0  0  0  0  0  0  0  0  0  0  0
   27.8660   37.5669   21.5738 C   0  0  0  0  0  0  0  0  0  0  0  0
   27.7952   36.2323   21.1756 C   0  0  2  0  0  0  0  0  0  0  0  0
   28.1467   34.5360   19.5966 C   0  0  2  0  0  0  0  0  0  0  0  0
   28.2188   35.8450   19.9506 N   0  0  0  0  0  0  0  0  0  0  0  0
   28.6053   39.7611   24.0130 C   0  0  0  0  0  0  0  0  0  0  0  0
   26.5942   40.3036   22.6577 C   0  0  0  0  0  0  0  0  0  0  0  0
  1  2  1  0  0  0  0
  3  1  1  6  0  0  0
  3  4  1  0  0  0  0
  3  5  1  0  0  0  0
  5  6  1  1  0  0  0
  5  7  1  0  0  0  0
  7  8  1  6  0  0  0
  7  9  1  0  0  0  0
  9 27  1  0  0  0  0
 10 11  1  0  0  0  0
 11 12  2  0  0  0  0
 11 13  1  0  0  0  0
 13 14  1  0  0  0  0
 14 16  2  0  0  0  0
 15 14  1  1  0  0  0
 15 18  1  0  0  0  0
 15 26  1  0  0  0  0
 17 19  1  1  0  0  0
 17 25  1  0  0  0  0
 17 18  1  0  0  0  0
 19 20  1  0  0  0  0
 20 21  1  6  0  0  0
 20 22  1  0  0  0  0
 22 23  1  6  0  0  0
 22 24  1  0  0  0  0
 23 28  1  0  0  0  0
 23 29  1  0  0  0  0
 25 24  1  6  0  0  0
 25 27  1  0  0  0  0
 26 10  1  6  0  0  0
 26 27  1  0  0  0  0
M  END
>  <CHROM.1>
61.98422190,162.77992739,65.46625106,147.62717994,77.95693448,-60.29187490
27.58843051,36.74597200,20.24767497,-2.58666006,-1.45243127,2.20649701

>  <Name>
ligand

>  <RI>
0

>  <Rbt.Current_Directory>
/home/itssahil/PROJECTS/Mol_Feturizer/New_Systems/rnas/3F4H

>  <Rbt.Executable>
rbdock ($Id: //depot/dev/client3/rdock/2013.1/src/exe/rbdock.cxx#4 $)

>  <Rbt.Library>
libRbt.so (2013.1, Build901 2013/11/27)

>  <Rbt.Parameter_File>
/export/apps/rDock/src/rDock_2013.1_src/data/scripts/dock_solv.prm

>  <Rbt.Receptor>
prm/blind_docking_80.prm

>  <SCORE>
-46.6265

>  <SCORE.INTER>
-30.5585

>  <SCORE.INTER.CONST>
1

>  <SCORE.INTER.POLAR>
0

>  <SCORE.INTER.ROT>
6

>  <SCORE.INTER.SOLV>
11.0069

>  <SCORE.INTER.VDW>
-31.6413

>  <SCORE.INTER.norm>
-1.05374

>  <SCORE.INTRA>
-16.0679

>  <SCORE.INTRA.DIHEDRAL>
-0.708843

>  <SCORE.INTRA.DIHEDRAL.0>
6.83446

>  <SCORE.INTRA.POLAR>
0

>  <SCORE.INTRA.POLAR.0>
0

>  <SCORE.INTRA.REPUL>
0

>  <SCORE.INTRA.REPUL.0>
0

>  <SCORE.INTRA.SOLV>
0.102391

>  <SCORE.INTRA.SOLV.lig_0>
-26.4601

>  <SCORE.INTRA.VDW>
-15.7647

>  <SCORE.INTRA.VDW.0>
13.7853

>  <SCORE.INTRA.norm>
-0.554067

>  <SCORE.RESTR>
0

>  <SCORE.RESTR.CAVITY>
0

>  <SCORE.RESTR.norm>
0

>  <SCORE.SYSTEM>
0

>  <SCORE.SYSTEM.CONST>
0

>  <SCORE.SYSTEM.DIHEDRAL>
0

>  <SCORE.SYSTEM.SOLV>
0

>  <SCORE.SYSTEM.norm>
0

>  <SCORE.heavy>
29

>  <SCORE.norm>
-1.60781

>  <RMSD>
1.543

$$$$
ligand
 OpenBabel11021811473D
libRbt.so/2013.1/901 2013/11/27
 29 31  0  0  0  0  0  0  0  0999 V2000
   30.3644   38.9986   17.6233 C   0  0  0  0  0  0  0  0  0  0  0  0
   30.5213   38.8203   19.0348 O   0  0  0  0  0  0  0  0  0  0  0  0
   28.9435   39.4599   17.3294 C   0  0  1  0  0  0  0  0  0  0  0  0
   28.9816   40.3823   16.2449 O   0  0  0  0  0  0  0  0  0  0  0  0
   28.0559   38.2717   16.9822 C   0  0  1  0  0  0  0  0  0  0  0  0
   28.7835   37.4552   16.0719 O   0  0  0  0  0  0  0  0  0  0  0  0
   27.5930   37.4374   18.1803 C   0  0  1  0  0  0  0  0  0  0  0  0
   26.6572   36.4627   17.7180 O   0  0  0  0  0  0  0  0  0  0  0  0
   28.7314   36.7051   18.8879 C   0  0  0  0  0  0  0  0  0  0  0  0
   28.5463   33.9463   18.3167 N   0  0  0  0  0  0  0  0  0  0  0  0
   28.4759   32.6202   18.0095 C   0  0  0  0  0  0  0  0  0  0  0  0
   28.8517   32.2073   16.8840 O   0  0  0  0  0  0  0  0  0  0  0  0
   27.9938   31.7311   18.9145 N   0  0  0  0  0  0  0  0  0  0  0  0
   27.5743   32.1410   20.1380 C   0  0  0  0  0  0  0  0  0  0  0  0
   27.6415   33.4904   20.4657 C   0  0  1  0  0  0  0  0  0  0  0  0
   27.1269   31.3148   20.9715 O   0  0  0  0  0  0  0  0  0  0  0  0
   27.2984   35.2171   22.0007 C   0  0  1  0  0  0  0  0  0  0  0  0
   27.2311   33.9079   21.6830 N   0  0  0  0  0  0  0  0  0  0  0  0
   26.8733   35.6382   23.2559 C   0  0  0  0  0  0  0  0  0  0  0  0
   26.9327   36.9805   23.6140 C   0  0  2  0  0  0  0  0  0  0  0  0
   26.4544   37.3676   24.9898 C   0  0  0  0  0  0  0  0  0  0  0  0
   27.4264   37.9214   22.7014 C   0  0  2  0  0  0  0  0  0  0  0  0
   27.5143   39.2565   22.9827 N   0  0  0  0  0  0  0  0  0  0  0  0
   27.8495   37.4826   21.4409 C   0  0  0  0  0  0  0  0  0  0  0  0
   27.7907   36.1377   21.0771 C   0  0  2  0  0  0  0  0  0  0  0  0
   28.1394   34.4073   19.5348 C   0  0  2  0  0  0  0  0  0  0  0  0
   28.1991   35.7256   19.8551 N   0  0  0  0  0  0  0  0  0  0  0  0
   28.5659   39.7393   23.8577 C   0  0  0  0  0  0  0  0  0  0  0  0
   26.5902   40.2353   22.4343 C   0  0  0  0  0  0  0  0  0  0  0  0
  1  2  1  0  0  0  0
  3  1  1  6  0  0  0
  3  4  1  0  0  0  0
  3  5  1  0  0  0  0
  5  6  1  6  0  0  0
  5  7  1  0  0  0  0
  7  8  1  6  0  0  0
  7  9  1  0  0  0  0
  9 27  1  0  0  0  0
 10 11  1  0  0  0  0
 11 12  2  0  0  0  0
 11 13  1  0  0  0  0
 13 14  1  0  0  0  0
 14 16  2  0  0  0  0
 15 14  1  1  0  0  0
 15 18  1  0  0  0  0
 15 26  1  0  0  0  0
 17 19  1  1  0  0  0
 17 25  1  0  0  0  0
 17 18  1  0  0  0  0
 19 20  1  0  0  0  0
 20 21  1  6  0  0  0
 20 22  1  0  0  0  0
 22 23  1  6  0  0  0
 22 24  1  0  0  0  0
 23 28  1  0  0  0  0
 23 29  1  0  0  0  0
 25 24  1  6  0  0  0
 25 27  1  0  0  0  0
 26 10  1  6  0  0  0
 26 27  1  0  0  0  0
M  END
>  <CHROM.1>
143.96165600,-45.09224309,173.54397457,-169.04089902,75.38731058,-80.86965342
28.01688709,36.31197347,19.96301991,-1.56987446,-1.28716367,-2.77451302

>  <Name>
ligand

>  <RI>
0

>  <Rbt.Current_Directory>
/home/itssahil/PROJECTS/Mol_Feturizer/New_Systems/rnas/3F4H

>  <Rbt.Executable>
rbdock ($Id: //depot/dev/client3/rdock/2013.1/src/exe/rbdock.cxx#4 $)

>  <Rbt.Library>
libRbt.so (2013.1, Build901 2013/11/27)

>  <Rbt.Parameter_File>
/export/apps/rDock/src/rDock_2013.1_src/data/scripts/dock_solv.prm

>  <Rbt.Receptor>
prm/pocket_docking_7.prm

>  <SCORE>
-45.0001

>  <SCORE.INTER>
-31.2261

>  <SCORE.INTER.CONST>
1

>  <SCORE.INTER.POLAR>
0

>  <SCORE.INTER.ROT>
6

>  <SCORE.INTER.SOLV>
11.3673

>  <SCORE.INTER.VDW>
-32.2065

>  <SCORE.INTER.norm>
-1.07676

>  <SCORE.INTRA>
-13.774

>  <SCORE.INTRA.DIHEDRAL>
0.0477607

>  <SCORE.INTRA.DIHEDRAL.0>
6.83446

>  <SCORE.INTRA.POLAR>
0

>  <SCORE.INTRA.POLAR.0>
0

>  <SCORE.INTRA.REPUL>
0

>  <SCORE.INTRA.REPUL.0>
0

>  <SCORE.INTRA.SOLV>
-0.0304178

>  <SCORE.INTRA.SOLV.lig_0>
-26.4601

>  <SCORE.INTRA.VDW>
-13.7826

>  <SCORE.INTRA.VDW.0>
13.7853

>  <SCORE.INTRA.norm>
-0.474964

>  <SCORE.RESTR>
0

>  <SCORE.RESTR.CAVITY>
0

>  <SCORE.RESTR.norm>
0

>  <SCORE.SYSTEM>
0

>  <SCORE.SYSTEM.CONST>
0

>  <SCORE.SYSTEM.DIHEDRAL>
0

>  <SCORE.SYSTEM.SOLV>
0

>  <SCORE.SYSTEM.norm>
0

>  <SCORE.heavy>
29

>  <SCORE.norm>
-1.55173

>  <RMSD>
1.544

$$$$
ligand
 OpenBabel11021811473D
libRbt.so/2013.1/901 2013/11/27
 29 31  0  0  0  0  0  0  0  0999 V2000
   26.1037   40.3173   18.0768 C   0  0  0  0  0  0  0  0  0  0  0  0
   26.8975   41.2790   18.7796 O   0  0  0  0  0  0  0  0  0  0  0  0
   26.9296   39.7093   16.9515 C   0  0  1  0  0  0  0  0  0  0  0  0
   27.4851   40.7661   16.1750 O   0  0  0  0  0  0  0  0  0  0  0  0
   28.0372   38.8289   17.5158 C   0  0  1  0  0  0  0  0  0  0  0  0
   28.9011   39.6716   18.2695 O   0  0  0  0  0  0  0  0  0  0  0  0
   27.5575   37.6605   18.3819 C   0  0  1  0  0  0  0  0  0  0  0  0
   26.7399   36.8083   17.5789 O   0  0  0  0  0  0  0  0  0  0  0  0
   28.6968   36.8215   18.9571 C   0  0  0  0  0  0  0  0  0  0  0  0
   28.5226   34.0766   18.3198 N   0  0  0  0  0  0  0  0  0  0  0  0
   28.4572   32.7579   17.9808 C   0  0  0  0  0  0  0  0  0  0  0  0
   28.8272   32.3748   16.8429 O   0  0  0  0  0  0  0  0  0  0  0  0
   27.9864   31.8443   18.8671 N   0  0  0  0  0  0  0  0  0  0  0  0
   27.5735   32.2218   20.1032 C   0  0  0  0  0  0  0  0  0  0  0  0
   27.6357   33.5631   20.4633 C   0  0  1  0  0  0  0  0  0  0  0  0
   27.1366   31.3730   20.9193 O   0  0  0  0  0  0  0  0  0  0  0  0
   27.2943   35.2498   22.0426 C   0  0  1  0  0  0  0  0  0  0  0  0
   27.2318   33.9485   21.6933 N   0  0  0  0  0  0  0  0  0  0  0  0
   26.8759   35.6378   23.3107 C   0  0  0  0  0  0  0  0  0  0  0  0
   26.9305   36.9712   23.7011 C   0  0  2  0  0  0  0  0  0  0  0  0
   26.4601   37.3219   25.0893 C   0  0  0  0  0  0  0  0  0  0  0  0
   27.4127   37.9369   22.8084 C   0  0  2  0  0  0  0  0  0  0  0  0
   27.4954   39.2652   23.1217 N   0  0  0  0  0  0  0  0  0  0  0  0
   27.8291   37.5314   21.5346 C   0  0  0  0  0  0  0  0  0  0  0  0
   27.7749   36.1955   21.1383 C   0  0  2  0  0  0  0  0  0  0  0  0
   28.1219   34.5054   19.5517 C   0  0  2  0  0  0  0  0  0  0  0  0
   28.1769   35.8157   19.9037 N   0  0  0  0  0  0  0  0  0  0  0  0
   28.5519   39.7326   23.9989 C   0  0  0  0  0  0  0  0  0  0  0  0
   26.5607   40.2515   22.6057 C   0  0  0  0  0  0  0  0  0  0  0  0
  1  2  1  0  0  0  0
  3  1  1  1  0  0  0
  3  4  1  0  0  0  0
  3  5  1  0  0  0  0
  5  6  1  1  0  0  0
  5  7  1  0  0  0  0
  7  8  1  6  0  0  0
  7  9  1  0  0  0  0
  9 27  1  0  0  0  0
 10 11  1  0  0  0  0
 11 12  2  0  0  0  0
 11 13  1  0  0  0  0
 13 14  1  0  0  0  0
 14 16  2  0  0  0  0
 15 14  1  1  0  0  0
 15 18  1  0  0  0  0
 15 26  1  0  0  0  0
 17 19  1  1  0  0  0
 17 25  1  0  0  0  0
 17 18  1  0  0  0  0
 19 20  1  0  0  0  0
 20 21  1  6  0  0  0
 20 22  1  0  0  0  0
 22 23  1  6  0  0  0
 22 24  1  0  0  0  0
 23 28  1  0  0  0  0
 23 29  1  0  0  0  0
 25 24  1  6  0  0  0
 25 27  1  0  0  0  0
 26 10  1  6  0  0  0
 26 27  1  0  0  0  0
M  END
>  <CHROM.1>
-51.88833308,-63.25571791,61.24623085,173.35828820,75.49361859,-75.12211604
27.59300019,36.65051356,20.09189836,-2.28475430,-1.44826737,2.47580695

>  <Name>
ligand

>  <RI>
0

>  <Rbt.Current_Directory>
/home/itssahil/PROJECTS/Mol_Feturizer/New_Systems/rnas/3F4H

>  <Rbt.Executable>
rbdock ($Id: //depot/dev/client3/rdock/2013.1/src/exe/rbdock.cxx#4 $)

>  <Rbt.Library>
libRbt.so (2013.1, Build901 2013/11/27)

>  <Rbt.Parameter_File>
/export/apps/rDock/src/rDock_2013.1_src/data/scripts/dock_solv.prm

>  <Rbt.Receptor>
prm/pocket_docking_5.prm

>  <SCORE>
-48.7765

>  <SCORE.INTER>
-31.5107

>  <SCORE.INTER.CONST>
1

>  <SCORE.INTER.POLAR>
0

>  <SCORE.INTER.ROT>
6

>  <SCORE.INTER.SOLV>
10.7613

>  <SCORE.INTER.VDW>
-32.1942

>  <SCORE.INTER.norm>
-1.08658

>  <SCORE.INTRA>
-17.2658

>  <SCORE.INTRA.DIHEDRAL>
-4.34996

>  <SCORE.INTRA.DIHEDRAL.0>
6.83446

>  <SCORE.INTRA.POLAR>
0

>  <SCORE.INTRA.POLAR.0>
0

>  <SCORE.INTRA.REPUL>
0

>  <SCORE.INTRA.REPUL.0>
0

>  <SCORE.INTRA.SOLV>
0.19611

>  <SCORE.INTRA.SOLV.lig_0>
-26.4601

>  <SCORE.INTRA.VDW>
-15.1889

>  <SCORE.INTRA.VDW.0>
13.7853

>  <SCORE.INTRA.norm>
-0.595373

>  <SCORE.RESTR>
0

>  <SCORE.RESTR.CAVITY>
0

>  <SCORE.RESTR.norm>
0

>  <SCORE.SYSTEM>
0

>  <SCORE.SYSTEM.CONST>
0

>  <SCORE.SYSTEM.DIHEDRAL>
0

>  <SCORE.SYSTEM.SOLV>
0

>  <SCORE.SYSTEM.norm>
0

>  <SCORE.heavy>
29

>  <SCORE.norm>
-1.68195

>  <RMSD>
1.545

$$$$
ligand
 OpenBabel11021811473D
libRbt.so/2013.1/901 2013/11/27
 29 31  0  0  0  0  0  0  0  0999 V2000
   26.0158   40.2771   17.9561 C   0  0  0  0  0  0  0  0  0  0  0  0
   26.7272   41.2647   18.7094 O   0  0  0  0  0  0  0  0  0  0  0  0
   26.9366   39.6970   16.8914 C   0  0  1  0  0  0  0  0  0  0  0  0
   27.4864   40.7704   16.1339 O   0  0  0  0  0  0  0  0  0  0  0  0
   28.0493   38.8788   17.5339 C   0  0  1  0  0  0  0  0  0  0  0  0
   28.8323   39.7742   18.3148 O   0  0  0  0  0  0  0  0  0  0  0  0
   27.5747   37.7067   18.3979 C   0  0  1  0  0  0  0  0  0  0  0  0
   26.7572   36.8547   17.5945 O   0  0  0  0  0  0  0  0  0  0  0  0
   28.7177   36.8690   18.9677 C   0  0  0  0  0  0  0  0  0  0  0  0
   28.5346   34.1271   18.3197 N   0  0  0  0  0  0  0  0  0  0  0  0
   28.4647   32.8101   17.9754 C   0  0  0  0  0  0  0  0  0  0  0  0
   28.8260   32.4313   16.8332 O   0  0  0  0  0  0  0  0  0  0  0  0
   27.9987   31.8933   18.8610 N   0  0  0  0  0  0  0  0  0  0  0  0
   27.5950   32.2660   20.1016 C   0  0  0  0  0  0  0  0  0  0  0  0
   27.6619   33.6057   20.4671 C   0  0  1  0  0  0  0  0  0  0  0  0
   27.1625   31.4143   20.9170 O   0  0  0  0  0  0  0  0  0  0  0  0
   27.3343   35.2860   22.0561 C   0  0  1  0  0  0  0  0  0  0  0  0
   27.2673   33.9863   21.7016 N   0  0  0  0  0  0  0  0  0  0  0  0
   26.9255   35.6690   23.3288 C   0  0  0  0  0  0  0  0  0  0  0  0
   26.9850   37.0006   23.7246 C   0  0  2  0  0  0  0  0  0  0  0  0
   26.5249   37.3459   25.1176 C   0  0  0  0  0  0  0  0  0  0  0  0
   27.4624   37.9695   22.8328 C   0  0  2  0  0  0  0  0  0  0  0  0
   27.5494   39.2962   23.1513 N   0  0  0  0  0  0  0  0  0  0  0  0
   27.8692   37.5689   21.5543 C   0  0  0  0  0  0  0  0  0  0  0  0
   27.8101   36.2348   21.1526 C   0  0  2  0  0  0  0  0  0  0  0  0
   28.1432   34.5511   19.5562 C   0  0  2  0  0  0  0  0  0  0  0  0
   28.2027   35.8598   19.9136 N   0  0  0  0  0  0  0  0  0  0  0  0
   26.6098   40.2378   22.5725 C   0  0  0  0  0  0  0  0  0  0  0  0
   28.5544   39.8190   24.0622 C   0  0  0  0  0  0  0  0  0  0  0  0
  1  2  1  0  0  0  0
  3  1  1  1  0  0  0
  3  4  1  0  0  0  0
  3  5  1  0  0  0  0
  5  6  1  1  0  0  0
  5  7  1  0  0  0  0
  7  8  1  6  0  0  0
  7  9  1  0  0  0  0
  9 27  1  0  0  0  0
 10 11  1  0  0  0  0
 11 12  2  0  0  0  0
 11 13  1  0  0  0  0
 13 14  1  0  0  0  0
 14 16  2  0  0  0  0
 15 14  1  1  0  0  0
 15 18  1  0  0  0  0
 15 26  1  0  0  0  0
 17 19  1  1  0  0  0
 17 25  1  0  0  0  0
 17 18  1  0  0  0  0
 19 20  1  0  0  0  0
 20 21  1  6  0  0  0
 20 22  1  0  0  0  0
 22 23  1  6  0  0  0
 22 24  1  0  0  0  0
 23 28  1  0  0  0  0
 23 29  1  0  0  0  0
 25 24  1  6  0  0  0
 25 27  1  0  0  0  0
 26 10  1  6  0  0  0
 26 27  1  0  0  0  0
M  END
>  <CHROM.1>
-53.10848845,-63.81771627,56.95187961,173.31572470,-106.94421700,-75.46242910
27.60369874,36.68592755,20.09179601,-2.39202235,-1.45511724,2.36172589

>  <Name>
ligand

>  <RI>
0

>  <Rbt.Current_Directory>
/home/itssahil/PROJECTS/Mol_Feturizer/New_Systems/rnas/3F4H

>  <Rbt.Executable>
rbdock ($Id: //depot/dev/client3/rdock/2013.1/src/exe/rbdock.cxx#4 $)

>  <Rbt.Library>
libRbt.so (2013.1, Build901 2013/11/27)

>  <Rbt.Parameter_File>
/export/apps/rDock/src/rDock_2013.1_src/data/scripts/dock_solv.prm

>  <Rbt.Receptor>
prm/pocket_docking_6.prm

>  <SCORE>
-48.7582

>  <SCORE.INTER>
-31.5907

>  <SCORE.INTER.CONST>
1

>  <SCORE.INTER.POLAR>
0

>  <SCORE.INTER.ROT>
6

>  <SCORE.INTER.SOLV>
10.6972

>  <SCORE.INTER.VDW>
-32.2262

>  <SCORE.INTER.norm>
-1.08933

>  <SCORE.INTRA>
-17.1675

>  <SCORE.INTRA.DIHEDRAL>
-4.3656

>  <SCORE.INTRA.DIHEDRAL.0>
6.83446

>  <SCORE.INTRA.POLAR>
0

>  <SCORE.INTRA.POLAR.0>
0

>  <SCORE.INTRA.REPUL>
0

>  <SCORE.INTRA.REPUL.0>
0

>  <SCORE.INTRA.SOLV>
0.212112

>  <SCORE.INTRA.SOLV.lig_0>
-26.4601

>  <SCORE.INTRA.VDW>
-15.0908

>  <SCORE.INTRA.VDW.0>
13.7853

>  <SCORE.INTRA.norm>
-0.591984

>  <SCORE.RESTR>
0

>  <SCORE.RESTR.CAVITY>
0

>  <SCORE.RESTR.norm>
0

>  <SCORE.SYSTEM>
0

>  <SCORE.SYSTEM.CONST>
0

>  <SCORE.SYSTEM.DIHEDRAL>
0

>  <SCORE.SYSTEM.SOLV>
0

>  <SCORE.SYSTEM.norm>
0

>  <SCORE.heavy>
29

>  <SCORE.norm>
-1.68132

>  <RMSD>
1.546

$$$$
ligand
 OpenBabel11021811473D
libRbt.so/2013.1/901 2013/11/27
 29 31  0  0  0  0  0  0  0  0999 V2000
   26.0660   40.2127   17.9826 C   0  0  0  0  0  0  0  0  0  0  0  0
   26.8321   41.1778   18.7110 O   0  0  0  0  0  0  0  0  0  0  0  0
   26.9297   39.6115   16.8823 C   0  0  1  0  0  0  0  0  0  0  0  0
   27.4884   40.6726   16.1139 O   0  0  0  0  0  0  0  0  0  0  0  0
   28.0361   38.7517   17.4798 C   0  0  1  0  0  0  0  0  0  0  0  0
   28.8712   39.6132   18.2448 O   0  0  0  0  0  0  0  0  0  0  0  0
   27.5528   37.5847   18.3459 C   0  0  1  0  0  0  0  0  0  0  0  0
   26.7227   36.7416   17.5461 O   0  0  0  0  0  0  0  0  0  0  0  0
   28.6892   36.7348   18.9108 C   0  0  0  0  0  0  0  0  0  0  0  0
   28.5032   33.9808   18.3177 N   0  0  0  0  0  0  0  0  0  0  0  0
   28.4319   32.6571   17.9998 C   0  0  0  0  0  0  0  0  0  0  0  0
   28.7955   32.2549   16.8664 O   0  0  0  0  0  0  0  0  0  0  0  0
   27.9622   31.7592   18.9025 N   0  0  0  0  0  0  0  0  0  0  0  0
   27.5561   32.1575   20.1343 C   0  0  0  0  0  0  0  0  0  0  0  0
   27.6243   33.5041   20.4729 C   0  0  1  0  0  0  0  0  0  0  0  0
   27.1202   31.3230   20.9656 O   0  0  0  0  0  0  0  0  0  0  0  0
   27.2956   35.2166   22.0269 C   0  0  1  0  0  0  0  0  0  0  0  0
   27.2273   33.9101   21.6985 N   0  0  0  0  0  0  0  0  0  0  0  0
   26.8843   35.6258   23.2906 C   0  0  0  0  0  0  0  0  0  0  0  0
   26.9450   36.9651   23.6597 C   0  0  2  0  0  0  0  0  0  0  0  0
   26.4820   37.3391   25.0443 C   0  0  0  0  0  0  0  0  0  0  0  0
   27.4262   37.9150   22.7497 C   0  0  2  0  0  0  0  0  0  0  0  0
   27.5146   39.2477   23.0416 N   0  0  0  0  0  0  0  0  0  0  0  0
   27.8355   37.4881   21.4806 C   0  0  0  0  0  0  0  0  0  0  0  0
   27.7752   36.1463   21.1057 C   0  0  2  0  0  0  0  0  0  0  0  0
   28.1095   34.4302   19.5443 C   0  0  2  0  0  0  0  0  0  0  0  0
   28.1702   35.7457   19.8755 N   0  0  0  0  0  0  0  0  0  0  0  0
   26.5752   40.1784   22.4450 C   0  0  0  0  0  0  0  0  0  0  0  0
   28.5208   39.7878   23.9410 C   0  0  0  0  0  0  0  0  0  0  0  0
  1  2  1  0  0  0  0
  3  1  1  1  0  0  0
  3  4  1  0  0  0  0
  3  5  1  0  0  0  0
  5  6  1  1  0  0  0
  5  7  1  0  0  0  0
  7  8  1  6  0  0  0
  7  9  1  0  0  0  0
  9 27  1  0  0  0  0
 10 11  1  0  0  0  0
 11 12  2  0  0  0  0
 11 13  1  0  0  0  0
 13 14  1  0  0  0  0
 14 16  2  0  0  0  0
 15 14  1  1  0  0  0
 15 18  1  0  0  0  0
 15 26  1  0  0  0  0
 17 19  1  1  0  0  0
 17 25  1  0  0  0  0
 17 18  1  0  0  0  0
 19 20  1  0  0  0  0
 20 21  1  6  0  0  0
 20 22  1  0  0  0  0
 22 23  1  6  0  0  0
 22 24  1  0  0  0  0
 23 28  1  0  0  0  0
 23 29  1  0  0  0  0
 25 24  1  6  0  0  0
 25 27  1  0  0  0  0
 26 10  1  6  0  0  0
 26 27  1  0  0  0  0
M  END
>  <CHROM.1>
-52.64698446,-63.53917812,59.02572136,172.39197264,-106.74426563,-74.12985933
27.58317844,36.59107626,20.06007254,-2.30429396,-1.45266622,2.44380266

>  <Name>
ligand

>  <RI>
0

>  <Rbt.Current_Directory>
/home/itssahil/PROJECTS/Mol_Feturizer/New_Systems/rnas/3F4H

>  <Rbt.Executable>
rbdock ($Id: //depot/dev/client3/rdock/2013.1/src/exe/rbdock.cxx#4 $)

>  <Rbt.Library>
libRbt.so (2013.1, Build901 2013/11/27)

>  <Rbt.Parameter_File>
/export/apps/rDock/src/rDock_2013.1_src/data/scripts/dock_solv.prm

>  <Rbt.Receptor>
prm/pocket_docking_3.prm

>  <SCORE>
-48.8067

>  <SCORE.INTER>
-31.6394

>  <SCORE.INTER.CONST>
1

>  <SCORE.INTER.POLAR>
0

>  <SCORE.INTER.ROT>
6

>  <SCORE.INTER.SOLV>
11.0748

>  <SCORE.INTER.VDW>
-32.3845

>  <SCORE.INTER.norm>
-1.09101

>  <SCORE.INTRA>
-17.1673

>  <SCORE.INTRA.DIHEDRAL>
-4.33737

>  <SCORE.INTRA.DIHEDRAL.0>
6.83446

>  <SCORE.INTRA.POLAR>
0

>  <SCORE.INTRA.POLAR.0>
0

>  <SCORE.INTRA.REPUL>
0

>  <SCORE.INTRA.REPUL.0>
0

>  <SCORE.INTRA.SOLV>
0.214017

>  <SCORE.INTRA.SOLV.lig_0>
-26.4601

>  <SCORE.INTRA.VDW>
-15.1057

>  <SCORE.INTRA.VDW.0>
13.7853

>  <SCORE.INTRA.norm>
-0.591977

>  <SCORE.RESTR>
0

>  <SCORE.RESTR.CAVITY>
0

>  <SCORE.RESTR.norm>
0

>  <SCORE.SYSTEM>
0

>  <SCORE.SYSTEM.CONST>
0

>  <SCORE.SYSTEM.DIHEDRAL>
0

>  <SCORE.SYSTEM.SOLV>
0

>  <SCORE.SYSTEM.norm>
0

>  <SCORE.heavy>
29

>  <SCORE.norm>
-1.68299

>  <RMSD>
1.553

$$$$
ligand
 OpenBabel11021811473D
libRbt.so/2013.1/901 2013/11/27
 29 31  0  0  0  0  0  0  0  0999 V2000
   27.7694   39.4889   15.8319 C   0  0  0  0  0  0  0  0  0  0  0  0
   27.1891   38.2195   15.5146 O   0  0  0  0  0  0  0  0  0  0  0  0
   28.8624   39.2960   16.8742 C   0  0  1  0  0  0  0  0  0  0  0  0
   29.8613   40.2909   16.6729 O   0  0  0  0  0  0  0  0  0  0  0  0
   28.2860   39.4021   18.2802 C   0  0  1  0  0  0  0  0  0  0  0  0
   27.3123   40.4395   18.2583 O   0  0  0  0  0  0  0  0  0  0  0  0
   27.6657   38.1119   18.8246 C   0  0  1  0  0  0  0  0  0  0  0  0
   26.6965   37.6449   17.8854 O   0  0  0  0  0  0  0  0  0  0  0  0
   28.6835   36.9960   19.0516 C   0  0  0  0  0  0  0  0  0  0  0  0
   28.4845   34.2635   18.3698 N   0  0  0  0  0  0  0  0  0  0  0  0
   28.4074   32.9511   18.0095 C   0  0  0  0  0  0  0  0  0  0  0  0
   28.7814   32.5820   16.8683 O   0  0  0  0  0  0  0  0  0  0  0  0
   27.9206   32.0288   18.8780 N   0  0  0  0  0  0  0  0  0  0  0  0
   27.5029   32.3913   20.1169 C   0  0  0  0  0  0  0  0  0  0  0  0
   27.5768   33.7260   20.4987 C   0  0  1  0  0  0  0  0  0  0  0  0
   27.0510   31.5345   20.9164 O   0  0  0  0  0  0  0  0  0  0  0  0
   27.2422   35.3912   22.1019 C   0  0  1  0  0  0  0  0  0  0  0  0
   27.1683   34.0963   21.7317 N   0  0  0  0  0  0  0  0  0  0  0  0
   26.8189   35.7637   23.3730 C   0  0  0  0  0  0  0  0  0  0  0  0
   26.8850   37.0902   23.7849 C   0  0  2  0  0  0  0  0  0  0  0  0
   26.4084   37.4240   25.1751 C   0  0  0  0  0  0  0  0  0  0  0  0
   27.3838   38.0646   22.9110 C   0  0  2  0  0  0  0  0  0  0  0  0
   27.4785   39.3867   23.2458 N   0  0  0  0  0  0  0  0  0  0  0  0
   27.8050   37.6746   21.6338 C   0  0  0  0  0  0  0  0  0  0  0  0
   27.7394   36.3458   21.2161 C   0  0  2  0  0  0  0  0  0  0  0  0
   28.0797   34.6772   19.6054 C   0  0  2  0  0  0  0  0  0  0  0  0
   28.1461   35.9811   19.9785 N   0  0  0  0  0  0  0  0  0  0  0  0
   28.5612   39.8364   24.1002 C   0  0  0  0  0  0  0  0  0  0  0  0
   26.5313   40.3839   22.7752 C   0  0  0  0  0  0  0  0  0  0  0  0
  1  2  1  0  0  0  0
  3  1  1  6  0  0  0
  3  4  1  0  0  0  0
  3  5  1  0  0  0  0
  5  6  1  6  0  0  0
  5  7  1  0  0  0  0
  7  8  1  6  0  0  0
  7  9  1  0  0  0  0
  9 27  1  0  0  0  0
 10 11  1  0  0  0  0
 11 12  2  0  0  0  0
 11 13  1  0  0  0  0
 13 14  1  0  0  0  0
 14 16  2  0  0  0  0
 15 14  1  1  0  0  0
 15 18  1  0  0  0  0
 15 26  1  0  0  0  0
 17 19  1  1  0  0  0
 17 25  1  0  0  0  0
 17 18  1  0  0  0  0
 19 20  1  0  0  0  0
 20 21  1  6  0  0  0
 20 22  1  0  0  0  0
 22 23  1  6  0  0  0
 22 24  1  0  0  0  0
 23 28  1  0  0  0  0
 23 29  1  0  0  0  0
 25 24  1  6  0  0  0
 25 27  1  0  0  0  0
 26 10  1  6  0  0  0
 26 27  1  0  0  0  0
M  END
>  <CHROM.1>
149.05808382,-38.70153294,-53.87512086,160.59257758,77.63253235,-57.35810301
27.73806338,36.67123344,19.99725924,-1.54935227,-1.40859031,-3.06805571

>  <Name>
ligand

>  <RI>
0

>  <Rbt.Current_Directory>
/home/itssahil/PROJECTS/Mol_Feturizer/New_Systems/rnas/3F4H

>  <Rbt.Executable>
rbdock ($Id: //depot/dev/client3/rdock/2013.1/src/exe/rbdock.cxx#4 $)

>  <Rbt.Library>
libRbt.so (2013.1, Build901 2013/11/27)

>  <Rbt.Parameter_File>
/export/apps/rDock/src/rDock_2013.1_src/data/scripts/dock_solv.prm

>  <Rbt.Receptor>
prm/pocket_docking_5.prm

>  <SCORE>
-43.6785

>  <SCORE.INTER>
-30.8997

>  <SCORE.INTER.CONST>
1

>  <SCORE.INTER.POLAR>
0

>  <SCORE.INTER.ROT>
6

>  <SCORE.INTER.SOLV>
11.5064

>  <SCORE.INTER.VDW>
-32.0352

>  <SCORE.INTER.norm>
-1.06551

>  <SCORE.INTRA>
-12.7789

>  <SCORE.INTRA.DIHEDRAL>
0.851061

>  <SCORE.INTRA.DIHEDRAL.0>
6.83446

>  <SCORE.INTRA.POLAR>
0

>  <SCORE.INTRA.POLAR.0>
0

>  <SCORE.INTRA.REPUL>
0

>  <SCORE.INTRA.REPUL.0>
0

>  <SCORE.INTRA.SOLV>
0.322705

>  <SCORE.INTRA.SOLV.lig_0>
-26.4601

>  <SCORE.INTRA.VDW>
-13.3658

>  <SCORE.INTRA.VDW.0>
13.7853

>  <SCORE.INTRA.norm>
-0.440651

>  <SCORE.RESTR>
0

>  <SCORE.RESTR.CAVITY>
0

>  <SCORE.RESTR.norm>
0

>  <SCORE.SYSTEM>
0

>  <SCORE.SYSTEM.CONST>
0

>  <SCORE.SYSTEM.DIHEDRAL>
0

>  <SCORE.SYSTEM.SOLV>
0

>  <SCORE.SYSTEM.norm>
0

>  <SCORE.heavy>
29

>  <SCORE.norm>
-1.50616

>  <RMSD>
1.553

$$$$
ligand
 OpenBabel11021811473D
libRbt.so/2013.1/901 2013/11/27
 29 31  0  0  0  0  0  0  0  0999 V2000
   26.7332   40.3413   16.8487 C   0  0  0  0  0  0  0  0  0  0  0  0
   25.8184   41.4208   16.6325 O   0  0  0  0  0  0  0  0  0  0  0  0
   27.2731   40.4165   18.2703 C   0  0  1  0  0  0  0  0  0  0  0  0
   26.1827   40.2834   19.1768 O   0  0  0  0  0  0  0  0  0  0  0  0
   28.2991   39.3169   18.5122 C   0  0  1  0  0  0  0  0  0  0  0  0
   29.0382   39.6794   19.6728 O   0  0  0  0  0  0  0  0  0  0  0  0
   27.7143   37.9114   18.6806 C   0  0  1  0  0  0  0  0  0  0  0  0
   27.0907   37.5312   17.4533 O   0  0  0  0  0  0  0  0  0  0  0  0
   28.7606   36.8548   19.0292 C   0  0  0  0  0  0  0  0  0  0  0  0
   28.5418   34.1152   18.3829 N   0  0  0  0  0  0  0  0  0  0  0  0
   28.4554   32.7988   18.0398 C   0  0  0  0  0  0  0  0  0  0  0  0
   28.8379   32.4102   16.9079 O   0  0  0  0  0  0  0  0  0  0  0  0
   27.9502   31.8934   18.9155 N   0  0  0  0  0  0  0  0  0  0  0  0
   27.5229   32.2770   20.1448 C   0  0  0  0  0  0  0  0  0  0  0  0
   27.6061   33.6161   20.5090 C   0  0  1  0  0  0  0  0  0  0  0  0
   27.0541   31.4358   20.9510 O   0  0  0  0  0  0  0  0  0  0  0  0
   27.2710   35.3065   22.0855 C   0  0  1  0  0  0  0  0  0  0  0  0
   27.1881   34.0074   21.7324 N   0  0  0  0  0  0  0  0  0  0  0  0
   26.8379   35.7007   23.3467 C   0  0  0  0  0  0  0  0  0  0  0  0
   26.9128   37.0320   23.7410 C   0  0  2  0  0  0  0  0  0  0  0  0
   26.4247   37.3897   25.1213 C   0  0  0  0  0  0  0  0  0  0  0  0
   27.4305   37.9893   22.8593 C   0  0  2  0  0  0  0  0  0  0  0  0
   27.5348   39.3149   23.1769 N   0  0  0  0  0  0  0  0  0  0  0  0
   27.8614   37.5776   21.5922 C   0  0  0  0  0  0  0  0  0  0  0  0
   27.7870   36.2438   21.1921 C   0  0  2  0  0  0  0  0  0  0  0  0
   28.1278   34.5499   19.6082 C   0  0  2  0  0  0  0  0  0  0  0  0
   28.2032   35.8581   19.9641 N   0  0  0  0  0  0  0  0  0  0  0  0
   26.5985   40.2663   22.6087 C   0  0  0  0  0  0  0  0  0  0  0  0
   28.5551   39.8272   24.0766 C   0  0  0  0  0  0  0  0  0  0  0  0
  1  2  1  0  0  0  0
  3  1  1  6  0  0  0
  3  4  1  0  0  0  0
  3  5  1  0  0  0  0
  5  6  1  1  0  0  0
  5  7  1  0  0  0  0
  7  8  1  6  0  0  0
  7  9  1  0  0  0  0
  9 27  1  0  0  0  0
 10 11  1  0  0  0  0
 11 12  2  0  0  0  0
 11 13  1  0  0  0  0
 13 14  1  0  0  0  0
 14 16  2  0  0  0  0
 15 14  1  1  0  0  0
 15 18  1  0  0  0  0
 15 26  1  0  0  0  0
 17 19  1  1  0  0  0
 17 25  1  0  0  0  0
 17 18  1  0  0  0  0
 19 20  1  0  0  0  0
 20 21  1  6  0  0  0
 20 22  1  0  0  0  0
 22 23  1  6  0  0  0
 22 24  1  0  0  0  0
 23 28  1  0  0  0  0
 23 29  1  0  0  0  0
 25 24  1  6  0  0  0
 25 27  1  0  0  0  0
 26 10  1  6  0  0  0
 26 27  1  0  0  0  0
M  END
>  <CHROM.1>
61.43591100,162.82101102,64.34674115,143.85124186,-104.81328079,-62.30723913
27.56097753,36.75017387,20.25434685,-2.69189242,-1.45560424,2.10157142

>  <Name>
ligand

>  <RI>
0

>  <Rbt.Current_Directory>
/home/itssahil/PROJECTS/Mol_Feturizer/New_Systems/rnas/3F4H

>  <Rbt.Executable>
rbdock ($Id: //depot/dev/client3/rdock/2013.1/src/exe/rbdock.cxx#4 $)

>  <Rbt.Library>
libRbt.so (2013.1, Build901 2013/11/27)

>  <Rbt.Parameter_File>
/export/apps/rDock/src/rDock_2013.1_src/data/scripts/dock_solv.prm

>  <Rbt.Receptor>
prm/pocket_docking_4.prm

>  <SCORE>
-46.6001

>  <SCORE.INTER>
-30.7714

>  <SCORE.INTER.CONST>
1

>  <SCORE.INTER.POLAR>
0

>  <SCORE.INTER.ROT>
6

>  <SCORE.INTER.SOLV>
11.0324

>  <SCORE.INTER.VDW>
-31.7918

>  <SCORE.INTER.norm>
-1.06108

>  <SCORE.INTRA>
-15.8287

>  <SCORE.INTRA.DIHEDRAL>
-0.247279

>  <SCORE.INTRA.DIHEDRAL.0>
6.83446

>  <SCORE.INTRA.POLAR>
0

>  <SCORE.INTRA.POLAR.0>
0

>  <SCORE.INTRA.REPUL>
0

>  <SCORE.INTRA.REPUL.0>
0

>  <SCORE.INTRA.SOLV>
0.191707

>  <SCORE.INTRA.SOLV.lig_0>
-26.4601

>  <SCORE.INTRA.VDW>
-15.8009

>  <SCORE.INTRA.VDW.0>
13.7853

>  <SCORE.INTRA.norm>
-0.545817

>  <SCORE.RESTR>
0

>  <SCORE.RESTR.CAVITY>
0

>  <SCORE.RESTR.norm>
0

>  <SCORE.SYSTEM>
0

>  <SCORE.SYSTEM.CONST>
0

>  <SCORE.SYSTEM.DIHEDRAL>
0

>  <SCORE.SYSTEM.SOLV>
0

>  <SCORE.SYSTEM.norm>
0

>  <SCORE.heavy>
29

>  <SCORE.norm>
-1.6069

>  <RMSD>
1.565

$$$$
ligand
 OpenBabel11021811473D
libRbt.so/2013.1/901 2013/11/27
 29 31  0  0  0  0  0  0  0  0999 V2000
   26.6246   40.3751   16.9966 C   0  0  0  0  0  0  0  0  0  0  0  0
   25.7496   41.5008   16.8689 O   0  0  0  0  0  0  0  0  0  0  0  0
   27.3428   40.4458   18.3373 C   0  0  1  0  0  0  0  0  0  0  0  0
   26.3714   40.3729   19.3762 O   0  0  0  0  0  0  0  0  0  0  0  0
   28.3444   39.3057   18.4688 C   0  0  1  0  0  0  0  0  0  0  0  0
   29.2246   39.6404   19.5355 O   0  0  0  0  0  0  0  0  0  0  0  0
   27.7262   37.9258   18.7121 C   0  0  1  0  0  0  0  0  0  0  0  0
   27.0206   37.5324   17.5344 O   0  0  0  0  0  0  0  0  0  0  0  0
   28.7571   36.8451   19.0316 C   0  0  0  0  0  0  0  0  0  0  0  0
   28.5363   34.1055   18.3855 N   0  0  0  0  0  0  0  0  0  0  0  0
   28.4491   32.7891   18.0427 C   0  0  0  0  0  0  0  0  0  0  0  0
   28.8341   32.3997   16.9119 O   0  0  0  0  0  0  0  0  0  0  0  0
   27.9404   31.8847   18.9173 N   0  0  0  0  0  0  0  0  0  0  0  0
   27.5103   32.2693   20.1453 C   0  0  0  0  0  0  0  0  0  0  0  0
   27.5943   33.6084   20.5093 C   0  0  1  0  0  0  0  0  0  0  0  0
   27.0382   31.4290   20.9506 O   0  0  0  0  0  0  0  0  0  0  0  0
   27.2572   35.2998   22.0845 C   0  0  1  0  0  0  0  0  0  0  0  0
   27.1736   34.0007   21.7315 N   0  0  0  0  0  0  0  0  0  0  0  0
   26.8214   35.6949   23.3444 C   0  0  0  0  0  0  0  0  0  0  0  0
   26.8970   37.0262   23.7385 C   0  0  2  0  0  0  0  0  0  0  0  0
   26.4057   37.3850   25.1174 C   0  0  0  0  0  0  0  0  0  0  0  0
   27.4183   37.9825   22.8578 C   0  0  2  0  0  0  0  0  0  0  0  0
   27.5235   39.3081   23.1753 N   0  0  0  0  0  0  0  0  0  0  0  0
   27.8520   37.5699   21.5920 C   0  0  0  0  0  0  0  0  0  0  0  0
   27.7770   36.2360   21.1921 C   0  0  2  0  0  0  0  0  0  0  0  0
   28.1197   34.5411   19.6097 C   0  0  2  0  0  0  0  0  0  0  0  0
   28.1959   35.8494   19.9654 N   0  0  0  0  0  0  0  0  0  0  0  0
   28.6149   39.7617   24.0165 C   0  0  0  0  0  0  0  0  0  0  0  0
   26.5792   40.3052   22.6988 C   0  0  0  0  0  0  0  0  0  0  0  0
  1  2  1  0  0  0  0
  3  1  1  6  0  0  0
  3  4  1  0  0  0  0
  3  5  1  0  0  0  0
  5  6  1  1  0  0  0
  5  7  1  0  0  0  0
  7  8  1  6  0  0  0
  7  9  1  0  0  0  0
  9 27  1  0  0  0  0
 10 11  1  0  0  0  0
 11 12  2  0  0  0  0
 11 13  1  0  0  0  0
 13 14  1  0  0  0  0
 14 16  2  0  0  0  0
 15 14  1  1  0  0  0
 15 18  1  0  0  0  0
 15 26  1  0  0  0  0
 17 19  1  1  0  0  0
 17 25  1  0  0  0  0
 17 18  1  0  0  0  0
 19 20  1  0  0  0  0
 20 21  1  6  0  0  0
 20 22  1  0  0  0  0
 22 23  1  6  0  0  0
 22 24  1  0  0  0  0
 23 28  1  0  0  0  0
 23 29  1  0  0  0  0
 25 24  1  6  0  0  0
 25 27  1  0  0  0  0
 26 10  1  6  0  0  0
 26 27  1  0  0  0  0
M  END
>  <CHROM.1>
62.24280718,163.82538207,67.87999648,147.18455352,78.83600351,-60.63906689
27.56546411,36.75183615,20.27785739,-2.61336765,-1.45425307,2.19306502

>  <Name>
ligand

>  <RI>
0

>  <Rbt.Current_Directory>
/home/itssahil/PROJECTS/Mol_Feturizer/New_Systems/rnas/3F4H

>  <Rbt.Executable>
rbdock ($Id: //depot/dev/client3/rdock/2013.1/src/exe/rbdock.cxx#4 $)

>  <Rbt.Library>
libRbt.so (2013.1, Build901 2013/11/27)

>  <Rbt.Parameter_File>
/export/apps/rDock/src/rDock_2013.1_src/data/scripts/dock_solv.prm

>  <Rbt.Receptor>
prm/blind_docking_60.prm

>  <SCORE>
-46.5575

>  <SCORE.INTER>
-30.4756

>  <SCORE.INTER.CONST>
1

>  <SCORE.INTER.POLAR>
0

>  <SCORE.INTER.ROT>
6

>  <SCORE.INTER.SOLV>
10.8815

>  <SCORE.INTER.VDW>
-31.5442

>  <SCORE.INTER.norm>
-1.05088

>  <SCORE.INTRA>
-16.082

>  <SCORE.INTRA.DIHEDRAL>
-0.64101

>  <SCORE.INTRA.DIHEDRAL.0>
6.83446

>  <SCORE.INTRA.POLAR>
0

>  <SCORE.INTRA.POLAR.0>
0

>  <SCORE.INTRA.REPUL>
0

>  <SCORE.INTRA.REPUL.0>
0

>  <SCORE.INTRA.SOLV>
0.119275

>  <SCORE.INTRA.SOLV.lig_0>
-26.4601

>  <SCORE.INTRA.VDW>
-15.8211

>  <SCORE.INTRA.VDW.0>
13.7853

>  <SCORE.INTRA.norm>
-0.55455

>  <SCORE.RESTR>
0

>  <SCORE.RESTR.CAVITY>
0

>  <SCORE.RESTR.norm>
0

>  <SCORE.SYSTEM>
0

>  <SCORE.SYSTEM.CONST>
0

>  <SCORE.SYSTEM.DIHEDRAL>
0

>  <SCORE.SYSTEM.SOLV>
0

>  <SCORE.SYSTEM.norm>
0

>  <SCORE.heavy>
29

>  <SCORE.norm>
-1.60543

>  <RMSD>
1.571

$$$$
ligand
 OpenBabel11021811473D
libRbt.so/2013.1/901 2013/11/27
 29 31  0  0  0  0  0  0  0  0999 V2000
   26.1740   40.3777   17.4555 C   0  0  0  0  0  0  0  0  0  0  0  0
   25.3462   39.6815   18.3931 O   0  0  0  0  0  0  0  0  0  0  0  0
   27.5861   40.4857   18.0144 C   0  0  1  0  0  0  0  0  0  0  0  0
   27.5028   40.8475   19.3894 O   0  0  0  0  0  0  0  0  0  0  0  0
   28.3258   39.1631   17.8595 C   0  0  1  0  0  0  0  0  0  0  0  0
   29.6852   39.3984   18.2077 O   0  0  0  0  0  0  0  0  0  0  0  0
   27.7641   38.0060   18.6908 C   0  0  1  0  0  0  0  0  0  0  0  0
   26.7148   37.3835   17.9485 O   0  0  0  0  0  0  0  0  0  0  0  0
   28.8037   36.9395   19.0296 C   0  0  0  0  0  0  0  0  0  0  0  0
   28.5732   34.2077   18.3547 N   0  0  0  0  0  0  0  0  0  0  0  0
   28.4815   32.8954   17.9980 C   0  0  0  0  0  0  0  0  0  0  0  0
   28.8650   32.5165   16.8631 O   0  0  0  0  0  0  0  0  0  0  0  0
   27.9695   31.9835   18.8630 N   0  0  0  0  0  0  0  0  0  0  0  0
   27.5408   32.3567   20.0950 C   0  0  0  0  0  0  0  0  0  0  0  0
   27.6295   33.6915   20.4731 C   0  0  1  0  0  0  0  0  0  0  0  0
   27.0657   31.5096   20.8914 O   0  0  0  0  0  0  0  0  0  0  0  0
   27.2983   35.3674   22.0660 C   0  0  1  0  0  0  0  0  0  0  0  0
   27.2102   34.0724   21.6994 N   0  0  0  0  0  0  0  0  0  0  0  0
   26.8638   35.7507   23.3301 C   0  0  0  0  0  0  0  0  0  0  0  0
   26.9441   37.0776   23.7382 C   0  0  2  0  0  0  0  0  0  0  0  0
   26.4541   37.4235   25.1208 C   0  0  0  0  0  0  0  0  0  0  0  0
   27.4689   38.0413   22.8676 C   0  0  2  0  0  0  0  0  0  0  0  0
   27.5787   39.3631   23.1991 N   0  0  0  0  0  0  0  0  0  0  0  0
   27.9011   37.6405   21.5975 C   0  0  0  0  0  0  0  0  0  0  0  0
   27.8214   36.3112   21.1836 C   0  0  2  0  0  0  0  0  0  0  0  0
   28.1582   34.6319   19.5834 C   0  0  2  0  0  0  0  0  0  0  0  0
   28.2390   35.9360   19.9528 N   0  0  0  0  0  0  0  0  0  0  0  0
   26.6396   40.3226   22.6497 C   0  0  0  0  0  0  0  0  0  0  0  0
   28.6079   39.8632   24.0954 C   0  0  0  0  0  0  0  0  0  0  0  0
  1  2  1  0  0  0  0
  3  1  1  1  0  0  0
  3  4  1  0  0  0  0
  3  5  1  0  0  0  0
  5  6  1  1  0  0  0
  5  7  1  0  0  0  0
  7  8  1  6  0  0  0
  7  9  1  0  0  0  0
  9 27  1  0  0  0  0
 10 11  1  0  0  0  0
 11 12  2  0  0  0  0
 11 13  1  0  0  0  0
 13 14  1  0  0  0  0
 14 16  2  0  0  0  0
 15 14  1  1  0  0  0
 15 18  1  0  0  0  0
 15 26  1  0  0  0  0
 17 19  1  1  0  0  0
 17 25  1  0  0  0  0
 17 18  1  0  0  0  0
 19 20  1  0  0  0  0
 20 21  1  6  0  0  0
 20 22  1  0  0  0  0
 22 23  1  6  0  0  0
 22 24  1  0  0  0  0
 23 28  1  0  0  0  0
 23 29  1  0  0  0  0
 25 24  1  6  0  0  0
 25 27  1  0  0  0  0
 26 10  1  6  0  0  0
 26 27  1  0  0  0  0
M  END
>  <CHROM.1>
-43.62372051,171.17585883,86.04440968,173.68260508,-104.13843258,-62.21758132
27.62093625,36.73575467,20.27548264,-2.30533913,-1.43853660,2.62313598

>  <Name>
ligand

>  <RI>
0

>  <Rbt.Current_Directory>
/home/itssahil/PROJECTS/Mol_Feturizer/New_Systems/rnas/3F4H

>  <Rbt.Executable>
rbdock ($Id: //depot/dev/client3/rdock/2013.1/src/exe/rbdock.cxx#4 $)

>  <Rbt.Library>
libRbt.so (2013.1, Build901 2013/11/27)

>  <Rbt.Parameter_File>
/export/apps/rDock/src/rDock_2013.1_src/data/scripts/dock_solv.prm

>  <Rbt.Receptor>
prm/pocket_docking_6.prm

>  <SCORE>
-45.4562

>  <SCORE.INTER>
-30.0756

>  <SCORE.INTER.CONST>
1

>  <SCORE.INTER.POLAR>
0

>  <SCORE.INTER.ROT>
6

>  <SCORE.INTER.SOLV>
11.1194

>  <SCORE.INTER.VDW>
-31.3569

>  <SCORE.INTER.norm>
-1.03709

>  <SCORE.INTRA>
-15.3805

>  <SCORE.INTRA.DIHEDRAL>
-1.34886

>  <SCORE.INTRA.DIHEDRAL.0>
6.83446

>  <SCORE.INTRA.POLAR>
0

>  <SCORE.INTRA.POLAR.0>
0

>  <SCORE.INTRA.REPUL>
0

>  <SCORE.INTRA.REPUL.0>
0

>  <SCORE.INTRA.SOLV>
0.686239

>  <SCORE.INTRA.SOLV.lig_0>
-26.4601

>  <SCORE.INTRA.VDW>
-15.0492

>  <SCORE.INTRA.VDW.0>
13.7853

>  <SCORE.INTRA.norm>
-0.530363

>  <SCORE.RESTR>
0

>  <SCORE.RESTR.CAVITY>
0

>  <SCORE.RESTR.norm>
0

>  <SCORE.SYSTEM>
0

>  <SCORE.SYSTEM.CONST>
0

>  <SCORE.SYSTEM.DIHEDRAL>
0

>  <SCORE.SYSTEM.SOLV>
0

>  <SCORE.SYSTEM.norm>
0

>  <SCORE.heavy>
29

>  <SCORE.norm>
-1.56745

>  <RMSD>
1.571

$$$$
ligand
 OpenBabel11021811473D
libRbt.so/2013.1/901 2013/11/27
 29 31  0  0  0  0  0  0  0  0999 V2000
   25.9614   40.2509   18.1670 C   0  0  0  0  0  0  0  0  0  0  0  0
   26.7360   41.1388   18.9798 O   0  0  0  0  0  0  0  0  0  0  0  0
   26.8211   39.7416   17.0182 C   0  0  1  0  0  0  0  0  0  0  0  0
   27.3506   40.8624   16.3169 O   0  0  0  0  0  0  0  0  0  0  0  0
   27.9505   38.8642   17.5428 C   0  0  1  0  0  0  0  0  0  0  0  0
   28.8031   39.6968   18.3203 O   0  0  0  0  0  0  0  0  0  0  0  0
   27.5009   37.6561   18.3697 C   0  0  1  0  0  0  0  0  0  0  0  0
   26.6982   36.8144   17.5409 O   0  0  0  0  0  0  0  0  0  0  0  0
   28.6613   36.8231   18.9105 C   0  0  0  0  0  0  0  0  0  0  0  0
   28.5285   34.0705   18.2969 N   0  0  0  0  0  0  0  0  0  0  0  0
   28.4824   32.7482   17.9690 C   0  0  0  0  0  0  0  0  0  0  0  0
   28.8414   32.3631   16.8282 O   0  0  0  0  0  0  0  0  0  0  0  0
   28.0428   31.8330   18.8695 N   0  0  0  0  0  0  0  0  0  0  0  0
   27.6424   32.2125   20.1091 C   0  0  0  0  0  0  0  0  0  0  0  0
   27.6852   33.5575   20.4581 C   0  0  1  0  0  0  0  0  0  0  0  0
   27.2344   31.3621   20.9385 O   0  0  0  0  0  0  0  0  0  0  0  0
   27.3373   35.2500   22.0297 C   0  0  1  0  0  0  0  0  0  0  0  0
   27.2937   33.9450   21.6914 N   0  0  0  0  0  0  0  0  0  0  0  0
   26.9318   35.6400   23.3013 C   0  0  0  0  0  0  0  0  0  0  0  0
   26.9676   36.9773   23.6807 C   0  0  2  0  0  0  0  0  0  0  0  0
   26.5126   37.3301   25.0735 C   0  0  0  0  0  0  0  0  0  0  0  0
   27.4174   37.9448   22.7732 C   0  0  2  0  0  0  0  0  0  0  0  0
   27.4802   39.2767   23.0750 N   0  0  0  0  0  0  0  0  0  0  0  0
   27.8212   37.5370   21.4960 C   0  0  0  0  0  0  0  0  0  0  0  0
   27.7858   36.1972   21.1108 C   0  0  2  0  0  0  0  0  0  0  0  0
   28.1393   34.5015   19.5317 C   0  0  2  0  0  0  0  0  0  0  0  0
   28.1752   35.8153   19.8729 N   0  0  0  0  0  0  0  0  0  0  0  0
   28.5366   39.7693   23.9387 C   0  0  0  0  0  0  0  0  0  0  0  0
   26.5240   40.2428   22.5599 C   0  0  0  0  0  0  0  0  0  0  0  0
  1  2  1  0  0  0  0
  3  1  1  1  0  0  0
  3  4  1  0  0  0  0
  3  5  1  0  0  0  0
  5  6  1  1  0  0  0
  5  7  1  0  0  0  0
  7  8  1  6  0  0  0
  7  9  1  0  0  0  0
  9 27  1  0  0  0  0
 10 11  1  0  0  0  0
 11 12  2  0  0  0  0
 11 13  1  0  0  0  0
 13 14  1  0  0  0  0
 14 16  2  0  0  0  0
 15 14  1  1  0  0  0
 15 18  1  0  0  0  0
 15 26  1  0  0  0  0
 17 19  1  1  0  0  0
 17 25  1  0  0  0  0
 17 18  1  0  0  0  0
 19 20  1  0  0  0  0
 20 21  1  6  0  0  0
 20 22  1  0  0  0  0
 22 23  1  6  0  0  0
 22 24  1  0  0  0  0
 23 28  1  0  0  0  0
 23 29  1  0  0  0  0
 25 24  1  6  0  0  0
 25 27  1  0  0  0  0
 26 10  1  6  0  0  0
 26 27  1  0  0  0  0
M  END
>  <CHROM.1>
-54.87727704,-65.31808714,61.44538766,170.67027684,75.10259649,-73.90892436
27.57849619,36.64976019,20.09714101,-2.48601738,-1.44505155,2.29553243

>  <Name>
ligand

>  <RI>
0

>  <Rbt.Current_Directory>
/home/itssahil/PROJECTS/Mol_Feturizer/New_Systems/rnas/3F4H

>  <Rbt.Executable>
rbdock ($Id: //depot/dev/client3/rdock/2013.1/src/exe/rbdock.cxx#4 $)

>  <Rbt.Library>
libRbt.so (2013.1, Build901 2013/11/27)

>  <Rbt.Parameter_File>
/export/apps/rDock/src/rDock_2013.1_src/data/scripts/dock_solv.prm

>  <Rbt.Receptor>
prm/pocket_docking_5.prm

>  <SCORE>
-48.8196

>  <SCORE.INTER>
-31.5878

>  <SCORE.INTER.CONST>
1

>  <SCORE.INTER.POLAR>
0

>  <SCORE.INTER.ROT>
6

>  <SCORE.INTER.SOLV>
10.7608

>  <SCORE.INTER.VDW>
-32.2454

>  <SCORE.INTER.norm>
-1.08923

>  <SCORE.INTRA>
-17.2318

>  <SCORE.INTRA.DIHEDRAL>
-4.2742

>  <SCORE.INTRA.DIHEDRAL.0>
6.83446

>  <SCORE.INTRA.POLAR>
0

>  <SCORE.INTRA.POLAR.0>
0

>  <SCORE.INTRA.REPUL>
0

>  <SCORE.INTRA.REPUL.0>
0

>  <SCORE.INTRA.SOLV>
0.240834

>  <SCORE.INTRA.SOLV.lig_0>
-26.4601

>  <SCORE.INTRA.VDW>
-15.2151

>  <SCORE.INTRA.VDW.0>
13.7853

>  <SCORE.INTRA.norm>
-0.5942

>  <SCORE.RESTR>
0

>  <SCORE.RESTR.CAVITY>
0

>  <SCORE.RESTR.norm>
0

>  <SCORE.SYSTEM>
0

>  <SCORE.SYSTEM.CONST>
0

>  <SCORE.SYSTEM.DIHEDRAL>
0

>  <SCORE.SYSTEM.SOLV>
0

>  <SCORE.SYSTEM.norm>
0

>  <SCORE.heavy>
29

>  <SCORE.norm>
-1.68343

>  <RMSD>
1.583

$$$$
ligand
 OpenBabel11021811473D
libRbt.so/2013.1/901 2013/11/27
 29 31  0  0  0  0  0  0  0  0999 V2000
   26.1446   40.2928   17.9222 C   0  0  0  0  0  0  0  0  0  0  0  0
   25.0245   40.9533   17.3238 O   0  0  0  0  0  0  0  0  0  0  0  0
   26.9623   39.6061   16.8368 C   0  0  1  0  0  0  0  0  0  0  0  0
   27.5210   40.6054   15.9896 O   0  0  0  0  0  0  0  0  0  0  0  0
   28.0670   38.7584   17.4545 C   0  0  1  0  0  0  0  0  0  0  0  0
   28.9024   39.6355   18.2011 O   0  0  0  0  0  0  0  0  0  0  0  0
   27.5812   37.6115   18.3458 C   0  0  1  0  0  0  0  0  0  0  0  0
   26.7273   36.7680   17.5719 O   0  0  0  0  0  0  0  0  0  0  0  0
   28.7145   36.7545   18.9061 C   0  0  0  0  0  0  0  0  0  0  0  0
   28.5229   34.0037   18.2997 N   0  0  0  0  0  0  0  0  0  0  0  0
   28.4490   32.6818   17.9754 C   0  0  0  0  0  0  0  0  0  0  0  0
   28.8132   32.2841   16.8407 O   0  0  0  0  0  0  0  0  0  0  0  0
   27.9759   31.7807   18.8732 N   0  0  0  0  0  0  0  0  0  0  0  0
   27.5690   32.1741   20.1063 C   0  0  0  0  0  0  0  0  0  0  0  0
   27.6399   33.5189   20.4515 C   0  0  1  0  0  0  0  0  0  0  0  0
   27.1300   31.3367   20.9331 O   0  0  0  0  0  0  0  0  0  0  0  0
   27.3130   35.2248   22.0131 C   0  0  1  0  0  0  0  0  0  0  0  0
   27.2421   33.9201   21.6784 N   0  0  0  0  0  0  0  0  0  0  0  0
   26.9008   35.6290   23.2781 C   0  0  0  0  0  0  0  0  0  0  0  0
   26.9642   36.9663   23.6537 C   0  0  2  0  0  0  0  0  0  0  0  0
   26.5001   37.3349   25.0394 C   0  0  0  0  0  0  0  0  0  0  0  0
   27.4488   37.9195   22.7489 C   0  0  2  0  0  0  0  0  0  0  0  0
   27.5400   39.2506   23.0473 N   0  0  0  0  0  0  0  0  0  0  0  0
   27.8589   37.4976   21.4783 C   0  0  0  0  0  0  0  0  0  0  0  0
   27.7960   36.1577   21.0970 C   0  0  2  0  0  0  0  0  0  0  0  0
   28.1285   34.4483   19.5280 C   0  0  2  0  0  0  0  0  0  0  0  0
   28.1919   35.7621   19.8654 N   0  0  0  0  0  0  0  0  0  0  0  0
   26.6114   40.1878   22.4442 C   0  0  0  0  0  0  0  0  0  0  0  0
   28.5386   39.7824   23.9598 C   0  0  0  0  0  0  0  0  0  0  0  0
  1  2  1  0  0  0  0
  3  1  1  1  0  0  0
  3  4  1  0  0  0  0
  3  5  1  0  0  0  0
  5  6  1  1  0  0  0
  5  7  1  0  0  0  0
  7  8  1  6  0  0  0
  7  9  1  0  0  0  0
  9 27  1  0  0  0  0
 10 11  1  0  0  0  0
 11 12  2  0  0  0  0
 11 13  1  0  0  0  0
 13 14  1  0  0  0  0
 14 16  2  0  0  0  0
 15 14  1  1  0  0  0
 15 18  1  0  0  0  0
 15 26  1  0  0  0  0
 17 19  1  1  0  0  0
 17 25  1  0  0  0  0
 17 18  1  0  0  0  0
 19 20  1  0  0  0  0
 20 21  1  6  0  0  0
 20 22  1  0  0  0  0
 22 23  1  6  0  0  0
 22 24  1  0  0  0  0
 23 28  1  0  0  0  0
 23 29  1  0  0  0  0
 25 24  1  6  0  0  0
 25 27  1  0  0  0  0
 26 10  1  6  0  0  0
 26 27  1  0  0  0  0
M  END
>  <CHROM.1>
65.53606620,-60.48612259,57.77127700,173.98926896,-107.30796526,-74.01972391
27.53272915,36.59343564,19.98562747,-2.66235097,-1.44276366,1.99339036

>  <Name>
ligand

>  <RI>
0

>  <Rbt.Current_Directory>
/home/itssahil/PROJECTS/Mol_Feturizer/New_Systems/rnas/3F4H

>  <Rbt.Executable>
rbdock ($Id: //depot/dev/client3/rdock/2013.1/src/exe/rbdock.cxx#4 $)

>  <Rbt.Library>
libRbt.so (2013.1, Build901 2013/11/27)

>  <Rbt.Parameter_File>
/export/apps/rDock/src/rDock_2013.1_src/data/scripts/dock_solv.prm

>  <Rbt.Receptor>
prm/blind_docking_100.prm

>  <SCORE>
-49.7776

>  <SCORE.INTER>
-32.0016

>  <SCORE.INTER.CONST>
1

>  <SCORE.INTER.POLAR>
0

>  <SCORE.INTER.ROT>
6

>  <SCORE.INTER.SOLV>
12.1974

>  <SCORE.INTER.VDW>
-33.0002

>  <SCORE.INTER.norm>
-1.1035

>  <SCORE.INTRA>
-17.776

>  <SCORE.INTRA.DIHEDRAL>
-4.52527

>  <SCORE.INTRA.DIHEDRAL.0>
6.83446

>  <SCORE.INTRA.POLAR>
0

>  <SCORE.INTRA.POLAR.0>
0

>  <SCORE.INTRA.REPUL>
0

>  <SCORE.INTRA.REPUL.0>
0

>  <SCORE.INTRA.SOLV>
-0.553492

>  <SCORE.INTRA.SOLV.lig_0>
-26.4601

>  <SCORE.INTRA.VDW>
-15.2366

>  <SCORE.INTRA.VDW.0>
13.7853

>  <SCORE.INTRA.norm>
-0.612965

>  <SCORE.RESTR>
0

>  <SCORE.RESTR.CAVITY>
0

>  <SCORE.RESTR.norm>
0

>  <SCORE.SYSTEM>
0

>  <SCORE.SYSTEM.CONST>
0

>  <SCORE.SYSTEM.DIHEDRAL>
0

>  <SCORE.SYSTEM.SOLV>
0

>  <SCORE.SYSTEM.norm>
0

>  <SCORE.heavy>
29

>  <SCORE.norm>
-1.71647

>  <RMSD>
1.584

$$$$
ligand
 OpenBabel11021811473D
libRbt.so/2013.1/901 2013/11/27
 29 31  0  0  0  0  0  0  0  0999 V2000
   26.1593   40.3649   17.9340 C   0  0  0  0  0  0  0  0  0  0  0  0
   25.0210   40.9934   17.3356 O   0  0  0  0  0  0  0  0  0  0  0  0
   26.9768   39.6708   16.8532 C   0  0  1  0  0  0  0  0  0  0  0  0
   27.5380   40.6645   16.0011 O   0  0  0  0  0  0  0  0  0  0  0  0
   28.0794   38.8246   17.4765 C   0  0  1  0  0  0  0  0  0  0  0  0
   28.9183   39.7050   18.2153 O   0  0  0  0  0  0  0  0  0  0  0  0
   27.5909   37.6864   18.3773 C   0  0  1  0  0  0  0  0  0  0  0  0
   26.7795   36.8082   17.5963 O   0  0  0  0  0  0  0  0  0  0  0  0
   28.7244   36.8665   18.9904 C   0  0  0  0  0  0  0  0  0  0  0  0
   28.5268   34.1238   18.3502 N   0  0  0  0  0  0  0  0  0  0  0  0
   28.4503   32.8060   18.0099 C   0  0  0  0  0  0  0  0  0  0  0  0
   28.8210   32.4203   16.8730 O   0  0  0  0  0  0  0  0  0  0  0  0
   27.9677   31.8962   18.8937 N   0  0  0  0  0  0  0  0  0  0  0  0
   27.5537   32.2766   20.1285 C   0  0  0  0  0  0  0  0  0  0  0  0
   27.6271   33.6170   20.4899 C   0  0  1  0  0  0  0  0  0  0  0  0
   27.1057   31.4312   20.9422 O   0  0  0  0  0  0  0  0  0  0  0  0
   27.2956   35.3056   22.0693 C   0  0  1  0  0  0  0  0  0  0  0  0
   27.2222   34.0052   21.7187 N   0  0  0  0  0  0  0  0  0  0  0  0
   26.8761   35.6964   23.3361 C   0  0  0  0  0  0  0  0  0  0  0  0
   26.9418   37.0290   23.7278 C   0  0  2  0  0  0  0  0  0  0  0  0
   26.4694   37.3830   25.1145 C   0  0  0  0  0  0  0  0  0  0  0  0
   27.4363   37.9909   22.8377 C   0  0  2  0  0  0  0  0  0  0  0  0
   27.5302   39.3180   23.1524 N   0  0  0  0  0  0  0  0  0  0  0  0
   27.8537   37.5824   21.5651 C   0  0  0  0  0  0  0  0  0  0  0  0
   27.7885   36.2474   21.1676 C   0  0  2  0  0  0  0  0  0  0  0  0
   28.1256   34.5553   19.5809 C   0  0  2  0  0  0  0  0  0  0  0  0
   28.1914   35.8648   19.9342 N   0  0  0  0  0  0  0  0  0  0  0  0
   26.5777   40.2587   22.5936 C   0  0  0  0  0  0  0  0  0  0  0  0
   28.5553   39.8422   24.0397 C   0  0  0  0  0  0  0  0  0  0  0  0
  1  2  1  0  0  0  0
  3  1  1  1  0  0  0
  3  4  1  0  0  0  0
  3  5  1  0  0  0  0
  5  6  1  1  0  0  0
  5  7  1  0  0  0  0
  7  8  1  6  0  0  0
  7  9  1  0  0  0  0
  9 27  1  0  0  0  0
 10 11  1  0  0  0  0
 11 12  2  0  0  0  0
 11 13  1  0  0  0  0
 13 14  1  0  0  0  0
 14 16  2  0  0  0  0
 15 14  1  1  0  0  0
 15 18  1  0  0  0  0
 15 26  1  0  0  0  0
 17 19  1  1  0  0  0
 17 25  1  0  0  0  0
 17 18  1  0  0  0  0
 19 20  1  0  0  0  0
 20 21  1  6  0  0  0
 20 22  1  0  0  0  0
 22 23  1  6  0  0  0
 22 24  1  0  0  0  0
 23 28  1  0  0  0  0
 23 29  1  0  0  0  0
 25 24  1  6  0  0  0
 25 27  1  0  0  0  0
 26 10  1  6  0  0  0
 26 27  1  0  0  0  0
M  END
>  <CHROM.1>
67.09488771,-60.68416329,60.20120501,175.13495424,-104.98176219,-76.95987383
27.53079327,36.67510162,20.03453052,-2.62627089,-1.44280292,2.02789371

>  <Name>
ligand

>  <RI>
0

>  <Rbt.Current_Directory>
/home/itssahil/PROJECTS/Mol_Feturizer/New_Systems/rnas/3F4H

>  <Rbt.Executable>
rbdock ($Id: //depot/dev/client3/rdock/2013.1/src/exe/rbdock.cxx#4 $)

>  <Rbt.Library>
libRbt.so (2013.1, Build901 2013/11/27)

>  <Rbt.Parameter_File>
/export/apps/rDock/src/rDock_2013.1_src/data/scripts/dock_solv.prm

>  <Rbt.Receptor>
prm/pocket_docking_4.prm

>  <SCORE>
-49.6805

>  <SCORE.INTER>
-31.8226

>  <SCORE.INTER.CONST>
1

>  <SCORE.INTER.POLAR>
0

>  <SCORE.INTER.ROT>
6

>  <SCORE.INTER.SOLV>
11.9047

>  <SCORE.INTER.VDW>
-32.7833

>  <SCORE.INTER.norm>
-1.09733

>  <SCORE.INTRA>
-17.8579

>  <SCORE.INTRA.DIHEDRAL>
-4.51556

>  <SCORE.INTRA.DIHEDRAL.0>
6.83446

>  <SCORE.INTRA.POLAR>
0

>  <SCORE.INTRA.POLAR.0>
0

>  <SCORE.INTRA.REPUL>
0

>  <SCORE.INTRA.REPUL.0>
0

>  <SCORE.INTRA.SOLV>
-0.553793

>  <SCORE.INTRA.SOLV.lig_0>
-26.4601

>  <SCORE.INTRA.VDW>
-15.3232

>  <SCORE.INTRA.VDW.0>
13.7853

>  <SCORE.INTRA.norm>
-0.61579

>  <SCORE.RESTR>
0

>  <SCORE.RESTR.CAVITY>
0

>  <SCORE.RESTR.norm>
0

>  <SCORE.SYSTEM>
0

>  <SCORE.SYSTEM.CONST>
0

>  <SCORE.SYSTEM.DIHEDRAL>
0

>  <SCORE.SYSTEM.SOLV>
0

>  <SCORE.SYSTEM.norm>
0

>  <SCORE.heavy>
29

>  <SCORE.norm>
-1.71312

>  <RMSD>
1.586

$$$$
ligand
 OpenBabel11021811473D
libRbt.so/2013.1/901 2013/11/27
 29 31  0  0  0  0  0  0  0  0999 V2000
   26.0522   40.2987   18.0138 C   0  0  0  0  0  0  0  0  0  0  0  0
   24.9622   41.0145   17.4235 O   0  0  0  0  0  0  0  0  0  0  0  0
   26.9203   39.7062   16.9122 C   0  0  1  0  0  0  0  0  0  0  0  0
   27.4698   40.7730   16.1451 O   0  0  0  0  0  0  0  0  0  0  0  0
   28.0340   38.8547   17.5079 C   0  0  1  0  0  0  0  0  0  0  0  0
   28.8317   39.7117   18.3166 O   0  0  0  0  0  0  0  0  0  0  0  0
   27.5605   37.6509   18.3278 C   0  0  1  0  0  0  0  0  0  0  0  0
   26.8075   36.7897   17.4729 O   0  0  0  0  0  0  0  0  0  0  0  0
   28.7041   36.8388   18.9323 C   0  0  0  0  0  0  0  0  0  0  0  0
   28.5163   34.0912   18.3105 N   0  0  0  0  0  0  0  0  0  0  0  0
   28.4442   32.7710   17.9788 C   0  0  0  0  0  0  0  0  0  0  0  0
   28.8063   32.3806   16.8409 O   0  0  0  0  0  0  0  0  0  0  0  0
   27.9751   31.8638   18.8726 N   0  0  0  0  0  0  0  0  0  0  0  0
   27.5706   32.2493   20.1089 C   0  0  0  0  0  0  0  0  0  0  0  0
   27.6397   33.5922   20.4617 C   0  0  1  0  0  0  0  0  0  0  0  0
   27.1352   31.4063   20.9320 O   0  0  0  0  0  0  0  0  0  0  0  0
   27.3134   35.2884   22.0339 C   0  0  1  0  0  0  0  0  0  0  0  0
   27.2442   33.9855   21.6919 N   0  0  0  0  0  0  0  0  0  0  0  0
   26.9036   35.6845   23.3023 C   0  0  0  0  0  0  0  0  0  0  0  0
   26.9653   37.0198   23.6854 C   0  0  2  0  0  0  0  0  0  0  0  0
   26.5039   37.3795   25.0743 C   0  0  0  0  0  0  0  0  0  0  0  0
   27.4458   37.9791   22.7849 C   0  0  2  0  0  0  0  0  0  0  0  0
   27.5351   39.3086   23.0907 N   0  0  0  0  0  0  0  0  0  0  0  0
   27.8535   37.5653   21.5109 C   0  0  0  0  0  0  0  0  0  0  0  0
   27.7923   36.2275   21.1220 C   0  0  2  0  0  0  0  0  0  0  0  0
   28.1242   34.5279   19.5423 C   0  0  2  0  0  0  0  0  0  0  0  0
   28.1858   35.8398   19.8872 N   0  0  0  0  0  0  0  0  0  0  0  0
   28.5913   39.7751   23.9690 C   0  0  0  0  0  0  0  0  0  0  0  0
   26.6079   40.2973   22.5656 C   0  0  0  0  0  0  0  0  0  0  0  0
  1  2  1  0  0  0  0
  3  1  1  1  0  0  0
  3  4  1  0  0  0  0
  3  5  1  0  0  0  0
  5  6  1  1  0  0  0
  5  7  1  0  0  0  0
  7  8  1  6  0  0  0
  7  9  1  0  0  0  0
  9 27  1  0  0  0  0
 10 11  1  0  0  0  0
 11 12  2  0  0  0  0
 11 13  1  0  0  0  0
 13 14  1  0  0  0  0
 14 16  2  0  0  0  0
 15 14  1  1  0  0  0
 15 18  1  0  0  0  0
 15 26  1  0  0  0  0
 17 19  1  1  0  0  0
 17 25  1  0  0  0  0
 17 18  1  0  0  0  0
 19 20  1  0  0  0  0
 20 21  1  6  0  0  0
 20 22  1  0  0  0  0
 22 23  1  6  0  0  0
 22 24  1  0  0  0  0
 23 28  1  0  0  0  0
 23 29  1  0  0  0  0
 25 24  1  6  0  0  0
 25 27  1  0  0  0  0
 26 10  1  6  0  0  0
 26 27  1  0  0  0  0
M  END
>  <CHROM.1>
62.87315261,-61.28049923,61.03310477,170.45863865,74.95079191,-76.81381637
27.52270077,36.66343567,20.01970276,-2.73781537,-1.44132503,1.94108904

>  <Name>
ligand

>  <RI>
0

>  <Rbt.Current_Directory>
/home/itssahil/PROJECTS/Mol_Feturizer/New_Systems/rnas/3F4H

>  <Rbt.Executable>
rbdock ($Id: //depot/dev/client3/rdock/2013.1/src/exe/rbdock.cxx#4 $)

>  <Rbt.Library>
libRbt.so (2013.1, Build901 2013/11/27)

>  <Rbt.Parameter_File>
/export/apps/rDock/src/rDock_2013.1_src/data/scripts/dock_solv.prm

>  <Rbt.Receptor>
prm/pocket_docking_4.prm

>  <SCORE>
-49.698

>  <SCORE.INTER>
-31.9122

>  <SCORE.INTER.CONST>
1

>  <SCORE.INTER.POLAR>
0

>  <SCORE.INTER.ROT>
6

>  <SCORE.INTER.SOLV>
11.7215

>  <SCORE.INTER.VDW>
-32.782

>  <SCORE.INTER.norm>
-1.10042

>  <SCORE.INTRA>
-17.7858

>  <SCORE.INTRA.DIHEDRAL>
-4.41907

>  <SCORE.INTRA.DIHEDRAL.0>
6.83446

>  <SCORE.INTRA.POLAR>
0

>  <SCORE.INTRA.POLAR.0>
0

>  <SCORE.INTRA.REPUL>
0

>  <SCORE.INTRA.REPUL.0>
0

>  <SCORE.INTRA.SOLV>
-0.560444

>  <SCORE.INTRA.SOLV.lig_0>
-26.4601

>  <SCORE.INTRA.VDW>
-15.296

>  <SCORE.INTRA.VDW.0>
13.7853

>  <SCORE.INTRA.norm>
-0.613303

>  <SCORE.RESTR>
0

>  <SCORE.RESTR.CAVITY>
0

>  <SCORE.RESTR.norm>
0

>  <SCORE.SYSTEM>
0

>  <SCORE.SYSTEM.CONST>
0

>  <SCORE.SYSTEM.DIHEDRAL>
0

>  <SCORE.SYSTEM.SOLV>
0

>  <SCORE.SYSTEM.norm>
0

>  <SCORE.heavy>
29

>  <SCORE.norm>
-1.71372

>  <RMSD>
1.595

$$$$
ligand
 OpenBabel11021811473D
libRbt.so/2013.1/901 2013/11/27
 29 31  0  0  0  0  0  0  0  0999 V2000
   26.7337   40.4453   17.0387 C   0  0  0  0  0  0  0  0  0  0  0  0
   25.6544   41.2863   16.6182 O   0  0  0  0  0  0  0  0  0  0  0  0
   27.5687   40.0549   15.8269 C   0  0  1  0  0  0  0  0  0  0  0  0
   28.1197   41.2376   15.2561 O   0  0  0  0  0  0  0  0  0  0  0  0
   28.6804   39.0945   16.2297 C   0  0  1  0  0  0  0  0  0  0  0  0
   29.5463   39.7999   17.1114 O   0  0  0  0  0  0  0  0  0  0  0  0
   28.2066   37.7953   16.8879 C   0  0  1  0  0  0  0  0  0  0  0  0
   27.4167   37.0719   15.9433 O   0  0  0  0  0  0  0  0  0  0  0  0
   29.3505   36.8910   17.3422 C   0  0  0  0  0  0  0  0  0  0  0  0
   29.3330   34.1321   16.7428 N   0  0  0  0  0  0  0  0  0  0  0  0
   29.3436   32.8073   16.4223 C   0  0  0  0  0  0  0  0  0  0  0  0
   29.7571   32.4282   15.2981 O   0  0  0  0  0  0  0  0  0  0  0  0
   28.9022   31.8827   17.3124 N   0  0  0  0  0  0  0  0  0  0  0  0
   28.4440   32.2552   18.5339 C   0  0  0  0  0  0  0  0  0  0  0  0
   28.4287   33.6028   18.8751 C   0  0  1  0  0  0  0  0  0  0  0  0
   28.0346   31.3961   19.3535 O   0  0  0  0  0  0  0  0  0  0  0  0
   27.9665   35.2911   20.4215 C   0  0  1  0  0  0  0  0  0  0  0  0
   27.9792   33.9836   20.0906 N   0  0  0  0  0  0  0  0  0  0  0  0
   27.5016   35.6743   21.6748 C   0  0  0  0  0  0  0  0  0  0  0  0
   27.4784   37.0141   22.0462 C   0  0  2  0  0  0  0  0  0  0  0  0
   26.9610   37.3589   23.4190 C   0  0  0  0  0  0  0  0  0  0  0  0
   27.9285   37.9912   21.1492 C   0  0  2  0  0  0  0  0  0  0  0  0
   27.9353   39.3261   21.4441 N   0  0  0  0  0  0  0  0  0  0  0  0
   28.3925   37.5903   19.8904 C   0  0  0  0  0  0  0  0  0  0  0  0
   28.4163   36.2480   19.5132 C   0  0  2  0  0  0  0  0  0  0  0  0
   28.8845   34.5565   17.9595 C   0  0  2  0  0  0  0  0  0  0  0  0
   28.8636   35.8726   18.2930 N   0  0  0  0  0  0  0  0  0  0  0  0
   29.1191   39.9275   22.0284 C   0  0  0  0  0  0  0  0  0  0  0  0
   26.7936   40.1900   21.1925 C   0  0  0  0  0  0  0  0  0  0  0  0
  1  2  1  0  0  0  0
  3  1  1  1  0  0  0
  3  4  1  0  0  0  0
  3  5  1  0  0  0  0
  5  6  1  1  0  0  0
  5  7  1  0  0  0  0
  7  8  1  6  0  0  0
  7  9  1  0  0  0  0
  9 27  1  0  0  0  0
 10 11  1  0  0  0  0
 11 12  2  0  0  0  0
 11 13  1  0  0  0  0
 13 14  1  0  0  0  0
 14 16  2  0  0  0  0
 15 14  1  1  0  0  0
 15 18  1  0  0  0  0
 15 26  1  0  0  0  0
 17 19  1  1  0  0  0
 17 25  1  0  0  0  0
 17 18  1  0  0  0  0
 19 20  1  0  0  0  0
 20 21  1  6  0  0  0
 20 22  1  0  0  0  0
 22 23  1  6  0  0  0
 22 24  1  0  0  0  0
 23 28  1  0  0  0  0
 23 29  1  0  0  0  0
 25 24  1  6  0  0  0
 25 27  1  0  0  0  0
 26 10  1  6  0  0  0
 26 27  1  0  0  0  0
M  END
>  <CHROM.1>
62.07259119,-64.12232544,62.79750588,163.69130652,91.84955955,-66.78158942
28.18650688,36.74886524,18.55027563,-2.54496494,-1.37519500,2.22602741

>  <Name>
ligand

>  <RI>
0

>  <Rbt.Current_Directory>
/home/itssahil/PROJECTS/Mol_Feturizer/New_Systems/rnas/3F4H

>  <Rbt.Executable>
rbdock ($Id: //depot/dev/client3/rdock/2013.1/src/exe/rbdock.cxx#4 $)

>  <Rbt.Library>
libRbt.so (2013.1, Build901 2013/11/27)

>  <Rbt.Parameter_File>
/export/apps/rDock/src/rDock_2013.1_src/data/scripts/dock_solv.prm

>  <Rbt.Receptor>
prm/pocket_docking_8.prm

>  <SCORE>
-43.9711

>  <SCORE.INTER>
-26.1645

>  <SCORE.INTER.CONST>
1

>  <SCORE.INTER.POLAR>
-0.896363

>  <SCORE.INTER.ROT>
6

>  <SCORE.INTER.SOLV>
13.6434

>  <SCORE.INTER.VDW>
-26.6029

>  <SCORE.INTER.norm>
-0.902226

>  <SCORE.INTRA>
-17.8117

>  <SCORE.INTRA.DIHEDRAL>
-3.78737

>  <SCORE.INTRA.DIHEDRAL.0>
6.83446

>  <SCORE.INTRA.POLAR>
0

>  <SCORE.INTRA.POLAR.0>
0

>  <SCORE.INTRA.REPUL>
0

>  <SCORE.INTRA.REPUL.0>
0

>  <SCORE.INTRA.SOLV>
-0.586398

>  <SCORE.INTRA.SOLV.lig_0>
-26.4601

>  <SCORE.INTRA.VDW>
-15.6248

>  <SCORE.INTRA.VDW.0>
13.7853

>  <SCORE.INTRA.norm>
-0.614197

>  <SCORE.RESTR>
0.00513654

>  <SCORE.RESTR.CAVITY>
0.00513654

>  <SCORE.RESTR.norm>
0.000177122

>  <SCORE.SYSTEM>
0

>  <SCORE.SYSTEM.CONST>
0

>  <SCORE.SYSTEM.DIHEDRAL>
0

>  <SCORE.SYSTEM.SOLV>
0

>  <SCORE.SYSTEM.norm>
0

>  <SCORE.heavy>
29

>  <SCORE.norm>
-1.51625

>  <RMSD>
1.596

$$$$
ligand
 OpenBabel11021811473D
libRbt.so/2013.1/901 2013/11/27
 29 31  0  0  0  0  0  0  0  0999 V2000
   26.0361   40.2946   17.9269 C   0  0  0  0  0  0  0  0  0  0  0  0
   24.9091   40.9155   17.2998 O   0  0  0  0  0  0  0  0  0  0  0  0
   26.9265   39.6731   16.8597 C   0  0  1  0  0  0  0  0  0  0  0  0
   27.4785   40.7182   16.0650 O   0  0  0  0  0  0  0  0  0  0  0  0
   28.0383   38.8529   17.5012 C   0  0  1  0  0  0  0  0  0  0  0  0
   28.8168   39.7448   18.2906 O   0  0  0  0  0  0  0  0  0  0  0  0
   27.5627   37.6746   18.3561 C   0  0  1  0  0  0  0  0  0  0  0  0
   26.7578   36.8210   17.5418 O   0  0  0  0  0  0  0  0  0  0  0  0
   28.7052   36.8414   18.9333 C   0  0  0  0  0  0  0  0  0  0  0  0
   28.5223   34.0938   18.3100 N   0  0  0  0  0  0  0  0  0  0  0  0
   28.4525   32.7737   17.9776 C   0  0  0  0  0  0  0  0  0  0  0  0
   28.8144   32.3846   16.8391 O   0  0  0  0  0  0  0  0  0  0  0  0
   27.9861   31.8650   18.8712 N   0  0  0  0  0  0  0  0  0  0  0  0
   27.5819   32.2489   20.1082 C   0  0  0  0  0  0  0  0  0  0  0  0
   27.6487   33.5918   20.4617 C   0  0  1  0  0  0  0  0  0  0  0  0
   27.1490   31.4046   20.9311 O   0  0  0  0  0  0  0  0  0  0  0  0
   27.3204   35.2864   22.0352 C   0  0  1  0  0  0  0  0  0  0  0  0
   27.2535   33.9836   21.6925 N   0  0  0  0  0  0  0  0  0  0  0  0
   26.9111   35.6809   23.3042 C   0  0  0  0  0  0  0  0  0  0  0  0
   26.9704   37.0161   23.6880 C   0  0  2  0  0  0  0  0  0  0  0  0
   26.5097   37.3740   25.0776 C   0  0  0  0  0  0  0  0  0  0  0  0
   27.4483   37.9769   22.7877 C   0  0  2  0  0  0  0  0  0  0  0  0
   27.5352   39.3064   23.0942 N   0  0  0  0  0  0  0  0  0  0  0  0
   27.8556   37.5647   21.5131 C   0  0  0  0  0  0  0  0  0  0  0  0
   27.7967   36.2270   21.1234 C   0  0  2  0  0  0  0  0  0  0  0  0
   28.1305   34.5290   19.5424 C   0  0  2  0  0  0  0  0  0  0  0  0
   28.1898   35.8408   19.8880 N   0  0  0  0  0  0  0  0  0  0  0  0
   26.6082   40.2454   22.4914 C   0  0  0  0  0  0  0  0  0  0  0  0
   28.5276   39.8348   24.0155 C   0  0  0  0  0  0  0  0  0  0  0  0
  1  2  1  0  0  0  0
  3  1  1  1  0  0  0
  3  4  1  0  0  0  0
  3  5  1  0  0  0  0
  5  6  1  1  0  0  0
  5  7  1  0  0  0  0
  7  8  1  6  0  0  0
  7  9  1  0  0  0  0
  9 27  1  0  0  0  0
 10 11  1  0  0  0  0
 11 12  2  0  0  0  0
 11 13  1  0  0  0  0
 13 14  1  0  0  0  0
 14 16  2  0  0  0  0
 15 14  1  1  0  0  0
 15 18  1  0  0  0  0
 15 26  1  0  0  0  0
 17 19  1  1  0  0  0
 17 25  1  0  0  0  0
 17 18  1  0  0  0  0
 19 20  1  0  0  0  0
 20 21  1  6  0  0  0
 20 22  1  0  0  0  0
 22 23  1  6  0  0  0
 22 24  1  0  0  0  0
 23 28  1  0  0  0  0
 23 29  1  0  0  0  0
 25 24  1  6  0  0  0
 25 27  1  0  0  0  0
 26 10  1  6  0  0  0
 26 27  1  0  0  0  0
M  END
>  <CHROM.1>
66.08818670,-61.36170427,57.37388378,172.33765499,-107.84271314,-75.42387692
27.51989197,36.65934312,20.00858621,-2.75194622,-1.44003262,1.90876179

>  <Name>
ligand

>  <RI>
0

>  <Rbt.Current_Directory>
/home/itssahil/PROJECTS/Mol_Feturizer/New_Systems/rnas/3F4H

>  <Rbt.Executable>
rbdock ($Id: //depot/dev/client3/rdock/2013.1/src/exe/rbdock.cxx#4 $)

>  <Rbt.Library>
libRbt.so (2013.1, Build901 2013/11/27)

>  <Rbt.Parameter_File>
/export/apps/rDock/src/rDock_2013.1_src/data/scripts/dock_solv.prm

>  <Rbt.Receptor>
prm/pocket_docking_8.prm

>  <SCORE>
-49.7117

>  <SCORE.INTER>
-31.9906

>  <SCORE.INTER.CONST>
1

>  <SCORE.INTER.POLAR>
0

>  <SCORE.INTER.ROT>
6

>  <SCORE.INTER.SOLV>
12.0518

>  <SCORE.INTER.VDW>
-32.9443

>  <SCORE.INTER.norm>
-1.10312

>  <SCORE.INTRA>
-17.7211

>  <SCORE.INTRA.DIHEDRAL>
-4.40742

>  <SCORE.INTRA.DIHEDRAL.0>
6.83446

>  <SCORE.INTRA.POLAR>
0

>  <SCORE.INTRA.POLAR.0>
0

>  <SCORE.INTRA.REPUL>
0

>  <SCORE.INTRA.REPUL.0>
0

>  <SCORE.INTRA.SOLV>
-0.554734

>  <SCORE.INTRA.SOLV.lig_0>
-26.4601

>  <SCORE.INTRA.VDW>
-15.24

>  <SCORE.INTRA.VDW.0>
13.7853

>  <SCORE.INTRA.norm>
-0.611073

>  <SCORE.RESTR>
0

>  <SCORE.RESTR.CAVITY>
0

>  <SCORE.RESTR.norm>
0

>  <SCORE.SYSTEM>
0

>  <SCORE.SYSTEM.CONST>
0

>  <SCORE.SYSTEM.DIHEDRAL>
0

>  <SCORE.SYSTEM.SOLV>
0

>  <SCORE.SYSTEM.norm>
0

>  <SCORE.heavy>
29

>  <SCORE.norm>
-1.7142

>  <RMSD>
1.596

$$$$
ligand
 OpenBabel11021811473D
libRbt.so/2013.1/901 2013/11/27
 29 31  0  0  0  0  0  0  0  0999 V2000
   26.0656   40.3052   17.9568 C   0  0  0  0  0  0  0  0  0  0  0  0
   24.9520   40.9743   17.3559 O   0  0  0  0  0  0  0  0  0  0  0  0
   26.9146   39.6640   16.8677 C   0  0  1  0  0  0  0  0  0  0  0  0
   27.4624   40.6961   16.0535 O   0  0  0  0  0  0  0  0  0  0  0  0
   28.0293   38.8265   17.4814 C   0  0  1  0  0  0  0  0  0  0  0  0
   28.8719   39.7148   18.2064 O   0  0  0  0  0  0  0  0  0  0  0  0
   27.5579   37.6895   18.3928 C   0  0  1  0  0  0  0  0  0  0  0  0
   26.7124   36.8235   17.6348 O   0  0  0  0  0  0  0  0  0  0  0  0
   28.7017   36.8550   18.9655 C   0  0  0  0  0  0  0  0  0  0  0  0
   28.5192   34.1102   18.3298 N   0  0  0  0  0  0  0  0  0  0  0  0
   28.4495   32.7916   17.9913 C   0  0  0  0  0  0  0  0  0  0  0  0
   28.8100   32.4080   16.8506 O   0  0  0  0  0  0  0  0  0  0  0  0
   27.9847   31.8786   18.8814 N   0  0  0  0  0  0  0  0  0  0  0  0
   27.5820   32.2566   20.1206 C   0  0  0  0  0  0  0  0  0  0  0  0
   27.6486   33.5979   20.4802 C   0  0  1  0  0  0  0  0  0  0  0  0
   27.1505   31.4084   20.9402 O   0  0  0  0  0  0  0  0  0  0  0  0
   27.3217   35.2851   22.0620 C   0  0  1  0  0  0  0  0  0  0  0  0
   27.2550   33.9838   21.7134 N   0  0  0  0  0  0  0  0  0  0  0  0
   26.9139   35.6736   23.3333 C   0  0  0  0  0  0  0  0  0  0  0  0
   26.9732   37.0070   23.7233 C   0  0  2  0  0  0  0  0  0  0  0  0
   26.5141   37.3582   25.1151 C   0  0  0  0  0  0  0  0  0  0  0  0
   27.4494   37.9721   22.8268 C   0  0  2  0  0  0  0  0  0  0  0  0
   27.5361   39.3002   23.1393 N   0  0  0  0  0  0  0  0  0  0  0  0
   27.8553   37.5660   21.5497 C   0  0  0  0  0  0  0  0  0  0  0  0
   27.7964   36.2301   21.1540 C   0  0  2  0  0  0  0  0  0  0  0  0
   28.1288   34.5395   19.5647 C   0  0  2  0  0  0  0  0  0  0  0  0
   28.1881   35.8498   19.9163 N   0  0  0  0  0  0  0  0  0  0  0  0
   26.5786   40.2348   22.5790 C   0  0  0  0  0  0  0  0  0  0  0  0
   28.5583   39.8314   24.0258 C   0  0  0  0  0  0  0  0  0  0  0  0
  1  2  1  0  0  0  0
  3  1  1  1  0  0  0
  3  4  1  0  0  0  0
  3  5  1  0  0  0  0
  5  6  1  1  0  0  0
  5  7  1  0  0  0  0
  7  8  1  6  0  0  0
  7  9  1  0  0  0  0
  9 27  1  0  0  0  0
 10 11  1  0  0  0  0
 11 12  2  0  0  0  0
 11 13  1  0  0  0  0
 13 14  1  0  0  0  0
 14 16  2  0  0  0  0
 15 14  1  1  0  0  0
 15 18  1  0  0  0  0
 15 26  1  0  0  0  0
 17 19  1  1  0  0  0
 17 25  1  0  0  0  0
 17 18  1  0  0  0  0
 19 20  1  0  0  0  0
 20 21  1  6  0  0  0
 20 22  1  0  0  0  0
 22 23  1  6  0  0  0
 22 24  1  0  0  0  0
 23 28  1  0  0  0  0
 23 29  1  0  0  0  0
 25 24  1  6  0  0  0
 25 27  1  0  0  0  0
 26 10  1  6  0  0  0
 26 27  1  0  0  0  0
M  END
>  <CHROM.1>
64.54159188,-63.36458602,58.62984158,175.44962025,-105.67157859,-75.47135398
27.52147650,36.66174311,20.03201560,-2.73095572,-1.44004114,1.92557244

>  <Name>
ligand

>  <RI>
0

>  <Rbt.Current_Directory>
/home/itssahil/PROJECTS/Mol_Feturizer/New_Systems/rnas/3F4H

>  <Rbt.Executable>
rbdock ($Id: //depot/dev/client3/rdock/2013.1/src/exe/rbdock.cxx#4 $)

>  <Rbt.Library>
libRbt.so (2013.1, Build901 2013/11/27)

>  <Rbt.Parameter_File>
/export/apps/rDock/src/rDock_2013.1_src/data/scripts/dock_solv.prm

>  <Rbt.Receptor>
prm/pocket_docking_6.prm

>  <SCORE>
-49.6944

>  <SCORE.INTER>
-31.8562

>  <SCORE.INTER.CONST>
1

>  <SCORE.INTER.POLAR>
0

>  <SCORE.INTER.ROT>
6

>  <SCORE.INTER.SOLV>
12.0387

>  <SCORE.INTER.VDW>
-32.8504

>  <SCORE.INTER.norm>
-1.09849

>  <SCORE.INTRA>
-17.8382

>  <SCORE.INTRA.DIHEDRAL>
-4.58629

>  <SCORE.INTRA.DIHEDRAL.0>
6.83446

>  <SCORE.INTRA.POLAR>
0

>  <SCORE.INTRA.POLAR.0>
0

>  <SCORE.INTRA.REPUL>
0

>  <SCORE.INTRA.REPUL.0>
0

>  <SCORE.INTRA.SOLV>
-0.539452

>  <SCORE.INTRA.SOLV.lig_0>
-26.4601

>  <SCORE.INTRA.VDW>
-15.2753

>  <SCORE.INTRA.VDW.0>
13.7853

>  <SCORE.INTRA.norm>
-0.615109

>  <SCORE.RESTR>
0

>  <SCORE.RESTR.CAVITY>
0

>  <SCORE.RESTR.norm>
0

>  <SCORE.SYSTEM>
0

>  <SCORE.SYSTEM.CONST>
0

>  <SCORE.SYSTEM.DIHEDRAL>
0

>  <SCORE.SYSTEM.SOLV>
0

>  <SCORE.SYSTEM.norm>
0

>  <SCORE.heavy>
29

>  <SCORE.norm>
-1.7136

>  <RMSD>
1.599

$$$$
ligand
 OpenBabel11021811473D
libRbt.so/2013.1/901 2013/11/27
 29 31  0  0  0  0  0  0  0  0999 V2000
   27.7327   38.7726   16.1978 C   0  0  0  0  0  0  0  0  0  0  0  0
   27.3467   39.9911   15.5535 O   0  0  0  0  0  0  0  0  0  0  0  0
   29.2342   38.5748   16.0419 C   0  0  1  0  0  0  0  0  0  0  0  0
   29.9044   39.5870   16.7868 O   0  0  0  0  0  0  0  0  0  0  0  0
   29.6465   37.1941   16.5360 C   0  0  1  0  0  0  0  0  0  0  0  0
   30.9983   36.9923   16.1402 O   0  0  0  0  0  0  0  0  0  0  0  0
   29.5039   36.9774   18.0454 C   0  0  1  0  0  0  0  0  0  0  0  0
   30.1574   38.0531   18.7203 O   0  0  0  0  0  0  0  0  0  0  0  0
   28.0525   36.9312   18.5189 C   0  0  0  0  0  0  0  0  0  0  0  0
   27.9830   34.1567   18.0008 N   0  0  0  0  0  0  0  0  0  0  0  0
   27.9590   32.8240   17.7155 C   0  0  0  0  0  0  0  0  0  0  0  0
   28.0653   32.4258   16.5286 O   0  0  0  0  0  0  0  0  0  0  0  0
   27.8144   31.9120   18.7101 N   0  0  0  0  0  0  0  0  0  0  0  0
   27.6919   32.3051   20.0029 C   0  0  0  0  0  0  0  0  0  0  0  0
   27.7160   33.6610   20.3091 C   0  0  1  0  0  0  0  0  0  0  0  0
   27.5562   31.4575   20.9198 O   0  0  0  0  0  0  0  0  0  0  0  0
   27.6254   35.3781   21.8899 C   0  0  1  0  0  0  0  0  0  0  0  0
   27.6000   34.0625   21.5935 N   0  0  0  0  0  0  0  0  0  0  0  0
   27.5048   35.7825   23.2148 C   0  0  0  0  0  0  0  0  0  0  0  0
   27.5300   37.1312   23.5523 C   0  0  2  0  0  0  0  0  0  0  0  0
   27.3928   37.4992   25.0073 C   0  0  0  0  0  0  0  0  0  0  0  0
   27.6789   38.0958   22.5476 C   0  0  2  0  0  0  0  0  0  0  0  0
   27.7123   39.4384   22.8034 N   0  0  0  0  0  0  0  0  0  0  0  0
   27.7979   37.6734   21.2179 C   0  0  0  0  0  0  0  0  0  0  0  0
   27.7720   36.3221   20.8747 C   0  0  2  0  0  0  0  0  0  0  0  0
   27.8664   34.6017   19.2854 C   0  0  2  0  0  0  0  0  0  0  0  0
   27.8844   35.9258   19.5862 N   0  0  0  0  0  0  0  0  0  0  0  0
   26.5333   40.2468   22.5569 C   0  0  0  0  0  0  0  0  0  0  0  0
   28.8928   40.1077   23.3242 C   0  0  0  0  0  0  0  0  0  0  0  0
  1  2  1  0  0  0  0
  3  1  1  1  0  0  0
  3  4  1  0  0  0  0
  3  5  1  0  0  0  0
  5  6  1  1  0  0  0
  5  7  1  0  0  0  0
  7  8  1  1  0  0  0
  7  9  1  0  0  0  0
  9 27  1  0  0  0  0
 10 11  1  0  0  0  0
 11 12  2  0  0  0  0
 11 13  1  0  0  0  0
 13 14  1  0  0  0  0
 14 16  2  0  0  0  0
 15 14  1  1  0  0  0
 15 18  1  0  0  0  0
 15 26  1  0  0  0  0
 17 19  1  1  0  0  0
 17 25  1  0  0  0  0
 17 18  1  0  0  0  0
 19 20  1  0  0  0  0
 20 21  1  6  0  0  0
 20 22  1  0  0  0  0
 22 23  1  6  0  0  0
 22 24  1  0  0  0  0
 23 28  1  0  0  0  0
 23 29  1  0  0  0  0
 25 24  1  6  0  0  0
 25 27  1  0  0  0  0
 26 10  1  6  0  0  0
 26 27  1  0  0  0  0
M  END
>  <CHROM.1>
67.12297795,169.69919299,-51.13790933,142.30449117,-101.82712624,103.50719676
28.21175107,36.41203699,19.64622703,-0.79034053,1.33499571,0.43462244

>  <Name>
ligand

>  <RI>
0

>  <Rbt.Current_Directory>
/home/itssahil/PROJECTS/Mol_Feturizer/New_Systems/rnas/3F4H

>  <Rbt.Executable>
rbdock ($Id: //depot/dev/client3/rdock/2013.1/src/exe/rbdock.cxx#4 $)

>  <Rbt.Library>
libRbt.so (2013.1, Build901 2013/11/27)

>  <Rbt.Parameter_File>
/export/apps/rDock/src/rDock_2013.1_src/data/scripts/dock_solv.prm

>  <Rbt.Receptor>
prm/blind_docking_100.prm

>  <SCORE>
-42.1278

>  <SCORE.INTER>
-27.7607

>  <SCORE.INTER.CONST>
1

>  <SCORE.INTER.POLAR>
0

>  <SCORE.INTER.ROT>
6

>  <SCORE.INTER.SOLV>
10.8362

>  <SCORE.INTER.VDW>
-29.7192

>  <SCORE.INTER.norm>
-0.957265

>  <SCORE.INTRA>
-14.3671

>  <SCORE.INTRA.DIHEDRAL>
-0.325471

>  <SCORE.INTRA.DIHEDRAL.0>
6.83446

>  <SCORE.INTRA.POLAR>
0

>  <SCORE.INTRA.POLAR.0>
0

>  <SCORE.INTRA.REPUL>
0

>  <SCORE.INTRA.REPUL.0>
0

>  <SCORE.INTRA.SOLV>
-0.00650497

>  <SCORE.INTRA.SOLV.lig_0>
-26.4601

>  <SCORE.INTRA.VDW>
-14.2011

>  <SCORE.INTRA.VDW.0>
13.7853

>  <SCORE.INTRA.norm>
-0.495417

>  <SCORE.RESTR>
0

>  <SCORE.RESTR.CAVITY>
0

>  <SCORE.RESTR.norm>
0

>  <SCORE.SYSTEM>
0

>  <SCORE.SYSTEM.CONST>
0

>  <SCORE.SYSTEM.DIHEDRAL>
0

>  <SCORE.SYSTEM.SOLV>
0

>  <SCORE.SYSTEM.norm>
0

>  <SCORE.heavy>
29

>  <SCORE.norm>
-1.45268

>  <RMSD>
1.600

$$$$
ligand
 OpenBabel11021811473D
libRbt.so/2013.1/901 2013/11/27
 29 31  0  0  0  0  0  0  0  0999 V2000
   26.0703   40.3183   17.9518 C   0  0  0  0  0  0  0  0  0  0  0  0
   24.9587   40.9680   17.3264 O   0  0  0  0  0  0  0  0  0  0  0  0
   26.9527   39.6898   16.8819 C   0  0  1  0  0  0  0  0  0  0  0  0
   27.5154   40.7309   16.0895 O   0  0  0  0  0  0  0  0  0  0  0  0
   28.0561   38.8557   17.5201 C   0  0  1  0  0  0  0  0  0  0  0  0
   28.8521   39.7390   18.3016 O   0  0  0  0  0  0  0  0  0  0  0  0
   27.5681   37.6877   18.3822 C   0  0  1  0  0  0  0  0  0  0  0  0
   26.7797   36.8213   17.5652 O   0  0  0  0  0  0  0  0  0  0  0  0
   28.7023   36.8652   18.9905 C   0  0  0  0  0  0  0  0  0  0  0  0
   28.5054   34.1247   18.3408 N   0  0  0  0  0  0  0  0  0  0  0  0
   28.4292   32.8081   17.9959 C   0  0  0  0  0  0  0  0  0  0  0  0
   28.7992   32.4266   16.8574 O   0  0  0  0  0  0  0  0  0  0  0  0
   27.9476   31.8949   18.8768 N   0  0  0  0  0  0  0  0  0  0  0  0
   27.5343   32.2708   20.1132 C   0  0  0  0  0  0  0  0  0  0  0  0
   27.6074   33.6100   20.4794 C   0  0  1  0  0  0  0  0  0  0  0  0
   27.0873   31.4224   20.9243 O   0  0  0  0  0  0  0  0  0  0  0  0
   27.2763   35.2928   22.0649 C   0  0  1  0  0  0  0  0  0  0  0  0
   27.2032   33.9936   21.7098 N   0  0  0  0  0  0  0  0  0  0  0  0
   26.8575   35.6790   23.3333 C   0  0  0  0  0  0  0  0  0  0  0  0
   26.9229   37.0103   23.7297 C   0  0  2  0  0  0  0  0  0  0  0  0
   26.4513   37.3591   25.1180 C   0  0  0  0  0  0  0  0  0  0  0  0
   27.4164   37.9755   22.8427 C   0  0  2  0  0  0  0  0  0  0  0  0
   27.5100   39.3015   23.1620 N   0  0  0  0  0  0  0  0  0  0  0  0
   27.8330   37.5717   21.5684 C   0  0  0  0  0  0  0  0  0  0  0  0
   27.7681   36.2380   21.1662 C   0  0  2  0  0  0  0  0  0  0  0  0
   28.1048   34.5517   19.5733 C   0  0  2  0  0  0  0  0  0  0  0  0
   28.1704   35.8600   19.9312 N   0  0  0  0  0  0  0  0  0  0  0  0
   28.5544   39.7524   24.0621 C   0  0  0  0  0  0  0  0  0  0  0  0
   26.5990   40.3017   22.6303 C   0  0  0  0  0  0  0  0  0  0  0  0
  1  2  1  0  0  0  0
  3  1  1  1  0  0  0
  3  4  1  0  0  0  0
  3  5  1  0  0  0  0
  5  6  1  1  0  0  0
  5  7  1  0  0  0  0
  7  8  1  6  0  0  0
  7  9  1  0  0  0  0
  9 27  1  0  0  0  0
 10 11  1  0  0  0  0
 11 12  2  0  0  0  0
 11 13  1  0  0  0  0
 13 14  1  0  0  0  0
 14 16  2  0  0  0  0
 15 14  1  1  0  0  0
 15 18  1  0  0  0  0
 15 26  1  0  0  0  0
 17 19  1  1  0  0  0
 17 25  1  0  0  0  0
 17 18  1  0  0  0  0
 19 20  1  0  0  0  0
 20 21  1  6  0  0  0
 20 22  1  0  0  0  0
 22 23  1  6  0  0  0
 22 24  1  0  0  0  0
 23 28  1  0  0  0  0
 23 29  1  0  0  0  0
 25 24  1  6  0  0  0
 25 27  1  0  0  0  0
 26 10  1  6  0  0  0
 26 27  1  0  0  0  0
M  END
>  <CHROM.1>
65.34956336,-61.86411752,59.12809314,173.34675336,74.46786724,-76.90474976
27.50743474,36.67171019,20.04170966,-2.66868199,-1.44359596,1.99336032

>  <Name>
ligand

>  <RI>
0

>  <Rbt.Current_Directory>
/home/itssahil/PROJECTS/Mol_Feturizer/New_Systems/rnas/3F4H

>  <Rbt.Executable>
rbdock ($Id: //depot/dev/client3/rdock/2013.1/src/exe/rbdock.cxx#4 $)

>  <Rbt.Library>
libRbt.so (2013.1, Build901 2013/11/27)

>  <Rbt.Parameter_File>
/export/apps/rDock/src/rDock_2013.1_src/data/scripts/dock_solv.prm

>  <Rbt.Receptor>
prm/pocket_docking_4.prm

>  <SCORE>
-49.6771

>  <SCORE.INTER>
-31.874

>  <SCORE.INTER.CONST>
1

>  <SCORE.INTER.POLAR>
0

>  <SCORE.INTER.ROT>
6

>  <SCORE.INTER.SOLV>
11.8882

>  <SCORE.INTER.VDW>
-32.8121

>  <SCORE.INTER.norm>
-1.0991

>  <SCORE.INTRA>
-17.8031

>  <SCORE.INTRA.DIHEDRAL>
-4.50449

>  <SCORE.INTRA.DIHEDRAL.0>
6.83446

>  <SCORE.INTRA.POLAR>
0

>  <SCORE.INTRA.POLAR.0>
0

>  <SCORE.INTRA.REPUL>
0

>  <SCORE.INTRA.REPUL.0>
0

>  <SCORE.INTRA.SOLV>
-0.550649

>  <SCORE.INTRA.SOLV.lig_0>
-26.4601

>  <SCORE.INTRA.VDW>
-15.2755

>  <SCORE.INTRA.VDW.0>
13.7853

>  <SCORE.INTRA.norm>
-0.6139

>  <SCORE.RESTR>
0

>  <SCORE.RESTR.CAVITY>
0

>  <SCORE.RESTR.norm>
0

>  <SCORE.SYSTEM>
0

>  <SCORE.SYSTEM.CONST>
0

>  <SCORE.SYSTEM.DIHEDRAL>
0

>  <SCORE.SYSTEM.SOLV>
0

>  <SCORE.SYSTEM.norm>
0

>  <SCORE.heavy>
29

>  <SCORE.norm>
-1.713

>  <RMSD>
1.600

$$$$
ligand
 OpenBabel11021811473D
libRbt.so/2013.1/901 2013/11/27
 29 31  0  0  0  0  0  0  0  0999 V2000
   28.3168   39.3933   16.4452 C   0  0  0  0  0  0  0  0  0  0  0  0
   27.4141   38.6449   15.6243 O   0  0  0  0  0  0  0  0  0  0  0  0
   29.7467   38.9745   16.1319 C   0  0  1  0  0  0  0  0  0  0  0  0
   30.6333   39.7687   16.9139 O   0  0  0  0  0  0  0  0  0  0  0  0
   29.9509   37.4964   16.4383 C   0  0  1  0  0  0  0  0  0  0  0  0
   31.2787   37.1657   16.0480 O   0  0  0  0  0  0  0  0  0  0  0  0
   29.7197   37.1003   17.8995 C   0  0  1  0  0  0  0  0  0  0  0  0
   30.3433   38.0751   18.7364 O   0  0  0  0  0  0  0  0  0  0  0  0
   28.2432   37.0205   18.2819 C   0  0  0  0  0  0  0  0  0  0  0  0
   28.2058   34.2366   17.8131 N   0  0  0  0  0  0  0  0  0  0  0  0
   28.1986   32.8988   17.5518 C   0  0  0  0  0  0  0  0  0  0  0  0
   28.3539   32.4794   16.3777 O   0  0  0  0  0  0  0  0  0  0  0  0
   28.0182   32.0046   18.5566 N   0  0  0  0  0  0  0  0  0  0  0  0
   27.8425   32.4208   19.8360 C   0  0  0  0  0  0  0  0  0  0  0  0
   27.8488   33.7822   20.1176 C   0  0  1  0  0  0  0  0  0  0  0  0
   27.6737   31.5896   20.7623 O   0  0  0  0  0  0  0  0  0  0  0  0
   27.6881   35.5276   21.6614 C   0  0  1  0  0  0  0  0  0  0  0  0
   27.6799   34.2067   21.3888 N   0  0  0  0  0  0  0  0  0  0  0  0
   27.5129   35.9557   22.9727 C   0  0  0  0  0  0  0  0  0  0  0  0
   27.5191   37.3105   23.2858 C   0  0  2  0  0  0  0  0  0  0  0  0
   27.3224   37.7045   24.7272 C   0  0  0  0  0  0  0  0  0  0  0  0
   27.7041   38.2571   22.2702 C   0  0  2  0  0  0  0  0  0  0  0  0
   27.7217   39.6043   22.5022 N   0  0  0  0  0  0  0  0  0  0  0  0
   27.8779   37.8110   20.9544 C   0  0  0  0  0  0  0  0  0  0  0  0
   27.8712   36.4534   20.6356 C   0  0  2  0  0  0  0  0  0  0  0  0
   28.0361   34.7047   19.0835 C   0  0  2  0  0  0  0  0  0  0  0  0
   28.0367   36.0341   19.3601 N   0  0  0  0  0  0  0  0  0  0  0  0
   28.9809   40.2705   22.7761 C   0  0  0  0  0  0  0  0  0  0  0  0
   26.5175   40.4183   22.4837 C   0  0  0  0  0  0  0  0  0  0  0  0
  1  2  1  0  0  0  0
  3  1  1  1  0  0  0
  3  4  1  0  0  0  0
  3  5  1  0  0  0  0
  5  6  1  1  0  0  0
  5  7  1  0  0  0  0
  7  8  1  1  0  0  0
  7  9  1  0  0  0  0
  9 27  1  0  0  0  0
 10 11  1  0  0  0  0
 11 12  2  0  0  0  0
 11 13  1  0  0  0  0
 13 14  1  0  0  0  0
 14 16  2  0  0  0  0
 15 14  1  1  0  0  0
 15 18  1  0  0  0  0
 15 26  1  0  0  0  0
 17 19  1  1  0  0  0
 17 25  1  0  0  0  0
 17 18  1  0  0  0  0
 19 20  1  0  0  0  0
 20 21  1  6  0  0  0
 20 22  1  0  0  0  0
 22 23  1  6  0  0  0
 22 24  1  0  0  0  0
 23 28  1  0  0  0  0
 23 29  1  0  0  0  0
 25 24  1  6  0  0  0
 25 27  1  0  0  0  0
 26 10  1  6  0  0  0
 26 27  1  0  0  0  0
M  END
>  <CHROM.1>
177.49927361,176.65421981,-43.86968418,150.97384226,91.42892625,101.52893311
28.39222844,36.51427933,19.49473239,-1.07822736,1.25384915,0.43211708

>  <Name>
ligand

>  <RI>
0

>  <Rbt.Current_Directory>
/home/itssahil/PROJECTS/Mol_Feturizer/New_Systems/rnas/3F4H

>  <Rbt.Executable>
rbdock ($Id: //depot/dev/client3/rdock/2013.1/src/exe/rbdock.cxx#4 $)

>  <Rbt.Library>
libRbt.so (2013.1, Build901 2013/11/27)

>  <Rbt.Parameter_File>
/export/apps/rDock/src/rDock_2013.1_src/data/scripts/dock_solv.prm

>  <Rbt.Receptor>
prm/blind_docking_60.prm

>  <SCORE>
-42.5744

>  <SCORE.INTER>
-27.5761

>  <SCORE.INTER.CONST>
1

>  <SCORE.INTER.POLAR>
0

>  <SCORE.INTER.ROT>
6

>  <SCORE.INTER.SOLV>
10.8878

>  <SCORE.INTER.VDW>
-29.6133

>  <SCORE.INTER.norm>
-0.950901

>  <SCORE.INTRA>
-14.9983

>  <SCORE.INTRA.DIHEDRAL>
-1.37283

>  <SCORE.INTRA.DIHEDRAL.0>
6.83446

>  <SCORE.INTRA.POLAR>
0

>  <SCORE.INTRA.POLAR.0>
0

>  <SCORE.INTRA.REPUL>
0

>  <SCORE.INTRA.REPUL.0>
0

>  <SCORE.INTRA.SOLV>
0.307915

>  <SCORE.INTRA.SOLV.lig_0>
-26.4601

>  <SCORE.INTRA.VDW>
-14.4658

>  <SCORE.INTRA.VDW.0>
13.7853

>  <SCORE.INTRA.norm>
-0.517182

>  <SCORE.RESTR>
0

>  <SCORE.RESTR.CAVITY>
0

>  <SCORE.RESTR.norm>
0

>  <SCORE.SYSTEM>
0

>  <SCORE.SYSTEM.CONST>
0

>  <SCORE.SYSTEM.DIHEDRAL>
0

>  <SCORE.SYSTEM.SOLV>
0

>  <SCORE.SYSTEM.norm>
0

>  <SCORE.heavy>
29

>  <SCORE.norm>
-1.46808

>  <RMSD>
1.606

$$$$
ligand
 OpenBabel11021811473D
libRbt.so/2013.1/901 2013/11/27
 29 31  0  0  0  0  0  0  0  0999 V2000
   26.0135   40.3093   17.9118 C   0  0  0  0  0  0  0  0  0  0  0  0
   24.8935   40.9486   17.2907 O   0  0  0  0  0  0  0  0  0  0  0  0
   26.8815   39.6630   16.8408 C   0  0  1  0  0  0  0  0  0  0  0  0
   27.4232   40.6899   16.0159 O   0  0  0  0  0  0  0  0  0  0  0  0
   28.0014   38.8504   17.4777 C   0  0  1  0  0  0  0  0  0  0  0  0
   28.8073   39.7564   18.2223 O   0  0  0  0  0  0  0  0  0  0  0  0
   27.5365   37.7012   18.3771 C   0  0  1  0  0  0  0  0  0  0  0  0
   26.7356   36.8123   17.5972 O   0  0  0  0  0  0  0  0  0  0  0  0
   28.6865   36.8980   18.9815 C   0  0  0  0  0  0  0  0  0  0  0  0
   28.5159   34.1516   18.3498 N   0  0  0  0  0  0  0  0  0  0  0  0
   28.4519   32.8322   18.0134 C   0  0  0  0  0  0  0  0  0  0  0  0
   28.8152   32.4482   16.8736 O   0  0  0  0  0  0  0  0  0  0  0  0
   27.9899   31.9186   18.9044 N   0  0  0  0  0  0  0  0  0  0  0  0
   27.5843   32.2970   20.1426 C   0  0  0  0  0  0  0  0  0  0  0  0
   27.6451   33.6391   20.5002 C   0  0  1  0  0  0  0  0  0  0  0  0
   27.1555   31.4482   20.9631 O   0  0  0  0  0  0  0  0  0  0  0  0
   27.3097   35.3273   22.0790 C   0  0  1  0  0  0  0  0  0  0  0  0
   27.2486   34.0253   21.7323 N   0  0  0  0  0  0  0  0  0  0  0  0
   26.8989   35.7162   23.3493 C   0  0  0  0  0  0  0  0  0  0  0  0
   26.9523   37.0504   23.7372 C   0  0  2  0  0  0  0  0  0  0  0  0
   26.4903   37.4020   25.1280 C   0  0  0  0  0  0  0  0  0  0  0  0
   27.4255   38.0161   22.8397 C   0  0  2  0  0  0  0  0  0  0  0  0
   27.5065   39.3450   23.1502 N   0  0  0  0  0  0  0  0  0  0  0  0
   27.8344   37.6096   21.5637 C   0  0  0  0  0  0  0  0  0  0  0  0
   27.7814   36.2729   21.1699 C   0  0  2  0  0  0  0  0  0  0  0  0
   28.1224   34.5812   19.5837 C   0  0  2  0  0  0  0  0  0  0  0  0
   28.1759   35.8923   19.9332 N   0  0  0  0  0  0  0  0  0  0  0  0
   28.5484   39.8122   24.0450 C   0  0  0  0  0  0  0  0  0  0  0  0
   26.5843   40.3325   22.6143 C   0  0  0  0  0  0  0  0  0  0  0  0
  1  2  1  0  0  0  0
  3  1  1  1  0  0  0
  3  4  1  0  0  0  0
  3  5  1  0  0  0  0
  5  6  1  1  0  0  0
  5  7  1  0  0  0  0
  7  8  1  6  0  0  0
  7  9  1  0  0  0  0
  9 27  1  0  0  0  0
 10 11  1  0  0  0  0
 11 12  2  0  0  0  0
 11 13  1  0  0  0  0
 13 14  1  0  0  0  0
 14 16  2  0  0  0  0
 15 14  1  1  0  0  0
 15 18  1  0  0  0  0
 15 26  1  0  0  0  0
 17 19  1  1  0  0  0
 17 25  1  0  0  0  0
 17 18  1  0  0  0  0
 19 20  1  0  0  0  0
 20 21  1  6  0  0  0
 20 22  1  0  0  0  0
 22 23  1  6  0  0  0
 22 24  1  0  0  0  0
 23 28  1  0  0  0  0
 23 29  1  0  0  0  0
 25 24  1  6  0  0  0
 25 27  1  0  0  0  0
 26 10  1  6  0  0  0
 26 27  1  0  0  0  0
M  END
>  <CHROM.1>
64.80943053,-62.04077635,59.02851895,174.64918077,74.02120182,-77.03972371
27.50514573,36.69243455,20.03723207,-2.76428792,-1.43629631,1.88291119

>  <Name>
ligand

>  <RI>
0

>  <Rbt.Current_Directory>
/home/itssahil/PROJECTS/Mol_Feturizer/New_Systems/rnas/3F4H

>  <Rbt.Executable>
rbdock ($Id: //depot/dev/client3/rdock/2013.1/src/exe/rbdock.cxx#4 $)

>  <Rbt.Library>
libRbt.so (2013.1, Build901 2013/11/27)

>  <Rbt.Parameter_File>
/export/apps/rDock/src/rDock_2013.1_src/data/scripts/dock_solv.prm

>  <Rbt.Receptor>
prm/pocket_docking_6.prm

>  <SCORE>
-49.6612

>  <SCORE.INTER>
-31.8559

>  <SCORE.INTER.CONST>
1

>  <SCORE.INTER.POLAR>
0

>  <SCORE.INTER.ROT>
6

>  <SCORE.INTER.SOLV>
12.1422

>  <SCORE.INTER.VDW>
-32.8847

>  <SCORE.INTER.norm>
-1.09848

>  <SCORE.INTRA>
-17.8053

>  <SCORE.INTRA.DIHEDRAL>
-4.57628

>  <SCORE.INTRA.DIHEDRAL.0>
6.83446

>  <SCORE.INTRA.POLAR>
0

>  <SCORE.INTRA.POLAR.0>
0

>  <SCORE.INTRA.REPUL>
0

>  <SCORE.INTRA.REPUL.0>
0

>  <SCORE.INTRA.SOLV>
-0.543375

>  <SCORE.INTRA.SOLV.lig_0>
-26.4601

>  <SCORE.INTRA.VDW>
-15.2454

>  <SCORE.INTRA.VDW.0>
13.7853

>  <SCORE.INTRA.norm>
-0.613975

>  <SCORE.RESTR>
0

>  <SCORE.RESTR.CAVITY>
0

>  <SCORE.RESTR.norm>
0

>  <SCORE.SYSTEM>
0

>  <SCORE.SYSTEM.CONST>
0

>  <SCORE.SYSTEM.DIHEDRAL>
0

>  <SCORE.SYSTEM.SOLV>
0

>  <SCORE.SYSTEM.norm>
0

>  <SCORE.heavy>
29

>  <SCORE.norm>
-1.71246

>  <RMSD>
1.610

$$$$
ligand
 OpenBabel11021811473D
libRbt.so/2013.1/901 2013/11/27
 29 31  0  0  0  0  0  0  0  0999 V2000
   26.0106   40.2101   18.0232 C   0  0  0  0  0  0  0  0  0  0  0  0
   24.8881   40.8931   17.4554 O   0  0  0  0  0  0  0  0  0  0  0  0
   26.8790   39.6525   16.9038 C   0  0  1  0  0  0  0  0  0  0  0  0
   27.4221   40.7427   16.1657 O   0  0  0  0  0  0  0  0  0  0  0  0
   27.9978   38.7898   17.4734 C   0  0  1  0  0  0  0  0  0  0  0  0
   28.8385   39.6441   18.2402 O   0  0  0  0  0  0  0  0  0  0  0  0
   27.5323   37.6072   18.3280 C   0  0  1  0  0  0  0  0  0  0  0  0
   26.7219   36.7550   17.5176 O   0  0  0  0  0  0  0  0  0  0  0  0
   28.6816   36.7742   18.8918 C   0  0  0  0  0  0  0  0  0  0  0  0
   28.5206   34.0220   18.2830 N   0  0  0  0  0  0  0  0  0  0  0  0
   28.4612   32.6997   17.9575 C   0  0  0  0  0  0  0  0  0  0  0  0
   28.8230   32.3079   16.8199 O   0  0  0  0  0  0  0  0  0  0  0  0
   28.0052   31.7916   18.8571 N   0  0  0  0  0  0  0  0  0  0  0  0
   27.6014   32.1783   20.0933 C   0  0  0  0  0  0  0  0  0  0  0  0
   27.6576   33.5235   20.4398 C   0  0  1  0  0  0  0  0  0  0  0  0
   27.1782   31.3345   20.9218 O   0  0  0  0  0  0  0  0  0  0  0  0
   27.3195   35.2232   22.0057 C   0  0  1  0  0  0  0  0  0  0  0  0
   27.2628   33.9181   21.6698 N   0  0  0  0  0  0  0  0  0  0  0  0
   26.9105   35.6207   23.2739 C   0  0  0  0  0  0  0  0  0  0  0  0
   26.9595   36.9583   23.6508 C   0  0  2  0  0  0  0  0  0  0  0  0
   26.4998   37.3193   25.0399 C   0  0  0  0  0  0  0  0  0  0  0  0
   27.4264   37.9185   22.7442 C   0  0  2  0  0  0  0  0  0  0  0  0
   27.5027   39.2503   23.0437 N   0  0  0  0  0  0  0  0  0  0  0  0
   27.8335   37.5033   21.4704 C   0  0  0  0  0  0  0  0  0  0  0  0
   27.7849   36.1632   21.0877 C   0  0  2  0  0  0  0  0  0  0  0  0
   28.1286   34.4601   19.5144 C   0  0  2  0  0  0  0  0  0  0  0  0
   28.1777   35.7741   19.8531 N   0  0  0  0  0  0  0  0  0  0  0  0
   26.5600   40.1769   22.4461 C   0  0  0  0  0  0  0  0  0  0  0  0
   28.4991   39.7931   23.9522 C   0  0  0  0  0  0  0  0  0  0  0  0
  1  2  1  0  0  0  0
  3  1  1  1  0  0  0
  3  4  1  0  0  0  0
  3  5  1  0  0  0  0
  5  6  1  1  0  0  0
  5  7  1  0  0  0  0
  7  8  1  6  0  0  0
  7  9  1  0  0  0  0
  9 27  1  0  0  0  0
 10 11  1  0  0  0  0
 11 12  2  0  0  0  0
 11 13  1  0  0  0  0
 13 14  1  0  0  0  0
 14 16  2  0  0  0  0
 15 14  1  1  0  0  0
 15 18  1  0  0  0  0
 15 26  1  0  0  0  0
 17 19  1  1  0  0  0
 17 25  1  0  0  0  0
 17 18  1  0  0  0  0
 19 20  1  0  0  0  0
 20 21  1  6  0  0  0
 20 22  1  0  0  0  0
 22 23  1  6  0  0  0
 22 24  1  0  0  0  0
 23 28  1  0  0  0  0
 23 29  1  0  0  0  0
 25 24  1  6  0  0  0
 25 27  1  0  0  0  0
 26 10  1  6  0  0  0
 26 27  1  0  0  0  0
M  END
>  <CHROM.1>
65.08355083,-64.65139775,60.38556286,172.00926071,-107.41360840,-74.65895613
27.50724752,36.59911011,19.99636255,-2.75903163,-1.43273780,1.92372591

>  <Name>
ligand

>  <RI>
0

>  <Rbt.Current_Directory>
/home/itssahil/PROJECTS/Mol_Feturizer/New_Systems/rnas/3F4H

>  <Rbt.Executable>
rbdock ($Id: //depot/dev/client3/rdock/2013.1/src/exe/rbdock.cxx#4 $)

>  <Rbt.Library>
libRbt.so (2013.1, Build901 2013/11/27)

>  <Rbt.Parameter_File>
/export/apps/rDock/src/rDock_2013.1_src/data/scripts/dock_solv.prm

>  <Rbt.Receptor>
prm/blind_docking_100.prm

>  <SCORE>
-49.7782

>  <SCORE.INTER>
-32.0784

>  <SCORE.INTER.CONST>
1

>  <SCORE.INTER.POLAR>
0

>  <SCORE.INTER.ROT>
6

>  <SCORE.INTER.SOLV>
12.1684

>  <SCORE.INTER.VDW>
-33.0417

>  <SCORE.INTER.norm>
-1.10615

>  <SCORE.INTRA>
-17.6998

>  <SCORE.INTRA.DIHEDRAL>
-4.38601

>  <SCORE.INTRA.DIHEDRAL.0>
6.83446

>  <SCORE.INTRA.POLAR>
0

>  <SCORE.INTRA.POLAR.0>
0

>  <SCORE.INTRA.REPUL>
0

>  <SCORE.INTRA.REPUL.0>
0

>  <SCORE.INTRA.SOLV>
-0.55536

>  <SCORE.INTRA.SOLV.lig_0>
-26.4601

>  <SCORE.INTRA.VDW>
-15.2291

>  <SCORE.INTRA.VDW.0>
13.7853

>  <SCORE.INTRA.norm>
-0.610338

>  <SCORE.RESTR>
0

>  <SCORE.RESTR.CAVITY>
0

>  <SCORE.RESTR.norm>
0

>  <SCORE.SYSTEM>
0

>  <SCORE.SYSTEM.CONST>
0

>  <SCORE.SYSTEM.DIHEDRAL>
0

>  <SCORE.SYSTEM.SOLV>
0

>  <SCORE.SYSTEM.norm>
0

>  <SCORE.heavy>
29

>  <SCORE.norm>
-1.71649

>  <RMSD>
1.611

$$$$
ligand
 OpenBabel11021811473D
libRbt.so/2013.1/901 2013/11/27
 29 31  0  0  0  0  0  0  0  0999 V2000
   25.9957   40.2325   18.0098 C   0  0  0  0  0  0  0  0  0  0  0  0
   24.8879   40.9168   17.4154 O   0  0  0  0  0  0  0  0  0  0  0  0
   26.8943   39.6809   16.9115 C   0  0  1  0  0  0  0  0  0  0  0  0
   27.4409   40.7746   16.1812 O   0  0  0  0  0  0  0  0  0  0  0  0
   28.0102   38.8329   17.5081 C   0  0  1  0  0  0  0  0  0  0  0  0
   28.8133   39.6956   18.3054 O   0  0  0  0  0  0  0  0  0  0  0  0
   27.5397   37.6366   18.3405 C   0  0  1  0  0  0  0  0  0  0  0  0
   26.7563   36.7841   17.5044 O   0  0  0  0  0  0  0  0  0  0  0  0
   28.6860   36.8103   18.9204 C   0  0  0  0  0  0  0  0  0  0  0  0
   28.5082   34.0625   18.2964 N   0  0  0  0  0  0  0  0  0  0  0  0
   28.4408   32.7424   17.9636 C   0  0  0  0  0  0  0  0  0  0  0  0
   28.8014   32.3546   16.8242 O   0  0  0  0  0  0  0  0  0  0  0  0
   27.9782   31.8323   18.8578 N   0  0  0  0  0  0  0  0  0  0  0  0
   27.5755   32.2148   20.0956 C   0  0  0  0  0  0  0  0  0  0  0  0
   27.6398   33.5578   20.4495 C   0  0  1  0  0  0  0  0  0  0  0  0
   27.1460   31.3692   20.9190 O   0  0  0  0  0  0  0  0  0  0  0  0
   27.3106   35.2510   22.0243 C   0  0  1  0  0  0  0  0  0  0  0  0
   27.2461   33.9482   21.6812 N   0  0  0  0  0  0  0  0  0  0  0  0
   26.9028   35.6441   23.2942 C   0  0  0  0  0  0  0  0  0  0  0  0
   26.9598   36.9793   23.6784 C   0  0  2  0  0  0  0  0  0  0  0  0
   26.5008   37.3356   25.0690 C   0  0  0  0  0  0  0  0  0  0  0  0
   27.4337   37.9415   22.7776 C   0  0  2  0  0  0  0  0  0  0  0  0
   27.5181   39.2711   23.0844 N   0  0  0  0  0  0  0  0  0  0  0  0
   27.8396   37.5307   21.5020 C   0  0  0  0  0  0  0  0  0  0  0  0
   27.7830   36.1931   21.1120 C   0  0  2  0  0  0  0  0  0  0  0  0
   28.1177   34.4964   19.5297 C   0  0  2  0  0  0  0  0  0  0  0  0
   28.1747   35.8082   19.8757 N   0  0  0  0  0  0  0  0  0  0  0  0
   28.5705   39.7402   23.9658 C   0  0  0  0  0  0  0  0  0  0  0  0
   26.5894   40.2573   22.5574 C   0  0  0  0  0  0  0  0  0  0  0  0
  1  2  1  0  0  0  0
  3  1  1  1  0  0  0
  3  4  1  0  0  0  0
  3  5  1  0  0  0  0
  5  6  1  1  0  0  0
  5  7  1  0  0  0  0
  7  8  1  6  0  0  0
  7  9  1  0  0  0  0
  9 27  1  0  0  0  0
 10 11  1  0  0  0  0
 11 12  2  0  0  0  0
 11 13  1  0  0  0  0
 13 14  1  0  0  0  0
 14 16  2  0  0  0  0
 15 14  1  1  0  0  0
 15 18  1  0  0  0  0
 15 26  1  0  0  0  0
 17 19  1  1  0  0  0
 17 25  1  0  0  0  0
 17 18  1  0  0  0  0
 19 20  1  0  0  0  0
 20 21  1  6  0  0  0
 20 22  1  0  0  0  0
 22 23  1  6  0  0  0
 22 24  1  0  0  0  0
 23 28  1  0  0  0  0
 23 29  1  0  0  0  0
 25 24  1  6  0  0  0
 25 27  1  0  0  0  0
 26 10  1  6  0  0  0
 26 27  1  0  0  0  0
M  END
>  <CHROM.1>
64.28921552,-63.82329365,59.77410808,171.16671048,74.62581877,-75.69751667
27.50687521,36.62982139,20.01449567,-2.77262525,-1.43855043,1.90831420

>  <Name>
ligand

>  <RI>
0

>  <Rbt.Current_Directory>
/home/itssahil/PROJECTS/Mol_Feturizer/New_Systems/rnas/3F4H

>  <Rbt.Executable>
rbdock ($Id: //depot/dev/client3/rdock/2013.1/src/exe/rbdock.cxx#4 $)

>  <Rbt.Library>
libRbt.so (2013.1, Build901 2013/11/27)

>  <Rbt.Parameter_File>
/export/apps/rDock/src/rDock_2013.1_src/data/scripts/dock_solv.prm

>  <Rbt.Receptor>
prm/pocket_docking_5.prm

>  <SCORE>
-49.8039

>  <SCORE.INTER>
-32.0213

>  <SCORE.INTER.CONST>
1

>  <SCORE.INTER.POLAR>
0

>  <SCORE.INTER.ROT>
6

>  <SCORE.INTER.SOLV>
11.9842

>  <SCORE.INTER.VDW>
-32.9423

>  <SCORE.INTER.norm>
-1.10418

>  <SCORE.INTRA>
-17.7826

>  <SCORE.INTRA.DIHEDRAL>
-4.38631

>  <SCORE.INTRA.DIHEDRAL.0>
6.83446

>  <SCORE.INTRA.POLAR>
0

>  <SCORE.INTRA.POLAR.0>
0

>  <SCORE.INTRA.REPUL>
0

>  <SCORE.INTRA.REPUL.0>
0

>  <SCORE.INTRA.SOLV>
-0.555289

>  <SCORE.INTRA.SOLV.lig_0>
-26.4601

>  <SCORE.INTRA.VDW>
-15.3118

>  <SCORE.INTRA.VDW.0>
13.7853

>  <SCORE.INTRA.norm>
-0.613195

>  <SCORE.RESTR>
0

>  <SCORE.RESTR.CAVITY>
0

>  <SCORE.RESTR.norm>
0

>  <SCORE.SYSTEM>
0

>  <SCORE.SYSTEM.CONST>
0

>  <SCORE.SYSTEM.DIHEDRAL>
0

>  <SCORE.SYSTEM.SOLV>
0

>  <SCORE.SYSTEM.norm>
0

>  <SCORE.heavy>
29

>  <SCORE.norm>
-1.71738

>  <RMSD>
1.611

$$$$
ligand
 OpenBabel11021811473D
libRbt.so/2013.1/901 2013/11/27
 29 31  0  0  0  0  0  0  0  0999 V2000
   25.9700   40.2629   17.9536 C   0  0  0  0  0  0  0  0  0  0  0  0
   24.8533   40.8974   17.3217 O   0  0  0  0  0  0  0  0  0  0  0  0
   26.8837   39.6742   16.8874 C   0  0  1  0  0  0  0  0  0  0  0  0
   27.4211   40.7410   16.1118 O   0  0  0  0  0  0  0  0  0  0  0  0
   28.0064   38.8694   17.5293 C   0  0  1  0  0  0  0  0  0  0  0  0
   28.7478   39.7635   18.3513 O   0  0  0  0  0  0  0  0  0  0  0  0
   27.5485   37.6600   18.3499 C   0  0  1  0  0  0  0  0  0  0  0  0
   26.8066   36.7886   17.4955 O   0  0  0  0  0  0  0  0  0  0  0  0
   28.7024   36.8630   18.9548 C   0  0  0  0  0  0  0  0  0  0  0  0
   28.5330   34.1204   18.3062 N   0  0  0  0  0  0  0  0  0  0  0  0
   28.4695   32.8031   17.9615 C   0  0  0  0  0  0  0  0  0  0  0  0
   28.8293   32.4270   16.8181 O   0  0  0  0  0  0  0  0  0  0  0  0
   28.0116   31.8834   18.8482 N   0  0  0  0  0  0  0  0  0  0  0  0
   27.6098   32.2533   20.0903 C   0  0  0  0  0  0  0  0  0  0  0  0
   27.6702   33.5931   20.4562 C   0  0  1  0  0  0  0  0  0  0  0  0
   27.1848   31.3987   20.9067 O   0  0  0  0  0  0  0  0  0  0  0  0
   27.3381   35.2708   22.0470 C   0  0  1  0  0  0  0  0  0  0  0  0
   27.2774   33.9709   21.6921 N   0  0  0  0  0  0  0  0  0  0  0  0
   26.9312   35.6510   23.3211 C   0  0  0  0  0  0  0  0  0  0  0  0
   26.9844   36.9828   23.7173 C   0  0  2  0  0  0  0  0  0  0  0  0
   26.5267   37.3248   25.1120 C   0  0  0  0  0  0  0  0  0  0  0  0
   27.4533   37.9547   22.8244 C   0  0  2  0  0  0  0  0  0  0  0  0
   27.5338   39.2818   23.1432 N   0  0  0  0  0  0  0  0  0  0  0  0
   27.8583   37.5570   21.5445 C   0  0  0  0  0  0  0  0  0  0  0  0
   27.8056   36.2227   21.1424 C   0  0  2  0  0  0  0  0  0  0  0  0
   28.1432   34.5417   19.5441 C   0  0  2  0  0  0  0  0  0  0  0  0
   28.1963   35.8505   19.9019 N   0  0  0  0  0  0  0  0  0  0  0  0
   26.5716   40.2144   22.5875 C   0  0  0  0  0  0  0  0  0  0  0  0
   28.5536   39.8137   24.0320 C   0  0  0  0  0  0  0  0  0  0  0  0
  1  2  1  0  0  0  0
  3  1  1  1  0  0  0
  3  4  1  0  0  0  0
  3  5  1  0  0  0  0
  5  6  1  1  0  0  0
  5  7  1  0  0  0  0
  7  8  1  6  0  0  0
  7  9  1  0  0  0  0
  9 27  1  0  0  0  0
 10 11  1  0  0  0  0
 11 12  2  0  0  0  0
 11 13  1  0  0  0  0
 13 14  1  0  0  0  0
 14 16  2  0  0  0  0
 15 14  1  1  0  0  0
 15 18  1  0  0  0  0
 15 26  1  0  0  0  0
 17 19  1  1  0  0  0
 17 25  1  0  0  0  0
 17 18  1  0  0  0  0
 19 20  1  0  0  0  0
 20 21  1  6  0  0  0
 20 22  1  0  0  0  0
 22 23  1  6  0  0  0
 22 24  1  0  0  0  0
 23 28  1  0  0  0  0
 23 29  1  0  0  0  0
 25 24  1  6  0  0  0
 25 27  1  0  0  0  0
 26 10  1  6  0  0  0
 26 27  1  0  0  0  0
M  END
>  <CHROM.1>
64.64481790,-60.63293251,58.71701355,170.92258485,-105.79619447,-77.55947205
27.51823032,36.65501051,20.02346504,-2.82160785,-1.43458511,1.84760031

>  <Name>
ligand

>  <RI>
0

>  <Rbt.Current_Directory>
/home/itssahil/PROJECTS/Mol_Feturizer/New_Systems/rnas/3F4H

>  <Rbt.Executable>
rbdock ($Id: //depot/dev/client3/rdock/2013.1/src/exe/rbdock.cxx#4 $)

>  <Rbt.Library>
libRbt.so (2013.1, Build901 2013/11/27)

>  <Rbt.Parameter_File>
/export/apps/rDock/src/rDock_2013.1_src/data/scripts/dock_solv.prm

>  <Rbt.Receptor>
prm/blind_docking_80.prm

>  <SCORE>
-49.7843

>  <SCORE.INTER>
-31.987

>  <SCORE.INTER.CONST>
1

>  <SCORE.INTER.POLAR>
0

>  <SCORE.INTER.ROT>
6

>  <SCORE.INTER.SOLV>
12.0613

>  <SCORE.INTER.VDW>
-32.9451

>  <SCORE.INTER.norm>
-1.103

>  <SCORE.INTRA>
-17.7987

>  <SCORE.INTRA.DIHEDRAL>
-4.40155

>  <SCORE.INTRA.DIHEDRAL.0>
6.83446

>  <SCORE.INTRA.POLAR>
0

>  <SCORE.INTRA.POLAR.0>
0

>  <SCORE.INTRA.REPUL>
0

>  <SCORE.INTRA.REPUL.0>
0

>  <SCORE.INTRA.SOLV>
-0.556264

>  <SCORE.INTRA.SOLV.lig_0>
-26.4601

>  <SCORE.INTRA.VDW>
-15.3197

>  <SCORE.INTRA.VDW.0>
13.7853

>  <SCORE.INTRA.norm>
-0.613747

>  <SCORE.RESTR>
0.00127976

>  <SCORE.RESTR.CAVITY>
0.00127976

>  <SCORE.RESTR.norm>
4.41295e-05

>  <SCORE.SYSTEM>
0

>  <SCORE.SYSTEM.CONST>
0

>  <SCORE.SYSTEM.DIHEDRAL>
0

>  <SCORE.SYSTEM.SOLV>
0

>  <SCORE.SYSTEM.norm>
0

>  <SCORE.heavy>
29

>  <SCORE.norm>
-1.7167

>  <RMSD>
1.615

$$$$
ligand
 OpenBabel11021811473D
libRbt.so/2013.1/901 2013/11/27
 29 31  0  0  0  0  0  0  0  0999 V2000
   26.5122   40.4936   17.5945 C   0  0  0  0  0  0  0  0  0  0  0  0
   25.8472   39.8046   18.6585 O   0  0  0  0  0  0  0  0  0  0  0  0
   27.0914   39.4763   16.6210 C   0  0  1  0  0  0  0  0  0  0  0  0
   27.6334   40.1751   15.5046 O   0  0  0  0  0  0  0  0  0  0  0  0
   28.1715   38.6423   17.2980 C   0  0  1  0  0  0  0  0  0  0  0  0
   29.0908   39.5495   17.8950 O   0  0  0  0  0  0  0  0  0  0  0  0
   27.6605   37.6482   18.3451 C   0  0  1  0  0  0  0  0  0  0  0  0
   26.7764   36.7291   17.7024 O   0  0  0  0  0  0  0  0  0  0  0  0
   28.7734   36.8463   19.0168 C   0  0  0  0  0  0  0  0  0  0  0  0
   28.5492   34.1052   18.3785 N   0  0  0  0  0  0  0  0  0  0  0  0
   28.4604   32.7879   18.0394 C   0  0  0  0  0  0  0  0  0  0  0  0
   28.8467   32.3945   16.9105 O   0  0  0  0  0  0  0  0  0  0  0  0
   27.9487   31.8869   18.9159 N   0  0  0  0  0  0  0  0  0  0  0  0
   27.5172   32.2759   20.1420 C   0  0  0  0  0  0  0  0  0  0  0  0
   27.6028   33.6160   20.5021 C   0  0  1  0  0  0  0  0  0  0  0  0
   27.0424   31.4388   20.9490 O   0  0  0  0  0  0  0  0  0  0  0  0
   27.2658   35.3126   22.0717 C   0  0  1  0  0  0  0  0  0  0  0  0
   27.1807   34.0126   21.7224 N   0  0  0  0  0  0  0  0  0  0  0  0
   26.8284   35.7122   23.3297 C   0  0  0  0  0  0  0  0  0  0  0  0
   26.9056   37.0446   23.7199 C   0  0  2  0  0  0  0  0  0  0  0  0
   26.4125   37.4083   25.0969 C   0  0  0  0  0  0  0  0  0  0  0  0
   27.4300   37.9974   22.8372 C   0  0  2  0  0  0  0  0  0  0  0  0
   27.5368   39.3238   23.1510 N   0  0  0  0  0  0  0  0  0  0  0  0
   27.8652   37.5803   21.5734 C   0  0  0  0  0  0  0  0  0  0  0  0
   27.7886   36.2454   21.1774 C   0  0  2  0  0  0  0  0  0  0  0  0
   28.1312   34.5452   19.6006 C   0  0  2  0  0  0  0  0  0  0  0  0
   28.2090   35.8544   19.9525 N   0  0  0  0  0  0  0  0  0  0  0  0
   28.6059   39.7727   24.0227 C   0  0  0  0  0  0  0  0  0  0  0  0
   26.6161   40.3262   22.6407 C   0  0  0  0  0  0  0  0  0  0  0  0
  1  2  1  0  0  0  0
  3  1  1  1  0  0  0
  3  4  1  0  0  0  0
  3  5  1  0  0  0  0
  5  6  1  1  0  0  0
  5  7  1  0  0  0  0
  7  8  1  6  0  0  0
  7  9  1  0  0  0  0
  9 27  1  0  0  0  0
 10 11  1  0  0  0  0
 11 12  2  0  0  0  0
 11 13  1  0  0  0  0
 13 14  1  0  0  0  0
 14 16  2  0  0  0  0
 15 14  1  1  0  0  0
 15 18  1  0  0  0  0
 15 26  1  0  0  0  0
 17 19  1  1  0  0  0
 17 25  1  0  0  0  0
 17 18  1  0  0  0  0
 19 20  1  0  0  0  0
 20 21  1  6  0  0  0
 20 22  1  0  0  0  0
 22 23  1  6  0  0  0
 22 24  1  0  0  0  0
 23 28  1  0  0  0  0
 23 29  1  0  0  0  0
 25 24  1  6  0  0  0
 25 27  1  0  0  0  0
 26 10  1  6  0  0  0
 26 27  1  0  0  0  0
M  END
>  <CHROM.1>
174.36999527,-51.86470306,60.72961007,-176.61647618,77.13384138,-78.90534488
27.59237182,36.58812092,20.04079569,-2.28161722,-1.44669963,2.49357137

>  <Name>
ligand

>  <RI>
0

>  <Rbt.Current_Directory>
/home/itssahil/PROJECTS/Mol_Feturizer/New_Systems/rnas/3F4H

>  <Rbt.Executable>
rbdock ($Id: //depot/dev/client3/rdock/2013.1/src/exe/rbdock.cxx#4 $)

>  <Rbt.Library>
libRbt.so (2013.1, Build901 2013/11/27)

>  <Rbt.Parameter_File>
/export/apps/rDock/src/rDock_2013.1_src/data/scripts/dock_solv.prm

>  <Rbt.Receptor>
prm/pocket_docking_8.prm

>  <SCORE>
-48.6613

>  <SCORE.INTER>
-31.4017

>  <SCORE.INTER.CONST>
1

>  <SCORE.INTER.POLAR>
0

>  <SCORE.INTER.ROT>
6

>  <SCORE.INTER.SOLV>
12.2762

>  <SCORE.INTER.VDW>
-32.6265

>  <SCORE.INTER.norm>
-1.08282

>  <SCORE.INTRA>
-17.2597

>  <SCORE.INTRA.DIHEDRAL>
-4.3769

>  <SCORE.INTRA.DIHEDRAL.0>
6.83446

>  <SCORE.INTRA.POLAR>
0

>  <SCORE.INTRA.POLAR.0>
0

>  <SCORE.INTRA.REPUL>
0

>  <SCORE.INTRA.REPUL.0>
0

>  <SCORE.INTRA.SOLV>
0.204198

>  <SCORE.INTRA.SOLV.lig_0>
-26.4601

>  <SCORE.INTRA.VDW>
-15.1733

>  <SCORE.INTRA.VDW.0>
13.7853

>  <SCORE.INTRA.norm>
-0.595162

>  <SCORE.RESTR>
0

>  <SCORE.RESTR.CAVITY>
0

>  <SCORE.RESTR.norm>
0

>  <SCORE.SYSTEM>
0

>  <SCORE.SYSTEM.CONST>
0

>  <SCORE.SYSTEM.DIHEDRAL>
0

>  <SCORE.SYSTEM.SOLV>
0

>  <SCORE.SYSTEM.norm>
0

>  <SCORE.heavy>
29

>  <SCORE.norm>
-1.67798

>  <RMSD>
1.618

$$$$
ligand
 OpenBabel11021811473D
libRbt.so/2013.1/901 2013/11/27
 29 31  0  0  0  0  0  0  0  0999 V2000
   28.9044   39.7306   15.8361 C   0  0  0  0  0  0  0  0  0  0  0  0
   29.7463   40.2013   16.8938 O   0  0  0  0  0  0  0  0  0  0  0  0
   28.4574   38.3081   16.1442 C   0  0  1  0  0  0  0  0  0  0  0  0
   29.6047   37.5366   16.4861 O   0  0  0  0  0  0  0  0  0  0  0  0
   27.4532   38.2987   17.2897 C   0  0  1  0  0  0  0  0  0  0  0  0
   26.9997   36.9585   17.4402 O   0  0  0  0  0  0  0  0  0  0  0  0
   27.9892   38.8242   18.6247 C   0  0  1  0  0  0  0  0  0  0  0  0
   26.9028   38.9034   19.5483 O   0  0  0  0  0  0  0  0  0  0  0  0
   29.0704   37.9367   19.2379 C   0  0  0  0  0  0  0  0  0  0  0  0
   28.9162   35.3457   18.1268 N   0  0  0  0  0  0  0  0  0  0  0  0
   28.8630   34.1062   17.5621 C   0  0  0  0  0  0  0  0  0  0  0  0
   29.3184   33.9135   16.4071 O   0  0  0  0  0  0  0  0  0  0  0  0
   28.3124   33.0670   18.2393 N   0  0  0  0  0  0  0  0  0  0  0  0
   27.8062   33.2385   19.4865 C   0  0  0  0  0  0  0  0  0  0  0  0
   27.8548   34.4968   20.0755 C   0  0  1  0  0  0  0  0  0  0  0  0
   27.2957   32.2742   20.1085 O   0  0  0  0  0  0  0  0  0  0  0  0
   27.4076   35.8976   21.8902 C   0  0  1  0  0  0  0  0  0  0  0  0
   27.3583   34.6769   21.3187 N   0  0  0  0  0  0  0  0  0  0  0  0
   26.8936   36.0741   23.1702 C   0  0  0  0  0  0  0  0  0  0  0  0
   26.9321   37.3197   23.7870 C   0  0  2  0  0  0  0  0  0  0  0  0
   26.3562   37.4402   25.1745 C   0  0  0  0  0  0  0  0  0  0  0  0
   27.4952   38.4111   23.1134 C   0  0  2  0  0  0  0  0  0  0  0  0
   27.5678   39.6640   23.6557 N   0  0  0  0  0  0  0  0  0  0  0  0
   28.0075   38.2183   21.8246 C   0  0  0  0  0  0  0  0  0  0  0  0
   27.9699   36.9712   21.2016 C   0  0  2  0  0  0  0  0  0  0  0  0
   28.4232   35.5682   19.3795 C   0  0  2  0  0  0  0  0  0  0  0  0
   28.4649   36.7975   19.9547 N   0  0  0  0  0  0  0  0  0  0  0  0
   28.7174   40.0341   24.4593 C   0  0  0  0  0  0  0  0  0  0  0  0
   26.5312   40.6639   23.4596 C   0  0  0  0  0  0  0  0  0  0  0  0
  1  2  1  0  0  0  0
  3  1  1  1  0  0  0
  3  4  1  0  0  0  0
  3  5  1  0  0  0  0
  5  6  1  1  0  0  0
  5  7  1  0  0  0  0
  7  8  1  1  0  0  0
  7  9  1  0  0  0  0
  9 27  1  0  0  0  0
 10 11  1  0  0  0  0
 11 12  2  0  0  0  0
 11 13  1  0  0  0  0
 13 14  1  0  0  0  0
 14 16  2  0  0  0  0
 15 14  1  1  0  0  0
 15 18  1  0  0  0  0
 15 26  1  0  0  0  0
 17 19  1  1  0  0  0
 17 25  1  0  0  0  0
 17 18  1  0  0  0  0
 19 20  1  0  0  0  0
 20 21  1  6  0  0  0
 20 22  1  0  0  0  0
 22 23  1  6  0  0  0
 22 24  1  0  0  0  0
 23 28  1  0  0  0  0
 23 29  1  0  0  0  0
 25 24  1  6  0  0  0
 25 27  1  0  0  0  0
 26 10  1  6  0  0  0
 26 27  1  0  0  0  0
M  END
>  <CHROM.1>
-49.75109916,175.10891615,173.19169387,-81.58104591,88.50852995,-80.08375002
28.00190013,36.97048398,19.92638407,-0.58707423,1.33071660,0.22317539

>  <Name>
ligand

>  <RI>
0

>  <Rbt.Current_Directory>
/home/itssahil/PROJECTS/Mol_Feturizer/New_Systems/rnas/3F4H

>  <Rbt.Executable>
rbdock ($Id: //depot/dev/client3/rdock/2013.1/src/exe/rbdock.cxx#4 $)

>  <Rbt.Library>
libRbt.so (2013.1, Build901 2013/11/27)

>  <Rbt.Parameter_File>
/export/apps/rDock/src/rDock_2013.1_src/data/scripts/dock_solv.prm

>  <Rbt.Receptor>
prm/pocket_docking_3.prm

>  <SCORE>
-43.0199

>  <SCORE.INTER>
-27.2313

>  <SCORE.INTER.CONST>
1

>  <SCORE.INTER.POLAR>
0

>  <SCORE.INTER.ROT>
6

>  <SCORE.INTER.SOLV>
8.69253

>  <SCORE.INTER.VDW>
-28.6517

>  <SCORE.INTER.norm>
-0.939009

>  <SCORE.INTRA>
-15.7886

>  <SCORE.INTRA.DIHEDRAL>
-2.63403

>  <SCORE.INTRA.DIHEDRAL.0>
6.83446

>  <SCORE.INTRA.POLAR>
0

>  <SCORE.INTRA.POLAR.0>
0

>  <SCORE.INTRA.REPUL>
0.0036329

>  <SCORE.INTRA.REPUL.0>
0

>  <SCORE.INTRA.SOLV>
1.42465

>  <SCORE.INTRA.SOLV.lig_0>
-26.4601

>  <SCORE.INTRA.VDW>
-15.2021

>  <SCORE.INTRA.VDW.0>
13.7853

>  <SCORE.INTRA.norm>
-0.544436

>  <SCORE.RESTR>
0

>  <SCORE.RESTR.CAVITY>
0

>  <SCORE.RESTR.norm>
0

>  <SCORE.SYSTEM>
0

>  <SCORE.SYSTEM.CONST>
0

>  <SCORE.SYSTEM.DIHEDRAL>
0

>  <SCORE.SYSTEM.SOLV>
0

>  <SCORE.SYSTEM.norm>
0

>  <SCORE.heavy>
29

>  <SCORE.norm>
-1.48345

>  <RMSD>
1.623

$$$$
ligand
 OpenBabel11021811473D
libRbt.so/2013.1/901 2013/11/27
 29 31  0  0  0  0  0  0  0  0999 V2000
   26.5096   40.4795   17.6018 C   0  0  0  0  0  0  0  0  0  0  0  0
   25.8057   39.7879   18.6386 O   0  0  0  0  0  0  0  0  0  0  0  0
   27.0807   39.4664   16.6192 C   0  0  1  0  0  0  0  0  0  0  0  0
   27.6208   40.1702   15.5050 O   0  0  0  0  0  0  0  0  0  0  0  0
   28.1603   38.6236   17.2861 C   0  0  1  0  0  0  0  0  0  0  0  0
   29.0972   39.5234   17.8667 O   0  0  0  0  0  0  0  0  0  0  0  0
   27.6521   37.6403   18.3446 C   0  0  1  0  0  0  0  0  0  0  0  0
   26.7331   36.7414   17.7225 O   0  0  0  0  0  0  0  0  0  0  0  0
   28.7624   36.8134   18.9898 C   0  0  0  0  0  0  0  0  0  0  0  0
   28.5504   34.0659   18.3754 N   0  0  0  0  0  0  0  0  0  0  0  0
   28.4677   32.7453   18.0479 C   0  0  0  0  0  0  0  0  0  0  0  0
   28.8599   32.3431   16.9241 O   0  0  0  0  0  0  0  0  0  0  0  0
   27.9556   31.8504   18.9304 N   0  0  0  0  0  0  0  0  0  0  0  0
   27.5177   32.2489   20.1512 C   0  0  0  0  0  0  0  0  0  0  0  0
   27.5971   33.5924   20.4996 C   0  0  1  0  0  0  0  0  0  0  0  0
   27.0426   31.4174   20.9638 O   0  0  0  0  0  0  0  0  0  0  0  0
   27.2479   35.3019   22.0523 C   0  0  1  0  0  0  0  0  0  0  0  0
   27.1687   33.9985   21.7145 N   0  0  0  0  0  0  0  0  0  0  0  0
   26.8040   35.7113   23.3049 C   0  0  0  0  0  0  0  0  0  0  0  0
   26.8748   37.0474   23.6834 C   0  0  2  0  0  0  0  0  0  0  0  0
   26.3750   37.4217   25.0550 C   0  0  0  0  0  0  0  0  0  0  0  0
   27.3995   37.9941   22.7943 C   0  0  2  0  0  0  0  0  0  0  0  0
   27.5004   39.3236   23.0964 N   0  0  0  0  0  0  0  0  0  0  0  0
   27.8413   37.5671   21.5361 C   0  0  0  0  0  0  0  0  0  0  0  0
   27.7710   36.2284   21.1518 C   0  0  2  0  0  0  0  0  0  0  0  0
   28.1260   34.5153   19.5918 C   0  0  2  0  0  0  0  0  0  0  0  0
   28.1977   35.8279   19.9322 N   0  0  0  0  0  0  0  0  0  0  0  0
   28.5612   39.7835   23.9726 C   0  0  0  0  0  0  0  0  0  0  0  0
   26.5812   40.3188   22.5695 C   0  0  0  0  0  0  0  0  0  0  0  0
  1  2  1  0  0  0  0
  3  1  1  1  0  0  0
  3  4  1  0  0  0  0
  3  5  1  0  0  0  0
  5  6  1  1  0  0  0
  5  7  1  0  0  0  0
  7  8  1  6  0  0  0
  7  9  1  0  0  0  0
  9 27  1  0  0  0  0
 10 11  1  0  0  0  0
 11 12  2  0  0  0  0
 11 13  1  0  0  0  0
 13 14  1  0  0  0  0
 14 16  2  0  0  0  0
 15 14  1  1  0  0  0
 15 18  1  0  0  0  0
 15 26  1  0  0  0  0
 17 19  1  1  0  0  0
 17 25  1  0  0  0  0
 17 18  1  0  0  0  0
 19 20  1  0  0  0  0
 20 21  1  6  0  0  0
 20 22  1  0  0  0  0
 22 23  1  6  0  0  0
 22 24  1  0  0  0  0
 23 28  1  0  0  0  0
 23 29  1  0  0  0  0
 25 24  1  6  0  0  0
 25 27  1  0  0  0  0
 26 10  1  6  0  0  0
 26 27  1  0  0  0  0
M  END
>  <CHROM.1>
172.33570959,-52.78242840,59.80561162,-176.27679125,76.89664725,-76.82595610
27.57708568,36.57248670,20.02556603,-2.27120618,-1.43972594,2.49262148

>  <Name>
ligand

>  <RI>
0

>  <Rbt.Current_Directory>
/home/itssahil/PROJECTS/Mol_Feturizer/New_Systems/rnas/3F4H

>  <Rbt.Executable>
rbdock ($Id: //depot/dev/client3/rdock/2013.1/src/exe/rbdock.cxx#4 $)

>  <Rbt.Library>
libRbt.so (2013.1, Build901 2013/11/27)

>  <Rbt.Parameter_File>
/export/apps/rDock/src/rDock_2013.1_src/data/scripts/dock_solv.prm

>  <Rbt.Receptor>
prm/pocket_docking_4.prm

>  <SCORE>
-48.6373

>  <SCORE.INTER>
-31.3596

>  <SCORE.INTER.CONST>
1

>  <SCORE.INTER.POLAR>
0

>  <SCORE.INTER.ROT>
6

>  <SCORE.INTER.SOLV>
12.5059

>  <SCORE.INTER.VDW>
-32.6751

>  <SCORE.INTER.norm>
-1.08137

>  <SCORE.INTRA>
-17.2777

>  <SCORE.INTRA.DIHEDRAL>
-4.32622

>  <SCORE.INTRA.DIHEDRAL.0>
6.83446

>  <SCORE.INTRA.POLAR>
0

>  <SCORE.INTRA.POLAR.0>
0

>  <SCORE.INTRA.REPUL>
0

>  <SCORE.INTRA.REPUL.0>
0

>  <SCORE.INTRA.SOLV>
0.197961

>  <SCORE.INTRA.SOLV.lig_0>
-26.4601

>  <SCORE.INTRA.VDW>
-15.2136

>  <SCORE.INTRA.VDW.0>
13.7853

>  <SCORE.INTRA.norm>
-0.595783

>  <SCORE.RESTR>
0

>  <SCORE.RESTR.CAVITY>
0

>  <SCORE.RESTR.norm>
0

>  <SCORE.SYSTEM>
0

>  <SCORE.SYSTEM.CONST>
0

>  <SCORE.SYSTEM.DIHEDRAL>
0

>  <SCORE.SYSTEM.SOLV>
0

>  <SCORE.SYSTEM.norm>
0

>  <SCORE.heavy>
29

>  <SCORE.norm>
-1.67715

>  <RMSD>
1.623

$$$$
ligand
 OpenBabel11021811473D
libRbt.so/2013.1/901 2013/11/27
 29 31  0  0  0  0  0  0  0  0999 V2000
   26.4205   40.4246   17.5447 C   0  0  0  0  0  0  0  0  0  0  0  0
   25.7279   39.7176   18.5788 O   0  0  0  0  0  0  0  0  0  0  0  0
   27.0354   39.4238   16.5759 C   0  0  1  0  0  0  0  0  0  0  0  0
   27.5730   40.1379   15.4672 O   0  0  0  0  0  0  0  0  0  0  0  0
   28.1274   38.6146   17.2637 C   0  0  1  0  0  0  0  0  0  0  0  0
   29.0042   39.5416   17.8934 O   0  0  0  0  0  0  0  0  0  0  0  0
   27.6271   37.5889   18.2851 C   0  0  1  0  0  0  0  0  0  0  0  0
   26.7789   36.6576   17.6123 O   0  0  0  0  0  0  0  0  0  0  0  0
   28.7506   36.8058   18.9613 C   0  0  0  0  0  0  0  0  0  0  0  0
   28.5315   34.0593   18.3449 N   0  0  0  0  0  0  0  0  0  0  0  0
   28.4449   32.7392   18.0162 C   0  0  0  0  0  0  0  0  0  0  0  0
   28.8214   32.3393   16.8862 O   0  0  0  0  0  0  0  0  0  0  0  0
   27.9457   31.8424   18.9042 N   0  0  0  0  0  0  0  0  0  0  0  0
   27.5250   32.2384   20.1318 C   0  0  0  0  0  0  0  0  0  0  0  0
   27.6085   33.5814   20.4815 C   0  0  1  0  0  0  0  0  0  0  0  0
   27.0618   31.4052   20.9495 O   0  0  0  0  0  0  0  0  0  0  0  0
   27.2803   35.2879   22.0421 C   0  0  1  0  0  0  0  0  0  0  0  0
   27.1971   33.9850   21.7031 N   0  0  0  0  0  0  0  0  0  0  0  0
   26.8539   35.6947   23.3016 C   0  0  0  0  0  0  0  0  0  0  0  0
   26.9293   37.0302   23.6815 C   0  0  2  0  0  0  0  0  0  0  0  0
   26.4487   37.4017   25.0607 C   0  0  0  0  0  0  0  0  0  0  0  0
   27.4409   37.9787   22.7868 C   0  0  2  0  0  0  0  0  0  0  0  0
   27.5453   39.3078   23.0899 N   0  0  0  0  0  0  0  0  0  0  0  0
   27.8651   37.5543   21.5217 C   0  0  0  0  0  0  0  0  0  0  0  0
   27.7901   36.2163   21.1360 C   0  0  2  0  0  0  0  0  0  0  0  0
   28.1240   34.5063   19.5680 C   0  0  2  0  0  0  0  0  0  0  0  0
   28.1998   35.8183   19.9098 N   0  0  0  0  0  0  0  0  0  0  0  0
   26.6429   40.2597   22.4702 C   0  0  0  0  0  0  0  0  0  0  0  0
   28.5327   39.8232   24.0238 C   0  0  0  0  0  0  0  0  0  0  0  0
  1  2  1  0  0  0  0
  3  1  1  1  0  0  0
  3  4  1  0  0  0  0
  3  5  1  0  0  0  0
  5  6  1  1  0  0  0
  5  7  1  0  0  0  0
  7  8  1  6  0  0  0
  7  9  1  0  0  0  0
  9 27  1  0  0  0  0
 10 11  1  0  0  0  0
 11 12  2  0  0  0  0
 11 13  1  0  0  0  0
 13 14  1  0  0  0  0
 14 16  2  0  0  0  0
 15 14  1  1  0  0  0
 15 18  1  0  0  0  0
 15 26  1  0  0  0  0
 17 19  1  1  0  0  0
 17 25  1  0  0  0  0
 17 18  1  0  0  0  0
 19 20  1  0  0  0  0
 20 21  1  6  0  0  0
 20 22  1  0  0  0  0
 22 23  1  6  0  0  0
 22 24  1  0  0  0  0
 23 28  1  0  0  0  0
 23 29  1  0  0  0  0
 25 24  1  6  0  0  0
 25 27  1  0  0  0  0
 26 10  1  6  0  0  0
 26 27  1  0  0  0  0
M  END
>  <CHROM.1>
172.73861560,-50.83956342,60.30473857,-178.81329819,-107.59032340,-79.45565597
27.57461215,36.55237830,19.99967845,-2.38164018,-1.45162473,2.38697555

>  <Name>
ligand

>  <RI>
0

>  <Rbt.Current_Directory>
/home/itssahil/PROJECTS/Mol_Feturizer/New_Systems/rnas/3F4H

>  <Rbt.Executable>
rbdock ($Id: //depot/dev/client3/rdock/2013.1/src/exe/rbdock.cxx#4 $)

>  <Rbt.Library>
libRbt.so (2013.1, Build901 2013/11/27)

>  <Rbt.Parameter_File>
/export/apps/rDock/src/rDock_2013.1_src/data/scripts/dock_solv.prm

>  <Rbt.Receptor>
prm/pocket_docking_7.prm

>  <SCORE>
-48.6893

>  <SCORE.INTER>
-31.5465

>  <SCORE.INTER.CONST>
1

>  <SCORE.INTER.POLAR>
0

>  <SCORE.INTER.ROT>
6

>  <SCORE.INTER.SOLV>
12.5659

>  <SCORE.INTER.VDW>
-32.8196

>  <SCORE.INTER.norm>
-1.08781

>  <SCORE.INTRA>
-17.1428

>  <SCORE.INTRA.DIHEDRAL>
-4.27516

>  <SCORE.INTRA.DIHEDRAL.0>
6.83446

>  <SCORE.INTRA.POLAR>
0

>  <SCORE.INTRA.POLAR.0>
0

>  <SCORE.INTRA.REPUL>
0

>  <SCORE.INTRA.REPUL.0>
0

>  <SCORE.INTRA.SOLV>
0.186173

>  <SCORE.INTRA.SOLV.lig_0>
-26.4601

>  <SCORE.INTRA.VDW>
-15.0983

>  <SCORE.INTRA.VDW.0>
13.7853

>  <SCORE.INTRA.norm>
-0.591132

>  <SCORE.RESTR>
0

>  <SCORE.RESTR.CAVITY>
0

>  <SCORE.RESTR.norm>
0

>  <SCORE.SYSTEM>
0

>  <SCORE.SYSTEM.CONST>
0

>  <SCORE.SYSTEM.DIHEDRAL>
0

>  <SCORE.SYSTEM.SOLV>
0

>  <SCORE.SYSTEM.norm>
0

>  <SCORE.heavy>
29

>  <SCORE.norm>
-1.67894

>  <RMSD>
1.623

$$$$
ligand
 OpenBabel11021811473D
libRbt.so/2013.1/901 2013/11/27
 29 31  0  0  0  0  0  0  0  0999 V2000
   25.9879   40.2547   17.9959 C   0  0  0  0  0  0  0  0  0  0  0  0
   24.8453   40.8920   17.4152 O   0  0  0  0  0  0  0  0  0  0  0  0
   26.8384   39.6430   16.8911 C   0  0  1  0  0  0  0  0  0  0  0  0
   27.3723   40.6960   16.0945 O   0  0  0  0  0  0  0  0  0  0  0  0
   27.9642   38.8053   17.4837 C   0  0  1  0  0  0  0  0  0  0  0  0
   28.7776   39.6805   18.2564 O   0  0  0  0  0  0  0  0  0  0  0  0
   27.5076   37.6207   18.3404 C   0  0  1  0  0  0  0  0  0  0  0  0
   26.7052   36.7601   17.5310 O   0  0  0  0  0  0  0  0  0  0  0  0
   28.6632   36.7985   18.9072 C   0  0  0  0  0  0  0  0  0  0  0  0
   28.5037   34.0476   18.2923 N   0  0  0  0  0  0  0  0  0  0  0  0
   28.4448   32.7260   17.9637 C   0  0  0  0  0  0  0  0  0  0  0  0
   28.8010   32.3378   16.8231 O   0  0  0  0  0  0  0  0  0  0  0  0
   27.9955   31.8148   18.8635 N   0  0  0  0  0  0  0  0  0  0  0  0
   27.5978   32.1977   20.1030 C   0  0  0  0  0  0  0  0  0  0  0  0
   27.6536   33.5421   20.4526 C   0  0  1  0  0  0  0  0  0  0  0  0
   27.1807   31.3510   20.9316 O   0  0  0  0  0  0  0  0  0  0  0  0
   27.3212   35.2372   22.0247 C   0  0  1  0  0  0  0  0  0  0  0  0
   27.2649   33.9329   21.6857 N   0  0  0  0  0  0  0  0  0  0  0  0
   26.9185   35.6307   23.2961 C   0  0  0  0  0  0  0  0  0  0  0  0
   26.9672   36.9674   23.6761 C   0  0  2  0  0  0  0  0  0  0  0  0
   26.5146   37.3240   25.0688 C   0  0  0  0  0  0  0  0  0  0  0  0
   27.4273   37.9307   22.7694 C   0  0  2  0  0  0  0  0  0  0  0  0
   27.5030   39.2619   23.0719 N   0  0  0  0  0  0  0  0  0  0  0  0
   27.8281   37.5196   21.4924 C   0  0  0  0  0  0  0  0  0  0  0  0
   27.7798   36.1804   21.1065 C   0  0  2  0  0  0  0  0  0  0  0  0
   28.1178   34.4819   19.5269 C   0  0  2  0  0  0  0  0  0  0  0  0
   28.1664   35.7951   19.8688 N   0  0  0  0  0  0  0  0  0  0  0  0
   28.5579   39.7422   23.9442 C   0  0  0  0  0  0  0  0  0  0  0  0
   26.5623   40.2389   22.5491 C   0  0  0  0  0  0  0  0  0  0  0  0
  1  2  1  0  0  0  0
  3  1  1  1  0  0  0
  3  4  1  0  0  0  0
  3  5  1  0  0  0  0
  5  6  1  1  0  0  0
  5  7  1  0  0  0  0
  7  8  1  6  0  0  0
  7  9  1  0  0  0  0
  9 27  1  0  0  0  0
 10 11  1  0  0  0  0
 11 12  2  0  0  0  0
 11 13  1  0  0  0  0
 13 14  1  0  0  0  0
 14 16  2  0  0  0  0
 15 14  1  1  0  0  0
 15 18  1  0  0  0  0
 15 26  1  0  0  0  0
 17 19  1  1  0  0  0
 17 25  1  0  0  0  0
 17 18  1  0  0  0  0
 19 20  1  0  0  0  0
 20 21  1  6  0  0  0
 20 22  1  0  0  0  0
 22 23  1  6  0  0  0
 22 24  1  0  0  0  0
 23 28  1  0  0  0  0
 23 29  1  0  0  0  0
 25 24  1  6  0  0  0
 25 27  1  0  0  0  0
 26 10  1  6  0  0  0
 26 27  1  0  0  0  0
M  END
>  <CHROM.1>
66.13753165,-61.58420715,59.35999355,172.08778875,74.67038412,-75.27971684
27.49576456,36.61272528,20.00608312,-2.81894416,-1.43334432,1.85360146

>  <Name>
ligand

>  <RI>
0

>  <Rbt.Current_Directory>
/home/itssahil/PROJECTS/Mol_Feturizer/New_Systems/rnas/3F4H

>  <Rbt.Executable>
rbdock ($Id: //depot/dev/client3/rdock/2013.1/src/exe/rbdock.cxx#4 $)

>  <Rbt.Library>
libRbt.so (2013.1, Build901 2013/11/27)

>  <Rbt.Parameter_File>
/export/apps/rDock/src/rDock_2013.1_src/data/scripts/dock_solv.prm

>  <Rbt.Receptor>
prm/pocket_docking_7.prm

>  <SCORE>
-49.7724

>  <SCORE.INTER>
-31.9705

>  <SCORE.INTER.CONST>
1

>  <SCORE.INTER.POLAR>
0

>  <SCORE.INTER.ROT>
6

>  <SCORE.INTER.SOLV>
12.2955

>  <SCORE.INTER.VDW>
-33.0122

>  <SCORE.INTER.norm>
-1.10243

>  <SCORE.INTRA>
-17.8019

>  <SCORE.INTRA.DIHEDRAL>
-4.4148

>  <SCORE.INTRA.DIHEDRAL.0>
6.83446

>  <SCORE.INTRA.POLAR>
0

>  <SCORE.INTRA.POLAR.0>
0

>  <SCORE.INTRA.REPUL>
0

>  <SCORE.INTRA.REPUL.0>
0

>  <SCORE.INTRA.SOLV>
-0.563378

>  <SCORE.INTRA.SOLV.lig_0>
-26.4601

>  <SCORE.INTRA.VDW>
-15.3128

>  <SCORE.INTRA.VDW.0>
13.7853

>  <SCORE.INTRA.norm>
-0.613859

>  <SCORE.RESTR>
0

>  <SCORE.RESTR.CAVITY>
0

>  <SCORE.RESTR.norm>
0

>  <SCORE.SYSTEM>
0

>  <SCORE.SYSTEM.CONST>
0

>  <SCORE.SYSTEM.DIHEDRAL>
0

>  <SCORE.SYSTEM.SOLV>
0

>  <SCORE.SYSTEM.norm>
0

>  <SCORE.heavy>
29

>  <SCORE.norm>
-1.71629

>  <RMSD>
1.624

$$$$
ligand
 OpenBabel11021811473D
libRbt.so/2013.1/901 2013/11/27
 29 31  0  0  0  0  0  0  0  0999 V2000
   25.9323   40.2099   17.9847 C   0  0  0  0  0  0  0  0  0  0  0  0
   24.8101   40.8418   17.3601 O   0  0  0  0  0  0  0  0  0  0  0  0
   26.8714   39.6771   16.9112 C   0  0  1  0  0  0  0  0  0  0  0  0
   27.4085   40.7815   16.1901 O   0  0  0  0  0  0  0  0  0  0  0  0
   27.9930   38.8595   17.5389 C   0  0  1  0  0  0  0  0  0  0  0  0
   28.7392   39.7394   18.3719 O   0  0  0  0  0  0  0  0  0  0  0  0
   27.5332   37.6399   18.3431 C   0  0  1  0  0  0  0  0  0  0  0  0
   26.7961   36.7778   17.4752 O   0  0  0  0  0  0  0  0  0  0  0  0
   28.6856   36.8373   18.9436 C   0  0  0  0  0  0  0  0  0  0  0  0
   28.5000   34.0921   18.3107 N   0  0  0  0  0  0  0  0  0  0  0  0
   28.4286   32.7733   17.9736 C   0  0  0  0  0  0  0  0  0  0  0  0
   28.7815   32.3891   16.8306 O   0  0  0  0  0  0  0  0  0  0  0  0
   27.9702   31.8606   18.8673 N   0  0  0  0  0  0  0  0  0  0  0  0
   27.5758   32.2392   20.1090 C   0  0  0  0  0  0  0  0  0  0  0  0
   27.6442   33.5807   20.4674 C   0  0  1  0  0  0  0  0  0  0  0  0
   27.1502   31.3912   20.9320 O   0  0  0  0  0  0  0  0  0  0  0  0
   27.3274   35.2687   22.0504 C   0  0  1  0  0  0  0  0  0  0  0  0
   27.2588   33.9672   21.7029 N   0  0  0  0  0  0  0  0  0  0  0  0
   26.9280   35.6577   23.3242 C   0  0  0  0  0  0  0  0  0  0  0  0
   26.9893   36.9914   23.7129 C   0  0  2  0  0  0  0  0  0  0  0  0
   26.5395   37.3433   25.1076 C   0  0  0  0  0  0  0  0  0  0  0  0
   27.4590   37.9562   22.8126 C   0  0  2  0  0  0  0  0  0  0  0  0
   27.5473   39.2845   23.1238 N   0  0  0  0  0  0  0  0  0  0  0  0
   27.8563   37.5495   21.5331 C   0  0  0  0  0  0  0  0  0  0  0  0
   27.7954   36.2134   21.1385 C   0  0  2  0  0  0  0  0  0  0  0  0
   28.1177   34.5220   19.5480 C   0  0  2  0  0  0  0  0  0  0  0  0
   28.1788   35.8325   19.8984 N   0  0  0  0  0  0  0  0  0  0  0  0
   26.6044   40.2229   22.5450 C   0  0  0  0  0  0  0  0  0  0  0  0
   28.5567   39.8124   24.0267 C   0  0  0  0  0  0  0  0  0  0  0  0
  1  2  1  0  0  0  0
  3  1  1  1  0  0  0
  3  4  1  0  0  0  0
  3  5  1  0  0  0  0
  5  6  1  1  0  0  0
  5  7  1  0  0  0  0
  7  8  1  6  0  0  0
  7  9  1  0  0  0  0
  9 27  1  0  0  0  0
 10 11  1  0  0  0  0
 11 12  2  0  0  0  0
 11 13  1  0  0  0  0
 13 14  1  0  0  0  0
 14 16  2  0  0  0  0
 15 14  1  1  0  0  0
 15 18  1  0  0  0  0
 15 26  1  0  0  0  0
 17 19  1  1  0  0  0
 17 25  1  0  0  0  0
 17 18  1  0  0  0  0
 19 20  1  0  0  0  0
 20 21  1  6  0  0  0
 20 22  1  0  0  0  0
 22 23  1  6  0  0  0
 22 24  1  0  0  0  0
 23 28  1  0  0  0  0
 23 29  1  0  0  0  0
 25 24  1  6  0  0  0
 25 27  1  0  0  0  0
 26 10  1  6  0  0  0
 26 27  1  0  0  0  0
M  END
>  <CHROM.1>
65.37906897,-62.74886873,59.19895745,169.70063385,-107.09269264,-77.35803936
27.50279473,36.64366681,20.03031547,-2.86199734,-1.44001267,1.81642452

>  <Name>
ligand

>  <RI>
0

>  <Rbt.Current_Directory>
/home/itssahil/PROJECTS/Mol_Feturizer/New_Systems/rnas/3F4H

>  <Rbt.Executable>
rbdock ($Id: //depot/dev/client3/rdock/2013.1/src/exe/rbdock.cxx#4 $)

>  <Rbt.Library>
libRbt.so (2013.1, Build901 2013/11/27)

>  <Rbt.Parameter_File>
/export/apps/rDock/src/rDock_2013.1_src/data/scripts/dock_solv.prm

>  <Rbt.Receptor>
prm/pocket_docking_6.prm

>  <SCORE>
-49.7058

>  <SCORE.INTER>
-32.0386

>  <SCORE.INTER.CONST>
1

>  <SCORE.INTER.POLAR>
0

>  <SCORE.INTER.ROT>
6

>  <SCORE.INTER.SOLV>
12.0319

>  <SCORE.INTER.VDW>
-32.9697

>  <SCORE.INTER.norm>
-1.10478

>  <SCORE.INTRA>
-17.676

>  <SCORE.INTRA.DIHEDRAL>
-4.27222

>  <SCORE.INTRA.DIHEDRAL.0>
6.83446

>  <SCORE.INTRA.POLAR>
0

>  <SCORE.INTRA.POLAR.0>
0

>  <SCORE.INTRA.REPUL>
0

>  <SCORE.INTRA.REPUL.0>
0

>  <SCORE.INTRA.SOLV>
-0.559477

>  <SCORE.INTRA.SOLV.lig_0>
-26.4601

>  <SCORE.INTRA.VDW>
-15.2602

>  <SCORE.INTRA.VDW.0>
13.7853

>  <SCORE.INTRA.norm>
-0.609519

>  <SCORE.RESTR>
0.00880847

>  <SCORE.RESTR.CAVITY>
0.00880847

>  <SCORE.RESTR.norm>
0.00030374

>  <SCORE.SYSTEM>
0

>  <SCORE.SYSTEM.CONST>
0

>  <SCORE.SYSTEM.DIHEDRAL>
0

>  <SCORE.SYSTEM.SOLV>
0

>  <SCORE.SYSTEM.norm>
0

>  <SCORE.heavy>
29

>  <SCORE.norm>
-1.71399

>  <RMSD>
1.625

$$$$
ligand
 OpenBabel11021811473D
libRbt.so/2013.1/901 2013/11/27
 29 31  0  0  0  0  0  0  0  0999 V2000
   26.3987   40.4457   17.6032 C   0  0  0  0  0  0  0  0  0  0  0  0
   25.7519   39.7221   18.6553 O   0  0  0  0  0  0  0  0  0  0  0  0
   27.0215   39.4602   16.6239 C   0  0  1  0  0  0  0  0  0  0  0  0
   27.5554   40.1906   15.5239 O   0  0  0  0  0  0  0  0  0  0  0  0
   28.1184   38.6509   17.3037 C   0  0  1  0  0  0  0  0  0  0  0  0
   28.9951   39.5774   17.9343 O   0  0  0  0  0  0  0  0  0  0  0  0
   27.6248   37.6192   18.3223 C   0  0  1  0  0  0  0  0  0  0  0  0
   26.7312   36.7227   17.6610 O   0  0  0  0  0  0  0  0  0  0  0  0
   28.7488   36.7949   18.9469 C   0  0  0  0  0  0  0  0  0  0  0  0
   28.5356   34.0500   18.3216 N   0  0  0  0  0  0  0  0  0  0  0  0
   28.4517   32.7308   17.9885 C   0  0  0  0  0  0  0  0  0  0  0  0
   28.8263   32.3358   16.8562 O   0  0  0  0  0  0  0  0  0  0  0  0
   27.9574   31.8296   18.8748 N   0  0  0  0  0  0  0  0  0  0  0  0
   27.5388   32.2202   20.1048 C   0  0  0  0  0  0  0  0  0  0  0  0
   27.6196   33.5622   20.4589 C   0  0  1  0  0  0  0  0  0  0  0  0
   27.0801   31.3829   20.9208 O   0  0  0  0  0  0  0  0  0  0  0  0
   27.2908   35.2623   22.0264 C   0  0  1  0  0  0  0  0  0  0  0  0
   27.2103   33.9604   21.6830 N   0  0  0  0  0  0  0  0  0  0  0  0
   26.8667   35.6636   23.2883 C   0  0  0  0  0  0  0  0  0  0  0  0
   26.9395   36.9980   23.6726 C   0  0  2  0  0  0  0  0  0  0  0  0
   26.4615   37.3634   25.0544 C   0  0  0  0  0  0  0  0  0  0  0  0
   27.4461   37.9510   22.7799 C   0  0  2  0  0  0  0  0  0  0  0  0
   27.5476   39.2793   23.0874 N   0  0  0  0  0  0  0  0  0  0  0  0
   27.8680   37.5322   21.5122 C   0  0  0  0  0  0  0  0  0  0  0  0
   27.7957   36.1953   21.1221 C   0  0  2  0  0  0  0  0  0  0  0  0
   28.1301   34.4916   19.5473 C   0  0  2  0  0  0  0  0  0  0  0  0
   28.2032   35.8026   19.8934 N   0  0  0  0  0  0  0  0  0  0  0  0
   26.6124   40.2250   22.5081 C   0  0  0  0  0  0  0  0  0  0  0  0
   28.5639   39.7999   23.9867 C   0  0  0  0  0  0  0  0  0  0  0  0
  1  2  1  0  0  0  0
  3  1  1  1  0  0  0
  3  4  1  0  0  0  0
  3  5  1  0  0  0  0
  5  6  1  1  0  0  0
  5  7  1  0  0  0  0
  7  8  1  6  0  0  0
  7  9  1  0  0  0  0
  9 27  1  0  0  0  0
 10 11  1  0  0  0  0
 11 12  2  0  0  0  0
 11 13  1  0  0  0  0
 13 14  1  0  0  0  0
 14 16  2  0  0  0  0
 15 14  1  1  0  0  0
 15 18  1  0  0  0  0
 15 26  1  0  0  0  0
 17 19  1  1  0  0  0
 17 25  1  0  0  0  0
 17 18  1  0  0  0  0
 19 20  1  0  0  0  0
 20 21  1  6  0  0  0
 20 22  1  0  0  0  0
 22 23  1  6  0  0  0
 22 24  1  0  0  0  0
 23 28  1  0  0  0  0
 23 29  1  0  0  0  0
 25 24  1  6  0  0  0
 25 27  1  0  0  0  0
 26 10  1  6  0  0  0
 26 27  1  0  0  0  0
M  END
>  <CHROM.1>
174.86078661,-51.37805131,57.84661457,-178.72642730,-105.52502620,-76.96068328
27.57616737,36.54795781,20.00347873,-2.39382889,-1.45058145,2.37719396

>  <Name>
ligand

>  <RI>
0

>  <Rbt.Current_Directory>
/home/itssahil/PROJECTS/Mol_Feturizer/New_Systems/rnas/3F4H

>  <Rbt.Executable>
rbdock ($Id: //depot/dev/client3/rdock/2013.1/src/exe/rbdock.cxx#4 $)

>  <Rbt.Library>
libRbt.so (2013.1, Build901 2013/11/27)

>  <Rbt.Parameter_File>
/export/apps/rDock/src/rDock_2013.1_src/data/scripts/dock_solv.prm

>  <Rbt.Receptor>
prm/pocket_docking_3.prm

>  <SCORE>
-48.6634

>  <SCORE.INTER>
-31.4315

>  <SCORE.INTER.CONST>
1

>  <SCORE.INTER.POLAR>
0

>  <SCORE.INTER.ROT>
6

>  <SCORE.INTER.SOLV>
12.5247

>  <SCORE.INTER.VDW>
-32.7292

>  <SCORE.INTER.norm>
-1.08385

>  <SCORE.INTRA>
-17.2318

>  <SCORE.INTRA.DIHEDRAL>
-4.38713

>  <SCORE.INTRA.DIHEDRAL.0>
6.83446

>  <SCORE.INTRA.POLAR>
0

>  <SCORE.INTRA.POLAR.0>
0

>  <SCORE.INTRA.REPUL>
0

>  <SCORE.INTRA.REPUL.0>
0

>  <SCORE.INTRA.SOLV>
0.226861

>  <SCORE.INTRA.SOLV.lig_0>
-26.4601

>  <SCORE.INTRA.VDW>
-15.1517

>  <SCORE.INTRA.VDW.0>
13.7853

>  <SCORE.INTRA.norm>
-0.594201

>  <SCORE.RESTR>
0

>  <SCORE.RESTR.CAVITY>
0

>  <SCORE.RESTR.norm>
0

>  <SCORE.SYSTEM>
0

>  <SCORE.SYSTEM.CONST>
0

>  <SCORE.SYSTEM.DIHEDRAL>
0

>  <SCORE.SYSTEM.SOLV>
0

>  <SCORE.SYSTEM.norm>
0

>  <SCORE.heavy>
29

>  <SCORE.norm>
-1.67805

>  <RMSD>
1.627

$$$$
ligand
 OpenBabel11021811473D
libRbt.so/2013.1/901 2013/11/27
 29 31  0  0  0  0  0  0  0  0999 V2000
   26.4045   40.4361   17.5717 C   0  0  0  0  0  0  0  0  0  0  0  0
   25.7278   39.7163   18.6075 O   0  0  0  0  0  0  0  0  0  0  0  0
   27.0411   39.4470   16.6050 C   0  0  1  0  0  0  0  0  0  0  0  0
   27.5826   40.1724   15.5055 O   0  0  0  0  0  0  0  0  0  0  0  0
   28.1348   38.6469   17.3008 C   0  0  1  0  0  0  0  0  0  0  0  0
   28.9989   39.5811   17.9373 O   0  0  0  0  0  0  0  0  0  0  0  0
   27.6355   37.6167   18.3181 C   0  0  1  0  0  0  0  0  0  0  0  0
   26.7779   36.6947   17.6443 O   0  0  0  0  0  0  0  0  0  0  0  0
   28.7591   36.8227   18.9815 C   0  0  0  0  0  0  0  0  0  0  0  0
   28.5382   34.0798   18.3497 N   0  0  0  0  0  0  0  0  0  0  0  0
   28.4507   32.7617   18.0135 C   0  0  0  0  0  0  0  0  0  0  0  0
   28.8258   32.3681   16.8809 O   0  0  0  0  0  0  0  0  0  0  0  0
   27.9523   31.8601   18.8970 N   0  0  0  0  0  0  0  0  0  0  0  0
   27.5330   32.2492   20.1273 C   0  0  0  0  0  0  0  0  0  0  0  0
   27.6175   33.5901   20.4845 C   0  0  1  0  0  0  0  0  0  0  0  0
   27.0705   31.4115   20.9407 O   0  0  0  0  0  0  0  0  0  0  0  0
   27.2916   35.2878   22.0553 C   0  0  1  0  0  0  0  0  0  0  0  0
   27.2076   33.9870   21.7089 N   0  0  0  0  0  0  0  0  0  0  0  0
   26.8668   35.6876   23.3175 C   0  0  0  0  0  0  0  0  0  0  0  0
   26.9432   37.0209   23.7049 C   0  0  2  0  0  0  0  0  0  0  0  0
   26.4642   37.3847   25.0868 C   0  0  0  0  0  0  0  0  0  0  0  0
   27.4541   37.9743   22.8151 C   0  0  2  0  0  0  0  0  0  0  0  0
   27.5593   39.3016   23.1257 N   0  0  0  0  0  0  0  0  0  0  0  0
   27.8767   37.5570   21.5471 C   0  0  0  0  0  0  0  0  0  0  0  0
   27.8008   36.2212   21.1539 C   0  0  2  0  0  0  0  0  0  0  0  0
   28.1323   34.5200   19.5758 C   0  0  2  0  0  0  0  0  0  0  0  0
   28.2090   35.8300   19.9249 N   0  0  0  0  0  0  0  0  0  0  0  0
   26.6230   40.2504   22.5534 C   0  0  0  0  0  0  0  0  0  0  0  0
   28.5808   39.8180   24.0216 C   0  0  0  0  0  0  0  0  0  0  0  0
  1  2  1  0  0  0  0
  3  1  1  1  0  0  0
  3  4  1  0  0  0  0
  3  5  1  0  0  0  0
  5  6  1  1  0  0  0
  5  7  1  0  0  0  0
  7  8  1  6  0  0  0
  7  9  1  0  0  0  0
  9 27  1  0  0  0  0
 10 11  1  0  0  0  0
 11 12  2  0  0  0  0
 11 13  1  0  0  0  0
 13 14  1  0  0  0  0
 14 16  2  0  0  0  0
 15 14  1  1  0  0  0
 15 18  1  0  0  0  0
 15 26  1  0  0  0  0
 17 19  1  1  0  0  0
 17 25  1  0  0  0  0
 17 18  1  0  0  0  0
 19 20  1  0  0  0  0
 20 21  1  6  0  0  0
 20 22  1  0  0  0  0
 22 23  1  6  0  0  0
 22 24  1  0  0  0  0
 23 28  1  0  0  0  0
 23 29  1  0  0  0  0
 25 24  1  6  0  0  0
 25 27  1  0  0  0  0
 26 10  1  6  0  0  0
 26 27  1  0  0  0  0
M  END
>  <CHROM.1>
173.70374861,-51.19577689,59.10908436,-178.72542433,-105.15537378,-79.06765108
27.58216689,36.56362818,20.01955251,-2.39213270,-1.45278366,2.38137443

>  <Name>
ligand

>  <RI>
0

>  <Rbt.Current_Directory>
/home/itssahil/PROJECTS/Mol_Feturizer/New_Systems/rnas/3F4H

>  <Rbt.Executable>
rbdock ($Id: //depot/dev/client3/rdock/2013.1/src/exe/rbdock.cxx#4 $)

>  <Rbt.Library>
libRbt.so (2013.1, Build901 2013/11/27)

>  <Rbt.Parameter_File>
/export/apps/rDock/src/rDock_2013.1_src/data/scripts/dock_solv.prm

>  <Rbt.Receptor>
prm/pocket_docking_8.prm

>  <SCORE>
-48.7482

>  <SCORE.INTER>
-31.4953

>  <SCORE.INTER.CONST>
1

>  <SCORE.INTER.POLAR>
0

>  <SCORE.INTER.ROT>
6

>  <SCORE.INTER.SOLV>
12.4789

>  <SCORE.INTER.VDW>
-32.7565

>  <SCORE.INTER.norm>
-1.08604

>  <SCORE.INTRA>
-17.2529

>  <SCORE.INTRA.DIHEDRAL>
-4.34079

>  <SCORE.INTRA.DIHEDRAL.0>
6.83446

>  <SCORE.INTRA.POLAR>
0

>  <SCORE.INTRA.POLAR.0>
0

>  <SCORE.INTRA.REPUL>
0

>  <SCORE.INTRA.REPUL.0>
0

>  <SCORE.INTRA.SOLV>
0.198955

>  <SCORE.INTRA.SOLV.lig_0>
-26.4601

>  <SCORE.INTRA.VDW>
-15.182

>  <SCORE.INTRA.VDW.0>
13.7853

>  <SCORE.INTRA.norm>
-0.594929

>  <SCORE.RESTR>
0

>  <SCORE.RESTR.CAVITY>
0

>  <SCORE.RESTR.norm>
0

>  <SCORE.SYSTEM>
0

>  <SCORE.SYSTEM.CONST>
0

>  <SCORE.SYSTEM.DIHEDRAL>
0

>  <SCORE.SYSTEM.SOLV>
0

>  <SCORE.SYSTEM.norm>
0

>  <SCORE.heavy>
29

>  <SCORE.norm>
-1.68097

>  <RMSD>
1.629

$$$$
ligand
 OpenBabel11021811473D
libRbt.so/2013.1/901 2013/11/27
 29 31  0  0  0  0  0  0  0  0999 V2000
   26.4148   40.4313   17.5956 C   0  0  0  0  0  0  0  0  0  0  0  0
   25.7233   39.7049   18.6169 O   0  0  0  0  0  0  0  0  0  0  0  0
   27.0292   39.4488   16.6079 C   0  0  1  0  0  0  0  0  0  0  0  0
   27.5669   40.1837   15.5128 O   0  0  0  0  0  0  0  0  0  0  0  0
   28.1212   38.6265   17.2800 C   0  0  1  0  0  0  0  0  0  0  0  0
   29.0272   39.5433   17.8826 O   0  0  0  0  0  0  0  0  0  0  0  0
   27.6247   37.6189   18.3210 C   0  0  1  0  0  0  0  0  0  0  0  0
   26.7627   36.6843   17.6705 O   0  0  0  0  0  0  0  0  0  0  0  0
   28.7498   36.8371   18.9961 C   0  0  0  0  0  0  0  0  0  0  0  0
   28.5492   34.0947   18.3558 N   0  0  0  0  0  0  0  0  0  0  0  0
   28.4717   32.7770   18.0156 C   0  0  0  0  0  0  0  0  0  0  0  0
   28.8553   32.3887   16.8840 O   0  0  0  0  0  0  0  0  0  0  0  0
   27.9740   31.8699   18.8939 N   0  0  0  0  0  0  0  0  0  0  0  0
   27.5457   32.2531   20.1230 C   0  0  0  0  0  0  0  0  0  0  0  0
   27.6200   33.5936   20.4842 C   0  0  1  0  0  0  0  0  0  0  0  0
   27.0838   31.4104   20.9317 O   0  0  0  0  0  0  0  0  0  0  0  0
   27.2752   35.2849   22.0577 C   0  0  1  0  0  0  0  0  0  0  0  0
   27.2010   33.9845   21.7074 N   0  0  0  0  0  0  0  0  0  0  0  0
   26.8411   35.6787   23.3187 C   0  0  0  0  0  0  0  0  0  0  0  0
   26.9072   37.0113   23.7101 C   0  0  2  0  0  0  0  0  0  0  0  0
   26.4185   37.3685   25.0903 C   0  0  0  0  0  0  0  0  0  0  0  0
   27.4170   37.9703   22.8256 C   0  0  2  0  0  0  0  0  0  0  0  0
   27.5124   39.2974   23.1403 N   0  0  0  0  0  0  0  0  0  0  0  0
   27.8491   37.5590   21.5588 C   0  0  0  0  0  0  0  0  0  0  0  0
   27.7835   36.2239   21.1616 C   0  0  2  0  0  0  0  0  0  0  0  0
   28.1340   34.5290   19.5808 C   0  0  2  0  0  0  0  0  0  0  0  0
   28.2007   35.8385   19.9339 N   0  0  0  0  0  0  0  0  0  0  0  0
   28.5522   39.7488   24.0456 C   0  0  0  0  0  0  0  0  0  0  0  0
   26.6079   40.2980   22.5987 C   0  0  0  0  0  0  0  0  0  0  0  0
  1  2  1  0  0  0  0
  3  1  1  1  0  0  0
  3  4  1  0  0  0  0
  3  5  1  0  0  0  0
  5  6  1  1  0  0  0
  5  7  1  0  0  0  0
  7  8  1  6  0  0  0
  7  9  1  0  0  0  0
  9 27  1  0  0  0  0
 10 11  1  0  0  0  0
 11 12  2  0  0  0  0
 11 13  1  0  0  0  0
 13 14  1  0  0  0  0
 14 16  2  0  0  0  0
 15 14  1  1  0  0  0
 15 18  1  0  0  0  0
 15 26  1  0  0  0  0
 17 19  1  1  0  0  0
 17 25  1  0  0  0  0
 17 18  1  0  0  0  0
 19 20  1  0  0  0  0
 20 21  1  6  0  0  0
 20 22  1  0  0  0  0
 22 23  1  6  0  0  0
 22 24  1  0  0  0  0
 23 28  1  0  0  0  0
 23 29  1  0  0  0  0
 25 24  1  6  0  0  0
 25 27  1  0  0  0  0
 26 10  1  6  0  0  0
 26 27  1  0  0  0  0
M  END
>  <CHROM.1>
172.79535920,-53.07168119,61.19573112,-177.08712827,74.87512000,-79.49119247
27.57435209,36.56211616,20.02458482,-2.38806870,-1.44514885,2.39050867

>  <Name>
ligand

>  <RI>
0

>  <Rbt.Current_Directory>
/home/itssahil/PROJECTS/Mol_Feturizer/New_Systems/rnas/3F4H

>  <Rbt.Executable>
rbdock ($Id: //depot/dev/client3/rdock/2013.1/src/exe/rbdock.cxx#4 $)

>  <Rbt.Library>
libRbt.so (2013.1, Build901 2013/11/27)

>  <Rbt.Parameter_File>
/export/apps/rDock/src/rDock_2013.1_src/data/scripts/dock_solv.prm

>  <Rbt.Receptor>
prm/pocket_docking_3.prm

>  <SCORE>
-48.7162

>  <SCORE.INTER>
-31.4943

>  <SCORE.INTER.CONST>
1

>  <SCORE.INTER.POLAR>
0

>  <SCORE.INTER.ROT>
6

>  <SCORE.INTER.SOLV>
12.5695

>  <SCORE.INTER.VDW>
-32.7861

>  <SCORE.INTER.norm>
-1.08601

>  <SCORE.INTRA>
-17.2219

>  <SCORE.INTRA.DIHEDRAL>
-4.37716

>  <SCORE.INTRA.DIHEDRAL.0>
6.83446

>  <SCORE.INTRA.POLAR>
0

>  <SCORE.INTRA.POLAR.0>
0

>  <SCORE.INTRA.REPUL>
0

>  <SCORE.INTRA.REPUL.0>
0

>  <SCORE.INTRA.SOLV>
0.1904

>  <SCORE.INTRA.SOLV.lig_0>
-26.4601

>  <SCORE.INTRA.VDW>
-15.1285

>  <SCORE.INTRA.VDW.0>
13.7853

>  <SCORE.INTRA.norm>
-0.593858

>  <SCORE.RESTR>
0

>  <SCORE.RESTR.CAVITY>
0

>  <SCORE.RESTR.norm>
0

>  <SCORE.SYSTEM>
0

>  <SCORE.SYSTEM.CONST>
0

>  <SCORE.SYSTEM.DIHEDRAL>
0

>  <SCORE.SYSTEM.SOLV>
0

>  <SCORE.SYSTEM.norm>
0

>  <SCORE.heavy>
29

>  <SCORE.norm>
-1.67987

>  <RMSD>
1.631

$$$$
ligand
 OpenBabel11021811473D
libRbt.so/2013.1/901 2013/11/27
 29 31  0  0  0  0  0  0  0  0999 V2000
   26.4085   40.4445   17.5894 C   0  0  0  0  0  0  0  0  0  0  0  0
   25.7121   39.7104   18.6018 O   0  0  0  0  0  0  0  0  0  0  0  0
   27.0651   39.4689   16.6224 C   0  0  1  0  0  0  0  0  0  0  0  0
   27.6172   40.2084   15.5376 O   0  0  0  0  0  0  0  0  0  0  0  0
   28.1541   38.6691   17.3258 C   0  0  1  0  0  0  0  0  0  0  0  0
   29.0068   39.6031   17.9779 O   0  0  0  0  0  0  0  0  0  0  0  0
   27.6476   37.6305   18.3310 C   0  0  1  0  0  0  0  0  0  0  0  0
   26.7999   36.7105   17.6421 O   0  0  0  0  0  0  0  0  0  0  0  0
   28.7668   36.8356   19.0005 C   0  0  0  0  0  0  0  0  0  0  0  0
   28.5454   34.0912   18.3753 N   0  0  0  0  0  0  0  0  0  0  0  0
   28.4579   32.7723   18.0423 C   0  0  0  0  0  0  0  0  0  0  0  0
   28.8381   32.3750   16.9127 O   0  0  0  0  0  0  0  0  0  0  0  0
   27.9539   31.8738   18.9258 N   0  0  0  0  0  0  0  0  0  0  0  0
   27.5291   32.2669   20.1529 C   0  0  0  0  0  0  0  0  0  0  0  0
   27.6135   33.6087   20.5068 C   0  0  1  0  0  0  0  0  0  0  0  0
   27.0614   31.4320   20.9664 O   0  0  0  0  0  0  0  0  0  0  0  0
   27.2821   35.3111   22.0712 C   0  0  1  0  0  0  0  0  0  0  0  0
   27.1980   34.0094   21.7280 N   0  0  0  0  0  0  0  0  0  0  0  0
   26.8516   35.7149   23.3302 C   0  0  0  0  0  0  0  0  0  0  0  0
   26.9278   37.0492   23.7143 C   0  0  2  0  0  0  0  0  0  0  0  0
   26.4424   37.4175   25.0928 C   0  0  0  0  0  0  0  0  0  0  0  0
   27.4443   37.9995   22.8244 C   0  0  2  0  0  0  0  0  0  0  0  0
   27.5497   39.3275   23.1318 N   0  0  0  0  0  0  0  0  0  0  0  0
   27.8726   37.5781   21.5597 C   0  0  0  0  0  0  0  0  0  0  0  0
   27.7969   36.2413   21.1698 C   0  0  2  0  0  0  0  0  0  0  0  0
   28.1340   34.5353   19.5981 C   0  0  2  0  0  0  0  0  0  0  0  0
   28.2107   35.8462   19.9440 N   0  0  0  0  0  0  0  0  0  0  0  0
   26.6130   40.2750   22.5580 C   0  0  0  0  0  0  0  0  0  0  0  0
   28.5719   39.8460   24.0258 C   0  0  0  0  0  0  0  0  0  0  0  0
  1  2  1  0  0  0  0
  3  1  1  1  0  0  0
  3  4  1  0  0  0  0
  3  5  1  0  0  0  0
  5  6  1  1  0  0  0
  5  7  1  0  0  0  0
  7  8  1  6  0  0  0
  7  9  1  0  0  0  0
  9 27  1  0  0  0  0
 10 11  1  0  0  0  0
 11 12  2  0  0  0  0
 11 13  1  0  0  0  0
 13 14  1  0  0  0  0
 14 16  2  0  0  0  0
 15 14  1  1  0  0  0
 15 18  1  0  0  0  0
 15 26  1  0  0  0  0
 17 19  1  1  0  0  0
 17 25  1  0  0  0  0
 17 18  1  0  0  0  0
 19 20  1  0  0  0  0
 20 21  1  6  0  0  0
 20 22  1  0  0  0  0
 22 23  1  6  0  0  0
 22 24  1  0  0  0  0
 23 28  1  0  0  0  0
 23 29  1  0  0  0  0
 25 24  1  6  0  0  0
 25 27  1  0  0  0  0
 26 10  1  6  0  0  0
 26 27  1  0  0  0  0
M  END
>  <CHROM.1>
173.19107102,-51.47414091,59.00705852,-179.42399117,-104.82164053,-78.98289092
27.58291778,36.58272351,20.03686943,-2.36023338,-1.44989210,2.41161166

>  <Name>
ligand

>  <RI>
0

>  <Rbt.Current_Directory>
/home/itssahil/PROJECTS/Mol_Feturizer/New_Systems/rnas/3F4H

>  <Rbt.Executable>
rbdock ($Id: //depot/dev/client3/rdock/2013.1/src/exe/rbdock.cxx#4 $)

>  <Rbt.Library>
libRbt.so (2013.1, Build901 2013/11/27)

>  <Rbt.Parameter_File>
/export/apps/rDock/src/rDock_2013.1_src/data/scripts/dock_solv.prm

>  <Rbt.Receptor>
prm/blind_docking_80.prm

>  <SCORE>
-48.7441

>  <SCORE.INTER>
-31.4572

>  <SCORE.INTER.CONST>
1

>  <SCORE.INTER.POLAR>
0

>  <SCORE.INTER.ROT>
6

>  <SCORE.INTER.SOLV>
12.4361

>  <SCORE.INTER.VDW>
-32.7168

>  <SCORE.INTER.norm>
-1.08473

>  <SCORE.INTRA>
-17.2869

>  <SCORE.INTRA.DIHEDRAL>
-4.33793

>  <SCORE.INTRA.DIHEDRAL.0>
6.83446

>  <SCORE.INTRA.POLAR>
0

>  <SCORE.INTRA.POLAR.0>
0

>  <SCORE.INTRA.REPUL>
0

>  <SCORE.INTRA.REPUL.0>
0

>  <SCORE.INTRA.SOLV>
0.192256

>  <SCORE.INTRA.SOLV.lig_0>
-26.4601

>  <SCORE.INTRA.VDW>
-15.214

>  <SCORE.INTRA.VDW.0>
13.7853

>  <SCORE.INTRA.norm>
-0.596099

>  <SCORE.RESTR>
0

>  <SCORE.RESTR.CAVITY>
0

>  <SCORE.RESTR.norm>
0

>  <SCORE.SYSTEM>
0

>  <SCORE.SYSTEM.CONST>
0

>  <SCORE.SYSTEM.DIHEDRAL>
0

>  <SCORE.SYSTEM.SOLV>
0

>  <SCORE.SYSTEM.norm>
0

>  <SCORE.heavy>
29

>  <SCORE.norm>
-1.68083

>  <RMSD>
1.633

$$$$
ligand
 OpenBabel11021811473D
libRbt.so/2013.1/901 2013/11/27
 29 31  0  0  0  0  0  0  0  0999 V2000
   26.4445   40.4347   17.6862 C   0  0  0  0  0  0  0  0  0  0  0  0
   25.7346   39.7065   18.6936 O   0  0  0  0  0  0  0  0  0  0  0  0
   27.0026   39.4588   16.6594 C   0  0  1  0  0  0  0  0  0  0  0  0
   27.5234   40.2035   15.5628 O   0  0  0  0  0  0  0  0  0  0  0  0
   28.0945   38.5961   17.2791 C   0  0  1  0  0  0  0  0  0  0  0  0
   29.0323   39.4771   17.8866 O   0  0  0  0  0  0  0  0  0  0  0  0
   27.6040   37.5663   18.3011 C   0  0  1  0  0  0  0  0  0  0  0  0
   26.6933   36.6805   17.6489 O   0  0  0  0  0  0  0  0  0  0  0  0
   28.7278   36.7294   18.9088 C   0  0  0  0  0  0  0  0  0  0  0  0
   28.5288   33.9775   18.3098 N   0  0  0  0  0  0  0  0  0  0  0  0
   28.4517   32.6549   17.9893 C   0  0  0  0  0  0  0  0  0  0  0  0
   28.8301   32.2508   16.8615 O   0  0  0  0  0  0  0  0  0  0  0  0
   27.9602   31.7599   18.8834 N   0  0  0  0  0  0  0  0  0  0  0  0
   27.5377   32.1604   20.1090 C   0  0  0  0  0  0  0  0  0  0  0  0
   27.6115   33.5061   20.4502 C   0  0  1  0  0  0  0  0  0  0  0  0
   27.0816   31.3288   20.9323 O   0  0  0  0  0  0  0  0  0  0  0  0
   27.2720   35.2197   22.0006 C   0  0  1  0  0  0  0  0  0  0  0  0
   27.1982   33.9142   21.6697 N   0  0  0  0  0  0  0  0  0  0  0  0
   26.8438   35.6311   23.2579 C   0  0  0  0  0  0  0  0  0  0  0  0
   26.9096   36.9695   23.6294 C   0  0  2  0  0  0  0  0  0  0  0  0
   26.4275   37.3459   25.0068 C   0  0  0  0  0  0  0  0  0  0  0  0
   27.4131   37.9163   22.7283 C   0  0  2  0  0  0  0  0  0  0  0  0
   27.5078   39.2479   23.0231 N   0  0  0  0  0  0  0  0  0  0  0  0
   27.8392   37.4872   21.4655 C   0  0  0  0  0  0  0  0  0  0  0  0
   27.7739   36.1463   21.0882 C   0  0  2  0  0  0  0  0  0  0  0  0
   28.1191   34.4291   19.5305 C   0  0  2  0  0  0  0  0  0  0  0  0
   28.1854   35.7437   19.8640 N   0  0  0  0  0  0  0  0  0  0  0  0
   28.5343   39.7107   23.9376 C   0  0  0  0  0  0  0  0  0  0  0  0
   26.6154   40.2424   22.4509 C   0  0  0  0  0  0  0  0  0  0  0  0
  1  2  1  0  0  0  0
  3  1  1  1  0  0  0
  3  4  1  0  0  0  0
  3  5  1  0  0  0  0
  5  6  1  1  0  0  0
  5  7  1  0  0  0  0
  7  8  1  6  0  0  0
  7  9  1  0  0  0  0
  9 27  1  0  0  0  0
 10 11  1  0  0  0  0
 11 12  2  0  0  0  0
 11 13  1  0  0  0  0
 13 14  1  0  0  0  0
 14 16  2  0  0  0  0
 15 14  1  1  0  0  0
 15 18  1  0  0  0  0
 15 26  1  0  0  0  0
 17 19  1  1  0  0  0
 17 25  1  0  0  0  0
 17 18  1  0  0  0  0
 19 20  1  0  0  0  0
 20 21  1  6  0  0  0
 20 22  1  0  0  0  0
 22 23  1  6  0  0  0
 22 24  1  0  0  0  0
 23 28  1  0  0  0  0
 23 29  1  0  0  0  0
 25 24  1  6  0  0  0
 25 27  1  0  0  0  0
 26 10  1  6  0  0  0
 26 27  1  0  0  0  0
M  END
>  <CHROM.1>
171.13385732,-52.29695961,60.33945282,-178.97630163,73.61644292,-75.51531571
27.56299465,36.50243535,19.98879261,-2.36986335,-1.44440185,2.39725286

>  <Name>
ligand

>  <RI>
0

>  <Rbt.Current_Directory>
/home/itssahil/PROJECTS/Mol_Feturizer/New_Systems/rnas/3F4H

>  <Rbt.Executable>
rbdock ($Id: //depot/dev/client3/rdock/2013.1/src/exe/rbdock.cxx#4 $)

>  <Rbt.Library>
libRbt.so (2013.1, Build901 2013/11/27)

>  <Rbt.Parameter_File>
/export/apps/rDock/src/rDock_2013.1_src/data/scripts/dock_solv.prm

>  <Rbt.Receptor>
prm/pocket_docking_3.prm

>  <SCORE>
-48.7775

>  <SCORE.INTER>
-31.5432

>  <SCORE.INTER.CONST>
1

>  <SCORE.INTER.POLAR>
0

>  <SCORE.INTER.ROT>
6

>  <SCORE.INTER.SOLV>
12.72

>  <SCORE.INTER.VDW>
-32.8688

>  <SCORE.INTER.norm>
-1.0877

>  <SCORE.INTRA>
-17.2342

>  <SCORE.INTRA.DIHEDRAL>
-4.27791

>  <SCORE.INTRA.DIHEDRAL.0>
6.83446

>  <SCORE.INTRA.POLAR>
0

>  <SCORE.INTRA.POLAR.0>
0

>  <SCORE.INTRA.REPUL>
0

>  <SCORE.INTRA.REPUL.0>
0

>  <SCORE.INTRA.SOLV>
0.186147

>  <SCORE.INTRA.SOLV.lig_0>
-26.4601

>  <SCORE.INTRA.VDW>
-15.1884

>  <SCORE.INTRA.VDW.0>
13.7853

>  <SCORE.INTRA.norm>
-0.594284

>  <SCORE.RESTR>
0

>  <SCORE.RESTR.CAVITY>
0

>  <SCORE.RESTR.norm>
0

>  <SCORE.SYSTEM>
0

>  <SCORE.SYSTEM.CONST>
0

>  <SCORE.SYSTEM.DIHEDRAL>
0

>  <SCORE.SYSTEM.SOLV>
0

>  <SCORE.SYSTEM.norm>
0

>  <SCORE.heavy>
29

>  <SCORE.norm>
-1.68198

>  <RMSD>
1.633

$$$$
ligand
 OpenBabel11021811473D
libRbt.so/2013.1/901 2013/11/27
 29 31  0  0  0  0  0  0  0  0999 V2000
   26.4026   40.4297   17.6124 C   0  0  0  0  0  0  0  0  0  0  0  0
   25.7022   39.6593   18.5947 O   0  0  0  0  0  0  0  0  0  0  0  0
   27.0991   39.4892   16.6384 C   0  0  1  0  0  0  0  0  0  0  0  0
   27.6677   40.2646   15.5878 O   0  0  0  0  0  0  0  0  0  0  0  0
   28.1817   38.6876   17.3497 C   0  0  1  0  0  0  0  0  0  0  0  0
   29.0353   39.6205   18.0022 O   0  0  0  0  0  0  0  0  0  0  0  0
   27.6664   37.6549   18.3565 C   0  0  1  0  0  0  0  0  0  0  0  0
   26.8067   36.7442   17.6701 O   0  0  0  0  0  0  0  0  0  0  0  0
   28.7785   36.8477   19.0231 C   0  0  0  0  0  0  0  0  0  0  0  0
   28.5490   34.1079   18.3811 N   0  0  0  0  0  0  0  0  0  0  0  0
   28.4578   32.7912   18.0402 C   0  0  0  0  0  0  0  0  0  0  0  0
   28.8422   32.3988   16.9102 O   0  0  0  0  0  0  0  0  0  0  0  0
   27.9454   31.8898   18.9158 N   0  0  0  0  0  0  0  0  0  0  0  0
   27.5158   32.2777   20.1430 C   0  0  0  0  0  0  0  0  0  0  0  0
   27.6040   33.6171   20.5050 C   0  0  1  0  0  0  0  0  0  0  0  0
   27.0404   31.4402   20.9492 O   0  0  0  0  0  0  0  0  0  0  0  0
   27.2714   35.3120   22.0773 C   0  0  1  0  0  0  0  0  0  0  0  0
   27.1838   34.0126   21.7263 N   0  0  0  0  0  0  0  0  0  0  0  0
   26.8360   35.7104   23.3363 C   0  0  0  0  0  0  0  0  0  0  0  0
   26.9158   37.0421   23.7284 C   0  0  2  0  0  0  0  0  0  0  0  0
   26.4247   37.4046   25.1065 C   0  0  0  0  0  0  0  0  0  0  0  0
   27.4409   37.9953   22.8467 C   0  0  2  0  0  0  0  0  0  0  0  0
   27.5502   39.3211   23.1622 N   0  0  0  0  0  0  0  0  0  0  0  0
   27.8741   37.5793   21.5818 C   0  0  0  0  0  0  0  0  0  0  0  0
   27.7949   36.2452   21.1839 C   0  0  2  0  0  0  0  0  0  0  0  0
   28.1331   34.5467   19.6043 C   0  0  2  0  0  0  0  0  0  0  0  0
   28.2133   35.8553   19.9580 N   0  0  0  0  0  0  0  0  0  0  0  0
   26.6297   40.2777   22.5775 C   0  0  0  0  0  0  0  0  0  0  0  0
   28.5607   39.8283   24.0757 C   0  0  0  0  0  0  0  0  0  0  0  0
  1  2  1  0  0  0  0
  3  1  1  1  0  0  0
  3  4  1  0  0  0  0
  3  5  1  0  0  0  0
  5  6  1  1  0  0  0
  5  7  1  0  0  0  0
  7  8  1  6  0  0  0
  7  9  1  0  0  0  0
  9 27  1  0  0  0  0
 10 11  1  0  0  0  0
 11 12  2  0  0  0  0
 11 13  1  0  0  0  0
 13 14  1  0  0  0  0
 14 16  2  0  0  0  0
 15 14  1  1  0  0  0
 15 18  1  0  0  0  0
 15 26  1  0  0  0  0
 17 19  1  1  0  0  0
 17 25  1  0  0  0  0
 17 18  1  0  0  0  0
 19 20  1  0  0  0  0
 20 21  1  6  0  0  0
 20 22  1  0  0  0  0
 22 23  1  6  0  0  0
 22 24  1  0  0  0  0
 23 28  1  0  0  0  0
 23 29  1  0  0  0  0
 25 24  1  6  0  0  0
 25 27  1  0  0  0  0
 26 10  1  6  0  0  0
 26 27  1  0  0  0  0
M  END
>  <CHROM.1>
173.75364246,-53.84034954,58.39473458,-178.84627430,-105.50169610,-78.75705986
27.58510147,36.58974685,20.05047593,-2.31652131,-1.44912498,2.46131212

>  <Name>
ligand

>  <RI>
0

>  <Rbt.Current_Directory>
/home/itssahil/PROJECTS/Mol_Feturizer/New_Systems/rnas/3F4H

>  <Rbt.Executable>
rbdock ($Id: //depot/dev/client3/rdock/2013.1/src/exe/rbdock.cxx#4 $)

>  <Rbt.Library>
libRbt.so (2013.1, Build901 2013/11/27)

>  <Rbt.Parameter_File>
/export/apps/rDock/src/rDock_2013.1_src/data/scripts/dock_solv.prm

>  <Rbt.Receptor>
prm/pocket_docking_4.prm

>  <SCORE>
-48.6806

>  <SCORE.INTER>
-31.3839

>  <SCORE.INTER.CONST>
1

>  <SCORE.INTER.POLAR>
0

>  <SCORE.INTER.ROT>
6

>  <SCORE.INTER.SOLV>
12.378

>  <SCORE.INTER.VDW>
-32.6486

>  <SCORE.INTER.norm>
-1.0822

>  <SCORE.INTRA>
-17.2967

>  <SCORE.INTRA.DIHEDRAL>
-4.47987

>  <SCORE.INTRA.DIHEDRAL.0>
6.83446

>  <SCORE.INTRA.POLAR>
0

>  <SCORE.INTRA.POLAR.0>
0

>  <SCORE.INTRA.REPUL>
0

>  <SCORE.INTRA.REPUL.0>
0

>  <SCORE.INTRA.SOLV>
0.215265

>  <SCORE.INTRA.SOLV.lig_0>
-26.4601

>  <SCORE.INTRA.VDW>
-15.1643

>  <SCORE.INTRA.VDW.0>
13.7853

>  <SCORE.INTRA.norm>
-0.596436

>  <SCORE.RESTR>
0

>  <SCORE.RESTR.CAVITY>
0

>  <SCORE.RESTR.norm>
0

>  <SCORE.SYSTEM>
0

>  <SCORE.SYSTEM.CONST>
0

>  <SCORE.SYSTEM.DIHEDRAL>
0

>  <SCORE.SYSTEM.SOLV>
0

>  <SCORE.SYSTEM.norm>
0

>  <SCORE.heavy>
29

>  <SCORE.norm>
-1.67864

>  <RMSD>
1.633

$$$$
ligand
 OpenBabel11021811473D
libRbt.so/2013.1/901 2013/11/27
 29 31  0  0  0  0  0  0  0  0999 V2000
   26.4002   40.4376   17.5864 C   0  0  0  0  0  0  0  0  0  0  0  0
   25.6792   39.6896   18.5710 O   0  0  0  0  0  0  0  0  0  0  0  0
   27.0812   39.4755   16.6227 C   0  0  1  0  0  0  0  0  0  0  0  0
   27.6442   40.2284   15.5529 O   0  0  0  0  0  0  0  0  0  0  0  0
   28.1656   38.6798   17.3377 C   0  0  1  0  0  0  0  0  0  0  0  0
   29.0074   39.6169   17.9995 O   0  0  0  0  0  0  0  0  0  0  0  0
   27.6524   37.6387   18.3368 C   0  0  1  0  0  0  0  0  0  0  0  0
   26.8209   36.7120   17.6371 O   0  0  0  0  0  0  0  0  0  0  0  0
   28.7675   36.8523   19.0229 C   0  0  0  0  0  0  0  0  0  0  0  0
   28.5495   34.1113   18.3821 N   0  0  0  0  0  0  0  0  0  0  0  0
   28.4637   32.7942   18.0417 C   0  0  0  0  0  0  0  0  0  0  0  0
   28.8510   32.4027   16.9125 O   0  0  0  0  0  0  0  0  0  0  0  0
   27.9538   31.8912   18.9173 N   0  0  0  0  0  0  0  0  0  0  0  0
   27.5212   32.2781   20.1437 C   0  0  0  0  0  0  0  0  0  0  0  0
   27.6038   33.6180   20.5051 C   0  0  1  0  0  0  0  0  0  0  0  0
   27.0481   31.4392   20.9498 O   0  0  0  0  0  0  0  0  0  0  0  0
   27.2628   35.3124   22.0761 C   0  0  1  0  0  0  0  0  0  0  0  0
   27.1806   34.0125   21.7256 N   0  0  0  0  0  0  0  0  0  0  0  0
   26.8243   35.7098   23.3344 C   0  0  0  0  0  0  0  0  0  0  0  0
   26.8984   37.0421   23.7259 C   0  0  2  0  0  0  0  0  0  0  0  0
   26.4043   37.4034   25.1031 C   0  0  0  0  0  0  0  0  0  0  0  0
   27.4209   37.9968   22.8442 C   0  0  2  0  0  0  0  0  0  0  0  0
   27.5247   39.3232   23.1592 N   0  0  0  0  0  0  0  0  0  0  0  0
   27.8572   37.5819   21.5801 C   0  0  0  0  0  0  0  0  0  0  0  0
   27.7837   36.2472   21.1828 C   0  0  2  0  0  0  0  0  0  0  0  0
   28.1303   34.5492   19.6045 C   0  0  2  0  0  0  0  0  0  0  0  0
   28.2051   35.8583   19.9577 N   0  0  0  0  0  0  0  0  0  0  0  0
   28.5707   39.7685   24.0604 C   0  0  0  0  0  0  0  0  0  0  0  0
   26.6234   40.3290   22.6219 C   0  0  0  0  0  0  0  0  0  0  0  0
  1  2  1  0  0  0  0
  3  1  1  1  0  0  0
  3  4  1  0  0  0  0
  3  5  1  0  0  0  0
  5  6  1  1  0  0  0
  5  7  1  0  0  0  0
  7  8  1  6  0  0  0
  7  9  1  0  0  0  0
  9 27  1  0  0  0  0
 10 11  1  0  0  0  0
 11 12  2  0  0  0  0
 11 13  1  0  0  0  0
 13 14  1  0  0  0  0
 14 16  2  0  0  0  0
 15 14  1  1  0  0  0
 15 18  1  0  0  0  0
 15 26  1  0  0  0  0
 17 19  1  1  0  0  0
 17 25  1  0  0  0  0
 17 18  1  0  0  0  0
 19 20  1  0  0  0  0
 20 21  1  6  0  0  0
 20 22  1  0  0  0  0
 22 23  1  6  0  0  0
 22 24  1  0  0  0  0
 23 28  1  0  0  0  0
 23 29  1  0  0  0  0
 25 24  1  6  0  0  0
 25 27  1  0  0  0  0
 26 10  1  6  0  0  0
 26 27  1  0  0  0  0
M  END
>  <CHROM.1>
172.42445640,-52.06541380,59.27129110,-179.31635381,75.46997723,-79.72052739
27.57735858,36.58774178,20.04498584,-2.34140029,-1.44698711,2.43529256

>  <Name>
ligand

>  <RI>
0

>  <Rbt.Current_Directory>
/home/itssahil/PROJECTS/Mol_Feturizer/New_Systems/rnas/3F4H

>  <Rbt.Executable>
rbdock ($Id: //depot/dev/client3/rdock/2013.1/src/exe/rbdock.cxx#4 $)

>  <Rbt.Library>
libRbt.so (2013.1, Build901 2013/11/27)

>  <Rbt.Parameter_File>
/export/apps/rDock/src/rDock_2013.1_src/data/scripts/dock_solv.prm

>  <Rbt.Receptor>
prm/pocket_docking_6.prm

>  <SCORE>
-48.7285

>  <SCORE.INTER>
-31.4477

>  <SCORE.INTER.CONST>
1

>  <SCORE.INTER.POLAR>
0

>  <SCORE.INTER.ROT>
6

>  <SCORE.INTER.SOLV>
12.4525

>  <SCORE.INTER.VDW>
-32.716

>  <SCORE.INTER.norm>
-1.0844

>  <SCORE.INTRA>
-17.2807

>  <SCORE.INTRA.DIHEDRAL>
-4.33417

>  <SCORE.INTRA.DIHEDRAL.0>
6.83446

>  <SCORE.INTRA.POLAR>
0

>  <SCORE.INTRA.POLAR.0>
0

>  <SCORE.INTRA.REPUL>
0

>  <SCORE.INTRA.REPUL.0>
0

>  <SCORE.INTRA.SOLV>
0.175042

>  <SCORE.INTRA.SOLV.lig_0>
-26.4601

>  <SCORE.INTRA.VDW>
-15.2012

>  <SCORE.INTRA.VDW.0>
13.7853

>  <SCORE.INTRA.norm>
-0.595887

>  <SCORE.RESTR>
0

>  <SCORE.RESTR.CAVITY>
0

>  <SCORE.RESTR.norm>
0

>  <SCORE.SYSTEM>
0

>  <SCORE.SYSTEM.CONST>
0

>  <SCORE.SYSTEM.DIHEDRAL>
0

>  <SCORE.SYSTEM.SOLV>
0

>  <SCORE.SYSTEM.norm>
0

>  <SCORE.heavy>
29

>  <SCORE.norm>
-1.68029

>  <RMSD>
1.636

$$$$
ligand
 OpenBabel11021811473D
libRbt.so/2013.1/901 2013/11/27
 29 31  0  0  0  0  0  0  0  0999 V2000
   26.4199   40.4690   17.6779 C   0  0  0  0  0  0  0  0  0  0  0  0
   25.7100   39.7212   18.6708 O   0  0  0  0  0  0  0  0  0  0  0  0
   27.0442   39.5082   16.6753 C   0  0  1  0  0  0  0  0  0  0  0  0
   27.5839   40.2661   15.5970 O   0  0  0  0  0  0  0  0  0  0  0  0
   28.1366   38.6786   17.3376 C   0  0  1  0  0  0  0  0  0  0  0  0
   29.0404   39.5887   17.9537 O   0  0  0  0  0  0  0  0  0  0  0  0
   27.6404   37.6563   18.3644 C   0  0  1  0  0  0  0  0  0  0  0  0
   26.7499   36.7526   17.7085 O   0  0  0  0  0  0  0  0  0  0  0  0
   28.7629   36.8392   19.0009 C   0  0  0  0  0  0  0  0  0  0  0  0
   28.5501   34.0947   18.3733 N   0  0  0  0  0  0  0  0  0  0  0  0
   28.4666   32.7758   18.0392 C   0  0  0  0  0  0  0  0  0  0  0  0
   28.8443   32.3813   16.9078 O   0  0  0  0  0  0  0  0  0  0  0  0
   27.9691   31.8743   18.9234 N   0  0  0  0  0  0  0  0  0  0  0  0
   27.5471   32.2644   20.1525 C   0  0  0  0  0  0  0  0  0  0  0  0
   27.6275   33.6061   20.5076 C   0  0  1  0  0  0  0  0  0  0  0  0
   27.0855   31.4268   20.9666 O   0  0  0  0  0  0  0  0  0  0  0  0
   27.2949   35.3055   22.0750 C   0  0  1  0  0  0  0  0  0  0  0  0
   27.2147   34.0039   21.7307 N   0  0  0  0  0  0  0  0  0  0  0  0
   26.8671   35.7063   23.3360 C   0  0  0  0  0  0  0  0  0  0  0  0
   26.9395   37.0404   23.7213 C   0  0  2  0  0  0  0  0  0  0  0  0
   26.4575   37.4053   25.1018 C   0  0  0  0  0  0  0  0  0  0  0  0
   27.4492   37.9937   22.8306 C   0  0  2  0  0  0  0  0  0  0  0  0
   27.5505   39.3218   23.1392 N   0  0  0  0  0  0  0  0  0  0  0  0
   27.8748   37.5754   21.5640 C   0  0  0  0  0  0  0  0  0  0  0  0
   27.8029   36.2388   21.1729 C   0  0  2  0  0  0  0  0  0  0  0  0
   28.1412   34.5358   19.5981 C   0  0  2  0  0  0  0  0  0  0  0  0
   28.2139   35.8466   19.9451 N   0  0  0  0  0  0  0  0  0  0  0  0
   26.6041   40.2653   22.5748 C   0  0  0  0  0  0  0  0  0  0  0  0
   28.5775   39.8442   24.0252 C   0  0  0  0  0  0  0  0  0  0  0  0
  1  2  1  0  0  0  0
  3  1  1  1  0  0  0
  3  4  1  0  0  0  0
  3  5  1  0  0  0  0
  5  6  1  1  0  0  0
  5  7  1  0  0  0  0
  7  8  1  6  0  0  0
  7  9  1  0  0  0  0
  9 27  1  0  0  0  0
 10 11  1  0  0  0  0
 11 12  2  0  0  0  0
 11 13  1  0  0  0  0
 13 14  1  0  0  0  0
 14 16  2  0  0  0  0
 15 14  1  1  0  0  0
 15 18  1  0  0  0  0
 15 26  1  0  0  0  0
 17 19  1  1  0  0  0
 17 25  1  0  0  0  0
 17 18  1  0  0  0  0
 19 20  1  0  0  0  0
 20 21  1  6  0  0  0
 20 22  1  0  0  0  0
 22 23  1  6  0  0  0
 22 24  1  0  0  0  0
 23 28  1  0  0  0  0
 23 29  1  0  0  0  0
 25 24  1  6  0  0  0
 25 27  1  0  0  0  0
 26 10  1  6  0  0  0
 26 27  1  0  0  0  0
M  END
>  <CHROM.1>
171.94854512,-53.49255536,59.52819693,-178.17704569,-104.52531848,-77.44923346
27.58573870,36.58787221,20.05188706,-2.37699007,-1.44814889,2.39686798

>  <Name>
ligand

>  <RI>
0

>  <Rbt.Current_Directory>
/home/itssahil/PROJECTS/Mol_Feturizer/New_Systems/rnas/3F4H

>  <Rbt.Executable>
rbdock ($Id: //depot/dev/client3/rdock/2013.1/src/exe/rbdock.cxx#4 $)

>  <Rbt.Library>
libRbt.so (2013.1, Build901 2013/11/27)

>  <Rbt.Parameter_File>
/export/apps/rDock/src/rDock_2013.1_src/data/scripts/dock_solv.prm

>  <Rbt.Receptor>
prm/pocket_docking_8.prm

>  <SCORE>
-48.6943

>  <SCORE.INTER>
-31.34

>  <SCORE.INTER.CONST>
1

>  <SCORE.INTER.POLAR>
0

>  <SCORE.INTER.ROT>
6

>  <SCORE.INTER.SOLV>
12.4036

>  <SCORE.INTER.VDW>
-32.6279

>  <SCORE.INTER.norm>
-1.08069

>  <SCORE.INTRA>
-17.3543

>  <SCORE.INTRA.DIHEDRAL>
-4.37611

>  <SCORE.INTRA.DIHEDRAL.0>
6.83446

>  <SCORE.INTRA.POLAR>
0

>  <SCORE.INTRA.POLAR.0>
0

>  <SCORE.INTRA.REPUL>
0

>  <SCORE.INTRA.REPUL.0>
0

>  <SCORE.INTRA.SOLV>
0.19749

>  <SCORE.INTRA.SOLV.lig_0>
-26.4601

>  <SCORE.INTRA.VDW>
-15.265

>  <SCORE.INTRA.VDW.0>
13.7853

>  <SCORE.INTRA.norm>
-0.598424

>  <SCORE.RESTR>
0

>  <SCORE.RESTR.CAVITY>
0

>  <SCORE.RESTR.norm>
0

>  <SCORE.SYSTEM>
0

>  <SCORE.SYSTEM.CONST>
0

>  <SCORE.SYSTEM.DIHEDRAL>
0

>  <SCORE.SYSTEM.SOLV>
0

>  <SCORE.SYSTEM.norm>
0

>  <SCORE.heavy>
29

>  <SCORE.norm>
-1.67911

>  <RMSD>
1.636

$$$$
ligand
 OpenBabel11021811473D
libRbt.so/2013.1/901 2013/11/27
 29 31  0  0  0  0  0  0  0  0999 V2000
   28.8176   39.6984   15.9021 C   0  0  0  0  0  0  0  0  0  0  0  0
   27.7200   40.5691   15.6085 O   0  0  0  0  0  0  0  0  0  0  0  0
   28.2879   38.2997   16.1869 C   0  0  1  0  0  0  0  0  0  0  0  0
   29.3945   37.4371   16.4313 O   0  0  0  0  0  0  0  0  0  0  0  0
   27.3539   38.3157   17.3902 C   0  0  1  0  0  0  0  0  0  0  0  0
   26.8847   36.9853   17.5759 O   0  0  0  0  0  0  0  0  0  0  0  0
   27.9786   38.8374   18.6876 C   0  0  1  0  0  0  0  0  0  0  0  0
   26.9456   38.9721   19.6645 O   0  0  0  0  0  0  0  0  0  0  0  0
   29.0549   37.9161   19.2581 C   0  0  0  0  0  0  0  0  0  0  0  0
   28.8597   35.3252   18.1535 N   0  0  0  0  0  0  0  0  0  0  0  0
   28.7865   34.0854   17.5917 C   0  0  0  0  0  0  0  0  0  0  0  0
   29.2289   33.8851   16.4330 O   0  0  0  0  0  0  0  0  0  0  0  0
   28.2298   33.0540   18.2760 N   0  0  0  0  0  0  0  0  0  0  0  0
   27.7373   33.2338   19.5274 C   0  0  0  0  0  0  0  0  0  0  0  0
   27.8062   34.4925   20.1135 C   0  0  1  0  0  0  0  0  0  0  0  0
   27.2210   32.2767   20.1559 O   0  0  0  0  0  0  0  0  0  0  0  0
   27.3924   35.9018   21.9296 C   0  0  1  0  0  0  0  0  0  0  0  0
   27.3234   34.6807   21.3609 N   0  0  0  0  0  0  0  0  0  0  0  0
   26.8924   36.0868   23.2138 C   0  0  0  0  0  0  0  0  0  0  0  0
   26.9514   37.3329   23.8279 C   0  0  2  0  0  0  0  0  0  0  0  0
   26.3897   37.4629   25.2204 C   0  0  0  0  0  0  0  0  0  0  0  0
   27.5211   38.4163   23.1470 C   0  0  2  0  0  0  0  0  0  0  0  0
   27.6136   39.6692   23.6862 N   0  0  0  0  0  0  0  0  0  0  0  0
   28.0192   38.2151   21.8539 C   0  0  0  0  0  0  0  0  0  0  0  0
   27.9610   36.9674   21.2338 C   0  0  2  0  0  0  0  0  0  0  0  0
   28.3809   35.5558   19.4102 C   0  0  2  0  0  0  0  0  0  0  0  0
   28.4424   36.7855   19.9827 N   0  0  0  0  0  0  0  0  0  0  0  0
   26.5376   40.6207   23.4830 C   0  0  0  0  0  0  0  0  0  0  0  0
   28.7577   40.1017   24.4716 C   0  0  0  0  0  0  0  0  0  0  0  0
  1  2  1  0  0  0  0
  3  1  1  1  0  0  0
  3  4  1  0  0  0  0
  3  5  1  0  0  0  0
  5  6  1  1  0  0  0
  5  7  1  0  0  0  0
  7  8  1  1  0  0  0
  7  9  1  0  0  0  0
  9 27  1  0  0  0  0
 10 11  1  0  0  0  0
 11 12  2  0  0  0  0
 11 13  1  0  0  0  0
 13 14  1  0  0  0  0
 14 16  2  0  0  0  0
 15 14  1  1  0  0  0
 15 18  1  0  0  0  0
 15 26  1  0  0  0  0
 17 19  1  1  0  0  0
 17 25  1  0  0  0  0
 17 18  1  0  0  0  0
 19 20  1  0  0  0  0
 20 21  1  6  0  0  0
 20 22  1  0  0  0  0
 22 23  1  6  0  0  0
 22 24  1  0  0  0  0
 23 28  1  0  0  0  0
 23 29  1  0  0  0  0
 25 24  1  6  0  0  0
 25 27  1  0  0  0  0
 26 10  1  6  0  0  0
 26 27  1  0  0  0  0
M  END
>  <CHROM.1>
178.02010748,178.95685864,171.85791805,-79.59698182,-90.29364007,-78.44197292
27.88140701,36.98297767,19.91503891,-0.23890210,1.40547146,-0.09125562

>  <Name>
ligand

>  <RI>
0

>  <Rbt.Current_Directory>
/home/itssahil/PROJECTS/Mol_Feturizer/New_Systems/rnas/3F4H

>  <Rbt.Executable>
rbdock ($Id: //depot/dev/client3/rdock/2013.1/src/exe/rbdock.cxx#4 $)

>  <Rbt.Library>
libRbt.so (2013.1, Build901 2013/11/27)

>  <Rbt.Parameter_File>
/export/apps/rDock/src/rDock_2013.1_src/data/scripts/dock_solv.prm

>  <Rbt.Receptor>
prm/pocket_docking_6.prm

>  <SCORE>
-43.6024

>  <SCORE.INTER>
-27.3442

>  <SCORE.INTER.CONST>
1

>  <SCORE.INTER.POLAR>
0

>  <SCORE.INTER.ROT>
6

>  <SCORE.INTER.SOLV>
9.50239

>  <SCORE.INTER.VDW>
-28.9969

>  <SCORE.INTER.norm>
-0.942903

>  <SCORE.INTRA>
-16.2583

>  <SCORE.INTRA.DIHEDRAL>
-3.23881

>  <SCORE.INTRA.DIHEDRAL.0>
6.83446

>  <SCORE.INTRA.POLAR>
0

>  <SCORE.INTRA.POLAR.0>
0

>  <SCORE.INTRA.REPUL>
0

>  <SCORE.INTRA.REPUL.0>
0

>  <SCORE.INTRA.SOLV>
0.963589

>  <SCORE.INTRA.SOLV.lig_0>
-26.4601

>  <SCORE.INTRA.VDW>
-15.1206

>  <SCORE.INTRA.VDW.0>
13.7853

>  <SCORE.INTRA.norm>
-0.56063

>  <SCORE.RESTR>
0

>  <SCORE.RESTR.CAVITY>
0

>  <SCORE.RESTR.norm>
0

>  <SCORE.SYSTEM>
0

>  <SCORE.SYSTEM.CONST>
0

>  <SCORE.SYSTEM.DIHEDRAL>
0

>  <SCORE.SYSTEM.SOLV>
0

>  <SCORE.SYSTEM.norm>
0

>  <SCORE.heavy>
29

>  <SCORE.norm>
-1.50353

>  <RMSD>
1.637

$$$$
ligand
 OpenBabel11021811473D
libRbt.so/2013.1/901 2013/11/27
 29 31  0  0  0  0  0  0  0  0999 V2000
   26.3762   40.4831   17.5616 C   0  0  0  0  0  0  0  0  0  0  0  0
   25.7288   39.7604   18.6140 O   0  0  0  0  0  0  0  0  0  0  0  0
   27.0637   39.4994   16.6247 C   0  0  1  0  0  0  0  0  0  0  0  0
   27.6277   40.2270   15.5381 O   0  0  0  0  0  0  0  0  0  0  0  0
   28.1484   38.7257   17.3630 C   0  0  1  0  0  0  0  0  0  0  0  0
   28.9473   39.6785   18.0549 O   0  0  0  0  0  0  0  0  0  0  0  0
   27.6352   37.6634   18.3395 C   0  0  1  0  0  0  0  0  0  0  0  0
   26.8424   36.7251   17.6112 O   0  0  0  0  0  0  0  0  0  0  0  0
   28.7512   36.8958   19.0453 C   0  0  0  0  0  0  0  0  0  0  0  0
   28.5326   34.1527   18.4136 N   0  0  0  0  0  0  0  0  0  0  0  0
   28.4466   32.8345   18.0777 C   0  0  0  0  0  0  0  0  0  0  0  0
   28.8331   32.4392   16.9495 O   0  0  0  0  0  0  0  0  0  0  0  0
   27.9372   31.9345   18.9566 N   0  0  0  0  0  0  0  0  0  0  0  0
   27.5054   32.3254   20.1820 C   0  0  0  0  0  0  0  0  0  0  0  0
   27.5883   33.6665   20.5389 C   0  0  1  0  0  0  0  0  0  0  0  0
   27.0328   31.4892   20.9912 O   0  0  0  0  0  0  0  0  0  0  0  0
   27.2485   35.3661   22.1045 C   0  0  1  0  0  0  0  0  0  0  0  0
   27.1659   34.0651   21.7584 N   0  0  0  0  0  0  0  0  0  0  0  0
   26.8108   35.7678   23.3618 C   0  0  0  0  0  0  0  0  0  0  0  0
   26.8853   37.1013   23.7488 C   0  0  2  0  0  0  0  0  0  0  0  0
   26.3921   37.4672   25.1252 C   0  0  0  0  0  0  0  0  0  0  0  0
   27.4073   38.0531   22.8636 C   0  0  2  0  0  0  0  0  0  0  0  0
   27.5113   39.3805   23.1741 N   0  0  0  0  0  0  0  0  0  0  0  0
   27.8427   37.6339   21.6006 C   0  0  0  0  0  0  0  0  0  0  0  0
   27.7688   36.2979   21.2078 C   0  0  2  0  0  0  0  0  0  0  0  0
   28.1143   34.5947   19.6349 C   0  0  2  0  0  0  0  0  0  0  0  0
   28.1894   35.9049   19.9837 N   0  0  0  0  0  0  0  0  0  0  0  0
   28.5633   39.8299   24.0662 C   0  0  0  0  0  0  0  0  0  0  0  0
   26.6043   40.3833   22.6408 C   0  0  0  0  0  0  0  0  0  0  0  0
  1  2  1  0  0  0  0
  3  1  1  1  0  0  0
  3  4  1  0  0  0  0
  3  5  1  0  0  0  0
  5  6  1  1  0  0  0
  5  7  1  0  0  0  0
  7  8  1  6  0  0  0
  7  9  1  0  0  0  0
  9 27  1  0  0  0  0
 10 11  1  0  0  0  0
 11 12  2  0  0  0  0
 11 13  1  0  0  0  0
 13 14  1  0  0  0  0
 14 16  2  0  0  0  0
 15 14  1  1  0  0  0
 15 18  1  0  0  0  0
 15 26  1  0  0  0  0
 17 19  1  1  0  0  0
 17 25  1  0  0  0  0
 17 18  1  0  0  0  0
 19 20  1  0  0  0  0
 20 21  1  6  0  0  0
 20 22  1  0  0  0  0
 22 23  1  6  0  0  0
 22 24  1  0  0  0  0
 23 28  1  0  0  0  0
 23 29  1  0  0  0  0
 25 24  1  6  0  0  0
 25 27  1  0  0  0  0
 26 10  1  6  0  0  0
 26 27  1  0  0  0  0
M  END
>  <CHROM.1>
176.26666949,-49.38618142,59.01102392,179.16131540,75.87630598,-80.69317193
27.56404735,36.63390378,20.06671149,-2.34721290,-1.44825218,2.42948796

>  <Name>
ligand

>  <RI>
0

>  <Rbt.Current_Directory>
/home/itssahil/PROJECTS/Mol_Feturizer/New_Systems/rnas/3F4H

>  <Rbt.Executable>
rbdock ($Id: //depot/dev/client3/rdock/2013.1/src/exe/rbdock.cxx#4 $)

>  <Rbt.Library>
libRbt.so (2013.1, Build901 2013/11/27)

>  <Rbt.Parameter_File>
/export/apps/rDock/src/rDock_2013.1_src/data/scripts/dock_solv.prm

>  <Rbt.Receptor>
prm/pocket_docking_3.prm

>  <SCORE>
-48.6275

>  <SCORE.INTER>
-31.4573

>  <SCORE.INTER.CONST>
1

>  <SCORE.INTER.POLAR>
0

>  <SCORE.INTER.ROT>
6

>  <SCORE.INTER.SOLV>
12.2874

>  <SCORE.INTER.VDW>
-32.6673

>  <SCORE.INTER.norm>
-1.08473

>  <SCORE.INTRA>
-17.1702

>  <SCORE.INTRA.DIHEDRAL>
-4.30992

>  <SCORE.INTRA.DIHEDRAL.0>
6.83446

>  <SCORE.INTRA.POLAR>
0

>  <SCORE.INTRA.POLAR.0>
0

>  <SCORE.INTRA.REPUL>
0

>  <SCORE.INTRA.REPUL.0>
0

>  <SCORE.INTRA.SOLV>
0.197826

>  <SCORE.INTRA.SOLV.lig_0>
-26.4601

>  <SCORE.INTRA.VDW>
-15.1141

>  <SCORE.INTRA.VDW.0>
13.7853

>  <SCORE.INTRA.norm>
-0.592075

>  <SCORE.RESTR>
0

>  <SCORE.RESTR.CAVITY>
0

>  <SCORE.RESTR.norm>
0

>  <SCORE.SYSTEM>
0

>  <SCORE.SYSTEM.CONST>
0

>  <SCORE.SYSTEM.DIHEDRAL>
0

>  <SCORE.SYSTEM.SOLV>
0

>  <SCORE.SYSTEM.norm>
0

>  <SCORE.heavy>
29

>  <SCORE.norm>
-1.67681

>  <RMSD>
1.643

$$$$
ligand
 OpenBabel11021811473D
libRbt.so/2013.1/901 2013/11/27
 29 31  0  0  0  0  0  0  0  0999 V2000
   29.8057   38.0393   16.3885 C   0  0  0  0  0  0  0  0  0  0  0  0
   30.9473   38.5761   17.0648 O   0  0  0  0  0  0  0  0  0  0  0  0
   28.6450   39.0175   16.5068 C   0  0  1  0  0  0  0  0  0  0  0  0
   27.5503   38.5159   15.7462 O   0  0  0  0  0  0  0  0  0  0  0  0
   28.2396   39.1936   17.9645 C   0  0  1  0  0  0  0  0  0  0  0  0
   27.2870   40.2496   18.0114 O   0  0  0  0  0  0  0  0  0  0  0  0
   27.6668   37.9404   18.6331 C   0  0  1  0  0  0  0  0  0  0  0  0
   26.7011   37.3609   17.7550 O   0  0  0  0  0  0  0  0  0  0  0  0
   28.7219   36.8809   18.9448 C   0  0  0  0  0  0  0  0  0  0  0  0
   28.5495   34.1356   18.3087 N   0  0  0  0  0  0  0  0  0  0  0  0
   28.4852   32.8167   17.9705 C   0  0  0  0  0  0  0  0  0  0  0  0
   28.8667   32.4316   16.8370 O   0  0  0  0  0  0  0  0  0  0  0  0
   28.0032   31.9049   18.8527 N   0  0  0  0  0  0  0  0  0  0  0  0
   27.5777   32.2846   20.0838 C   0  0  0  0  0  0  0  0  0  0  0  0
   27.6385   33.6262   20.4431 C   0  0  1  0  0  0  0  0  0  0  0  0
   27.1304   31.4375   20.8961 O   0  0  0  0  0  0  0  0  0  0  0  0
   27.2833   35.3153   22.0167 C   0  0  1  0  0  0  0  0  0  0  0  0
   27.2221   34.0137   21.6682 N   0  0  0  0  0  0  0  0  0  0  0  0
   26.8520   35.7055   23.2797 C   0  0  0  0  0  0  0  0  0  0  0  0
   26.9049   37.0393   23.6692 C   0  0  2  0  0  0  0  0  0  0  0  0
   26.4201   37.3924   25.0519 C   0  0  0  0  0  0  0  0  0  0  0  0
   27.3984   38.0031   22.7807 C   0  0  2  0  0  0  0  0  0  0  0  0
   27.4802   39.3315   23.0934 N   0  0  0  0  0  0  0  0  0  0  0  0
   27.8277   37.5953   21.5119 C   0  0  0  0  0  0  0  0  0  0  0  0
   27.7754   36.2591   21.1166 C   0  0  2  0  0  0  0  0  0  0  0  0
   28.1363   34.5665   19.5357 C   0  0  2  0  0  0  0  0  0  0  0  0
   28.1899   35.8771   19.8868 N   0  0  0  0  0  0  0  0  0  0  0  0
   28.5618   39.8069   23.9351 C   0  0  0  0  0  0  0  0  0  0  0  0
   26.5199   40.3105   22.6112 C   0  0  0  0  0  0  0  0  0  0  0  0
  1  2  1  0  0  0  0
  3  1  1  1  0  0  0
  3  4  1  0  0  0  0
  3  5  1  0  0  0  0
  5  6  1  6  0  0  0
  5  7  1  0  0  0  0
  7  8  1  6  0  0  0
  7  9  1  0  0  0  0
  9 27  1  0  0  0  0
 10 11  1  0  0  0  0
 11 12  2  0  0  0  0
 11 13  1  0  0  0  0
 13 14  1  0  0  0  0
 14 16  2  0  0  0  0
 15 14  1  1  0  0  0
 15 18  1  0  0  0  0
 15 26  1  0  0  0  0
 17 19  1  1  0  0  0
 17 25  1  0  0  0  0
 17 18  1  0  0  0  0
 19 20  1  0  0  0  0
 20 21  1  6  0  0  0
 20 22  1  0  0  0  0
 22 23  1  6  0  0  0
 22 24  1  0  0  0  0
 23 28  1  0  0  0  0
 23 29  1  0  0  0  0
 25 24  1  6  0  0  0
 25 27  1  0  0  0  0
 26 10  1  6  0  0  0
 26 27  1  0  0  0  0
M  END
>  <CHROM.1>
175.72481113,172.08609044,-46.73534900,165.11508077,78.13297071,-60.60294280
27.88836706,36.46019430,19.93597100,-0.95795175,1.33096831,0.09834973

>  <Name>
ligand

>  <RI>
0

>  <Rbt.Current_Directory>
/home/itssahil/PROJECTS/Mol_Feturizer/New_Systems/rnas/3F4H

>  <Rbt.Executable>
rbdock ($Id: //depot/dev/client3/rdock/2013.1/src/exe/rbdock.cxx#4 $)

>  <Rbt.Library>
libRbt.so (2013.1, Build901 2013/11/27)

>  <Rbt.Parameter_File>
/export/apps/rDock/src/rDock_2013.1_src/data/scripts/dock_solv.prm

>  <Rbt.Receptor>
prm/pocket_docking_8.prm

>  <SCORE>
-46.0001

>  <SCORE.INTER>
-30.7744

>  <SCORE.INTER.CONST>
1

>  <SCORE.INTER.POLAR>
0

>  <SCORE.INTER.ROT>
6

>  <SCORE.INTER.SOLV>
11.0151

>  <SCORE.INTER.VDW>
-31.7879

>  <SCORE.INTER.norm>
-1.06118

>  <SCORE.INTRA>
-15.2258

>  <SCORE.INTRA.DIHEDRAL>
-3.13787

>  <SCORE.INTRA.DIHEDRAL.0>
6.83446

>  <SCORE.INTRA.POLAR>
0

>  <SCORE.INTRA.POLAR.0>
0

>  <SCORE.INTRA.REPUL>
0

>  <SCORE.INTRA.REPUL.0>
0

>  <SCORE.INTRA.SOLV>
0.270817

>  <SCORE.INTRA.SOLV.lig_0>
-26.4601

>  <SCORE.INTRA.VDW>
-13.7922

>  <SCORE.INTRA.VDW.0>
13.7853

>  <SCORE.INTRA.norm>
-0.525026

>  <SCORE.RESTR>
0

>  <SCORE.RESTR.CAVITY>
0

>  <SCORE.RESTR.norm>
0

>  <SCORE.SYSTEM>
0

>  <SCORE.SYSTEM.CONST>
0

>  <SCORE.SYSTEM.DIHEDRAL>
0

>  <SCORE.SYSTEM.SOLV>
0

>  <SCORE.SYSTEM.norm>
0

>  <SCORE.heavy>
29

>  <SCORE.norm>
-1.58621

>  <RMSD>
1.672

$$$$
ligand
 OpenBabel11021811473D
libRbt.so/2013.1/901 2013/11/27
 29 31  0  0  0  0  0  0  0  0999 V2000
   27.8604   41.1976   19.6439 C   0  0  0  0  0  0  0  0  0  0  0  0
   26.9145   41.8582   18.7966 O   0  0  0  0  0  0  0  0  0  0  0  0
   28.3590   39.9357   18.9532 C   0  0  1  0  0  0  0  0  0  0  0  0
   29.4847   39.4406   19.6715 O   0  0  0  0  0  0  0  0  0  0  0  0
   27.2592   38.8830   18.9024 C   0  0  1  0  0  0  0  0  0  0  0  0
   26.1575   39.4590   18.2102 O   0  0  0  0  0  0  0  0  0  0  0  0
   27.6594   37.5600   18.2428 C   0  0  1  0  0  0  0  0  0  0  0  0
   28.1156   37.8353   16.9178 O   0  0  0  0  0  0  0  0  0  0  0  0
   28.7720   36.8223   18.9848 C   0  0  0  0  0  0  0  0  0  0  0  0
   28.5440   34.0802   18.3522 N   0  0  0  0  0  0  0  0  0  0  0  0
   28.4534   32.7624   18.0159 C   0  0  0  0  0  0  0  0  0  0  0  0
   28.8392   32.3660   16.8878 O   0  0  0  0  0  0  0  0  0  0  0  0
   27.9403   31.8639   18.8942 N   0  0  0  0  0  0  0  0  0  0  0  0
   27.5092   32.2560   20.1194 C   0  0  0  0  0  0  0  0  0  0  0  0
   27.5967   33.5967   20.4768 C   0  0  1  0  0  0  0  0  0  0  0  0
   27.0332   31.4213   20.9281 O   0  0  0  0  0  0  0  0  0  0  0  0
   27.2620   35.2971   22.0427 C   0  0  1  0  0  0  0  0  0  0  0  0
   27.1750   33.9965   21.6962 N   0  0  0  0  0  0  0  0  0  0  0  0
   26.8251   35.6999   23.2998 C   0  0  0  0  0  0  0  0  0  0  0  0
   26.9040   37.0330   23.6873 C   0  0  2  0  0  0  0  0  0  0  0  0
   26.4114   37.4002   25.0635 C   0  0  0  0  0  0  0  0  0  0  0  0
   27.4299   37.9832   22.8027 C   0  0  2  0  0  0  0  0  0  0  0  0
   27.5386   39.3101   23.1137 N   0  0  0  0  0  0  0  0  0  0  0  0
   27.8646   37.5628   21.5399 C   0  0  0  0  0  0  0  0  0  0  0  0
   27.7862   36.2272   21.1466 C   0  0  2  0  0  0  0  0  0  0  0  0
   28.1265   34.5233   19.5734 C   0  0  2  0  0  0  0  0  0  0  0  0
   28.2061   35.8331   19.9226 N   0  0  0  0  0  0  0  0  0  0  0  0
   26.5668   40.2527   22.5926 C   0  0  0  0  0  0  0  0  0  0  0  0
   28.5984   39.8322   23.9606 C   0  0  0  0  0  0  0  0  0  0  0  0
  1  2  1  0  0  0  0
  3  1  1  1  0  0  0
  3  4  1  0  0  0  0
  3  5  1  0  0  0  0
  5  6  1  6  0  0  0
  5  7  1  0  0  0  0
  7  8  1  6  0  0  0
  7  9  1  0  0  0  0
  9 27  1  0  0  0  0
 10 11  1  0  0  0  0
 11 12  2  0  0  0  0
 11 13  1  0  0  0  0
 13 14  1  0  0  0  0
 14 16  2  0  0  0  0
 15 14  1  1  0  0  0
 15 18  1  0  0  0  0
 15 26  1  0  0  0  0
 17 19  1  1  0  0  0
 17 25  1  0  0  0  0
 17 18  1  0  0  0  0
 19 20  1  0  0  0  0
 20 21  1  6  0  0  0
 20 22  1  0  0  0  0
 22 23  1  6  0  0  0
 22 24  1  0  0  0  0
 23 28  1  0  0  0  0
 23 29  1  0  0  0  0
 25 24  1  6  0  0  0
 25 27  1  0  0  0  0
 26 10  1  6  0  0  0
 26 27  1  0  0  0  0
M  END
>  <CHROM.1>
168.28775580,58.13074626,-57.11293613,94.30924435,-101.57994231,-82.67710587
27.69987179,36.71437381,20.37033920,-1.93183075,-1.40423481,3.02179751

>  <Name>
ligand

>  <RI>
0

>  <Rbt.Current_Directory>
/home/itssahil/PROJECTS/Mol_Feturizer/New_Systems/rnas/3F4H

>  <Rbt.Executable>
rbdock ($Id: //depot/dev/client3/rdock/2013.1/src/exe/rbdock.cxx#4 $)

>  <Rbt.Library>
libRbt.so (2013.1, Build901 2013/11/27)

>  <Rbt.Parameter_File>
/export/apps/rDock/src/rDock_2013.1_src/data/scripts/dock_solv.prm

>  <Rbt.Receptor>
prm/pocket_docking_3.prm

>  <SCORE>
-46.5143

>  <SCORE.INTER>
-30.6067

>  <SCORE.INTER.CONST>
1

>  <SCORE.INTER.POLAR>
0

>  <SCORE.INTER.ROT>
6

>  <SCORE.INTER.SOLV>
10.6031

>  <SCORE.INTER.VDW>
-31.5388

>  <SCORE.INTER.norm>
-1.0554

>  <SCORE.INTRA>
-15.9075

>  <SCORE.INTRA.DIHEDRAL>
-1.02042

>  <SCORE.INTRA.DIHEDRAL.0>
6.83446

>  <SCORE.INTRA.POLAR>
0

>  <SCORE.INTRA.POLAR.0>
0

>  <SCORE.INTRA.REPUL>
0

>  <SCORE.INTRA.REPUL.0>
0

>  <SCORE.INTRA.SOLV>
0.745586

>  <SCORE.INTRA.SOLV.lig_0>
-26.4601

>  <SCORE.INTRA.VDW>
-15.7701

>  <SCORE.INTRA.VDW.0>
13.7853

>  <SCORE.INTRA.norm>
-0.548536

>  <SCORE.RESTR>
0

>  <SCORE.RESTR.CAVITY>
0

>  <SCORE.RESTR.norm>
0

>  <SCORE.SYSTEM>
0

>  <SCORE.SYSTEM.CONST>
0

>  <SCORE.SYSTEM.DIHEDRAL>
0

>  <SCORE.SYSTEM.SOLV>
0

>  <SCORE.SYSTEM.norm>
0

>  <SCORE.heavy>
29

>  <SCORE.norm>
-1.60394

>  <RMSD>
1.693

$$$$
ligand
 OpenBabel11021811473D
libRbt.so/2013.1/901 2013/11/27
 29 31  0  0  0  0  0  0  0  0999 V2000
   30.3393   38.3417   16.9693 C   0  0  0  0  0  0  0  0  0  0  0  0
   31.2533   39.1006   17.7679 O   0  0  0  0  0  0  0  0  0  0  0  0
   29.0351   39.1141   16.8263 C   0  0  1  0  0  0  0  0  0  0  0  0
   28.1850   38.4059   15.9295 O   0  0  0  0  0  0  0  0  0  0  0  0
   28.3574   39.2759   18.1809 C   0  0  1  0  0  0  0  0  0  0  0  0
   27.3622   40.2825   18.0355 O   0  0  0  0  0  0  0  0  0  0  0  0
   27.7322   37.9983   18.7486 C   0  0  1  0  0  0  0  0  0  0  0  0
   26.8039   37.4855   17.7921 O   0  0  0  0  0  0  0  0  0  0  0  0
   28.7537   36.9044   19.0531 C   0  0  0  0  0  0  0  0  0  0  0  0
   28.5273   34.1640   18.4126 N   0  0  0  0  0  0  0  0  0  0  0  0
   28.4375   32.8471   18.0723 C   0  0  0  0  0  0  0  0  0  0  0  0
   28.8213   32.4546   16.9422 O   0  0  0  0  0  0  0  0  0  0  0  0
   27.9272   31.9454   18.9489 N   0  0  0  0  0  0  0  0  0  0  0  0
   27.4983   32.3333   20.1763 C   0  0  0  0  0  0  0  0  0  0  0  0
   27.5850   33.6729   20.5376 C   0  0  1  0  0  0  0  0  0  0  0  0
   27.0248   31.4955   20.9834 O   0  0  0  0  0  0  0  0  0  0  0  0
   27.2517   35.3681   22.1095 C   0  0  1  0  0  0  0  0  0  0  0  0
   27.1655   34.0685   21.7591 N   0  0  0  0  0  0  0  0  0  0  0  0
   26.8170   35.7666   23.3687 C   0  0  0  0  0  0  0  0  0  0  0  0
   26.8953   37.0986   23.7601 C   0  0  2  0  0  0  0  0  0  0  0  0
   26.4051   37.4611   25.1384 C   0  0  0  0  0  0  0  0  0  0  0  0
   27.4183   38.0521   22.8774 C   0  0  2  0  0  0  0  0  0  0  0  0
   27.5261   39.3781   23.1922 N   0  0  0  0  0  0  0  0  0  0  0  0
   27.8508   37.6361   21.6123 C   0  0  0  0  0  0  0  0  0  0  0  0
   27.7730   36.3016   21.2151 C   0  0  2  0  0  0  0  0  0  0  0  0
   28.1119   34.6028   19.6359 C   0  0  2  0  0  0  0  0  0  0  0  0
   28.1908   35.9117   19.9890 N   0  0  0  0  0  0  0  0  0  0  0  0
   28.5937   39.8251   24.0668 C   0  0  0  0  0  0  0  0  0  0  0  0
   26.6080   40.3821   22.6804 C   0  0  0  0  0  0  0  0  0  0  0  0
  1  2  1  0  0  0  0
  3  1  1  1  0  0  0
  3  4  1  0  0  0  0
  3  5  1  0  0  0  0
  5  6  1  6  0  0  0
  5  7  1  0  0  0  0
  7  8  1  6  0  0  0
  7  9  1  0  0  0  0
  9 27  1  0  0  0  0
 10 11  1  0  0  0  0
 11 12  2  0  0  0  0
 11 13  1  0  0  0  0
 13 14  1  0  0  0  0
 14 16  2  0  0  0  0
 15 14  1  1  0  0  0
 15 18  1  0  0  0  0
 15 26  1  0  0  0  0
 17 19  1  1  0  0  0
 17 25  1  0  0  0  0
 17 18  1  0  0  0  0
 19 20  1  0  0  0  0
 20 21  1  6  0  0  0
 20 22  1  0  0  0  0
 22 23  1  6  0  0  0
 22 24  1  0  0  0  0
 23 28  1  0  0  0  0
 23 29  1  0  0  0  0
 25 24  1  6  0  0  0
 25 27  1  0  0  0  0
 26 10  1  6  0  0  0
 26 27  1  0  0  0  0
M  END
>  <CHROM.1>
174.64539352,164.95696705,-56.19064851,160.96637597,76.87585743,-59.76017648
27.95879395,36.53290332,20.08432196,-1.78493254,-1.28229648,-2.86775972

>  <Name>
ligand

>  <RI>
0

>  <Rbt.Current_Directory>
/home/itssahil/PROJECTS/Mol_Feturizer/New_Systems/rnas/3F4H

>  <Rbt.Executable>
rbdock ($Id: //depot/dev/client3/rdock/2013.1/src/exe/rbdock.cxx#4 $)

>  <Rbt.Library>
libRbt.so (2013.1, Build901 2013/11/27)

>  <Rbt.Parameter_File>
/export/apps/rDock/src/rDock_2013.1_src/data/scripts/dock_solv.prm

>  <Rbt.Receptor>
prm/blind_docking_60.prm

>  <SCORE>
-45.7709

>  <SCORE.INTER>
-30.7717

>  <SCORE.INTER.CONST>
1

>  <SCORE.INTER.POLAR>
0

>  <SCORE.INTER.ROT>
6

>  <SCORE.INTER.SOLV>
10.9216

>  <SCORE.INTER.VDW>
-31.755

>  <SCORE.INTER.norm>
-1.06109

>  <SCORE.INTRA>
-14.9991

>  <SCORE.INTRA.DIHEDRAL>
-2.66258

>  <SCORE.INTRA.DIHEDRAL.0>
6.83446

>  <SCORE.INTRA.POLAR>
0

>  <SCORE.INTRA.POLAR.0>
0

>  <SCORE.INTRA.REPUL>
0

>  <SCORE.INTRA.REPUL.0>
0

>  <SCORE.INTRA.SOLV>
0.2089

>  <SCORE.INTRA.SOLV.lig_0>
-26.4601

>  <SCORE.INTRA.VDW>
-13.7723

>  <SCORE.INTRA.VDW.0>
13.7853

>  <SCORE.INTRA.norm>
-0.517212

>  <SCORE.RESTR>
0

>  <SCORE.RESTR.CAVITY>
0

>  <SCORE.RESTR.norm>
0

>  <SCORE.SYSTEM>
0

>  <SCORE.SYSTEM.CONST>
0

>  <SCORE.SYSTEM.DIHEDRAL>
0

>  <SCORE.SYSTEM.SOLV>
0

>  <SCORE.SYSTEM.norm>
0

>  <SCORE.heavy>
29

>  <SCORE.norm>
-1.57831

>  <RMSD>
1.704

$$$$
ligand
 OpenBabel11021811473D
libRbt.so/2013.1/901 2013/11/27
 29 31  0  0  0  0  0  0  0  0999 V2000
   28.0760   41.3351   18.9407 C   0  0  0  0  0  0  0  0  0  0  0  0
   28.3318   41.2109   20.3435 O   0  0  0  0  0  0  0  0  0  0  0  0
   28.2988   39.9878   18.2674 C   0  0  1  0  0  0  0  0  0  0  0  0
   29.6045   39.5258   18.5993 O   0  0  0  0  0  0  0  0  0  0  0  0
   27.2500   38.9816   18.7233 C   0  0  1  0  0  0  0  0  0  0  0  0
   25.9875   39.4552   18.2687 O   0  0  0  0  0  0  0  0  0  0  0  0
   27.4767   37.5462   18.2398 C   0  0  1  0  0  0  0  0  0  0  0  0
   27.7639   37.5803   16.8412 O   0  0  0  0  0  0  0  0  0  0  0  0
   28.6340   36.8422   18.9454 C   0  0  0  0  0  0  0  0  0  0  0  0
   28.4687   34.0921   18.3284 N   0  0  0  0  0  0  0  0  0  0  0  0
   28.4073   32.7708   17.9989 C   0  0  0  0  0  0  0  0  0  0  0  0
   28.7690   32.3818   16.8603 O   0  0  0  0  0  0  0  0  0  0  0  0
   27.9493   31.8608   18.8956 N   0  0  0  0  0  0  0  0  0  0  0  0
   27.5455   32.2446   20.1327 C   0  0  0  0  0  0  0  0  0  0  0  0
   27.6038   33.5886   20.4832 C   0  0  1  0  0  0  0  0  0  0  0  0
   27.1204   31.3990   20.9585 O   0  0  0  0  0  0  0  0  0  0  0  0
   27.2676   35.2842   22.0540 C   0  0  1  0  0  0  0  0  0  0  0  0
   27.2089   33.9803   21.7141 N   0  0  0  0  0  0  0  0  0  0  0  0
   26.8585   35.6786   23.3231 C   0  0  0  0  0  0  0  0  0  0  0  0
   26.9096   37.0150   23.7040 C   0  0  2  0  0  0  0  0  0  0  0  0
   26.4497   37.3727   25.0939 C   0  0  0  0  0  0  0  0  0  0  0  0
   27.3785   37.9771   22.8004 C   0  0  2  0  0  0  0  0  0  0  0  0
   27.4569   39.3079   23.1039 N   0  0  0  0  0  0  0  0  0  0  0  0
   27.7856   37.5651   21.5257 C   0  0  0  0  0  0  0  0  0  0  0  0
   27.7351   36.2262   21.1390 C   0  0  2  0  0  0  0  0  0  0  0  0
   28.0768   34.5272   19.5608 C   0  0  2  0  0  0  0  0  0  0  0  0
   28.1279   35.8401   19.9035 N   0  0  0  0  0  0  0  0  0  0  0  0
   28.5478   39.7946   23.9271 C   0  0  0  0  0  0  0  0  0  0  0  0
   26.4841   40.2783   22.6298 C   0  0  0  0  0  0  0  0  0  0  0  0
  1  2  1  0  0  0  0
  3  1  1  1  0  0  0
  3  4  1  0  0  0  0
  3  5  1  0  0  0  0
  5  6  1  6  0  0  0
  5  7  1  0  0  0  0
  7  8  1  6  0  0  0
  7  9  1  0  0  0  0
  9 27  1  0  0  0  0
 10 11  1  0  0  0  0
 11 12  2  0  0  0  0
 11 13  1  0  0  0  0
 13 14  1  0  0  0  0
 14 16  2  0  0  0  0
 15 14  1  1  0  0  0
 15 18  1  0  0  0  0
 15 26  1  0  0  0  0
 17 19  1  1  0  0  0
 17 25  1  0  0  0  0
 17 18  1  0  0  0  0
 19 20  1  0  0  0  0
 20 21  1  6  0  0  0
 20 22  1  0  0  0  0
 22 23  1  6  0  0  0
 22 24  1  0  0  0  0
 23 28  1  0  0  0  0
 23 29  1  0  0  0  0
 25 24  1  6  0  0  0
 25 27  1  0  0  0  0
 26 10  1  6  0  0  0
 26 27  1  0  0  0  0
M  END
>  <CHROM.1>
-54.03317670,64.36405987,-47.47376748,106.24048579,77.81576114,-82.51111220
27.71978541,36.68764338,20.33491969,-1.75694652,-1.38774342,-3.06933631

>  <Name>
ligand

>  <RI>
0

>  <Rbt.Current_Directory>
/home/itssahil/PROJECTS/Mol_Feturizer/New_Systems/rnas/3F4H

>  <Rbt.Executable>
rbdock ($Id: //depot/dev/client3/rdock/2013.1/src/exe/rbdock.cxx#4 $)

>  <Rbt.Library>
libRbt.so (2013.1, Build901 2013/11/27)

>  <Rbt.Parameter_File>
/export/apps/rDock/src/rDock_2013.1_src/data/scripts/dock_solv.prm

>  <Rbt.Receptor>
prm/pocket_docking_4.prm

>  <SCORE>
-45.7813

>  <SCORE.INTER>
-30.2095

>  <SCORE.INTER.CONST>
1

>  <SCORE.INTER.POLAR>
0

>  <SCORE.INTER.ROT>
6

>  <SCORE.INTER.SOLV>
10.9148

>  <SCORE.INTER.VDW>
-31.3779

>  <SCORE.INTER.norm>
-1.04171

>  <SCORE.INTRA>
-15.5727

>  <SCORE.INTRA.DIHEDRAL>
0.595922

>  <SCORE.INTRA.DIHEDRAL.0>
6.83446

>  <SCORE.INTRA.POLAR>
0

>  <SCORE.INTRA.POLAR.0>
0

>  <SCORE.INTRA.REPUL>
0

>  <SCORE.INTRA.REPUL.0>
0

>  <SCORE.INTRA.SOLV>
0.724556

>  <SCORE.INTRA.SOLV.lig_0>
-26.4601

>  <SCORE.INTRA.VDW>
-16.233

>  <SCORE.INTRA.VDW.0>
13.7853

>  <SCORE.INTRA.norm>
-0.536991

>  <SCORE.RESTR>
0.000983142

>  <SCORE.RESTR.CAVITY>
0.000983142

>  <SCORE.RESTR.norm>
3.39015e-05

>  <SCORE.SYSTEM>
0

>  <SCORE.SYSTEM.CONST>
0

>  <SCORE.SYSTEM.DIHEDRAL>
0

>  <SCORE.SYSTEM.SOLV>
0

>  <SCORE.SYSTEM.norm>
0

>  <SCORE.heavy>
29

>  <SCORE.norm>
-1.57866

>  <RMSD>
1.708

$$$$
ligand
 OpenBabel11021811473D
libRbt.so/2013.1/901 2013/11/27
 29 31  0  0  0  0  0  0  0  0999 V2000
   29.9800   37.9589   16.5179 C   0  0  0  0  0  0  0  0  0  0  0  0
   30.5294   37.8327   15.2022 O   0  0  0  0  0  0  0  0  0  0  0  0
   28.7093   38.7953   16.4545 C   0  0  1  0  0  0  0  0  0  0  0  0
   27.7264   38.0713   15.7209 O   0  0  0  0  0  0  0  0  0  0  0  0
   28.2013   39.1045   17.8568 C   0  0  1  0  0  0  0  0  0  0  0  0
   27.1874   40.0945   17.7279 O   0  0  0  0  0  0  0  0  0  0  0  0
   27.6611   37.8980   18.6303 C   0  0  1  0  0  0  0  0  0  0  0  0
   26.7215   37.2132   17.8009 O   0  0  0  0  0  0  0  0  0  0  0  0
   28.7451   36.9037   19.0413 C   0  0  0  0  0  0  0  0  0  0  0  0
   28.5438   34.1678   18.3739 N   0  0  0  0  0  0  0  0  0  0  0  0
   28.4657   32.8536   18.0206 C   0  0  0  0  0  0  0  0  0  0  0  0
   28.8441   32.4773   16.8832 O   0  0  0  0  0  0  0  0  0  0  0  0
   27.9731   31.9371   18.8919 N   0  0  0  0  0  0  0  0  0  0  0  0
   27.5504   32.3073   20.1269 C   0  0  0  0  0  0  0  0  0  0  0  0
   27.6253   33.6440   20.5016 C   0  0  1  0  0  0  0  0  0  0  0  0
   27.0933   31.4559   20.9291 O   0  0  0  0  0  0  0  0  0  0  0  0
   27.2867   35.3188   22.0940 C   0  0  1  0  0  0  0  0  0  0  0  0
   27.2120   34.0220   21.7307 N   0  0  0  0  0  0  0  0  0  0  0  0
   26.8585   35.6992   23.3610 C   0  0  0  0  0  0  0  0  0  0  0  0
   26.9253   37.0278   23.7657 C   0  0  2  0  0  0  0  0  0  0  0  0
   26.4431   37.3704   25.1519 C   0  0  0  0  0  0  0  0  0  0  0  0
   27.4300   37.9963   22.8887 C   0  0  2  0  0  0  0  0  0  0  0  0
   27.5258   39.3202   23.2165 N   0  0  0  0  0  0  0  0  0  0  0  0
   27.8562   37.5984   21.6157 C   0  0  0  0  0  0  0  0  0  0  0  0
   27.7899   36.2674   21.2051 C   0  0  2  0  0  0  0  0  0  0  0  0
   28.1341   34.5892   19.6053 C   0  0  2  0  0  0  0  0  0  0  0  0
   28.2014   35.8950   19.9714 N   0  0  0  0  0  0  0  0  0  0  0  0
   28.5907   39.7685   24.0937 C   0  0  0  0  0  0  0  0  0  0  0  0
   26.5972   40.3204   22.7164 C   0  0  0  0  0  0  0  0  0  0  0  0
  1  2  1  0  0  0  0
  3  1  1  1  0  0  0
  3  4  1  0  0  0  0
  3  5  1  0  0  0  0
  5  6  1  6  0  0  0
  5  7  1  0  0  0  0
  7  8  1  6  0  0  0
  7  9  1  0  0  0  0
  9 27  1  0  0  0  0
 10 11  1  0  0  0  0
 11 12  2  0  0  0  0
 11 13  1  0  0  0  0
 13 14  1  0  0  0  0
 14 16  2  0  0  0  0
 15 14  1  1  0  0  0
 15 18  1  0  0  0  0
 15 26  1  0  0  0  0
 17 19  1  1  0  0  0
 17 25  1  0  0  0  0
 17 18  1  0  0  0  0
 19 20  1  0  0  0  0
 20 21  1  6  0  0  0
 20 22  1  0  0  0  0
 22 23  1  6  0  0  0
 22 24  1  0  0  0  0
 23 28  1  0  0  0  0
 23 29  1  0  0  0  0
 25 24  1  6  0  0  0
 25 27  1  0  0  0  0
 26 10  1  6  0  0  0
 26 27  1  0  0  0  0
M  END
>  <CHROM.1>
66.38158917,168.61291079,-50.54147620,170.32370530,76.47427232,-66.31504101
27.88724981,36.39289961,19.90674284,-0.43962314,1.33925606,0.07846137

>  <Name>
ligand

>  <RI>
0

>  <Rbt.Current_Directory>
/home/itssahil/PROJECTS/Mol_Feturizer/New_Systems/rnas/3F4H

>  <Rbt.Executable>
rbdock ($Id: //depot/dev/client3/rdock/2013.1/src/exe/rbdock.cxx#4 $)

>  <Rbt.Library>
libRbt.so (2013.1, Build901 2013/11/27)

>  <Rbt.Parameter_File>
/export/apps/rDock/src/rDock_2013.1_src/data/scripts/dock_solv.prm

>  <Rbt.Receptor>
prm/pocket_docking_4.prm

>  <SCORE>
-46.1158

>  <SCORE.INTER>
-30.396

>  <SCORE.INTER.CONST>
1

>  <SCORE.INTER.POLAR>
0

>  <SCORE.INTER.ROT>
6

>  <SCORE.INTER.SOLV>
11.2014

>  <SCORE.INTER.VDW>
-31.5978

>  <SCORE.INTER.norm>
-1.04814

>  <SCORE.INTRA>
-15.7198

>  <SCORE.INTRA.DIHEDRAL>
-3.54532

>  <SCORE.INTRA.DIHEDRAL.0>
6.83446

>  <SCORE.INTRA.POLAR>
0

>  <SCORE.INTRA.POLAR.0>
0

>  <SCORE.INTRA.REPUL>
0

>  <SCORE.INTRA.REPUL.0>
0

>  <SCORE.INTRA.SOLV>
0.0404793

>  <SCORE.INTRA.SOLV.lig_0>
-26.4601

>  <SCORE.INTRA.VDW>
-13.9674

>  <SCORE.INTRA.VDW.0>
13.7853

>  <SCORE.INTRA.norm>
-0.542062

>  <SCORE.RESTR>
0

>  <SCORE.RESTR.CAVITY>
0

>  <SCORE.RESTR.norm>
0

>  <SCORE.SYSTEM>
0

>  <SCORE.SYSTEM.CONST>
0

>  <SCORE.SYSTEM.DIHEDRAL>
0

>  <SCORE.SYSTEM.SOLV>
0

>  <SCORE.SYSTEM.norm>
0

>  <SCORE.heavy>
29

>  <SCORE.norm>
-1.5902

>  <RMSD>
1.713

$$$$
ligand
 OpenBabel11021811473D
libRbt.so/2013.1/901 2013/11/27
 29 31  0  0  0  0  0  0  0  0999 V2000
   27.7864   41.2268   19.7301 C   0  0  0  0  0  0  0  0  0  0  0  0
   26.8730   41.8647   18.8313 O   0  0  0  0  0  0  0  0  0  0  0  0
   28.3323   39.9631   19.0795 C   0  0  1  0  0  0  0  0  0  0  0  0
   29.4283   39.4905   19.8566 O   0  0  0  0  0  0  0  0  0  0  0  0
   27.2487   38.8963   18.9897 C   0  0  1  0  0  0  0  0  0  0  0  0
   26.1448   39.4751   18.3033 O   0  0  0  0  0  0  0  0  0  0  0  0
   27.6743   37.5980   18.2976 C   0  0  1  0  0  0  0  0  0  0  0  0
   28.1447   37.9172   16.9875 O   0  0  0  0  0  0  0  0  0  0  0  0
   28.7862   36.8527   19.0332 C   0  0  0  0  0  0  0  0  0  0  0  0
   28.5629   34.1153   18.3791 N   0  0  0  0  0  0  0  0  0  0  0  0
   28.4747   32.7999   18.0324 C   0  0  0  0  0  0  0  0  0  0  0  0
   28.8636   32.4127   16.9023 O   0  0  0  0  0  0  0  0  0  0  0  0
   27.9606   31.8942   18.9026 N   0  0  0  0  0  0  0  0  0  0  0  0
   27.5262   32.2764   20.1298 C   0  0  0  0  0  0  0  0  0  0  0  0
   27.6112   33.6144   20.4976 C   0  0  1  0  0  0  0  0  0  0  0  0
   27.0492   31.4349   20.9309 O   0  0  0  0  0  0  0  0  0  0  0  0
   27.2707   35.3023   22.0758 C   0  0  1  0  0  0  0  0  0  0  0  0
   27.1861   34.0043   21.7190 N   0  0  0  0  0  0  0  0  0  0  0  0
   26.8303   35.6950   23.3349 C   0  0  0  0  0  0  0  0  0  0  0  0
   26.9068   37.0252   23.7327 C   0  0  2  0  0  0  0  0  0  0  0  0
   26.4105   37.3813   25.1105 C   0  0  0  0  0  0  0  0  0  0  0  0
   27.4336   37.9828   22.8567 C   0  0  2  0  0  0  0  0  0  0  0  0
   27.5400   39.3074   23.1781 N   0  0  0  0  0  0  0  0  0  0  0  0
   27.8718   37.5726   21.5917 C   0  0  0  0  0  0  0  0  0  0  0  0
   27.7959   36.2399   21.1880 C   0  0  2  0  0  0  0  0  0  0  0  0
   28.1421   34.5485   19.6026 C   0  0  2  0  0  0  0  0  0  0  0  0
   28.2192   35.8557   19.9620 N   0  0  0  0  0  0  0  0  0  0  0  0
   26.5685   40.2528   22.6616 C   0  0  0  0  0  0  0  0  0  0  0  0
   28.5969   39.8241   24.0317 C   0  0  0  0  0  0  0  0  0  0  0  0
  1  2  1  0  0  0  0
  3  1  1  1  0  0  0
  3  4  1  0  0  0  0
  3  5  1  0  0  0  0
  5  6  1  6  0  0  0
  5  7  1  0  0  0  0
  7  8  1  6  0  0  0
  7  9  1  0  0  0  0
  9 27  1  0  0  0  0
 10 11  1  0  0  0  0
 11 12  2  0  0  0  0
 11 13  1  0  0  0  0
 13 14  1  0  0  0  0
 14 16  2  0  0  0  0
 15 14  1  1  0  0  0
 15 18  1  0  0  0  0
 15 26  1  0  0  0  0
 17 19  1  1  0  0  0
 17 25  1  0  0  0  0
 17 18  1  0  0  0  0
 19 20  1  0  0  0  0
 20 21  1  6  0  0  0
 20 22  1  0  0  0  0
 22 23  1  6  0  0  0
 22 24  1  0  0  0  0
 23 28  1  0  0  0  0
 23 29  1  0  0  0  0
 25 24  1  6  0  0  0
 25 27  1  0  0  0  0
 26 10  1  6  0  0  0
 26 27  1  0  0  0  0
M  END
>  <CHROM.1>
168.35757027,54.95854756,-56.81591888,92.73141447,-101.59547417,-82.48828244
27.70082685,36.73339327,20.42285897,-1.96901591,-1.40586674,2.99450290

>  <Name>
ligand

>  <RI>
0

>  <Rbt.Current_Directory>
/home/itssahil/PROJECTS/Mol_Feturizer/New_Systems/rnas/3F4H

>  <Rbt.Executable>
rbdock ($Id: //depot/dev/client3/rdock/2013.1/src/exe/rbdock.cxx#4 $)

>  <Rbt.Library>
libRbt.so (2013.1, Build901 2013/11/27)

>  <Rbt.Parameter_File>
/export/apps/rDock/src/rDock_2013.1_src/data/scripts/dock_solv.prm

>  <Rbt.Receptor>
prm/pocket_docking_6.prm

>  <SCORE>
-46.5849

>  <SCORE.INTER>
-30.7436

>  <SCORE.INTER.CONST>
1

>  <SCORE.INTER.POLAR>
0

>  <SCORE.INTER.ROT>
6

>  <SCORE.INTER.SOLV>
10.5817

>  <SCORE.INTER.VDW>
-31.6229

>  <SCORE.INTER.norm>
-1.06012

>  <SCORE.INTRA>
-15.8414

>  <SCORE.INTRA.DIHEDRAL>
-1.1552

>  <SCORE.INTRA.DIHEDRAL.0>
6.83446

>  <SCORE.INTRA.POLAR>
0

>  <SCORE.INTRA.POLAR.0>
0

>  <SCORE.INTRA.REPUL>
0

>  <SCORE.INTRA.REPUL.0>
0

>  <SCORE.INTRA.SOLV>
0.853112

>  <SCORE.INTRA.SOLV.lig_0>
-26.4601

>  <SCORE.INTRA.VDW>
-15.6903

>  <SCORE.INTRA.VDW.0>
13.7853

>  <SCORE.INTRA.norm>
-0.546254

>  <SCORE.RESTR>
0

>  <SCORE.RESTR.CAVITY>
0

>  <SCORE.RESTR.norm>
0

>  <SCORE.SYSTEM>
0

>  <SCORE.SYSTEM.CONST>
0

>  <SCORE.SYSTEM.DIHEDRAL>
0

>  <SCORE.SYSTEM.SOLV>
0

>  <SCORE.SYSTEM.norm>
0

>  <SCORE.heavy>
29

>  <SCORE.norm>
-1.60638

>  <RMSD>
1.729

$$$$
ligand
 OpenBabel11021811473D
libRbt.so/2013.1/901 2013/11/27
 29 31  0  0  0  0  0  0  0  0999 V2000
   30.5902   38.0349   16.9447 C   0  0  0  0  0  0  0  0  0  0  0  0
   30.9620   39.3637   17.3255 O   0  0  0  0  0  0  0  0  0  0  0  0
   29.2296   38.0693   16.2622 C   0  0  1  0  0  0  0  0  0  0  0  0
   28.9199   36.7574   15.8024 O   0  0  0  0  0  0  0  0  0  0  0  0
   28.1581   38.5577   17.2285 C   0  0  1  0  0  0  0  0  0  0  0  0
   27.0782   39.0512   16.4444 O   0  0  0  0  0  0  0  0  0  0  0  0
   27.6499   37.5047   18.2176 C   0  0  1  0  0  0  0  0  0  0  0  0
   26.9830   36.4781   17.4821 O   0  0  0  0  0  0  0  0  0  0  0  0
   28.7615   36.8549   19.0392 C   0  0  0  0  0  0  0  0  0  0  0  0
   28.5359   34.1124   18.4073 N   0  0  0  0  0  0  0  0  0  0  0  0
   28.4464   32.7945   18.0711 C   0  0  0  0  0  0  0  0  0  0  0  0
   28.8266   32.3993   16.9407 O   0  0  0  0  0  0  0  0  0  0  0  0
   27.9403   31.8947   18.9521 N   0  0  0  0  0  0  0  0  0  0  0  0
   27.5153   32.2856   20.1799 C   0  0  0  0  0  0  0  0  0  0  0  0
   27.6018   33.6264   20.5371 C   0  0  1  0  0  0  0  0  0  0  0  0
   27.0457   31.4495   20.9911 O   0  0  0  0  0  0  0  0  0  0  0  0
   27.2723   35.3256   22.1053 C   0  0  1  0  0  0  0  0  0  0  0  0
   27.1863   34.0249   21.7590 N   0  0  0  0  0  0  0  0  0  0  0  0
   26.8416   35.7272   23.3650 C   0  0  0  0  0  0  0  0  0  0  0  0
   26.9199   37.0604   23.7523 C   0  0  2  0  0  0  0  0  0  0  0  0
   26.4343   37.4262   25.1314 C   0  0  0  0  0  0  0  0  0  0  0  0
   27.4386   38.0120   22.8650 C   0  0  2  0  0  0  0  0  0  0  0  0
   27.5460   39.3390   23.1756 N   0  0  0  0  0  0  0  0  0  0  0  0
   27.8670   37.5928   21.5996 C   0  0  0  0  0  0  0  0  0  0  0  0
   27.7893   36.2571   21.2064 C   0  0  2  0  0  0  0  0  0  0  0  0
   28.1245   34.5543   19.6309 C   0  0  2  0  0  0  0  0  0  0  0  0
   28.2031   35.8642   19.9799 N   0  0  0  0  0  0  0  0  0  0  0  0
   28.5998   39.7859   24.0669 C   0  0  0  0  0  0  0  0  0  0  0  0
   26.6410   40.3441   22.6433 C   0  0  0  0  0  0  0  0  0  0  0  0
  1  2  1  0  0  0  0
  3  1  1  1  0  0  0
  3  4  1  0  0  0  0
  3  5  1  0  0  0  0
  5  6  1  6  0  0  0
  5  7  1  0  0  0  0
  7  8  1  6  0  0  0
  7  9  1  0  0  0  0
  9 27  1  0  0  0  0
 10 11  1  0  0  0  0
 11 12  2  0  0  0  0
 11 13  1  0  0  0  0
 13 14  1  0  0  0  0
 14 16  2  0  0  0  0
 15 14  1  1  0  0  0
 15 18  1  0  0  0  0
 15 26  1  0  0  0  0
 17 19  1  1  0  0  0
 17 25  1  0  0  0  0
 17 18  1  0  0  0  0
 19 20  1  0  0  0  0
 20 21  1  6  0  0  0
 20 22  1  0  0  0  0
 22 23  1  6  0  0  0
 22 24  1  0  0  0  0
 23 28  1  0  0  0  0
 23 29  1  0  0  0  0
 25 24  1  6  0  0  0
 25 27  1  0  0  0  0
 26 10  1  6  0  0  0
 26 27  1  0  0  0  0
M  END
>  <CHROM.1>
175.75825338,157.99573374,-65.05290878,179.35786862,75.62423252,-87.55443695
27.99027487,36.27121299,19.91284535,-0.76948361,1.29069449,0.35078516

>  <Name>
ligand

>  <RI>
0

>  <Rbt.Current_Directory>
/home/itssahil/PROJECTS/Mol_Feturizer/New_Systems/rnas/3F4H

>  <Rbt.Executable>
rbdock ($Id: //depot/dev/client3/rdock/2013.1/src/exe/rbdock.cxx#4 $)

>  <Rbt.Library>
libRbt.so (2013.1, Build901 2013/11/27)

>  <Rbt.Parameter_File>
/export/apps/rDock/src/rDock_2013.1_src/data/scripts/dock_solv.prm

>  <Rbt.Receptor>
prm/pocket_docking_7.prm

>  <SCORE>
-46.8809

>  <SCORE.INTER>
-30.8512

>  <SCORE.INTER.CONST>
1

>  <SCORE.INTER.POLAR>
0

>  <SCORE.INTER.ROT>
6

>  <SCORE.INTER.SOLV>
11.3207

>  <SCORE.INTER.VDW>
-31.941

>  <SCORE.INTER.norm>
-1.06383

>  <SCORE.INTRA>
-16.0297

>  <SCORE.INTRA.DIHEDRAL>
-3.02147

>  <SCORE.INTRA.DIHEDRAL.0>
6.83446

>  <SCORE.INTRA.POLAR>
0

>  <SCORE.INTRA.POLAR.0>
0

>  <SCORE.INTRA.REPUL>
0

>  <SCORE.INTRA.REPUL.0>
0

>  <SCORE.INTRA.SOLV>
0.325357

>  <SCORE.INTRA.SOLV.lig_0>
-26.4601

>  <SCORE.INTRA.VDW>
-14.6817

>  <SCORE.INTRA.VDW.0>
13.7853

>  <SCORE.INTRA.norm>
-0.552749

>  <SCORE.RESTR>
0

>  <SCORE.RESTR.CAVITY>
0

>  <SCORE.RESTR.norm>
0

>  <SCORE.SYSTEM>
0

>  <SCORE.SYSTEM.CONST>
0

>  <SCORE.SYSTEM.DIHEDRAL>
0

>  <SCORE.SYSTEM.SOLV>
0

>  <SCORE.SYSTEM.norm>
0

>  <SCORE.heavy>
29

>  <SCORE.norm>
-1.61658

>  <RMSD>
1.744

$$$$
ligand
 OpenBabel11021811473D
libRbt.so/2013.1/901 2013/11/27
 29 31  0  0  0  0  0  0  0  0999 V2000
   29.8598   37.2438   15.7209 C   0  0  0  0  0  0  0  0  0  0  0  0
   31.2493   37.1465   15.3910 O   0  0  0  0  0  0  0  0  0  0  0  0
   29.6458   38.4284   16.6531 C   0  0  1  0  0  0  0  0  0  0  0  0
   29.9680   39.6235   15.9486 O   0  0  0  0  0  0  0  0  0  0  0  0
   28.2028   38.4735   17.1389 C   0  0  1  0  0  0  0  0  0  0  0  0
   27.3746   38.5826   15.9870 O   0  0  0  0  0  0  0  0  0  0  0  0
   27.7673   37.2743   17.9863 C   0  0  1  0  0  0  0  0  0  0  0  0
   27.5429   36.1639   17.1167 O   0  0  0  0  0  0  0  0  0  0  0  0
   28.8021   36.8589   19.0300 C   0  0  0  0  0  0  0  0  0  0  0  0
   28.5753   34.1214   18.3776 N   0  0  0  0  0  0  0  0  0  0  0  0
   28.4854   32.8059   18.0318 C   0  0  0  0  0  0  0  0  0  0  0  0
   28.8737   32.4175   16.9018 O   0  0  0  0  0  0  0  0  0  0  0  0
   27.9702   31.9014   18.9026 N   0  0  0  0  0  0  0  0  0  0  0  0
   27.5364   32.2849   20.1296 C   0  0  0  0  0  0  0  0  0  0  0  0
   27.6232   33.6231   20.4966 C   0  0  1  0  0  0  0  0  0  0  0  0
   27.0585   31.4445   20.9313 O   0  0  0  0  0  0  0  0  0  0  0  0
   27.2851   35.3124   22.0737 C   0  0  1  0  0  0  0  0  0  0  0  0
   27.1988   34.0143   21.7178 N   0  0  0  0  0  0  0  0  0  0  0  0
   26.8453   35.7064   23.3326 C   0  0  0  0  0  0  0  0  0  0  0  0
   26.9235   37.0368   23.7296 C   0  0  2  0  0  0  0  0  0  0  0  0
   26.4278   37.3944   25.1072 C   0  0  0  0  0  0  0  0  0  0  0  0
   27.4515   37.9931   22.8529 C   0  0  2  0  0  0  0  0  0  0  0  0
   27.5595   39.3178   23.1735 N   0  0  0  0  0  0  0  0  0  0  0  0
   27.8890   37.5816   21.5881 C   0  0  0  0  0  0  0  0  0  0  0  0
   27.8113   36.2488   21.1853 C   0  0  2  0  0  0  0  0  0  0  0  0
   28.1551   34.5559   19.6009 C   0  0  2  0  0  0  0  0  0  0  0  0
   28.2340   35.8632   19.9595 N   0  0  0  0  0  0  0  0  0  0  0  0
   26.6060   40.2684   22.6334 C   0  0  0  0  0  0  0  0  0  0  0  0
   28.6008   39.8297   24.0490 C   0  0  0  0  0  0  0  0  0  0  0  0
  1  2  1  0  0  0  0
  3  1  1  6  0  0  0
  3  4  1  0  0  0  0
  3  5  1  0  0  0  0
  5  6  1  6  0  0  0
  5  7  1  0  0  0  0
  7  8  1  6  0  0  0
  7  9  1  0  0  0  0
  9 27  1  0  0  0  0
 10 11  1  0  0  0  0
 11 12  2  0  0  0  0
 11 13  1  0  0  0  0
 13 14  1  0  0  0  0
 14 16  2  0  0  0  0
 15 14  1  1  0  0  0
 15 18  1  0  0  0  0
 15 26  1  0  0  0  0
 17 19  1  1  0  0  0
 17 25  1  0  0  0  0
 17 18  1  0  0  0  0
 19 20  1  0  0  0  0
 20 21  1  6  0  0  0
 20 22  1  0  0  0  0
 22 23  1  6  0  0  0
 22 24  1  0  0  0  0
 23 28  1  0  0  0  0
 23 29  1  0  0  0  0
 25 24  1  6  0  0  0
 25 27  1  0  0  0  0
 26 10  1  6  0  0  0
 26 27  1  0  0  0  0
M  END
>  <CHROM.1>
64.75207641,-59.19866151,-76.39929957,170.14797559,-102.90965516,-100.94277816
28.08393985,36.23447978,19.74710691,-0.45254435,1.26593689,0.29012563

>  <Name>
ligand

>  <RI>
0

>  <Rbt.Current_Directory>
/home/itssahil/PROJECTS/Mol_Feturizer/New_Systems/rnas/3F4H

>  <Rbt.Executable>
rbdock ($Id: //depot/dev/client3/rdock/2013.1/src/exe/rbdock.cxx#4 $)

>  <Rbt.Library>
libRbt.so (2013.1, Build901 2013/11/27)

>  <Rbt.Parameter_File>
/export/apps/rDock/src/rDock_2013.1_src/data/scripts/dock_solv.prm

>  <Rbt.Receptor>
prm/blind_docking_100.prm

>  <SCORE>
-46.6543

>  <SCORE.INTER>
-30.5237

>  <SCORE.INTER.CONST>
1

>  <SCORE.INTER.POLAR>
0

>  <SCORE.INTER.ROT>
6

>  <SCORE.INTER.SOLV>
11.0008

>  <SCORE.INTER.VDW>
-31.6161

>  <SCORE.INTER.norm>
-1.05254

>  <SCORE.INTRA>
-16.1306

>  <SCORE.INTRA.DIHEDRAL>
-3.40445

>  <SCORE.INTRA.DIHEDRAL.0>
6.83446

>  <SCORE.INTRA.POLAR>
0

>  <SCORE.INTRA.POLAR.0>
0

>  <SCORE.INTRA.REPUL>
0

>  <SCORE.INTRA.REPUL.0>
0

>  <SCORE.INTRA.SOLV>
-0.071423

>  <SCORE.INTRA.SOLV.lig_0>
-26.4601

>  <SCORE.INTRA.VDW>
-14.3927

>  <SCORE.INTRA.VDW.0>
13.7853

>  <SCORE.INTRA.norm>
-0.556228

>  <SCORE.RESTR>
0

>  <SCORE.RESTR.CAVITY>
0

>  <SCORE.RESTR.norm>
0

>  <SCORE.SYSTEM>
0

>  <SCORE.SYSTEM.CONST>
0

>  <SCORE.SYSTEM.DIHEDRAL>
0

>  <SCORE.SYSTEM.SOLV>
0

>  <SCORE.SYSTEM.norm>
0

>  <SCORE.heavy>
29

>  <SCORE.norm>
-1.60877

>  <RMSD>
1.746

$$$$
ligand
 OpenBabel11021811473D
libRbt.so/2013.1/901 2013/11/27
 29 31  0  0  0  0  0  0  0  0999 V2000
   27.9919   41.2347   19.8486 C   0  0  0  0  0  0  0  0  0  0  0  0
   27.1112   41.9737   18.9959 O   0  0  0  0  0  0  0  0  0  0  0  0
   28.4449   39.9712   19.1300 C   0  0  1  0  0  0  0  0  0  0  0  0
   29.5595   39.4267   19.8298 O   0  0  0  0  0  0  0  0  0  0  0  0
   27.3118   38.9551   19.0679 C   0  0  1  0  0  0  0  0  0  0  0  0
   26.2148   39.5878   18.4191 O   0  0  0  0  0  0  0  0  0  0  0  0
   27.6566   37.6435   18.3562 C   0  0  1  0  0  0  0  0  0  0  0  0
   28.0769   37.9481   17.0257 O   0  0  0  0  0  0  0  0  0  0  0  0
   28.7733   36.8562   19.0388 C   0  0  0  0  0  0  0  0  0  0  0  0
   28.5617   34.1188   18.3806 N   0  0  0  0  0  0  0  0  0  0  0  0
   28.4791   32.8037   18.0320 C   0  0  0  0  0  0  0  0  0  0  0  0
   28.8678   32.4201   16.9005 O   0  0  0  0  0  0  0  0  0  0  0  0
   27.9709   31.8941   18.9016 N   0  0  0  0  0  0  0  0  0  0  0  0
   27.5369   32.2722   20.1302 C   0  0  0  0  0  0  0  0  0  0  0  0
   27.6162   33.6100   20.5001 C   0  0  1  0  0  0  0  0  0  0  0  0
   27.0653   31.4272   20.9308 O   0  0  0  0  0  0  0  0  0  0  0  0
   27.2707   35.2937   22.0816 C   0  0  1  0  0  0  0  0  0  0  0  0
   27.1916   33.9959   21.7229 N   0  0  0  0  0  0  0  0  0  0  0  0
   26.8308   35.6823   23.3421 C   0  0  0  0  0  0  0  0  0  0  0  0
   26.9017   37.0122   23.7420 C   0  0  2  0  0  0  0  0  0  0  0  0
   26.4062   37.3637   25.1213 C   0  0  0  0  0  0  0  0  0  0  0  0
   27.4224   37.9736   22.8666 C   0  0  2  0  0  0  0  0  0  0  0  0
   27.5231   39.2982   23.1900 N   0  0  0  0  0  0  0  0  0  0  0  0
   27.8602   37.5676   21.6001 C   0  0  0  0  0  0  0  0  0  0  0  0
   27.7898   36.2353   21.1944 C   0  0  2  0  0  0  0  0  0  0  0  0
   28.1411   34.5481   19.6056 C   0  0  2  0  0  0  0  0  0  0  0  0
   28.2127   35.8550   19.9670 N   0  0  0  0  0  0  0  0  0  0  0  0
   26.5426   40.2389   22.6820 C   0  0  0  0  0  0  0  0  0  0  0  0
   28.5827   39.8195   24.0375 C   0  0  0  0  0  0  0  0  0  0  0  0
  1  2  1  0  0  0  0
  3  1  1  1  0  0  0
  3  4  1  0  0  0  0
  3  5  1  0  0  0  0
  5  6  1  6  0  0  0
  5  7  1  0  0  0  0
  7  8  1  6  0  0  0
  7  9  1  0  0  0  0
  9 27  1  0  0  0  0
 10 11  1  0  0  0  0
 11 12  2  0  0  0  0
 11 13  1  0  0  0  0
 13 14  1  0  0  0  0
 14 16  2  0  0  0  0
 15 14  1  1  0  0  0
 15 18  1  0  0  0  0
 15 26  1  0  0  0  0
 17 19  1  1  0  0  0
 17 25  1  0  0  0  0
 17 18  1  0  0  0  0
 19 20  1  0  0  0  0
 20 21  1  6  0  0  0
 20 22  1  0  0  0  0
 22 23  1  6  0  0  0
 22 24  1  0  0  0  0
 23 28  1  0  0  0  0
 23 29  1  0  0  0  0
 25 24  1  6  0  0  0
 25 27  1  0  0  0  0
 26 10  1  6  0  0  0
 26 27  1  0  0  0  0
M  END
>  <CHROM.1>
165.54258685,57.00529268,-57.88209684,94.17783366,-101.30419851,-79.77035060
27.72610081,36.74141414,20.44872242,-1.88200940,-1.39147398,3.08286045

>  <Name>
ligand

>  <RI>
0

>  <Rbt.Current_Directory>
/home/itssahil/PROJECTS/Mol_Feturizer/New_Systems/rnas/3F4H

>  <Rbt.Executable>
rbdock ($Id: //depot/dev/client3/rdock/2013.1/src/exe/rbdock.cxx#4 $)

>  <Rbt.Library>
libRbt.so (2013.1, Build901 2013/11/27)

>  <Rbt.Parameter_File>
/export/apps/rDock/src/rDock_2013.1_src/data/scripts/dock_solv.prm

>  <Rbt.Receptor>
prm/blind_docking_100.prm

>  <SCORE>
-46.5577

>  <SCORE.INTER>
-30.8805

>  <SCORE.INTER.CONST>
1

>  <SCORE.INTER.POLAR>
0

>  <SCORE.INTER.ROT>
6

>  <SCORE.INTER.SOLV>
10.7435

>  <SCORE.INTER.VDW>
-31.7681

>  <SCORE.INTER.norm>
-1.06484

>  <SCORE.INTRA>
-15.6773

>  <SCORE.INTRA.DIHEDRAL>
-0.794456

>  <SCORE.INTRA.DIHEDRAL.0>
6.83446

>  <SCORE.INTRA.POLAR>
0

>  <SCORE.INTRA.POLAR.0>
0

>  <SCORE.INTRA.REPUL>
0

>  <SCORE.INTRA.REPUL.0>
0

>  <SCORE.INTRA.SOLV>
0.830155

>  <SCORE.INTRA.SOLV.lig_0>
-26.4601

>  <SCORE.INTRA.VDW>
-15.6951

>  <SCORE.INTRA.VDW.0>
13.7853

>  <SCORE.INTRA.norm>
-0.540595

>  <SCORE.RESTR>
0

>  <SCORE.RESTR.CAVITY>
0

>  <SCORE.RESTR.norm>
0

>  <SCORE.SYSTEM>
0

>  <SCORE.SYSTEM.CONST>
0

>  <SCORE.SYSTEM.DIHEDRAL>
0

>  <SCORE.SYSTEM.SOLV>
0

>  <SCORE.SYSTEM.norm>
0

>  <SCORE.heavy>
29

>  <SCORE.norm>
-1.60544

>  <RMSD>
1.752

$$$$
ligand
 OpenBabel11021811473D
libRbt.so/2013.1/901 2013/11/27
 29 31  0  0  0  0  0  0  0  0999 V2000
   27.5036   41.3310   19.6424 C   0  0  0  0  0  0  0  0  0  0  0  0
   28.4416   42.4097   19.5690 O   0  0  0  0  0  0  0  0  0  0  0  0
   28.1314   40.0772   19.0492 C   0  0  1  0  0  0  0  0  0  0  0  0
   29.2258   39.6854   19.8722 O   0  0  0  0  0  0  0  0  0  0  0  0
   27.1058   38.9542   18.9632 C   0  0  1  0  0  0  0  0  0  0  0  0
   25.9861   39.4614   18.2465 O   0  0  0  0  0  0  0  0  0  0  0  0
   27.6098   37.6661   18.3056 C   0  0  1  0  0  0  0  0  0  0  0  0
   28.1136   37.9879   17.0086 O   0  0  0  0  0  0  0  0  0  0  0  0
   28.7244   36.9779   19.0909 C   0  0  0  0  0  0  0  0  0  0  0  0
   28.5310   34.2436   18.4144 N   0  0  0  0  0  0  0  0  0  0  0  0
   28.4572   32.9303   18.0570 C   0  0  0  0  0  0  0  0  0  0  0  0
   28.8520   32.5563   16.9244 O   0  0  0  0  0  0  0  0  0  0  0  0
   27.9513   32.0122   18.9190 N   0  0  0  0  0  0  0  0  0  0  0  0
   27.5109   32.3799   20.1485 C   0  0  0  0  0  0  0  0  0  0  0  0
   27.5812   33.7157   20.5272 C   0  0  1  0  0  0  0  0  0  0  0  0
   27.0415   31.5269   20.9420 O   0  0  0  0  0  0  0  0  0  0  0  0
   27.2205   35.3871   22.1183 C   0  0  1  0  0  0  0  0  0  0  0  0
   27.1501   34.0912   21.7510 N   0  0  0  0  0  0  0  0  0  0  0  0
   26.7740   35.7649   23.3798 C   0  0  0  0  0  0  0  0  0  0  0  0
   26.8358   37.0926   23.7885 C   0  0  2  0  0  0  0  0  0  0  0  0
   26.3335   37.4323   25.1683 C   0  0  0  0  0  0  0  0  0  0  0  0
   27.3539   38.0627   22.9212 C   0  0  2  0  0  0  0  0  0  0  0  0
   27.4458   39.3857   23.2534 N   0  0  0  0  0  0  0  0  0  0  0  0
   27.7984   37.6674   21.6536 C   0  0  0  0  0  0  0  0  0  0  0  0
   27.7372   36.3373   21.2391 C   0  0  2  0  0  0  0  0  0  0  0  0
   28.1037   34.6625   19.6407 C   0  0  2  0  0  0  0  0  0  0  0  0
   28.1665   35.9675   20.0107 N   0  0  0  0  0  0  0  0  0  0  0  0
   28.5538   39.8473   24.0681 C   0  0  0  0  0  0  0  0  0  0  0  0
   26.4708   40.3723   22.8186 C   0  0  0  0  0  0  0  0  0  0  0  0
  1  2  1  0  0  0  0
  3  1  1  1  0  0  0
  3  4  1  0  0  0  0
  3  5  1  0  0  0  0
  5  6  1  6  0  0  0
  5  7  1  0  0  0  0
  7  8  1  6  0  0  0
  7  9  1  0  0  0  0
  9 27  1  0  0  0  0
 10 11  1  0  0  0  0
 11 12  2  0  0  0  0
 11 13  1  0  0  0  0
 13 14  1  0  0  0  0
 14 16  2  0  0  0  0
 15 14  1  1  0  0  0
 15 18  1  0  0  0  0
 15 26  1  0  0  0  0
 17 19  1  1  0  0  0
 17 25  1  0  0  0  0
 17 18  1  0  0  0  0
 19 20  1  0  0  0  0
 20 21  1  6  0  0  0
 20 22  1  0  0  0  0
 22 23  1  6  0  0  0
 22 24  1  0  0  0  0
 23 28  1  0  0  0  0
 23 29  1  0  0  0  0
 25 24  1  6  0  0  0
 25 27  1  0  0  0  0
 26 10  1  6  0  0  0
 26 27  1  0  0  0  0
M  END
>  <CHROM.1>
65.45078362,54.00819065,-55.56258538,92.88038526,80.93199481,-85.47662785
27.69093429,36.84495171,20.48016206,-1.78683587,-1.38264164,-3.09765554

>  <Name>
ligand

>  <RI>
0

>  <Rbt.Current_Directory>
/home/itssahil/PROJECTS/Mol_Feturizer/New_Systems/rnas/3F4H

>  <Rbt.Executable>
rbdock ($Id: //depot/dev/client3/rdock/2013.1/src/exe/rbdock.cxx#4 $)

>  <Rbt.Library>
libRbt.so (2013.1, Build901 2013/11/27)

>  <Rbt.Parameter_File>
/export/apps/rDock/src/rDock_2013.1_src/data/scripts/dock_solv.prm

>  <Rbt.Receptor>
prm/pocket_docking_3.prm

>  <SCORE>
-47.4374

>  <SCORE.INTER>
-30.5407

>  <SCORE.INTER.CONST>
1

>  <SCORE.INTER.POLAR>
0

>  <SCORE.INTER.ROT>
6

>  <SCORE.INTER.SOLV>
11.7449

>  <SCORE.INTER.VDW>
-31.8755

>  <SCORE.INTER.norm>
-1.05313

>  <SCORE.INTRA>
-16.8967

>  <SCORE.INTRA.DIHEDRAL>
-1.43536

>  <SCORE.INTRA.DIHEDRAL.0>
6.83446

>  <SCORE.INTRA.POLAR>
0

>  <SCORE.INTRA.POLAR.0>
0

>  <SCORE.INTRA.REPUL>
0

>  <SCORE.INTRA.REPUL.0>
0

>  <SCORE.INTRA.SOLV>
0.353004

>  <SCORE.INTRA.SOLV.lig_0>
-26.4601

>  <SCORE.INTRA.VDW>
-16.3555

>  <SCORE.INTRA.VDW.0>
13.7853

>  <SCORE.INTRA.norm>
-0.582644

>  <SCORE.RESTR>
0

>  <SCORE.RESTR.CAVITY>
0

>  <SCORE.RESTR.norm>
0

>  <SCORE.SYSTEM>
0

>  <SCORE.SYSTEM.CONST>
0

>  <SCORE.SYSTEM.DIHEDRAL>
0

>  <SCORE.SYSTEM.SOLV>
0

>  <SCORE.SYSTEM.norm>
0

>  <SCORE.heavy>
29

>  <SCORE.norm>
-1.63577

>  <RMSD>
1.753

$$$$
ligand
 OpenBabel11021811473D
libRbt.so/2013.1/901 2013/11/27
 29 31  0  0  0  0  0  0  0  0999 V2000
   29.7027   40.1233   16.7285 C   0  0  0  0  0  0  0  0  0  0  0  0
   30.9939   40.7117   16.5398 O   0  0  0  0  0  0  0  0  0  0  0  0
   29.7440   38.6670   16.2861 C   0  0  1  0  0  0  0  0  0  0  0  0
   30.3872   38.5969   15.0173 O   0  0  0  0  0  0  0  0  0  0  0  0
   30.4926   37.8187   17.3060 C   0  0  1  0  0  0  0  0  0  0  0  0
   31.7694   38.4177   17.4950 O   0  0  0  0  0  0  0  0  0  0  0  0
   29.7857   37.6540   18.6546 C   0  0  1  0  0  0  0  0  0  0  0  0
   29.7664   38.9214   19.3127 O   0  0  0  0  0  0  0  0  0  0  0  0
   28.3453   37.1612   18.5304 C   0  0  0  0  0  0  0  0  0  0  0  0
   28.3383   34.3879   18.0014 N   0  0  0  0  0  0  0  0  0  0  0  0
   28.3485   33.0559   17.7122 C   0  0  0  0  0  0  0  0  0  0  0  0
   28.5984   32.6602   16.5462 O   0  0  0  0  0  0  0  0  0  0  0  0
   28.0836   32.1418   18.6797 N   0  0  0  0  0  0  0  0  0  0  0  0
   27.8048   32.5321   19.9489 C   0  0  0  0  0  0  0  0  0  0  0  0
   27.7920   33.8873   20.2588 C   0  0  1  0  0  0  0  0  0  0  0  0
   27.5581   31.6826   20.8404 O   0  0  0  0  0  0  0  0  0  0  0  0
   27.5104   35.6010   21.8207 C   0  0  1  0  0  0  0  0  0  0  0  0
   27.5207   34.2860   21.5205 N   0  0  0  0  0  0  0  0  0  0  0  0
   27.2295   36.0025   23.1220 C   0  0  0  0  0  0  0  0  0  0  0  0
   27.2140   37.3505   23.4631 C   0  0  2  0  0  0  0  0  0  0  0  0
   26.9009   37.7153   24.8915 C   0  0  0  0  0  0  0  0  0  0  0  0
   27.4846   38.3171   22.4863 C   0  0  2  0  0  0  0  0  0  0  0  0
   27.4871   39.6591   22.7473 N   0  0  0  0  0  0  0  0  0  0  0  0
   27.7644   37.8976   21.1800 C   0  0  0  0  0  0  0  0  0  0  0  0
   27.7798   36.5471   20.8331 C   0  0  2  0  0  0  0  0  0  0  0  0
   28.0663   34.8302   19.2632 C   0  0  2  0  0  0  0  0  0  0  0  0
   28.0481   36.1536   19.5670 N   0  0  0  0  0  0  0  0  0  0  0  0
   28.6717   40.2802   23.3089 C   0  0  0  0  0  0  0  0  0  0  0  0
   26.3400   40.5113   22.4810 C   0  0  0  0  0  0  0  0  0  0  0  0
  1  2  1  0  0  0  0
  3  1  1  1  0  0  0
  3  4  1  0  0  0  0
  3  5  1  0  0  0  0
  5  6  1  1  0  0  0
  5  7  1  0  0  0  0
  7  8  1  6  0  0  0
  7  9  1  0  0  0  0
  9 27  1  0  0  0  0
 10 11  1  0  0  0  0
 11 12  2  0  0  0  0
 11 13  1  0  0  0  0
 13 14  1  0  0  0  0
 14 16  2  0  0  0  0
 15 14  1  1  0  0  0
 15 18  1  0  0  0  0
 15 26  1  0  0  0  0
 17 19  1  1  0  0  0
 17 25  1  0  0  0  0
 17 18  1  0  0  0  0
 19 20  1  0  0  0  0
 20 21  1  6  0  0  0
 20 22  1  0  0  0  0
 22 23  1  6  0  0  0
 22 24  1  0  0  0  0
 23 28  1  0  0  0  0
 23 29  1  0  0  0  0
 25 24  1  6  0  0  0
 25 27  1  0  0  0  0
 26 10  1  6  0  0  0
 26 27  1  0  0  0  0
M  END
>  <CHROM.1>
-47.05152517,-54.39665430,-67.70767221,138.64528996,83.16369983,78.69340718
28.52591193,36.74520973,19.73282770,0.11033605,1.12552461,0.43790443

>  <Name>
ligand

>  <RI>
0

>  <Rbt.Current_Directory>
/home/itssahil/PROJECTS/Mol_Feturizer/New_Systems/rnas/3F4H

>  <Rbt.Executable>
rbdock ($Id: //depot/dev/client3/rdock/2013.1/src/exe/rbdock.cxx#4 $)

>  <Rbt.Library>
libRbt.so (2013.1, Build901 2013/11/27)

>  <Rbt.Parameter_File>
/export/apps/rDock/src/rDock_2013.1_src/data/scripts/dock_solv.prm

>  <Rbt.Receptor>
prm/pocket_docking_7.prm

>  <SCORE>
-42.4551

>  <SCORE.INTER>
-28.316

>  <SCORE.INTER.CONST>
1

>  <SCORE.INTER.POLAR>
0

>  <SCORE.INTER.ROT>
6

>  <SCORE.INTER.SOLV>
11.9723

>  <SCORE.INTER.VDW>
-30.4681

>  <SCORE.INTER.norm>
-0.976412

>  <SCORE.INTRA>
-14.1391

>  <SCORE.INTRA.DIHEDRAL>
0.196443

>  <SCORE.INTRA.DIHEDRAL.0>
6.83446

>  <SCORE.INTRA.POLAR>
0

>  <SCORE.INTRA.POLAR.0>
0

>  <SCORE.INTRA.REPUL>
0

>  <SCORE.INTRA.REPUL.0>
0

>  <SCORE.INTRA.SOLV>
0.561666

>  <SCORE.INTRA.SOLV.lig_0>
-26.4601

>  <SCORE.INTRA.VDW>
-14.5182

>  <SCORE.INTRA.VDW.0>
13.7853

>  <SCORE.INTRA.norm>
-0.487556

>  <SCORE.RESTR>
0

>  <SCORE.RESTR.CAVITY>
0

>  <SCORE.RESTR.norm>
0

>  <SCORE.SYSTEM>
0

>  <SCORE.SYSTEM.CONST>
0

>  <SCORE.SYSTEM.DIHEDRAL>
0

>  <SCORE.SYSTEM.SOLV>
0

>  <SCORE.SYSTEM.norm>
0

>  <SCORE.heavy>
29

>  <SCORE.norm>
-1.46397

>  <RMSD>
1.763

$$$$
ligand
 OpenBabel11021811473D
libRbt.so/2013.1/901 2013/11/27
 29 31  0  0  0  0  0  0  0  0999 V2000
   27.8637   41.3295   19.8760 C   0  0  0  0  0  0  0  0  0  0  0  0
   27.0170   42.0521   18.9761 O   0  0  0  0  0  0  0  0  0  0  0  0
   28.3610   40.0635   19.1917 C   0  0  1  0  0  0  0  0  0  0  0  0
   29.4673   39.5541   19.9298 O   0  0  0  0  0  0  0  0  0  0  0  0
   27.2505   39.0235   19.1178 C   0  0  1  0  0  0  0  0  0  0  0  0
   26.1421   39.6372   18.4701 O   0  0  0  0  0  0  0  0  0  0  0  0
   27.6263   37.7254   18.3971 C   0  0  1  0  0  0  0  0  0  0  0  0
   28.0660   38.0516   17.0781 O   0  0  0  0  0  0  0  0  0  0  0  0
   28.7415   36.9455   19.0905 C   0  0  0  0  0  0  0  0  0  0  0  0
   28.5181   34.2136   18.4135 N   0  0  0  0  0  0  0  0  0  0  0  0
   28.4297   32.9012   18.0557 C   0  0  0  0  0  0  0  0  0  0  0  0
   28.8149   32.5242   16.9209 O   0  0  0  0  0  0  0  0  0  0  0  0
   27.9194   31.9876   18.9198 N   0  0  0  0  0  0  0  0  0  0  0  0
   27.4891   32.3588   20.1518 C   0  0  0  0  0  0  0  0  0  0  0  0
   27.5743   33.6936   20.5309 C   0  0  1  0  0  0  0  0  0  0  0  0
   27.0156   31.5099   20.9473 O   0  0  0  0  0  0  0  0  0  0  0  0
   27.2381   35.3675   22.1248 C   0  0  1  0  0  0  0  0  0  0  0  0
   27.1533   34.0725   21.7572 N   0  0  0  0  0  0  0  0  0  0  0  0
   26.8019   35.7488   23.3889 C   0  0  0  0  0  0  0  0  0  0  0  0
   26.8787   37.0756   23.7980 C   0  0  2  0  0  0  0  0  0  0  0  0
   26.3870   37.4194   25.1805 C   0  0  0  0  0  0  0  0  0  0  0  0
   27.4017   38.0412   22.9284 C   0  0  2  0  0  0  0  0  0  0  0  0
   27.5081   39.3630   23.2609 N   0  0  0  0  0  0  0  0  0  0  0  0
   27.8357   37.6424   21.6583 C   0  0  0  0  0  0  0  0  0  0  0  0
   27.7594   36.3132   21.2434 C   0  0  2  0  0  0  0  0  0  0  0  0
   28.1013   34.6359   19.6422 C   0  0  2  0  0  0  0  0  0  0  0  0
   28.1787   35.9399   20.0126 N   0  0  0  0  0  0  0  0  0  0  0  0
   26.5158   40.3069   22.7826 C   0  0  0  0  0  0  0  0  0  0  0  0
   28.5855   39.8783   24.0894 C   0  0  0  0  0  0  0  0  0  0  0  0
  1  2  1  0  0  0  0
  3  1  1  1  0  0  0
  3  4  1  0  0  0  0
  3  5  1  0  0  0  0
  5  6  1  6  0  0  0
  5  7  1  0  0  0  0
  7  8  1  6  0  0  0
  7  9  1  0  0  0  0
  9 27  1  0  0  0  0
 10 11  1  0  0  0  0
 11 12  2  0  0  0  0
 11 13  1  0  0  0  0
 13 14  1  0  0  0  0
 14 16  2  0  0  0  0
 15 14  1  1  0  0  0
 15 18  1  0  0  0  0
 15 26  1  0  0  0  0
 17 19  1  1  0  0  0
 17 25  1  0  0  0  0
 17 18  1  0  0  0  0
 19 20  1  0  0  0  0
 20 21  1  6  0  0  0
 20 22  1  0  0  0  0
 22 23  1  6  0  0  0
 22 24  1  0  0  0  0
 23 28  1  0  0  0  0
 23 29  1  0  0  0  0
 25 24  1  6  0  0  0
 25 27  1  0  0  0  0
 26 10  1  6  0  0  0
 26 27  1  0  0  0  0
M  END
>  <CHROM.1>
164.15659950,55.05930779,-56.90442476,93.28773413,-100.10974054,-80.75839642
27.68150095,36.82269194,20.49333518,-1.90222178,-1.40007336,3.06653737

>  <Name>
ligand

>  <RI>
0

>  <Rbt.Current_Directory>
/home/itssahil/PROJECTS/Mol_Feturizer/New_Systems/rnas/3F4H

>  <Rbt.Executable>
rbdock ($Id: //depot/dev/client3/rdock/2013.1/src/exe/rbdock.cxx#4 $)

>  <Rbt.Library>
libRbt.so (2013.1, Build901 2013/11/27)

>  <Rbt.Parameter_File>
/export/apps/rDock/src/rDock_2013.1_src/data/scripts/dock_solv.prm

>  <Rbt.Receptor>
prm/pocket_docking_6.prm

>  <SCORE>
-46.5521

>  <SCORE.INTER>
-30.7098

>  <SCORE.INTER.CONST>
1

>  <SCORE.INTER.POLAR>
0

>  <SCORE.INTER.ROT>
6

>  <SCORE.INTER.SOLV>
10.5598

>  <SCORE.INTER.VDW>
-31.5932

>  <SCORE.INTER.norm>
-1.05896

>  <SCORE.INTRA>
-15.8423

>  <SCORE.INTRA.DIHEDRAL>
-0.703743

>  <SCORE.INTRA.DIHEDRAL.0>
6.83446

>  <SCORE.INTRA.POLAR>
0

>  <SCORE.INTRA.POLAR.0>
0

>  <SCORE.INTRA.REPUL>
0

>  <SCORE.INTRA.REPUL.0>
0

>  <SCORE.INTRA.SOLV>
0.818919

>  <SCORE.INTRA.SOLV.lig_0>
-26.4601

>  <SCORE.INTRA.VDW>
-15.8999

>  <SCORE.INTRA.VDW.0>
13.7853

>  <SCORE.INTRA.norm>
-0.546285

>  <SCORE.RESTR>
0

>  <SCORE.RESTR.CAVITY>
0

>  <SCORE.RESTR.norm>
0

>  <SCORE.SYSTEM>
0

>  <SCORE.SYSTEM.CONST>
0

>  <SCORE.SYSTEM.DIHEDRAL>
0

>  <SCORE.SYSTEM.SOLV>
0

>  <SCORE.SYSTEM.norm>
0

>  <SCORE.heavy>
29

>  <SCORE.norm>
-1.60524

>  <RMSD>
1.777

$$$$
ligand
 OpenBabel11021811473D
libRbt.so/2013.1/901 2013/11/27
 29 31  0  0  0  0  0  0  0  0999 V2000
   30.4011   38.0311   16.6573 C   0  0  0  0  0  0  0  0  0  0  0  0
   31.1766   37.5925   15.5370 O   0  0  0  0  0  0  0  0  0  0  0  0
   28.9511   38.2067   16.2275 C   0  0  1  0  0  0  0  0  0  0  0  0
   28.4520   36.9463   15.7910 O   0  0  0  0  0  0  0  0  0  0  0  0
   28.1110   38.7371   17.3822 C   0  0  1  0  0  0  0  0  0  0  0  0
   27.0035   39.4267   16.8143 O   0  0  0  0  0  0  0  0  0  0  0  0
   27.6173   37.6723   18.3661 C   0  0  1  0  0  0  0  0  0  0  0  0
   26.7557   36.7742   17.6656 O   0  0  0  0  0  0  0  0  0  0  0  0
   28.7445   36.8558   18.9951 C   0  0  0  0  0  0  0  0  0  0  0  0
   28.5376   34.1142   18.3529 N   0  0  0  0  0  0  0  0  0  0  0  0
   28.4567   32.7970   18.0116 C   0  0  0  0  0  0  0  0  0  0  0  0
   28.8317   32.4099   16.8767 O   0  0  0  0  0  0  0  0  0  0  0  0
   27.9650   31.8891   18.8925 N   0  0  0  0  0  0  0  0  0  0  0  0
   27.5460   32.2711   20.1252 C   0  0  0  0  0  0  0  0  0  0  0  0
   27.6238   33.6110   20.4875 C   0  0  1  0  0  0  0  0  0  0  0  0
   27.0897   31.4276   20.9362 O   0  0  0  0  0  0  0  0  0  0  0  0
   27.2917   35.3006   22.0656 C   0  0  1  0  0  0  0  0  0  0  0  0
   27.2141   34.0007   21.7142 N   0  0  0  0  0  0  0  0  0  0  0  0
   26.8672   35.6930   23.3303 C   0  0  0  0  0  0  0  0  0  0  0  0
   26.9370   37.0251   23.7228 C   0  0  2  0  0  0  0  0  0  0  0  0
   26.4587   37.3809   25.1071 C   0  0  0  0  0  0  0  0  0  0  0  0
   27.4408   37.9850   22.8358 C   0  0  2  0  0  0  0  0  0  0  0  0
   27.5393   39.3115   23.1514 N   0  0  0  0  0  0  0  0  0  0  0  0
   27.8632   37.5750   21.5653 C   0  0  0  0  0  0  0  0  0  0  0  0
   27.7939   36.2404   21.1670 C   0  0  2  0  0  0  0  0  0  0  0  0
   28.1316   34.5473   19.5815 C   0  0  2  0  0  0  0  0  0  0  0  0
   28.2018   35.8563   19.9357 N   0  0  0  0  0  0  0  0  0  0  0  0
   26.5919   40.2563   22.5908 C   0  0  0  0  0  0  0  0  0  0  0  0
   28.5643   39.8311   24.0415 C   0  0  0  0  0  0  0  0  0  0  0  0
  1  2  1  0  0  0  0
  3  1  1  1  0  0  0
  3  4  1  0  0  0  0
  3  5  1  0  0  0  0
  5  6  1  6  0  0  0
  5  7  1  0  0  0  0
  7  8  1  6  0  0  0
  7  9  1  0  0  0  0
  9 27  1  0  0  0  0
 10 11  1  0  0  0  0
 11 12  2  0  0  0  0
 11 13  1  0  0  0  0
 13 14  1  0  0  0  0
 14 16  2  0  0  0  0
 15 14  1  1  0  0  0
 15 18  1  0  0  0  0
 15 26  1  0  0  0  0
 17 19  1  1  0  0  0
 17 25  1  0  0  0  0
 17 18  1  0  0  0  0
 19 20  1  0  0  0  0
 20 21  1  6  0  0  0
 20 22  1  0  0  0  0
 22 23  1  6  0  0  0
 22 24  1  0  0  0  0
 23 28  1  0  0  0  0
 23 29  1  0  0  0  0
 25 24  1  6  0  0  0
 25 27  1  0  0  0  0
 26 10  1  6  0  0  0
 26 27  1  0  0  0  0
M  END
>  <CHROM.1>
61.54587469,154.31222249,-62.88619338,179.67534593,-104.80562886,-77.49862163
27.95441436,36.23863420,19.83056581,-0.51924266,1.30403640,0.17866960

>  <Name>
ligand

>  <RI>
0

>  <Rbt.Current_Directory>
/home/itssahil/PROJECTS/Mol_Feturizer/New_Systems/rnas/3F4H

>  <Rbt.Executable>
rbdock ($Id: //depot/dev/client3/rdock/2013.1/src/exe/rbdock.cxx#4 $)

>  <Rbt.Library>
libRbt.so (2013.1, Build901 2013/11/27)

>  <Rbt.Parameter_File>
/export/apps/rDock/src/rDock_2013.1_src/data/scripts/dock_solv.prm

>  <Rbt.Receptor>
prm/blind_docking_60.prm

>  <SCORE>
-47.0094

>  <SCORE.INTER>
-30.9351

>  <SCORE.INTER.CONST>
1

>  <SCORE.INTER.POLAR>
0

>  <SCORE.INTER.ROT>
6

>  <SCORE.INTER.SOLV>
10.9686

>  <SCORE.INTER.VDW>
-31.8796

>  <SCORE.INTER.norm>
-1.06673

>  <SCORE.INTRA>
-16.0743

>  <SCORE.INTRA.DIHEDRAL>
-2.66445

>  <SCORE.INTRA.DIHEDRAL.0>
6.83446

>  <SCORE.INTRA.POLAR>
0

>  <SCORE.INTRA.POLAR.0>
0

>  <SCORE.INTRA.REPUL>
0

>  <SCORE.INTRA.REPUL.0>
0

>  <SCORE.INTRA.SOLV>
0.106112

>  <SCORE.INTRA.SOLV.lig_0>
-26.4601

>  <SCORE.INTRA.VDW>
-14.7951

>  <SCORE.INTRA.VDW.0>
13.7853

>  <SCORE.INTRA.norm>
-0.554286

>  <SCORE.RESTR>
0

>  <SCORE.RESTR.CAVITY>
0

>  <SCORE.RESTR.norm>
0

>  <SCORE.SYSTEM>
0

>  <SCORE.SYSTEM.CONST>
0

>  <SCORE.SYSTEM.DIHEDRAL>
0

>  <SCORE.SYSTEM.SOLV>
0

>  <SCORE.SYSTEM.norm>
0

>  <SCORE.heavy>
29

>  <SCORE.norm>
-1.62101

>  <RMSD>
1.792

$$$$
ligand
 OpenBabel11021811473D
libRbt.so/2013.1/901 2013/11/27
 29 31  0  0  0  0  0  0  0  0999 V2000
   30.3341   37.9553   16.6267 C   0  0  0  0  0  0  0  0  0  0  0  0
   31.1090   37.5274   15.5018 O   0  0  0  0  0  0  0  0  0  0  0  0
   28.8933   38.1801   16.1888 C   0  0  1  0  0  0  0  0  0  0  0  0
   28.3670   36.9459   15.7113 O   0  0  0  0  0  0  0  0  0  0  0  0
   28.0554   38.6983   17.3506 C   0  0  1  0  0  0  0  0  0  0  0  0
   26.9352   39.3750   16.7921 O   0  0  0  0  0  0  0  0  0  0  0  0
   27.5823   37.6259   18.3364 C   0  0  1  0  0  0  0  0  0  0  0  0
   26.7466   36.7043   17.6352 O   0  0  0  0  0  0  0  0  0  0  0  0
   28.7255   36.8396   18.9750 C   0  0  0  0  0  0  0  0  0  0  0  0
   28.5438   34.0956   18.3360 N   0  0  0  0  0  0  0  0  0  0  0  0
   28.4748   32.7773   17.9961 C   0  0  0  0  0  0  0  0  0  0  0  0
   28.8442   32.3938   16.8581 O   0  0  0  0  0  0  0  0  0  0  0  0
   28.0010   31.8645   18.8816 N   0  0  0  0  0  0  0  0  0  0  0  0
   27.5885   32.2424   20.1177 C   0  0  0  0  0  0  0  0  0  0  0  0
   27.6544   33.5834   20.4787 C   0  0  1  0  0  0  0  0  0  0  0  0
   27.1488   31.3943   20.9331 O   0  0  0  0  0  0  0  0  0  0  0  0
   27.3171   35.2701   22.0588 C   0  0  1  0  0  0  0  0  0  0  0  0
   27.2511   33.9692   21.7088 N   0  0  0  0  0  0  0  0  0  0  0  0
   26.8992   35.6584   23.3269 C   0  0  0  0  0  0  0  0  0  0  0  0
   26.9575   36.9915   23.7182 C   0  0  2  0  0  0  0  0  0  0  0  0
   26.4874   37.3427   25.1064 C   0  0  0  0  0  0  0  0  0  0  0  0
   27.4428   37.9564   22.8263 C   0  0  2  0  0  0  0  0  0  0  0  0
   27.5291   39.2842   23.1405 N   0  0  0  0  0  0  0  0  0  0  0  0
   27.8586   37.5504   21.5524 C   0  0  0  0  0  0  0  0  0  0  0  0
   27.8008   36.2149   21.1554 C   0  0  2  0  0  0  0  0  0  0  0  0
   28.1437   34.5248   19.5679 C   0  0  2  0  0  0  0  0  0  0  0  0
   28.2022   35.8347   19.9207 N   0  0  0  0  0  0  0  0  0  0  0  0
   26.5805   40.2214   22.5693 C   0  0  0  0  0  0  0  0  0  0  0  0
   28.5420   39.8125   24.0392 C   0  0  0  0  0  0  0  0  0  0  0  0
  1  2  1  0  0  0  0
  3  1  1  1  0  0  0
  3  4  1  0  0  0  0
  3  5  1  0  0  0  0
  5  6  1  6  0  0  0
  5  7  1  0  0  0  0
  7  8  1  6  0  0  0
  7  9  1  0  0  0  0
  9 27  1  0  0  0  0
 10 11  1  0  0  0  0
 11 12  2  0  0  0  0
 11 13  1  0  0  0  0
 13 14  1  0  0  0  0
 14 16  2  0  0  0  0
 15 14  1  1  0  0  0
 15 18  1  0  0  0  0
 15 26  1  0  0  0  0
 17 19  1  1  0  0  0
 17 25  1  0  0  0  0
 17 18  1  0  0  0  0
 19 20  1  0  0  0  0
 20 21  1  6  0  0  0
 20 22  1  0  0  0  0
 22 23  1  6  0  0  0
 22 24  1  0  0  0  0
 23 28  1  0  0  0  0
 23 29  1  0  0  0  0
 25 24  1  6  0  0  0
 25 27  1  0  0  0  0
 26 10  1  6  0  0  0
 26 27  1  0  0  0  0
M  END
>  <CHROM.1>
61.44820145,157.15246878,-61.82546020,179.46065376,-105.87525408,-78.52841926
27.94801173,36.20610662,19.81207429,-0.47490487,1.31753882,0.13502604

>  <Name>
ligand

>  <RI>
0

>  <Rbt.Current_Directory>
/home/itssahil/PROJECTS/Mol_Feturizer/New_Systems/rnas/3F4H

>  <Rbt.Executable>
rbdock ($Id: //depot/dev/client3/rdock/2013.1/src/exe/rbdock.cxx#4 $)

>  <Rbt.Library>
libRbt.so (2013.1, Build901 2013/11/27)

>  <Rbt.Parameter_File>
/export/apps/rDock/src/rDock_2013.1_src/data/scripts/dock_solv.prm

>  <Rbt.Receptor>
prm/pocket_docking_3.prm

>  <SCORE>
-46.977

>  <SCORE.INTER>
-30.8538

>  <SCORE.INTER.CONST>
1

>  <SCORE.INTER.POLAR>
0

>  <SCORE.INTER.ROT>
6

>  <SCORE.INTER.SOLV>
11.0703

>  <SCORE.INTER.VDW>
-31.8593

>  <SCORE.INTER.norm>
-1.06392

>  <SCORE.INTRA>
-16.1232

>  <SCORE.INTRA.DIHEDRAL>
-3.06288

>  <SCORE.INTRA.DIHEDRAL.0>
6.83446

>  <SCORE.INTRA.POLAR>
0

>  <SCORE.INTRA.POLAR.0>
0

>  <SCORE.INTRA.REPUL>
0

>  <SCORE.INTRA.REPUL.0>
0

>  <SCORE.INTRA.SOLV>
0.108803

>  <SCORE.INTRA.SOLV.lig_0>
-26.4601

>  <SCORE.INTRA.VDW>
-14.6462

>  <SCORE.INTRA.VDW.0>
13.7853

>  <SCORE.INTRA.norm>
-0.555973

>  <SCORE.RESTR>
0

>  <SCORE.RESTR.CAVITY>
0

>  <SCORE.RESTR.norm>
0

>  <SCORE.SYSTEM>
0

>  <SCORE.SYSTEM.CONST>
0

>  <SCORE.SYSTEM.DIHEDRAL>
0

>  <SCORE.SYSTEM.SOLV>
0

>  <SCORE.SYSTEM.norm>
0

>  <SCORE.heavy>
29

>  <SCORE.norm>
-1.6199

>  <RMSD>
1.802

$$$$
ligand
 OpenBabel11021811473D
libRbt.so/2013.1/901 2013/11/27
 29 31  0  0  0  0  0  0  0  0999 V2000
   30.3904   37.9751   16.6464 C   0  0  0  0  0  0  0  0  0  0  0  0
   31.1928   37.5061   15.5577 O   0  0  0  0  0  0  0  0  0  0  0  0
   28.9524   38.1435   16.1753 C   0  0  1  0  0  0  0  0  0  0  0  0
   28.4673   36.8776   15.7387 O   0  0  0  0  0  0  0  0  0  0  0  0
   28.0802   38.6845   17.3009 C   0  0  1  0  0  0  0  0  0  0  0  0
   26.9654   39.3295   16.6961 O   0  0  0  0  0  0  0  0  0  0  0  0
   27.5970   37.6355   18.3068 C   0  0  1  0  0  0  0  0  0  0  0  0
   26.7972   36.6778   17.6121 O   0  0  0  0  0  0  0  0  0  0  0  0
   28.7344   36.8899   19.0019 C   0  0  0  0  0  0  0  0  0  0  0  0
   28.5360   34.1507   18.3471 N   0  0  0  0  0  0  0  0  0  0  0  0
   28.4591   32.8349   17.9997 C   0  0  0  0  0  0  0  0  0  0  0  0
   28.8299   32.4551   16.8609 O   0  0  0  0  0  0  0  0  0  0  0  0
   27.9758   31.9205   18.8785 N   0  0  0  0  0  0  0  0  0  0  0  0
   27.5616   32.2945   20.1152 C   0  0  0  0  0  0  0  0  0  0  0  0
   27.6354   33.6329   20.4838 C   0  0  1  0  0  0  0  0  0  0  0  0
   27.1131   31.4450   20.9243 O   0  0  0  0  0  0  0  0  0  0  0  0
   27.3041   35.3132   22.0721 C   0  0  1  0  0  0  0  0  0  0  0  0
   27.2304   34.0147   21.7146 N   0  0  0  0  0  0  0  0  0  0  0  0
   26.8845   35.6974   23.3408 C   0  0  0  0  0  0  0  0  0  0  0  0
   26.9505   37.0279   23.7397 C   0  0  2  0  0  0  0  0  0  0  0  0
   26.4779   37.3746   25.1281 C   0  0  0  0  0  0  0  0  0  0  0  0
   27.4457   37.9943   22.8549 C   0  0  2  0  0  0  0  0  0  0  0  0
   27.5400   39.3197   23.1767 N   0  0  0  0  0  0  0  0  0  0  0  0
   27.8632   37.5925   21.5802 C   0  0  0  0  0  0  0  0  0  0  0  0
   27.7976   36.2596   21.1756 C   0  0  2  0  0  0  0  0  0  0  0  0
   28.1345   34.5759   19.5799 C   0  0  2  0  0  0  0  0  0  0  0  0
   28.2008   35.8834   19.9403 N   0  0  0  0  0  0  0  0  0  0  0  0
   26.5855   40.2631   22.6259 C   0  0  0  0  0  0  0  0  0  0  0  0
   28.5675   39.8393   24.0639 C   0  0  0  0  0  0  0  0  0  0  0  0
  1  2  1  0  0  0  0
  3  1  1  1  0  0  0
  3  4  1  0  0  0  0
  3  5  1  0  0  0  0
  5  6  1  6  0  0  0
  5  7  1  0  0  0  0
  7  8  1  6  0  0  0
  7  9  1  0  0  0  0
  9 27  1  0  0  0  0
 10 11  1  0  0  0  0
 11 12  2  0  0  0  0
 11 13  1  0  0  0  0
 13 14  1  0  0  0  0
 14 16  2  0  0  0  0
 15 14  1  1  0  0  0
 15 18  1  0  0  0  0
 15 26  1  0  0  0  0
 17 19  1  1  0  0  0
 17 25  1  0  0  0  0
 17 18  1  0  0  0  0
 19 20  1  0  0  0  0
 20 21  1  6  0  0  0
 20 22  1  0  0  0  0
 22 23  1  6  0  0  0
 22 24  1  0  0  0  0
 23 28  1  0  0  0  0
 23 29  1  0  0  0  0
 25 24  1  6  0  0  0
 25 27  1  0  0  0  0
 26 10  1  6  0  0  0
 26 27  1  0  0  0  0
M  END
>  <CHROM.1>
60.64988738,156.11210864,-61.45914303,-179.16854719,-104.79298218,-81.62297404
27.95835294,36.23119216,19.81966666,-0.50730524,1.31005338,0.17689797

>  <Name>
ligand

>  <RI>
0

>  <Rbt.Current_Directory>
/home/itssahil/PROJECTS/Mol_Feturizer/New_Systems/rnas/3F4H

>  <Rbt.Executable>
rbdock ($Id: //depot/dev/client3/rdock/2013.1/src/exe/rbdock.cxx#4 $)

>  <Rbt.Library>
libRbt.so (2013.1, Build901 2013/11/27)

>  <Rbt.Parameter_File>
/export/apps/rDock/src/rDock_2013.1_src/data/scripts/dock_solv.prm

>  <Rbt.Receptor>
prm/blind_docking_100.prm

>  <SCORE>
-46.9911

>  <SCORE.INTER>
-30.8312

>  <SCORE.INTER.CONST>
1

>  <SCORE.INTER.POLAR>
0

>  <SCORE.INTER.ROT>
6

>  <SCORE.INTER.SOLV>
10.8981

>  <SCORE.INTER.VDW>
-31.7868

>  <SCORE.INTER.norm>
-1.06315

>  <SCORE.INTRA>
-16.1599

>  <SCORE.INTRA.DIHEDRAL>
-2.93166

>  <SCORE.INTRA.DIHEDRAL.0>
6.83446

>  <SCORE.INTRA.POLAR>
0

>  <SCORE.INTRA.POLAR.0>
0

>  <SCORE.INTRA.REPUL>
0

>  <SCORE.INTRA.REPUL.0>
0

>  <SCORE.INTRA.SOLV>
0.133057

>  <SCORE.INTRA.SOLV.lig_0>
-26.4601

>  <SCORE.INTRA.VDW>
-14.7606

>  <SCORE.INTRA.VDW.0>
13.7853

>  <SCORE.INTRA.norm>
-0.557237

>  <SCORE.RESTR>
0

>  <SCORE.RESTR.CAVITY>
0

>  <SCORE.RESTR.norm>
0

>  <SCORE.SYSTEM>
0

>  <SCORE.SYSTEM.CONST>
0

>  <SCORE.SYSTEM.DIHEDRAL>
0

>  <SCORE.SYSTEM.SOLV>
0

>  <SCORE.SYSTEM.norm>
0

>  <SCORE.heavy>
29

>  <SCORE.norm>
-1.62038

>  <RMSD>
1.806

$$$$
ligand
 OpenBabel11021811473D
libRbt.so/2013.1/901 2013/11/27
 29 31  0  0  0  0  0  0  0  0999 V2000
   27.6425   41.3215   19.8669 C   0  0  0  0  0  0  0  0  0  0  0  0
   28.6040   42.3814   19.8313 O   0  0  0  0  0  0  0  0  0  0  0  0
   28.2225   40.0928   19.1799 C   0  0  1  0  0  0  0  0  0  0  0  0
   29.3545   39.6504   19.9224 O   0  0  0  0  0  0  0  0  0  0  0  0
   27.1803   38.9852   19.0945 C   0  0  1  0  0  0  0  0  0  0  0  0
   26.0384   39.5317   18.4447 O   0  0  0  0  0  0  0  0  0  0  0  0
   27.6406   37.7178   18.3683 C   0  0  1  0  0  0  0  0  0  0  0  0
   28.1265   38.0876   17.0773 O   0  0  0  0  0  0  0  0  0  0  0  0
   28.7536   36.9686   19.0982 C   0  0  0  0  0  0  0  0  0  0  0  0
   28.5377   34.2408   18.4026 N   0  0  0  0  0  0  0  0  0  0  0  0
   28.4531   32.9307   18.0361 C   0  0  0  0  0  0  0  0  0  0  0  0
   28.8439   32.5615   16.9005 O   0  0  0  0  0  0  0  0  0  0  0  0
   27.9406   32.0106   18.8920 N   0  0  0  0  0  0  0  0  0  0  0  0
   27.5042   32.3732   20.1245 C   0  0  0  0  0  0  0  0  0  0  0  0
   27.5856   33.7057   20.5125 C   0  0  1  0  0  0  0  0  0  0  0  0
   27.0287   31.5184   20.9124 O   0  0  0  0  0  0  0  0  0  0  0  0
   27.2396   35.3687   22.1157 C   0  0  1  0  0  0  0  0  0  0  0  0
   27.1586   34.0760   21.7394 N   0  0  0  0  0  0  0  0  0  0  0  0
   26.7973   35.7412   23.3802 C   0  0  0  0  0  0  0  0  0  0  0  0
   26.8701   37.0654   23.7982 C   0  0  2  0  0  0  0  0  0  0  0  0
   26.3718   37.3994   25.1808 C   0  0  0  0  0  0  0  0  0  0  0  0
   27.3952   38.0374   22.9372 C   0  0  2  0  0  0  0  0  0  0  0  0
   27.4980   39.3573   23.2786 N   0  0  0  0  0  0  0  0  0  0  0  0
   27.8354   37.6475   21.6665 C   0  0  0  0  0  0  0  0  0  0  0  0
   27.7632   36.3209   21.2427 C   0  0  2  0  0  0  0  0  0  0  0  0
   28.1148   34.6545   19.6322 C   0  0  2  0  0  0  0  0  0  0  0  0
   28.1884   35.9563   20.0113 N   0  0  0  0  0  0  0  0  0  0  0  0
   26.4870   40.2966   22.8312 C   0  0  0  0  0  0  0  0  0  0  0  0
   28.5896   39.8748   24.0870 C   0  0  0  0  0  0  0  0  0  0  0  0
  1  2  1  0  0  0  0
  3  1  1  1  0  0  0
  3  4  1  0  0  0  0
  3  5  1  0  0  0  0
  5  6  1  6  0  0  0
  5  7  1  0  0  0  0
  7  8  1  6  0  0  0
  7  9  1  0  0  0  0
  9 27  1  0  0  0  0
 10 11  1  0  0  0  0
 11 12  2  0  0  0  0
 11 13  1  0  0  0  0
 13 14  1  0  0  0  0
 14 16  2  0  0  0  0
 15 14  1  1  0  0  0
 15 18  1  0  0  0  0
 15 26  1  0  0  0  0
 17 19  1  1  0  0  0
 17 25  1  0  0  0  0
 17 18  1  0  0  0  0
 19 20  1  0  0  0  0
 20 21  1  6  0  0  0
 20 22  1  0  0  0  0
 22 23  1  6  0  0  0
 22 24  1  0  0  0  0
 23 28  1  0  0  0  0
 23 29  1  0  0  0  0
 25 24  1  6  0  0  0
 25 27  1  0  0  0  0
 26 10  1  6  0  0  0
 26 27  1  0  0  0  0
M  END
>  <CHROM.1>
63.73129215,54.97045114,-54.08959058,91.23662908,-98.50340615,-82.74811936
27.72851142,36.84183432,20.51999484,-1.71849176,-1.37121350,-3.01210307

>  <Name>
ligand

>  <RI>
0

>  <Rbt.Current_Directory>
/home/itssahil/PROJECTS/Mol_Feturizer/New_Systems/rnas/3F4H

>  <Rbt.Executable>
rbdock ($Id: //depot/dev/client3/rdock/2013.1/src/exe/rbdock.cxx#4 $)

>  <Rbt.Library>
libRbt.so (2013.1, Build901 2013/11/27)

>  <Rbt.Parameter_File>
/export/apps/rDock/src/rDock_2013.1_src/data/scripts/dock_solv.prm

>  <Rbt.Receptor>
prm/pocket_docking_6.prm

>  <SCORE>
-47.4507

>  <SCORE.INTER>
-30.5924

>  <SCORE.INTER.CONST>
1

>  <SCORE.INTER.POLAR>
0

>  <SCORE.INTER.ROT>
6

>  <SCORE.INTER.SOLV>
11.7163

>  <SCORE.INTER.VDW>
-31.9004

>  <SCORE.INTER.norm>
-1.05491

>  <SCORE.INTRA>
-16.8582

>  <SCORE.INTRA.DIHEDRAL>
-1.70232

>  <SCORE.INTRA.DIHEDRAL.0>
6.83446

>  <SCORE.INTRA.POLAR>
0

>  <SCORE.INTRA.POLAR.0>
0

>  <SCORE.INTRA.REPUL>
0

>  <SCORE.INTRA.REPUL.0>
0

>  <SCORE.INTRA.SOLV>
0.48495

>  <SCORE.INTRA.SOLV.lig_0>
-26.4601

>  <SCORE.INTRA.VDW>
-16.2495

>  <SCORE.INTRA.VDW.0>
13.7853

>  <SCORE.INTRA.norm>
-0.581318

>  <SCORE.RESTR>
0

>  <SCORE.RESTR.CAVITY>
0

>  <SCORE.RESTR.norm>
0

>  <SCORE.SYSTEM>
0

>  <SCORE.SYSTEM.CONST>
0

>  <SCORE.SYSTEM.DIHEDRAL>
0

>  <SCORE.SYSTEM.SOLV>
0

>  <SCORE.SYSTEM.norm>
0

>  <SCORE.heavy>
29

>  <SCORE.norm>
-1.63623

>  <RMSD>
1.807

$$$$
ligand
 OpenBabel11021811473D
libRbt.so/2013.1/901 2013/11/27
 29 31  0  0  0  0  0  0  0  0999 V2000
   30.4264   38.0290   16.7935 C   0  0  0  0  0  0  0  0  0  0  0  0
   31.2717   37.5756   15.7311 O   0  0  0  0  0  0  0  0  0  0  0  0
   29.0072   38.1997   16.2693 C   0  0  1  0  0  0  0  0  0  0  0  0
   28.5465   36.9401   15.7902 O   0  0  0  0  0  0  0  0  0  0  0  0
   28.0885   38.7153   17.3695 C   0  0  1  0  0  0  0  0  0  0  0  0
   26.9812   39.3424   16.7330 O   0  0  0  0  0  0  0  0  0  0  0  0
   27.5942   37.6498   18.3523 C   0  0  1  0  0  0  0  0  0  0  0  0
   26.7833   36.7166   17.6373 O   0  0  0  0  0  0  0  0  0  0  0  0
   28.7235   36.8763   19.0299 C   0  0  0  0  0  0  0  0  0  0  0  0
   28.5286   34.1321   18.3953 N   0  0  0  0  0  0  0  0  0  0  0  0
   28.4537   32.8136   18.0578 C   0  0  0  0  0  0  0  0  0  0  0  0
   28.8351   32.4243   16.9259 O   0  0  0  0  0  0  0  0  0  0  0  0
   27.9609   31.9068   18.9392 N   0  0  0  0  0  0  0  0  0  0  0  0
   27.5350   32.2912   20.1688 C   0  0  0  0  0  0  0  0  0  0  0  0
   27.6067   33.6325   20.5273 C   0  0  1  0  0  0  0  0  0  0  0  0
   27.0778   31.4487   20.9803 O   0  0  0  0  0  0  0  0  0  0  0  0
   27.2617   35.3258   22.0986 C   0  0  1  0  0  0  0  0  0  0  0  0
   27.1901   34.0246   21.7509 N   0  0  0  0  0  0  0  0  0  0  0  0
   26.8301   35.7207   23.3601 C   0  0  0  0  0  0  0  0  0  0  0  0
   26.8936   37.0543   23.7488 C   0  0  2  0  0  0  0  0  0  0  0  0
   26.4079   37.4127   25.1297 C   0  0  0  0  0  0  0  0  0  0  0  0
   27.3984   38.0130   22.8611 C   0  0  2  0  0  0  0  0  0  0  0  0
   27.4910   39.3409   23.1731 N   0  0  0  0  0  0  0  0  0  0  0  0
   27.8280   37.6005   21.5939 C   0  0  0  0  0  0  0  0  0  0  0  0
   27.7649   36.2645   21.1994 C   0  0  2  0  0  0  0  0  0  0  0  0
   28.1156   34.5676   19.6207 C   0  0  2  0  0  0  0  0  0  0  0  0
   28.1797   35.8780   19.9711 N   0  0  0  0  0  0  0  0  0  0  0  0
   28.5571   39.8028   24.0417 C   0  0  0  0  0  0  0  0  0  0  0  0
   26.5579   40.3323   22.6640 C   0  0  0  0  0  0  0  0  0  0  0  0
  1  2  1  0  0  0  0
  3  1  1  1  0  0  0
  3  4  1  0  0  0  0
  3  5  1  0  0  0  0
  5  6  1  6  0  0  0
  5  7  1  0  0  0  0
  7  8  1  6  0  0  0
  7  9  1  0  0  0  0
  9 27  1  0  0  0  0
 10 11  1  0  0  0  0
 11 12  2  0  0  0  0
 11 13  1  0  0  0  0
 13 14  1  0  0  0  0
 14 16  2  0  0  0  0
 15 14  1  1  0  0  0
 15 18  1  0  0  0  0
 15 26  1  0  0  0  0
 17 19  1  1  0  0  0
 17 25  1  0  0  0  0
 17 18  1  0  0  0  0
 19 20  1  0  0  0  0
 20 21  1  6  0  0  0
 20 22  1  0  0  0  0
 22 23  1  6  0  0  0
 22 24  1  0  0  0  0
 23 28  1  0  0  0  0
 23 29  1  0  0  0  0
 25 24  1  6  0  0  0
 25 27  1  0  0  0  0
 26 10  1  6  0  0  0
 26 27  1  0  0  0  0
M  END
>  <CHROM.1>
60.25747637,157.28331255,-64.19891931,179.43443892,76.77082292,-79.72423070
27.94717019,36.24647591,19.86462576,-0.52512462,1.29545593,0.17996785

>  <Name>
ligand

>  <RI>
0

>  <Rbt.Current_Directory>
/home/itssahil/PROJECTS/Mol_Feturizer/New_Systems/rnas/3F4H

>  <Rbt.Executable>
rbdock ($Id: //depot/dev/client3/rdock/2013.1/src/exe/rbdock.cxx#4 $)

>  <Rbt.Library>
libRbt.so (2013.1, Build901 2013/11/27)

>  <Rbt.Parameter_File>
/export/apps/rDock/src/rDock_2013.1_src/data/scripts/dock_solv.prm

>  <Rbt.Receptor>
prm/blind_docking_80.prm

>  <SCORE>
-47.0425

>  <SCORE.INTER>
-30.8875

>  <SCORE.INTER.CONST>
1

>  <SCORE.INTER.POLAR>
0

>  <SCORE.INTER.ROT>
6

>  <SCORE.INTER.SOLV>
10.9847

>  <SCORE.INTER.VDW>
-31.8532

>  <SCORE.INTER.norm>
-1.06508

>  <SCORE.INTRA>
-16.155

>  <SCORE.INTRA.DIHEDRAL>
-3.03107

>  <SCORE.INTRA.DIHEDRAL.0>
6.83446

>  <SCORE.INTRA.POLAR>
0

>  <SCORE.INTRA.POLAR.0>
0

>  <SCORE.INTRA.REPUL>
0

>  <SCORE.INTRA.REPUL.0>
0

>  <SCORE.INTRA.SOLV>
0.123261

>  <SCORE.INTRA.SOLV.lig_0>
-26.4601

>  <SCORE.INTRA.VDW>
-14.7011

>  <SCORE.INTRA.VDW.0>
13.7853

>  <SCORE.INTRA.norm>
-0.557069

>  <SCORE.RESTR>
0

>  <SCORE.RESTR.CAVITY>
0

>  <SCORE.RESTR.norm>
0

>  <SCORE.SYSTEM>
0

>  <SCORE.SYSTEM.CONST>
0

>  <SCORE.SYSTEM.DIHEDRAL>
0

>  <SCORE.SYSTEM.SOLV>
0

>  <SCORE.SYSTEM.norm>
0

>  <SCORE.heavy>
29

>  <SCORE.norm>
-1.62215

>  <RMSD>
1.812

$$$$
ligand
 OpenBabel11021811473D
libRbt.so/2013.1/901 2013/11/27
 29 31  0  0  0  0  0  0  0  0999 V2000
   27.5797   41.2797   19.8543 C   0  0  0  0  0  0  0  0  0  0  0  0
   28.5662   42.3122   19.9529 O   0  0  0  0  0  0  0  0  0  0  0  0
   28.2000   40.0521   19.2013 C   0  0  1  0  0  0  0  0  0  0  0  0
   29.2937   39.6163   20.0028 O   0  0  0  0  0  0  0  0  0  0  0  0
   27.1683   38.9397   19.0645 C   0  0  1  0  0  0  0  0  0  0  0  0
   26.0495   39.4863   18.3759 O   0  0  0  0  0  0  0  0  0  0  0  0
   27.6641   37.6821   18.3447 C   0  0  1  0  0  0  0  0  0  0  0  0
   28.1716   38.0637   17.0655 O   0  0  0  0  0  0  0  0  0  0  0  0
   28.7729   36.9481   19.0961 C   0  0  0  0  0  0  0  0  0  0  0  0
   28.5452   34.2174   18.4161 N   0  0  0  0  0  0  0  0  0  0  0  0
   28.4549   32.9055   18.0569 C   0  0  0  0  0  0  0  0  0  0  0  0
   28.8443   32.5282   16.9236 O   0  0  0  0  0  0  0  0  0  0  0  0
   27.9381   31.9926   18.9180 N   0  0  0  0  0  0  0  0  0  0  0  0
   27.5030   32.3641   20.1483 C   0  0  0  0  0  0  0  0  0  0  0  0
   27.5901   33.6984   20.5287 C   0  0  1  0  0  0  0  0  0  0  0  0
   27.0235   31.5160   20.9409 O   0  0  0  0  0  0  0  0  0  0  0  0
   27.2511   35.3720   22.1223 C   0  0  1  0  0  0  0  0  0  0  0  0
   27.1645   34.0776   21.7533 N   0  0  0  0  0  0  0  0  0  0  0  0
   26.8100   35.7537   23.3846 C   0  0  0  0  0  0  0  0  0  0  0  0
   26.8886   37.0799   23.7950 C   0  0  2  0  0  0  0  0  0  0  0  0
   26.3914   37.4240   25.1755 C   0  0  0  0  0  0  0  0  0  0  0  0
   27.4182   38.0447   22.9286 C   0  0  2  0  0  0  0  0  0  0  0  0
   27.5267   39.3660   23.2626 N   0  0  0  0  0  0  0  0  0  0  0  0
   27.8570   37.6456   21.6603 C   0  0  0  0  0  0  0  0  0  0  0  0
   27.7790   36.3170   21.2440 C   0  0  2  0  0  0  0  0  0  0  0  0
   28.1237   34.6399   19.6431 C   0  0  2  0  0  0  0  0  0  0  0  0
   28.2030   35.9435   20.0149 N   0  0  0  0  0  0  0  0  0  0  0  0
   26.5116   40.3045   22.8229 C   0  0  0  0  0  0  0  0  0  0  0  0
   28.6286   39.8859   24.0553 C   0  0  0  0  0  0  0  0  0  0  0  0
  1  2  1  0  0  0  0
  3  1  1  1  0  0  0
  3  4  1  0  0  0  0
  3  5  1  0  0  0  0
  5  6  1  6  0  0  0
  5  7  1  0  0  0  0
  7  8  1  6  0  0  0
  7  9  1  0  0  0  0
  9 27  1  0  0  0  0
 10 11  1  0  0  0  0
 11 12  2  0  0  0  0
 11 13  1  0  0  0  0
 13 14  1  0  0  0  0
 14 16  2  0  0  0  0
 15 14  1  1  0  0  0
 15 18  1  0  0  0  0
 15 26  1  0  0  0  0
 17 19  1  1  0  0  0
 17 25  1  0  0  0  0
 17 18  1  0  0  0  0
 19 20  1  0  0  0  0
 20 21  1  6  0  0  0
 20 22  1  0  0  0  0
 22 23  1  6  0  0  0
 22 24  1  0  0  0  0
 23 28  1  0  0  0  0
 23 29  1  0  0  0  0
 25 24  1  6  0  0  0
 25 27  1  0  0  0  0
 26 10  1  6  0  0  0
 26 27  1  0  0  0  0
M  END
>  <CHROM.1>
59.62501445,53.95274429,-55.31643316,90.05177377,-97.77521697,-83.68273704
27.73329372,36.82666417,20.52710480,-1.73453279,-1.37800816,-3.02155651

>  <Name>
ligand

>  <RI>
0

>  <Rbt.Current_Directory>
/home/itssahil/PROJECTS/Mol_Feturizer/New_Systems/rnas/3F4H

>  <Rbt.Executable>
rbdock ($Id: //depot/dev/client3/rdock/2013.1/src/exe/rbdock.cxx#4 $)

>  <Rbt.Library>
libRbt.so (2013.1, Build901 2013/11/27)

>  <Rbt.Parameter_File>
/export/apps/rDock/src/rDock_2013.1_src/data/scripts/dock_solv.prm

>  <Rbt.Receptor>
prm/blind_docking_60.prm

>  <SCORE>
-47.4875

>  <SCORE.INTER>
-30.6319

>  <SCORE.INTER.CONST>
1

>  <SCORE.INTER.POLAR>
0

>  <SCORE.INTER.ROT>
6

>  <SCORE.INTER.SOLV>
11.6563

>  <SCORE.INTER.VDW>
-31.9067

>  <SCORE.INTER.norm>
-1.05627

>  <SCORE.INTRA>
-16.8556

>  <SCORE.INTRA.DIHEDRAL>
-1.9195

>  <SCORE.INTRA.DIHEDRAL.0>
6.83446

>  <SCORE.INTRA.POLAR>
0

>  <SCORE.INTRA.POLAR.0>
0

>  <SCORE.INTRA.REPUL>
0

>  <SCORE.INTRA.REPUL.0>
0

>  <SCORE.INTRA.SOLV>
0.612587

>  <SCORE.INTRA.SOLV.lig_0>
-26.4601

>  <SCORE.INTRA.VDW>
-16.2021

>  <SCORE.INTRA.VDW.0>
13.7853

>  <SCORE.INTRA.norm>
-0.581226

>  <SCORE.RESTR>
0

>  <SCORE.RESTR.CAVITY>
0

>  <SCORE.RESTR.norm>
0

>  <SCORE.SYSTEM>
0

>  <SCORE.SYSTEM.CONST>
0

>  <SCORE.SYSTEM.DIHEDRAL>
0

>  <SCORE.SYSTEM.SOLV>
0

>  <SCORE.SYSTEM.norm>
0

>  <SCORE.heavy>
29

>  <SCORE.norm>
-1.6375

>  <RMSD>
1.816

$$$$
ligand
 OpenBabel11021811473D
libRbt.so/2013.1/901 2013/11/27
 29 31  0  0  0  0  0  0  0  0999 V2000
   27.8838   40.2917   16.0977 C   0  0  0  0  0  0  0  0  0  0  0  0
   29.0927   39.9762   15.3991 O   0  0  0  0  0  0  0  0  0  0  0  0
   27.1836   39.0009   16.4997 C   0  0  1  0  0  0  0  0  0  0  0  0
   27.0257   38.1906   15.3392 O   0  0  0  0  0  0  0  0  0  0  0  0
   27.9926   38.2597   17.5563 C   0  0  1  0  0  0  0  0  0  0  0  0
   29.2545   37.9477   16.9773 O   0  0  0  0  0  0  0  0  0  0  0  0
   28.1922   39.0204   18.8705 C   0  0  1  0  0  0  0  0  0  0  0  0
   26.9153   39.2106   19.4811 O   0  0  0  0  0  0  0  0  0  0  0  0
   29.0908   38.2896   19.8661 C   0  0  0  0  0  0  0  0  0  0  0  0
   28.9324   35.7487   18.6455 N   0  0  0  0  0  0  0  0  0  0  0  0
   28.8801   34.5333   18.0305 C   0  0  0  0  0  0  0  0  0  0  0  0
   29.4327   34.3606   16.9154 O   0  0  0  0  0  0  0  0  0  0  0  0
   28.2257   33.4971   18.6135 N   0  0  0  0  0  0  0  0  0  0  0  0
   27.6132   33.6477   19.8147 C   0  0  0  0  0  0  0  0  0  0  0  0
   27.6594   34.8813   20.4543 C   0  0  1  0  0  0  0  0  0  0  0  0
   27.0070   32.6864   20.3494 O   0  0  0  0  0  0  0  0  0  0  0  0
   27.1041   36.2367   22.2736 C   0  0  1  0  0  0  0  0  0  0  0  0
   27.0572   35.0402   21.6529 N   0  0  0  0  0  0  0  0  0  0  0  0
   26.4810   36.3916   23.5070 C   0  0  0  0  0  0  0  0  0  0  0  0
   26.5140   37.6119   24.1728 C   0  0  2  0  0  0  0  0  0  0  0  0
   25.8168   37.7099   25.5054 C   0  0  0  0  0  0  0  0  0  0  0  0
   27.1826   38.6994   23.5965 C   0  0  2  0  0  0  0  0  0  0  0  0
   27.2568   39.9281   24.1916 N   0  0  0  0  0  0  0  0  0  0  0  0
   27.8042   38.5287   22.3536 C   0  0  0  0  0  0  0  0  0  0  0  0
   27.7726   37.3071   21.6817 C   0  0  2  0  0  0  0  0  0  0  0  0
   28.3346   35.9494   19.8555 C   0  0  2  0  0  0  0  0  0  0  0  0
   28.3739   37.1548   20.4795 N   0  0  0  0  0  0  0  0  0  0  0  0
   28.4842   40.3359   24.8487 C   0  0  0  0  0  0  0  0  0  0  0  0
   26.1459   40.8655   24.1949 C   0  0  0  0  0  0  0  0  0  0  0  0
  1  2  1  0  0  0  0
  3  1  1  6  0  0  0
  3  4  1  0  0  0  0
  3  5  1  0  0  0  0
  5  6  1  6  0  0  0
  5  7  1  0  0  0  0
  7  8  1  1  0  0  0
  7  9  1  0  0  0  0
  9 27  1  0  0  0  0
 10 11  1  0  0  0  0
 11 12  2  0  0  0  0
 11 13  1  0  0  0  0
 13 14  1  0  0  0  0
 14 16  2  0  0  0  0
 15 14  1  1  0  0  0
 15 18  1  0  0  0  0
 15 26  1  0  0  0  0
 17 19  1  1  0  0  0
 17 25  1  0  0  0  0
 17 18  1  0  0  0  0
 19 20  1  0  0  0  0
 20 21  1  6  0  0  0
 20 22  1  0  0  0  0
 22 23  1  6  0  0  0
 22 24  1  0  0  0  0
 23 28  1  0  0  0  0
 23 29  1  0  0  0  0
 25 24  1  6  0  0  0
 25 27  1  0  0  0  0
 26 10  1  6  0  0  0
 26 27  1  0  0  0  0
M  END
>  <CHROM.1>
-53.31228436,-61.02519611,63.99411581,-74.51067976,103.15998085,-96.21397932
27.76305701,37.33243486,20.15228343,-0.04924162,1.37614838,-0.13255493

>  <Name>
ligand

>  <RI>
0

>  <Rbt.Current_Directory>
/home/itssahil/PROJECTS/Mol_Feturizer/New_Systems/rnas/3F4H

>  <Rbt.Executable>
rbdock ($Id: //depot/dev/client3/rdock/2013.1/src/exe/rbdock.cxx#4 $)

>  <Rbt.Library>
libRbt.so (2013.1, Build901 2013/11/27)

>  <Rbt.Parameter_File>
/export/apps/rDock/src/rDock_2013.1_src/data/scripts/dock_solv.prm

>  <Rbt.Receptor>
prm/pocket_docking_4.prm

>  <SCORE>
-43.1328

>  <SCORE.INTER>
-26.0889

>  <SCORE.INTER.CONST>
1

>  <SCORE.INTER.POLAR>
0

>  <SCORE.INTER.ROT>
6

>  <SCORE.INTER.SOLV>
11.1194

>  <SCORE.INTER.VDW>
-28.6991

>  <SCORE.INTER.norm>
-0.899616

>  <SCORE.INTRA>
-17.0439

>  <SCORE.INTRA.DIHEDRAL>
-3.82793

>  <SCORE.INTRA.DIHEDRAL.0>
6.83446

>  <SCORE.INTRA.POLAR>
0

>  <SCORE.INTRA.POLAR.0>
0

>  <SCORE.INTRA.REPUL>
0

>  <SCORE.INTRA.REPUL.0>
0

>  <SCORE.INTRA.SOLV>
0.628355

>  <SCORE.INTRA.SOLV.lig_0>
-26.4601

>  <SCORE.INTRA.VDW>
-15.4442

>  <SCORE.INTRA.VDW.0>
13.7853

>  <SCORE.INTRA.norm>
-0.587722

>  <SCORE.RESTR>
0

>  <SCORE.RESTR.CAVITY>
0

>  <SCORE.RESTR.norm>
0

>  <SCORE.SYSTEM>
0

>  <SCORE.SYSTEM.CONST>
0

>  <SCORE.SYSTEM.DIHEDRAL>
0

>  <SCORE.SYSTEM.SOLV>
0

>  <SCORE.SYSTEM.norm>
0

>  <SCORE.heavy>
29

>  <SCORE.norm>
-1.48734

>  <RMSD>
1.846

$$$$
ligand
 OpenBabel11021811473D
libRbt.so/2013.1/901 2013/11/27
 29 31  0  0  0  0  0  0  0  0999 V2000
   27.6753   41.3803   19.9243 C   0  0  0  0  0  0  0  0  0  0  0  0
   28.6546   42.4241   19.9026 O   0  0  0  0  0  0  0  0  0  0  0  0
   28.2530   40.1347   19.2663 C   0  0  1  0  0  0  0  0  0  0  0  0
   29.3520   39.6774   20.0483 O   0  0  0  0  0  0  0  0  0  0  0  0
   27.1928   39.0465   19.1567 C   0  0  1  0  0  0  0  0  0  0  0  0
   26.0693   39.6190   18.4975 O   0  0  0  0  0  0  0  0  0  0  0  0
   27.6404   37.7780   18.4244 C   0  0  1  0  0  0  0  0  0  0  0  0
   28.1237   38.1485   17.1326 O   0  0  0  0  0  0  0  0  0  0  0  0
   28.7507   37.0180   19.1472 C   0  0  0  0  0  0  0  0  0  0  0  0
   28.5591   34.2882   18.4522 N   0  0  0  0  0  0  0  0  0  0  0  0
   28.4866   32.9772   18.0862 C   0  0  0  0  0  0  0  0  0  0  0  0
   28.8921   32.6093   16.9554 O   0  0  0  0  0  0  0  0  0  0  0  0
   27.9703   32.0548   18.9375 N   0  0  0  0  0  0  0  0  0  0  0  0
   27.5182   32.4160   20.1647 C   0  0  0  0  0  0  0  0  0  0  0  0
   27.5871   33.7493   20.5522 C   0  0  1  0  0  0  0  0  0  0  0  0
   27.0393   31.5592   20.9483 O   0  0  0  0  0  0  0  0  0  0  0  0
   27.2135   35.4118   22.1496 C   0  0  1  0  0  0  0  0  0  0  0  0
   27.1445   34.1183   21.7738 N   0  0  0  0  0  0  0  0  0  0  0  0
   26.7550   35.7829   23.4088 C   0  0  0  0  0  0  0  0  0  0  0  0
   26.8151   37.1080   23.8261 C   0  0  2  0  0  0  0  0  0  0  0  0
   26.2996   37.4403   25.2028 C   0  0  0  0  0  0  0  0  0  0  0  0
   27.3437   38.0823   22.9699 C   0  0  2  0  0  0  0  0  0  0  0  0
   27.4346   39.4031   23.3110 N   0  0  0  0  0  0  0  0  0  0  0  0
   27.8002   37.6938   21.7045 C   0  0  0  0  0  0  0  0  0  0  0  0
   27.7407   36.3664   21.2814 C   0  0  2  0  0  0  0  0  0  0  0  0
   28.1202   34.7005   19.6766 C   0  0  2  0  0  0  0  0  0  0  0  0
   28.1817   36.0031   20.0552 N   0  0  0  0  0  0  0  0  0  0  0  0
   28.5801   39.8735   24.0666 C   0  0  0  0  0  0  0  0  0  0  0  0
   26.4219   40.3788   22.9431 C   0  0  0  0  0  0  0  0  0  0  0  0
  1  2  1  0  0  0  0
  3  1  1  1  0  0  0
  3  4  1  0  0  0  0
  3  5  1  0  0  0  0
  5  6  1  6  0  0  0
  5  7  1  0  0  0  0
  7  8  1  6  0  0  0
  7  9  1  0  0  0  0
  9 27  1  0  0  0  0
 10 11  1  0  0  0  0
 11 12  2  0  0  0  0
 11 13  1  0  0  0  0
 13 14  1  0  0  0  0
 14 16  2  0  0  0  0
 15 14  1  1  0  0  0
 15 18  1  0  0  0  0
 15 26  1  0  0  0  0
 17 19  1  1  0  0  0
 17 25  1  0  0  0  0
 17 18  1  0  0  0  0
 19 20  1  0  0  0  0
 20 21  1  6  0  0  0
 20 22  1  0  0  0  0
 22 23  1  6  0  0  0
 22 24  1  0  0  0  0
 23 28  1  0  0  0  0
 23 29  1  0  0  0  0
 25 24  1  6  0  0  0
 25 27  1  0  0  0  0
 26 10  1  6  0  0  0
 26 27  1  0  0  0  0
M  END
>  <CHROM.1>
64.11355479,53.46904184,-55.28288180,91.47133217,84.89430091,-81.65084293
27.72430160,36.88921917,20.56915547,-1.72812229,-1.35601827,-3.02103625

>  <Name>
ligand

>  <RI>
0

>  <Rbt.Current_Directory>
/home/itssahil/PROJECTS/Mol_Feturizer/New_Systems/rnas/3F4H

>  <Rbt.Executable>
rbdock ($Id: //depot/dev/client3/rdock/2013.1/src/exe/rbdock.cxx#4 $)

>  <Rbt.Library>
libRbt.so (2013.1, Build901 2013/11/27)

>  <Rbt.Parameter_File>
/export/apps/rDock/src/rDock_2013.1_src/data/scripts/dock_solv.prm

>  <Rbt.Receptor>
prm/pocket_docking_6.prm

>  <SCORE>
-47.5925

>  <SCORE.INTER>
-30.724

>  <SCORE.INTER.CONST>
1

>  <SCORE.INTER.POLAR>
0

>  <SCORE.INTER.ROT>
6

>  <SCORE.INTER.SOLV>
11.7819

>  <SCORE.INTER.VDW>
-32.0099

>  <SCORE.INTER.norm>
-1.05945

>  <SCORE.INTRA>
-16.8685

>  <SCORE.INTRA.DIHEDRAL>
-1.64346

>  <SCORE.INTRA.DIHEDRAL.0>
6.83446

>  <SCORE.INTRA.POLAR>
0

>  <SCORE.INTRA.POLAR.0>
0

>  <SCORE.INTRA.REPUL>
0

>  <SCORE.INTRA.REPUL.0>
0

>  <SCORE.INTRA.SOLV>
0.52252

>  <SCORE.INTRA.SOLV.lig_0>
-26.4601

>  <SCORE.INTRA.VDW>
-16.3081

>  <SCORE.INTRA.VDW.0>
13.7853

>  <SCORE.INTRA.norm>
-0.581673

>  <SCORE.RESTR>
0

>  <SCORE.RESTR.CAVITY>
0

>  <SCORE.RESTR.norm>
0

>  <SCORE.SYSTEM>
0

>  <SCORE.SYSTEM.CONST>
0

>  <SCORE.SYSTEM.DIHEDRAL>
0

>  <SCORE.SYSTEM.SOLV>
0

>  <SCORE.SYSTEM.norm>
0

>  <SCORE.heavy>
29

>  <SCORE.norm>
-1.64112

>  <RMSD>
1.846

$$$$
ligand
 OpenBabel11021811473D
libRbt.so/2013.1/901 2013/11/27
 29 31  0  0  0  0  0  0  0  0999 V2000
   27.9452   41.3113   18.9304 C   0  0  0  0  0  0  0  0  0  0  0  0
   28.3706   42.3447   19.8248 O   0  0  0  0  0  0  0  0  0  0  0  0
   27.2454   40.2161   19.7236 C   0  0  1  0  0  0  0  0  0  0  0  0
   26.0916   40.7735   20.3451 O   0  0  0  0  0  0  0  0  0  0  0  0
   26.8493   39.0633   18.8101 C   0  0  1  0  0  0  0  0  0  0  0  0
   26.0609   39.6110   17.7598 O   0  0  0  0  0  0  0  0  0  0  0  0
   28.0207   38.2678   18.2266 C   0  0  1  0  0  0  0  0  0  0  0  0
   28.7584   39.1241   17.3534 O   0  0  0  0  0  0  0  0  0  0  0  0
   28.9797   37.7307   19.2870 C   0  0  0  0  0  0  0  0  0  0  0  0
   28.7862   35.1016   18.2762 N   0  0  0  0  0  0  0  0  0  0  0  0
   28.7142   33.8423   17.7595 C   0  0  0  0  0  0  0  0  0  0  0  0
   29.1690   33.5979   16.6141 O   0  0  0  0  0  0  0  0  0  0  0  0
   28.1454   32.8389   18.4747 N   0  0  0  0  0  0  0  0  0  0  0  0
   27.6393   33.0665   19.7128 C   0  0  0  0  0  0  0  0  0  0  0  0
   27.7069   34.3456   20.2531 C   0  0  1  0  0  0  0  0  0  0  0  0
   27.1119   32.1352   20.3701 O   0  0  0  0  0  0  0  0  0  0  0  0
   27.2782   35.8224   22.0112 C   0  0  1  0  0  0  0  0  0  0  0  0
   27.2105   34.5815   21.4871 N   0  0  0  0  0  0  0  0  0  0  0  0
   26.7643   36.0564   23.2819 C   0  0  0  0  0  0  0  0  0  0  0  0
   26.8215   37.3241   23.8504 C   0  0  2  0  0  0  0  0  0  0  0  0
   26.2445   37.5073   25.2306 C   0  0  0  0  0  0  0  0  0  0  0  0
   27.4036   38.3795   23.1368 C   0  0  2  0  0  0  0  0  0  0  0  0
   27.4953   39.6510   23.6307 N   0  0  0  0  0  0  0  0  0  0  0  0
   27.9157   38.1289   21.8579 C   0  0  0  0  0  0  0  0  0  0  0  0
   27.8593   36.8595   21.2834 C   0  0  2  0  0  0  0  0  0  0  0  0
   28.2941   35.3801   19.5180 C   0  0  2  0  0  0  0  0  0  0  0  0
   28.3542   36.6299   20.0455 N   0  0  0  0  0  0  0  0  0  0  0  0
   28.6927   40.0630   24.3383 C   0  0  0  0  0  0  0  0  0  0  0  0
   26.4326   40.6304   23.4751 C   0  0  0  0  0  0  0  0  0  0  0  0
  1  2  1  0  0  0  0
  3  1  1  6  0  0  0
  3  4  1  0  0  0  0
  3  5  1  0  0  0  0
  5  6  1  6  0  0  0
  5  7  1  0  0  0  0
  7  8  1  6  0  0  0
  7  9  1  0  0  0  0
  9 27  1  0  0  0  0
 10 11  1  0  0  0  0
 11 12  2  0  0  0  0
 11 13  1  0  0  0  0
 13 14  1  0  0  0  0
 14 16  2  0  0  0  0
 15 14  1  1  0  0  0
 15 18  1  0  0  0  0
 15 26  1  0  0  0  0
 17 19  1  1  0  0  0
 17 25  1  0  0  0  0
 17 18  1  0  0  0  0
 19 20  1  0  0  0  0
 20 21  1  6  0  0  0
 20 22  1  0  0  0  0
 22 23  1  6  0  0  0
 22 24  1  0  0  0  0
 23 28  1  0  0  0  0
 23 29  1  0  0  0  0
 25 24  1  6  0  0  0
 25 27  1  0  0  0  0
 26 10  1  6  0  0  0
 26 27  1  0  0  0  0
M  END
>  <CHROM.1>
62.03758930,-55.18863830,-65.59192105,71.43712065,93.03883575,-102.09241674
27.66488182,37.34428826,20.46225781,-2.24094962,-1.38217984,2.90648781

>  <Name>
ligand

>  <RI>
0

>  <Rbt.Current_Directory>
/home/itssahil/PROJECTS/Mol_Feturizer/New_Systems/rnas/3F4H

>  <Rbt.Executable>
rbdock ($Id: //depot/dev/client3/rdock/2013.1/src/exe/rbdock.cxx#4 $)

>  <Rbt.Library>
libRbt.so (2013.1, Build901 2013/11/27)

>  <Rbt.Parameter_File>
/export/apps/rDock/src/rDock_2013.1_src/data/scripts/dock_solv.prm

>  <Rbt.Receptor>
prm/pocket_docking_8.prm

>  <SCORE>
-45.0967

>  <SCORE.INTER>
-27.3191

>  <SCORE.INTER.CONST>
1

>  <SCORE.INTER.POLAR>
0

>  <SCORE.INTER.ROT>
6

>  <SCORE.INTER.SOLV>
9.89347

>  <SCORE.INTER.VDW>
-29.1106

>  <SCORE.INTER.norm>
-0.942039

>  <SCORE.INTRA>
-17.7776

>  <SCORE.INTRA.DIHEDRAL>
-4.09992

>  <SCORE.INTRA.DIHEDRAL.0>
6.83446

>  <SCORE.INTRA.POLAR>
0

>  <SCORE.INTRA.POLAR.0>
0

>  <SCORE.INTRA.REPUL>
0

>  <SCORE.INTRA.REPUL.0>
0

>  <SCORE.INTRA.SOLV>
0.282181

>  <SCORE.INTRA.SOLV.lig_0>
-26.4601

>  <SCORE.INTRA.VDW>
-15.8687

>  <SCORE.INTRA.VDW.0>
13.7853

>  <SCORE.INTRA.norm>
-0.61302

>  <SCORE.RESTR>
0

>  <SCORE.RESTR.CAVITY>
0

>  <SCORE.RESTR.norm>
0

>  <SCORE.SYSTEM>
0

>  <SCORE.SYSTEM.CONST>
0

>  <SCORE.SYSTEM.DIHEDRAL>
0

>  <SCORE.SYSTEM.SOLV>
0

>  <SCORE.SYSTEM.norm>
0

>  <SCORE.heavy>
29

>  <SCORE.norm>
-1.55506

>  <RMSD>
1.848

$$$$
ligand
 OpenBabel11021811473D
libRbt.so/2013.1/901 2013/11/27
 29 31  0  0  0  0  0  0  0  0999 V2000
   30.6660   38.0629   17.0347 C   0  0  0  0  0  0  0  0  0  0  0  0
   31.7749   37.7324   16.1920 O   0  0  0  0  0  0  0  0  0  0  0  0
   29.3780   37.9794   16.2271 C   0  0  1  0  0  0  0  0  0  0  0  0
   29.2154   36.6402   15.7706 O   0  0  0  0  0  0  0  0  0  0  0  0
   28.1850   38.3970   17.0773 C   0  0  1  0  0  0  0  0  0  0  0  0
   27.1405   38.7653   16.1839 O   0  0  0  0  0  0  0  0  0  0  0  0
   27.6851   37.3325   18.0584 C   0  0  1  0  0  0  0  0  0  0  0  0
   27.2016   36.2176   17.3081 O   0  0  0  0  0  0  0  0  0  0  0  0
   28.7658   36.8297   19.0134 C   0  0  0  0  0  0  0  0  0  0  0  0
   28.5479   34.0886   18.3732 N   0  0  0  0  0  0  0  0  0  0  0  0
   28.4621   32.7714   18.0331 C   0  0  0  0  0  0  0  0  0  0  0  0
   28.8431   32.3807   16.9015 O   0  0  0  0  0  0  0  0  0  0  0  0
   27.9587   31.8675   18.9115 N   0  0  0  0  0  0  0  0  0  0  0  0
   27.5330   32.2534   20.1406 C   0  0  0  0  0  0  0  0  0  0  0  0
   27.6157   33.5934   20.5018 C   0  0  1  0  0  0  0  0  0  0  0  0
   27.0660   31.4136   20.9493 O   0  0  0  0  0  0  0  0  0  0  0  0
   27.2817   35.2869   22.0753 C   0  0  1  0  0  0  0  0  0  0  0  0
   27.1993   33.9870   21.7250 N   0  0  0  0  0  0  0  0  0  0  0  0
   26.8502   35.6834   23.3362 C   0  0  0  0  0  0  0  0  0  0  0  0
   26.9247   37.0157   23.7276 C   0  0  2  0  0  0  0  0  0  0  0  0
   26.4384   37.3760   25.1078 C   0  0  0  0  0  0  0  0  0  0  0  0
   27.4405   37.9714   22.8430 C   0  0  2  0  0  0  0  0  0  0  0  0
   27.5443   39.2978   23.1577 N   0  0  0  0  0  0  0  0  0  0  0  0
   27.8698   37.5574   21.5762 C   0  0  0  0  0  0  0  0  0  0  0  0
   27.7958   36.2227   21.1791 C   0  0  2  0  0  0  0  0  0  0  0  0
   28.1355   34.5256   19.5983 C   0  0  2  0  0  0  0  0  0  0  0  0
   28.2105   35.8346   19.9513 N   0  0  0  0  0  0  0  0  0  0  0  0
   26.6136   40.2489   22.5799 C   0  0  0  0  0  0  0  0  0  0  0  0
   28.5587   39.8113   24.0634 C   0  0  0  0  0  0  0  0  0  0  0  0
  1  2  1  0  0  0  0
  3  1  1  1  0  0  0
  3  4  1  0  0  0  0
  3  5  1  0  0  0  0
  5  6  1  6  0  0  0
  5  7  1  0  0  0  0
  7  8  1  6  0  0  0
  7  9  1  0  0  0  0
  9 27  1  0  0  0  0
 10 11  1  0  0  0  0
 11 12  2  0  0  0  0
 11 13  1  0  0  0  0
 13 14  1  0  0  0  0
 14 16  2  0  0  0  0
 15 14  1  1  0  0  0
 15 18  1  0  0  0  0
 15 26  1  0  0  0  0
 17 19  1  1  0  0  0
 17 25  1  0  0  0  0
 17 18  1  0  0  0  0
 19 20  1  0  0  0  0
 20 21  1  6  0  0  0
 20 22  1  0  0  0  0
 22 23  1  6  0  0  0
 22 24  1  0  0  0  0
 23 28  1  0  0  0  0
 23 29  1  0  0  0  0
 25 24  1  6  0  0  0
 25 27  1  0  0  0  0
 26 10  1  6  0  0  0
 26 27  1  0  0  0  0
M  END
>  <CHROM.1>
61.82550524,159.16889706,-64.07324860,178.54732906,-105.33538935,-95.67271268
28.05933735,36.14230460,19.81834863,-0.63223597,1.25512162,0.31909534

>  <Name>
ligand

>  <RI>
0

>  <Rbt.Current_Directory>
/home/itssahil/PROJECTS/Mol_Feturizer/New_Systems/rnas/3F4H

>  <Rbt.Executable>
rbdock ($Id: //depot/dev/client3/rdock/2013.1/src/exe/rbdock.cxx#4 $)

>  <Rbt.Library>
libRbt.so (2013.1, Build901 2013/11/27)

>  <Rbt.Parameter_File>
/export/apps/rDock/src/rDock_2013.1_src/data/scripts/dock_solv.prm

>  <Rbt.Receptor>
prm/pocket_docking_4.prm

>  <SCORE>
-47.0294

>  <SCORE.INTER>
-30.9559

>  <SCORE.INTER.CONST>
1

>  <SCORE.INTER.POLAR>
0

>  <SCORE.INTER.ROT>
6

>  <SCORE.INTER.SOLV>
11.2365

>  <SCORE.INTER.VDW>
-31.9828

>  <SCORE.INTER.norm>
-1.06744

>  <SCORE.INTRA>
-16.0735

>  <SCORE.INTRA.DIHEDRAL>
-3.25262

>  <SCORE.INTRA.DIHEDRAL.0>
6.83446

>  <SCORE.INTRA.POLAR>
0

>  <SCORE.INTRA.POLAR.0>
0

>  <SCORE.INTRA.REPUL>
0

>  <SCORE.INTRA.REPUL.0>
0

>  <SCORE.INTRA.SOLV>
0.200647

>  <SCORE.INTRA.SOLV.lig_0>
-26.4601

>  <SCORE.INTRA.VDW>
-14.5475

>  <SCORE.INTRA.VDW.0>
13.7853

>  <SCORE.INTRA.norm>
-0.554258

>  <SCORE.RESTR>
0

>  <SCORE.RESTR.CAVITY>
0

>  <SCORE.RESTR.norm>
0

>  <SCORE.SYSTEM>
0

>  <SCORE.SYSTEM.CONST>
0

>  <SCORE.SYSTEM.DIHEDRAL>
0

>  <SCORE.SYSTEM.SOLV>
0

>  <SCORE.SYSTEM.norm>
0

>  <SCORE.heavy>
29

>  <SCORE.norm>
-1.6217

>  <RMSD>
1.853

$$$$
ligand
 OpenBabel11021811473D
libRbt.so/2013.1/901 2013/11/27
 29 31  0  0  0  0  0  0  0  0999 V2000
   29.4029   36.6136   15.6141 C   0  0  0  0  0  0  0  0  0  0  0  0
   30.6641   36.2109   15.0698 O   0  0  0  0  0  0  0  0  0  0  0  0
   29.5730   37.9325   16.3555 C   0  0  1  0  0  0  0  0  0  0  0  0
   29.9860   38.9266   15.4230 O   0  0  0  0  0  0  0  0  0  0  0  0
   28.2671   38.3436   17.0231 C   0  0  1  0  0  0  0  0  0  0  0  0
   27.3078   38.5330   15.9894 O   0  0  0  0  0  0  0  0  0  0  0  0
   27.7309   37.3533   18.0611 C   0  0  1  0  0  0  0  0  0  0  0  0
   27.2009   36.2197   17.3729 O   0  0  0  0  0  0  0  0  0  0  0  0
   28.7959   36.8604   19.0387 C   0  0  0  0  0  0  0  0  0  0  0  0
   28.5692   34.1208   18.3947 N   0  0  0  0  0  0  0  0  0  0  0  0
   28.4794   32.8043   18.0529 C   0  0  0  0  0  0  0  0  0  0  0  0
   28.8678   32.4124   16.9241 O   0  0  0  0  0  0  0  0  0  0  0  0
   27.9642   31.9024   18.9264 N   0  0  0  0  0  0  0  0  0  0  0  0
   27.5302   32.2897   20.1522 C   0  0  0  0  0  0  0  0  0  0  0  0
   27.6169   33.6289   20.5150 C   0  0  1  0  0  0  0  0  0  0  0  0
   27.0522   31.4517   20.9564 O   0  0  0  0  0  0  0  0  0  0  0  0
   27.2785   35.3231   22.0869 C   0  0  1  0  0  0  0  0  0  0  0  0
   27.1923   34.0238   21.7350 N   0  0  0  0  0  0  0  0  0  0  0  0
   26.8386   35.7209   23.3446 C   0  0  0  0  0  0  0  0  0  0  0  0
   26.9167   37.0525   23.7375 C   0  0  2  0  0  0  0  0  0  0  0  0
   26.4208   37.4143   25.1140 C   0  0  0  0  0  0  0  0  0  0  0  0
   27.4447   38.0062   22.8580 C   0  0  2  0  0  0  0  0  0  0  0  0
   27.5527   39.3318   23.1745 N   0  0  0  0  0  0  0  0  0  0  0  0
   27.8824   37.5908   21.5945 C   0  0  0  0  0  0  0  0  0  0  0  0
   27.8049   36.2567   21.1958 C   0  0  2  0  0  0  0  0  0  0  0  0
   28.1489   34.5591   19.6166 C   0  0  2  0  0  0  0  0  0  0  0  0
   28.2277   35.8675   19.9712 N   0  0  0  0  0  0  0  0  0  0  0  0
   26.6093   40.2831   22.6181 C   0  0  0  0  0  0  0  0  0  0  0  0
   28.5841   39.8441   24.0614 C   0  0  0  0  0  0  0  0  0  0  0  0
  1  2  1  0  0  0  0
  3  1  1  6  0  0  0
  3  4  1  0  0  0  0
  3  5  1  0  0  0  0
  5  6  1  6  0  0  0
  5  7  1  0  0  0  0
  7  8  1  6  0  0  0
  7  9  1  0  0  0  0
  9 27  1  0  0  0  0
 10 11  1  0  0  0  0
 11 12  2  0  0  0  0
 11 13  1  0  0  0  0
 13 14  1  0  0  0  0
 14 16  2  0  0  0  0
 15 14  1  1  0  0  0
 15 18  1  0  0  0  0
 15 26  1  0  0  0  0
 17 19  1  1  0  0  0
 17 25  1  0  0  0  0
 17 18  1  0  0  0  0
 19 20  1  0  0  0  0
 20 21  1  6  0  0  0
 20 22  1  0  0  0  0
 22 23  1  6  0  0  0
 22 24  1  0  0  0  0
 23 28  1  0  0  0  0
 23 29  1  0  0  0  0
 25 24  1  6  0  0  0
 25 27  1  0  0  0  0
 26 10  1  6  0  0  0
 26 27  1  0  0  0  0
M  END
>  <CHROM.1>
62.49343299,-62.16580977,-73.71485120,-177.51075706,-103.67275541,-96.55008574
28.02263899,36.13458741,19.71750421,-0.47175816,1.29639965,0.22320946

>  <Name>
ligand

>  <RI>
0

>  <Rbt.Current_Directory>
/home/itssahil/PROJECTS/Mol_Feturizer/New_Systems/rnas/3F4H

>  <Rbt.Executable>
rbdock ($Id: //depot/dev/client3/rdock/2013.1/src/exe/rbdock.cxx#4 $)

>  <Rbt.Library>
libRbt.so (2013.1, Build901 2013/11/27)

>  <Rbt.Parameter_File>
/export/apps/rDock/src/rDock_2013.1_src/data/scripts/dock_solv.prm

>  <Rbt.Receptor>
prm/blind_docking_60.prm

>  <SCORE>
-46.6501

>  <SCORE.INTER>
-30.0346

>  <SCORE.INTER.CONST>
1

>  <SCORE.INTER.POLAR>
0

>  <SCORE.INTER.ROT>
6

>  <SCORE.INTER.SOLV>
11.1955

>  <SCORE.INTER.VDW>
-31.3549

>  <SCORE.INTER.norm>
-1.03567

>  <SCORE.INTRA>
-16.6156

>  <SCORE.INTRA.DIHEDRAL>
-4.0375

>  <SCORE.INTRA.DIHEDRAL.0>
6.83446

>  <SCORE.INTRA.POLAR>
0

>  <SCORE.INTRA.POLAR.0>
0

>  <SCORE.INTRA.REPUL>
0

>  <SCORE.INTRA.REPUL.0>
0

>  <SCORE.INTRA.SOLV>
-0.0713201

>  <SCORE.INTRA.SOLV.lig_0>
-26.4601

>  <SCORE.INTRA.VDW>
-14.5611

>  <SCORE.INTRA.VDW.0>
13.7853

>  <SCORE.INTRA.norm>
-0.57295

>  <SCORE.RESTR>
0

>  <SCORE.RESTR.CAVITY>
0

>  <SCORE.RESTR.norm>
0

>  <SCORE.SYSTEM>
0

>  <SCORE.SYSTEM.CONST>
0

>  <SCORE.SYSTEM.DIHEDRAL>
0

>  <SCORE.SYSTEM.SOLV>
0

>  <SCORE.SYSTEM.norm>
0

>  <SCORE.heavy>
29

>  <SCORE.norm>
-1.60862

>  <RMSD>
1.931

$$$$
ligand
 OpenBabel11021811473D
libRbt.so/2013.1/901 2013/11/27
 29 31  0  0  0  0  0  0  0  0999 V2000
   27.3091   40.4081   15.8821 C   0  0  0  0  0  0  0  0  0  0  0  0
   26.8277   41.6377   15.3296 O   0  0  0  0  0  0  0  0  0  0  0  0
   28.6420   40.6558   16.5752 C   0  0  1  0  0  0  0  0  0  0  0  0
   28.4335   41.5749   17.6431 O   0  0  0  0  0  0  0  0  0  0  0  0
   29.2200   39.3504   17.1063 C   0  0  1  0  0  0  0  0  0  0  0  0
   30.5673   39.6098   17.4833 O   0  0  0  0  0  0  0  0  0  0  0  0
   28.4556   38.7348   18.2819 C   0  0  1  0  0  0  0  0  0  0  0  0
   27.2243   38.2026   17.7916 O   0  0  0  0  0  0  0  0  0  0  0  0
   29.2159   37.6084   18.9790 C   0  0  0  0  0  0  0  0  0  0  0  0
   28.3372   34.9266   19.0645 N   0  0  0  0  0  0  0  0  0  0  0  0
   27.9335   33.6247   19.0756 C   0  0  0  0  0  0  0  0  0  0  0  0
   28.2149   32.8634   18.1166 O   0  0  0  0  0  0  0  0  0  0  0  0
   27.2179   33.1373   20.1208 N   0  0  0  0  0  0  0  0  0  0  0  0
   26.8913   33.9311   21.1716 C   0  0  0  0  0  0  0  0  0  0  0  0
   27.2975   35.2607   21.1745 C   0  0  1  0  0  0  0  0  0  0  0  0
   26.2272   33.4761   22.1356 O   0  0  0  0  0  0  0  0  0  0  0  0
   27.3779   37.3472   22.2212 C   0  0  1  0  0  0  0  0  0  0  0  0
   26.9818   36.0579   22.2183 N   0  0  0  0  0  0  0  0  0  0  0  0
   27.0481   38.1609   23.2994 C   0  0  0  0  0  0  0  0  0  0  0  0
   27.4442   39.4934   23.3328 C   0  0  2  0  0  0  0  0  0  0  0  0
   27.0515   40.3184   24.5314 C   0  0  0  0  0  0  0  0  0  0  0  0
   28.1845   40.0246   22.2690 C   0  0  2  0  0  0  0  0  0  0  0  0
   28.6080   41.3240   22.2323 N   0  0  0  0  0  0  0  0  0  0  0  0
   28.5080   39.1935   21.1896 C   0  0  0  0  0  0  0  0  0  0  0  0
   28.1118   37.8569   21.1513 C   0  0  2  0  0  0  0  0  0  0  0  0
   28.0361   35.7638   20.0990 C   0  0  2  0  0  0  0  0  0  0  0  0
   28.4272   37.0642   20.1015 N   0  0  0  0  0  0  0  0  0  0  0  0
   29.6462   41.7679   23.1430 C   0  0  0  0  0  0  0  0  0  0  0  0
   28.0611   42.3003   21.3047 C   0  0  0  0  0  0  0  0  0  0  0  0
  1  2  1  0  0  0  0
  3  1  1  1  0  0  0
  3  4  1  0  0  0  0
  3  5  1  0  0  0  0
  5  6  1  1  0  0  0
  5  7  1  0  0  0  0
  7  8  1  6  0  0  0
  7  9  1  0  0  0  0
  9 27  1  0  0  0  0
 10 11  1  0  0  0  0
 11 12  2  0  0  0  0
 11 13  1  0  0  0  0
 13 14  1  0  0  0  0
 14 16  2  0  0  0  0
 15 14  1  1  0  0  0
 15 18  1  0  0  0  0
 15 26  1  0  0  0  0
 17 19  1  1  0  0  0
 17 25  1  0  0  0  0
 17 18  1  0  0  0  0
 19 20  1  0  0  0  0
 20 21  1  6  0  0  0
 20 22  1  0  0  0  0
 22 23  1  6  0  0  0
 22 24  1  0  0  0  0
 23 28  1  0  0  0  0
 23 29  1  0  0  0  0
 25 24  1  6  0  0  0
 25 27  1  0  0  0  0
 26 10  1  6  0  0  0
 26 27  1  0  0  0  0
M  END
>  <CHROM.1>
62.06214534,168.14109685,72.30297968,179.81597854,69.72649502,-62.84632070
27.99204544,38.04736581,20.01659355,-0.41636637,-1.41932372,-2.23659469

>  <Name>
ligand

>  <RI>
0

>  <Rbt.Current_Directory>
/home/itssahil/PROJECTS/Mol_Feturizer/New_Systems/rnas/3F4H

>  <Rbt.Executable>
rbdock ($Id: //depot/dev/client3/rdock/2013.1/src/exe/rbdock.cxx#4 $)

>  <Rbt.Library>
libRbt.so (2013.1, Build901 2013/11/27)

>  <Rbt.Parameter_File>
/export/apps/rDock/src/rDock_2013.1_src/data/scripts/dock_solv.prm

>  <Rbt.Receptor>
prm/pocket_docking_3.prm

>  <SCORE>
-41.2496

>  <SCORE.INTER>
-24.5146

>  <SCORE.INTER.CONST>
1

>  <SCORE.INTER.POLAR>
0

>  <SCORE.INTER.ROT>
6

>  <SCORE.INTER.SOLV>
11.489

>  <SCORE.INTER.VDW>
-27.7727

>  <SCORE.INTER.norm>
-0.845329

>  <SCORE.INTRA>
-16.7677

>  <SCORE.INTRA.DIHEDRAL>
-3.76104

>  <SCORE.INTRA.DIHEDRAL.0>
6.83446

>  <SCORE.INTRA.POLAR>
0

>  <SCORE.INTRA.POLAR.0>
0

>  <SCORE.INTRA.REPUL>
0

>  <SCORE.INTRA.REPUL.0>
0

>  <SCORE.INTRA.SOLV>
-0.175167

>  <SCORE.INTRA.SOLV.lig_0>
-26.4601

>  <SCORE.INTRA.VDW>
-14.7996

>  <SCORE.INTRA.VDW.0>
13.7853

>  <SCORE.INTRA.norm>
-0.578195

>  <SCORE.RESTR>
0.0325902

>  <SCORE.RESTR.CAVITY>
0.0325902

>  <SCORE.RESTR.norm>
0.0011238

>  <SCORE.SYSTEM>
0

>  <SCORE.SYSTEM.CONST>
0

>  <SCORE.SYSTEM.DIHEDRAL>
0

>  <SCORE.SYSTEM.SOLV>
0

>  <SCORE.SYSTEM.norm>
0

>  <SCORE.heavy>
29

>  <SCORE.norm>
-1.4224

>  <RMSD>
2.008

$$$$
ligand
 OpenBabel11021811473D
libRbt.so/2013.1/901 2013/11/27
 29 31  0  0  0  0  0  0  0  0999 V2000
   30.9008   36.9700   15.8213 C   0  0  0  0  0  0  0  0  0  0  0  0
   32.2215   37.2092   15.3238 O   0  0  0  0  0  0  0  0  0  0  0  0
   30.2810   38.2903   16.2581 C   0  0  1  0  0  0  0  0  0  0  0  0
   30.1885   39.1452   15.1227 O   0  0  0  0  0  0  0  0  0  0  0  0
   28.9011   38.0605   16.8610 C   0  0  1  0  0  0  0  0  0  0  0  0
   28.0997   37.4500   15.8561 O   0  0  0  0  0  0  0  0  0  0  0  0
   28.8845   37.2093   18.1341 C   0  0  1  0  0  0  0  0  0  0  0  0
   29.6284   37.8920   19.1441 O   0  0  0  0  0  0  0  0  0  0  0  0
   27.4795   36.9486   18.6734 C   0  0  0  0  0  0  0  0  0  0  0  0
   27.3998   34.1853   18.0997 N   0  0  0  0  0  0  0  0  0  0  0  0
   27.3648   32.8591   17.7866 C   0  0  0  0  0  0  0  0  0  0  0  0
   27.2913   32.4904   16.5878 O   0  0  0  0  0  0  0  0  0  0  0  0
   27.4038   31.9216   18.7672 N   0  0  0  0  0  0  0  0  0  0  0  0
   27.4783   32.2824   20.0730 C   0  0  0  0  0  0  0  0  0  0  0  0
   27.5160   33.6313   20.4072 C   0  0  1  0  0  0  0  0  0  0  0  0
   27.5120   31.4111   20.9770 O   0  0  0  0  0  0  0  0  0  0  0  0
   27.6339   35.3098   22.0271 C   0  0  1  0  0  0  0  0  0  0  0  0
   27.5955   34.0008   21.7040 N   0  0  0  0  0  0  0  0  0  0  0  0
   27.7151   35.6812   23.3647 C   0  0  0  0  0  0  0  0  0  0  0  0
   27.7590   37.0223   23.7294 C   0  0  2  0  0  0  0  0  0  0  0  0
   27.8456   37.3539   25.1971 C   0  0  0  0  0  0  0  0  0  0  0  0
   27.7216   38.0127   22.7397 C   0  0  2  0  0  0  0  0  0  0  0  0
   27.7607   39.3497   23.0224 N   0  0  0  0  0  0  0  0  0  0  0  0
   27.6384   37.6234   21.3972 C   0  0  0  0  0  0  0  0  0  0  0  0
   27.5929   36.2797   21.0269 C   0  0  2  0  0  0  0  0  0  0  0  0
   27.4775   34.5983   19.3978 C   0  0  2  0  0  0  0  0  0  0  0  0
   27.5092   35.9154   19.7268 N   0  0  0  0  0  0  0  0  0  0  0  0
   28.9695   40.1060   22.7558 C   0  0  0  0  0  0  0  0  0  0  0  0
   26.6270   40.0652   23.5843 C   0  0  0  0  0  0  0  0  0  0  0  0
  1  2  1  0  0  0  0
  3  1  1  6  0  0  0
  3  4  1  0  0  0  0
  3  5  1  0  0  0  0
  5  6  1  6  0  0  0
  5  7  1  0  0  0  0
  7  8  1  1  0  0  0
  7  9  1  0  0  0  0
  9 27  1  0  0  0  0
 10 11  1  0  0  0  0
 11 12  2  0  0  0  0
 11 13  1  0  0  0  0
 13 14  1  0  0  0  0
 14 16  2  0  0  0  0
 15 14  1  6  0  0  0
 15 18  1  0  0  0  0
 15 26  1  0  0  0  0
 17 19  1  6  0  0  0
 17 25  1  0  0  0  0
 17 18  1  0  0  0  0
 19 20  1  0  0  0  0
 20 21  1  1  0  0  0
 20 22  1  0  0  0  0
 22 23  1  1  0  0  0
 22 24  1  0  0  0  0
 23 28  1  0  0  0  0
 23 29  1  0  0  0  0
 25 24  1  1  0  0  0
 25 27  1  0  0  0  0
 26 10  1  1  0  0  0
 26 27  1  0  0  0  0
M  END
>  <CHROM.1>
61.82408215,-59.84963487,62.42846356,168.71484239,106.44888683,94.26740914
28.26880594,36.22791093,19.68010492,-0.82825950,1.17855877,0.73158462

>  <Name>
ligand

>  <RI>
0

>  <Rbt.Current_Directory>
/home/itssahil/PROJECTS/Mol_Feturizer/New_Systems/rnas/3F4H

>  <Rbt.Executable>
rbdock ($Id: //depot/dev/client3/rdock/2013.1/src/exe/rbdock.cxx#4 $)

>  <Rbt.Library>
libRbt.so (2013.1, Build901 2013/11/27)

>  <Rbt.Parameter_File>
/export/apps/rDock/src/rDock_2013.1_src/data/scripts/dock_solv.prm

>  <Rbt.Receptor>
prm/pocket_docking_7.prm

>  <SCORE>
-44.1479

>  <SCORE.INTER>
-26.5217

>  <SCORE.INTER.CONST>
1

>  <SCORE.INTER.POLAR>
0

>  <SCORE.INTER.ROT>
6

>  <SCORE.INTER.SOLV>
11.3783

>  <SCORE.INTER.VDW>
-29.0739

>  <SCORE.INTER.norm>
-0.914542

>  <SCORE.INTRA>
-17.6262

>  <SCORE.INTRA.DIHEDRAL>
-4.36522

>  <SCORE.INTRA.DIHEDRAL.0>
6.83446

>  <SCORE.INTRA.POLAR>
0

>  <SCORE.INTRA.POLAR.0>
0

>  <SCORE.INTRA.REPUL>
0

>  <SCORE.INTRA.REPUL.0>
0

>  <SCORE.INTRA.SOLV>
-0.481941

>  <SCORE.INTRA.SOLV.lig_0>
-26.4601

>  <SCORE.INTRA.VDW>
-15.2026

>  <SCORE.INTRA.VDW.0>
13.7853

>  <SCORE.INTRA.norm>
-0.607799

>  <SCORE.RESTR>
0

>  <SCORE.RESTR.CAVITY>
0

>  <SCORE.RESTR.norm>
0

>  <SCORE.SYSTEM>
0

>  <SCORE.SYSTEM.CONST>
0

>  <SCORE.SYSTEM.DIHEDRAL>
0

>  <SCORE.SYSTEM.SOLV>
0

>  <SCORE.SYSTEM.norm>
0

>  <SCORE.heavy>
29

>  <SCORE.norm>
-1.52234

>  <RMSD>
2.070

$$$$
ligand
 OpenBabel11021811473D
libRbt.so/2013.1/901 2013/11/27
 29 31  0  0  0  0  0  0  0  0999 V2000
   30.8901   36.9246   15.8081 C   0  0  0  0  0  0  0  0  0  0  0  0
   32.2109   37.1663   15.3121 O   0  0  0  0  0  0  0  0  0  0  0  0
   30.2709   38.2425   16.2532 C   0  0  1  0  0  0  0  0  0  0  0  0
   30.1809   39.1052   15.1236 O   0  0  0  0  0  0  0  0  0  0  0  0
   28.8899   38.0098   16.8524 C   0  0  1  0  0  0  0  0  0  0  0  0
   28.0900   37.4051   15.8427 O   0  0  0  0  0  0  0  0  0  0  0  0
   28.8707   37.1516   18.1207 C   0  0  1  0  0  0  0  0  0  0  0  0
   29.5741   37.8493   19.1493 O   0  0  0  0  0  0  0  0  0  0  0  0
   27.4627   36.8488   18.6292 C   0  0  0  0  0  0  0  0  0  0  0  0
   27.4072   34.0773   18.0935 N   0  0  0  0  0  0  0  0  0  0  0  0
   27.3839   32.7466   17.7986 C   0  0  0  0  0  0  0  0  0  0  0  0
   27.3130   32.3609   16.6050 O   0  0  0  0  0  0  0  0  0  0  0  0
   27.4316   31.8230   18.7919 N   0  0  0  0  0  0  0  0  0  0  0  0
   27.5037   32.2023   20.0926 C   0  0  0  0  0  0  0  0  0  0  0  0
   27.5296   33.5560   20.4082 C   0  0  1  0  0  0  0  0  0  0  0  0
   27.5455   31.3439   21.0085 O   0  0  0  0  0  0  0  0  0  0  0  0
   27.6334   35.2574   22.0050 C   0  0  1  0  0  0  0  0  0  0  0  0
   27.6064   33.9439   21.6998 N   0  0  0  0  0  0  0  0  0  0  0  0
   27.7120   35.6478   23.3373 C   0  0  0  0  0  0  0  0  0  0  0  0
   27.7442   36.9941   23.6837 C   0  0  2  0  0  0  0  0  0  0  0  0
   27.8286   37.3466   25.1466 C   0  0  0  0  0  0  0  0  0  0  0  0
   27.6974   37.9705   22.6805 C   0  0  2  0  0  0  0  0  0  0  0  0
   27.7248   39.3116   22.9448 N   0  0  0  0  0  0  0  0  0  0  0  0
   27.6170   37.5622   21.3435 C   0  0  0  0  0  0  0  0  0  0  0  0
   27.5832   36.2132   20.9917 C   0  0  2  0  0  0  0  0  0  0  0  0
   27.4820   34.5087   19.3858 C   0  0  2  0  0  0  0  0  0  0  0  0
   27.5021   35.8304   19.6967 N   0  0  0  0  0  0  0  0  0  0  0  0
   28.8780   40.0987   22.5513 C   0  0  0  0  0  0  0  0  0  0  0  0
   26.6321   40.0015   23.6104 C   0  0  0  0  0  0  0  0  0  0  0  0
  1  2  1  0  0  0  0
  3  1  1  6  0  0  0
  3  4  1  0  0  0  0
  3  5  1  0  0  0  0
  5  6  1  6  0  0  0
  5  7  1  0  0  0  0
  7  8  1  1  0  0  0
  7  9  1  0  0  0  0
  9 27  1  0  0  0  0
 10 11  1  0  0  0  0
 11 12  2  0  0  0  0
 11 13  1  0  0  0  0
 13 14  1  0  0  0  0
 14 16  2  0  0  0  0
 15 14  1  6  0  0  0
 15 18  1  0  0  0  0
 15 26  1  0  0  0  0
 17 19  1  6  0  0  0
 17 25  1  0  0  0  0
 17 18  1  0  0  0  0
 19 20  1  0  0  0  0
 20 21  1  1  0  0  0
 20 22  1  0  0  0  0
 22 23  1  1  0  0  0
 22 24  1  0  0  0  0
 23 28  1  0  0  0  0
 23 29  1  0  0  0  0
 25 24  1  1  0  0  0
 25 27  1  0  0  0  0
 26 10  1  1  0  0  0
 26 27  1  0  0  0  0
M  END
>  <CHROM.1>
61.72226618,-59.75899656,64.38612613,169.83197795,112.26720203,92.20729149
28.26146274,36.16705341,19.65976460,-0.79859837,1.18323067,0.70221425

>  <Name>
ligand

>  <RI>
0

>  <Rbt.Current_Directory>
/home/itssahil/PROJECTS/Mol_Feturizer/New_Systems/rnas/3F4H

>  <Rbt.Executable>
rbdock ($Id: //depot/dev/client3/rdock/2013.1/src/exe/rbdock.cxx#4 $)

>  <Rbt.Library>
libRbt.so (2013.1, Build901 2013/11/27)

>  <Rbt.Parameter_File>
/export/apps/rDock/src/rDock_2013.1_src/data/scripts/dock_solv.prm

>  <Rbt.Receptor>
prm/pocket_docking_5.prm

>  <SCORE>
-44.1352

>  <SCORE.INTER>
-26.8466

>  <SCORE.INTER.CONST>
1

>  <SCORE.INTER.POLAR>
0

>  <SCORE.INTER.ROT>
6

>  <SCORE.INTER.SOLV>
11.527

>  <SCORE.INTER.VDW>
-29.34

>  <SCORE.INTER.norm>
-0.925743

>  <SCORE.INTRA>
-17.2887

>  <SCORE.INTRA.DIHEDRAL>
-4.40181

>  <SCORE.INTRA.DIHEDRAL.0>
6.83446

>  <SCORE.INTRA.POLAR>
0

>  <SCORE.INTRA.POLAR.0>
0

>  <SCORE.INTRA.REPUL>
0

>  <SCORE.INTRA.REPUL.0>
0

>  <SCORE.INTRA.SOLV>
-0.455914

>  <SCORE.INTRA.SOLV.lig_0>
-26.4601

>  <SCORE.INTRA.VDW>
-14.8598

>  <SCORE.INTRA.VDW.0>
13.7853

>  <SCORE.INTRA.norm>
-0.596161

>  <SCORE.RESTR>
0

>  <SCORE.RESTR.CAVITY>
0

>  <SCORE.RESTR.norm>
0

>  <SCORE.SYSTEM>
0

>  <SCORE.SYSTEM.CONST>
0

>  <SCORE.SYSTEM.DIHEDRAL>
0

>  <SCORE.SYSTEM.SOLV>
0

>  <SCORE.SYSTEM.norm>
0

>  <SCORE.heavy>
29

>  <SCORE.norm>
-1.5219

>  <RMSD>
2.080

$$$$
ligand
 OpenBabel11021811473D
libRbt.so/2013.1/901 2013/11/27
 29 31  0  0  0  0  0  0  0  0999 V2000
   29.0383   41.2569   15.4279 C   0  0  0  0  0  0  0  0  0  0  0  0
   28.3765   42.4394   14.9665 O   0  0  0  0  0  0  0  0  0  0  0  0
   28.2802   40.6887   16.6198 C   0  0  1  0  0  0  0  0  0  0  0  0
   26.9443   40.4066   16.2145 O   0  0  0  0  0  0  0  0  0  0  0  0
   28.9565   39.4229   17.1303 C   0  0  1  0  0  0  0  0  0  0  0  0
   30.2827   39.7769   17.5055 O   0  0  0  0  0  0  0  0  0  0  0  0
   28.2460   38.7363   18.3005 C   0  0  1  0  0  0  0  0  0  0  0  0
   27.1493   37.9817   17.7835 O   0  0  0  0  0  0  0  0  0  0  0  0
   29.1474   37.7865   19.0868 C   0  0  0  0  0  0  0  0  0  0  0  0
   28.2304   35.1167   19.1321 N   0  0  0  0  0  0  0  0  0  0  0  0
   27.8060   33.8213   19.1224 C   0  0  0  0  0  0  0  0  0  0  0  0
   28.0130   33.0919   18.1206 O   0  0  0  0  0  0  0  0  0  0  0  0
   27.1501   33.3063   20.1931 N   0  0  0  0  0  0  0  0  0  0  0  0
   26.9044   34.0655   21.2904 C   0  0  0  0  0  0  0  0  0  0  0  0
   27.3325   35.3880   21.3150 C   0  0  1  0  0  0  0  0  0  0  0  0
   26.2951   33.5851   22.2780 O   0  0  0  0  0  0  0  0  0  0  0  0
   27.5148   37.4331   22.4285 C   0  0  1  0  0  0  0  0  0  0  0  0
   27.0974   36.1507   22.4048 N   0  0  0  0  0  0  0  0  0  0  0  0
   27.2680   38.2111   23.5542 C   0  0  0  0  0  0  0  0  0  0  0  0
   27.6881   39.5355   23.6099 C   0  0  2  0  0  0  0  0  0  0  0  0
   27.3864   40.3215   24.8600 C   0  0  0  0  0  0  0  0  0  0  0  0
   28.3684   40.0946   22.5207 C   0  0  2  0  0  0  0  0  0  0  0  0
   28.8108   41.3881   22.5035 N   0  0  0  0  0  0  0  0  0  0  0  0
   28.6084   39.2993   21.3936 C   0  0  0  0  0  0  0  0  0  0  0  0
   28.1879   37.9710   21.3329 C   0  0  2  0  0  0  0  0  0  0  0  0
   28.0098   35.9195   20.2131 C   0  0  2  0  0  0  0  0  0  0  0  0
   28.4224   37.2130   20.2373 N   0  0  0  0  0  0  0  0  0  0  0  0
   29.9043   41.7857   23.3699 C   0  0  0  0  0  0  0  0  0  0  0  0
   28.2305   42.4033   21.6400 C   0  0  0  0  0  0  0  0  0  0  0  0
  1  2  1  0  0  0  0
  3  1  1  6  0  0  0
  3  4  1  0  0  0  0
  3  5  1  0  0  0  0
  5  6  1  1  0  0  0
  5  7  1  0  0  0  0
  7  8  1  6  0  0  0
  7  9  1  0  0  0  0
  9 27  1  0  0  0  0
 10 11  1  0  0  0  0
 11 12  2  0  0  0  0
 11 13  1  0  0  0  0
 13 14  1  0  0  0  0
 14 16  2  0  0  0  0
 15 14  1  1  0  0  0
 15 18  1  0  0  0  0
 15 26  1  0  0  0  0
 17 19  1  1  0  0  0
 17 25  1  0  0  0  0
 17 18  1  0  0  0  0
 19 20  1  0  0  0  0
 20 21  1  6  0  0  0
 20 22  1  0  0  0  0
 22 23  1  6  0  0  0
 22 24  1  0  0  0  0
 23 28  1  0  0  0  0
 23 29  1  0  0  0  0
 25 24  1  6  0  0  0
 25 27  1  0  0  0  0
 26 10  1  6  0  0  0
 26 27  1  0  0  0  0
M  END
>  <CHROM.1>
58.55169667,59.47250268,79.47184146,177.12237044,69.17836353,-75.00127171
28.06525842,38.14436988,20.05529821,0.12203054,-1.39037840,-1.94345761

>  <Name>
ligand

>  <RI>
0

>  <Rbt.Current_Directory>
/home/itssahil/PROJECTS/Mol_Feturizer/New_Systems/rnas/3F4H

>  <Rbt.Executable>
rbdock ($Id: //depot/dev/client3/rdock/2013.1/src/exe/rbdock.cxx#4 $)

>  <Rbt.Library>
libRbt.so (2013.1, Build901 2013/11/27)

>  <Rbt.Parameter_File>
/export/apps/rDock/src/rDock_2013.1_src/data/scripts/dock_solv.prm

>  <Rbt.Receptor>
prm/pocket_docking_6.prm

>  <SCORE>
-41.505

>  <SCORE.INTER>
-24.7718

>  <SCORE.INTER.CONST>
1

>  <SCORE.INTER.POLAR>
0

>  <SCORE.INTER.ROT>
6

>  <SCORE.INTER.SOLV>
12.2856

>  <SCORE.INTER.VDW>
-28.2097

>  <SCORE.INTER.norm>
-0.8542

>  <SCORE.INTRA>
-16.7332

>  <SCORE.INTRA.DIHEDRAL>
-3.47072

>  <SCORE.INTRA.DIHEDRAL.0>
6.83446

>  <SCORE.INTRA.POLAR>
0

>  <SCORE.INTRA.POLAR.0>
0

>  <SCORE.INTRA.REPUL>
0

>  <SCORE.INTRA.REPUL.0>
0

>  <SCORE.INTRA.SOLV>
-0.424775

>  <SCORE.INTRA.SOLV.lig_0>
-26.4601

>  <SCORE.INTRA.VDW>
-14.7855

>  <SCORE.INTRA.VDW.0>
13.7853

>  <SCORE.INTRA.norm>
-0.577008

>  <SCORE.RESTR>
0

>  <SCORE.RESTR.CAVITY>
0

>  <SCORE.RESTR.norm>
0

>  <SCORE.SYSTEM>
0

>  <SCORE.SYSTEM.CONST>
0

>  <SCORE.SYSTEM.DIHEDRAL>
0

>  <SCORE.SYSTEM.SOLV>
0

>  <SCORE.SYSTEM.norm>
0

>  <SCORE.heavy>
29

>  <SCORE.norm>
-1.43121

>  <RMSD>
2.086

$$$$
ligand
 OpenBabel11021811473D
libRbt.so/2013.1/901 2013/11/27
 29 31  0  0  0  0  0  0  0  0999 V2000
   27.9241   41.5872   19.2465 C   0  0  0  0  0  0  0  0  0  0  0  0
   28.3576   42.6018   20.1583 O   0  0  0  0  0  0  0  0  0  0  0  0
   27.1799   40.5042   20.0156 C   0  0  1  0  0  0  0  0  0  0  0  0
   26.0132   41.0801   20.5946 O   0  0  0  0  0  0  0  0  0  0  0  0
   26.7993   39.3558   19.0900 C   0  0  1  0  0  0  0  0  0  0  0  0
   26.0207   39.9071   18.0343 O   0  0  0  0  0  0  0  0  0  0  0  0
   27.9808   38.5692   18.5148 C   0  0  1  0  0  0  0  0  0  0  0  0
   28.7426   39.4430   17.6808 O   0  0  0  0  0  0  0  0  0  0  0  0
   28.9120   38.0013   19.5840 C   0  0  0  0  0  0  0  0  0  0  0  0
   28.7529   35.3906   18.5211 N   0  0  0  0  0  0  0  0  0  0  0  0
   28.6984   34.1406   17.9802 C   0  0  0  0  0  0  0  0  0  0  0  0
   29.1903   33.9164   16.8460 O   0  0  0  0  0  0  0  0  0  0  0  0
   28.1071   33.1247   18.6587 N   0  0  0  0  0  0  0  0  0  0  0  0
   27.5609   33.3304   19.8835 C   0  0  0  0  0  0  0  0  0  0  0  0
   27.6102   34.5998   20.4482 C   0  0  1  0  0  0  0  0  0  0  0  0
   27.0129   32.3876   20.5067 O   0  0  0  0  0  0  0  0  0  0  0  0
   27.1238   36.0453   22.2173 C   0  0  1  0  0  0  0  0  0  0  0  0
   27.0739   34.8138   21.6693 N   0  0  0  0  0  0  0  0  0  0  0  0
   26.5687   36.2567   23.4745 C   0  0  0  0  0  0  0  0  0  0  0  0
   26.6068   37.5142   24.0669 C   0  0  2  0  0  0  0  0  0  0  0  0
   25.9851   37.6730   25.4306 C   0  0  0  0  0  0  0  0  0  0  0  0
   27.2112   38.5820   23.3914 C   0  0  2  0  0  0  0  0  0  0  0  0
   27.2860   39.8446   23.9104 N   0  0  0  0  0  0  0  0  0  0  0  0
   27.7647   38.3541   22.1256 C   0  0  0  0  0  0  0  0  0  0  0  0
   27.7277   37.0951   21.5271 C   0  0  2  0  0  0  0  0  0  0  0  0
   28.2204   35.6471   19.7509 C   0  0  2  0  0  0  0  0  0  0  0  0
   28.2628   36.8873   20.3022 N   0  0  0  0  0  0  0  0  0  0  0  0
   28.4623   40.2460   24.6586 C   0  0  0  0  0  0  0  0  0  0  0  0
   26.2259   40.8248   23.7426 C   0  0  0  0  0  0  0  0  0  0  0  0
  1  2  1  0  0  0  0
  3  1  1  6  0  0  0
  3  4  1  0  0  0  0
  3  5  1  0  0  0  0
  5  6  1  6  0  0  0
  5  7  1  0  0  0  0
  7  8  1  6  0  0  0
  7  9  1  0  0  0  0
  9 27  1  0  0  0  0
 10 11  1  0  0  0  0
 11 12  2  0  0  0  0
 11 13  1  0  0  0  0
 13 14  1  0  0  0  0
 14 16  2  0  0  0  0
 15 14  1  1  0  0  0
 15 18  1  0  0  0  0
 15 26  1  0  0  0  0
 17 19  1  1  0  0  0
 17 25  1  0  0  0  0
 17 18  1  0  0  0  0
 19 20  1  0  0  0  0
 20 21  1  6  0  0  0
 20 22  1  0  0  0  0
 22 23  1  6  0  0  0
 22 24  1  0  0  0  0
 23 28  1  0  0  0  0
 23 29  1  0  0  0  0
 25 24  1  6  0  0  0
 25 27  1  0  0  0  0
 26 10  1  6  0  0  0
 26 27  1  0  0  0  0
M  END
>  <CHROM.1>
63.25367186,-57.03206138,-64.24344882,71.30671052,93.31412440,-101.35266811
27.56412153,37.59851904,20.71076529,-2.18920151,-1.34858690,2.97085582

>  <Name>
ligand

>  <RI>
0

>  <Rbt.Current_Directory>
/home/itssahil/PROJECTS/Mol_Feturizer/New_Systems/rnas/3F4H

>  <Rbt.Executable>
rbdock ($Id: //depot/dev/client3/rdock/2013.1/src/exe/rbdock.cxx#4 $)

>  <Rbt.Library>
libRbt.so (2013.1, Build901 2013/11/27)

>  <Rbt.Parameter_File>
/export/apps/rDock/src/rDock_2013.1_src/data/scripts/dock_solv.prm

>  <Rbt.Receptor>
prm/pocket_docking_8.prm

>  <SCORE>
-45.0919

>  <SCORE.INTER>
-27.3457

>  <SCORE.INTER.CONST>
1

>  <SCORE.INTER.POLAR>
0

>  <SCORE.INTER.ROT>
6

>  <SCORE.INTER.SOLV>
10.5368

>  <SCORE.INTER.VDW>
-29.3428

>  <SCORE.INTER.norm>
-0.942956

>  <SCORE.INTRA>
-17.7462

>  <SCORE.INTRA.DIHEDRAL>
-4.18889

>  <SCORE.INTRA.DIHEDRAL.0>
6.83446

>  <SCORE.INTRA.POLAR>
0

>  <SCORE.INTRA.POLAR.0>
0

>  <SCORE.INTRA.REPUL>
0

>  <SCORE.INTRA.REPUL.0>
0

>  <SCORE.INTRA.SOLV>
0.273608

>  <SCORE.INTRA.SOLV.lig_0>
-26.4601

>  <SCORE.INTRA.VDW>
-15.7885

>  <SCORE.INTRA.VDW.0>
13.7853

>  <SCORE.INTRA.norm>
-0.611937

>  <SCORE.RESTR>
0

>  <SCORE.RESTR.CAVITY>
0

>  <SCORE.RESTR.norm>
0

>  <SCORE.SYSTEM>
0

>  <SCORE.SYSTEM.CONST>
0

>  <SCORE.SYSTEM.DIHEDRAL>
0

>  <SCORE.SYSTEM.SOLV>
0

>  <SCORE.SYSTEM.norm>
0

>  <SCORE.heavy>
29

>  <SCORE.norm>
-1.55489

>  <RMSD>
2.112

$$$$
ligand
 OpenBabel11021811473D
libRbt.so/2013.1/901 2013/11/27
 29 31  0  0  0  0  0  0  0  0999 V2000
   27.9750   41.6269   15.8207 C   0  0  0  0  0  0  0  0  0  0  0  0
   26.9118   42.1670   15.0290 O   0  0  0  0  0  0  0  0  0  0  0  0
   27.5373   40.2918   16.4072 C   0  0  1  0  0  0  0  0  0  0  0  0
   27.3346   39.3720   15.3389 O   0  0  0  0  0  0  0  0  0  0  0  0
   28.5900   39.7595   17.3709 C   0  0  1  0  0  0  0  0  0  0  0  0
   28.7001   40.6988   18.4340 O   0  0  0  0  0  0  0  0  0  0  0  0
   28.3068   38.3629   17.9322 C   0  0  1  0  0  0  0  0  0  0  0  0
   28.4251   37.4161   16.8696 O   0  0  0  0  0  0  0  0  0  0  0  0
   29.2659   37.9490   19.0464 C   0  0  0  0  0  0  0  0  0  0  0  0
   28.3910   35.2649   19.0087 N   0  0  0  0  0  0  0  0  0  0  0  0
   27.9877   33.9638   18.9591 C   0  0  0  0  0  0  0  0  0  0  0  0
   28.2256   33.2625   17.9441 O   0  0  0  0  0  0  0  0  0  0  0  0
   27.3195   33.4124   20.0038 N   0  0  0  0  0  0  0  0  0  0  0  0
   27.0406   34.1404   21.1142 C   0  0  0  0  0  0  0  0  0  0  0  0
   27.4469   35.4684   21.1794 C   0  0  1  0  0  0  0  0  0  0  0  0
   26.4201   33.6264   22.0777 O   0  0  0  0  0  0  0  0  0  0  0  0
   27.5749   37.4880   22.3457 C   0  0  1  0  0  0  0  0  0  0  0  0
   27.1786   36.2002   22.2826 N   0  0  0  0  0  0  0  0  0  0  0  0
   27.2940   38.2341   23.4850 C   0  0  0  0  0  0  0  0  0  0  0  0
   27.6916   39.5631   23.5811 C   0  0  2  0  0  0  0  0  0  0  0  0
   27.3534   40.3133   24.8438 C   0  0  0  0  0  0  0  0  0  0  0  0
   28.3838   40.1594   22.5194 C   0  0  2  0  0  0  0  0  0  0  0  0
   28.8057   41.4596   22.5424 N   0  0  0  0  0  0  0  0  0  0  0  0
   28.6583   39.3958   21.3783 C   0  0  0  0  0  0  0  0  0  0  0  0
   28.2603   38.0632   21.2770 C   0  0  2  0  0  0  0  0  0  0  0  0
   28.1368   36.0373   20.1043 C   0  0  2  0  0  0  0  0  0  0  0  0
   28.5281   37.3361   20.1681 N   0  0  0  0  0  0  0  0  0  0  0  0
   28.2339   42.4177   21.6153 C   0  0  0  0  0  0  0  0  0  0  0  0
   29.8159   41.9393   23.4710 C   0  0  0  0  0  0  0  0  0  0  0  0
  1  2  1  0  0  0  0
  3  1  1  6  0  0  0
  3  4  1  0  0  0  0
  3  5  1  0  0  0  0
  5  6  1  1  0  0  0
  5  7  1  0  0  0  0
  7  8  1  6  0  0  0
  7  9  1  0  0  0  0
  9 27  1  0  0  0  0
 10 11  1  0  0  0  0
 11 12  2  0  0  0  0
 11 13  1  0  0  0  0
 13 14  1  0  0  0  0
 14 16  2  0  0  0  0
 15 14  1  1  0  0  0
 15 18  1  0  0  0  0
 15 26  1  0  0  0  0
 17 19  1  1  0  0  0
 17 25  1  0  0  0  0
 17 18  1  0  0  0  0
 19 20  1  0  0  0  0
 20 21  1  6  0  0  0
 20 22  1  0  0  0  0
 22 23  1  6  0  0  0
 22 24  1  0  0  0  0
 23 28  1  0  0  0  0
 23 29  1  0  0  0  0
 25 24  1  6  0  0  0
 25 27  1  0  0  0  0
 26 10  1  6  0  0  0
 26 27  1  0  0  0  0
M  END
>  <CHROM.1>
64.72979466,62.20252358,68.46419203,135.21049071,-114.39518331,-100.80082752
27.99305817,38.16618659,19.97006002,0.50360208,-1.47329260,-1.44740259

>  <Name>
ligand

>  <RI>
0

>  <Rbt.Current_Directory>
/home/itssahil/PROJECTS/Mol_Feturizer/New_Systems/rnas/3F4H

>  <Rbt.Executable>
rbdock ($Id: //depot/dev/client3/rdock/2013.1/src/exe/rbdock.cxx#4 $)

>  <Rbt.Library>
libRbt.so (2013.1, Build901 2013/11/27)

>  <Rbt.Parameter_File>
/export/apps/rDock/src/rDock_2013.1_src/data/scripts/dock_solv.prm

>  <Rbt.Receptor>
prm/pocket_docking_8.prm

>  <SCORE>
-40.6713

>  <SCORE.INTER>
-25.368

>  <SCORE.INTER.CONST>
1

>  <SCORE.INTER.POLAR>
0

>  <SCORE.INTER.ROT>
6

>  <SCORE.INTER.SOLV>
11.8578

>  <SCORE.INTER.VDW>
-28.4646

>  <SCORE.INTER.norm>
-0.874758

>  <SCORE.INTRA>
-15.3117

>  <SCORE.INTRA.DIHEDRAL>
0.0631368

>  <SCORE.INTRA.DIHEDRAL.0>
6.83446

>  <SCORE.INTRA.POLAR>
0

>  <SCORE.INTRA.POLAR.0>
0

>  <SCORE.INTRA.REPUL>
0

>  <SCORE.INTRA.REPUL.0>
0

>  <SCORE.INTRA.SOLV>
-0.159654

>  <SCORE.INTRA.SOLV.lig_0>
-26.4601

>  <SCORE.INTRA.VDW>
-15.2635

>  <SCORE.INTRA.VDW.0>
13.7853

>  <SCORE.INTRA.norm>
-0.527991

>  <SCORE.RESTR>
0.00845161

>  <SCORE.RESTR.CAVITY>
0.00845161

>  <SCORE.RESTR.norm>
0.000291435

>  <SCORE.SYSTEM>
0

>  <SCORE.SYSTEM.CONST>
0

>  <SCORE.SYSTEM.DIHEDRAL>
0

>  <SCORE.SYSTEM.SOLV>
0

>  <SCORE.SYSTEM.norm>
0

>  <SCORE.heavy>
29

>  <SCORE.norm>
-1.40246

>  <RMSD>
2.183

$$$$
ligand
 OpenBabel11021811473D
libRbt.so/2013.1/901 2013/11/27
 29 31  0  0  0  0  0  0  0  0999 V2000
   28.6386   41.8265   17.3612 C   0  0  0  0  0  0  0  0  0  0  0  0
   27.7720   41.6379   18.4847 O   0  0  0  0  0  0  0  0  0  0  0  0
   28.5461   40.6138   16.4453 C   0  0  1  0  0  0  0  0  0  0  0  0
   29.1958   40.9234   15.2164 O   0  0  0  0  0  0  0  0  0  0  0  0
   29.1969   39.4002   17.0966 C   0  0  1  0  0  0  0  0  0  0  0  0
   30.5438   39.7526   17.3905 O   0  0  0  0  0  0  0  0  0  0  0  0
   28.4994   38.8928   18.3621 C   0  0  1  0  0  0  0  0  0  0  0  0
   27.2408   38.3297   17.9899 O   0  0  0  0  0  0  0  0  0  0  0  0
   29.2956   37.8245   19.1089 C   0  0  0  0  0  0  0  0  0  0  0  0
   28.3546   35.1625   19.1213 N   0  0  0  0  0  0  0  0  0  0  0  0
   27.9204   33.8707   19.0969 C   0  0  0  0  0  0  0  0  0  0  0  0
   28.1771   33.1320   18.1135 O   0  0  0  0  0  0  0  0  0  0  0  0
   27.2010   33.3691   20.1327 N   0  0  0  0  0  0  0  0  0  0  0  0
   26.9006   34.1385   21.2091 C   0  0  0  0  0  0  0  0  0  0  0  0
   27.3380   35.4575   21.2484 C   0  0  1  0  0  0  0  0  0  0  0  0
   26.2328   33.6705   22.1643 O   0  0  0  0  0  0  0  0  0  0  0  0
   27.4750   37.5094   22.3560 C   0  0  1  0  0  0  0  0  0  0  0  0
   27.0486   36.2303   22.3178 N   0  0  0  0  0  0  0  0  0  0  0  0
   27.1720   38.2979   23.4605 C   0  0  0  0  0  0  0  0  0  0  0  0
   27.5996   39.6192   23.5304 C   0  0  2  0  0  0  0  0  0  0  0  0
   27.2350   40.4170   24.7560 C   0  0  0  0  0  0  0  0  0  0  0  0
   28.3447   40.1645   22.4772 C   0  0  2  0  0  0  0  0  0  0  0  0
   28.7984   41.4542   22.4758 N   0  0  0  0  0  0  0  0  0  0  0  0
   28.6408   39.3588   21.3710 C   0  0  0  0  0  0  0  0  0  0  0  0
   28.2131   38.0336   21.2961 C   0  0  2  0  0  0  0  0  0  0  0  0
   28.0806   35.9753   20.1826 C   0  0  2  0  0  0  0  0  0  0  0  0
   28.5022   37.2655   20.2208 N   0  0  0  0  0  0  0  0  0  0  0  0
   28.2458   42.4099   21.5347 C   0  0  0  0  0  0  0  0  0  0  0  0
   29.8246   41.9248   23.3915 C   0  0  0  0  0  0  0  0  0  0  0  0
  1  2  1  0  0  0  0
  3  1  1  1  0  0  0
  3  4  1  0  0  0  0
  3  5  1  0  0  0  0
  5  6  1  1  0  0  0
  5  7  1  0  0  0  0
  7  8  1  6  0  0  0
  7  9  1  0  0  0  0
  9 27  1  0  0  0  0
 10 11  1  0  0  0  0
 11 12  2  0  0  0  0
 11 13  1  0  0  0  0
 13 14  1  0  0  0  0
 14 16  2  0  0  0  0
 15 14  1  1  0  0  0
 15 18  1  0  0  0  0
 15 26  1  0  0  0  0
 17 19  1  1  0  0  0
 17 25  1  0  0  0  0
 17 18  1  0  0  0  0
 19 20  1  0  0  0  0
 20 21  1  6  0  0  0
 20 22  1  0  0  0  0
 22 23  1  6  0  0  0
 22 24  1  0  0  0  0
 23 28  1  0  0  0  0
 23 29  1  0  0  0  0
 25 24  1  6  0  0  0
 25 27  1  0  0  0  0
 26 10  1  6  0  0  0
 26 27  1  0  0  0  0
M  END
>  <CHROM.1>
168.56697221,-57.32926587,69.02750464,-173.24346202,-111.90074845,-68.58927481
28.16419004,38.21487725,20.18854349,-0.61024929,-1.32508731,-2.35653527

>  <Name>
ligand

>  <RI>
0

>  <Rbt.Current_Directory>
/home/itssahil/PROJECTS/Mol_Feturizer/New_Systems/rnas/3F4H

>  <Rbt.Executable>
rbdock ($Id: //depot/dev/client3/rdock/2013.1/src/exe/rbdock.cxx#4 $)

>  <Rbt.Library>
libRbt.so (2013.1, Build901 2013/11/27)

>  <Rbt.Parameter_File>
/export/apps/rDock/src/rDock_2013.1_src/data/scripts/dock_solv.prm

>  <Rbt.Receptor>
prm/blind_docking_80.prm

>  <SCORE>
-41.7514

>  <SCORE.INTER>
-25.1945

>  <SCORE.INTER.CONST>
1

>  <SCORE.INTER.POLAR>
0

>  <SCORE.INTER.ROT>
6

>  <SCORE.INTER.SOLV>
10.7055

>  <SCORE.INTER.VDW>
-27.9648

>  <SCORE.INTER.norm>
-0.868776

>  <SCORE.INTRA>
-16.5569

>  <SCORE.INTRA.DIHEDRAL>
-3.85137

>  <SCORE.INTRA.DIHEDRAL.0>
6.83446

>  <SCORE.INTRA.POLAR>
0

>  <SCORE.INTRA.POLAR.0>
0

>  <SCORE.INTRA.REPUL>
0

>  <SCORE.INTRA.REPUL.0>
0

>  <SCORE.INTRA.SOLV>
0.333699

>  <SCORE.INTRA.SOLV.lig_0>
-26.4601

>  <SCORE.INTRA.VDW>
-14.7981

>  <SCORE.INTRA.VDW.0>
13.7853

>  <SCORE.INTRA.norm>
-0.570927

>  <SCORE.RESTR>
0

>  <SCORE.RESTR.CAVITY>
0

>  <SCORE.RESTR.norm>
0

>  <SCORE.SYSTEM>
0

>  <SCORE.SYSTEM.CONST>
0

>  <SCORE.SYSTEM.DIHEDRAL>
0

>  <SCORE.SYSTEM.SOLV>
0

>  <SCORE.SYSTEM.norm>
0

>  <SCORE.heavy>
29

>  <SCORE.norm>
-1.4397

>  <RMSD>
2.245

$$$$
ligand
 OpenBabel11021811473D
libRbt.so/2013.1/901 2013/11/27
 29 31  0  0  0  0  0  0  0  0999 V2000
   25.4672   40.4734   18.6812 C   0  0  0  0  0  0  0  0  0  0  0  0
   25.2318   40.8533   17.3213 O   0  0  0  0  0  0  0  0  0  0  0  0
   26.6154   39.4749   18.7330 C   0  0  1  0  0  0  0  0  0  0  0  0
   26.2736   38.3491   17.9305 O   0  0  0  0  0  0  0  0  0  0  0  0
   27.9030   40.1131   18.2279 C   0  0  1  0  0  0  0  0  0  0  0  0
   28.2293   41.1682   19.1251 O   0  0  0  0  0  0  0  0  0  0  0  0
   29.0900   39.1550   18.0911 C   0  0  1  0  0  0  0  0  0  0  0  0
   30.1420   39.8337   17.4039 O   0  0  0  0  0  0  0  0  0  0  0  0
   29.6356   38.6669   19.4316 C   0  0  0  0  0  0  0  0  0  0  0  0
   29.3966   36.2734   17.9533 N   0  0  0  0  0  0  0  0  0  0  0  0
   29.3063   35.1308   17.2154 C   0  0  0  0  0  0  0  0  0  0  0  0
   29.8693   35.0511   16.0951 O   0  0  0  0  0  0  0  0  0  0  0  0
   28.6023   34.0678   17.6805 N   0  0  0  0  0  0  0  0  0  0  0  0
   27.9771   34.1192   18.8835 C   0  0  0  0  0  0  0  0  0  0  0  0
   28.0616   35.2775   19.6476 C   0  0  1  0  0  0  0  0  0  0  0  0
   27.3249   33.1336   19.3088 O   0  0  0  0  0  0  0  0  0  0  0  0
   27.5312   36.4605   21.5905 C   0  0  1  0  0  0  0  0  0  0  0  0
   27.4471   35.3369   20.8490 N   0  0  0  0  0  0  0  0  0  0  0  0
   26.8951   36.5131   22.8258 C   0  0  0  0  0  0  0  0  0  0  0  0
   26.9655   37.6561   23.6145 C   0  0  2  0  0  0  0  0  0  0  0  0
   26.2516   37.6452   24.9417 C   0  0  0  0  0  0  0  0  0  0  0  0
   27.6856   38.7689   23.1616 C   0  0  2  0  0  0  0  0  0  0  0  0
   27.7987   39.9258   23.8813 N   0  0  0  0  0  0  0  0  0  0  0  0
   28.3198   38.7015   21.9151 C   0  0  0  0  0  0  0  0  0  0  0  0
   28.2508   37.5578   21.1203 C   0  0  2  0  0  0  0  0  0  0  0  0
   28.7879   36.3730   19.1704 C   0  0  2  0  0  0  0  0  0  0  0  0
   28.8648   37.5053   19.9160 N   0  0  0  0  0  0  0  0  0  0  0  0
   28.9452   40.1246   24.7476 C   0  0  0  0  0  0  0  0  0  0  0  0
   26.8093   40.9887   23.8166 C   0  0  0  0  0  0  0  0  0  0  0  0
  1  2  1  0  0  0  0
  3  1  1  6  0  0  0
  3  4  1  0  0  0  0
  3  5  1  0  0  0  0
  5  6  1  1  0  0  0
  5  7  1  0  0  0  0
  7  8  1  1  0  0  0
  7  9  1  0  0  0  0
  9 27  1  0  0  0  0
 10 11  1  0  0  0  0
 11 12  2  0  0  0  0
 11 13  1  0  0  0  0
 13 14  1  0  0  0  0
 14 16  2  0  0  0  0
 15 14  1  1  0  0  0
 15 18  1  0  0  0  0
 15 26  1  0  0  0  0
 17 19  1  1  0  0  0
 17 25  1  0  0  0  0
 17 18  1  0  0  0  0
 19 20  1  0  0  0  0
 20 21  1  6  0  0  0
 20 22  1  0  0  0  0
 22 23  1  6  0  0  0
 22 24  1  0  0  0  0
 23 28  1  0  0  0  0
 23 29  1  0  0  0  0
 25 24  1  6  0  0  0
 25 27  1  0  0  0  0
 26 10  1  6  0  0  0
 26 27  1  0  0  0  0
M  END
>  <CHROM.1>
-58.30131443,63.74059824,170.35285076,84.49135116,94.10130842,-122.08153616
27.91060656,37.81323988,20.05244445,2.94446421,-1.37521801,2.34336424

>  <Name>
ligand

>  <RI>
0

>  <Rbt.Current_Directory>
/home/itssahil/PROJECTS/Mol_Feturizer/New_Systems/rnas/3F4H

>  <Rbt.Executable>
rbdock ($Id: //depot/dev/client3/rdock/2013.1/src/exe/rbdock.cxx#4 $)

>  <Rbt.Library>
libRbt.so (2013.1, Build901 2013/11/27)

>  <Rbt.Parameter_File>
/export/apps/rDock/src/rDock_2013.1_src/data/scripts/dock_solv.prm

>  <Rbt.Receptor>
prm/blind_docking_80.prm

>  <SCORE>
-40.1489

>  <SCORE.INTER>
-22.0779

>  <SCORE.INTER.CONST>
1

>  <SCORE.INTER.POLAR>
0

>  <SCORE.INTER.ROT>
6

>  <SCORE.INTER.SOLV>
8.92

>  <SCORE.INTER.VDW>
-25.2919

>  <SCORE.INTER.norm>
-0.761307

>  <SCORE.INTRA>
-18.071

>  <SCORE.INTRA.DIHEDRAL>
-2.51908

>  <SCORE.INTRA.DIHEDRAL.0>
6.83446

>  <SCORE.INTRA.POLAR>
0

>  <SCORE.INTRA.POLAR.0>
0

>  <SCORE.INTRA.REPUL>
0

>  <SCORE.INTRA.REPUL.0>
0

>  <SCORE.INTRA.SOLV>
-0.205142

>  <SCORE.INTRA.SOLV.lig_0>
-26.4601

>  <SCORE.INTRA.VDW>
-16.7089

>  <SCORE.INTRA.VDW.0>
13.7853

>  <SCORE.INTRA.norm>
-0.623138

>  <SCORE.RESTR>
0

>  <SCORE.RESTR.CAVITY>
0

>  <SCORE.RESTR.norm>
0

>  <SCORE.SYSTEM>
0

>  <SCORE.SYSTEM.CONST>
0

>  <SCORE.SYSTEM.DIHEDRAL>
0

>  <SCORE.SYSTEM.SOLV>
0

>  <SCORE.SYSTEM.norm>
0

>  <SCORE.heavy>
29

>  <SCORE.norm>
-1.38444

>  <RMSD>
2.249

$$$$
ligand
 OpenBabel11021811473D
libRbt.so/2013.1/901 2013/11/27
 29 31  0  0  0  0  0  0  0  0999 V2000
   31.2783   36.2842   15.9267 C   0  0  0  0  0  0  0  0  0  0  0  0
   32.5523   36.9198   16.0742 O   0  0  0  0  0  0  0  0  0  0  0  0
   30.1994   37.3483   15.7782 C   0  0  1  0  0  0  0  0  0  0  0  0
   28.9457   36.6994   15.5898 O   0  0  0  0  0  0  0  0  0  0  0  0
   30.1533   38.2398   17.0125 C   0  0  1  0  0  0  0  0  0  0  0  0
   29.2406   39.2955   16.7347 O   0  0  0  0  0  0  0  0  0  0  0  0
   29.7547   37.5296   18.3095 C   0  0  1  0  0  0  0  0  0  0  0  0
   29.9615   38.4290   19.3994 O   0  0  0  0  0  0  0  0  0  0  0  0
   28.2949   37.0812   18.3338 C   0  0  0  0  0  0  0  0  0  0  0  0
   28.2969   34.3005   17.8450 N   0  0  0  0  0  0  0  0  0  0  0  0
   28.3095   32.9646   17.5743 C   0  0  0  0  0  0  0  0  0  0  0  0
   28.4965   32.5551   16.4014 O   0  0  0  0  0  0  0  0  0  0  0  0
   28.1148   32.0615   18.5685 N   0  0  0  0  0  0  0  0  0  0  0  0
   27.9051   32.4667   19.8462 C   0  0  0  0  0  0  0  0  0  0  0  0
   27.8909   33.8261   20.1373 C   0  0  1  0  0  0  0  0  0  0  0  0
   27.7232   31.6272   20.7625 O   0  0  0  0  0  0  0  0  0  0  0  0
   27.6763   35.5587   21.6889 C   0  0  1  0  0  0  0  0  0  0  0  0
   27.6880   34.2397   21.4071 N   0  0  0  0  0  0  0  0  0  0  0  0
   27.4662   35.9756   22.9987 C   0  0  0  0  0  0  0  0  0  0  0  0
   27.4512   37.3282   23.3213 C   0  0  2  0  0  0  0  0  0  0  0  0
   27.2169   37.7098   24.7603 C   0  0  0  0  0  0  0  0  0  0  0  0
   27.6502   38.2838   22.3168 C   0  0  2  0  0  0  0  0  0  0  0  0
   27.6486   39.6295   22.5584 N   0  0  0  0  0  0  0  0  0  0  0  0
   27.8592   37.8489   21.0023 C   0  0  0  0  0  0  0  0  0  0  0  0
   27.8739   36.4936   20.6741 C   0  0  2  0  0  0  0  0  0  0  0  0
   28.0929   34.7577   19.1143 C   0  0  2  0  0  0  0  0  0  0  0  0
   28.0734   36.0851   19.4000 N   0  0  0  0  0  0  0  0  0  0  0  0
   28.8711   40.2854   22.9824 C   0  0  0  0  0  0  0  0  0  0  0  0
   26.4598   40.4517   22.4046 C   0  0  0  0  0  0  0  0  0  0  0  0
  1  2  1  0  0  0  0
  3  1  1  1  0  0  0
  3  4  1  0  0  0  0
  3  5  1  0  0  0  0
  5  6  1  6  0  0  0
  5  7  1  0  0  0  0
  7  8  1  1  0  0  0
  7  9  1  0  0  0  0
  9 27  1  0  0  0  0
 10 11  1  0  0  0  0
 11 12  2  0  0  0  0
 11 13  1  0  0  0  0
 13 14  1  0  0  0  0
 14 16  2  0  0  0  0
 15 14  1  1  0  0  0
 15 18  1  0  0  0  0
 15 26  1  0  0  0  0
 17 19  1  1  0  0  0
 17 25  1  0  0  0  0
 17 18  1  0  0  0  0
 19 20  1  0  0  0  0
 20 21  1  6  0  0  0
 20 22  1  0  0  0  0
 22 23  1  6  0  0  0
 22 24  1  0  0  0  0
 23 28  1  0  0  0  0
 23 29  1  0  0  0  0
 25 24  1  6  0  0  0
 25 27  1  0  0  0  0
 26 10  1  6  0  0  0
 26 27  1  0  0  0  0
M  END
>  <CHROM.1>
178.16126295,173.24975498,170.86853270,163.59934571,85.96040785,82.29146165
28.56759312,36.32550270,19.53979307,-0.89705798,1.12333118,0.42553679

>  <Name>
ligand

>  <RI>
0

>  <Rbt.Current_Directory>
/home/itssahil/PROJECTS/Mol_Feturizer/New_Systems/rnas/3F4H

>  <Rbt.Executable>
rbdock ($Id: //depot/dev/client3/rdock/2013.1/src/exe/rbdock.cxx#4 $)

>  <Rbt.Library>
libRbt.so (2013.1, Build901 2013/11/27)

>  <Rbt.Parameter_File>
/export/apps/rDock/src/rDock_2013.1_src/data/scripts/dock_solv.prm

>  <Rbt.Receptor>
prm/pocket_docking_4.prm

>  <SCORE>
-44.2471

>  <SCORE.INTER>
-27.0209

>  <SCORE.INTER.CONST>
1

>  <SCORE.INTER.POLAR>
0

>  <SCORE.INTER.ROT>
6

>  <SCORE.INTER.SOLV>
10.0805

>  <SCORE.INTER.VDW>
-28.9741

>  <SCORE.INTER.norm>
-0.931755

>  <SCORE.INTRA>
-17.2287

>  <SCORE.INTRA.DIHEDRAL>
-3.44269

>  <SCORE.INTRA.DIHEDRAL.0>
6.83446

>  <SCORE.INTRA.POLAR>
0

>  <SCORE.INTRA.POLAR.0>
0

>  <SCORE.INTRA.REPUL>
0

>  <SCORE.INTRA.REPUL.0>
0

>  <SCORE.INTRA.SOLV>
0.0423523

>  <SCORE.INTRA.SOLV.lig_0>
-26.4601

>  <SCORE.INTRA.VDW>
-15.5286

>  <SCORE.INTRA.VDW.0>
13.7853

>  <SCORE.INTRA.norm>
-0.594094

>  <SCORE.RESTR>
0.0024702

>  <SCORE.RESTR.CAVITY>
0.0024702

>  <SCORE.RESTR.norm>
8.51792e-05

>  <SCORE.SYSTEM>
0

>  <SCORE.SYSTEM.CONST>
0

>  <SCORE.SYSTEM.DIHEDRAL>
0

>  <SCORE.SYSTEM.SOLV>
0

>  <SCORE.SYSTEM.norm>
0

>  <SCORE.heavy>
29

>  <SCORE.norm>
-1.52576

>  <RMSD>
2.264

$$$$
ligand
 OpenBabel11021811473D
libRbt.so/2013.1/901 2013/11/27
 29 31  0  0  0  0  0  0  0  0999 V2000
   31.6641   36.7341   15.0707 C   0  0  0  0  0  0  0  0  0  0  0  0
   31.0946   37.6949   14.1754 O   0  0  0  0  0  0  0  0  0  0  0  0
   30.6866   36.4634   16.2062 C   0  0  1  0  0  0  0  0  0  0  0  0
   31.1807   35.3743   16.9796 O   0  0  0  0  0  0  0  0  0  0  0  0
   30.5239   37.7011   17.0791 C   0  0  1  0  0  0  0  0  0  0  0  0
   29.7639   38.6447   16.3330 O   0  0  0  0  0  0  0  0  0  0  0  0
   29.8631   37.4524   18.4382 C   0  0  1  0  0  0  0  0  0  0  0  0
   29.8696   38.6760   19.1747 O   0  0  0  0  0  0  0  0  0  0  0  0
   28.4181   36.9690   18.3327 C   0  0  0  0  0  0  0  0  0  0  0  0
   28.3494   34.1797   17.9009 N   0  0  0  0  0  0  0  0  0  0  0  0
   28.3297   32.8385   17.6583 C   0  0  0  0  0  0  0  0  0  0  0  0
   28.5591   32.3976   16.5044 O   0  0  0  0  0  0  0  0  0  0  0  0
   28.0568   31.9642   18.6597 N   0  0  0  0  0  0  0  0  0  0  0  0
   27.7995   32.4040   19.9172 C   0  0  0  0  0  0  0  0  0  0  0  0
   27.8174   33.7691   20.1797 C   0  0  1  0  0  0  0  0  0  0  0  0
   27.5453   31.5911   20.8403 O   0  0  0  0  0  0  0  0  0  0  0  0
   27.5871   35.5413   21.6836 C   0  0  1  0  0  0  0  0  0  0  0  0
   27.5676   34.2168   21.4294 N   0  0  0  0  0  0  0  0  0  0  0  0
   27.3283   35.9934   22.9729 C   0  0  0  0  0  0  0  0  0  0  0  0
   27.3436   37.3524   23.2669 C   0  0  2  0  0  0  0  0  0  0  0  0
   27.0532   37.7729   24.6847 C   0  0  0  0  0  0  0  0  0  0  0  0
   27.6232   38.2788   22.2542 C   0  0  2  0  0  0  0  0  0  0  0  0
   27.6555   39.6288   22.4683 N   0  0  0  0  0  0  0  0  0  0  0  0
   27.8805   37.8086   20.9607 C   0  0  0  0  0  0  0  0  0  0  0  0
   27.8650   36.4468   20.6610 C   0  0  2  0  0  0  0  0  0  0  0  0
   28.1000   34.6710   19.1492 C   0  0  2  0  0  0  0  0  0  0  0  0
   28.1117   36.0042   19.4067 N   0  0  0  0  0  0  0  0  0  0  0  0
   28.8653   40.2475   22.9764 C   0  0  0  0  0  0  0  0  0  0  0  0
   26.5163   40.4917   22.2029 C   0  0  0  0  0  0  0  0  0  0  0  0
  1  2  1  0  0  0  0
  3  1  1  6  0  0  0
  3  4  1  0  0  0  0
  3  5  1  0  0  0  0
  5  6  1  6  0  0  0
  5  7  1  0  0  0  0
  7  8  1  1  0  0  0
  7  9  1  0  0  0  0
  9 27  1  0  0  0  0
 10 11  1  0  0  0  0
 11 12  2  0  0  0  0
 11 13  1  0  0  0  0
 13 14  1  0  0  0  0
 14 16  2  0  0  0  0
 15 14  1  1  0  0  0
 15 18  1  0  0  0  0
 15 26  1  0  0  0  0
 17 19  1  1  0  0  0
 17 25  1  0  0  0  0
 17 18  1  0  0  0  0
 19 20  1  0  0  0  0
 20 21  1  6  0  0  0
 20 22  1  0  0  0  0
 22 23  1  6  0  0  0
 22 24  1  0  0  0  0
 23 28  1  0  0  0  0
 23 29  1  0  0  0  0
 25 24  1  6  0  0  0
 25 27  1  0  0  0  0
 26 10  1  6  0  0  0
 26 27  1  0  0  0  0
M  END
>  <CHROM.1>
171.87882424,72.43801321,175.81009862,144.75125118,84.12044796,77.82458605
28.63878842,36.22131012,19.48486437,-0.76575982,1.08973636,0.40056655

>  <Name>
ligand

>  <RI>
0

>  <Rbt.Current_Directory>
/home/itssahil/PROJECTS/Mol_Feturizer/New_Systems/rnas/3F4H

>  <Rbt.Executable>
rbdock ($Id: //depot/dev/client3/rdock/2013.1/src/exe/rbdock.cxx#4 $)

>  <Rbt.Library>
libRbt.so (2013.1, Build901 2013/11/27)

>  <Rbt.Parameter_File>
/export/apps/rDock/src/rDock_2013.1_src/data/scripts/dock_solv.prm

>  <Rbt.Receptor>
prm/blind_docking_60.prm

>  <SCORE>
-44.3323

>  <SCORE.INTER>
-28.0334

>  <SCORE.INTER.CONST>
1

>  <SCORE.INTER.POLAR>
0

>  <SCORE.INTER.ROT>
6

>  <SCORE.INTER.SOLV>
11.5745

>  <SCORE.INTER.VDW>
-30.1471

>  <SCORE.INTER.norm>
-0.966668

>  <SCORE.INTRA>
-16.2989

>  <SCORE.INTRA.DIHEDRAL>
-0.623375

>  <SCORE.INTRA.DIHEDRAL.0>
6.83446

>  <SCORE.INTRA.POLAR>
0

>  <SCORE.INTRA.POLAR.0>
0

>  <SCORE.INTRA.REPUL>
0

>  <SCORE.INTRA.REPUL.0>
0

>  <SCORE.INTRA.SOLV>
0.0794702

>  <SCORE.INTRA.SOLV.lig_0>
-26.4601

>  <SCORE.INTRA.VDW>
-16.027

>  <SCORE.INTRA.VDW.0>
13.7853

>  <SCORE.INTRA.norm>
-0.562032

>  <SCORE.RESTR>
0

>  <SCORE.RESTR.CAVITY>
0

>  <SCORE.RESTR.norm>
0

>  <SCORE.SYSTEM>
0

>  <SCORE.SYSTEM.CONST>
0

>  <SCORE.SYSTEM.DIHEDRAL>
0

>  <SCORE.SYSTEM.SOLV>
0

>  <SCORE.SYSTEM.norm>
0

>  <SCORE.heavy>
29

>  <SCORE.norm>
-1.5287

>  <RMSD>
2.333

$$$$
ligand
 OpenBabel11021811473D
libRbt.so/2013.1/901 2013/11/27
 29 31  0  0  0  0  0  0  0  0999 V2000
   31.7074   36.7321   15.0913 C   0  0  0  0  0  0  0  0  0  0  0  0
   31.0817   37.6078   14.1476 O   0  0  0  0  0  0  0  0  0  0  0  0
   30.7477   36.4649   16.2427 C   0  0  1  0  0  0  0  0  0  0  0  0
   31.2971   35.4374   17.0616 O   0  0  0  0  0  0  0  0  0  0  0  0
   30.5266   37.7312   17.0601 C   0  0  1  0  0  0  0  0  0  0  0  0
   29.7390   38.6115   16.2668 O   0  0  0  0  0  0  0  0  0  0  0  0
   29.8603   37.5144   18.4220 C   0  0  1  0  0  0  0  0  0  0  0  0
   29.8342   38.7622   19.1162 O   0  0  0  0  0  0  0  0  0  0  0  0
   28.4272   36.9959   18.3225 C   0  0  0  0  0  0  0  0  0  0  0  0
   28.3445   34.2072   17.8895 N   0  0  0  0  0  0  0  0  0  0  0  0
   28.3173   32.8663   17.6460 C   0  0  0  0  0  0  0  0  0  0  0  0
   28.5176   32.4264   16.4864 O   0  0  0  0  0  0  0  0  0  0  0  0
   28.0680   31.9912   18.6530 N   0  0  0  0  0  0  0  0  0  0  0  0
   27.8423   32.4299   19.9169 C   0  0  0  0  0  0  0  0  0  0  0  0
   27.8683   33.7947   20.1804 C   0  0  1  0  0  0  0  0  0  0  0  0
   27.6100   31.6163   20.8451 O   0  0  0  0  0  0  0  0  0  0  0  0
   27.6773   35.5655   21.6914 C   0  0  1  0  0  0  0  0  0  0  0  0
   27.6500   34.2413   21.4363 N   0  0  0  0  0  0  0  0  0  0  0  0
   27.4509   36.0166   22.9870 C   0  0  0  0  0  0  0  0  0  0  0  0
   27.4750   37.3752   23.2820 C   0  0  2  0  0  0  0  0  0  0  0  0
   27.2202   37.7945   24.7071 C   0  0  0  0  0  0  0  0  0  0  0  0
   27.7307   38.3024   22.2638 C   0  0  2  0  0  0  0  0  0  0  0  0
   27.7699   39.6521   22.4784 N   0  0  0  0  0  0  0  0  0  0  0  0
   27.9555   37.8333   20.9638 C   0  0  0  0  0  0  0  0  0  0  0  0
   27.9309   36.4718   20.6631 C   0  0  2  0  0  0  0  0  0  0  0  0
   28.1265   34.6974   19.1441 C   0  0  2  0  0  0  0  0  0  0  0  0
   28.1462   36.0303   19.4027 N   0  0  0  0  0  0  0  0  0  0  0  0
   26.5915   40.4565   22.2160 C   0  0  0  0  0  0  0  0  0  0  0  0
   28.9563   40.3331   22.9699 C   0  0  0  0  0  0  0  0  0  0  0  0
  1  2  1  0  0  0  0
  3  1  1  6  0  0  0
  3  4  1  0  0  0  0
  3  5  1  0  0  0  0
  5  6  1  6  0  0  0
  5  7  1  0  0  0  0
  7  8  1  6  0  0  0
  7  9  1  0  0  0  0
  9 27  1  0  0  0  0
 10 11  1  0  0  0  0
 11 12  2  0  0  0  0
 11 13  1  0  0  0  0
 13 14  1  0  0  0  0
 14 16  2  0  0  0  0
 15 14  1  1  0  0  0
 15 18  1  0  0  0  0
 15 26  1  0  0  0  0
 17 19  1  1  0  0  0
 17 25  1  0  0  0  0
 17 18  1  0  0  0  0
 19 20  1  0  0  0  0
 20 21  1  6  0  0  0
 20 22  1  0  0  0  0
 22 23  1  6  0  0  0
 22 24  1  0  0  0  0
 23 28  1  0  0  0  0
 23 29  1  0  0  0  0
 25 24  1  6  0  0  0
 25 27  1  0  0  0  0
 26 10  1  6  0  0  0
 26 27  1  0  0  0  0
M  END
>  <CHROM.1>
171.08475267,71.41411645,174.68844476,143.02531509,-96.33403530,75.85002458
28.68734619,36.24332730,19.48387567,-0.79618412,1.09904021,0.41969978

>  <Name>
ligand

>  <RI>
0

>  <Rbt.Current_Directory>
/home/itssahil/PROJECTS/Mol_Feturizer/New_Systems/rnas/3F4H

>  <Rbt.Executable>
rbdock ($Id: //depot/dev/client3/rdock/2013.1/src/exe/rbdock.cxx#4 $)

>  <Rbt.Library>
libRbt.so (2013.1, Build901 2013/11/27)

>  <Rbt.Parameter_File>
/export/apps/rDock/src/rDock_2013.1_src/data/scripts/dock_solv.prm

>  <Rbt.Receptor>
prm/pocket_docking_8.prm

>  <SCORE>
-44.3103

>  <SCORE.INTER>
-28.1505

>  <SCORE.INTER.CONST>
1

>  <SCORE.INTER.POLAR>
0

>  <SCORE.INTER.ROT>
6

>  <SCORE.INTER.SOLV>
11.4863

>  <SCORE.INTER.VDW>
-30.1958

>  <SCORE.INTER.norm>
-0.970706

>  <SCORE.INTRA>
-16.1598

>  <SCORE.INTRA.DIHEDRAL>
-0.391682

>  <SCORE.INTRA.DIHEDRAL.0>
6.83446

>  <SCORE.INTRA.POLAR>
0

>  <SCORE.INTRA.POLAR.0>
0

>  <SCORE.INTRA.REPUL>
0

>  <SCORE.INTRA.REPUL.0>
0

>  <SCORE.INTRA.SOLV>
0.027631

>  <SCORE.INTRA.SOLV.lig_0>
-26.4601

>  <SCORE.INTRA.VDW>
-15.9778

>  <SCORE.INTRA.VDW.0>
13.7853

>  <SCORE.INTRA.norm>
-0.557236

>  <SCORE.RESTR>
0

>  <SCORE.RESTR.CAVITY>
0

>  <SCORE.RESTR.norm>
0

>  <SCORE.SYSTEM>
0

>  <SCORE.SYSTEM.CONST>
0

>  <SCORE.SYSTEM.DIHEDRAL>
0

>  <SCORE.SYSTEM.SOLV>
0

>  <SCORE.SYSTEM.norm>
0

>  <SCORE.heavy>
29

>  <SCORE.norm>
-1.52794

>  <RMSD>
2.334

$$$$
ligand
 OpenBabel11021811473D
libRbt.so/2013.1/901 2013/11/27
 29 31  0  0  0  0  0  0  0  0999 V2000
   31.0760   37.0723   14.5961 C   0  0  0  0  0  0  0  0  0  0  0  0
   32.4618   37.1258   14.9505 O   0  0  0  0  0  0  0  0  0  0  0  0
   30.2589   36.6785   15.8190 C   0  0  1  0  0  0  0  0  0  0  0  0
   30.7699   35.4509   16.3293 O   0  0  0  0  0  0  0  0  0  0  0  0
   30.3316   37.7651   16.8841 C   0  0  1  0  0  0  0  0  0  0  0  0
   29.5778   38.8733   16.4061 O   0  0  0  0  0  0  0  0  0  0  0  0
   29.8299   37.3480   18.2697 C   0  0  1  0  0  0  0  0  0  0  0  0
   29.9955   38.4511   19.1614 O   0  0  0  0  0  0  0  0  0  0  0  0
   28.3581   36.9403   18.2865 C   0  0  0  0  0  0  0  0  0  0  0  0
   28.3071   34.1527   17.8417 N   0  0  0  0  0  0  0  0  0  0  0  0
   28.2947   32.8126   17.5923 C   0  0  0  0  0  0  0  0  0  0  0  0
   28.4899   32.3804   16.4289 O   0  0  0  0  0  0  0  0  0  0  0  0
   28.0660   31.9299   18.5976 N   0  0  0  0  0  0  0  0  0  0  0  0
   27.8464   32.3601   19.8655 C   0  0  0  0  0  0  0  0  0  0  0  0
   27.8574   33.7239   20.1349 C   0  0  1  0  0  0  0  0  0  0  0  0
   27.6330   31.5395   20.7921 O   0  0  0  0  0  0  0  0  0  0  0  0
   27.6577   35.4855   21.6556 C   0  0  1  0  0  0  0  0  0  0  0  0
   27.6450   34.1622   21.3948 N   0  0  0  0  0  0  0  0  0  0  0  0
   27.4375   35.9278   22.9553 C   0  0  0  0  0  0  0  0  0  0  0  0
   27.4471   37.2854   23.2563 C   0  0  2  0  0  0  0  0  0  0  0  0
   27.2001   37.6950   24.6855 C   0  0  0  0  0  0  0  0  0  0  0  0
   27.6814   38.2203   22.2400 C   0  0  2  0  0  0  0  0  0  0  0  0
   27.7054   39.5693   22.4603 N   0  0  0  0  0  0  0  0  0  0  0  0
   27.9002   37.7599   20.9358 C   0  0  0  0  0  0  0  0  0  0  0  0
   27.8902   36.3995   20.6292 C   0  0  2  0  0  0  0  0  0  0  0  0
   28.0944   34.6345   19.1004 C   0  0  2  0  0  0  0  0  0  0  0  0
   28.0995   35.9664   19.3649 N   0  0  0  0  0  0  0  0  0  0  0  0
   28.9361   40.2060   22.8898 C   0  0  0  0  0  0  0  0  0  0  0  0
   26.5365   40.4139   22.2781 C   0  0  0  0  0  0  0  0  0  0  0  0
  1  2  1  0  0  0  0
  3  1  1  6  0  0  0
  3  4  1  0  0  0  0
  3  5  1  0  0  0  0
  5  6  1  6  0  0  0
  5  7  1  0  0  0  0
  7  8  1  1  0  0  0
  7  9  1  0  0  0  0
  9 27  1  0  0  0  0
 10 11  1  0  0  0  0
 11 12  2  0  0  0  0
 11 13  1  0  0  0  0
 13 14  1  0  0  0  0
 14 16  2  0  0  0  0
 15 14  1  1  0  0  0
 15 18  1  0  0  0  0
 15 26  1  0  0  0  0
 17 19  1  1  0  0  0
 17 25  1  0  0  0  0
 17 18  1  0  0  0  0
 19 20  1  0  0  0  0
 20 21  1  6  0  0  0
 20 22  1  0  0  0  0
 22 23  1  6  0  0  0
 22 24  1  0  0  0  0
 23 28  1  0  0  0  0
 23 29  1  0  0  0  0
 25 24  1  6  0  0  0
 25 27  1  0  0  0  0
 26 10  1  6  0  0  0
 26 27  1  0  0  0  0
M  END
>  <CHROM.1>
-55.33196141,71.02577383,178.36656806,151.97038393,86.07476695,82.76146243
28.65626325,36.18567086,19.42660633,-0.78155291,1.08983675,0.43027283

>  <Name>
ligand

>  <RI>
0

>  <Rbt.Current_Directory>
/home/itssahil/PROJECTS/Mol_Feturizer/New_Systems/rnas/3F4H

>  <Rbt.Executable>
rbdock ($Id: //depot/dev/client3/rdock/2013.1/src/exe/rbdock.cxx#4 $)

>  <Rbt.Library>
libRbt.so (2013.1, Build901 2013/11/27)

>  <Rbt.Parameter_File>
/export/apps/rDock/src/rDock_2013.1_src/data/scripts/dock_solv.prm

>  <Rbt.Receptor>
prm/blind_docking_100.prm

>  <SCORE>
-45.2423

>  <SCORE.INTER>
-28.2393

>  <SCORE.INTER.CONST>
1

>  <SCORE.INTER.POLAR>
0

>  <SCORE.INTER.ROT>
6

>  <SCORE.INTER.SOLV>
11.1871

>  <SCORE.INTER.VDW>
-30.1552

>  <SCORE.INTER.norm>
-0.973768

>  <SCORE.INTRA>
-17.0031

>  <SCORE.INTRA.DIHEDRAL>
-1.94841

>  <SCORE.INTRA.DIHEDRAL.0>
6.83446

>  <SCORE.INTRA.POLAR>
0

>  <SCORE.INTRA.POLAR.0>
0

>  <SCORE.INTRA.REPUL>
0

>  <SCORE.INTRA.REPUL.0>
0

>  <SCORE.INTRA.SOLV>
0.116667

>  <SCORE.INTRA.SOLV.lig_0>
-26.4601

>  <SCORE.INTRA.VDW>
-16.0872

>  <SCORE.INTRA.VDW.0>
13.7853

>  <SCORE.INTRA.norm>
-0.586312

>  <SCORE.RESTR>
0

>  <SCORE.RESTR.CAVITY>
0

>  <SCORE.RESTR.norm>
0

>  <SCORE.SYSTEM>
0

>  <SCORE.SYSTEM.CONST>
0

>  <SCORE.SYSTEM.DIHEDRAL>
0

>  <SCORE.SYSTEM.SOLV>
0

>  <SCORE.SYSTEM.norm>
0

>  <SCORE.heavy>
29

>  <SCORE.norm>
-1.56008

>  <RMSD>
2.337

$$$$
ligand
 OpenBabel11021811473D
libRbt.so/2013.1/901 2013/11/27
 29 31  0  0  0  0  0  0  0  0999 V2000
   31.1711   37.1210   14.4818 C   0  0  0  0  0  0  0  0  0  0  0  0
   32.5190   36.9788   14.0214 O   0  0  0  0  0  0  0  0  0  0  0  0
   31.1299   36.9123   15.9894 C   0  0  1  0  0  0  0  0  0  0  0  0
   31.9561   37.8952   16.6057 O   0  0  0  0  0  0  0  0  0  0  0  0
   29.7012   37.0227   16.5063 C   0  0  1  0  0  0  0  0  0  0  0  0
   28.9279   36.0479   15.8160 O   0  0  0  0  0  0  0  0  0  0  0  0
   29.5443   36.8417   18.0190 C   0  0  1  0  0  0  0  0  0  0  0  0
   30.2268   37.9108   18.6754 O   0  0  0  0  0  0  0  0  0  0  0  0
   28.0898   36.8494   18.4850 C   0  0  0  0  0  0  0  0  0  0  0  0
   28.0139   34.0678   18.0076 N   0  0  0  0  0  0  0  0  0  0  0  0
   27.9879   32.7310   17.7420 C   0  0  0  0  0  0  0  0  0  0  0  0
   28.1259   32.3137   16.5651 O   0  0  0  0  0  0  0  0  0  0  0  0
   27.8070   31.8357   18.7458 N   0  0  0  0  0  0  0  0  0  0  0  0
   27.6495   32.2497   20.0282 C   0  0  0  0  0  0  0  0  0  0  0  0
   27.6752   33.6100   20.3142 C   0  0  1  0  0  0  0  0  0  0  0  0
   27.4803   31.4175   20.9535 O   0  0  0  0  0  0  0  0  0  0  0  0
   27.5516   35.3520   21.8652 C   0  0  1  0  0  0  0  0  0  0  0  0
   27.5246   34.0322   21.5884 N   0  0  0  0  0  0  0  0  0  0  0  0
   27.3951   35.7778   23.1796 C   0  0  0  0  0  0  0  0  0  0  0  0
   27.4209   37.1314   23.4970 C   0  0  2  0  0  0  0  0  0  0  0  0
   27.2439   37.5229   24.9416 C   0  0  0  0  0  0  0  0  0  0  0  0
   27.6069   38.0791   22.4825 C   0  0  2  0  0  0  0  0  0  0  0  0
   27.6432   39.4252   22.7187 N   0  0  0  0  0  0  0  0  0  0  0  0
   27.7617   37.6353   21.1636 C   0  0  0  0  0  0  0  0  0  0  0  0
   27.7353   36.2790   20.8405 C   0  0  2  0  0  0  0  0  0  0  0  0
   27.8630   34.5336   19.2812 C   0  0  2  0  0  0  0  0  0  0  0  0
   27.8825   35.8619   19.5621 N   0  0  0  0  0  0  0  0  0  0  0  0
   26.4866   40.2421   22.4031 C   0  0  0  0  0  0  0  0  0  0  0  0
   28.8049   40.0903   23.2852 C   0  0  0  0  0  0  0  0  0  0  0  0
  1  2  1  0  0  0  0
  3  1  1  6  0  0  0
  3  4  1  0  0  0  0
  3  5  1  0  0  0  0
  5  6  1  6  0  0  0
  5  7  1  0  0  0  0
  7  8  1  1  0  0  0
  7  9  1  0  0  0  0
  9 27  1  0  0  0  0
 10 11  1  0  0  0  0
 11 12  2  0  0  0  0
 11 13  1  0  0  0  0
 13 14  1  0  0  0  0
 14 16  2  0  0  0  0
 15 14  1  1  0  0  0
 15 18  1  0  0  0  0
 15 26  1  0  0  0  0
 17 19  1  1  0  0  0
 17 25  1  0  0  0  0
 17 18  1  0  0  0  0
 19 20  1  0  0  0  0
 20 21  1  6  0  0  0
 20 22  1  0  0  0  0
 22 23  1  6  0  0  0
 22 24  1  0  0  0  0
 23 28  1  0  0  0  0
 23 29  1  0  0  0  0
 25 24  1  6  0  0  0
 25 27  1  0  0  0  0
 26 10  1  6  0  0  0
 26 27  1  0  0  0  0
M  END
>  <CHROM.1>
60.27818233,57.87815454,64.37624189,141.71804875,-102.91015165,105.55631787
28.57840722,36.02646258,19.48145792,-0.72504757,1.05535007,0.55832136

>  <Name>
ligand

>  <RI>
0

>  <Rbt.Current_Directory>
/home/itssahil/PROJECTS/Mol_Feturizer/New_Systems/rnas/3F4H

>  <Rbt.Executable>
rbdock ($Id: //depot/dev/client3/rdock/2013.1/src/exe/rbdock.cxx#4 $)

>  <Rbt.Library>
libRbt.so (2013.1, Build901 2013/11/27)

>  <Rbt.Parameter_File>
/export/apps/rDock/src/rDock_2013.1_src/data/scripts/dock_solv.prm

>  <Rbt.Receptor>
prm/pocket_docking_7.prm

>  <SCORE>
-44.6917

>  <SCORE.INTER>
-28.4303

>  <SCORE.INTER.CONST>
1

>  <SCORE.INTER.POLAR>
0

>  <SCORE.INTER.ROT>
6

>  <SCORE.INTER.SOLV>
12.014

>  <SCORE.INTER.VDW>
-30.5582

>  <SCORE.INTER.norm>
-0.980355

>  <SCORE.INTRA>
-16.2614

>  <SCORE.INTRA.DIHEDRAL>
-0.999809

>  <SCORE.INTRA.DIHEDRAL.0>
6.83446

>  <SCORE.INTRA.POLAR>
0

>  <SCORE.INTRA.POLAR.0>
0

>  <SCORE.INTRA.REPUL>
0

>  <SCORE.INTRA.REPUL.0>
0

>  <SCORE.INTRA.SOLV>
-0.29295

>  <SCORE.INTRA.SOLV.lig_0>
-26.4601

>  <SCORE.INTRA.VDW>
-15.615

>  <SCORE.INTRA.VDW.0>
13.7853

>  <SCORE.INTRA.norm>
-0.560739

>  <SCORE.RESTR>
0

>  <SCORE.RESTR.CAVITY>
0

>  <SCORE.RESTR.norm>
0

>  <SCORE.SYSTEM>
0

>  <SCORE.SYSTEM.CONST>
0

>  <SCORE.SYSTEM.DIHEDRAL>
0

>  <SCORE.SYSTEM.SOLV>
0

>  <SCORE.SYSTEM.norm>
0

>  <SCORE.heavy>
29

>  <SCORE.norm>
-1.54109

>  <RMSD>
2.343

$$$$
ligand
 OpenBabel11021811473D
libRbt.so/2013.1/901 2013/11/27
 29 31  0  0  0  0  0  0  0  0999 V2000
   32.1084   37.0407   16.9547 C   0  0  0  0  0  0  0  0  0  0  0  0
   32.4914   36.2707   15.8105 O   0  0  0  0  0  0  0  0  0  0  0  0
   30.9963   38.0041   16.5634 C   0  0  1  0  0  0  0  0  0  0  0  0
   29.8661   37.2455   16.1442 O   0  0  0  0  0  0  0  0  0  0  0  0
   30.6257   38.8998   17.7385 C   0  0  1  0  0  0  0  0  0  0  0  0
   29.7241   39.8853   17.2480 O   0  0  0  0  0  0  0  0  0  0  0  0
   30.0075   38.1731   18.9365 C   0  0  1  0  0  0  0  0  0  0  0  0
   30.0198   39.0580   20.0575 O   0  0  0  0  0  0  0  0  0  0  0  0
   28.5663   37.7263   18.6996 C   0  0  0  0  0  0  0  0  0  0  0  0
   28.5817   35.0332   17.8522 N   0  0  0  0  0  0  0  0  0  0  0  0
   28.6045   33.7437   17.4110 C   0  0  0  0  0  0  0  0  0  0  0  0
   28.9140   33.4839   16.2214 O   0  0  0  0  0  0  0  0  0  0  0  0
   28.2879   32.7257   18.2508 N   0  0  0  0  0  0  0  0  0  0  0  0
   27.9441   32.9684   19.5407 C   0  0  0  0  0  0  0  0  0  0  0  0
   27.9177   34.2785   20.0050 C   0  0  1  0  0  0  0  0  0  0  0  0
   27.6497   32.0231   20.3136 O   0  0  0  0  0  0  0  0  0  0  0  0
   27.5583   35.8016   21.7389 C   0  0  1  0  0  0  0  0  0  0  0  0
   27.5818   34.5303   21.2888 N   0  0  0  0  0  0  0  0  0  0  0  0
   27.2108   36.0517   23.0618 C   0  0  0  0  0  0  0  0  0  0  0  0
   27.1800   37.3511   23.5561 C   0  0  2  0  0  0  0  0  0  0  0  0
   26.7937   37.5502   24.9991 C   0  0  0  0  0  0  0  0  0  0  0  0
   27.5029   38.4224   22.7134 C   0  0  2  0  0  0  0  0  0  0  0  0
   27.4943   39.7250   23.1285 N   0  0  0  0  0  0  0  0  0  0  0  0
   27.8496   38.1550   21.3834 C   0  0  0  0  0  0  0  0  0  0  0  0
   27.8805   36.8537   20.8832 C   0  0  2  0  0  0  0  0  0  0  0  0
   28.2452   35.3283   19.1412 C   0  0  2  0  0  0  0  0  0  0  0  0
   28.2137   36.6076   19.5954 N   0  0  0  0  0  0  0  0  0  0  0  0
   26.3930   40.5918   22.7539 C   0  0  0  0  0  0  0  0  0  0  0  0
   28.5531   40.2939   23.9458 C   0  0  0  0  0  0  0  0  0  0  0  0
  1  2  1  0  0  0  0
  3  1  1  1  0  0  0
  3  4  1  0  0  0  0
  3  5  1  0  0  0  0
  5  6  1  6  0  0  0
  5  7  1  0  0  0  0
  7  8  1  1  0  0  0
  7  9  1  0  0  0  0
  9 27  1  0  0  0  0
 10 11  1  0  0  0  0
 11 12  2  0  0  0  0
 11 13  1  0  0  0  0
 13 14  1  0  0  0  0
 14 16  2  0  0  0  0
 15 14  1  1  0  0  0
 15 18  1  0  0  0  0
 15 26  1  0  0  0  0
 17 19  1  1  0  0  0
 17 25  1  0  0  0  0
 17 18  1  0  0  0  0
 19 20  1  0  0  0  0
 20 21  1  6  0  0  0
 20 22  1  0  0  0  0
 22 23  1  6  0  0  0
 22 24  1  0  0  0  0
 23 28  1  0  0  0  0
 23 29  1  0  0  0  0
 25 24  1  6  0  0  0
 25 27  1  0  0  0  0
 26 10  1  6  0  0  0
 26 27  1  0  0  0  0
M  END
>  <CHROM.1>
62.39702024,172.06577959,165.93459224,157.04688655,-103.28504398,79.73193157
28.69910014,36.72158373,19.78553978,-0.83603469,1.01547846,0.46801697

>  <Name>
ligand

>  <RI>
0

>  <Rbt.Current_Directory>
/home/itssahil/PROJECTS/Mol_Feturizer/New_Systems/rnas/3F4H

>  <Rbt.Executable>
rbdock ($Id: //depot/dev/client3/rdock/2013.1/src/exe/rbdock.cxx#4 $)

>  <Rbt.Library>
libRbt.so (2013.1, Build901 2013/11/27)

>  <Rbt.Parameter_File>
/export/apps/rDock/src/rDock_2013.1_src/data/scripts/dock_solv.prm

>  <Rbt.Receptor>
prm/pocket_docking_5.prm

>  <SCORE>
-44.0492

>  <SCORE.INTER>
-27.4194

>  <SCORE.INTER.CONST>
1

>  <SCORE.INTER.POLAR>
0

>  <SCORE.INTER.ROT>
6

>  <SCORE.INTER.SOLV>
9.76201

>  <SCORE.INTER.VDW>
-29.1336

>  <SCORE.INTER.norm>
-0.945497

>  <SCORE.INTRA>
-16.6298

>  <SCORE.INTRA.DIHEDRAL>
-2.19918

>  <SCORE.INTRA.DIHEDRAL.0>
6.83446

>  <SCORE.INTRA.POLAR>
0

>  <SCORE.INTRA.POLAR.0>
0

>  <SCORE.INTRA.REPUL>
0

>  <SCORE.INTRA.REPUL.0>
0

>  <SCORE.INTRA.SOLV>
0.0407077

>  <SCORE.INTRA.SOLV.lig_0>
-26.4601

>  <SCORE.INTRA.VDW>
-15.5506

>  <SCORE.INTRA.VDW.0>
13.7853

>  <SCORE.INTRA.norm>
-0.573443

>  <SCORE.RESTR>
0

>  <SCORE.RESTR.CAVITY>
0

>  <SCORE.RESTR.norm>
0

>  <SCORE.SYSTEM>
0

>  <SCORE.SYSTEM.CONST>
0

>  <SCORE.SYSTEM.DIHEDRAL>
0

>  <SCORE.SYSTEM.SOLV>
0

>  <SCORE.SYSTEM.norm>
0

>  <SCORE.heavy>
29

>  <SCORE.norm>
-1.51894

>  <RMSD>
2.350

$$$$
ligand
 OpenBabel11021811473D
libRbt.so/2013.1/901 2013/11/27
 29 31  0  0  0  0  0  0  0  0999 V2000
   31.4610   37.0506   15.0829 C   0  0  0  0  0  0  0  0  0  0  0  0
   31.5490   35.6228   15.1351 O   0  0  0  0  0  0  0  0  0  0  0  0
   30.3469   37.5200   16.0084 C   0  0  1  0  0  0  0  0  0  0  0  0
   29.1327   36.8900   15.6119 O   0  0  0  0  0  0  0  0  0  0  0  0
   30.6730   37.1761   17.4561 C   0  0  1  0  0  0  0  0  0  0  0  0
   31.9391   37.7548   17.7508 O   0  0  0  0  0  0  0  0  0  0  0  0
   29.6335   37.6386   18.4813 C   0  0  1  0  0  0  0  0  0  0  0  0
   29.4463   39.0465   18.3317 O   0  0  0  0  0  0  0  0  0  0  0  0
   28.2753   36.9589   18.3196 C   0  0  0  0  0  0  0  0  0  0  0  0
   28.2229   34.1783   17.8336 N   0  0  0  0  0  0  0  0  0  0  0  0
   28.2087   32.8421   17.5641 C   0  0  0  0  0  0  0  0  0  0  0  0
   28.3665   32.4289   16.3882 O   0  0  0  0  0  0  0  0  0  0  0  0
   28.0184   31.9429   18.5627 N   0  0  0  0  0  0  0  0  0  0  0  0
   27.8396   32.3524   19.8438 C   0  0  0  0  0  0  0  0  0  0  0  0
   27.8531   33.7120   20.1337 C   0  0  1  0  0  0  0  0  0  0  0  0
   27.6617   31.5166   20.7642 O   0  0  0  0  0  0  0  0  0  0  0  0
   27.6963   35.4490   21.6874 C   0  0  1  0  0  0  0  0  0  0  0  0
   27.6812   34.1298   21.4067 N   0  0  0  0  0  0  0  0  0  0  0  0
   27.5180   35.8702   23.0006 C   0  0  0  0  0  0  0  0  0  0  0  0
   27.5311   37.2230   23.3220 C   0  0  2  0  0  0  0  0  0  0  0  0
   27.3305   37.6094   24.7649 C   0  0  0  0  0  0  0  0  0  0  0  0
   27.7263   38.1746   22.3129 C   0  0  2  0  0  0  0  0  0  0  0  0
   27.7511   39.5202   22.5532 N   0  0  0  0  0  0  0  0  0  0  0  0
   27.9031   37.7354   20.9952 C   0  0  0  0  0  0  0  0  0  0  0  0
   27.8895   36.3799   20.6681 C   0  0  2  0  0  0  0  0  0  0  0  0
   28.0505   34.6396   19.1061 C   0  0  2  0  0  0  0  0  0  0  0  0
   28.0580   35.9673   19.3908 N   0  0  0  0  0  0  0  0  0  0  0  0
   26.5739   40.3218   22.2774 C   0  0  0  0  0  0  0  0  0  0  0  0
   28.9207   40.1996   23.0856 C   0  0  0  0  0  0  0  0  0  0  0  0
  1  2  1  0  0  0  0
  3  1  1  6  0  0  0
  3  4  1  0  0  0  0
  3  5  1  0  0  0  0
  5  6  1  1  0  0  0
  5  7  1  0  0  0  0
  7  8  1  6  0  0  0
  7  9  1  0  0  0  0
  9 27  1  0  0  0  0
 10 11  1  0  0  0  0
 11 12  2  0  0  0  0
 11 13  1  0  0  0  0
 13 14  1  0  0  0  0
 14 16  2  0  0  0  0
 15 14  1  1  0  0  0
 15 18  1  0  0  0  0
 15 26  1  0  0  0  0
 17 19  1  1  0  0  0
 17 25  1  0  0  0  0
 17 18  1  0  0  0  0
 19 20  1  0  0  0  0
 20 21  1  6  0  0  0
 20 22  1  0  0  0  0
 22 23  1  6  0  0  0
 22 24  1  0  0  0  0
 23 28  1  0  0  0  0
 23 29  1  0  0  0  0
 25 24  1  6  0  0  0
 25 27  1  0  0  0  0
 26 10  1  6  0  0  0
 26 27  1  0  0  0  0
M  END
>  <CHROM.1>
-57.27156517,55.73374010,-55.73942641,106.39393097,-100.22457715,68.21406471
28.64691278,36.16536351,19.49478316,-0.91743642,1.08292625,0.49845184

>  <Name>
ligand

>  <RI>
0

>  <Rbt.Current_Directory>
/home/itssahil/PROJECTS/Mol_Feturizer/New_Systems/rnas/3F4H

>  <Rbt.Executable>
rbdock ($Id: //depot/dev/client3/rdock/2013.1/src/exe/rbdock.cxx#4 $)

>  <Rbt.Library>
libRbt.so (2013.1, Build901 2013/11/27)

>  <Rbt.Parameter_File>
/export/apps/rDock/src/rDock_2013.1_src/data/scripts/dock_solv.prm

>  <Rbt.Receptor>
prm/pocket_docking_8.prm

>  <SCORE>
-43.4172

>  <SCORE.INTER>
-28.26

>  <SCORE.INTER.CONST>
1

>  <SCORE.INTER.POLAR>
0

>  <SCORE.INTER.ROT>
6

>  <SCORE.INTER.SOLV>
9.49196

>  <SCORE.INTER.VDW>
-29.604

>  <SCORE.INTER.norm>
-0.974482

>  <SCORE.INTRA>
-15.1573

>  <SCORE.INTRA.DIHEDRAL>
-0.0350832

>  <SCORE.INTRA.DIHEDRAL.0>
6.83446

>  <SCORE.INTRA.POLAR>
0

>  <SCORE.INTRA.POLAR.0>
0

>  <SCORE.INTRA.REPUL>
0

>  <SCORE.INTRA.REPUL.0>
0

>  <SCORE.INTRA.SOLV>
0.0376918

>  <SCORE.INTRA.SOLV.lig_0>
-26.4601

>  <SCORE.INTRA.VDW>
-15.1586

>  <SCORE.INTRA.VDW.0>
13.7853

>  <SCORE.INTRA.norm>
-0.522665

>  <SCORE.RESTR>
0

>  <SCORE.RESTR.CAVITY>
0

>  <SCORE.RESTR.norm>
0

>  <SCORE.SYSTEM>
0

>  <SCORE.SYSTEM.CONST>
0

>  <SCORE.SYSTEM.DIHEDRAL>
0

>  <SCORE.SYSTEM.SOLV>
0

>  <SCORE.SYSTEM.norm>
0

>  <SCORE.heavy>
29

>  <SCORE.norm>
-1.49715

>  <RMSD>
2.360

$$$$
ligand
 OpenBabel11021811473D
libRbt.so/2013.1/901 2013/11/27
 29 31  0  0  0  0  0  0  0  0999 V2000
   31.2130   37.0802   14.5295 C   0  0  0  0  0  0  0  0  0  0  0  0
   32.5357   36.7952   14.0626 O   0  0  0  0  0  0  0  0  0  0  0  0
   31.1539   36.8653   16.0356 C   0  0  1  0  0  0  0  0  0  0  0  0
   32.0099   37.8151   16.6628 O   0  0  0  0  0  0  0  0  0  0  0  0
   29.7265   37.0233   16.5434 C   0  0  1  0  0  0  0  0  0  0  0  0
   28.9347   36.0417   15.8844 O   0  0  0  0  0  0  0  0  0  0  0  0
   29.5616   36.8980   18.0608 C   0  0  1  0  0  0  0  0  0  0  0  0
   30.2028   38.0143   18.6790 O   0  0  0  0  0  0  0  0  0  0  0  0
   28.1034   36.8764   18.5147 C   0  0  0  0  0  0  0  0  0  0  0  0
   28.0327   34.0936   18.0433 N   0  0  0  0  0  0  0  0  0  0  0  0
   28.0088   32.7562   17.7806 C   0  0  0  0  0  0  0  0  0  0  0  0
   28.1383   32.3370   16.6034 O   0  0  0  0  0  0  0  0  0  0  0  0
   27.8395   31.8623   18.7876 N   0  0  0  0  0  0  0  0  0  0  0  0
   27.6915   32.2783   20.0706 C   0  0  0  0  0  0  0  0  0  0  0  0
   27.7152   33.6392   20.3536 C   0  0  1  0  0  0  0  0  0  0  0  0
   27.5329   31.4474   20.9989 O   0  0  0  0  0  0  0  0  0  0  0  0
   27.5989   35.3839   21.9022 C   0  0  1  0  0  0  0  0  0  0  0  0
   27.5739   34.0635   21.6282 N   0  0  0  0  0  0  0  0  0  0  0  0
   27.4522   35.8118   23.2171 C   0  0  0  0  0  0  0  0  0  0  0  0
   27.4761   37.1661   23.5316 C   0  0  2  0  0  0  0  0  0  0  0  0
   27.3101   37.5598   24.9769 C   0  0  0  0  0  0  0  0  0  0  0  0
   27.6504   38.1124   22.5138 C   0  0  2  0  0  0  0  0  0  0  0  0
   27.6842   39.4591   22.7470 N   0  0  0  0  0  0  0  0  0  0  0  0
   27.7954   37.6665   21.1944 C   0  0  0  0  0  0  0  0  0  0  0  0
   27.7708   36.3095   20.8742 C   0  0  2  0  0  0  0  0  0  0  0  0
   27.8911   34.5614   19.3173 C   0  0  2  0  0  0  0  0  0  0  0  0
   27.9086   35.8904   19.5954 N   0  0  0  0  0  0  0  0  0  0  0  0
   26.4804   40.2495   22.5722 C   0  0  0  0  0  0  0  0  0  0  0  0
   28.8896   40.1504   23.1736 C   0  0  0  0  0  0  0  0  0  0  0  0
  1  2  1  0  0  0  0
  3  1  1  6  0  0  0
  3  4  1  0  0  0  0
  3  5  1  0  0  0  0
  5  6  1  6  0  0  0
  5  7  1  0  0  0  0
  7  8  1  1  0  0  0
  7  9  1  0  0  0  0
  9 27  1  0  0  0  0
 10 11  1  0  0  0  0
 11 12  2  0  0  0  0
 11 13  1  0  0  0  0
 13 14  1  0  0  0  0
 14 16  2  0  0  0  0
 15 14  1  1  0  0  0
 15 18  1  0  0  0  0
 15 26  1  0  0  0  0
 17 19  1  1  0  0  0
 17 25  1  0  0  0  0
 17 18  1  0  0  0  0
 19 20  1  0  0  0  0
 20 21  1  6  0  0  0
 20 22  1  0  0  0  0
 22 23  1  6  0  0  0
 22 24  1  0  0  0  0
 23 28  1  0  0  0  0
 23 29  1  0  0  0  0
 25 24  1  6  0  0  0
 25 27  1  0  0  0  0
 26 10  1  6  0  0  0
 26 27  1  0  0  0  0
M  END
>  <CHROM.1>
64.57832806,60.31331593,67.48969998,139.62836912,-96.50561123,104.10915778
28.61081529,36.04007074,19.51916725,-0.74449320,1.05384541,0.55513695

>  <Name>
ligand

>  <RI>
0

>  <Rbt.Current_Directory>
/home/itssahil/PROJECTS/Mol_Feturizer/New_Systems/rnas/3F4H

>  <Rbt.Executable>
rbdock ($Id: //depot/dev/client3/rdock/2013.1/src/exe/rbdock.cxx#4 $)

>  <Rbt.Library>
libRbt.so (2013.1, Build901 2013/11/27)

>  <Rbt.Parameter_File>
/export/apps/rDock/src/rDock_2013.1_src/data/scripts/dock_solv.prm

>  <Rbt.Receptor>
prm/pocket_docking_8.prm

>  <SCORE>
-44.6564

>  <SCORE.INTER>
-28.3744

>  <SCORE.INTER.CONST>
1

>  <SCORE.INTER.POLAR>
0

>  <SCORE.INTER.ROT>
6

>  <SCORE.INTER.SOLV>
11.8391

>  <SCORE.INTER.VDW>
-30.4626

>  <SCORE.INTER.norm>
-0.978427

>  <SCORE.INTRA>
-16.2821

>  <SCORE.INTRA.DIHEDRAL>
-0.556672

>  <SCORE.INTRA.DIHEDRAL.0>
6.83446

>  <SCORE.INTRA.POLAR>
0

>  <SCORE.INTRA.POLAR.0>
0

>  <SCORE.INTRA.REPUL>
0

>  <SCORE.INTRA.REPUL.0>
0

>  <SCORE.INTRA.SOLV>
-0.282223

>  <SCORE.INTRA.SOLV.lig_0>
-26.4601

>  <SCORE.INTRA.VDW>
-15.8626

>  <SCORE.INTRA.VDW.0>
13.7853

>  <SCORE.INTRA.norm>
-0.56145

>  <SCORE.RESTR>
0

>  <SCORE.RESTR.CAVITY>
0

>  <SCORE.RESTR.norm>
0

>  <SCORE.SYSTEM>
0

>  <SCORE.SYSTEM.CONST>
0

>  <SCORE.SYSTEM.DIHEDRAL>
0

>  <SCORE.SYSTEM.SOLV>
0

>  <SCORE.SYSTEM.norm>
0

>  <SCORE.heavy>
29

>  <SCORE.norm>
-1.53988

>  <RMSD>
2.367

$$$$
ligand
 OpenBabel11021811473D
libRbt.so/2013.1/901 2013/11/27
 29 31  0  0  0  0  0  0  0  0999 V2000
   32.5183   36.6275   15.8121 C   0  0  0  0  0  0  0  0  0  0  0  0
   31.8619   37.1509   14.6527 O   0  0  0  0  0  0  0  0  0  0  0  0
   31.8617   37.1973   17.0620 C   0  0  1  0  0  0  0  0  0  0  0  0
   31.9551   38.6177   17.0156 O   0  0  0  0  0  0  0  0  0  0  0  0
   30.4033   36.7656   17.1449 C   0  0  1  0  0  0  0  0  0  0  0  0
   30.3906   35.3473   17.2596 O   0  0  0  0  0  0  0  0  0  0  0  0
   29.6071   37.3919   18.2936 C   0  0  1  0  0  0  0  0  0  0  0  0
   29.6107   38.8101   18.1256 O   0  0  0  0  0  0  0  0  0  0  0  0
   28.1543   36.9241   18.3528 C   0  0  0  0  0  0  0  0  0  0  0  0
   28.1177   34.1399   17.8858 N   0  0  0  0  0  0  0  0  0  0  0  0
   28.1102   32.8020   17.6253 C   0  0  0  0  0  0  0  0  0  0  0  0
   28.2478   32.3824   16.4490 O   0  0  0  0  0  0  0  0  0  0  0  0
   27.9487   31.9077   18.6333 N   0  0  0  0  0  0  0  0  0  0  0  0
   27.7925   32.3240   19.9151 C   0  0  0  0  0  0  0  0  0  0  0  0
   27.7993   33.6855   20.1960 C   0  0  1  0  0  0  0  0  0  0  0  0
   27.6412   31.4927   20.8444 O   0  0  0  0  0  0  0  0  0  0  0  0
   27.6584   35.4312   21.7414 C   0  0  1  0  0  0  0  0  0  0  0  0
   27.6497   34.1101   21.4696 N   0  0  0  0  0  0  0  0  0  0  0  0
   27.5031   35.8594   23.0552 C   0  0  0  0  0  0  0  0  0  0  0  0
   27.5103   37.2144   23.3676 C   0  0  2  0  0  0  0  0  0  0  0  0
   27.3358   37.6085   24.8118 C   0  0  0  0  0  0  0  0  0  0  0  0
   27.6761   38.1611   22.3487 C   0  0  2  0  0  0  0  0  0  0  0  0
   27.6934   39.5084   22.5798 N   0  0  0  0  0  0  0  0  0  0  0  0
   27.8299   37.7148   21.0305 C   0  0  0  0  0  0  0  0  0  0  0  0
   27.8221   36.3571   20.7124 C   0  0  2  0  0  0  0  0  0  0  0  0
   27.9672   34.6080   19.1586 C   0  0  2  0  0  0  0  0  0  0  0  0
   27.9682   35.9376   19.4346 N   0  0  0  0  0  0  0  0  0  0  0  0
   28.9420   40.1635   22.9210 C   0  0  0  0  0  0  0  0  0  0  0  0
   26.4996   40.3334   22.4949 C   0  0  0  0  0  0  0  0  0  0  0  0
  1  2  1  0  0  0  0
  3  1  1  6  0  0  0
  3  4  1  0  0  0  0
  3  5  1  0  0  0  0
  5  6  1  1  0  0  0
  5  7  1  0  0  0  0
  7  8  1  6  0  0  0
  7  9  1  0  0  0  0
  9 27  1  0  0  0  0
 10 11  1  0  0  0  0
 11 12  2  0  0  0  0
 11 13  1  0  0  0  0
 13 14  1  0  0  0  0
 14 16  2  0  0  0  0
 15 14  1  1  0  0  0
 15 18  1  0  0  0  0
 15 26  1  0  0  0  0
 17 19  1  1  0  0  0
 17 25  1  0  0  0  0
 17 18  1  0  0  0  0
 19 20  1  0  0  0  0
 20 21  1  6  0  0  0
 20 22  1  0  0  0  0
 22 23  1  6  0  0  0
 22 24  1  0  0  0  0
 23 28  1  0  0  0  0
 23 29  1  0  0  0  0
 25 24  1  6  0  0  0
 25 27  1  0  0  0  0
 26 10  1  6  0  0  0
 26 27  1  0  0  0  0
M  END
>  <CHROM.1>
-58.59882262,62.94426904,60.44080876,103.56807761,87.32532384,80.65529904
28.75371347,36.12662236,19.58278116,-0.82018680,0.98206787,0.50136048

>  <Name>
ligand

>  <RI>
0

>  <Rbt.Current_Directory>
/home/itssahil/PROJECTS/Mol_Feturizer/New_Systems/rnas/3F4H

>  <Rbt.Executable>
rbdock ($Id: //depot/dev/client3/rdock/2013.1/src/exe/rbdock.cxx#4 $)

>  <Rbt.Library>
libRbt.so (2013.1, Build901 2013/11/27)

>  <Rbt.Parameter_File>
/export/apps/rDock/src/rDock_2013.1_src/data/scripts/dock_solv.prm

>  <Rbt.Receptor>
prm/pocket_docking_5.prm

>  <SCORE>
-45.7547

>  <SCORE.INTER>
-29.7757

>  <SCORE.INTER.CONST>
1

>  <SCORE.INTER.POLAR>
0

>  <SCORE.INTER.ROT>
6

>  <SCORE.INTER.SOLV>
12.1666

>  <SCORE.INTER.VDW>
-31.506

>  <SCORE.INTER.norm>
-1.02675

>  <SCORE.INTRA>
-15.979

>  <SCORE.INTRA.DIHEDRAL>
-0.443471

>  <SCORE.INTRA.DIHEDRAL.0>
6.83446

>  <SCORE.INTRA.POLAR>
0

>  <SCORE.INTRA.POLAR.0>
0

>  <SCORE.INTRA.REPUL>
0

>  <SCORE.INTRA.REPUL.0>
0

>  <SCORE.INTRA.SOLV>
0.287221

>  <SCORE.INTRA.SOLV.lig_0>
-26.4601

>  <SCORE.INTRA.VDW>
-15.9008

>  <SCORE.INTRA.VDW.0>
13.7853

>  <SCORE.INTRA.norm>
-0.550999

>  <SCORE.RESTR>
0

>  <SCORE.RESTR.CAVITY>
0

>  <SCORE.RESTR.norm>
0

>  <SCORE.SYSTEM>
0

>  <SCORE.SYSTEM.CONST>
0

>  <SCORE.SYSTEM.DIHEDRAL>
0

>  <SCORE.SYSTEM.SOLV>
0

>  <SCORE.SYSTEM.norm>
0

>  <SCORE.heavy>
29

>  <SCORE.norm>
-1.57775

>  <RMSD>
2.381

$$$$
ligand
 OpenBabel11021811473D
libRbt.so/2013.1/901 2013/11/27
 29 31  0  0  0  0  0  0  0  0999 V2000
   31.6239   36.2930   16.0887 C   0  0  0  0  0  0  0  0  0  0  0  0
   31.8857   35.5047   14.9231 O   0  0  0  0  0  0  0  0  0  0  0  0
   30.4671   37.2415   15.8052 C   0  0  1  0  0  0  0  0  0  0  0  0
   29.2942   36.4684   15.5708 O   0  0  0  0  0  0  0  0  0  0  0  0
   30.2508   38.1880   16.9789 C   0  0  1  0  0  0  0  0  0  0  0  0
   29.2810   39.1467   16.5726 O   0  0  0  0  0  0  0  0  0  0  0  0
   29.8087   37.5140   18.2811 C   0  0  1  0  0  0  0  0  0  0  0  0
   29.9593   38.4506   19.3487 O   0  0  0  0  0  0  0  0  0  0  0  0
   28.3548   37.0464   18.2609 C   0  0  0  0  0  0  0  0  0  0  0  0
   28.3334   34.2613   17.7981 N   0  0  0  0  0  0  0  0  0  0  0  0
   28.3351   32.9228   17.5401 C   0  0  0  0  0  0  0  0  0  0  0  0
   28.5328   32.5003   16.3735 O   0  0  0  0  0  0  0  0  0  0  0  0
   28.1179   32.0312   18.5400 N   0  0  0  0  0  0  0  0  0  0  0  0
   27.8961   32.4508   19.8110 C   0  0  0  0  0  0  0  0  0  0  0  0
   27.8927   33.8129   20.0893 C   0  0  1  0  0  0  0  0  0  0  0  0
   27.6935   31.6219   20.7327 O   0  0  0  0  0  0  0  0  0  0  0  0
   27.6768   35.5623   21.6218 C   0  0  1  0  0  0  0  0  0  0  0  0
   27.6780   34.2406   21.3524 N   0  0  0  0  0  0  0  0  0  0  0  0
   27.4543   35.9938   22.9248 C   0  0  0  0  0  0  0  0  0  0  0  0
   27.4496   37.3493   23.2345 C   0  0  2  0  0  0  0  0  0  0  0  0
   27.2009   37.7470   24.6668 C   0  0  0  0  0  0  0  0  0  0  0  0
   27.6718   38.2933   22.2238 C   0  0  2  0  0  0  0  0  0  0  0  0
   27.6815   39.6411   22.4529 N   0  0  0  0  0  0  0  0  0  0  0  0
   27.8931   37.8438   20.9163 C   0  0  0  0  0  0  0  0  0  0  0  0
   27.8974   36.4854   20.6009 C   0  0  2  0  0  0  0  0  0  0  0  0
   28.1179   34.7326   19.0603 C   0  0  2  0  0  0  0  0  0  0  0  0
   28.1089   36.0627   19.3334 N   0  0  0  0  0  0  0  0  0  0  0  0
   26.4969   40.4278   22.1660 C   0  0  0  0  0  0  0  0  0  0  0  0
   28.8418   40.3373   22.9838 C   0  0  0  0  0  0  0  0  0  0  0  0
  1  2  1  0  0  0  0
  3  1  1  1  0  0  0
  3  4  1  0  0  0  0
  3  5  1  0  0  0  0
  5  6  1  6  0  0  0
  5  7  1  0  0  0  0
  7  8  1  1  0  0  0
  7  9  1  0  0  0  0
  9 27  1  0  0  0  0
 10 11  1  0  0  0  0
 11 12  2  0  0  0  0
 11 13  1  0  0  0  0
 13 14  1  0  0  0  0
 14 16  2  0  0  0  0
 15 14  1  1  0  0  0
 15 18  1  0  0  0  0
 15 26  1  0  0  0  0
 17 19  1  1  0  0  0
 17 25  1  0  0  0  0
 17 18  1  0  0  0  0
 19 20  1  0  0  0  0
 20 21  1  6  0  0  0
 20 22  1  0  0  0  0
 22 23  1  6  0  0  0
 22 24  1  0  0  0  0
 23 28  1  0  0  0  0
 23 29  1  0  0  0  0
 25 24  1  6  0  0  0
 25 27  1  0  0  0  0
 26 10  1  6  0  0  0
 26 27  1  0  0  0  0
M  END
>  <CHROM.1>
64.33949240,172.56370897,166.16274981,162.54343903,-98.57979445,80.39740476
28.59102242,36.24321107,19.44117886,-0.87912771,1.12317092,0.39108092

>  <Name>
ligand

>  <RI>
0

>  <Rbt.Current_Directory>
/home/itssahil/PROJECTS/Mol_Feturizer/New_Systems/rnas/3F4H

>  <Rbt.Executable>
rbdock ($Id: //depot/dev/client3/rdock/2013.1/src/exe/rbdock.cxx#4 $)

>  <Rbt.Library>
libRbt.so (2013.1, Build901 2013/11/27)

>  <Rbt.Parameter_File>
/export/apps/rDock/src/rDock_2013.1_src/data/scripts/dock_solv.prm

>  <Rbt.Receptor>
prm/blind_docking_100.prm

>  <SCORE>
-44.3134

>  <SCORE.INTER>
-27.3948

>  <SCORE.INTER.CONST>
1

>  <SCORE.INTER.POLAR>
0

>  <SCORE.INTER.ROT>
6

>  <SCORE.INTER.SOLV>
9.08115

>  <SCORE.INTER.VDW>
-28.8902

>  <SCORE.INTER.norm>
-0.944648

>  <SCORE.INTRA>
-16.9186

>  <SCORE.INTRA.DIHEDRAL>
-2.86229

>  <SCORE.INTRA.DIHEDRAL.0>
6.83446

>  <SCORE.INTRA.POLAR>
0

>  <SCORE.INTRA.POLAR.0>
0

>  <SCORE.INTRA.REPUL>
0.00222094

>  <SCORE.INTRA.REPUL.0>
0

>  <SCORE.INTRA.SOLV>
-0.0216807

>  <SCORE.INTRA.SOLV.lig_0>
-26.4601

>  <SCORE.INTRA.VDW>
-15.4877

>  <SCORE.INTRA.VDW.0>
13.7853

>  <SCORE.INTRA.norm>
-0.583399

>  <SCORE.RESTR>
0

>  <SCORE.RESTR.CAVITY>
0

>  <SCORE.RESTR.norm>
0

>  <SCORE.SYSTEM>
0

>  <SCORE.SYSTEM.CONST>
0

>  <SCORE.SYSTEM.DIHEDRAL>
0

>  <SCORE.SYSTEM.SOLV>
0

>  <SCORE.SYSTEM.norm>
0

>  <SCORE.heavy>
29

>  <SCORE.norm>
-1.52805

>  <RMSD>
2.388

$$$$
ligand
 OpenBabel11021811473D
libRbt.so/2013.1/901 2013/11/27
 29 31  0  0  0  0  0  0  0  0999 V2000
   31.6952   37.0091   15.2569 C   0  0  0  0  0  0  0  0  0  0  0  0
   31.7240   35.5824   15.3697 O   0  0  0  0  0  0  0  0  0  0  0  0
   30.5530   37.5575   16.1012 C   0  0  1  0  0  0  0  0  0  0  0  0
   29.3346   36.9756   15.6482 O   0  0  0  0  0  0  0  0  0  0  0  0
   30.7755   37.2393   17.5742 C   0  0  1  0  0  0  0  0  0  0  0  0
   32.0138   37.8312   17.9498 O   0  0  0  0  0  0  0  0  0  0  0  0
   29.6621   37.7114   18.5139 C   0  0  1  0  0  0  0  0  0  0  0  0
   29.4435   39.1051   18.2914 O   0  0  0  0  0  0  0  0  0  0  0  0
   28.3368   36.9827   18.3012 C   0  0  0  0  0  0  0  0  0  0  0  0
   28.2961   34.1993   17.8299 N   0  0  0  0  0  0  0  0  0  0  0  0
   28.2881   32.8617   17.5676 C   0  0  0  0  0  0  0  0  0  0  0  0
   28.4631   32.4422   16.3963 O   0  0  0  0  0  0  0  0  0  0  0  0
   28.0853   31.9676   18.5683 N   0  0  0  0  0  0  0  0  0  0  0  0
   27.8880   32.3838   19.8445 C   0  0  0  0  0  0  0  0  0  0  0  0
   27.8949   33.7450   20.1272 C   0  0  1  0  0  0  0  0  0  0  0  0
   27.6987   31.5527   20.7670 O   0  0  0  0  0  0  0  0  0  0  0  0
   27.7133   35.4901   21.6689 C   0  0  1  0  0  0  0  0  0  0  0  0
   27.7045   34.1694   21.3953 N   0  0  0  0  0  0  0  0  0  0  0  0
   27.5159   35.9182   22.9770 C   0  0  0  0  0  0  0  0  0  0  0  0
   27.5221   37.2728   23.2912 C   0  0  2  0  0  0  0  0  0  0  0  0
   27.3006   37.6667   24.7289 C   0  0  0  0  0  0  0  0  0  0  0  0
   27.7298   38.2192   22.2797 C   0  0  2  0  0  0  0  0  0  0  0  0
   27.7489   39.5662   22.5129 N   0  0  0  0  0  0  0  0  0  0  0  0
   27.9258   37.7731   20.9670 C   0  0  0  0  0  0  0  0  0  0  0  0
   27.9192   36.4158   20.6472 C   0  0  2  0  0  0  0  0  0  0  0  0
   28.1052   34.6673   19.0973 C   0  0  2  0  0  0  0  0  0  0  0  0
   28.1063   35.9965   19.3748 N   0  0  0  0  0  0  0  0  0  0  0  0
   26.5401   40.3458   22.3242 C   0  0  0  0  0  0  0  0  0  0  0  0
   28.9431   40.2684   22.9530 C   0  0  0  0  0  0  0  0  0  0  0  0
  1  2  1  0  0  0  0
  3  1  1  6  0  0  0
  3  4  1  0  0  0  0
  3  5  1  0  0  0  0
  5  6  1  1  0  0  0
  5  7  1  0  0  0  0
  7  8  1  6  0  0  0
  7  9  1  0  0  0  0
  9 27  1  0  0  0  0
 10 11  1  0  0  0  0
 11 12  2  0  0  0  0
 11 13  1  0  0  0  0
 13 14  1  0  0  0  0
 14 16  2  0  0  0  0
 15 14  1  1  0  0  0
 15 18  1  0  0  0  0
 15 26  1  0  0  0  0
 17 19  1  1  0  0  0
 17 25  1  0  0  0  0
 17 18  1  0  0  0  0
 19 20  1  0  0  0  0
 20 21  1  6  0  0  0
 20 22  1  0  0  0  0
 22 23  1  6  0  0  0
 22 24  1  0  0  0  0
 23 28  1  0  0  0  0
 23 29  1  0  0  0  0
 25 24  1  6  0  0  0
 25 27  1  0  0  0  0
 26 10  1  6  0  0  0
 26 27  1  0  0  0  0
M  END
>  <CHROM.1>
-58.31407258,59.01725434,-53.55932820,104.38370664,-95.00588742,65.61002065
28.70617142,36.20206421,19.51398155,-0.91866151,1.05730038,0.47565970

>  <Name>
ligand

>  <RI>
0

>  <Rbt.Current_Directory>
/home/itssahil/PROJECTS/Mol_Feturizer/New_Systems/rnas/3F4H

>  <Rbt.Executable>
rbdock ($Id: //depot/dev/client3/rdock/2013.1/src/exe/rbdock.cxx#4 $)

>  <Rbt.Library>
libRbt.so (2013.1, Build901 2013/11/27)

>  <Rbt.Parameter_File>
/export/apps/rDock/src/rDock_2013.1_src/data/scripts/dock_solv.prm

>  <Rbt.Receptor>
prm/pocket_docking_7.prm

>  <SCORE>
-43.3065

>  <SCORE.INTER>
-27.9661

>  <SCORE.INTER.CONST>
1

>  <SCORE.INTER.POLAR>
0

>  <SCORE.INTER.ROT>
6

>  <SCORE.INTER.SOLV>
9.75772

>  <SCORE.INTER.VDW>
-29.4966

>  <SCORE.INTER.norm>
-0.964347

>  <SCORE.INTRA>
-15.3404

>  <SCORE.INTRA.DIHEDRAL>
-0.217257

>  <SCORE.INTRA.DIHEDRAL.0>
6.83446

>  <SCORE.INTRA.POLAR>
0

>  <SCORE.INTRA.POLAR.0>
0

>  <SCORE.INTRA.REPUL>
0

>  <SCORE.INTRA.REPUL.0>
0

>  <SCORE.INTRA.SOLV>
0.0396982

>  <SCORE.INTRA.SOLV.lig_0>
-26.4601

>  <SCORE.INTRA.VDW>
-15.2517

>  <SCORE.INTRA.VDW.0>
13.7853

>  <SCORE.INTRA.norm>
-0.528981

>  <SCORE.RESTR>
0

>  <SCORE.RESTR.CAVITY>
0

>  <SCORE.RESTR.norm>
0

>  <SCORE.SYSTEM>
0

>  <SCORE.SYSTEM.CONST>
0

>  <SCORE.SYSTEM.DIHEDRAL>
0

>  <SCORE.SYSTEM.SOLV>
0

>  <SCORE.SYSTEM.norm>
0

>  <SCORE.heavy>
29

>  <SCORE.norm>
-1.49333

>  <RMSD>
2.389

$$$$
ligand
 OpenBabel11021811473D
libRbt.so/2013.1/901 2013/11/27
 29 31  0  0  0  0  0  0  0  0999 V2000
   31.2767   37.1303   14.7604 C   0  0  0  0  0  0  0  0  0  0  0  0
   31.4085   36.0321   13.8518 O   0  0  0  0  0  0  0  0  0  0  0  0
   30.5043   36.6751   15.9910 C   0  0  1  0  0  0  0  0  0  0  0  0
   31.2009   35.5844   16.5855 O   0  0  0  0  0  0  0  0  0  0  0  0
   30.3628   37.8185   16.9875 C   0  0  1  0  0  0  0  0  0  0  0  0
   29.5176   38.7948   16.3898 O   0  0  0  0  0  0  0  0  0  0  0  0
   29.8123   37.4173   18.3592 C   0  0  1  0  0  0  0  0  0  0  0  0
   29.9075   38.5440   19.2317 O   0  0  0  0  0  0  0  0  0  0  0  0
   28.3532   36.9675   18.3214 C   0  0  0  0  0  0  0  0  0  0  0  0
   28.3185   34.1786   17.8837 N   0  0  0  0  0  0  0  0  0  0  0  0
   28.3145   32.8378   17.6381 C   0  0  0  0  0  0  0  0  0  0  0  0
   28.5307   32.4029   16.4793 O   0  0  0  0  0  0  0  0  0  0  0  0
   28.0715   31.9572   18.6418 N   0  0  0  0  0  0  0  0  0  0  0  0
   27.8292   32.3902   19.9046 C   0  0  0  0  0  0  0  0  0  0  0  0
   27.8314   33.7548   20.1702 C   0  0  1  0  0  0  0  0  0  0  0  0
   27.6027   31.5716   20.8298 O   0  0  0  0  0  0  0  0  0  0  0  0
   27.6005   35.5200   21.6823 C   0  0  1  0  0  0  0  0  0  0  0  0
   27.5963   34.1959   21.4251 N   0  0  0  0  0  0  0  0  0  0  0  0
   27.3570   35.9653   22.9769 C   0  0  0  0  0  0  0  0  0  0  0  0
   27.3572   37.3237   23.2741 C   0  0  2  0  0  0  0  0  0  0  0  0
   27.0847   37.7366   24.6977 C   0  0  0  0  0  0  0  0  0  0  0  0
   27.6058   38.2565   22.2592 C   0  0  2  0  0  0  0  0  0  0  0  0
   27.6218   39.6062   22.4761 N   0  0  0  0  0  0  0  0  0  0  0  0
   27.8480   37.7931   20.9603 C   0  0  0  0  0  0  0  0  0  0  0  0
   27.8475   36.4319   20.6574 C   0  0  2  0  0  0  0  0  0  0  0  0
   28.0830   34.6632   19.1373 C   0  0  2  0  0  0  0  0  0  0  0  0
   28.0794   35.9958   19.3980 N   0  0  0  0  0  0  0  0  0  0  0  0
   28.8413   40.2471   22.9304 C   0  0  0  0  0  0  0  0  0  0  0  0
   26.4552   40.4475   22.2659 C   0  0  0  0  0  0  0  0  0  0  0  0
  1  2  1  0  0  0  0
  3  1  1  6  0  0  0
  3  4  1  0  0  0  0
  3  5  1  0  0  0  0
  5  6  1  6  0  0  0
  5  7  1  0  0  0  0
  7  8  1  1  0  0  0
  7  9  1  0  0  0  0
  9 27  1  0  0  0  0
 10 11  1  0  0  0  0
 11 12  2  0  0  0  0
 11 13  1  0  0  0  0
 13 14  1  0  0  0  0
 14 16  2  0  0  0  0
 15 14  1  1  0  0  0
 15 18  1  0  0  0  0
 15 26  1  0  0  0  0
 17 19  1  1  0  0  0
 17 25  1  0  0  0  0
 17 18  1  0  0  0  0
 19 20  1  0  0  0  0
 20 21  1  6  0  0  0
 20 22  1  0  0  0  0
 22 23  1  6  0  0  0
 22 24  1  0  0  0  0
 23 28  1  0  0  0  0
 23 29  1  0  0  0  0
 25 24  1  6  0  0  0
 25 27  1  0  0  0  0
 26 10  1  6  0  0  0
 26 27  1  0  0  0  0
M  END
>  <CHROM.1>
58.10526923,67.16219315,172.24201513,151.17578059,85.79028896,80.76146209
28.61227828,36.17640844,19.43365687,-0.76739257,1.10396253,0.39367932

>  <Name>
ligand

>  <RI>
0

>  <Rbt.Current_Directory>
/home/itssahil/PROJECTS/Mol_Feturizer/New_Systems/rnas/3F4H

>  <Rbt.Executable>
rbdock ($Id: //depot/dev/client3/rdock/2013.1/src/exe/rbdock.cxx#4 $)

>  <Rbt.Library>
libRbt.so (2013.1, Build901 2013/11/27)

>  <Rbt.Parameter_File>
/export/apps/rDock/src/rDock_2013.1_src/data/scripts/dock_solv.prm

>  <Rbt.Receptor>
prm/pocket_docking_8.prm

>  <SCORE>
-45.2655

>  <SCORE.INTER>
-28.1755

>  <SCORE.INTER.CONST>
1

>  <SCORE.INTER.POLAR>
0

>  <SCORE.INTER.ROT>
6

>  <SCORE.INTER.SOLV>
10.5149

>  <SCORE.INTER.VDW>
-29.8886

>  <SCORE.INTER.norm>
-0.971568

>  <SCORE.INTRA>
-17.09

>  <SCORE.INTRA.DIHEDRAL>
-1.93596

>  <SCORE.INTRA.DIHEDRAL.0>
6.83446

>  <SCORE.INTRA.POLAR>
0

>  <SCORE.INTRA.POLAR.0>
0

>  <SCORE.INTRA.REPUL>
0

>  <SCORE.INTRA.REPUL.0>
0

>  <SCORE.INTRA.SOLV>
-0.326126

>  <SCORE.INTRA.SOLV.lig_0>
-26.4601

>  <SCORE.INTRA.VDW>
-15.959

>  <SCORE.INTRA.VDW.0>
13.7853

>  <SCORE.INTRA.norm>
-0.589312

>  <SCORE.RESTR>
0

>  <SCORE.RESTR.CAVITY>
0

>  <SCORE.RESTR.norm>
0

>  <SCORE.SYSTEM>
0

>  <SCORE.SYSTEM.CONST>
0

>  <SCORE.SYSTEM.DIHEDRAL>
0

>  <SCORE.SYSTEM.SOLV>
0

>  <SCORE.SYSTEM.norm>
0

>  <SCORE.heavy>
29

>  <SCORE.norm>
-1.56088

>  <RMSD>
2.397

$$$$
ligand
 OpenBabel11021811473D
libRbt.so/2013.1/901 2013/11/27
 29 31  0  0  0  0  0  0  0  0999 V2000
   31.1924   37.1097   14.7388 C   0  0  0  0  0  0  0  0  0  0  0  0
   31.2948   36.0106   13.8275 O   0  0  0  0  0  0  0  0  0  0  0  0
   30.4386   36.6625   15.9837 C   0  0  1  0  0  0  0  0  0  0  0  0
   31.1333   35.5625   16.5634 O   0  0  0  0  0  0  0  0  0  0  0  0
   30.3307   37.8062   16.9840 C   0  0  1  0  0  0  0  0  0  0  0  0
   29.4951   38.7985   16.3994 O   0  0  0  0  0  0  0  0  0  0  0  0
   29.7917   37.4121   18.3623 C   0  0  1  0  0  0  0  0  0  0  0  0
   29.9005   38.5412   19.2300 O   0  0  0  0  0  0  0  0  0  0  0  0
   28.3302   36.9690   18.3401 C   0  0  0  0  0  0  0  0  0  0  0  0
   28.3122   34.1732   17.9467 N   0  0  0  0  0  0  0  0  0  0  0  0
   28.3163   32.8287   17.7223 C   0  0  0  0  0  0  0  0  0  0  0  0
   28.5381   32.3768   16.5712 O   0  0  0  0  0  0  0  0  0  0  0  0
   28.0756   31.9628   18.7393 N   0  0  0  0  0  0  0  0  0  0  0  0
   27.8274   32.4145   19.9944 C   0  0  0  0  0  0  0  0  0  0  0  0
   27.8213   33.7831   20.2383 C   0  0  1  0  0  0  0  0  0  0  0  0
   27.6030   31.6094   20.9319 O   0  0  0  0  0  0  0  0  0  0  0  0
   27.5765   35.5707   21.7216 C   0  0  1  0  0  0  0  0  0  0  0  0
   27.5804   34.2428   21.4854 N   0  0  0  0  0  0  0  0  0  0  0  0
   27.3270   36.0351   23.0083 C   0  0  0  0  0  0  0  0  0  0  0  0
   27.3189   37.3981   23.2838 C   0  0  2  0  0  0  0  0  0  0  0  0
   27.0403   37.8320   24.7000 C   0  0  0  0  0  0  0  0  0  0  0  0
   27.5650   38.3160   22.2549 C   0  0  2  0  0  0  0  0  0  0  0  0
   27.5729   39.6691   22.4504 N   0  0  0  0  0  0  0  0  0  0  0  0
   27.8133   37.8335   20.9642 C   0  0  0  0  0  0  0  0  0  0  0  0
   27.8212   36.4676   20.6830 C   0  0  2  0  0  0  0  0  0  0  0  0
   28.0707   34.6764   19.1918 C   0  0  2  0  0  0  0  0  0  0  0  0
   28.0590   36.0130   19.4313 N   0  0  0  0  0  0  0  0  0  0  0  0
   28.7826   40.3215   22.9146 C   0  0  0  0  0  0  0  0  0  0  0  0
   26.4072   40.5027   22.2074 C   0  0  0  0  0  0  0  0  0  0  0  0
  1  2  1  0  0  0  0
  3  1  1  6  0  0  0
  3  4  1  0  0  0  0
  3  5  1  0  0  0  0
  5  6  1  6  0  0  0
  5  7  1  0  0  0  0
  7  8  1  1  0  0  0
  7  9  1  0  0  0  0
  9 27  1  0  0  0  0
 10 11  1  0  0  0  0
 11 12  2  0  0  0  0
 11 13  1  0  0  0  0
 13 14  1  0  0  0  0
 14 16  2  0  0  0  0
 15 14  1  1  0  0  0
 15 18  1  0  0  0  0
 15 26  1  0  0  0  0
 17 19  1  1  0  0  0
 17 25  1  0  0  0  0
 17 18  1  0  0  0  0
 19 20  1  0  0  0  0
 20 21  1  6  0  0  0
 20 22  1  0  0  0  0
 22 23  1  6  0  0  0
 22 24  1  0  0  0  0
 23 28  1  0  0  0  0
 23 29  1  0  0  0  0
 25 24  1  6  0  0  0
 25 27  1  0  0  0  0
 26 10  1  6  0  0  0
 26 27  1  0  0  0  0
M  END
>  <CHROM.1>
58.01464929,66.69510417,173.07478455,151.77228273,84.97965839,81.57297785
28.58116849,36.19816053,19.45698510,-0.75183782,1.11184902,0.36670684

>  <Name>
ligand

>  <RI>
0

>  <Rbt.Current_Directory>
/home/itssahil/PROJECTS/Mol_Feturizer/New_Systems/rnas/3F4H

>  <Rbt.Executable>
rbdock ($Id: //depot/dev/client3/rdock/2013.1/src/exe/rbdock.cxx#4 $)

>  <Rbt.Library>
libRbt.so (2013.1, Build901 2013/11/27)

>  <Rbt.Parameter_File>
/export/apps/rDock/src/rDock_2013.1_src/data/scripts/dock_solv.prm

>  <Rbt.Receptor>
prm/pocket_docking_6.prm

>  <SCORE>
-45.2294

>  <SCORE.INTER>
-28.0535

>  <SCORE.INTER.CONST>
1

>  <SCORE.INTER.POLAR>
0

>  <SCORE.INTER.ROT>
6

>  <SCORE.INTER.SOLV>
10.4962

>  <SCORE.INTER.VDW>
-29.8011

>  <SCORE.INTER.norm>
-0.967363

>  <SCORE.INTRA>
-17.1759

>  <SCORE.INTRA.DIHEDRAL>
-2.08561

>  <SCORE.INTRA.DIHEDRAL.0>
6.83446

>  <SCORE.INTRA.POLAR>
0

>  <SCORE.INTRA.POLAR.0>
0

>  <SCORE.INTRA.REPUL>
0

>  <SCORE.INTRA.REPUL.0>
0

>  <SCORE.INTRA.SOLV>
-0.32416

>  <SCORE.INTRA.SOLV.lig_0>
-26.4601

>  <SCORE.INTRA.VDW>
-15.971

>  <SCORE.INTRA.VDW.0>
13.7853

>  <SCORE.INTRA.norm>
-0.592271

>  <SCORE.RESTR>
0

>  <SCORE.RESTR.CAVITY>
0

>  <SCORE.RESTR.norm>
0

>  <SCORE.SYSTEM>
0

>  <SCORE.SYSTEM.CONST>
0

>  <SCORE.SYSTEM.DIHEDRAL>
0

>  <SCORE.SYSTEM.SOLV>
0

>  <SCORE.SYSTEM.norm>
0

>  <SCORE.heavy>
29

>  <SCORE.norm>
-1.55963

>  <RMSD>
2.403

$$$$
ligand
 OpenBabel11021811473D
libRbt.so/2013.1/901 2013/11/27
 29 31  0  0  0  0  0  0  0  0999 V2000
   31.2746   37.0964   14.7232 C   0  0  0  0  0  0  0  0  0  0  0  0
   31.4141   35.9890   13.8269 O   0  0  0  0  0  0  0  0  0  0  0  0
   30.4958   36.6524   15.9538 C   0  0  1  0  0  0  0  0  0  0  0  0
   31.1869   35.5641   16.5592 O   0  0  0  0  0  0  0  0  0  0  0  0
   30.3535   37.8035   16.9413 C   0  0  1  0  0  0  0  0  0  0  0  0
   29.4940   38.7668   16.3430 O   0  0  0  0  0  0  0  0  0  0  0  0
   29.8198   37.4099   18.3218 C   0  0  1  0  0  0  0  0  0  0  0  0
   29.9256   38.5413   19.1869 O   0  0  0  0  0  0  0  0  0  0  0  0
   28.3603   36.9600   18.3043 C   0  0  0  0  0  0  0  0  0  0  0  0
   28.3156   34.1691   17.8803 N   0  0  0  0  0  0  0  0  0  0  0  0
   28.3063   32.8272   17.6410 C   0  0  0  0  0  0  0  0  0  0  0  0
   28.5061   32.3866   16.4815 O   0  0  0  0  0  0  0  0  0  0  0  0
   28.0757   31.9517   18.6521 N   0  0  0  0  0  0  0  0  0  0  0  0
   27.8512   32.3910   19.9160 C   0  0  0  0  0  0  0  0  0  0  0  0
   27.8589   33.7569   20.1752 C   0  0  1  0  0  0  0  0  0  0  0  0
   27.6361   31.5771   20.8481 O   0  0  0  0  0  0  0  0  0  0  0  0
   27.6512   35.5295   21.6819 C   0  0  1  0  0  0  0  0  0  0  0  0
   27.6416   34.2042   21.4310 N   0  0  0  0  0  0  0  0  0  0  0  0
   27.4259   35.9812   22.9775 C   0  0  0  0  0  0  0  0  0  0  0  0
   27.4322   37.3410   23.2682 C   0  0  2  0  0  0  0  0  0  0  0  0
   27.1797   37.7610   24.6935 C   0  0  0  0  0  0  0  0  0  0  0  0
   27.6683   38.2686   22.2457 C   0  0  2  0  0  0  0  0  0  0  0  0
   27.6892   39.6194   22.4559 N   0  0  0  0  0  0  0  0  0  0  0  0
   27.8922   37.7988   20.9458 C   0  0  0  0  0  0  0  0  0  0  0  0
   27.8856   36.4361   20.6494 C   0  0  2  0  0  0  0  0  0  0  0  0
   28.0979   34.6600   19.1346 C   0  0  2  0  0  0  0  0  0  0  0  0
   28.0998   35.9938   19.3891 N   0  0  0  0  0  0  0  0  0  0  0  0
   26.4949   40.4044   22.2073 C   0  0  0  0  0  0  0  0  0  0  0  0
   28.8713   40.3204   22.9293 C   0  0  0  0  0  0  0  0  0  0  0  0
  1  2  1  0  0  0  0
  3  1  1  6  0  0  0
  3  4  1  0  0  0  0
  3  5  1  0  0  0  0
  5  6  1  6  0  0  0
  5  7  1  0  0  0  0
  7  8  1  1  0  0  0
  7  9  1  0  0  0  0
  9 27  1  0  0  0  0
 10 11  1  0  0  0  0
 11 12  2  0  0  0  0
 11 13  1  0  0  0  0
 13 14  1  0  0  0  0
 14 16  2  0  0  0  0
 15 14  1  1  0  0  0
 15 18  1  0  0  0  0
 15 26  1  0  0  0  0
 17 19  1  1  0  0  0
 17 25  1  0  0  0  0
 17 18  1  0  0  0  0
 19 20  1  0  0  0  0
 20 21  1  6  0  0  0
 20 22  1  0  0  0  0
 22 23  1  6  0  0  0
 22 24  1  0  0  0  0
 23 28  1  0  0  0  0
 23 29  1  0  0  0  0
 25 24  1  6  0  0  0
 25 27  1  0  0  0  0
 26 10  1  6  0  0  0
 26 27  1  0  0  0  0
M  END
>  <CHROM.1>
57.75571442,68.20540750,171.66533403,151.15267139,-95.89133385,80.64866413
28.63479045,36.17311690,19.41914481,-0.78017624,1.11229801,0.39965385

>  <Name>
ligand

>  <RI>
0

>  <Rbt.Current_Directory>
/home/itssahil/PROJECTS/Mol_Feturizer/New_Systems/rnas/3F4H

>  <Rbt.Executable>
rbdock ($Id: //depot/dev/client3/rdock/2013.1/src/exe/rbdock.cxx#4 $)

>  <Rbt.Library>
libRbt.so (2013.1, Build901 2013/11/27)

>  <Rbt.Parameter_File>
/export/apps/rDock/src/rDock_2013.1_src/data/scripts/dock_solv.prm

>  <Rbt.Receptor>
prm/pocket_docking_8.prm

>  <SCORE>
-45.2322

>  <SCORE.INTER>
-28.2063

>  <SCORE.INTER.CONST>
1

>  <SCORE.INTER.POLAR>
0

>  <SCORE.INTER.ROT>
6

>  <SCORE.INTER.SOLV>
10.4635

>  <SCORE.INTER.VDW>
-29.892

>  <SCORE.INTER.norm>
-0.97263

>  <SCORE.INTRA>
-17.0259

>  <SCORE.INTRA.DIHEDRAL>
-1.83596

>  <SCORE.INTRA.DIHEDRAL.0>
6.83446

>  <SCORE.INTRA.POLAR>
0

>  <SCORE.INTRA.POLAR.0>
0

>  <SCORE.INTRA.REPUL>
0

>  <SCORE.INTRA.REPUL.0>
0

>  <SCORE.INTRA.SOLV>
-0.332644

>  <SCORE.INTRA.SOLV.lig_0>
-26.4601

>  <SCORE.INTRA.VDW>
-15.9416

>  <SCORE.INTRA.VDW.0>
13.7853

>  <SCORE.INTRA.norm>
-0.587101

>  <SCORE.RESTR>
0

>  <SCORE.RESTR.CAVITY>
0

>  <SCORE.RESTR.norm>
0

>  <SCORE.SYSTEM>
0

>  <SCORE.SYSTEM.CONST>
0

>  <SCORE.SYSTEM.DIHEDRAL>
0

>  <SCORE.SYSTEM.SOLV>
0

>  <SCORE.SYSTEM.norm>
0

>  <SCORE.heavy>
29

>  <SCORE.norm>
-1.55973

>  <RMSD>
2.407

$$$$
ligand
 OpenBabel11021811473D
libRbt.so/2013.1/901 2013/11/27
 29 31  0  0  0  0  0  0  0  0999 V2000
   32.6528   36.6010   16.0147 C   0  0  0  0  0  0  0  0  0  0  0  0
   32.0316   37.0189   14.7947 O   0  0  0  0  0  0  0  0  0  0  0  0
   31.9140   37.2204   17.1932 C   0  0  1  0  0  0  0  0  0  0  0  0
   31.9946   38.6382   17.0840 O   0  0  0  0  0  0  0  0  0  0  0  0
   30.4580   36.7730   17.2073 C   0  0  1  0  0  0  0  0  0  0  0  0
   30.4547   35.3573   17.3513 O   0  0  0  0  0  0  0  0  0  0  0  0
   29.5946   37.4132   18.2983 C   0  0  1  0  0  0  0  0  0  0  0  0
   29.5523   38.8227   18.0723 O   0  0  0  0  0  0  0  0  0  0  0  0
   28.1590   36.8925   18.3218 C   0  0  0  0  0  0  0  0  0  0  0  0
   28.1237   34.1063   17.8662 N   0  0  0  0  0  0  0  0  0  0  0  0
   28.1167   32.7673   17.6111 C   0  0  0  0  0  0  0  0  0  0  0  0
   28.2497   32.3432   16.4359 O   0  0  0  0  0  0  0  0  0  0  0  0
   27.9607   31.8769   18.6233 N   0  0  0  0  0  0  0  0  0  0  0  0
   27.8095   32.2982   19.9042 C   0  0  0  0  0  0  0  0  0  0  0  0
   27.8159   33.6609   20.1796 C   0  0  1  0  0  0  0  0  0  0  0  0
   27.6632   31.4705   20.8374 O   0  0  0  0  0  0  0  0  0  0  0  0
   27.6795   35.4126   21.7185 C   0  0  1  0  0  0  0  0  0  0  0  0
   27.6713   34.0904   21.4520 N   0  0  0  0  0  0  0  0  0  0  0  0
   27.5294   35.8459   23.0312 C   0  0  0  0  0  0  0  0  0  0  0  0
   27.5363   37.2021   23.3382 C   0  0  2  0  0  0  0  0  0  0  0  0
   27.3675   37.6018   24.7815 C   0  0  0  0  0  0  0  0  0  0  0  0
   27.6965   38.1449   22.3147 C   0  0  2  0  0  0  0  0  0  0  0  0
   27.7132   39.4932   22.5403 N   0  0  0  0  0  0  0  0  0  0  0  0
   27.8452   37.6935   20.9976 C   0  0  0  0  0  0  0  0  0  0  0  0
   27.8377   36.3345   20.6851 C   0  0  2  0  0  0  0  0  0  0  0  0
   27.9781   34.5794   19.1377 C   0  0  2  0  0  0  0  0  0  0  0  0
   27.9788   35.9101   19.4084 N   0  0  0  0  0  0  0  0  0  0  0  0
   28.9553   40.1451   22.9102 C   0  0  0  0  0  0  0  0  0  0  0  0
   26.5252   40.3223   22.4216 C   0  0  0  0  0  0  0  0  0  0  0  0
  1  2  1  0  0  0  0
  3  1  1  6  0  0  0
  3  4  1  0  0  0  0
  3  5  1  0  0  0  0
  5  6  1  1  0  0  0
  5  7  1  0  0  0  0
  7  8  1  6  0  0  0
  7  9  1  0  0  0  0
  9 27  1  0  0  0  0
 10 11  1  0  0  0  0
 11 12  2  0  0  0  0
 11 13  1  0  0  0  0
 13 14  1  0  0  0  0
 14 16  2  0  0  0  0
 15 14  1  1  0  0  0
 15 18  1  0  0  0  0
 15 26  1  0  0  0  0
 17 19  1  1  0  0  0
 17 25  1  0  0  0  0
 17 18  1  0  0  0  0
 19 20  1  0  0  0  0
 20 21  1  6  0  0  0
 20 22  1  0  0  0  0
 22 23  1  6  0  0  0
 22 24  1  0  0  0  0
 23 28  1  0  0  0  0
 23 29  1  0  0  0  0
 25 24  1  6  0  0  0
 25 27  1  0  0  0  0
 26 10  1  6  0  0  0
 26 27  1  0  0  0  0
M  END
>  <CHROM.1>
-60.80153060,61.33023750,62.50648792,101.72504714,85.60107813,77.86494610
28.78171472,36.10783183,19.58917750,-0.84657931,0.96677906,0.49939633

>  <Name>
ligand

>  <RI>
0

>  <Rbt.Current_Directory>
/home/itssahil/PROJECTS/Mol_Feturizer/New_Systems/rnas/3F4H

>  <Rbt.Executable>
rbdock ($Id: //depot/dev/client3/rdock/2013.1/src/exe/rbdock.cxx#4 $)

>  <Rbt.Library>
libRbt.so (2013.1, Build901 2013/11/27)

>  <Rbt.Parameter_File>
/export/apps/rDock/src/rDock_2013.1_src/data/scripts/dock_solv.prm

>  <Rbt.Receptor>
prm/blind_docking_100.prm

>  <SCORE>
-45.7697

>  <SCORE.INTER>
-29.6663

>  <SCORE.INTER.CONST>
1

>  <SCORE.INTER.POLAR>
0

>  <SCORE.INTER.ROT>
6

>  <SCORE.INTER.SOLV>
12.3424

>  <SCORE.INTER.VDW>
-31.4917

>  <SCORE.INTER.norm>
-1.02298

>  <SCORE.INTRA>
-16.1034

>  <SCORE.INTRA.DIHEDRAL>
-0.65045

>  <SCORE.INTRA.DIHEDRAL.0>
6.83446

>  <SCORE.INTRA.POLAR>
0

>  <SCORE.INTRA.POLAR.0>
0

>  <SCORE.INTRA.REPUL>
0

>  <SCORE.INTRA.REPUL.0>
0

>  <SCORE.INTRA.SOLV>
0.253928

>  <SCORE.INTRA.SOLV.lig_0>
-26.4601

>  <SCORE.INTRA.VDW>
-15.9051

>  <SCORE.INTRA.VDW.0>
13.7853

>  <SCORE.INTRA.norm>
-0.555288

>  <SCORE.RESTR>
0

>  <SCORE.RESTR.CAVITY>
0

>  <SCORE.RESTR.norm>
0

>  <SCORE.SYSTEM>
0

>  <SCORE.SYSTEM.CONST>
0

>  <SCORE.SYSTEM.DIHEDRAL>
0

>  <SCORE.SYSTEM.SOLV>
0

>  <SCORE.SYSTEM.norm>
0

>  <SCORE.heavy>
29

>  <SCORE.norm>
-1.57826

>  <RMSD>
2.409

$$$$
ligand
 OpenBabel11021811473D
libRbt.so/2013.1/901 2013/11/27
 29 31  0  0  0  0  0  0  0  0999 V2000
   32.6352   36.6229   15.8985 C   0  0  0  0  0  0  0  0  0  0  0  0
   31.9904   37.1250   14.7232 O   0  0  0  0  0  0  0  0  0  0  0  0
   31.9433   37.1871   17.1318 C   0  0  1  0  0  0  0  0  0  0  0  0
   32.0321   38.6080   17.0911 O   0  0  0  0  0  0  0  0  0  0  0  0
   30.4849   36.7495   17.1747 C   0  0  1  0  0  0  0  0  0  0  0  0
   30.4748   35.3317   17.2948 O   0  0  0  0  0  0  0  0  0  0  0  0
   29.6534   37.3769   18.2975 C   0  0  1  0  0  0  0  0  0  0  0  0
   29.6482   38.7938   18.1185 O   0  0  0  0  0  0  0  0  0  0  0  0
   28.2041   36.8958   18.3230 C   0  0  0  0  0  0  0  0  0  0  0  0
   28.1190   34.1055   17.9011 N   0  0  0  0  0  0  0  0  0  0  0  0
   28.0884   32.7638   17.6622 C   0  0  0  0  0  0  0  0  0  0  0  0
   28.2242   32.3227   16.4937 O   0  0  0  0  0  0  0  0  0  0  0  0
   27.9056   31.8892   18.6837 N   0  0  0  0  0  0  0  0  0  0  0  0
   27.7506   32.3292   19.9578 C   0  0  0  0  0  0  0  0  0  0  0  0
   27.7809   33.6948   20.2166 C   0  0  1  0  0  0  0  0  0  0  0  0
   27.5796   31.5160   20.8996 O   0  0  0  0  0  0  0  0  0  0  0  0
   27.6641   35.4677   21.7327 C   0  0  1  0  0  0  0  0  0  0  0  0
   27.6327   34.1427   21.4823 N   0  0  0  0  0  0  0  0  0  0  0  0
   27.5102   35.9201   23.0386 C   0  0  0  0  0  0  0  0  0  0  0  0
   27.5405   37.2796   23.3290 C   0  0  2  0  0  0  0  0  0  0  0  0
   27.3660   37.7003   24.7656 C   0  0  0  0  0  0  0  0  0  0  0  0
   27.7286   38.2063   22.2957 C   0  0  2  0  0  0  0  0  0  0  0  0
   27.7694   39.5568   22.5050 N   0  0  0  0  0  0  0  0  0  0  0  0
   27.8808   37.7359   20.9857 C   0  0  0  0  0  0  0  0  0  0  0  0
   27.8498   36.3735   20.6897 C   0  0  2  0  0  0  0  0  0  0  0  0
   27.9707   34.5970   19.1653 C   0  0  2  0  0  0  0  0  0  0  0  0
   27.9946   35.9306   19.4197 N   0  0  0  0  0  0  0  0  0  0  0  0
   26.5653   40.3476   22.3339 C   0  0  0  0  0  0  0  0  0  0  0  0
   28.9826   40.2519   22.9021 C   0  0  0  0  0  0  0  0  0  0  0  0
  1  2  1  0  0  0  0
  3  1  1  6  0  0  0
  3  4  1  0  0  0  0
  3  5  1  0  0  0  0
  5  6  1  1  0  0  0
  5  7  1  0  0  0  0
  7  8  1  6  0  0  0
  7  9  1  0  0  0  0
  9 27  1  0  0  0  0
 10 11  1  0  0  0  0
 11 12  2  0  0  0  0
 11 13  1  0  0  0  0
 13 14  1  0  0  0  0
 14 16  2  0  0  0  0
 15 14  1  1  0  0  0
 15 18  1  0  0  0  0
 15 26  1  0  0  0  0
 17 19  1  1  0  0  0
 17 25  1  0  0  0  0
 17 18  1  0  0  0  0
 19 20  1  0  0  0  0
 20 21  1  6  0  0  0
 20 22  1  0  0  0  0
 22 23  1  6  0  0  0
 22 24  1  0  0  0  0
 23 28  1  0  0  0  0
 23 29  1  0  0  0  0
 25 24  1  6  0  0  0
 25 27  1  0  0  0  0
 26 10  1  6  0  0  0
 26 27  1  0  0  0  0
M  END
>  <CHROM.1>
-59.77937485,63.33050833,60.84069087,104.38677803,-95.22125181,78.48102392
28.78571789,36.13435949,19.58788083,-0.84369435,0.96356220,0.50624703

>  <Name>
ligand

>  <RI>
0

>  <Rbt.Current_Directory>
/home/itssahil/PROJECTS/Mol_Feturizer/New_Systems/rnas/3F4H

>  <Rbt.Executable>
rbdock ($Id: //depot/dev/client3/rdock/2013.1/src/exe/rbdock.cxx#4 $)

>  <Rbt.Library>
libRbt.so (2013.1, Build901 2013/11/27)

>  <Rbt.Parameter_File>
/export/apps/rDock/src/rDock_2013.1_src/data/scripts/dock_solv.prm

>  <Rbt.Receptor>
prm/pocket_docking_8.prm

>  <SCORE>
-45.611

>  <SCORE.INTER>
-29.6689

>  <SCORE.INTER.CONST>
1

>  <SCORE.INTER.POLAR>
0

>  <SCORE.INTER.ROT>
6

>  <SCORE.INTER.SOLV>
12.311

>  <SCORE.INTER.VDW>
-31.4829

>  <SCORE.INTER.norm>
-1.02306

>  <SCORE.INTRA>
-15.9421

>  <SCORE.INTRA.DIHEDRAL>
-0.352965

>  <SCORE.INTRA.DIHEDRAL.0>
6.83446

>  <SCORE.INTRA.POLAR>
0

>  <SCORE.INTRA.POLAR.0>
0

>  <SCORE.INTRA.REPUL>
0

>  <SCORE.INTRA.REPUL.0>
0

>  <SCORE.INTRA.SOLV>
0.251127

>  <SCORE.INTRA.SOLV.lig_0>
-26.4601

>  <SCORE.INTRA.VDW>
-15.8912

>  <SCORE.INTRA.VDW.0>
13.7853

>  <SCORE.INTRA.norm>
-0.549728

>  <SCORE.RESTR>
0

>  <SCORE.RESTR.CAVITY>
0

>  <SCORE.RESTR.norm>
0

>  <SCORE.SYSTEM>
0

>  <SCORE.SYSTEM.CONST>
0

>  <SCORE.SYSTEM.DIHEDRAL>
0

>  <SCORE.SYSTEM.SOLV>
0

>  <SCORE.SYSTEM.norm>
0

>  <SCORE.heavy>
29

>  <SCORE.norm>
-1.57279

>  <RMSD>
2.415

$$$$
ligand
 OpenBabel11021811473D
libRbt.so/2013.1/901 2013/11/27
 29 31  0  0  0  0  0  0  0  0999 V2000
   31.4840   37.0005   14.4330 C   0  0  0  0  0  0  0  0  0  0  0  0
   30.8885   35.8823   13.7667 O   0  0  0  0  0  0  0  0  0  0  0  0
   31.3730   36.8063   15.9390 C   0  0  1  0  0  0  0  0  0  0  0  0
   32.1792   37.7878   16.5832 O   0  0  0  0  0  0  0  0  0  0  0  0
   29.9235   36.9337   16.3898 C   0  0  1  0  0  0  0  0  0  0  0  0
   29.1945   35.8848   15.7627 O   0  0  0  0  0  0  0  0  0  0  0  0
   29.7105   36.8871   17.9057 C   0  0  1  0  0  0  0  0  0  0  0  0
   30.3334   38.0341   18.4853 O   0  0  0  0  0  0  0  0  0  0  0  0
   28.2386   36.8886   18.3136 C   0  0  0  0  0  0  0  0  0  0  0  0
   28.1373   34.0984   17.8945 N   0  0  0  0  0  0  0  0  0  0  0  0
   28.0997   32.7567   17.6572 C   0  0  0  0  0  0  0  0  0  0  0  0
   28.2537   32.3124   16.4921 O   0  0  0  0  0  0  0  0  0  0  0  0
   27.8900   31.8854   18.6764 N   0  0  0  0  0  0  0  0  0  0  0  0
   27.7147   32.3289   19.9466 C   0  0  0  0  0  0  0  0  0  0  0  0
   27.7519   33.6946   20.2039 C   0  0  1  0  0  0  0  0  0  0  0  0
   27.5188   31.5189   20.8863 O   0  0  0  0  0  0  0  0  0  0  0  0
   27.6219   35.4710   21.7147 C   0  0  1  0  0  0  0  0  0  0  0  0
   27.5837   34.1460   21.4658 N   0  0  0  0  0  0  0  0  0  0  0  0
   27.4472   35.9270   23.0167 C   0  0  0  0  0  0  0  0  0  0  0  0
   27.4838   37.2867   23.3055 C   0  0  2  0  0  0  0  0  0  0  0  0
   27.2858   37.7113   24.7380 C   0  0  0  0  0  0  0  0  0  0  0  0
   27.6995   38.2100   22.2746 C   0  0  2  0  0  0  0  0  0  0  0  0
   27.7479   39.5604   22.4825 N   0  0  0  0  0  0  0  0  0  0  0  0
   27.8723   37.7360   20.9684 C   0  0  0  0  0  0  0  0  0  0  0  0
   27.8351   36.3734   20.6740 C   0  0  2  0  0  0  0  0  0  0  0  0
   27.9694   34.5934   19.1549 C   0  0  2  0  0  0  0  0  0  0  0  0
   28.0001   35.9272   19.4076 N   0  0  0  0  0  0  0  0  0  0  0  0
   26.5528   40.3605   22.2930 C   0  0  0  0  0  0  0  0  0  0  0  0
   28.9609   40.2464   22.8959 C   0  0  0  0  0  0  0  0  0  0  0  0
  1  2  1  0  0  0  0
  3  1  1  6  0  0  0
  3  4  1  0  0  0  0
  3  5  1  0  0  0  0
  5  6  1  6  0  0  0
  5  7  1  0  0  0  0
  7  8  1  1  0  0  0
  7  9  1  0  0  0  0
  9 27  1  0  0  0  0
 10 11  1  0  0  0  0
 11 12  2  0  0  0  0
 11 13  1  0  0  0  0
 13 14  1  0  0  0  0
 14 16  2  0  0  0  0
 15 14  1  1  0  0  0
 15 18  1  0  0  0  0
 15 26  1  0  0  0  0
 17 19  1  1  0  0  0
 17 25  1  0  0  0  0
 17 18  1  0  0  0  0
 19 20  1  0  0  0  0
 20 21  1  6  0  0  0
 20 22  1  0  0  0  0
 22 23  1  6  0  0  0
 22 24  1  0  0  0  0
 23 28  1  0  0  0  0
 23 29  1  0  0  0  0
 25 24  1  6  0  0  0
 25 27  1  0  0  0  0
 26 10  1  6  0  0  0
 26 27  1  0  0  0  0
M  END
>  <CHROM.1>
169.32021585,62.83817013,65.12932457,137.76619061,-94.95253053,103.68084817
28.63314501,36.03423651,19.34246697,-0.83681961,1.06847422,0.54781223

>  <Name>
ligand

>  <RI>
0

>  <Rbt.Current_Directory>
/home/itssahil/PROJECTS/Mol_Feturizer/New_Systems/rnas/3F4H

>  <Rbt.Executable>
rbdock ($Id: //depot/dev/client3/rdock/2013.1/src/exe/rbdock.cxx#4 $)

>  <Rbt.Library>
libRbt.so (2013.1, Build901 2013/11/27)

>  <Rbt.Parameter_File>
/export/apps/rDock/src/rDock_2013.1_src/data/scripts/dock_solv.prm

>  <Rbt.Receptor>
prm/pocket_docking_7.prm

>  <SCORE>
-44.61

>  <SCORE.INTER>
-28.8964

>  <SCORE.INTER.CONST>
1

>  <SCORE.INTER.POLAR>
0

>  <SCORE.INTER.ROT>
6

>  <SCORE.INTER.SOLV>
10.6823

>  <SCORE.INTER.VDW>
-30.425

>  <SCORE.INTER.norm>
-0.996426

>  <SCORE.INTRA>
-15.7137

>  <SCORE.INTRA.DIHEDRAL>
-0.0884432

>  <SCORE.INTRA.DIHEDRAL.0>
6.83446

>  <SCORE.INTRA.POLAR>
0

>  <SCORE.INTRA.POLAR.0>
0

>  <SCORE.INTRA.REPUL>
0

>  <SCORE.INTRA.REPUL.0>
0

>  <SCORE.INTRA.SOLV>
0.0945757

>  <SCORE.INTRA.SOLV.lig_0>
-26.4601

>  <SCORE.INTRA.VDW>
-15.7167

>  <SCORE.INTRA.VDW.0>
13.7853

>  <SCORE.INTRA.norm>
-0.541851

>  <SCORE.RESTR>
0

>  <SCORE.RESTR.CAVITY>
0

>  <SCORE.RESTR.norm>
0

>  <SCORE.SYSTEM>
0

>  <SCORE.SYSTEM.CONST>
0

>  <SCORE.SYSTEM.DIHEDRAL>
0

>  <SCORE.SYSTEM.SOLV>
0

>  <SCORE.SYSTEM.norm>
0

>  <SCORE.heavy>
29

>  <SCORE.norm>
-1.53828

>  <RMSD>
2.421

$$$$
ligand
 OpenBabel11021811473D
libRbt.so/2013.1/901 2013/11/27
 29 31  0  0  0  0  0  0  0  0999 V2000
   31.4760   37.0283   14.4170 C   0  0  0  0  0  0  0  0  0  0  0  0
   30.8273   35.9550   13.7269 O   0  0  0  0  0  0  0  0  0  0  0  0
   31.3768   36.7940   15.9181 C   0  0  1  0  0  0  0  0  0  0  0  0
   32.1962   37.7515   16.5814 O   0  0  0  0  0  0  0  0  0  0  0  0
   29.9324   36.9199   16.3852 C   0  0  1  0  0  0  0  0  0  0  0  0
   29.1945   35.8789   15.7554 O   0  0  0  0  0  0  0  0  0  0  0  0
   29.7351   36.8584   17.9028 C   0  0  1  0  0  0  0  0  0  0  0  0
   30.3847   37.9870   18.4892 O   0  0  0  0  0  0  0  0  0  0  0  0
   28.2680   36.8812   18.3270 C   0  0  0  0  0  0  0  0  0  0  0  0
   28.2131   34.0881   17.9190 N   0  0  0  0  0  0  0  0  0  0  0  0
   28.1983   32.7449   17.6872 C   0  0  0  0  0  0  0  0  0  0  0  0
   28.3759   32.2979   16.5265 O   0  0  0  0  0  0  0  0  0  0  0  0
   27.9860   31.8751   18.7071 N   0  0  0  0  0  0  0  0  0  0  0  0
   27.7856   32.3214   19.9726 C   0  0  0  0  0  0  0  0  0  0  0  0
   27.7994   33.6886   20.2242 C   0  0  1  0  0  0  0  0  0  0  0  0
   27.5875   31.5126   20.9129 O   0  0  0  0  0  0  0  0  0  0  0  0
   27.6214   35.4694   21.7250 C   0  0  1  0  0  0  0  0  0  0  0  0
   27.6060   34.1429   21.4815 N   0  0  0  0  0  0  0  0  0  0  0  0
   27.4209   35.9283   23.0222 C   0  0  0  0  0  0  0  0  0  0  0  0
   27.4337   37.2896   23.3054 C   0  0  2  0  0  0  0  0  0  0  0  0
   27.2084   37.7175   24.7329 C   0  0  0  0  0  0  0  0  0  0  0  0
   27.6513   38.2116   22.2736 C   0  0  2  0  0  0  0  0  0  0  0  0
   27.6773   39.5634   22.4762 N   0  0  0  0  0  0  0  0  0  0  0  0
   27.8503   37.7345   20.9723 C   0  0  0  0  0  0  0  0  0  0  0  0
   27.8371   36.3703   20.6835 C   0  0  2  0  0  0  0  0  0  0  0  0
   28.0194   34.5859   19.1745 C   0  0  2  0  0  0  0  0  0  0  0  0
   28.0272   35.9211   19.4217 N   0  0  0  0  0  0  0  0  0  0  0  0
   28.9110   40.2051   22.8891 C   0  0  0  0  0  0  0  0  0  0  0  0
   26.5075   40.4061   22.2907 C   0  0  0  0  0  0  0  0  0  0  0  0
  1  2  1  0  0  0  0
  3  1  1  6  0  0  0
  3  4  1  0  0  0  0
  3  5  1  0  0  0  0
  5  6  1  6  0  0  0
  5  7  1  0  0  0  0
  7  8  1  1  0  0  0
  7  9  1  0  0  0  0
  9 27  1  0  0  0  0
 10 11  1  0  0  0  0
 11 12  2  0  0  0  0
 11 13  1  0  0  0  0
 13 14  1  0  0  0  0
 14 16  2  0  0  0  0
 15 14  1  1  0  0  0
 15 18  1  0  0  0  0
 15 26  1  0  0  0  0
 17 19  1  1  0  0  0
 17 25  1  0  0  0  0
 17 18  1  0  0  0  0
 19 20  1  0  0  0  0
 20 21  1  6  0  0  0
 20 22  1  0  0  0  0
 22 23  1  6  0  0  0
 22 24  1  0  0  0  0
 23 28  1  0  0  0  0
 23 29  1  0  0  0  0
 25 24  1  6  0  0  0
 25 27  1  0  0  0  0
 26 10  1  6  0  0  0
 26 27  1  0  0  0  0
M  END
>  <CHROM.1>
171.20549767,63.87115007,64.21960006,138.36925215,85.56039720,105.95687111
28.64553618,36.03012183,19.34804798,-0.79588797,1.07604633,0.51042382

>  <Name>
ligand

>  <RI>
0

>  <Rbt.Current_Directory>
/home/itssahil/PROJECTS/Mol_Feturizer/New_Systems/rnas/3F4H

>  <Rbt.Executable>
rbdock ($Id: //depot/dev/client3/rdock/2013.1/src/exe/rbdock.cxx#4 $)

>  <Rbt.Library>
libRbt.so (2013.1, Build901 2013/11/27)

>  <Rbt.Parameter_File>
/export/apps/rDock/src/rDock_2013.1_src/data/scripts/dock_solv.prm

>  <Rbt.Receptor>
prm/pocket_docking_5.prm

>  <SCORE>
-44.7973

>  <SCORE.INTER>
-29.0408

>  <SCORE.INTER.CONST>
1

>  <SCORE.INTER.POLAR>
0

>  <SCORE.INTER.ROT>
6

>  <SCORE.INTER.SOLV>
11.0251

>  <SCORE.INTER.VDW>
-30.6356

>  <SCORE.INTER.norm>
-1.00141

>  <SCORE.INTRA>
-15.7565

>  <SCORE.INTRA.DIHEDRAL>
-0.285101

>  <SCORE.INTRA.DIHEDRAL.0>
6.83446

>  <SCORE.INTRA.POLAR>
0

>  <SCORE.INTRA.POLAR.0>
0

>  <SCORE.INTRA.REPUL>
0

>  <SCORE.INTRA.REPUL.0>
0

>  <SCORE.INTRA.SOLV>
0.106239

>  <SCORE.INTRA.SOLV.lig_0>
-26.4601

>  <SCORE.INTRA.VDW>
-15.667

>  <SCORE.INTRA.VDW.0>
13.7853

>  <SCORE.INTRA.norm>
-0.543326

>  <SCORE.RESTR>
0

>  <SCORE.RESTR.CAVITY>
0

>  <SCORE.RESTR.norm>
0

>  <SCORE.SYSTEM>
0

>  <SCORE.SYSTEM.CONST>
0

>  <SCORE.SYSTEM.DIHEDRAL>
0

>  <SCORE.SYSTEM.SOLV>
0

>  <SCORE.SYSTEM.norm>
0

>  <SCORE.heavy>
29

>  <SCORE.norm>
-1.54473

>  <RMSD>
2.423

$$$$
ligand
 OpenBabel11021811473D
libRbt.so/2013.1/901 2013/11/27
 29 31  0  0  0  0  0  0  0  0999 V2000
   32.4770   38.3056   18.0061 C   0  0  0  0  0  0  0  0  0  0  0  0
   33.8553   37.9246   17.9414 O   0  0  0  0  0  0  0  0  0  0  0  0
   31.7183   37.6447   16.8634 C   0  0  1  0  0  0  0  0  0  0  0  0
   32.0835   36.2690   16.8127 O   0  0  0  0  0  0  0  0  0  0  0  0
   30.2153   37.7857   17.0664 C   0  0  1  0  0  0  0  0  0  0  0  0
   29.5799   37.0218   16.0479 O   0  0  0  0  0  0  0  0  0  0  0  0
   29.7045   37.3515   18.4434 C   0  0  1  0  0  0  0  0  0  0  0  0
   29.8680   38.4422   19.3508 O   0  0  0  0  0  0  0  0  0  0  0  0
   28.2315   36.9477   18.4464 C   0  0  0  0  0  0  0  0  0  0  0  0
   28.1738   34.1664   17.9646 N   0  0  0  0  0  0  0  0  0  0  0  0
   28.1583   32.8298   17.6976 C   0  0  0  0  0  0  0  0  0  0  0  0
   28.3582   32.4123   16.5296 O   0  0  0  0  0  0  0  0  0  0  0  0
   27.9214   31.9347   18.6899 N   0  0  0  0  0  0  0  0  0  0  0  0
   27.6965   32.3489   19.9622 C   0  0  0  0  0  0  0  0  0  0  0  0
   27.7105   33.7090   20.2496 C   0  0  1  0  0  0  0  0  0  0  0  0
   27.4755   31.5169   20.8767 O   0  0  0  0  0  0  0  0  0  0  0  0
   27.5086   35.4510   21.7923 C   0  0  1  0  0  0  0  0  0  0  0  0
   27.4929   34.1313   21.5140 N   0  0  0  0  0  0  0  0  0  0  0  0
   27.2830   35.8770   23.0966 C   0  0  0  0  0  0  0  0  0  0  0  0
   27.2954   37.2304   23.4155 C   0  0  2  0  0  0  0  0  0  0  0  0
   27.0421   37.6220   24.8486 C   0  0  0  0  0  0  0  0  0  0  0  0
   27.5382   38.1778   22.4128 C   0  0  2  0  0  0  0  0  0  0  0  0
   27.5654   39.5238   22.6510 N   0  0  0  0  0  0  0  0  0  0  0  0
   27.7623   37.7339   21.1039 C   0  0  0  0  0  0  0  0  0  0  0  0
   27.7495   36.3777   20.7793 C   0  0  2  0  0  0  0  0  0  0  0  0
   27.9560   34.6323   19.2285 C   0  0  2  0  0  0  0  0  0  0  0  0
   27.9640   35.9606   19.5105 N   0  0  0  0  0  0  0  0  0  0  0  0
   26.4287   40.3435   22.2762 C   0  0  0  0  0  0  0  0  0  0  0  0
   28.6978   40.1859   23.2773 C   0  0  0  0  0  0  0  0  0  0  0  0
  1  2  1  0  0  0  0
  3  1  1  1  0  0  0
  3  4  1  0  0  0  0
  3  5  1  0  0  0  0
  5  6  1  6  0  0  0
  5  7  1  0  0  0  0
  7  8  1  1  0  0  0
  7  9  1  0  0  0  0
  9 27  1  0  0  0  0
 10 11  1  0  0  0  0
 11 12  2  0  0  0  0
 11 13  1  0  0  0  0
 13 14  1  0  0  0  0
 14 16  2  0  0  0  0
 15 14  1  1  0  0  0
 15 18  1  0  0  0  0
 15 26  1  0  0  0  0
 17 19  1  1  0  0  0
 17 25  1  0  0  0  0
 17 18  1  0  0  0  0
 19 20  1  0  0  0  0
 20 21  1  6  0  0  0
 20 22  1  0  0  0  0
 22 23  1  6  0  0  0
 22 24  1  0  0  0  0
 23 28  1  0  0  0  0
 23 29  1  0  0  0  0
 25 24  1  6  0  0  0
 25 27  1  0  0  0  0
 26 10  1  6  0  0  0
 26 27  1  0  0  0  0
M  END
>  <CHROM.1>
46.95970567,-173.65500810,83.90117268,151.99138493,-102.80478039,82.71401656
28.74549874,36.23662368,19.82396104,-0.96541648,0.87286347,0.55330862

>  <Name>
ligand

>  <RI>
0

>  <Rbt.Current_Directory>
/home/itssahil/PROJECTS/Mol_Feturizer/New_Systems/rnas/3F4H

>  <Rbt.Executable>
rbdock ($Id: //depot/dev/client3/rdock/2013.1/src/exe/rbdock.cxx#4 $)

>  <Rbt.Library>
libRbt.so (2013.1, Build901 2013/11/27)

>  <Rbt.Parameter_File>
/export/apps/rDock/src/rDock_2013.1_src/data/scripts/dock_solv.prm

>  <Rbt.Receptor>
prm/pocket_docking_7.prm

>  <SCORE>
-44.576

>  <SCORE.INTER>
-30.0054

>  <SCORE.INTER.CONST>
1

>  <SCORE.INTER.POLAR>
0

>  <SCORE.INTER.ROT>
6

>  <SCORE.INTER.SOLV>
11.1399

>  <SCORE.INTER.VDW>
-31.3169

>  <SCORE.INTER.norm>
-1.03467

>  <SCORE.INTRA>
-14.5706

>  <SCORE.INTRA.DIHEDRAL>
0.104636

>  <SCORE.INTRA.DIHEDRAL.0>
6.83446

>  <SCORE.INTRA.POLAR>
0

>  <SCORE.INTRA.POLAR.0>
0

>  <SCORE.INTRA.REPUL>
0

>  <SCORE.INTRA.REPUL.0>
0

>  <SCORE.INTRA.SOLV>
-0.165108

>  <SCORE.INTRA.SOLV.lig_0>
-26.4601

>  <SCORE.INTRA.VDW>
-14.5403

>  <SCORE.INTRA.VDW.0>
13.7853

>  <SCORE.INTRA.norm>
-0.502434

>  <SCORE.RESTR>
0

>  <SCORE.RESTR.CAVITY>
0

>  <SCORE.RESTR.norm>
0

>  <SCORE.SYSTEM>
0

>  <SCORE.SYSTEM.CONST>
0

>  <SCORE.SYSTEM.DIHEDRAL>
0

>  <SCORE.SYSTEM.SOLV>
0

>  <SCORE.SYSTEM.norm>
0

>  <SCORE.heavy>
29

>  <SCORE.norm>
-1.5371

>  <RMSD>
2.425

$$$$
ligand
 OpenBabel11021811473D
libRbt.so/2013.1/901 2013/11/27
 29 31  0  0  0  0  0  0  0  0999 V2000
   31.1932   36.1576   14.8406 C   0  0  0  0  0  0  0  0  0  0  0  0
   32.5100   36.7186   14.8597 O   0  0  0  0  0  0  0  0  0  0  0  0
   30.2891   36.9648   15.7621 C   0  0  1  0  0  0  0  0  0  0  0  0
   28.9374   36.5942   15.5093 O   0  0  0  0  0  0  0  0  0  0  0  0
   30.6443   36.7071   17.2208 C   0  0  1  0  0  0  0  0  0  0  0  0
   32.0118   37.0622   17.3896 O   0  0  0  0  0  0  0  0  0  0  0  0
   29.7787   37.4544   18.2396 C   0  0  1  0  0  0  0  0  0  0  0  0
   29.8071   38.8466   17.9222 O   0  0  0  0  0  0  0  0  0  0  0  0
   28.3208   36.9991   18.2495 C   0  0  0  0  0  0  0  0  0  0  0  0
   28.2714   34.2163   17.7753 N   0  0  0  0  0  0  0  0  0  0  0  0
   28.2590   32.8790   17.5117 C   0  0  0  0  0  0  0  0  0  0  0  0
   28.4299   32.4603   16.3395 O   0  0  0  0  0  0  0  0  0  0  0  0
   28.0564   31.9844   18.5120 N   0  0  0  0  0  0  0  0  0  0  0  0
   27.8634   32.3998   19.7891 C   0  0  0  0  0  0  0  0  0  0  0  0
   27.8748   33.7607   20.0732 C   0  0  1  0  0  0  0  0  0  0  0  0
   27.6742   31.5683   20.7112 O   0  0  0  0  0  0  0  0  0  0  0  0
   27.7018   35.5047   21.6172 C   0  0  1  0  0  0  0  0  0  0  0  0
   27.6887   34.1843   21.3422 N   0  0  0  0  0  0  0  0  0  0  0  0
   27.5089   35.9319   22.9263 C   0  0  0  0  0  0  0  0  0  0  0  0
   27.5196   37.2862   23.2418 C   0  0  2  0  0  0  0  0  0  0  0  0
   27.3029   37.6792   24.6805 C   0  0  0  0  0  0  0  0  0  0  0  0
   27.7273   38.2331   22.2308 C   0  0  2  0  0  0  0  0  0  0  0  0
   27.7506   39.5798   22.4654 N   0  0  0  0  0  0  0  0  0  0  0  0
   27.9188   37.7878   20.9172 C   0  0  0  0  0  0  0  0  0  0  0  0
   27.9076   36.4309   20.5960 C   0  0  2  0  0  0  0  0  0  0  0  0
   28.0849   34.6835   19.0437 C   0  0  2  0  0  0  0  0  0  0  0  0
   28.0904   36.0124   19.3226 N   0  0  0  0  0  0  0  0  0  0  0  0
   26.5478   40.3655   22.2649 C   0  0  0  0  0  0  0  0  0  0  0  0
   28.9437   40.2757   22.9183 C   0  0  0  0  0  0  0  0  0  0  0  0
  1  2  1  0  0  0  0
  3  1  1  6  0  0  0
  3  4  1  0  0  0  0
  3  5  1  0  0  0  0
  5  6  1  6  0  0  0
  5  7  1  0  0  0  0
  7  8  1  6  0  0  0
  7  9  1  0  0  0  0
  9 27  1  0  0  0  0
 10 11  1  0  0  0  0
 11 12  2  0  0  0  0
 11 13  1  0  0  0  0
 13 14  1  0  0  0  0
 14 16  2  0  0  0  0
 15 14  1  1  0  0  0
 15 18  1  0  0  0  0
 15 26  1  0  0  0  0
 17 19  1  1  0  0  0
 17 25  1  0  0  0  0
 17 18  1  0  0  0  0
 19 20  1  0  0  0  0
 20 21  1  6  0  0  0
 20 22  1  0  0  0  0
 22 23  1  6  0  0  0
 22 24  1  0  0  0  0
 23 28  1  0  0  0  0
 23 29  1  0  0  0  0
 25 24  1  6  0  0  0
 25 27  1  0  0  0  0
 26 10  1  6  0  0  0
 26 27  1  0  0  0  0
M  END
>  <CHROM.1>
167.12808482,58.26982670,-53.87135204,97.03101018,-95.75188769,80.54487356
28.69999952,36.12668132,19.36765191,-0.85125164,1.05665772,0.48861254

>  <Name>
ligand

>  <RI>
0

>  <Rbt.Current_Directory>
/home/itssahil/PROJECTS/Mol_Feturizer/New_Systems/rnas/3F4H

>  <Rbt.Executable>
rbdock ($Id: //depot/dev/client3/rdock/2013.1/src/exe/rbdock.cxx#4 $)

>  <Rbt.Library>
libRbt.so (2013.1, Build901 2013/11/27)

>  <Rbt.Parameter_File>
/export/apps/rDock/src/rDock_2013.1_src/data/scripts/dock_solv.prm

>  <Rbt.Receptor>
prm/pocket_docking_8.prm

>  <SCORE>
-43.3857

>  <SCORE.INTER>
-27.6118

>  <SCORE.INTER.CONST>
1

>  <SCORE.INTER.POLAR>
0

>  <SCORE.INTER.ROT>
6

>  <SCORE.INTER.SOLV>
10.453

>  <SCORE.INTER.VDW>
-29.4922

>  <SCORE.INTER.norm>
-0.952132

>  <SCORE.INTRA>
-15.7739

>  <SCORE.INTRA.DIHEDRAL>
-0.530416

>  <SCORE.INTRA.DIHEDRAL.0>
6.83446

>  <SCORE.INTRA.POLAR>
0

>  <SCORE.INTRA.POLAR.0>
0

>  <SCORE.INTRA.REPUL>
0

>  <SCORE.INTRA.REPUL.0>
0

>  <SCORE.INTRA.SOLV>
0.00901029

>  <SCORE.INTRA.SOLV.lig_0>
-26.4601

>  <SCORE.INTRA.VDW>
-15.5131

>  <SCORE.INTRA.VDW.0>
13.7853

>  <SCORE.INTRA.norm>
-0.543926

>  <SCORE.RESTR>
0

>  <SCORE.RESTR.CAVITY>
0

>  <SCORE.RESTR.norm>
0

>  <SCORE.SYSTEM>
0

>  <SCORE.SYSTEM.CONST>
0

>  <SCORE.SYSTEM.DIHEDRAL>
0

>  <SCORE.SYSTEM.SOLV>
0

>  <SCORE.SYSTEM.norm>
0

>  <SCORE.heavy>
29

>  <SCORE.norm>
-1.49606

>  <RMSD>
2.425

$$$$
ligand
 OpenBabel11021811473D
libRbt.so/2013.1/901 2013/11/27
 29 31  0  0  0  0  0  0  0  0999 V2000
   32.4972   38.3021   18.0038 C   0  0  0  0  0  0  0  0  0  0  0  0
   33.8778   37.9286   17.9461 O   0  0  0  0  0  0  0  0  0  0  0  0
   31.7348   37.5824   16.8997 C   0  0  1  0  0  0  0  0  0  0  0  0
   32.0892   36.2033   16.9290 O   0  0  0  0  0  0  0  0  0  0  0  0
   30.2326   37.7467   17.0916 C   0  0  1  0  0  0  0  0  0  0  0  0
   29.5931   36.9857   16.0734 O   0  0  0  0  0  0  0  0  0  0  0  0
   29.7063   37.3286   18.4677 C   0  0  1  0  0  0  0  0  0  0  0  0
   29.8407   38.4365   19.3589 O   0  0  0  0  0  0  0  0  0  0  0  0
   28.2390   36.9046   18.4548 C   0  0  0  0  0  0  0  0  0  0  0  0
   28.1737   34.1226   17.9779 N   0  0  0  0  0  0  0  0  0  0  0  0
   28.1546   32.7856   17.7132 C   0  0  0  0  0  0  0  0  0  0  0  0
   28.3508   32.3656   16.5455 O   0  0  0  0  0  0  0  0  0  0  0  0
   27.9180   31.8927   18.7076 N   0  0  0  0  0  0  0  0  0  0  0  0
   27.6971   32.3096   19.9797 C   0  0  0  0  0  0  0  0  0  0  0  0
   27.7149   33.6702   20.2648 C   0  0  1  0  0  0  0  0  0  0  0  0
   27.4764   31.4797   20.8963 O   0  0  0  0  0  0  0  0  0  0  0  0
   27.5207   35.4153   21.8050 C   0  0  1  0  0  0  0  0  0  0  0  0
   27.5013   34.0952   21.5290 N   0  0  0  0  0  0  0  0  0  0  0  0
   27.2992   35.8440   23.1091 C   0  0  0  0  0  0  0  0  0  0  0  0
   27.3154   37.1980   23.4256 C   0  0  2  0  0  0  0  0  0  0  0  0
   27.0665   37.5927   24.8586 C   0  0  0  0  0  0  0  0  0  0  0  0
   27.5580   38.1431   22.4207 C   0  0  2  0  0  0  0  0  0  0  0  0
   27.5889   39.4894   22.6566 N   0  0  0  0  0  0  0  0  0  0  0  0
   27.7780   37.6964   21.1120 C   0  0  0  0  0  0  0  0  0  0  0  0
   27.7613   36.3397   20.7898 C   0  0  2  0  0  0  0  0  0  0  0  0
   27.9601   34.5912   19.2415 C   0  0  2  0  0  0  0  0  0  0  0  0
   27.9718   35.9199   19.5212 N   0  0  0  0  0  0  0  0  0  0  0  0
   26.4349   40.3040   22.3260 C   0  0  0  0  0  0  0  0  0  0  0  0
   28.7422   40.1569   23.2372 C   0  0  0  0  0  0  0  0  0  0  0  0
  1  2  1  0  0  0  0
  3  1  1  1  0  0  0
  3  4  1  0  0  0  0
  3  5  1  0  0  0  0
  5  6  1  6  0  0  0
  5  7  1  0  0  0  0
  7  8  1  1  0  0  0
  7  9  1  0  0  0  0
  9 27  1  0  0  0  0
 10 11  1  0  0  0  0
 11 12  2  0  0  0  0
 11 13  1  0  0  0  0
 13 14  1  0  0  0  0
 14 16  2  0  0  0  0
 15 14  1  1  0  0  0
 15 18  1  0  0  0  0
 15 26  1  0  0  0  0
 17 19  1  1  0  0  0
 17 25  1  0  0  0  0
 17 18  1  0  0  0  0
 19 20  1  0  0  0  0
 20 21  1  6  0  0  0
 20 22  1  0  0  0  0
 22 23  1  6  0  0  0
 22 24  1  0  0  0  0
 23 28  1  0  0  0  0
 23 29  1  0  0  0  0
 25 24  1  6  0  0  0
 25 27  1  0  0  0  0
 26 10  1  6  0  0  0
 26 27  1  0  0  0  0
M  END
>  <CHROM.1>
48.15328614,-176.64165669,85.70559887,151.32728518,-100.65397307,81.44347955
28.75509415,36.20148122,19.84127302,-0.98468085,0.87059083,0.55504620

>  <Name>
ligand

>  <RI>
0

>  <Rbt.Current_Directory>
/home/itssahil/PROJECTS/Mol_Feturizer/New_Systems/rnas/3F4H

>  <Rbt.Executable>
rbdock ($Id: //depot/dev/client3/rdock/2013.1/src/exe/rbdock.cxx#4 $)

>  <Rbt.Library>
libRbt.so (2013.1, Build901 2013/11/27)

>  <Rbt.Parameter_File>
/export/apps/rDock/src/rDock_2013.1_src/data/scripts/dock_solv.prm

>  <Rbt.Receptor>
prm/pocket_docking_7.prm

>  <SCORE>
-44.4835

>  <SCORE.INTER>
-29.7996

>  <SCORE.INTER.CONST>
1

>  <SCORE.INTER.POLAR>
0

>  <SCORE.INTER.ROT>
6

>  <SCORE.INTER.SOLV>
11.3124

>  <SCORE.INTER.VDW>
-31.2372

>  <SCORE.INTER.norm>
-1.02757

>  <SCORE.INTRA>
-14.684

>  <SCORE.INTRA.DIHEDRAL>
0.235426

>  <SCORE.INTRA.DIHEDRAL.0>
6.83446

>  <SCORE.INTRA.POLAR>
0

>  <SCORE.INTRA.POLAR.0>
0

>  <SCORE.INTRA.REPUL>
0

>  <SCORE.INTRA.REPUL.0>
0

>  <SCORE.INTRA.SOLV>
-0.148909

>  <SCORE.INTRA.SOLV.lig_0>
-26.4601

>  <SCORE.INTRA.VDW>
-14.7272

>  <SCORE.INTRA.VDW.0>
13.7853

>  <SCORE.INTRA.norm>
-0.506343

>  <SCORE.RESTR>
0

>  <SCORE.RESTR.CAVITY>
0

>  <SCORE.RESTR.norm>
0

>  <SCORE.SYSTEM>
0

>  <SCORE.SYSTEM.CONST>
0

>  <SCORE.SYSTEM.DIHEDRAL>
0

>  <SCORE.SYSTEM.SOLV>
0

>  <SCORE.SYSTEM.norm>
0

>  <SCORE.heavy>
29

>  <SCORE.norm>
-1.53391

>  <RMSD>
2.440

$$$$
ligand
 OpenBabel11021811473D
libRbt.so/2013.1/901 2013/11/27
 29 31  0  0  0  0  0  0  0  0999 V2000
   31.8570   36.1773   16.0506 C   0  0  0  0  0  0  0  0  0  0  0  0
   33.2391   36.5335   15.9416 O   0  0  0  0  0  0  0  0  0  0  0  0
   31.2091   37.0064   17.1510 C   0  0  1  0  0  0  0  0  0  0  0  0
   31.2610   38.3790   16.7743 O   0  0  0  0  0  0  0  0  0  0  0  0
   29.7655   36.5720   17.3691 C   0  0  1  0  0  0  0  0  0  0  0  0
   29.7921   35.2022   17.7533 O   0  0  0  0  0  0  0  0  0  0  0  0
   28.9921   37.3926   18.4055 C   0  0  1  0  0  0  0  0  0  0  0  0
   28.9280   38.7460   17.9542 O   0  0  0  0  0  0  0  0  0  0  0  0
   27.5644   36.8986   18.6302 C   0  0  0  0  0  0  0  0  0  0  0  0
   27.3978   34.1337   18.0835 N   0  0  0  0  0  0  0  0  0  0  0  0
   27.3222   32.8062   17.7836 C   0  0  0  0  0  0  0  0  0  0  0  0
   27.2667   32.4267   16.5871 O   0  0  0  0  0  0  0  0  0  0  0  0
   27.3005   31.8791   18.7745 N   0  0  0  0  0  0  0  0  0  0  0  0
   27.3538   32.2519   20.0780 C   0  0  0  0  0  0  0  0  0  0  0  0
   27.4324   33.6023   20.3990 C   0  0  1  0  0  0  0  0  0  0  0  0
   27.3313   31.3904   20.9917 O   0  0  0  0  0  0  0  0  0  0  0  0
   27.5694   35.2937   22.0039 C   0  0  1  0  0  0  0  0  0  0  0  0
   27.4912   33.9834   21.6935 N   0  0  0  0  0  0  0  0  0  0  0  0
   27.6289   35.6772   23.3392 C   0  0  0  0  0  0  0  0  0  0  0  0
   27.7127   37.0198   23.6909 C   0  0  2  0  0  0  0  0  0  0  0  0
   27.7726   37.3648   25.1568 C   0  0  0  0  0  0  0  0  0  0  0  0
   27.7380   37.9996   22.6902 C   0  0  2  0  0  0  0  0  0  0  0  0
   27.8190   39.3374   22.9599 N   0  0  0  0  0  0  0  0  0  0  0  0
   27.6760   37.5983   21.3502 C   0  0  0  0  0  0  0  0  0  0  0  0
   27.5907   36.2530   20.9928 C   0  0  2  0  0  0  0  0  0  0  0  0
   27.4564   34.5585   19.3789 C   0  0  2  0  0  0  0  0  0  0  0  0
   27.5280   35.8771   19.6949 N   0  0  0  0  0  0  0  0  0  0  0  0
   26.6560   40.0403   23.4678 C   0  0  0  0  0  0  0  0  0  0  0  0
   29.0380   40.1041   22.7624 C   0  0  0  0  0  0  0  0  0  0  0  0
  1  2  1  0  0  0  0
  3  1  1  6  0  0  0
  3  4  1  0  0  0  0
  3  5  1  0  0  0  0
  5  6  1  1  0  0  0
  5  7  1  0  0  0  0
  7  8  1  6  0  0  0
  7  9  1  0  0  0  0
  9 27  1  0  0  0  0
 10 11  1  0  0  0  0
 11 12  2  0  0  0  0
 11 13  1  0  0  0  0
 13 14  1  0  0  0  0
 14 16  2  0  0  0  0
 15 14  1  6  0  0  0
 15 18  1  0  0  0  0
 15 26  1  0  0  0  0
 17 19  1  6  0  0  0
 17 25  1  0  0  0  0
 17 18  1  0  0  0  0
 19 20  1  0  0  0  0
 20 21  1  1  0  0  0
 20 22  1  0  0  0  0
 22 23  1  1  0  0  0
 22 24  1  0  0  0  0
 23 28  1  0  0  0  0
 23 29  1  0  0  0  0
 25 24  1  1  0  0  0
 25 27  1  0  0  0  0
 26 10  1  1  0  0  0
 26 27  1  0  0  0  0
M  END
>  <CHROM.1>
63.43019570,60.46705001,61.75564010,89.27702347,-74.41368256,78.03813469
28.46678998,35.98280927,19.84444425,-1.02360757,0.96532267,0.65184782

>  <Name>
ligand

>  <RI>
0

>  <Rbt.Current_Directory>
/home/itssahil/PROJECTS/Mol_Feturizer/New_Systems/rnas/3F4H

>  <Rbt.Executable>
rbdock ($Id: //depot/dev/client3/rdock/2013.1/src/exe/rbdock.cxx#4 $)

>  <Rbt.Library>
libRbt.so (2013.1, Build901 2013/11/27)

>  <Rbt.Parameter_File>
/export/apps/rDock/src/rDock_2013.1_src/data/scripts/dock_solv.prm

>  <Rbt.Receptor>
prm/pocket_docking_7.prm

>  <SCORE>
-43.9321

>  <SCORE.INTER>
-27.1552

>  <SCORE.INTER.CONST>
1

>  <SCORE.INTER.POLAR>
0

>  <SCORE.INTER.ROT>
6

>  <SCORE.INTER.SOLV>
11.3944

>  <SCORE.INTER.VDW>
-29.5016

>  <SCORE.INTER.norm>
-0.936386

>  <SCORE.INTRA>
-16.7769

>  <SCORE.INTRA.DIHEDRAL>
-2.2504

>  <SCORE.INTRA.DIHEDRAL.0>
6.83446

>  <SCORE.INTRA.POLAR>
0

>  <SCORE.INTRA.POLAR.0>
0

>  <SCORE.INTRA.REPUL>
0

>  <SCORE.INTRA.REPUL.0>
0

>  <SCORE.INTRA.SOLV>
-0.0979932

>  <SCORE.INTRA.SOLV.lig_0>
-26.4601

>  <SCORE.INTRA.VDW>
-15.6027

>  <SCORE.INTRA.VDW.0>
13.7853

>  <SCORE.INTRA.norm>
-0.578513

>  <SCORE.RESTR>
0

>  <SCORE.RESTR.CAVITY>
0

>  <SCORE.RESTR.norm>
0

>  <SCORE.SYSTEM>
0

>  <SCORE.SYSTEM.CONST>
0

>  <SCORE.SYSTEM.DIHEDRAL>
0

>  <SCORE.SYSTEM.SOLV>
0

>  <SCORE.SYSTEM.norm>
0

>  <SCORE.heavy>
29

>  <SCORE.norm>
-1.5149

>  <RMSD>
2.476

$$$$
ligand
 OpenBabel11021811473D
libRbt.so/2013.1/901 2013/11/27
 29 31  0  0  0  0  0  0  0  0999 V2000
   31.8791   36.1047   16.7504 C   0  0  0  0  0  0  0  0  0  0  0  0
   32.2371   35.1332   15.7621 O   0  0  0  0  0  0  0  0  0  0  0  0
   30.8139   37.0320   16.1817 C   0  0  1  0  0  0  0  0  0  0  0  0
   29.6644   36.2564   15.8569 O   0  0  0  0  0  0  0  0  0  0  0  0
   30.4533   38.1153   17.1900 C   0  0  1  0  0  0  0  0  0  0  0  0
   29.5224   38.9857   16.5572 O   0  0  0  0  0  0  0  0  0  0  0  0
   29.8763   37.6024   18.5127 C   0  0  1  0  0  0  0  0  0  0  0  0
   29.8913   38.6729   19.4579 O   0  0  0  0  0  0  0  0  0  0  0  0
   28.4412   37.0936   18.3938 C   0  0  0  0  0  0  0  0  0  0  0  0
   28.4236   34.3209   17.8617 N   0  0  0  0  0  0  0  0  0  0  0  0
   28.4283   32.9892   17.5709 C   0  0  0  0  0  0  0  0  0  0  0  0
   28.6608   32.5946   16.4009 O   0  0  0  0  0  0  0  0  0  0  0  0
   28.1765   32.0742   18.5411 N   0  0  0  0  0  0  0  0  0  0  0  0
   27.9166   32.4634   19.8146 C   0  0  0  0  0  0  0  0  0  0  0  0
   27.9097   33.8182   20.1263 C   0  0  1  0  0  0  0  0  0  0  0  0
   27.6820   31.6130   20.7087 O   0  0  0  0  0  0  0  0  0  0  0  0
   27.6526   35.5303   21.6941 C   0  0  1  0  0  0  0  0  0  0  0  0
   27.6571   34.2157   21.3922 N   0  0  0  0  0  0  0  0  0  0  0  0
   27.3910   35.9306   22.9998 C   0  0  0  0  0  0  0  0  0  0  0  0
   27.3818   37.2782   23.3427 C   0  0  2  0  0  0  0  0  0  0  0  0
   27.0899   37.6417   24.7759 C   0  0  0  0  0  0  0  0  0  0  0  0
   27.6392   38.2457   22.3631 C   0  0  2  0  0  0  0  0  0  0  0  0
   27.6468   39.5874   22.6256 N   0  0  0  0  0  0  0  0  0  0  0  0
   27.8995   37.8275   21.0524 C   0  0  0  0  0  0  0  0  0  0  0  0
   27.9085   36.4773   20.7038 C   0  0  2  0  0  0  0  0  0  0  0  0
   28.1705   34.7620   19.1279 C   0  0  2  0  0  0  0  0  0  0  0  0
   28.1580   36.0850   19.4334 N   0  0  0  0  0  0  0  0  0  0  0  0
   26.4802   40.3890   22.3080 C   0  0  0  0  0  0  0  0  0  0  0  0
   28.7873   40.2625   23.2226 C   0  0  0  0  0  0  0  0  0  0  0  0
  1  2  1  0  0  0  0
  3  1  1  1  0  0  0
  3  4  1  0  0  0  0
  3  5  1  0  0  0  0
  5  6  1  6  0  0  0
  5  7  1  0  0  0  0
  7  8  1  1  0  0  0
  7  9  1  0  0  0  0
  9 27  1  0  0  0  0
 10 11  1  0  0  0  0
 11 12  2  0  0  0  0
 11 13  1  0  0  0  0
 13 14  1  0  0  0  0
 14 16  2  0  0  0  0
 15 14  1  1  0  0  0
 15 18  1  0  0  0  0
 15 26  1  0  0  0  0
 17 19  1  1  0  0  0
 17 25  1  0  0  0  0
 17 18  1  0  0  0  0
 19 20  1  0  0  0  0
 20 21  1  6  0  0  0
 20 22  1  0  0  0  0
 22 23  1  6  0  0  0
 22 24  1  0  0  0  0
 23 28  1  0  0  0  0
 23 29  1  0  0  0  0
 25 24  1  6  0  0  0
 25 27  1  0  0  0  0
 26 10  1  6  0  0  0
 26 27  1  0  0  0  0
M  END
>  <CHROM.1>
61.24931507,176.34881536,166.21571238,153.63143154,-99.25135955,77.71952073
28.66235591,36.20396464,19.60007091,-0.90377100,1.06716206,0.38753455

>  <Name>
ligand

>  <RI>
0

>  <Rbt.Current_Directory>
/home/itssahil/PROJECTS/Mol_Feturizer/New_Systems/rnas/3F4H

>  <Rbt.Executable>
rbdock ($Id: //depot/dev/client3/rdock/2013.1/src/exe/rbdock.cxx#4 $)

>  <Rbt.Library>
libRbt.so (2013.1, Build901 2013/11/27)

>  <Rbt.Parameter_File>
/export/apps/rDock/src/rDock_2013.1_src/data/scripts/dock_solv.prm

>  <Rbt.Receptor>
prm/pocket_docking_6.prm

>  <SCORE>
-44.3498

>  <SCORE.INTER>
-27.7453

>  <SCORE.INTER.CONST>
1

>  <SCORE.INTER.POLAR>
0

>  <SCORE.INTER.ROT>
6

>  <SCORE.INTER.SOLV>
9.39758

>  <SCORE.INTER.VDW>
-29.2294

>  <SCORE.INTER.norm>
-0.956735

>  <SCORE.INTRA>
-16.6045

>  <SCORE.INTRA.DIHEDRAL>
-1.96273

>  <SCORE.INTRA.DIHEDRAL.0>
6.83446

>  <SCORE.INTRA.POLAR>
0

>  <SCORE.INTRA.POLAR.0>
0

>  <SCORE.INTRA.REPUL>
0

>  <SCORE.INTRA.REPUL.0>
0

>  <SCORE.INTRA.SOLV>
0.0976128

>  <SCORE.INTRA.SOLV.lig_0>
-26.4601

>  <SCORE.INTRA.VDW>
-15.672

>  <SCORE.INTRA.VDW.0>
13.7853

>  <SCORE.INTRA.norm>
-0.57257

>  <SCORE.RESTR>
0

>  <SCORE.RESTR.CAVITY>
0

>  <SCORE.RESTR.norm>
0

>  <SCORE.SYSTEM>
0

>  <SCORE.SYSTEM.CONST>
0

>  <SCORE.SYSTEM.DIHEDRAL>
0

>  <SCORE.SYSTEM.SOLV>
0

>  <SCORE.SYSTEM.norm>
0

>  <SCORE.heavy>
29

>  <SCORE.norm>
-1.5293

>  <RMSD>
2.497

$$$$
ligand
 OpenBabel11021811473D
libRbt.so/2013.1/901 2013/11/27
 29 31  0  0  0  0  0  0  0  0999 V2000
   31.8224   35.9647   16.7383 C   0  0  0  0  0  0  0  0  0  0  0  0
   32.1642   34.9701   15.7672 O   0  0  0  0  0  0  0  0  0  0  0  0
   30.7702   36.8974   16.1542 C   0  0  1  0  0  0  0  0  0  0  0  0
   29.6089   36.1333   15.8447 O   0  0  0  0  0  0  0  0  0  0  0  0
   30.4273   38.0039   17.1434 C   0  0  1  0  0  0  0  0  0  0  0  0
   29.4987   38.8695   16.5006 O   0  0  0  0  0  0  0  0  0  0  0  0
   29.8568   37.5227   18.4807 C   0  0  1  0  0  0  0  0  0  0  0  0
   29.8962   38.6095   19.4064 O   0  0  0  0  0  0  0  0  0  0  0  0
   28.4135   37.0321   18.3852 C   0  0  0  0  0  0  0  0  0  0  0  0
   28.3667   34.2461   17.9299 N   0  0  0  0  0  0  0  0  0  0  0  0
   28.3573   32.9069   17.6760 C   0  0  0  0  0  0  0  0  0  0  0  0
   28.5823   32.4779   16.5167 O   0  0  0  0  0  0  0  0  0  0  0  0
   28.0992   32.0216   18.6718 N   0  0  0  0  0  0  0  0  0  0  0  0
   27.8469   32.4483   19.9347 C   0  0  0  0  0  0  0  0  0  0  0  0
   27.8545   33.8112   20.2089 C   0  0  1  0  0  0  0  0  0  0  0  0
   27.6065   31.6254   20.8526 O   0  0  0  0  0  0  0  0  0  0  0  0
   27.6190   35.5684   21.7295 C   0  0  1  0  0  0  0  0  0  0  0  0
   27.6096   34.2460   21.4641 N   0  0  0  0  0  0  0  0  0  0  0  0
   27.3654   36.0072   23.0243 C   0  0  0  0  0  0  0  0  0  0  0  0
   27.3706   37.3637   23.3299 C   0  0  2  0  0  0  0  0  0  0  0  0
   27.0865   37.7695   24.7533 C   0  0  0  0  0  0  0  0  0  0  0  0
   27.6347   38.3012   22.3233 C   0  0  2  0  0  0  0  0  0  0  0  0
   27.6565   39.6495   22.5487 N   0  0  0  0  0  0  0  0  0  0  0  0
   27.8871   37.8444   21.0240 C   0  0  0  0  0  0  0  0  0  0  0  0
   27.8816   36.4851   20.7128 C   0  0  2  0  0  0  0  0  0  0  0  0
   28.1217   34.7244   19.1841 C   0  0  2  0  0  0  0  0  0  0  0  0
   28.1234   36.0554   19.4531 N   0  0  0  0  0  0  0  0  0  0  0  0
   26.4767   40.4449   22.2664 C   0  0  0  0  0  0  0  0  0  0  0  0
   28.8254   40.3378   23.0712 C   0  0  0  0  0  0  0  0  0  0  0  0
  1  2  1  0  0  0  0
  3  1  1  1  0  0  0
  3  4  1  0  0  0  0
  3  5  1  0  0  0  0
  5  6  1  6  0  0  0
  5  7  1  0  0  0  0
  7  8  1  1  0  0  0
  7  9  1  0  0  0  0
  9 27  1  0  0  0  0
 10 11  1  0  0  0  0
 11 12  2  0  0  0  0
 11 13  1  0  0  0  0
 13 14  1  0  0  0  0
 14 16  2  0  0  0  0
 15 14  1  1  0  0  0
 15 18  1  0  0  0  0
 15 26  1  0  0  0  0
 17 19  1  1  0  0  0
 17 25  1  0  0  0  0
 17 18  1  0  0  0  0
 19 20  1  0  0  0  0
 20 21  1  6  0  0  0
 20 22  1  0  0  0  0
 22 23  1  6  0  0  0
 22 24  1  0  0  0  0
 23 28  1  0  0  0  0
 23 29  1  0  0  0  0
 25 24  1  6  0  0  0
 25 27  1  0  0  0  0
 26 10  1  6  0  0  0
 26 27  1  0  0  0  0
M  END
>  <CHROM.1>
61.23603287,176.89362434,165.86596850,154.14839523,-96.58550060,78.08853566
28.62746467,36.17501311,19.61168220,-0.92267950,1.06733049,0.37918356

>  <Name>
ligand

>  <RI>
0

>  <Rbt.Current_Directory>
/home/itssahil/PROJECTS/Mol_Feturizer/New_Systems/rnas/3F4H

>  <Rbt.Executable>
rbdock ($Id: //depot/dev/client3/rdock/2013.1/src/exe/rbdock.cxx#4 $)

>  <Rbt.Library>
libRbt.so (2013.1, Build901 2013/11/27)

>  <Rbt.Parameter_File>
/export/apps/rDock/src/rDock_2013.1_src/data/scripts/dock_solv.prm

>  <Rbt.Receptor>
prm/pocket_docking_7.prm

>  <SCORE>
-44.3756

>  <SCORE.INTER>
-27.6633

>  <SCORE.INTER.CONST>
1

>  <SCORE.INTER.POLAR>
0

>  <SCORE.INTER.ROT>
6

>  <SCORE.INTER.SOLV>
9.3787

>  <SCORE.INTER.VDW>
-29.1684

>  <SCORE.INTER.norm>
-0.953907

>  <SCORE.INTRA>
-16.7123

>  <SCORE.INTRA.DIHEDRAL>
-2.01335

>  <SCORE.INTRA.DIHEDRAL.0>
6.83446

>  <SCORE.INTRA.POLAR>
0

>  <SCORE.INTRA.POLAR.0>
0

>  <SCORE.INTRA.REPUL>
0

>  <SCORE.INTRA.REPUL.0>
0

>  <SCORE.INTRA.SOLV>
0.0869755

>  <SCORE.INTRA.SOLV.lig_0>
-26.4601

>  <SCORE.INTRA.VDW>
-15.7491

>  <SCORE.INTRA.VDW.0>
13.7853

>  <SCORE.INTRA.norm>
-0.576286

>  <SCORE.RESTR>
0

>  <SCORE.RESTR.CAVITY>
0

>  <SCORE.RESTR.norm>
0

>  <SCORE.SYSTEM>
0

>  <SCORE.SYSTEM.CONST>
0

>  <SCORE.SYSTEM.DIHEDRAL>
0

>  <SCORE.SYSTEM.SOLV>
0

>  <SCORE.SYSTEM.norm>
0

>  <SCORE.heavy>
29

>  <SCORE.norm>
-1.53019

>  <RMSD>
2.538

$$$$
ligand
 OpenBabel11021811473D
libRbt.so/2013.1/901 2013/11/27
 29 31  0  0  0  0  0  0  0  0999 V2000
   32.5325   36.6837   15.7791 C   0  0  0  0  0  0  0  0  0  0  0  0
   32.5670   35.2527   15.7690 O   0  0  0  0  0  0  0  0  0  0  0  0
   31.8890   37.1623   17.0733 C   0  0  1  0  0  0  0  0  0  0  0  0
   32.0087   38.5798   17.1418 O   0  0  0  0  0  0  0  0  0  0  0  0
   30.4230   36.7521   17.1258 C   0  0  1  0  0  0  0  0  0  0  0  0
   30.3864   35.3319   17.2055 O   0  0  0  0  0  0  0  0  0  0  0  0
   29.6208   37.3629   18.2786 C   0  0  1  0  0  0  0  0  0  0  0  0
   29.6154   38.7826   18.1233 O   0  0  0  0  0  0  0  0  0  0  0  0
   28.1710   36.8852   18.3312 C   0  0  0  0  0  0  0  0  0  0  0  0
   28.1279   34.0995   17.8739 N   0  0  0  0  0  0  0  0  0  0  0  0
   28.1172   32.7606   17.6180 C   0  0  0  0  0  0  0  0  0  0  0  0
   28.2516   32.3367   16.4429 O   0  0  0  0  0  0  0  0  0  0  0  0
   27.9560   31.8702   18.6294 N   0  0  0  0  0  0  0  0  0  0  0  0
   27.8031   32.2912   19.9101 C   0  0  0  0  0  0  0  0  0  0  0  0
   27.8132   33.6537   20.1863 C   0  0  1  0  0  0  0  0  0  0  0  0
   27.6521   31.4634   20.8425 O   0  0  0  0  0  0  0  0  0  0  0  0
   27.6789   35.4050   21.7260 C   0  0  1  0  0  0  0  0  0  0  0  0
   27.6670   34.0830   21.4587 N   0  0  0  0  0  0  0  0  0  0  0  0
   27.5271   35.8380   23.0386 C   0  0  0  0  0  0  0  0  0  0  0  0
   27.5377   37.1941   23.3463 C   0  0  2  0  0  0  0  0  0  0  0  0
   27.3668   37.5935   24.7894 C   0  0  0  0  0  0  0  0  0  0  0  0
   27.7033   38.1369   22.3237 C   0  0  2  0  0  0  0  0  0  0  0  0
   27.7237   39.4850   22.5502 N   0  0  0  0  0  0  0  0  0  0  0  0
   27.8536   37.6857   21.0067 C   0  0  0  0  0  0  0  0  0  0  0  0
   27.8424   36.3269   20.6934 C   0  0  2  0  0  0  0  0  0  0  0  0
   27.9808   34.5723   19.1454 C   0  0  2  0  0  0  0  0  0  0  0  0
   27.9851   35.9028   19.4168 N   0  0  0  0  0  0  0  0  0  0  0  0
   26.5135   40.2635   22.3663 C   0  0  0  0  0  0  0  0  0  0  0  0
   28.9210   40.1895   22.9782 C   0  0  0  0  0  0  0  0  0  0  0  0
  1  2  1  0  0  0  0
  3  1  1  6  0  0  0
  3  4  1  0  0  0  0
  3  5  1  0  0  0  0
  5  6  1  1  0  0  0
  5  7  1  0  0  0  0
  7  8  1  6  0  0  0
  7  9  1  0  0  0  0
  9 27  1  0  0  0  0
 10 11  1  0  0  0  0
 11 12  2  0  0  0  0
 11 13  1  0  0  0  0
 13 14  1  0  0  0  0
 14 16  2  0  0  0  0
 15 14  1  1  0  0  0
 15 18  1  0  0  0  0
 15 26  1  0  0  0  0
 17 19  1  1  0  0  0
 17 25  1  0  0  0  0
 17 18  1  0  0  0  0
 19 20  1  0  0  0  0
 20 21  1  6  0  0  0
 20 22  1  0  0  0  0
 22 23  1  6  0  0  0
 22 24  1  0  0  0  0
 23 28  1  0  0  0  0
 23 29  1  0  0  0  0
 25 24  1  6  0  0  0
 25 27  1  0  0  0  0
 26 10  1  6  0  0  0
 26 27  1  0  0  0  0
M  END
>  <CHROM.1>
173.03367696,66.32602730,62.14932991,104.40714804,-96.71189870,79.94841272
28.79732870,36.02538982,19.61656671,-0.91814358,0.93496512,0.48274146

>  <Name>
ligand

>  <RI>
0

>  <Rbt.Current_Directory>
/home/itssahil/PROJECTS/Mol_Feturizer/New_Systems/rnas/3F4H

>  <Rbt.Executable>
rbdock ($Id: //depot/dev/client3/rdock/2013.1/src/exe/rbdock.cxx#4 $)

>  <Rbt.Library>
libRbt.so (2013.1, Build901 2013/11/27)

>  <Rbt.Parameter_File>
/export/apps/rDock/src/rDock_2013.1_src/data/scripts/dock_solv.prm

>  <Rbt.Receptor>
prm/blind_docking_100.prm

>  <SCORE>
-45.3066

>  <SCORE.INTER>
-29.7333

>  <SCORE.INTER.CONST>
1

>  <SCORE.INTER.POLAR>
0

>  <SCORE.INTER.ROT>
6

>  <SCORE.INTER.SOLV>
11.3915

>  <SCORE.INTER.VDW>
-31.2194

>  <SCORE.INTER.norm>
-1.02529

>  <SCORE.INTRA>
-15.5733

>  <SCORE.INTRA.DIHEDRAL>
-0.0567896

>  <SCORE.INTRA.DIHEDRAL.0>
6.83446

>  <SCORE.INTRA.POLAR>
0

>  <SCORE.INTRA.POLAR.0>
0

>  <SCORE.INTRA.REPUL>
0

>  <SCORE.INTRA.REPUL.0>
0

>  <SCORE.INTRA.SOLV>
0.25576

>  <SCORE.INTRA.SOLV.lig_0>
-26.4601

>  <SCORE.INTRA.VDW>
-15.6728

>  <SCORE.INTRA.VDW.0>
13.7853

>  <SCORE.INTRA.norm>
-0.53701

>  <SCORE.RESTR>
0

>  <SCORE.RESTR.CAVITY>
0

>  <SCORE.RESTR.norm>
0

>  <SCORE.SYSTEM>
0

>  <SCORE.SYSTEM.CONST>
0

>  <SCORE.SYSTEM.DIHEDRAL>
0

>  <SCORE.SYSTEM.SOLV>
0

>  <SCORE.SYSTEM.norm>
0

>  <SCORE.heavy>
29

>  <SCORE.norm>
-1.5623

>  <RMSD>
2.561

$$$$
ligand
 OpenBabel11021811473D
libRbt.so/2013.1/901 2013/11/27
 29 31  0  0  0  0  0  0  0  0999 V2000
   32.3562   37.1952   16.2071 C   0  0  0  0  0  0  0  0  0  0  0  0
   32.7085   36.8096   17.5398 O   0  0  0  0  0  0  0  0  0  0  0  0
   31.1916   36.3400   15.7273 C   0  0  1  0  0  0  0  0  0  0  0  0
   31.4161   34.9956   16.1403 O   0  0  0  0  0  0  0  0  0  0  0  0
   29.8772   36.8563   16.2985 C   0  0  1  0  0  0  0  0  0  0  0  0
   28.8290   36.1436   15.6519 O   0  0  0  0  0  0  0  0  0  0  0  0
   29.7378   36.7295   17.8184 C   0  0  1  0  0  0  0  0  0  0  0  0
   30.4977   37.7723   18.4306 O   0  0  0  0  0  0  0  0  0  0  0  0
   28.2957   36.8420   18.3086 C   0  0  0  0  0  0  0  0  0  0  0  0
   28.2206   34.0459   17.9250 N   0  0  0  0  0  0  0  0  0  0  0  0
   28.1962   32.7009   17.7050 C   0  0  0  0  0  0  0  0  0  0  0  0
   28.3735   32.2423   16.5488 O   0  0  0  0  0  0  0  0  0  0  0  0
   27.9746   31.8417   18.7319 N   0  0  0  0  0  0  0  0  0  0  0  0
   27.7741   32.3007   19.9929 C   0  0  0  0  0  0  0  0  0  0  0  0
   27.7976   33.6699   20.2325 C   0  0  1  0  0  0  0  0  0  0  0  0
   27.5673   31.5018   20.9397 O   0  0  0  0  0  0  0  0  0  0  0  0
   27.6291   35.4652   21.7171 C   0  0  1  0  0  0  0  0  0  0  0  0
   27.6043   34.1367   21.4852 N   0  0  0  0  0  0  0  0  0  0  0  0
   27.4285   35.9370   23.0096 C   0  0  0  0  0  0  0  0  0  0  0  0
   27.4509   37.3007   23.2809 C   0  0  2  0  0  0  0  0  0  0  0  0
   27.2250   37.7428   24.7039 C   0  0  0  0  0  0  0  0  0  0  0  0
   27.6783   38.2118   22.2416 C   0  0  2  0  0  0  0  0  0  0  0  0
   27.7140   39.5651   22.4324 N   0  0  0  0  0  0  0  0  0  0  0  0
   27.8773   37.7218   20.9451 C   0  0  0  0  0  0  0  0  0  0  0  0
   27.8544   36.3552   20.6683 C   0  0  2  0  0  0  0  0  0  0  0  0
   28.0273   34.5562   19.1756 C   0  0  2  0  0  0  0  0  0  0  0  0
   28.0445   35.8934   19.4110 N   0  0  0  0  0  0  0  0  0  0  0  0
   26.5252   40.3580   22.1829 C   0  0  0  0  0  0  0  0  0  0  0  0
   28.9069   40.2613   22.8855 C   0  0  0  0  0  0  0  0  0  0  0  0
  1  2  1  0  0  0  0
  3  1  1  1  0  0  0
  3  4  1  0  0  0  0
  3  5  1  0  0  0  0
  5  6  1  6  0  0  0
  5  7  1  0  0  0  0
  7  8  1  1  0  0  0
  7  9  1  0  0  0  0
  9 27  1  0  0  0  0
 10 11  1  0  0  0  0
 11 12  2  0  0  0  0
 11 13  1  0  0  0  0
 13 14  1  0  0  0  0
 14 16  2  0  0  0  0
 15 14  1  1  0  0  0
 15 18  1  0  0  0  0
 15 26  1  0  0  0  0
 17 19  1  1  0  0  0
 17 25  1  0  0  0  0
 17 18  1  0  0  0  0
 19 20  1  0  0  0  0
 20 21  1  6  0  0  0
 20 22  1  0  0  0  0
 22 23  1  6  0  0  0
 22 24  1  0  0  0  0
 23 28  1  0  0  0  0
 23 29  1  0  0  0  0
 25 24  1  6  0  0  0
 25 27  1  0  0  0  0
 26 10  1  6  0  0  0
 26 27  1  0  0  0  0
M  END
>  <CHROM.1>
-41.68241296,171.34033880,77.59445057,141.25424822,-96.31816280,110.20064455
28.70865051,35.93016520,19.52134440,-0.94724396,0.98155806,0.49957516

>  <Name>
ligand

>  <RI>
0

>  <Rbt.Current_Directory>
/home/itssahil/PROJECTS/Mol_Feturizer/New_Systems/rnas/3F4H

>  <Rbt.Executable>
rbdock ($Id: //depot/dev/client3/rdock/2013.1/src/exe/rbdock.cxx#4 $)

>  <Rbt.Library>
libRbt.so (2013.1, Build901 2013/11/27)

>  <Rbt.Parameter_File>
/export/apps/rDock/src/rDock_2013.1_src/data/scripts/dock_solv.prm

>  <Rbt.Receptor>
prm/blind_docking_60.prm

>  <SCORE>
-42.8535

>  <SCORE.INTER>
-28.4689

>  <SCORE.INTER.CONST>
1

>  <SCORE.INTER.POLAR>
0

>  <SCORE.INTER.ROT>
6

>  <SCORE.INTER.SOLV>
10.535

>  <SCORE.INTER.VDW>
-30.0909

>  <SCORE.INTER.norm>
-0.981685

>  <SCORE.INTRA>
-14.3846

>  <SCORE.INTRA.DIHEDRAL>
1.42166

>  <SCORE.INTRA.DIHEDRAL.0>
6.83446

>  <SCORE.INTRA.POLAR>
0

>  <SCORE.INTRA.POLAR.0>
0

>  <SCORE.INTRA.REPUL>
0

>  <SCORE.INTRA.REPUL.0>
0

>  <SCORE.INTRA.SOLV>
0.565943

>  <SCORE.INTRA.SOLV.lig_0>
-26.4601

>  <SCORE.INTRA.VDW>
-15.3784

>  <SCORE.INTRA.VDW.0>
13.7853

>  <SCORE.INTRA.norm>
-0.496022

>  <SCORE.RESTR>
0

>  <SCORE.RESTR.CAVITY>
0

>  <SCORE.RESTR.norm>
0

>  <SCORE.SYSTEM>
0

>  <SCORE.SYSTEM.CONST>
0

>  <SCORE.SYSTEM.DIHEDRAL>
0

>  <SCORE.SYSTEM.SOLV>
0

>  <SCORE.SYSTEM.norm>
0

>  <SCORE.heavy>
29

>  <SCORE.norm>
-1.47771

>  <RMSD>
2.605

$$$$
ligand
 OpenBabel11021811473D
libRbt.so/2013.1/901 2013/11/27
 29 31  0  0  0  0  0  0  0  0999 V2000
   32.2015   35.9915   16.8290 C   0  0  0  0  0  0  0  0  0  0  0  0
   33.6114   36.1986   16.6935 O   0  0  0  0  0  0  0  0  0  0  0  0
   31.4623   37.2322   16.3469 C   0  0  1  0  0  0  0  0  0  0  0  0
   31.6509   37.3543   14.9405 O   0  0  0  0  0  0  0  0  0  0  0  0
   29.9781   37.1322   16.6747 C   0  0  1  0  0  0  0  0  0  0  0  0
   29.4672   36.0056   15.9716 O   0  0  0  0  0  0  0  0  0  0  0  0
   29.6512   37.0121   18.1661 C   0  0  1  0  0  0  0  0  0  0  0  0
   30.1165   38.1894   18.8272 O   0  0  0  0  0  0  0  0  0  0  0  0
   28.1580   36.8653   18.4518 C   0  0  0  0  0  0  0  0  0  0  0  0
   28.0831   34.0759   18.0221 N   0  0  0  0  0  0  0  0  0  0  0  0
   28.0582   32.7348   17.7798 C   0  0  0  0  0  0  0  0  0  0  0  0
   28.2162   32.2964   16.6130 O   0  0  0  0  0  0  0  0  0  0  0  0
   27.8569   31.8577   18.7957 N   0  0  0  0  0  0  0  0  0  0  0  0
   27.6776   32.2946   20.0676 C   0  0  0  0  0  0  0  0  0  0  0  0
   27.7019   33.6597   20.3300 C   0  0  1  0  0  0  0  0  0  0  0  0
   27.4895   31.4793   21.0042 O   0  0  0  0  0  0  0  0  0  0  0  0
   27.5552   35.4291   21.8476 C   0  0  1  0  0  0  0  0  0  0  0  0
   27.5296   34.1047   21.5937 N   0  0  0  0  0  0  0  0  0  0  0  0
   27.3764   35.8784   23.1513 C   0  0  0  0  0  0  0  0  0  0  0  0
   27.4002   37.2373   23.4453 C   0  0  2  0  0  0  0  0  0  0  0  0
   27.1984   37.6546   24.8794 C   0  0  0  0  0  0  0  0  0  0  0  0
   27.6070   38.1665   22.4178 C   0  0  2  0  0  0  0  0  0  0  0  0
   27.6427   39.5165   22.6309 N   0  0  0  0  0  0  0  0  0  0  0  0
   27.7841   37.6991   21.1099 C   0  0  0  0  0  0  0  0  0  0  0  0
   27.7598   36.3374   20.8103 C   0  0  2  0  0  0  0  0  0  0  0  0
   27.9107   34.5644   19.2844 C   0  0  2  0  0  0  0  0  0  0  0  0
   27.9288   35.8975   19.5422 N   0  0  0  0  0  0  0  0  0  0  0  0
   28.8661   40.1381   23.1012 C   0  0  0  0  0  0  0  0  0  0  0  0
   26.4937   40.3766   22.4011 C   0  0  0  0  0  0  0  0  0  0  0  0
  1  2  1  0  0  0  0
  3  1  1  6  0  0  0
  3  4  1  0  0  0  0
  3  5  1  0  0  0  0
  5  6  1  6  0  0  0
  5  7  1  0  0  0  0
  7  8  1  1  0  0  0
  7  9  1  0  0  0  0
  9 27  1  0  0  0  0
 10 11  1  0  0  0  0
 11 12  2  0  0  0  0
 11 13  1  0  0  0  0
 13 14  1  0  0  0  0
 14 16  2  0  0  0  0
 15 14  1  1  0  0  0
 15 18  1  0  0  0  0
 15 26  1  0  0  0  0
 17 19  1  1  0  0  0
 17 25  1  0  0  0  0
 17 18  1  0  0  0  0
 19 20  1  0  0  0  0
 20 21  1  6  0  0  0
 20 22  1  0  0  0  0
 22 23  1  6  0  0  0
 22 24  1  0  0  0  0
 23 28  1  0  0  0  0
 23 29  1  0  0  0  0
 25 24  1  6  0  0  0
 25 27  1  0  0  0  0
 26 10  1  6  0  0  0
 26 27  1  0  0  0  0
M  END
>  <CHROM.1>
67.57017471,-62.12188666,61.84014759,140.62953305,82.18872568,96.38465444
28.70572159,36.00376150,19.62645887,-0.80477920,0.95756034,0.50306999

>  <Name>
ligand

>  <RI>
0

>  <Rbt.Current_Directory>
/home/itssahil/PROJECTS/Mol_Feturizer/New_Systems/rnas/3F4H

>  <Rbt.Executable>
rbdock ($Id: //depot/dev/client3/rdock/2013.1/src/exe/rbdock.cxx#4 $)

>  <Rbt.Library>
libRbt.so (2013.1, Build901 2013/11/27)

>  <Rbt.Parameter_File>
/export/apps/rDock/src/rDock_2013.1_src/data/scripts/dock_solv.prm

>  <Rbt.Receptor>
prm/blind_docking_60.prm

>  <SCORE>
-45.1302

>  <SCORE.INTER>
-28.7703

>  <SCORE.INTER.CONST>
1

>  <SCORE.INTER.POLAR>
0

>  <SCORE.INTER.ROT>
6

>  <SCORE.INTER.SOLV>
11.4876

>  <SCORE.INTER.VDW>
-30.6094

>  <SCORE.INTER.norm>
-0.99208

>  <SCORE.INTRA>
-16.3598

>  <SCORE.INTRA.DIHEDRAL>
-0.730217

>  <SCORE.INTRA.DIHEDRAL.0>
6.83446

>  <SCORE.INTRA.POLAR>
0

>  <SCORE.INTRA.POLAR.0>
0

>  <SCORE.INTRA.REPUL>
0

>  <SCORE.INTRA.REPUL.0>
0

>  <SCORE.INTRA.SOLV>
-0.487111

>  <SCORE.INTRA.SOLV.lig_0>
-26.4601

>  <SCORE.INTRA.VDW>
-15.7512

>  <SCORE.INTRA.VDW.0>
13.7853

>  <SCORE.INTRA.norm>
-0.564132

>  <SCORE.RESTR>
0

>  <SCORE.RESTR.CAVITY>
0

>  <SCORE.RESTR.norm>
0

>  <SCORE.SYSTEM>
0

>  <SCORE.SYSTEM.CONST>
0

>  <SCORE.SYSTEM.DIHEDRAL>
0

>  <SCORE.SYSTEM.SOLV>
0

>  <SCORE.SYSTEM.norm>
0

>  <SCORE.heavy>
29

>  <SCORE.norm>
-1.55621

>  <RMSD>
2.633

$$$$
ligand
 OpenBabel11021811473D
libRbt.so/2013.1/901 2013/11/27
 29 31  0  0  0  0  0  0  0  0999 V2000
   31.8919   35.6896   15.8756 C   0  0  0  0  0  0  0  0  0  0  0  0
   32.1204   35.4116   17.2610 O   0  0  0  0  0  0  0  0  0  0  0  0
   31.3185   37.0927   15.7320 C   0  0  1  0  0  0  0  0  0  0  0  0
   31.3675   37.4638   14.3578 O   0  0  0  0  0  0  0  0  0  0  0  0
   29.8837   37.1393   16.2416 C   0  0  1  0  0  0  0  0  0  0  0  0
   29.1321   36.2122   15.4669 O   0  0  0  0  0  0  0  0  0  0  0  0
   29.7163   36.8340   17.7330 C   0  0  1  0  0  0  0  0  0  0  0  0
   30.4588   37.7997   18.4784 O   0  0  0  0  0  0  0  0  0  0  0  0
   28.2645   36.8834   18.2049 C   0  0  0  0  0  0  0  0  0  0  0  0
   28.2068   34.0862   17.8262 N   0  0  0  0  0  0  0  0  0  0  0  0
   28.1901   32.7407   17.6083 C   0  0  0  0  0  0  0  0  0  0  0  0
   28.3482   32.2822   16.4493 O   0  0  0  0  0  0  0  0  0  0  0  0
   27.9971   31.8810   18.6406 N   0  0  0  0  0  0  0  0  0  0  0  0
   27.8180   32.3398   19.9048 C   0  0  0  0  0  0  0  0  0  0  0  0
   27.8340   33.7096   20.1422 C   0  0  1  0  0  0  0  0  0  0  0  0
   27.6376   31.5404   20.8565 O   0  0  0  0  0  0  0  0  0  0  0  0
   27.6794   35.5053   21.6278 C   0  0  1  0  0  0  0  0  0  0  0  0
   27.6619   34.1763   21.3980 N   0  0  0  0  0  0  0  0  0  0  0  0
   27.5008   35.9771   22.9236 C   0  0  0  0  0  0  0  0  0  0  0  0
   27.5164   37.3412   23.1927 C   0  0  2  0  0  0  0  0  0  0  0  0
   27.3153   37.7833   24.6194 C   0  0  0  0  0  0  0  0  0  0  0  0
   27.7145   38.2529   22.1480 C   0  0  2  0  0  0  0  0  0  0  0  0
   27.7419   39.6068   22.3363 N   0  0  0  0  0  0  0  0  0  0  0  0
   27.8916   37.7630   20.8483 C   0  0  0  0  0  0  0  0  0  0  0  0
   27.8755   36.3959   20.5736 C   0  0  2  0  0  0  0  0  0  0  0  0
   28.0343   34.5965   19.0799 C   0  0  2  0  0  0  0  0  0  0  0  0
   28.0443   35.9341   19.3133 N   0  0  0  0  0  0  0  0  0  0  0  0
   28.9907   40.2598   22.6807 C   0  0  0  0  0  0  0  0  0  0  0  0
   26.5588   40.4406   22.2020 C   0  0  0  0  0  0  0  0  0  0  0  0
  1  2  1  0  0  0  0
  3  1  1  6  0  0  0
  3  4  1  0  0  0  0
  3  5  1  0  0  0  0
  5  6  1  6  0  0  0
  5  7  1  0  0  0  0
  7  8  1  1  0  0  0
  7  9  1  0  0  0  0
  9 27  1  0  0  0  0
 10 11  1  0  0  0  0
 11 12  2  0  0  0  0
 11 13  1  0  0  0  0
 13 14  1  0  0  0  0
 14 16  2  0  0  0  0
 15 14  1  1  0  0  0
 15 18  1  0  0  0  0
 15 26  1  0  0  0  0
 17 19  1  1  0  0  0
 17 25  1  0  0  0  0
 17 18  1  0  0  0  0
 19 20  1  0  0  0  0
 20 21  1  6  0  0  0
 20 22  1  0  0  0  0
 22 23  1  6  0  0  0
 22 24  1  0  0  0  0
 23 28  1  0  0  0  0
 23 29  1  0  0  0  0
 25 24  1  6  0  0  0
 25 27  1  0  0  0  0
 26 10  1  6  0  0  0
 26 27  1  0  0  0  0
M  END
>  <CHROM.1>
167.57763048,-59.49898105,60.12824221,148.95662502,87.46181467,107.31811967
28.70312382,35.98967952,19.35139161,-0.82998688,1.06062260,0.44743969

>  <Name>
ligand

>  <RI>
0

>  <Rbt.Current_Directory>
/home/itssahil/PROJECTS/Mol_Feturizer/New_Systems/rnas/3F4H

>  <Rbt.Executable>
rbdock ($Id: //depot/dev/client3/rdock/2013.1/src/exe/rbdock.cxx#4 $)

>  <Rbt.Library>
libRbt.so (2013.1, Build901 2013/11/27)

>  <Rbt.Parameter_File>
/export/apps/rDock/src/rDock_2013.1_src/data/scripts/dock_solv.prm

>  <Rbt.Receptor>
prm/blind_docking_60.prm

>  <SCORE>
-44.1951

>  <SCORE.INTER>
-27.7079

>  <SCORE.INTER.CONST>
1

>  <SCORE.INTER.POLAR>
0

>  <SCORE.INTER.ROT>
6

>  <SCORE.INTER.SOLV>
11.4178

>  <SCORE.INTER.VDW>
-29.8779

>  <SCORE.INTER.norm>
-0.955446

>  <SCORE.INTRA>
-16.4871

>  <SCORE.INTRA.DIHEDRAL>
-1.50137

>  <SCORE.INTRA.DIHEDRAL.0>
6.83446

>  <SCORE.INTRA.POLAR>
0

>  <SCORE.INTRA.POLAR.0>
0

>  <SCORE.INTRA.REPUL>
0

>  <SCORE.INTRA.REPUL.0>
0

>  <SCORE.INTRA.SOLV>
0.0766853

>  <SCORE.INTRA.SOLV.lig_0>
-26.4601

>  <SCORE.INTRA.VDW>
-15.7748

>  <SCORE.INTRA.VDW.0>
13.7853

>  <SCORE.INTRA.norm>
-0.568522

>  <SCORE.RESTR>
0

>  <SCORE.RESTR.CAVITY>
0

>  <SCORE.RESTR.norm>
0

>  <SCORE.SYSTEM>
0

>  <SCORE.SYSTEM.CONST>
0

>  <SCORE.SYSTEM.DIHEDRAL>
0

>  <SCORE.SYSTEM.SOLV>
0

>  <SCORE.SYSTEM.norm>
0

>  <SCORE.heavy>
29

>  <SCORE.norm>
-1.52397

>  <RMSD>
2.635

$$$$
ligand
 OpenBabel11021811473D
libRbt.so/2013.1/901 2013/11/27
 29 31  0  0  0  0  0  0  0  0999 V2000
   32.2198   35.9818   16.8042 C   0  0  0  0  0  0  0  0  0  0  0  0
   33.6320   36.1647   16.6584 O   0  0  0  0  0  0  0  0  0  0  0  0
   31.4978   37.2297   16.3146 C   0  0  1  0  0  0  0  0  0  0  0  0
   31.7003   37.3486   14.9099 O   0  0  0  0  0  0  0  0  0  0  0  0
   30.0097   37.1453   16.6292 C   0  0  1  0  0  0  0  0  0  0  0  0
   29.4877   36.0409   15.8994 O   0  0  0  0  0  0  0  0  0  0  0  0
   29.6695   36.9998   18.1153 C   0  0  1  0  0  0  0  0  0  0  0  0
   30.1178   38.1711   18.7985 O   0  0  0  0  0  0  0  0  0  0  0  0
   28.1750   36.8357   18.3841 C   0  0  0  0  0  0  0  0  0  0  0  0
   28.1198   34.0414   17.9842 N   0  0  0  0  0  0  0  0  0  0  0  0
   28.1046   32.6976   17.7562 C   0  0  0  0  0  0  0  0  0  0  0  0
   28.2722   32.2476   16.5952 O   0  0  0  0  0  0  0  0  0  0  0  0
   27.9027   31.8303   18.7804 N   0  0  0  0  0  0  0  0  0  0  0  0
   27.7133   32.2798   20.0465 C   0  0  0  0  0  0  0  0  0  0  0  0
   27.7276   33.6478   20.2942 C   0  0  1  0  0  0  0  0  0  0  0  0
   27.5247   31.4735   20.9907 O   0  0  0  0  0  0  0  0  0  0  0  0
   27.5610   35.4325   21.7917 C   0  0  1  0  0  0  0  0  0  0  0  0
   27.5451   34.1053   21.5519 N   0  0  0  0  0  0  0  0  0  0  0  0
   27.3717   35.8947   23.0894 C   0  0  0  0  0  0  0  0  0  0  0  0
   27.3854   37.2568   23.3688 C   0  0  2  0  0  0  0  0  0  0  0  0
   27.1725   37.6883   24.7970 C   0  0  0  0  0  0  0  0  0  0  0  0
   27.5924   38.1762   22.3325 C   0  0  2  0  0  0  0  0  0  0  0  0
   27.6185   39.5286   22.5311 N   0  0  0  0  0  0  0  0  0  0  0  0
   27.7802   37.6958   21.0307 C   0  0  0  0  0  0  0  0  0  0  0  0
   27.7661   36.3308   20.7458 C   0  0  2  0  0  0  0  0  0  0  0  0
   27.9369   34.5425   19.2401 C   0  0  2  0  0  0  0  0  0  0  0  0
   27.9453   35.8783   19.4836 N   0  0  0  0  0  0  0  0  0  0  0  0
   28.8402   40.1651   22.9859 C   0  0  0  0  0  0  0  0  0  0  0  0
   26.4608   40.3768   22.3007 C   0  0  0  0  0  0  0  0  0  0  0  0
  1  2  1  0  0  0  0
  3  1  1  6  0  0  0
  3  4  1  0  0  0  0
  3  5  1  0  0  0  0
  5  6  1  6  0  0  0
  5  7  1  0  0  0  0
  7  8  1  1  0  0  0
  7  9  1  0  0  0  0
  9 27  1  0  0  0  0
 10 11  1  0  0  0  0
 11 12  2  0  0  0  0
 11 13  1  0  0  0  0
 13 14  1  0  0  0  0
 14 16  2  0  0  0  0
 15 14  1  1  0  0  0
 15 18  1  0  0  0  0
 15 26  1  0  0  0  0
 17 19  1  1  0  0  0
 17 25  1  0  0  0  0
 17 18  1  0  0  0  0
 19 20  1  0  0  0  0
 20 21  1  6  0  0  0
 20 22  1  0  0  0  0
 22 23  1  6  0  0  0
 22 24  1  0  0  0  0
 23 28  1  0  0  0  0
 23 29  1  0  0  0  0
 25 24  1  6  0  0  0
 25 27  1  0  0  0  0
 26 10  1  6  0  0  0
 26 27  1  0  0  0  0
M  END
>  <CHROM.1>
66.51656689,-63.36136284,63.23770622,142.23831457,82.95059935,95.79026555
28.72034598,35.99770784,19.57436254,-0.78753793,0.95625439,0.47959769

>  <Name>
ligand

>  <RI>
0

>  <Rbt.Current_Directory>
/home/itssahil/PROJECTS/Mol_Feturizer/New_Systems/rnas/3F4H

>  <Rbt.Executable>
rbdock ($Id: //depot/dev/client3/rdock/2013.1/src/exe/rbdock.cxx#4 $)

>  <Rbt.Library>
libRbt.so (2013.1, Build901 2013/11/27)

>  <Rbt.Parameter_File>
/export/apps/rDock/src/rDock_2013.1_src/data/scripts/dock_solv.prm

>  <Rbt.Receptor>
prm/blind_docking_80.prm

>  <SCORE>
-45.134

>  <SCORE.INTER>
-28.706

>  <SCORE.INTER.CONST>
1

>  <SCORE.INTER.POLAR>
0

>  <SCORE.INTER.ROT>
6

>  <SCORE.INTER.SOLV>
11.6909

>  <SCORE.INTER.VDW>
-30.6343

>  <SCORE.INTER.norm>
-0.989863

>  <SCORE.INTRA>
-16.428

>  <SCORE.INTRA.DIHEDRAL>
-0.933323

>  <SCORE.INTRA.DIHEDRAL.0>
6.83446

>  <SCORE.INTRA.POLAR>
0

>  <SCORE.INTRA.POLAR.0>
0

>  <SCORE.INTRA.REPUL>
0

>  <SCORE.INTRA.REPUL.0>
0

>  <SCORE.INTRA.SOLV>
-0.50412

>  <SCORE.INTRA.SOLV.lig_0>
-26.4601

>  <SCORE.INTRA.VDW>
-15.7093

>  <SCORE.INTRA.VDW.0>
13.7853

>  <SCORE.INTRA.norm>
-0.566482

>  <SCORE.RESTR>
0

>  <SCORE.RESTR.CAVITY>
0

>  <SCORE.RESTR.norm>
0

>  <SCORE.SYSTEM>
0

>  <SCORE.SYSTEM.CONST>
0

>  <SCORE.SYSTEM.DIHEDRAL>
0

>  <SCORE.SYSTEM.SOLV>
0

>  <SCORE.SYSTEM.norm>
0

>  <SCORE.heavy>
29

>  <SCORE.norm>
-1.55634

>  <RMSD>
2.639

$$$$
ligand
 OpenBabel11021811473D
libRbt.so/2013.1/901 2013/11/27
 29 31  0  0  0  0  0  0  0  0999 V2000
   32.3699   36.0771   16.8851 C   0  0  0  0  0  0  0  0  0  0  0  0
   33.7765   36.3291   16.8004 O   0  0  0  0  0  0  0  0  0  0  0  0
   31.6104   37.2694   16.3196 C   0  0  1  0  0  0  0  0  0  0  0  0
   31.8425   37.3302   14.9158 O   0  0  0  0  0  0  0  0  0  0  0  0
   30.1197   37.1383   16.6041 C   0  0  1  0  0  0  0  0  0  0  0  0
   29.6567   35.9916   15.9002 O   0  0  0  0  0  0  0  0  0  0  0  0
   29.7507   37.0282   18.0864 C   0  0  1  0  0  0  0  0  0  0  0  0
   30.1813   38.2178   18.7490 O   0  0  0  0  0  0  0  0  0  0  0  0
   28.2518   36.8649   18.3298 C   0  0  0  0  0  0  0  0  0  0  0  0
   28.1746   34.0723   17.9215 N   0  0  0  0  0  0  0  0  0  0  0  0
   28.1490   32.7293   17.6897 C   0  0  0  0  0  0  0  0  0  0  0  0
   28.3233   32.2809   16.5290 O   0  0  0  0  0  0  0  0  0  0  0  0
   27.9296   31.8611   18.7095 N   0  0  0  0  0  0  0  0  0  0  0  0
   27.7325   32.3089   19.9750 C   0  0  0  0  0  0  0  0  0  0  0  0
   27.7571   33.6760   20.2267 C   0  0  1  0  0  0  0  0  0  0  0  0
   27.5277   31.5017   20.9152 O   0  0  0  0  0  0  0  0  0  0  0  0
   27.5931   35.4581   21.7275 C   0  0  1  0  0  0  0  0  0  0  0  0
   27.5671   34.1317   21.4839 N   0  0  0  0  0  0  0  0  0  0  0  0
   27.3959   35.9185   23.0247 C   0  0  0  0  0  0  0  0  0  0  0  0
   27.4195   37.2796   23.3080 C   0  0  2  0  0  0  0  0  0  0  0  0
   27.1973   37.7092   24.7354 C   0  0  0  0  0  0  0  0  0  0  0  0
   27.6448   38.1998   22.2763 C   0  0  2  0  0  0  0  0  0  0  0  0
   27.6815   39.5514   22.4790 N   0  0  0  0  0  0  0  0  0  0  0  0
   27.8403   37.7213   20.9750 C   0  0  0  0  0  0  0  0  0  0  0  0
   27.8162   36.3573   20.6861 C   0  0  2  0  0  0  0  0  0  0  0  0
   27.9846   34.5716   19.1771 C   0  0  2  0  0  0  0  0  0  0  0  0
   28.0030   35.9066   19.4244 N   0  0  0  0  0  0  0  0  0  0  0  0
   28.9184   40.1822   22.8992 C   0  0  0  0  0  0  0  0  0  0  0  0
   26.5204   40.4044   22.2865 C   0  0  0  0  0  0  0  0  0  0  0  0
  1  2  1  0  0  0  0
  3  1  1  6  0  0  0
  3  4  1  0  0  0  0
  3  5  1  0  0  0  0
  5  6  1  6  0  0  0
  5  7  1  0  0  0  0
  7  8  1  1  0  0  0
  7  9  1  0  0  0  0
  9 27  1  0  0  0  0
 10 11  1  0  0  0  0
 11 12  2  0  0  0  0
 11 13  1  0  0  0  0
 13 14  1  0  0  0  0
 14 16  2  0  0  0  0
 15 14  1  1  0  0  0
 15 18  1  0  0  0  0
 15 26  1  0  0  0  0
 17 19  1  1  0  0  0
 17 25  1  0  0  0  0
 17 18  1  0  0  0  0
 19 20  1  0  0  0  0
 20 21  1  6  0  0  0
 20 22  1  0  0  0  0
 22 23  1  6  0  0  0
 22 24  1  0  0  0  0
 23 28  1  0  0  0  0
 23 29  1  0  0  0  0
 25 24  1  6  0  0  0
 25 27  1  0  0  0  0
 26 10  1  6  0  0  0
 26 27  1  0  0  0  0
M  END
>  <CHROM.1>
68.28177057,-64.23191387,61.21453889,140.73999613,85.22938641,95.12503291
28.78718921,36.02770306,19.53585648,-0.79752574,0.93434282,0.49500377

>  <Name>
ligand

>  <RI>
0

>  <Rbt.Current_Directory>
/home/itssahil/PROJECTS/Mol_Feturizer/New_Systems/rnas/3F4H

>  <Rbt.Executable>
rbdock ($Id: //depot/dev/client3/rdock/2013.1/src/exe/rbdock.cxx#4 $)

>  <Rbt.Library>
libRbt.so (2013.1, Build901 2013/11/27)

>  <Rbt.Parameter_File>
/export/apps/rDock/src/rDock_2013.1_src/data/scripts/dock_solv.prm

>  <Rbt.Receptor>
prm/blind_docking_100.prm

>  <SCORE>
-45.132

>  <SCORE.INTER>
-28.7825

>  <SCORE.INTER.CONST>
1

>  <SCORE.INTER.POLAR>
0

>  <SCORE.INTER.ROT>
6

>  <SCORE.INTER.SOLV>
11.9107

>  <SCORE.INTER.VDW>
-30.7586

>  <SCORE.INTER.norm>
-0.992501

>  <SCORE.INTRA>
-16.3495

>  <SCORE.INTRA.DIHEDRAL>
-0.663535

>  <SCORE.INTRA.DIHEDRAL.0>
6.83446

>  <SCORE.INTRA.POLAR>
0

>  <SCORE.INTRA.POLAR.0>
0

>  <SCORE.INTRA.REPUL>
0

>  <SCORE.INTRA.REPUL.0>
0

>  <SCORE.INTRA.SOLV>
-0.485777

>  <SCORE.INTRA.SOLV.lig_0>
-26.4601

>  <SCORE.INTRA.VDW>
-15.7748

>  <SCORE.INTRA.VDW.0>
13.7853

>  <SCORE.INTRA.norm>
-0.563776

>  <SCORE.RESTR>
0

>  <SCORE.RESTR.CAVITY>
0

>  <SCORE.RESTR.norm>
0

>  <SCORE.SYSTEM>
0

>  <SCORE.SYSTEM.CONST>
0

>  <SCORE.SYSTEM.DIHEDRAL>
0

>  <SCORE.SYSTEM.SOLV>
0

>  <SCORE.SYSTEM.norm>
0

>  <SCORE.heavy>
29

>  <SCORE.norm>
-1.55628

>  <RMSD>
2.645

$$$$
ligand
 OpenBabel11021811473D
libRbt.so/2013.1/901 2013/11/27
 29 31  0  0  0  0  0  0  0  0999 V2000
   32.3359   36.0466   16.8185 C   0  0  0  0  0  0  0  0  0  0  0  0
   33.7469   36.2540   16.6963 O   0  0  0  0  0  0  0  0  0  0  0  0
   31.6001   37.2751   16.3011 C   0  0  1  0  0  0  0  0  0  0  0  0
   31.8170   37.3753   14.8971 O   0  0  0  0  0  0  0  0  0  0  0  0
   30.1101   37.1721   16.6001 C   0  0  1  0  0  0  0  0  0  0  0  0
   29.6112   36.0562   15.8716 O   0  0  0  0  0  0  0  0  0  0  0  0
   29.7557   37.0309   18.0834 C   0  0  1  0  0  0  0  0  0  0  0  0
   30.1989   38.2034   18.7677 O   0  0  0  0  0  0  0  0  0  0  0  0
   28.2585   36.8693   18.3385 C   0  0  0  0  0  0  0  0  0  0  0  0
   28.2007   34.0740   17.9455 N   0  0  0  0  0  0  0  0  0  0  0  0
   28.1845   32.7296   17.7210 C   0  0  0  0  0  0  0  0  0  0  0  0
   28.3610   32.2762   16.5627 O   0  0  0  0  0  0  0  0  0  0  0  0
   27.9720   31.8655   18.7457 N   0  0  0  0  0  0  0  0  0  0  0  0
   27.7728   32.3188   20.0089 C   0  0  0  0  0  0  0  0  0  0  0  0
   27.7879   33.6873   20.2531 C   0  0  1  0  0  0  0  0  0  0  0  0
   27.5744   31.5153   20.9537 O   0  0  0  0  0  0  0  0  0  0  0  0
   27.6125   35.4764   21.7444 C   0  0  1  0  0  0  0  0  0  0  0  0
   27.5957   34.1486   21.5081 N   0  0  0  0  0  0  0  0  0  0  0  0
   27.4132   35.9425   23.0392 C   0  0  0  0  0  0  0  0  0  0  0  0
   27.4274   37.3053   23.3151 C   0  0  2  0  0  0  0  0  0  0  0  0
   27.2034   37.7410   24.7404 C   0  0  0  0  0  0  0  0  0  0  0  0
   27.6453   38.2214   22.2783 C   0  0  2  0  0  0  0  0  0  0  0  0
   27.6727   39.5743   22.4735 N   0  0  0  0  0  0  0  0  0  0  0  0
   27.8431   37.7372   20.9794 C   0  0  0  0  0  0  0  0  0  0  0  0
   27.8285   36.3715   20.6979 C   0  0  2  0  0  0  0  0  0  0  0  0
   28.0082   34.5788   19.1985 C   0  0  2  0  0  0  0  0  0  0  0  0
   28.0174   35.9153   19.4385 N   0  0  0  0  0  0  0  0  0  0  0  0
   26.4916   40.3662   22.1866 C   0  0  0  0  0  0  0  0  0  0  0  0
   28.8487   40.2709   22.9679 C   0  0  0  0  0  0  0  0  0  0  0  0
  1  2  1  0  0  0  0
  3  1  1  6  0  0  0
  3  4  1  0  0  0  0
  3  5  1  0  0  0  0
  5  6  1  6  0  0  0
  5  7  1  0  0  0  0
  7  8  1  1  0  0  0
  7  9  1  0  0  0  0
  9 27  1  0  0  0  0
 10 11  1  0  0  0  0
 11 12  2  0  0  0  0
 11 13  1  0  0  0  0
 13 14  1  0  0  0  0
 14 16  2  0  0  0  0
 15 14  1  1  0  0  0
 15 18  1  0  0  0  0
 15 26  1  0  0  0  0
 17 19  1  1  0  0  0
 17 25  1  0  0  0  0
 17 18  1  0  0  0  0
 19 20  1  0  0  0  0
 20 21  1  6  0  0  0
 20 22  1  0  0  0  0
 22 23  1  6  0  0  0
 22 24  1  0  0  0  0
 23 28  1  0  0  0  0
 23 29  1  0  0  0  0
 25 24  1  6  0  0  0
 25 27  1  0  0  0  0
 26 10  1  6  0  0  0
 26 27  1  0  0  0  0
M  END
>  <CHROM.1>
67.00056328,-63.92302537,62.35650067,142.25270609,-98.44124521,95.70904152
28.79167644,36.03882840,19.53796322,-0.78132312,0.94571787,0.47543138

>  <Name>
ligand

>  <RI>
0

>  <Rbt.Current_Directory>
/home/itssahil/PROJECTS/Mol_Feturizer/New_Systems/rnas/3F4H

>  <Rbt.Executable>
rbdock ($Id: //depot/dev/client3/rdock/2013.1/src/exe/rbdock.cxx#4 $)

>  <Rbt.Library>
libRbt.so (2013.1, Build901 2013/11/27)

>  <Rbt.Parameter_File>
/export/apps/rDock/src/rDock_2013.1_src/data/scripts/dock_solv.prm

>  <Rbt.Receptor>
prm/blind_docking_100.prm

>  <SCORE>
-45.0685

>  <SCORE.INTER>
-28.6457

>  <SCORE.INTER.CONST>
1

>  <SCORE.INTER.POLAR>
0

>  <SCORE.INTER.ROT>
6

>  <SCORE.INTER.SOLV>
11.9666

>  <SCORE.INTER.VDW>
-30.686

>  <SCORE.INTER.norm>
-0.987783

>  <SCORE.INTRA>
-16.4228

>  <SCORE.INTRA.DIHEDRAL>
-0.915024

>  <SCORE.INTRA.DIHEDRAL.0>
6.83446

>  <SCORE.INTRA.POLAR>
0

>  <SCORE.INTRA.POLAR.0>
0

>  <SCORE.INTRA.REPUL>
0

>  <SCORE.INTRA.REPUL.0>
0

>  <SCORE.INTRA.SOLV>
-0.50116

>  <SCORE.INTRA.SOLV.lig_0>
-26.4601

>  <SCORE.INTRA.VDW>
-15.7147

>  <SCORE.INTRA.VDW.0>
13.7853

>  <SCORE.INTRA.norm>
-0.566303

>  <SCORE.RESTR>
0

>  <SCORE.RESTR.CAVITY>
0

>  <SCORE.RESTR.norm>
0

>  <SCORE.SYSTEM>
0

>  <SCORE.SYSTEM.CONST>
0

>  <SCORE.SYSTEM.DIHEDRAL>
0

>  <SCORE.SYSTEM.SOLV>
0

>  <SCORE.SYSTEM.norm>
0

>  <SCORE.heavy>
29

>  <SCORE.norm>
-1.55409

>  <RMSD>
2.647

$$$$
ligand
 OpenBabel11021811473D
libRbt.so/2013.1/901 2013/11/27
 29 31  0  0  0  0  0  0  0  0999 V2000
   32.3420   36.0454   16.8814 C   0  0  0  0  0  0  0  0  0  0  0  0
   33.7554   36.2477   16.7797 O   0  0  0  0  0  0  0  0  0  0  0  0
   31.6183   37.2710   16.3408 C   0  0  1  0  0  0  0  0  0  0  0  0
   31.8494   37.3517   14.9378 O   0  0  0  0  0  0  0  0  0  0  0  0
   30.1248   37.1801   16.6264 C   0  0  1  0  0  0  0  0  0  0  0  0
   29.6232   36.0694   15.8921 O   0  0  0  0  0  0  0  0  0  0  0  0
   29.7560   37.0402   18.1063 C   0  0  1  0  0  0  0  0  0  0  0  0
   30.1854   38.2168   18.7925 O   0  0  0  0  0  0  0  0  0  0  0  0
   28.2573   36.8704   18.3464 C   0  0  0  0  0  0  0  0  0  0  0  0
   28.2160   34.0764   17.9423 N   0  0  0  0  0  0  0  0  0  0  0  0
   28.2080   32.7329   17.7125 C   0  0  0  0  0  0  0  0  0  0  0  0
   28.3974   32.2847   16.5541 O   0  0  0  0  0  0  0  0  0  0  0  0
   27.9899   31.8638   18.7319 N   0  0  0  0  0  0  0  0  0  0  0  0
   27.7768   32.3114   19.9949 C   0  0  0  0  0  0  0  0  0  0  0  0
   27.7834   33.6790   20.2444 C   0  0  1  0  0  0  0  0  0  0  0  0
   27.5733   31.5034   20.9346 O   0  0  0  0  0  0  0  0  0  0  0  0
   27.5858   35.4615   21.7408 C   0  0  1  0  0  0  0  0  0  0  0  0
   27.5773   34.1345   21.4992 N   0  0  0  0  0  0  0  0  0  0  0  0
   27.3722   35.9217   23.0355 C   0  0  0  0  0  0  0  0  0  0  0  0
   27.3776   37.2835   23.3167 C   0  0  2  0  0  0  0  0  0  0  0  0
   27.1382   37.7127   24.7414 C   0  0  0  0  0  0  0  0  0  0  0  0
   27.6010   38.2046   22.2854 C   0  0  2  0  0  0  0  0  0  0  0  0
   27.6203   39.5568   22.4860 N   0  0  0  0  0  0  0  0  0  0  0  0
   27.8132   37.7263   20.9866 C   0  0  0  0  0  0  0  0  0  0  0  0
   27.8074   36.3616   20.6998 C   0  0  2  0  0  0  0  0  0  0  0  0
   28.0094   34.5755   19.1953 C   0  0  2  0  0  0  0  0  0  0  0  0
   28.0102   35.9111   19.4405 N   0  0  0  0  0  0  0  0  0  0  0  0
   28.8306   40.1950   22.9681 C   0  0  0  0  0  0  0  0  0  0  0  0
   26.4664   40.4032   22.2313 C   0  0  0  0  0  0  0  0  0  0  0  0
  1  2  1  0  0  0  0
  3  1  1  6  0  0  0
  3  4  1  0  0  0  0
  3  5  1  0  0  0  0
  5  6  1  6  0  0  0
  5  7  1  0  0  0  0
  7  8  1  1  0  0  0
  7  9  1  0  0  0  0
  9 27  1  0  0  0  0
 10 11  1  0  0  0  0
 11 12  2  0  0  0  0
 11 13  1  0  0  0  0
 13 14  1  0  0  0  0
 14 16  2  0  0  0  0
 15 14  1  1  0  0  0
 15 18  1  0  0  0  0
 15 26  1  0  0  0  0
 17 19  1  1  0  0  0
 17 25  1  0  0  0  0
 17 18  1  0  0  0  0
 19 20  1  0  0  0  0
 20 21  1  6  0  0  0
 20 22  1  0  0  0  0
 22 23  1  6  0  0  0
 22 24  1  0  0  0  0
 23 28  1  0  0  0  0
 23 29  1  0  0  0  0
 25 24  1  6  0  0  0
 25 27  1  0  0  0  0
 26 10  1  6  0  0  0
 26 27  1  0  0  0  0
M  END
>  <CHROM.1>
67.43341550,-64.75702112,63.19466829,141.90129672,82.72154432,95.68995012
28.78457487,36.03187563,19.54966325,-0.77444704,0.93920053,0.46855494

>  <Name>
ligand

>  <RI>
0

>  <Rbt.Current_Directory>
/home/itssahil/PROJECTS/Mol_Feturizer/New_Systems/rnas/3F4H

>  <Rbt.Executable>
rbdock ($Id: //depot/dev/client3/rdock/2013.1/src/exe/rbdock.cxx#4 $)

>  <Rbt.Library>
libRbt.so (2013.1, Build901 2013/11/27)

>  <Rbt.Parameter_File>
/export/apps/rDock/src/rDock_2013.1_src/data/scripts/dock_solv.prm

>  <Rbt.Receptor>
prm/blind_docking_100.prm

>  <SCORE>
-45.1219

>  <SCORE.INTER>
-28.7563

>  <SCORE.INTER.CONST>
1

>  <SCORE.INTER.POLAR>
0

>  <SCORE.INTER.ROT>
6

>  <SCORE.INTER.SOLV>
12.0226

>  <SCORE.INTER.VDW>
-30.7784

>  <SCORE.INTER.norm>
-0.991598

>  <SCORE.INTRA>
-16.3656

>  <SCORE.INTRA.DIHEDRAL>
-0.806088

>  <SCORE.INTRA.DIHEDRAL.0>
6.83446

>  <SCORE.INTRA.POLAR>
0

>  <SCORE.INTRA.POLAR.0>
0

>  <SCORE.INTRA.REPUL>
0

>  <SCORE.INTRA.REPUL.0>
0

>  <SCORE.INTRA.SOLV>
-0.499101

>  <SCORE.INTRA.SOLV.lig_0>
-26.4601

>  <SCORE.INTRA.VDW>
-15.713

>  <SCORE.INTRA.VDW.0>
13.7853

>  <SCORE.INTRA.norm>
-0.56433

>  <SCORE.RESTR>
0

>  <SCORE.RESTR.CAVITY>
0

>  <SCORE.RESTR.norm>
0

>  <SCORE.SYSTEM>
0

>  <SCORE.SYSTEM.CONST>
0

>  <SCORE.SYSTEM.DIHEDRAL>
0

>  <SCORE.SYSTEM.SOLV>
0

>  <SCORE.SYSTEM.norm>
0

>  <SCORE.heavy>
29

>  <SCORE.norm>
-1.55593

>  <RMSD>
2.651

$$$$
ligand
 OpenBabel11021811473D
libRbt.so/2013.1/901 2013/11/27
 29 31  0  0  0  0  0  0  0  0999 V2000
   32.3941   36.0629   16.8651 C   0  0  0  0  0  0  0  0  0  0  0  0
   33.8062   36.2925   16.8157 O   0  0  0  0  0  0  0  0  0  0  0  0
   31.6670   37.2778   16.3052 C   0  0  1  0  0  0  0  0  0  0  0  0
   31.9117   37.3462   14.9038 O   0  0  0  0  0  0  0  0  0  0  0  0
   30.1715   37.1787   16.5767 C   0  0  1  0  0  0  0  0  0  0  0  0
   29.6822   36.0674   15.8349 O   0  0  0  0  0  0  0  0  0  0  0  0
   29.7898   37.0331   18.0528 C   0  0  1  0  0  0  0  0  0  0  0  0
   30.2054   38.2109   18.7455 O   0  0  0  0  0  0  0  0  0  0  0  0
   28.2899   36.8535   18.2785 C   0  0  0  0  0  0  0  0  0  0  0  0
   28.2063   34.0553   17.9116 N   0  0  0  0  0  0  0  0  0  0  0  0
   28.1777   32.7091   17.6996 C   0  0  0  0  0  0  0  0  0  0  0  0
   28.3509   32.2432   16.5457 O   0  0  0  0  0  0  0  0  0  0  0  0
   27.9563   31.8566   18.7321 N   0  0  0  0  0  0  0  0  0  0  0  0
   27.7602   32.3235   19.9909 C   0  0  0  0  0  0  0  0  0  0  0  0
   27.7880   33.6941   20.2223 C   0  0  1  0  0  0  0  0  0  0  0  0
   27.5536   31.5308   20.9429 O   0  0  0  0  0  0  0  0  0  0  0  0
   27.6281   35.4986   21.6967 C   0  0  1  0  0  0  0  0  0  0  0  0
   27.5990   34.1688   21.4727 N   0  0  0  0  0  0  0  0  0  0  0  0
   27.4320   35.9786   22.9869 C   0  0  0  0  0  0  0  0  0  0  0  0
   27.4588   37.3437   23.2501 C   0  0  2  0  0  0  0  0  0  0  0  0
   27.2376   37.7948   24.6710 C   0  0  0  0  0  0  0  0  0  0  0  0
   27.6861   38.2480   22.2049 C   0  0  2  0  0  0  0  0  0  0  0  0
   27.7259   39.6024   22.3875 N   0  0  0  0  0  0  0  0  0  0  0  0
   27.8805   37.7499   20.9108 C   0  0  0  0  0  0  0  0  0  0  0  0
   27.8532   36.3818   20.6421 C   0  0  2  0  0  0  0  0  0  0  0  0
   28.0175   34.5735   19.1596 C   0  0  2  0  0  0  0  0  0  0  0  0
   28.0390   35.9121   19.3871 N   0  0  0  0  0  0  0  0  0  0  0  0
   26.5262   40.3914   22.1812 C   0  0  0  0  0  0  0  0  0  0  0  0
   28.9340   40.3035   22.7899 C   0  0  0  0  0  0  0  0  0  0  0  0
  1  2  1  0  0  0  0
  3  1  1  6  0  0  0
  3  4  1  0  0  0  0
  3  5  1  0  0  0  0
  5  6  1  6  0  0  0
  5  7  1  0  0  0  0
  7  8  1  1  0  0  0
  7  9  1  0  0  0  0
  9 27  1  0  0  0  0
 10 11  1  0  0  0  0
 11 12  2  0  0  0  0
 11 13  1  0  0  0  0
 13 14  1  0  0  0  0
 14 16  2  0  0  0  0
 15 14  1  1  0  0  0
 15 18  1  0  0  0  0
 15 26  1  0  0  0  0
 17 19  1  1  0  0  0
 17 25  1  0  0  0  0
 17 18  1  0  0  0  0
 19 20  1  0  0  0  0
 20 21  1  6  0  0  0
 20 22  1  0  0  0  0
 22 23  1  6  0  0  0
 22 24  1  0  0  0  0
 23 28  1  0  0  0  0
 23 29  1  0  0  0  0
 25 24  1  6  0  0  0
 25 27  1  0  0  0  0
 26 10  1  6  0  0  0
 26 27  1  0  0  0  0
M  END
>  <CHROM.1>
69.30359606,-65.48703945,63.27302264,143.10662092,-94.18140034,93.89006008
28.82117066,36.04846441,19.50592548,-0.79595485,0.93288804,0.48148835

>  <Name>
ligand

>  <RI>
0

>  <Rbt.Current_Directory>
/home/itssahil/PROJECTS/Mol_Feturizer/New_Systems/rnas/3F4H

>  <Rbt.Executable>
rbdock ($Id: //depot/dev/client3/rdock/2013.1/src/exe/rbdock.cxx#4 $)

>  <Rbt.Library>
libRbt.so (2013.1, Build901 2013/11/27)

>  <Rbt.Parameter_File>
/export/apps/rDock/src/rDock_2013.1_src/data/scripts/dock_solv.prm

>  <Rbt.Receptor>
prm/pocket_docking_7.prm

>  <SCORE>
-45.0194

>  <SCORE.INTER>
-28.6151

>  <SCORE.INTER.CONST>
1

>  <SCORE.INTER.POLAR>
0

>  <SCORE.INTER.ROT>
6

>  <SCORE.INTER.SOLV>
12.0931

>  <SCORE.INTER.VDW>
-30.7078

>  <SCORE.INTER.norm>
-0.986728

>  <SCORE.INTRA>
-16.4043

>  <SCORE.INTRA.DIHEDRAL>
-0.823373

>  <SCORE.INTRA.DIHEDRAL.0>
6.83446

>  <SCORE.INTRA.POLAR>
0

>  <SCORE.INTRA.POLAR.0>
0

>  <SCORE.INTRA.REPUL>
0

>  <SCORE.INTRA.REPUL.0>
0

>  <SCORE.INTRA.SOLV>
-0.518091

>  <SCORE.INTRA.SOLV.lig_0>
-26.4601

>  <SCORE.INTRA.VDW>
-15.7336

>  <SCORE.INTRA.VDW.0>
13.7853

>  <SCORE.INTRA.norm>
-0.565666

>  <SCORE.RESTR>
0

>  <SCORE.RESTR.CAVITY>
0

>  <SCORE.RESTR.norm>
0

>  <SCORE.SYSTEM>
0

>  <SCORE.SYSTEM.CONST>
0

>  <SCORE.SYSTEM.DIHEDRAL>
0

>  <SCORE.SYSTEM.SOLV>
0

>  <SCORE.SYSTEM.norm>
0

>  <SCORE.heavy>
29

>  <SCORE.norm>
-1.55239

>  <RMSD>
2.658

$$$$
ligand
 OpenBabel11021811473D
libRbt.so/2013.1/901 2013/11/27
 29 31  0  0  0  0  0  0  0  0999 V2000
   32.3301   35.9968   16.8466 C   0  0  0  0  0  0  0  0  0  0  0  0
   33.7434   36.2069   16.7603 O   0  0  0  0  0  0  0  0  0  0  0  0
   31.6055   37.2214   16.3050 C   0  0  1  0  0  0  0  0  0  0  0  0
   31.8263   37.2940   14.8999 O   0  0  0  0  0  0  0  0  0  0  0  0
   30.1140   37.1360   16.6023 C   0  0  1  0  0  0  0  0  0  0  0  0
   29.6083   36.0095   15.8951 O   0  0  0  0  0  0  0  0  0  0  0  0
   29.7551   37.0274   18.0872 C   0  0  1  0  0  0  0  0  0  0  0  0
   30.2051   38.2104   18.7487 O   0  0  0  0  0  0  0  0  0  0  0  0
   28.2561   36.8818   18.3417 C   0  0  0  0  0  0  0  0  0  0  0  0
   28.1772   34.0876   17.9444 N   0  0  0  0  0  0  0  0  0  0  0  0
   28.1509   32.7438   17.7178 C   0  0  0  0  0  0  0  0  0  0  0  0
   28.3271   32.2907   16.5592 O   0  0  0  0  0  0  0  0  0  0  0  0
   27.9287   31.8798   18.7406 N   0  0  0  0  0  0  0  0  0  0  0  0
   27.7295   32.3328   20.0039 C   0  0  0  0  0  0  0  0  0  0  0  0
   27.7548   33.7008   20.2502 C   0  0  1  0  0  0  0  0  0  0  0  0
   27.5221   31.5296   20.9469 O   0  0  0  0  0  0  0  0  0  0  0  0
   27.5894   35.4890   21.7437 C   0  0  1  0  0  0  0  0  0  0  0  0
   27.5628   34.1617   21.5053 N   0  0  0  0  0  0  0  0  0  0  0  0
   27.3902   35.9548   23.0386 C   0  0  0  0  0  0  0  0  0  0  0  0
   27.4145   37.3170   23.3166 C   0  0  2  0  0  0  0  0  0  0  0  0
   27.1899   37.7524   24.7419 C   0  0  0  0  0  0  0  0  0  0  0  0
   27.6426   38.2329   22.2817 C   0  0  2  0  0  0  0  0  0  0  0  0
   27.6802   39.5852   22.4791 N   0  0  0  0  0  0  0  0  0  0  0  0
   27.8402   37.7491   20.9827 C   0  0  0  0  0  0  0  0  0  0  0  0
   27.8155   36.3839   20.6992 C   0  0  2  0  0  0  0  0  0  0  0  0
   27.9852   34.5921   19.1976 C   0  0  2  0  0  0  0  0  0  0  0  0
   28.0043   35.9281   19.4396 N   0  0  0  0  0  0  0  0  0  0  0  0
   26.5136   40.3899   22.1691 C   0  0  0  0  0  0  0  0  0  0  0  0
   28.8532   40.2690   22.9981 C   0  0  0  0  0  0  0  0  0  0  0  0
  1  2  1  0  0  0  0
  3  1  1  6  0  0  0
  3  4  1  0  0  0  0
  3  5  1  0  0  0  0
  5  6  1  6  0  0  0
  5  7  1  0  0  0  0
  7  8  1  1  0  0  0
  7  9  1  0  0  0  0
  9 27  1  0  0  0  0
 10 11  1  0  0  0  0
 11 12  2  0  0  0  0
 11 13  1  0  0  0  0
 13 14  1  0  0  0  0
 14 16  2  0  0  0  0
 15 14  1  1  0  0  0
 15 18  1  0  0  0  0
 15 26  1  0  0  0  0
 17 19  1  1  0  0  0
 17 25  1  0  0  0  0
 17 18  1  0  0  0  0
 19 20  1  0  0  0  0
 20 21  1  6  0  0  0
 20 22  1  0  0  0  0
 22 23  1  6  0  0  0
 22 24  1  0  0  0  0
 23 28  1  0  0  0  0
 23 29  1  0  0  0  0
 25 24  1  6  0  0  0
 25 27  1  0  0  0  0
 26 10  1  6  0  0  0
 26 27  1  0  0  0  0
M  END
>  <CHROM.1>
68.69143292,-63.81999457,62.38738309,140.94125158,-99.45521097,95.94484285
28.77899470,36.03625052,19.54217707,-0.79879722,0.93824437,0.48490097

>  <Name>
ligand

>  <RI>
0

>  <Rbt.Current_Directory>
/home/itssahil/PROJECTS/Mol_Feturizer/New_Systems/rnas/3F4H

>  <Rbt.Executable>
rbdock ($Id: //depot/dev/client3/rdock/2013.1/src/exe/rbdock.cxx#4 $)

>  <Rbt.Library>
libRbt.so (2013.1, Build901 2013/11/27)

>  <Rbt.Parameter_File>
/export/apps/rDock/src/rDock_2013.1_src/data/scripts/dock_solv.prm

>  <Rbt.Receptor>
prm/pocket_docking_6.prm

>  <SCORE>
-45.091

>  <SCORE.INTER>
-28.8054

>  <SCORE.INTER.CONST>
1

>  <SCORE.INTER.POLAR>
0

>  <SCORE.INTER.ROT>
6

>  <SCORE.INTER.SOLV>
11.7289

>  <SCORE.INTER.VDW>
-30.7133

>  <SCORE.INTER.norm>
-0.993291

>  <SCORE.INTRA>
-16.2855

>  <SCORE.INTRA.DIHEDRAL>
-0.66071

>  <SCORE.INTRA.DIHEDRAL.0>
6.83446

>  <SCORE.INTRA.POLAR>
0

>  <SCORE.INTRA.POLAR.0>
0

>  <SCORE.INTRA.REPUL>
0

>  <SCORE.INTRA.REPUL.0>
0

>  <SCORE.INTRA.SOLV>
-0.491239

>  <SCORE.INTRA.SOLV.lig_0>
-26.4601

>  <SCORE.INTRA.VDW>
-15.7095

>  <SCORE.INTRA.VDW.0>
13.7853

>  <SCORE.INTRA.norm>
-0.56157

>  <SCORE.RESTR>
0

>  <SCORE.RESTR.CAVITY>
0

>  <SCORE.RESTR.norm>
0

>  <SCORE.SYSTEM>
0

>  <SCORE.SYSTEM.CONST>
0

>  <SCORE.SYSTEM.DIHEDRAL>
0

>  <SCORE.SYSTEM.SOLV>
0

>  <SCORE.SYSTEM.norm>
0

>  <SCORE.heavy>
29

>  <SCORE.norm>
-1.55486

>  <RMSD>
2.662

$$$$
ligand
 OpenBabel11021811473D
libRbt.so/2013.1/901 2013/11/27
 29 31  0  0  0  0  0  0  0  0999 V2000
   27.5663   35.0646   14.2199 C   0  0  0  0  0  0  0  0  0  0  0  0
   27.4334   33.7281   14.7148 O   0  0  0  0  0  0  0  0  0  0  0  0
   27.1817   36.0478   15.3169 C   0  0  1  0  0  0  0  0  0  0  0  0
   25.8470   35.7688   15.7281 O   0  0  0  0  0  0  0  0  0  0  0  0
   28.1349   35.9304   16.4993 C   0  0  1  0  0  0  0  0  0  0  0  0
   29.4464   36.1832   16.0087 O   0  0  0  0  0  0  0  0  0  0  0  0
   27.8259   36.8621   17.6749 C   0  0  1  0  0  0  0  0  0  0  0  0
   26.4951   36.6000   18.1220 O   0  0  0  0  0  0  0  0  0  0  0  0
   28.7704   36.6787   18.8611 C   0  0  0  0  0  0  0  0  0  0  0  0
   28.5828   33.9209   18.2862 N   0  0  0  0  0  0  0  0  0  0  0  0
   28.5117   32.5951   17.9776 C   0  0  0  0  0  0  0  0  0  0  0  0
   28.9030   32.1810   16.8579 O   0  0  0  0  0  0  0  0  0  0  0  0
   28.0120   31.7078   18.8748 N   0  0  0  0  0  0  0  0  0  0  0  0
   27.5754   32.1191   20.0918 C   0  0  0  0  0  0  0  0  0  0  0  0
   27.6431   33.4681   20.4209 C   0  0  1  0  0  0  0  0  0  0  0  0
   27.1119   31.2945   20.9180 O   0  0  0  0  0  0  0  0  0  0  0  0
   27.2836   35.1958   21.9511 C   0  0  1  0  0  0  0  0  0  0  0  0
   27.2158   33.8871   21.6319 N   0  0  0  0  0  0  0  0  0  0  0  0
   26.8410   35.6184   23.1997 C   0  0  0  0  0  0  0  0  0  0  0  0
   26.9003   36.9603   23.5591 C   0  0  2  0  0  0  0  0  0  0  0  0
   26.4026   37.3490   24.9275 C   0  0  0  0  0  0  0  0  0  0  0  0
   27.4120   37.8995   22.6545 C   0  0  2  0  0  0  0  0  0  0  0  0
   27.5010   39.2340   22.9376 N   0  0  0  0  0  0  0  0  0  0  0  0
   27.8526   37.4592   21.4005 C   0  0  0  0  0  0  0  0  0  0  0  0
   27.7938   36.1146   21.0354 C   0  0  2  0  0  0  0  0  0  0  0  0
   28.1591   34.3833   19.4980 C   0  0  2  0  0  0  0  0  0  0  0  0
   28.2193   35.7012   19.8197 N   0  0  0  0  0  0  0  0  0  0  0  0
   28.5338   39.7108   23.8378 C   0  0  0  0  0  0  0  0  0  0  0  0
   26.5965   40.2182   22.3665 C   0  0  0  0  0  0  0  0  0  0  0  0
  1  2  1  0  0  0  0
  3  1  1  6  0  0  0
  3  4  1  0  0  0  0
  3  5  1  0  0  0  0
  5  6  1  6  0  0  0
  5  7  1  0  0  0  0
  7  8  1  1  0  0  0
  7  9  1  0  0  0  0
  9 27  1  0  0  0  0
 10 11  1  0  0  0  0
 11 12  2  0  0  0  0
 11 13  1  0  0  0  0
 13 14  1  0  0  0  0
 14 16  2  0  0  0  0
 15 14  1  1  0  0  0
 15 18  1  0  0  0  0
 15 26  1  0  0  0  0
 17 19  1  1  0  0  0
 17 25  1  0  0  0  0
 17 18  1  0  0  0  0
 19 20  1  0  0  0  0
 20 21  1  6  0  0  0
 20 22  1  0  0  0  0
 22 23  1  6  0  0  0
 22 24  1  0  0  0  0
 23 28  1  0  0  0  0
 23 29  1  0  0  0  0
 25 24  1  6  0  0  0
 25 27  1  0  0  0  0
 26 10  1  6  0  0  0
 26 27  1  0  0  0  0
M  END
>  <CHROM.1>
-57.94406893,58.27314920,57.66920435,-92.01883319,74.85751240,-111.00533090
27.64181705,35.51518832,19.53408561,0.12231593,1.49658114,-0.62874383

>  <Name>
ligand

>  <RI>
0

>  <Rbt.Current_Directory>
/home/itssahil/PROJECTS/Mol_Feturizer/New_Systems/rnas/3F4H

>  <Rbt.Executable>
rbdock ($Id: //depot/dev/client3/rdock/2013.1/src/exe/rbdock.cxx#4 $)

>  <Rbt.Library>
libRbt.so (2013.1, Build901 2013/11/27)

>  <Rbt.Parameter_File>
/export/apps/rDock/src/rDock_2013.1_src/data/scripts/dock_solv.prm

>  <Rbt.Receptor>
prm/blind_docking_100.prm

>  <SCORE>
-46.4264

>  <SCORE.INTER>
-30.396

>  <SCORE.INTER.CONST>
1

>  <SCORE.INTER.POLAR>
0

>  <SCORE.INTER.ROT>
6

>  <SCORE.INTER.SOLV>
11.1279

>  <SCORE.INTER.VDW>
-31.5733

>  <SCORE.INTER.norm>
-1.04814

>  <SCORE.INTRA>
-16.0305

>  <SCORE.INTRA.DIHEDRAL>
-1.82349

>  <SCORE.INTRA.DIHEDRAL.0>
6.83446

>  <SCORE.INTRA.POLAR>
0

>  <SCORE.INTRA.POLAR.0>
0

>  <SCORE.INTRA.REPUL>
0

>  <SCORE.INTRA.REPUL.0>
0

>  <SCORE.INTRA.SOLV>
0.854663

>  <SCORE.INTRA.SOLV.lig_0>
-26.4601

>  <SCORE.INTRA.VDW>
-15.5461

>  <SCORE.INTRA.VDW.0>
13.7853

>  <SCORE.INTRA.norm>
-0.552775

>  <SCORE.RESTR>
0

>  <SCORE.RESTR.CAVITY>
0

>  <SCORE.RESTR.norm>
0

>  <SCORE.SYSTEM>
0

>  <SCORE.SYSTEM.CONST>
0

>  <SCORE.SYSTEM.DIHEDRAL>
0

>  <SCORE.SYSTEM.SOLV>
0

>  <SCORE.SYSTEM.norm>
0

>  <SCORE.heavy>
29

>  <SCORE.norm>
-1.60091

>  <RMSD>
2.717

$$$$
ligand
 OpenBabel11021811473D
libRbt.so/2013.1/901 2013/11/27
 29 31  0  0  0  0  0  0  0  0999 V2000
   30.4999   34.9900   14.9204 C   0  0  0  0  0  0  0  0  0  0  0  0
   30.2398   33.7014   15.4868 O   0  0  0  0  0  0  0  0  0  0  0  0
   29.7654   36.0518   15.7274 C   0  0  1  0  0  0  0  0  0  0  0  0
   28.3681   35.7844   15.6624 O   0  0  0  0  0  0  0  0  0  0  0  0
   30.2383   36.0459   17.1754 C   0  0  1  0  0  0  0  0  0  0  0  0
   31.6481   36.2374   17.1581 O   0  0  0  0  0  0  0  0  0  0  0  0
   29.5777   37.0936   18.0763 C   0  0  1  0  0  0  0  0  0  0  0  0
   29.7023   38.3712   17.4504 O   0  0  0  0  0  0  0  0  0  0  0  0
   28.0945   36.8308   18.3287 C   0  0  0  0  0  0  0  0  0  0  0  0
   28.0317   34.0351   17.9395 N   0  0  0  0  0  0  0  0  0  0  0  0
   28.0113   32.6906   17.7162 C   0  0  0  0  0  0  0  0  0  0  0  0
   28.1297   32.2377   16.5503 O   0  0  0  0  0  0  0  0  0  0  0  0
   27.8572   31.8257   18.7506 N   0  0  0  0  0  0  0  0  0  0  0  0
   27.7215   32.2783   20.0225 C   0  0  0  0  0  0  0  0  0  0  0  0
   27.7418   33.6470   20.2655 C   0  0  1  0  0  0  0  0  0  0  0  0
   27.5770   31.4741   20.9763 O   0  0  0  0  0  0  0  0  0  0  0  0
   27.6343   35.4356   21.7637 C   0  0  1  0  0  0  0  0  0  0  0  0
   27.6126   34.1076   21.5287 N   0  0  0  0  0  0  0  0  0  0  0  0
   27.5001   35.9010   23.0671 C   0  0  0  0  0  0  0  0  0  0  0  0
   27.5212   37.2640   23.3418 C   0  0  2  0  0  0  0  0  0  0  0  0
   27.3692   37.6991   24.7768 C   0  0  0  0  0  0  0  0  0  0  0  0
   27.6797   38.1810   22.2949 C   0  0  2  0  0  0  0  0  0  0  0  0
   27.7097   39.5340   22.4884 N   0  0  0  0  0  0  0  0  0  0  0  0
   27.8123   37.6974   20.9876 C   0  0  0  0  0  0  0  0  0  0  0  0
   27.7906   36.3315   20.7074 C   0  0  2  0  0  0  0  0  0  0  0  0
   27.9019   34.5393   19.2008 C   0  0  2  0  0  0  0  0  0  0  0  0
   27.9162   35.8759   19.4398 N   0  0  0  0  0  0  0  0  0  0  0  0
   26.5161   40.3218   22.2454 C   0  0  0  0  0  0  0  0  0  0  0  0
   28.9010   40.2350   22.9382 C   0  0  0  0  0  0  0  0  0  0  0  0
  1  2  1  0  0  0  0
  3  1  1  6  0  0  0
  3  4  1  0  0  0  0
  3  5  1  0  0  0  0
  5  6  1  6  0  0  0
  5  7  1  0  0  0  0
  7  8  1  6  0  0  0
  7  9  1  0  0  0  0
  9 27  1  0  0  0  0
 10 11  1  0  0  0  0
 11 12  2  0  0  0  0
 11 13  1  0  0  0  0
 13 14  1  0  0  0  0
 14 16  2  0  0  0  0
 15 14  1  1  0  0  0
 15 18  1  0  0  0  0
 15 26  1  0  0  0  0
 17 19  1  1  0  0  0
 17 25  1  0  0  0  0
 17 18  1  0  0  0  0
 19 20  1  0  0  0  0
 20 21  1  6  0  0  0
 20 22  1  0  0  0  0
 22 23  1  6  0  0  0
 22 24  1  0  0  0  0
 23 28  1  0  0  0  0
 23 29  1  0  0  0  0
 25 24  1  6  0  0  0
 25 27  1  0  0  0  0
 26 10  1  6  0  0  0
 26 27  1  0  0  0  0
M  END
>  <CHROM.1>
-60.95503265,56.43922864,-52.21089745,84.09385106,-99.29421129,90.77894154
28.42416967,35.74615009,19.45963147,-1.02708961,1.15115713,0.46028621

>  <Name>
ligand

>  <RI>
0

>  <Rbt.Current_Directory>
/home/itssahil/PROJECTS/Mol_Feturizer/New_Systems/rnas/3F4H

>  <Rbt.Executable>
rbdock ($Id: //depot/dev/client3/rdock/2013.1/src/exe/rbdock.cxx#4 $)

>  <Rbt.Library>
libRbt.so (2013.1, Build901 2013/11/27)

>  <Rbt.Parameter_File>
/export/apps/rDock/src/rDock_2013.1_src/data/scripts/dock_solv.prm

>  <Rbt.Receptor>
prm/pocket_docking_7.prm

>  <SCORE>
-44.0326

>  <SCORE.INTER>
-26.769

>  <SCORE.INTER.CONST>
1

>  <SCORE.INTER.POLAR>
0

>  <SCORE.INTER.ROT>
6

>  <SCORE.INTER.SOLV>
9.04514

>  <SCORE.INTER.VDW>
-28.4611

>  <SCORE.INTER.norm>
-0.923069

>  <SCORE.INTRA>
-17.2636

>  <SCORE.INTRA.DIHEDRAL>
-2.74787

>  <SCORE.INTRA.DIHEDRAL.0>
6.83446

>  <SCORE.INTRA.POLAR>
0

>  <SCORE.INTRA.POLAR.0>
0

>  <SCORE.INTRA.REPUL>
0

>  <SCORE.INTRA.REPUL.0>
0

>  <SCORE.INTRA.SOLV>
0.966071

>  <SCORE.INTRA.SOLV.lig_0>
-26.4601

>  <SCORE.INTRA.VDW>
-16.3727

>  <SCORE.INTRA.VDW.0>
13.7853

>  <SCORE.INTRA.norm>
-0.595295

>  <SCORE.RESTR>
0

>  <SCORE.RESTR.CAVITY>
0

>  <SCORE.RESTR.norm>
0

>  <SCORE.SYSTEM>
0

>  <SCORE.SYSTEM.CONST>
0

>  <SCORE.SYSTEM.DIHEDRAL>
0

>  <SCORE.SYSTEM.SOLV>
0

>  <SCORE.SYSTEM.norm>
0

>  <SCORE.heavy>
29

>  <SCORE.norm>
-1.51836

>  <RMSD>
2.786

$$$$
ligand
 OpenBabel11021811473D
libRbt.so/2013.1/901 2013/11/27
 29 31  0  0  0  0  0  0  0  0999 V2000
   30.7953   34.9916   14.9107 C   0  0  0  0  0  0  0  0  0  0  0  0
   30.5119   33.7079   15.4769 O   0  0  0  0  0  0  0  0  0  0  0  0
   30.0073   36.0571   15.6605 C   0  0  1  0  0  0  0  0  0  0  0  0
   28.6185   35.7711   15.5276 O   0  0  0  0  0  0  0  0  0  0  0  0
   30.4042   36.0808   17.1310 C   0  0  1  0  0  0  0  0  0  0  0  0
   31.8139   36.2672   17.1830 O   0  0  0  0  0  0  0  0  0  0  0  0
   29.7022   37.1497   17.9737 C   0  0  1  0  0  0  0  0  0  0  0  0
   29.8377   38.4081   17.3120 O   0  0  0  0  0  0  0  0  0  0  0  0
   28.2133   36.8800   18.1815 C   0  0  0  0  0  0  0  0  0  0  0  0
   28.1433   34.0810   17.8184 N   0  0  0  0  0  0  0  0  0  0  0  0
   28.1202   32.7344   17.6079 C   0  0  0  0  0  0  0  0  0  0  0  0
   28.2616   32.2693   16.4494 O   0  0  0  0  0  0  0  0  0  0  0  0
   27.9386   31.8806   18.6472 N   0  0  0  0  0  0  0  0  0  0  0  0
   27.7776   32.3467   19.9112 C   0  0  0  0  0  0  0  0  0  0  0  0
   27.8004   33.7176   20.1412 C   0  0  1  0  0  0  0  0  0  0  0  0
   27.6078   31.5528   20.8695 O   0  0  0  0  0  0  0  0  0  0  0  0
   27.6703   35.5215   21.6191 C   0  0  1  0  0  0  0  0  0  0  0  0
   27.6462   34.1914   21.3966 N   0  0  0  0  0  0  0  0  0  0  0  0
   27.5102   36.0006   22.9146 C   0  0  0  0  0  0  0  0  0  0  0  0
   27.5329   37.3661   23.1763 C   0  0  2  0  0  0  0  0  0  0  0  0
   27.3521   37.8162   24.6032 C   0  0  0  0  0  0  0  0  0  0  0  0
   27.7195   38.2717   22.1242 C   0  0  2  0  0  0  0  0  0  0  0  0
   27.7529   39.6265   22.3050 N   0  0  0  0  0  0  0  0  0  0  0  0
   27.8780   37.7745   20.8249 C   0  0  0  0  0  0  0  0  0  0  0  0
   27.8546   36.4060   20.5576 C   0  0  2  0  0  0  0  0  0  0  0  0
   27.9888   34.5983   19.0715 C   0  0  2  0  0  0  0  0  0  0  0  0
   28.0054   35.9371   19.2977 N   0  0  0  0  0  0  0  0  0  0  0  0
   29.0257   40.2948   22.4992 C   0  0  0  0  0  0  0  0  0  0  0  0
   26.5527   40.4463   22.3083 C   0  0  0  0  0  0  0  0  0  0  0  0
  1  2  1  0  0  0  0
  3  1  1  6  0  0  0
  3  4  1  0  0  0  0
  3  5  1  0  0  0  0
  5  6  1  6  0  0  0
  5  7  1  0  0  0  0
  7  8  1  6  0  0  0
  7  9  1  0  0  0  0
  9 27  1  0  0  0  0
 10 11  1  0  0  0  0
 11 12  2  0  0  0  0
 11 13  1  0  0  0  0
 13 14  1  0  0  0  0
 14 16  2  0  0  0  0
 15 14  1  1  0  0  0
 15 18  1  0  0  0  0
 15 26  1  0  0  0  0
 17 19  1  1  0  0  0
 17 25  1  0  0  0  0
 17 18  1  0  0  0  0
 19 20  1  0  0  0  0
 20 21  1  6  0  0  0
 20 22  1  0  0  0  0
 22 23  1  6  0  0  0
 22 24  1  0  0  0  0
 23 28  1  0  0  0  0
 23 29  1  0  0  0  0
 25 24  1  6  0  0  0
 25 27  1  0  0  0  0
 26 10  1  6  0  0  0
 26 27  1  0  0  0  0
M  END
>  <CHROM.1>
-60.44315793,55.48157101,-50.85812655,82.92057649,93.48214057,89.86248107
28.53004925,35.80446512,19.34088732,-1.01733754,1.11519522,0.44061820

>  <Name>
ligand

>  <RI>
0

>  <Rbt.Current_Directory>
/home/itssahil/PROJECTS/Mol_Feturizer/New_Systems/rnas/3F4H

>  <Rbt.Executable>
rbdock ($Id: //depot/dev/client3/rdock/2013.1/src/exe/rbdock.cxx#4 $)

>  <Rbt.Library>
libRbt.so (2013.1, Build901 2013/11/27)

>  <Rbt.Parameter_File>
/export/apps/rDock/src/rDock_2013.1_src/data/scripts/dock_solv.prm

>  <Rbt.Receptor>
prm/pocket_docking_6.prm

>  <SCORE>
-43.9565

>  <SCORE.INTER>
-26.4773

>  <SCORE.INTER.CONST>
1

>  <SCORE.INTER.POLAR>
0

>  <SCORE.INTER.ROT>
6

>  <SCORE.INTER.SOLV>
8.96481

>  <SCORE.INTER.VDW>
-28.2398

>  <SCORE.INTER.norm>
-0.913012

>  <SCORE.INTRA>
-17.4792

>  <SCORE.INTRA.DIHEDRAL>
-2.79465

>  <SCORE.INTRA.DIHEDRAL.0>
6.83446

>  <SCORE.INTRA.POLAR>
0

>  <SCORE.INTRA.POLAR.0>
0

>  <SCORE.INTRA.REPUL>
0

>  <SCORE.INTRA.REPUL.0>
0

>  <SCORE.INTRA.SOLV>
0.932001

>  <SCORE.INTRA.SOLV.lig_0>
-26.4601

>  <SCORE.INTRA.VDW>
-16.5478

>  <SCORE.INTRA.VDW.0>
13.7853

>  <SCORE.INTRA.norm>
-0.60273

>  <SCORE.RESTR>
0

>  <SCORE.RESTR.CAVITY>
0

>  <SCORE.RESTR.norm>
0

>  <SCORE.SYSTEM>
0

>  <SCORE.SYSTEM.CONST>
0

>  <SCORE.SYSTEM.DIHEDRAL>
0

>  <SCORE.SYSTEM.SOLV>
0

>  <SCORE.SYSTEM.norm>
0

>  <SCORE.heavy>
29

>  <SCORE.norm>
-1.51574

>  <RMSD>
2.801

$$$$
ligand
 OpenBabel11021811473D
libRbt.so/2013.1/901 2013/11/27
 29 31  0  0  0  0  0  0  0  0999 V2000
   30.2492   34.3077   15.1438 C   0  0  0  0  0  0  0  0  0  0  0  0
   29.8523   34.2191   13.7714 O   0  0  0  0  0  0  0  0  0  0  0  0
   29.7397   35.6166   15.7314 C   0  0  1  0  0  0  0  0  0  0  0  0
   28.3184   35.6307   15.6416 O   0  0  0  0  0  0  0  0  0  0  0  0
   30.1794   35.7589   17.1828 C   0  0  1  0  0  0  0  0  0  0  0  0
   31.6014   35.8107   17.1881 O   0  0  0  0  0  0  0  0  0  0  0  0
   29.6076   36.9758   17.9161 C   0  0  1  0  0  0  0  0  0  0  0  0
   29.7614   38.1220   17.0781 O   0  0  0  0  0  0  0  0  0  0  0  0
   28.1268   36.8364   18.2634 C   0  0  0  0  0  0  0  0  0  0  0  0
   28.0245   34.0355   17.9232 N   0  0  0  0  0  0  0  0  0  0  0  0
   27.9848   32.6877   17.7235 C   0  0  0  0  0  0  0  0  0  0  0  0
   28.0909   32.2131   16.5650 O   0  0  0  0  0  0  0  0  0  0  0  0
   27.8249   31.8430   18.7736 N   0  0  0  0  0  0  0  0  0  0  0  0
   27.7021   32.3195   20.0380 C   0  0  0  0  0  0  0  0  0  0  0  0
   27.7421   33.6918   20.2571 C   0  0  1  0  0  0  0  0  0  0  0  0
   27.5521   31.5339   21.0065 O   0  0  0  0  0  0  0  0  0  0  0  0
   27.6668   35.5074   21.7245 C   0  0  1  0  0  0  0  0  0  0  0  0
   27.6260   34.1759   21.5127 N   0  0  0  0  0  0  0  0  0  0  0  0
   27.5459   35.9971   23.0203 C   0  0  0  0  0  0  0  0  0  0  0  0
   27.5867   37.3642   23.2711 C   0  0  2  0  0  0  0  0  0  0  0  0
   27.4484   37.8261   24.6990 C   0  0  0  0  0  0  0  0  0  0  0  0
   27.7518   38.2607   22.2076 C   0  0  2  0  0  0  0  0  0  0  0  0
   27.8009   39.6164   22.3773 N   0  0  0  0  0  0  0  0  0  0  0  0
   27.8708   37.7527   20.9082 C   0  0  0  0  0  0  0  0  0  0  0  0
   27.8292   36.3826   20.6519 C   0  0  2  0  0  0  0  0  0  0  0  0
   27.9084   34.5632   19.1762 C   0  0  2  0  0  0  0  0  0  0  0  0
   27.9418   35.9034   19.3918 N   0  0  0  0  0  0  0  0  0  0  0  0
   29.0853   40.2894   22.4218 C   0  0  0  0  0  0  0  0  0  0  0  0
   26.6061   40.4327   22.5140 C   0  0  0  0  0  0  0  0  0  0  0  0
  1  2  1  0  0  0  0
  3  1  1  1  0  0  0
  3  4  1  0  0  0  0
  3  5  1  0  0  0  0
  5  6  1  6  0  0  0
  5  7  1  0  0  0  0
  7  8  1  6  0  0  0
  7  9  1  0  0  0  0
  9 27  1  0  0  0  0
 10 11  1  0  0  0  0
 11 12  2  0  0  0  0
 11 13  1  0  0  0  0
 13 14  1  0  0  0  0
 14 16  2  0  0  0  0
 15 14  1  1  0  0  0
 15 18  1  0  0  0  0
 15 26  1  0  0  0  0
 17 19  1  1  0  0  0
 17 25  1  0  0  0  0
 17 18  1  0  0  0  0
 19 20  1  0  0  0  0
 20 21  1  6  0  0  0
 20 22  1  0  0  0  0
 22 23  1  6  0  0  0
 22 24  1  0  0  0  0
 23 28  1  0  0  0  0
 23 29  1  0  0  0  0
 25 24  1  6  0  0  0
 25 27  1  0  0  0  0
 26 10  1  6  0  0  0
 26 27  1  0  0  0  0
M  END
>  <CHROM.1>
60.42193384,63.03362313,-46.95451185,74.44977641,98.52538612,95.95166275
28.41985429,35.71860179,19.34870965,-1.04773525,1.17591410,0.49244224

>  <Name>
ligand

>  <RI>
0

>  <Rbt.Current_Directory>
/home/itssahil/PROJECTS/Mol_Feturizer/New_Systems/rnas/3F4H

>  <Rbt.Executable>
rbdock ($Id: //depot/dev/client3/rdock/2013.1/src/exe/rbdock.cxx#4 $)

>  <Rbt.Library>
libRbt.so (2013.1, Build901 2013/11/27)

>  <Rbt.Parameter_File>
/export/apps/rDock/src/rDock_2013.1_src/data/scripts/dock_solv.prm

>  <Rbt.Receptor>
prm/blind_docking_60.prm

>  <SCORE>
-44.4268

>  <SCORE.INTER>
-26.3974

>  <SCORE.INTER.CONST>
1

>  <SCORE.INTER.POLAR>
0

>  <SCORE.INTER.ROT>
6

>  <SCORE.INTER.SOLV>
8.93586

>  <SCORE.INTER.VDW>
-28.1769

>  <SCORE.INTER.norm>
-0.910257

>  <SCORE.INTRA>
-18.0293

>  <SCORE.INTRA.DIHEDRAL>
-3.49407

>  <SCORE.INTRA.DIHEDRAL.0>
6.83446

>  <SCORE.INTRA.POLAR>
0

>  <SCORE.INTRA.POLAR.0>
0

>  <SCORE.INTRA.REPUL>
0

>  <SCORE.INTRA.REPUL.0>
0

>  <SCORE.INTRA.SOLV>
0.484996

>  <SCORE.INTRA.SOLV.lig_0>
-26.4601

>  <SCORE.INTRA.VDW>
-16.5248

>  <SCORE.INTRA.VDW.0>
13.7853

>  <SCORE.INTRA.norm>
-0.621701

>  <SCORE.RESTR>
0

>  <SCORE.RESTR.CAVITY>
0

>  <SCORE.RESTR.norm>
0

>  <SCORE.SYSTEM>
0

>  <SCORE.SYSTEM.CONST>
0

>  <SCORE.SYSTEM.DIHEDRAL>
0

>  <SCORE.SYSTEM.SOLV>
0

>  <SCORE.SYSTEM.norm>
0

>  <SCORE.heavy>
29

>  <SCORE.norm>
-1.53196

>  <RMSD>
2.835

$$$$
ligand
 OpenBabel11021811473D
libRbt.so/2013.1/901 2013/11/27
 29 31  0  0  0  0  0  0  0  0999 V2000
   30.8674   34.6591   14.8402 C   0  0  0  0  0  0  0  0  0  0  0  0
   31.2811   33.2912   14.7580 O   0  0  0  0  0  0  0  0  0  0  0  0
   30.6623   35.0356   16.3012 C   0  0  1  0  0  0  0  0  0  0  0  0
   31.9287   35.0303   16.9527 O   0  0  0  0  0  0  0  0  0  0  0  0
   30.0153   36.4101   16.4140 C   0  0  1  0  0  0  0  0  0  0  0  0
   28.7771   36.3505   15.7154 O   0  0  0  0  0  0  0  0  0  0  0  0
   29.7863   36.9022   17.8461 C   0  0  1  0  0  0  0  0  0  0  0  0
   30.2780   38.2390   17.9489 O   0  0  0  0  0  0  0  0  0  0  0  0
   28.3165   36.9033   18.2614 C   0  0  0  0  0  0  0  0  0  0  0  0
   28.2672   34.1150   17.8207 N   0  0  0  0  0  0  0  0  0  0  0  0
   28.2549   32.7746   17.5732 C   0  0  0  0  0  0  0  0  0  0  0  0
   28.4308   32.3416   16.4070 O   0  0  0  0  0  0  0  0  0  0  0  0
   28.0472   31.8923   18.5834 N   0  0  0  0  0  0  0  0  0  0  0  0
   27.8488   32.3233   19.8545 C   0  0  0  0  0  0  0  0  0  0  0  0
   27.8600   33.6875   20.1221 C   0  0  1  0  0  0  0  0  0  0  0  0
   27.6549   31.5031   20.7858 O   0  0  0  0  0  0  0  0  0  0  0  0
   27.6814   35.4502   21.6441 C   0  0  1  0  0  0  0  0  0  0  0  0
   27.6686   34.1266   21.3851 N   0  0  0  0  0  0  0  0  0  0  0  0
   27.4830   35.8934   22.9471 C   0  0  0  0  0  0  0  0  0  0  0  0
   27.4932   37.2513   23.2462 C   0  0  2  0  0  0  0  0  0  0  0  0
   27.2704   37.6619   24.6791 C   0  0  0  0  0  0  0  0  0  0  0  0
   27.7062   38.1858   22.2248 C   0  0  2  0  0  0  0  0  0  0  0  0
   27.7295   39.5352   22.4431 N   0  0  0  0  0  0  0  0  0  0  0  0
   27.9032   37.7245   20.9175 C   0  0  0  0  0  0  0  0  0  0  0  0
   27.8925   36.3638   20.6127 C   0  0  2  0  0  0  0  0  0  0  0  0
   28.0754   34.5976   19.0825 C   0  0  2  0  0  0  0  0  0  0  0  0
   28.0806   35.9298   19.3453 N   0  0  0  0  0  0  0  0  0  0  0  0
   26.5416   40.3263   22.1833 C   0  0  0  0  0  0  0  0  0  0  0  0
   28.9078   40.2289   22.9361 C   0  0  0  0  0  0  0  0  0  0  0  0
  1  2  1  0  0  0  0
  3  1  1  6  0  0  0
  3  4  1  0  0  0  0
  3  5  1  0  0  0  0
  5  6  1  1  0  0  0
  5  7  1  0  0  0  0
  7  8  1  6  0  0  0
  7  9  1  0  0  0  0
  9 27  1  0  0  0  0
 10 11  1  0  0  0  0
 11 12  2  0  0  0  0
 11 13  1  0  0  0  0
 13 14  1  0  0  0  0
 14 16  2  0  0  0  0
 15 14  1  1  0  0  0
 15 18  1  0  0  0  0
 15 26  1  0  0  0  0
 17 19  1  1  0  0  0
 17 25  1  0  0  0  0
 17 18  1  0  0  0  0
 19 20  1  0  0  0  0
 20 21  1  6  0  0  0
 20 22  1  0  0  0  0
 22 23  1  6  0  0  0
 22 24  1  0  0  0  0
 23 28  1  0  0  0  0
 23 29  1  0  0  0  0
 25 24  1  6  0  0  0
 25 27  1  0  0  0  0
 26 10  1  6  0  0  0
 26 27  1  0  0  0  0
M  END
>  <CHROM.1>
67.70687859,58.44550416,131.52507307,114.66285193,-97.88781460,105.20640844
28.62918115,35.68222701,19.35142432,-0.93427605,1.08842125,0.38326519

>  <Name>
ligand

>  <RI>
0

>  <Rbt.Current_Directory>
/home/itssahil/PROJECTS/Mol_Feturizer/New_Systems/rnas/3F4H

>  <Rbt.Executable>
rbdock ($Id: //depot/dev/client3/rdock/2013.1/src/exe/rbdock.cxx#4 $)

>  <Rbt.Library>
libRbt.so (2013.1, Build901 2013/11/27)

>  <Rbt.Parameter_File>
/export/apps/rDock/src/rDock_2013.1_src/data/scripts/dock_solv.prm

>  <Rbt.Receptor>
prm/blind_docking_60.prm

>  <SCORE>
-43.9588

>  <SCORE.INTER>
-31.0352

>  <SCORE.INTER.CONST>
1

>  <SCORE.INTER.POLAR>
-0.994987

>  <SCORE.INTER.ROT>
6

>  <SCORE.INTER.SOLV>
11.4311

>  <SCORE.INTER.VDW>
-28.7838

>  <SCORE.INTER.norm>
-1.07018

>  <SCORE.INTRA>
-12.9236

>  <SCORE.INTRA.DIHEDRAL>
5.48468

>  <SCORE.INTRA.DIHEDRAL.0>
6.83446

>  <SCORE.INTRA.POLAR>
0

>  <SCORE.INTRA.POLAR.0>
0

>  <SCORE.INTRA.REPUL>
0

>  <SCORE.INTRA.REPUL.0>
0

>  <SCORE.INTRA.SOLV>
-0.016199

>  <SCORE.INTRA.SOLV.lig_0>
-26.4601

>  <SCORE.INTRA.VDW>
-15.6579

>  <SCORE.INTRA.VDW.0>
13.7853

>  <SCORE.INTRA.norm>
-0.445643

>  <SCORE.RESTR>
0

>  <SCORE.RESTR.CAVITY>
0

>  <SCORE.RESTR.norm>
0

>  <SCORE.SYSTEM>
0

>  <SCORE.SYSTEM.CONST>
0

>  <SCORE.SYSTEM.DIHEDRAL>
0

>  <SCORE.SYSTEM.SOLV>
0

>  <SCORE.SYSTEM.norm>
0

>  <SCORE.heavy>
29

>  <SCORE.norm>
-1.51582

>  <RMSD>
2.980

$$$$
ligand
 OpenBabel11021811473D
libRbt.so/2013.1/901 2013/11/27
 29 31  0  0  0  0  0  0  0  0999 V2000
   30.4372   34.6597   14.1509 C   0  0  0  0  0  0  0  0  0  0  0  0
   31.0080   33.4066   13.7599 O   0  0  0  0  0  0  0  0  0  0  0  0
   30.6378   34.8589   15.6470 C   0  0  1  0  0  0  0  0  0  0  0  0
   31.9983   35.2104   15.8790 O   0  0  0  0  0  0  0  0  0  0  0  0
   29.7129   35.9502   16.1705 C   0  0  1  0  0  0  0  0  0  0  0  0
   28.3781   35.5267   15.9184 O   0  0  0  0  0  0  0  0  0  0  0  0
   29.8847   36.2874   17.6545 C   0  0  1  0  0  0  0  0  0  0  0  0
   30.8333   37.3488   17.7700 O   0  0  0  0  0  0  0  0  0  0  0  0
   28.5897   36.7319   18.3313 C   0  0  0  0  0  0  0  0  0  0  0  0
   28.4957   33.9339   17.9656 N   0  0  0  0  0  0  0  0  0  0  0  0
   28.4653   32.5874   17.7554 C   0  0  0  0  0  0  0  0  0  0  0  0
   28.7382   32.1142   16.6240 O   0  0  0  0  0  0  0  0  0  0  0  0
   28.1346   31.7428   18.7649 N   0  0  0  0  0  0  0  0  0  0  0  0
   27.8291   32.2180   19.9985 C   0  0  0  0  0  0  0  0  0  0  0  0
   27.8572   33.5889   20.2279 C   0  0  1  0  0  0  0  0  0  0  0  0
   27.5215   31.4326   20.9291 O   0  0  0  0  0  0  0  0  0  0  0  0
   27.5891   35.4018   21.6761 C   0  0  1  0  0  0  0  0  0  0  0  0
   27.5597   34.0717   21.4539 N   0  0  0  0  0  0  0  0  0  0  0  0
   27.2809   35.8901   22.9410 C   0  0  0  0  0  0  0  0  0  0  0  0
   27.3049   37.2558   23.2019 C   0  0  2  0  0  0  0  0  0  0  0  0
   26.9591   37.7162   24.5947 C   0  0  0  0  0  0  0  0  0  0  0  0
   27.6436   38.1520   22.1802 C   0  0  2  0  0  0  0  0  0  0  0  0
   27.6880   39.5063   22.3622 N   0  0  0  0  0  0  0  0  0  0  0  0
   27.9502   37.6455   20.9114 C   0  0  0  0  0  0  0  0  0  0  0  0
   27.9262   36.2770   20.6449 C   0  0  2  0  0  0  0  0  0  0  0  0
   28.1993   34.4602   19.1891 C   0  0  2  0  0  0  0  0  0  0  0  0
   28.2209   35.7992   19.4141 N   0  0  0  0  0  0  0  0  0  0  0  0
   28.9111   40.1290   22.8322 C   0  0  0  0  0  0  0  0  0  0  0  0
   26.5489   40.3700   22.0991 C   0  0  0  0  0  0  0  0  0  0  0  0
  1  2  1  0  0  0  0
  3  1  1  6  0  0  0
  3  4  1  0  0  0  0
  3  5  1  0  0  0  0
  5  6  1  1  0  0  0
  5  7  1  0  0  0  0
  7  8  1  6  0  0  0
  7  9  1  0  0  0  0
  9 27  1  0  0  0  0
 10 11  1  0  0  0  0
 11 12  2  0  0  0  0
 11 13  1  0  0  0  0
 13 14  1  0  0  0  0
 14 16  2  0  0  0  0
 15 14  1  1  0  0  0
 15 18  1  0  0  0  0
 15 26  1  0  0  0  0
 17 19  1  1  0  0  0
 17 25  1  0  0  0  0
 17 18  1  0  0  0  0
 19 20  1  0  0  0  0
 20 21  1  6  0  0  0
 20 22  1  0  0  0  0
 22 23  1  6  0  0  0
 22 24  1  0  0  0  0
 23 28  1  0  0  0  0
 23 29  1  0  0  0  0
 25 24  1  6  0  0  0
 25 27  1  0  0  0  0
 26 10  1  6  0  0  0
 26 27  1  0  0  0  0
M  END
>  <CHROM.1>
75.40045028,60.49823055,91.54293805,118.00944031,87.81534401,129.39106982
28.61607007,35.52376015,19.24454103,-0.87401020,1.09431811,0.38375843

>  <Name>
ligand

>  <RI>
0

>  <Rbt.Current_Directory>
/home/itssahil/PROJECTS/Mol_Feturizer/New_Systems/rnas/3F4H

>  <Rbt.Executable>
rbdock ($Id: //depot/dev/client3/rdock/2013.1/src/exe/rbdock.cxx#4 $)

>  <Rbt.Library>
libRbt.so (2013.1, Build901 2013/11/27)

>  <Rbt.Parameter_File>
/export/apps/rDock/src/rDock_2013.1_src/data/scripts/dock_solv.prm

>  <Rbt.Receptor>
prm/blind_docking_80.prm

>  <SCORE>
-44.5555

>  <SCORE.INTER>
-31.7664

>  <SCORE.INTER.CONST>
1

>  <SCORE.INTER.POLAR>
-0.994987

>  <SCORE.INTER.ROT>
6

>  <SCORE.INTER.SOLV>
11.0191

>  <SCORE.INTER.VDW>
-29.134

>  <SCORE.INTER.norm>
-1.09539

>  <SCORE.INTRA>
-12.7892

>  <SCORE.INTRA.DIHEDRAL>
4.18388

>  <SCORE.INTRA.DIHEDRAL.0>
6.83446

>  <SCORE.INTRA.POLAR>
0

>  <SCORE.INTRA.POLAR.0>
0

>  <SCORE.INTRA.REPUL>
0

>  <SCORE.INTRA.REPUL.0>
0

>  <SCORE.INTRA.SOLV>
0.290389

>  <SCORE.INTRA.SOLV.lig_0>
-26.4601

>  <SCORE.INTRA.VDW>
-15.0263

>  <SCORE.INTRA.VDW.0>
13.7853

>  <SCORE.INTRA.norm>
-0.441006

>  <SCORE.RESTR>
0

>  <SCORE.RESTR.CAVITY>
0

>  <SCORE.RESTR.norm>
0

>  <SCORE.SYSTEM>
0

>  <SCORE.SYSTEM.CONST>
0

>  <SCORE.SYSTEM.DIHEDRAL>
0

>  <SCORE.SYSTEM.SOLV>
0

>  <SCORE.SYSTEM.norm>
0

>  <SCORE.heavy>
29

>  <SCORE.norm>
-1.5364

>  <RMSD>
3.093

$$$$
ligand
 OpenBabel11021811473D
libRbt.so/2013.1/901 2013/11/27
 29 31  0  0  0  0  0  0  0  0999 V2000
   28.0830   33.9738   13.3170 C   0  0  0  0  0  0  0  0  0  0  0  0
   29.3594   34.5973   13.1413 O   0  0  0  0  0  0  0  0  0  0  0  0
   27.6325   34.1482   14.7609 C   0  0  1  0  0  0  0  0  0  0  0  0
   28.6337   33.6063   15.6166 O   0  0  0  0  0  0  0  0  0  0  0  0
   27.4070   35.6211   15.0771 C   0  0  1  0  0  0  0  0  0  0  0  0
   26.3709   36.0818   14.2176 O   0  0  0  0  0  0  0  0  0  0  0  0
   27.0514   35.9230   16.5359 C   0  0  1  0  0  0  0  0  0  0  0  0
   25.9639   35.0807   16.9197 O   0  0  0  0  0  0  0  0  0  0  0  0
   28.2057   35.6804   17.5062 C   0  0  0  0  0  0  0  0  0  0  0  0
   27.6835   34.1951   19.8498 N   0  0  0  0  0  0  0  0  0  0  0  0
   27.4401   33.4470   20.9630 C   0  0  0  0  0  0  0  0  0  0  0  0
   27.4281   32.1924   20.8959 O   0  0  0  0  0  0  0  0  0  0  0  0
   27.2026   34.0492   22.1558 N   0  0  0  0  0  0  0  0  0  0  0  0
   27.2028   35.4016   22.2654 C   0  0  0  0  0  0  0  0  0  0  0  0
   27.4508   36.1774   21.1387 C   0  0  1  0  0  0  0  0  0  0  0  0
   26.9804   35.9544   23.3709 O   0  0  0  0  0  0  0  0  0  0  0  0
   27.7008   38.2764   20.1451 C   0  0  1  0  0  0  0  0  0  0  0  0
   27.4582   37.5245   21.2383 N   0  0  0  0  0  0  0  0  0  0  0  0
   27.7061   39.6624   20.2566 C   0  0  0  0  0  0  0  0  0  0  0  0
   27.9554   40.4645   19.1484 C   0  0  2  0  0  0  0  0  0  0  0  0
   27.9448   41.9594   19.3402 C   0  0  0  0  0  0  0  0  0  0  0  0
   28.2050   39.8718   17.9042 C   0  0  2  0  0  0  0  0  0  0  0  0
   28.4576   40.5953   16.7720 N   0  0  0  0  0  0  0  0  0  0  0  0
   28.1951   38.4750   17.8071 C   0  0  0  0  0  0  0  0  0  0  0  0
   27.9443   37.6667   18.9155 C   0  0  2  0  0  0  0  0  0  0  0  0
   27.6971   35.5582   19.9094 C   0  0  2  0  0  0  0  0  0  0  0  0
   27.9339   36.3181   18.8092 N   0  0  0  0  0  0  0  0  0  0  0  0
   29.8277   40.8923   16.3992 C   0  0  0  0  0  0  0  0  0  0  0  0
   27.4002   41.0877   15.9046 C   0  0  0  0  0  0  0  0  0  0  0  0
  1  2  1  0  0  0  0
  3  1  1  6  0  0  0
  3  4  1  0  0  0  0
  3  5  1  0  0  0  0
  5  6  1  6  0  0  0
  5  7  1  0  0  0  0
  7  8  1  1  0  0  0
  7  9  1  0  0  0  0
  9 27  1  0  0  0  0
 10 11  1  0  0  0  0
 11 12  2  0  0  0  0
 11 13  1  0  0  0  0
 13 14  1  0  0  0  0
 14 16  2  0  0  0  0
 15 14  1  1  0  0  0
 15 18  1  0  0  0  0
 15 26  1  0  0  0  0
 17 19  1  1  0  0  0
 17 25  1  0  0  0  0
 17 18  1  0  0  0  0
 19 20  1  0  0  0  0
 20 21  1  6  0  0  0
 20 22  1  0  0  0  0
 22 23  1  6  0  0  0
 22 24  1  0  0  0  0
 23 28  1  0  0  0  0
 23 29  1  0  0  0  0
 25 24  1  6  0  0  0
 25 27  1  0  0  0  0
 26 10  1  6  0  0  0
 26 27  1  0  0  0  0
M  END
>  <CHROM.1>
-56.60374498,61.69292179,-51.46044138,164.80633944,93.14282651,-69.90085879
27.74104716,36.64929005,18.19210851,0.64503923,-1.44683726,-2.37317496

>  <Name>
ligand

>  <RI>
0

>  <Rbt.Current_Directory>
/home/itssahil/PROJECTS/Mol_Feturizer/New_Systems/rnas/3F4H

>  <Rbt.Executable>
rbdock ($Id: //depot/dev/client3/rdock/2013.1/src/exe/rbdock.cxx#4 $)

>  <Rbt.Library>
libRbt.so (2013.1, Build901 2013/11/27)

>  <Rbt.Parameter_File>
/export/apps/rDock/src/rDock_2013.1_src/data/scripts/dock_solv.prm

>  <Rbt.Receptor>
prm/blind_docking_100.prm

>  <SCORE>
-38.1744

>  <SCORE.INTER>
-21.1146

>  <SCORE.INTER.CONST>
1

>  <SCORE.INTER.POLAR>
0

>  <SCORE.INTER.ROT>
6

>  <SCORE.INTER.SOLV>
9.45985

>  <SCORE.INTER.VDW>
-24.8297

>  <SCORE.INTER.norm>
-0.728089

>  <SCORE.INTRA>
-17.0598

>  <SCORE.INTRA.DIHEDRAL>
-3.6865

>  <SCORE.INTRA.DIHEDRAL.0>
6.83446

>  <SCORE.INTRA.POLAR>
0

>  <SCORE.INTRA.POLAR.0>
0

>  <SCORE.INTRA.REPUL>
0

>  <SCORE.INTRA.REPUL.0>
0

>  <SCORE.INTRA.SOLV>
0.0966085

>  <SCORE.INTRA.SOLV.lig_0>
-26.4601

>  <SCORE.INTRA.VDW>
-15.2649

>  <SCORE.INTRA.VDW.0>
13.7853

>  <SCORE.INTRA.norm>
-0.58827

>  <SCORE.RESTR>
0

>  <SCORE.RESTR.CAVITY>
0

>  <SCORE.RESTR.norm>
0

>  <SCORE.SYSTEM>
0

>  <SCORE.SYSTEM.CONST>
0

>  <SCORE.SYSTEM.DIHEDRAL>
0

>  <SCORE.SYSTEM.SOLV>
0

>  <SCORE.SYSTEM.norm>
0

>  <SCORE.heavy>
29

>  <SCORE.norm>
-1.31636

>  <RMSD>
4.853

$$$$
ligand
 OpenBabel11021811473D
libRbt.so/2013.1/901 2013/11/27
 29 31  0  0  0  0  0  0  0  0999 V2000
   27.1565   33.7539   13.5234 C   0  0  0  0  0  0  0  0  0  0  0  0
   28.5378   33.9617   13.2105 O   0  0  0  0  0  0  0  0  0  0  0  0
   26.8948   34.1895   14.9586 C   0  0  1  0  0  0  0  0  0  0  0  0
   27.6872   33.3862   15.8276 O   0  0  0  0  0  0  0  0  0  0  0  0
   27.2366   35.6625   15.1418 C   0  0  1  0  0  0  0  0  0  0  0  0
   26.4433   36.3965   14.2162 O   0  0  0  0  0  0  0  0  0  0  0  0
   27.0259   36.2046   16.5586 C   0  0  1  0  0  0  0  0  0  0  0  0
   25.7581   35.7494   17.0329 O   0  0  0  0  0  0  0  0  0  0  0  0
   28.0953   35.7494   17.5495 C   0  0  0  0  0  0  0  0  0  0  0  0
   27.6018   34.2535   19.8926 N   0  0  0  0  0  0  0  0  0  0  0  0
   27.3708   33.5002   21.0050 C   0  0  0  0  0  0  0  0  0  0  0  0
   27.3162   32.2476   20.9246 O   0  0  0  0  0  0  0  0  0  0  0  0
   27.1916   34.0954   22.2114 N   0  0  0  0  0  0  0  0  0  0  0  0
   27.2388   35.4456   22.3357 C   0  0  0  0  0  0  0  0  0  0  0  0
   27.4750   36.2266   21.2100 C   0  0  1  0  0  0  0  0  0  0  0  0
   27.0703   35.9920   23.4539 O   0  0  0  0  0  0  0  0  0  0  0  0
   27.7601   38.3283   20.2317 C   0  0  1  0  0  0  0  0  0  0  0  0
   27.5290   37.5715   21.3240 N   0  0  0  0  0  0  0  0  0  0  0  0
   27.8136   39.7120   20.3581 C   0  0  0  0  0  0  0  0  0  0  0  0
   28.0525   40.5190   19.2512 C   0  0  2  0  0  0  0  0  0  0  0  0
   28.0963   42.0110   19.4596 C   0  0  0  0  0  0  0  0  0  0  0  0
   28.2424   39.9335   17.9930 C   0  0  2  0  0  0  0  0  0  0  0  0
   28.4813   40.6622   16.8611 N   0  0  0  0  0  0  0  0  0  0  0  0
   28.1844   38.5390   17.8811 C   0  0  0  0  0  0  0  0  0  0  0  0
   27.9438   37.7259   18.9882 C   0  0  2  0  0  0  0  0  0  0  0  0
   27.6613   35.6147   19.9666 C   0  0  2  0  0  0  0  0  0  0  0  0
   27.8866   36.3798   18.8676 N   0  0  0  0  0  0  0  0  0  0  0  0
   27.3669   41.1943   16.0999 C   0  0  0  0  0  0  0  0  0  0  0  0
   29.8233   40.9384   16.3759 C   0  0  0  0  0  0  0  0  0  0  0  0
  1  2  1  0  0  0  0
  3  1  1  6  0  0  0
  3  4  1  0  0  0  0
  3  5  1  0  0  0  0
  5  6  1  6  0  0  0
  5  7  1  0  0  0  0
  7  8  1  1  0  0  0
  7  9  1  0  0  0  0
  9 27  1  0  0  0  0
 10 11  1  0  0  0  0
 11 12  2  0  0  0  0
 11 13  1  0  0  0  0
 13 14  1  0  0  0  0
 14 16  2  0  0  0  0
 15 14  1  1  0  0  0
 15 18  1  0  0  0  0
 15 26  1  0  0  0  0
 17 19  1  1  0  0  0
 17 25  1  0  0  0  0
 17 18  1  0  0  0  0
 19 20  1  0  0  0  0
 20 21  1  6  0  0  0
 20 22  1  0  0  0  0
 22 23  1  6  0  0  0
 22 24  1  0  0  0  0
 23 28  1  0  0  0  0
 23 29  1  0  0  0  0
 25 24  1  6  0  0  0
 25 27  1  0  0  0  0
 26 10  1  6  0  0  0
 26 27  1  0  0  0  0
M  END
>  <CHROM.1>
-61.51507195,58.02617445,-45.61566598,176.08324313,-85.58685950,-61.63855013
27.60685792,36.69870759,18.27625027,1.73515106,-1.43535345,-1.69617060

>  <Name>
ligand

>  <RI>
0

>  <Rbt.Current_Directory>
/home/itssahil/PROJECTS/Mol_Feturizer/New_Systems/rnas/3F4H

>  <Rbt.Executable>
rbdock ($Id: //depot/dev/client3/rdock/2013.1/src/exe/rbdock.cxx#4 $)

>  <Rbt.Library>
libRbt.so (2013.1, Build901 2013/11/27)

>  <Rbt.Parameter_File>
/export/apps/rDock/src/rDock_2013.1_src/data/scripts/dock_solv.prm

>  <Rbt.Receptor>
prm/blind_docking_80.prm

>  <SCORE>
-38.8467

>  <SCORE.INTER>
-21.7752

>  <SCORE.INTER.CONST>
1

>  <SCORE.INTER.POLAR>
0

>  <SCORE.INTER.ROT>
6

>  <SCORE.INTER.SOLV>
9.72874

>  <SCORE.INTER.VDW>
-25.3597

>  <SCORE.INTER.norm>
-0.75087

>  <SCORE.INTRA>
-17.0715

>  <SCORE.INTRA.DIHEDRAL>
-4.00837

>  <SCORE.INTRA.DIHEDRAL.0>
6.83446

>  <SCORE.INTRA.POLAR>
0

>  <SCORE.INTRA.POLAR.0>
0

>  <SCORE.INTRA.REPUL>
0

>  <SCORE.INTRA.REPUL.0>
0

>  <SCORE.INTRA.SOLV>
0.152122

>  <SCORE.INTRA.SOLV.lig_0>
-26.4601

>  <SCORE.INTRA.VDW>
-15.1434

>  <SCORE.INTRA.VDW.0>
13.7853

>  <SCORE.INTRA.norm>
-0.588672

>  <SCORE.RESTR>
0

>  <SCORE.RESTR.CAVITY>
0

>  <SCORE.RESTR.norm>
0

>  <SCORE.SYSTEM>
0

>  <SCORE.SYSTEM.CONST>
0

>  <SCORE.SYSTEM.DIHEDRAL>
0

>  <SCORE.SYSTEM.SOLV>
0

>  <SCORE.SYSTEM.norm>
0

>  <SCORE.heavy>
29

>  <SCORE.norm>
-1.33954

>  <RMSD>
4.890

$$$$
ligand
 OpenBabel11021811473D
libRbt.so/2013.1/901 2013/11/27
 29 31  0  0  0  0  0  0  0  0999 V2000
   29.1958   32.7459   16.2435 C   0  0  0  0  0  0  0  0  0  0  0  0
   27.9357   32.2197   15.8144 O   0  0  0  0  0  0  0  0  0  0  0  0
   29.4772   34.0453   15.5016 C   0  0  1  0  0  0  0  0  0  0  0  0
   29.3953   33.7950   14.1020 O   0  0  0  0  0  0  0  0  0  0  0  0
   28.4765   35.1202   15.9061 C   0  0  1  0  0  0  0  0  0  0  0  0
   27.1864   34.6597   15.5212 O   0  0  0  0  0  0  0  0  0  0  0  0
   28.4818   35.4826   17.3941 C   0  0  1  0  0  0  0  0  0  0  0  0
   29.7291   36.1056   17.7034 O   0  0  0  0  0  0  0  0  0  0  0  0
   27.3607   36.4410   17.7909 C   0  0  0  0  0  0  0  0  0  0  0  0
   27.2705   34.6051   19.9339 N   0  0  0  0  0  0  0  0  0  0  0  0
   27.2271   33.6908   20.9440 C   0  0  0  0  0  0  0  0  0  0  0  0
   27.0487   32.4729   20.6922 O   0  0  0  0  0  0  0  0  0  0  0  0
   27.3707   34.0867   22.2342 N   0  0  0  0  0  0  0  0  0  0  0  0
   27.5600   35.3939   22.5445 C   0  0  0  0  0  0  0  0  0  0  0  0
   27.6078   36.3374   21.5245 C   0  0  1  0  0  0  0  0  0  0  0  0
   27.6903   35.7558   23.7401 O   0  0  0  0  0  0  0  0  0  0  0  0
   27.8492   38.5550   20.8322 C   0  0  1  0  0  0  0  0  0  0  0  0
   27.8011   37.6406   21.8225 N   0  0  0  0  0  0  0  0  0  0  0  0
   28.0479   39.8945   21.1481 C   0  0  0  0  0  0  0  0  0  0  0  0
   28.1048   40.8604   20.1494 C   0  0  2  0  0  0  0  0  0  0  0  0
   28.3215   42.2935   20.5625 C   0  0  0  0  0  0  0  0  0  0  0  0
   27.9610   40.4820   18.8085 C   0  0  2  0  0  0  0  0  0  0  0  0
   28.0056   41.3748   17.7740 N   0  0  0  0  0  0  0  0  0  0  0  0
   27.7601   39.1297   18.5059 C   0  0  0  0  0  0  0  0  0  0  0  0
   27.7011   38.1579   19.5043 C   0  0  2  0  0  0  0  0  0  0  0  0
   27.4615   35.9307   20.1946 C   0  0  2  0  0  0  0  0  0  0  0  0
   27.5033   36.8546   19.2004 N   0  0  0  0  0  0  0  0  0  0  0  0
   29.1952   41.4595   16.9481 C   0  0  0  0  0  0  0  0  0  0  0  0
   26.8964   42.2576   17.4525 C   0  0  0  0  0  0  0  0  0  0  0  0
  1  2  1  0  0  0  0
  3  1  1  1  0  0  0
  3  4  1  0  0  0  0
  3  5  1  0  0  0  0
  5  6  1  1  0  0  0
  5  7  1  0  0  0  0
  7  8  1  6  0  0  0
  7  9  1  0  0  0  0
  9 27  1  0  0  0  0
 10 11  1  0  0  0  0
 11 12  2  0  0  0  0
 11 13  1  0  0  0  0
 13 14  1  0  0  0  0
 14 16  2  0  0  0  0
 15 14  1  6  0  0  0
 15 18  1  0  0  0  0
 15 26  1  0  0  0  0
 17 19  1  6  0  0  0
 17 25  1  0  0  0  0
 17 18  1  0  0  0  0
 19 20  1  0  0  0  0
 20 21  1  1  0  0  0
 20 22  1  0  0  0  0
 22 23  1  1  0  0  0
 22 24  1  0  0  0  0
 23 28  1  0  0  0  0
 23 29  1  0  0  0  0
 25 24  1  1  0  0  0
 25 27  1  0  0  0  0
 26 10  1  1  0  0  0
 26 27  1  0  0  0  0
M  END
>  <CHROM.1>
-54.86433639,-62.29552258,66.54131707,-174.30106842,103.90651366,117.89821817
28.00032880,36.74584955,18.89399247,-1.34331526,1.39871016,0.09266073

>  <Name>
ligand

>  <RI>
0

>  <Rbt.Current_Directory>
/home/itssahil/PROJECTS/Mol_Feturizer/New_Systems/rnas/3F4H

>  <Rbt.Executable>
rbdock ($Id: //depot/dev/client3/rdock/2013.1/src/exe/rbdock.cxx#4 $)

>  <Rbt.Library>
libRbt.so (2013.1, Build901 2013/11/27)

>  <Rbt.Parameter_File>
/export/apps/rDock/src/rDock_2013.1_src/data/scripts/dock_solv.prm

>  <Rbt.Receptor>
prm/blind_docking_60.prm

>  <SCORE>
-37.2029

>  <SCORE.INTER>
-20.3988

>  <SCORE.INTER.CONST>
1

>  <SCORE.INTER.POLAR>
0

>  <SCORE.INTER.ROT>
6

>  <SCORE.INTER.SOLV>
8.62099

>  <SCORE.INTER.VDW>
-24.0729

>  <SCORE.INTER.norm>
-0.703407

>  <SCORE.INTRA>
-16.8041

>  <SCORE.INTRA.DIHEDRAL>
-4.43233

>  <SCORE.INTRA.DIHEDRAL.0>
6.83446

>  <SCORE.INTRA.POLAR>
0

>  <SCORE.INTRA.POLAR.0>
0

>  <SCORE.INTRA.REPUL>
0

>  <SCORE.INTRA.REPUL.0>
0

>  <SCORE.INTRA.SOLV>
0.136408

>  <SCORE.INTRA.SOLV.lig_0>
-26.4601

>  <SCORE.INTRA.VDW>
-14.6561

>  <SCORE.INTRA.VDW.0>
13.7853

>  <SCORE.INTRA.norm>
-0.579452

>  <SCORE.RESTR>
0

>  <SCORE.RESTR.CAVITY>
0

>  <SCORE.RESTR.norm>
0

>  <SCORE.SYSTEM>
0

>  <SCORE.SYSTEM.CONST>
0

>  <SCORE.SYSTEM.DIHEDRAL>
0

>  <SCORE.SYSTEM.SOLV>
0

>  <SCORE.SYSTEM.norm>
0

>  <SCORE.heavy>
29

>  <SCORE.norm>
-1.28286

>  <RMSD>
4.930

$$$$
ligand
 OpenBabel11021811473D
libRbt.so/2013.1/901 2013/11/27
 29 31  0  0  0  0  0  0  0  0999 V2000
   27.2664   33.9118   13.3430 C   0  0  0  0  0  0  0  0  0  0  0  0
   27.9360   34.4392   12.1930 O   0  0  0  0  0  0  0  0  0  0  0  0
   27.3061   34.9411   14.4642 C   0  0  1  0  0  0  0  0  0  0  0  0
   26.6044   36.1044   14.0367 O   0  0  0  0  0  0  0  0  0  0  0  0
   26.6742   34.3779   15.7306 C   0  0  1  0  0  0  0  0  0  0  0  0
   27.4327   33.2340   16.1060 O   0  0  0  0  0  0  0  0  0  0  0  0
   26.5896   35.3591   16.9035 C   0  0  1  0  0  0  0  0  0  0  0  0
   25.7833   34.7729   17.9261 O   0  0  0  0  0  0  0  0  0  0  0  0
   27.9492   35.7025   17.5087 C   0  0  0  0  0  0  0  0  0  0  0  0
   27.5230   34.2389   19.8851 N   0  0  0  0  0  0  0  0  0  0  0  0
   27.3236   33.5009   21.0137 C   0  0  0  0  0  0  0  0  0  0  0  0
   27.2608   32.2476   20.9511 O   0  0  0  0  0  0  0  0  0  0  0  0
   27.1854   34.1121   22.2175 N   0  0  0  0  0  0  0  0  0  0  0  0
   27.2428   35.4636   22.3230 C   0  0  0  0  0  0  0  0  0  0  0  0
   27.4469   36.2291   21.1806 C   0  0  1  0  0  0  0  0  0  0  0  0
   27.1122   36.0249   23.4389 O   0  0  0  0  0  0  0  0  0  0  0  0
   27.7108   38.3168   20.1670 C   0  0  1  0  0  0  0  0  0  0  0  0
   27.5108   37.5750   21.2756 N   0  0  0  0  0  0  0  0  0  0  0  0
   27.7746   39.7017   20.2739 C   0  0  0  0  0  0  0  0  0  0  0  0
   27.9823   40.4935   19.1499 C   0  0  2  0  0  0  0  0  0  0  0  0
   28.0395   41.9877   19.3377 C   0  0  0  0  0  0  0  0  0  0  0  0
   28.1296   39.8912   17.8939 C   0  0  2  0  0  0  0  0  0  0  0  0
   28.3361   40.6042   16.7458 N   0  0  0  0  0  0  0  0  0  0  0  0
   28.0616   38.4957   17.8017 C   0  0  0  0  0  0  0  0  0  0  0  0
   27.8523   37.6978   18.9261 C   0  0  2  0  0  0  0  0  0  0  0  0
   27.5910   35.6006   19.9398 C   0  0  2  0  0  0  0  0  0  0  0  0
   27.7851   36.3506   18.8245 N   0  0  0  0  0  0  0  0  0  0  0  0
   29.6900   40.8665   16.2959 C   0  0  0  0  0  0  0  0  0  0  0  0
   27.2441   41.1191   15.9362 C   0  0  0  0  0  0  0  0  0  0  0  0
  1  2  1  0  0  0  0
  3  1  1  6  0  0  0
  3  4  1  0  0  0  0
  3  5  1  0  0  0  0
  5  6  1  1  0  0  0
  5  7  1  0  0  0  0
  7  8  1  1  0  0  0
  7  9  1  0  0  0  0
  9 27  1  0  0  0  0
 10 11  1  0  0  0  0
 11 12  2  0  0  0  0
 11 13  1  0  0  0  0
 13 14  1  0  0  0  0
 14 16  2  0  0  0  0
 15 14  1  1  0  0  0
 15 18  1  0  0  0  0
 15 26  1  0  0  0  0
 17 19  1  1  0  0  0
 17 25  1  0  0  0  0
 17 18  1  0  0  0  0
 19 20  1  0  0  0  0
 20 21  1  6  0  0  0
 20 22  1  0  0  0  0
 22 23  1  6  0  0  0
 22 24  1  0  0  0  0
 23 28  1  0  0  0  0
 23 29  1  0  0  0  0
 25 24  1  6  0  0  0
 25 27  1  0  0  0  0
 26 10  1  6  0  0  0
 26 27  1  0  0  0  0
M  END
>  <CHROM.1>
62.24235575,60.60190278,170.35043254,-165.16524405,92.24918202,-98.64163875
27.51590178,36.60704825,18.24451262,1.55971294,-1.42062091,-1.64564420

>  <Name>
ligand

>  <RI>
0

>  <Rbt.Current_Directory>
/home/itssahil/PROJECTS/Mol_Feturizer/New_Systems/rnas/3F4H

>  <Rbt.Executable>
rbdock ($Id: //depot/dev/client3/rdock/2013.1/src/exe/rbdock.cxx#4 $)

>  <Rbt.Library>
libRbt.so (2013.1, Build901 2013/11/27)

>  <Rbt.Parameter_File>
/export/apps/rDock/src/rDock_2013.1_src/data/scripts/dock_solv.prm

>  <Rbt.Receptor>
prm/blind_docking_100.prm

>  <SCORE>
-39.0431

>  <SCORE.INTER>
-21.6016

>  <SCORE.INTER.CONST>
1

>  <SCORE.INTER.POLAR>
0

>  <SCORE.INTER.ROT>
6

>  <SCORE.INTER.SOLV>
9.73808

>  <SCORE.INTER.VDW>
-25.2471

>  <SCORE.INTER.norm>
-0.744882

>  <SCORE.INTRA>
-17.4459

>  <SCORE.INTRA.DIHEDRAL>
-3.65603

>  <SCORE.INTRA.DIHEDRAL.0>
6.83446

>  <SCORE.INTRA.POLAR>
0

>  <SCORE.INTRA.POLAR.0>
0

>  <SCORE.INTRA.REPUL>
0

>  <SCORE.INTRA.REPUL.0>
0

>  <SCORE.INTRA.SOLV>
-0.41087

>  <SCORE.INTRA.SOLV.lig_0>
-26.4601

>  <SCORE.INTRA.VDW>
-15.4125

>  <SCORE.INTRA.VDW.0>
13.7853

>  <SCORE.INTRA.norm>
-0.601584

>  <SCORE.RESTR>
0.00437607

>  <SCORE.RESTR.CAVITY>
0.00437607

>  <SCORE.RESTR.norm>
0.000150899

>  <SCORE.SYSTEM>
0

>  <SCORE.SYSTEM.CONST>
0

>  <SCORE.SYSTEM.DIHEDRAL>
0

>  <SCORE.SYSTEM.SOLV>
0

>  <SCORE.SYSTEM.norm>
0

>  <SCORE.heavy>
29

>  <SCORE.norm>
-1.34632

>  <RMSD>
4.956

$$$$
ligand
 OpenBabel11021811473D
libRbt.so/2013.1/901 2013/11/27
 29 31  0  0  0  0  0  0  0  0999 V2000
   29.1819   34.0225   13.4296 C   0  0  0  0  0  0  0  0  0  0  0  0
   29.7735   32.7463   13.1646 O   0  0  0  0  0  0  0  0  0  0  0  0
   28.6598   34.0479   14.8596 C   0  0  1  0  0  0  0  0  0  0  0  0
   29.7399   33.7583   15.7415 O   0  0  0  0  0  0  0  0  0  0  0  0
   28.0605   35.4096   15.1866 C   0  0  1  0  0  0  0  0  0  0  0  0
   27.0186   35.6469   14.2470 O   0  0  0  0  0  0  0  0  0  0  0  0
   27.5230   35.5545   16.6134 C   0  0  1  0  0  0  0  0  0  0  0  0
   26.6457   34.4594   16.8795 O   0  0  0  0  0  0  0  0  0  0  0  0
   28.6176   35.5560   17.6786 C   0  0  0  0  0  0  0  0  0  0  0  0
   27.8213   34.1218   19.9766 N   0  0  0  0  0  0  0  0  0  0  0  0
   27.4491   33.3982   21.0701 C   0  0  0  0  0  0  0  0  0  0  0  0
   27.4867   32.1427   21.0447 O   0  0  0  0  0  0  0  0  0  0  0  0
   27.0284   34.0260   22.1974 N   0  0  0  0  0  0  0  0  0  0  0  0
   26.9700   35.3801   22.2598 C   0  0  0  0  0  0  0  0  0  0  0  0
   27.3478   36.1312   21.1526 C   0  0  1  0  0  0  0  0  0  0  0  0
   26.5780   35.9566   23.3046 O   0  0  0  0  0  0  0  0  0  0  0  0
   27.6667   38.2079   20.1324 C   0  0  1  0  0  0  0  0  0  0  0  0
   27.2982   37.4800   21.2064 N   0  0  0  0  0  0  0  0  0  0  0  0
   27.6121   39.5959   20.1963 C   0  0  0  0  0  0  0  0  0  0  0  0
   27.9878   40.3738   19.1067 C   0  0  2  0  0  0  0  0  0  0  0  0
   27.9027   41.8722   19.2442 C   0  0  0  0  0  0  0  0  0  0  0  0
   28.4273   39.7544   17.9298 C   0  0  2  0  0  0  0  0  0  0  0  0
   28.8121   40.4532   16.8195 N   0  0  0  0  0  0  0  0  0  0  0  0
   28.4757   38.3559   17.8799 C   0  0  0  0  0  0  0  0  0  0  0  0
   28.0987   37.5718   18.9697 C   0  0  2  0  0  0  0  0  0  0  0  0
   27.7829   35.4857   19.9910 C   0  0  2  0  0  0  0  0  0  0  0  0
   28.1464   36.2212   18.9090 N   0  0  0  0  0  0  0  0  0  0  0  0
   27.8060   41.0400   15.9547 C   0  0  0  0  0  0  0  0  0  0  0  0
   30.2071   40.6440   16.4584 C   0  0  0  0  0  0  0  0  0  0  0  0
  1  2  1  0  0  0  0
  3  1  1  6  0  0  0
  3  4  1  0  0  0  0
  3  5  1  0  0  0  0
  5  6  1  6  0  0  0
  5  7  1  0  0  0  0
  7  8  1  1  0  0  0
  7  9  1  0  0  0  0
  9 27  1  0  0  0  0
 10 11  1  0  0  0  0
 11 12  2  0  0  0  0
 11 13  1  0  0  0  0
 13 14  1  0  0  0  0
 14 16  2  0  0  0  0
 15 14  1  1  0  0  0
 15 18  1  0  0  0  0
 15 26  1  0  0  0  0
 17 19  1  1  0  0  0
 17 25  1  0  0  0  0
 17 18  1  0  0  0  0
 19 20  1  0  0  0  0
 20 21  1  6  0  0  0
 20 22  1  0  0  0  0
 22 23  1  6  0  0  0
 22 24  1  0  0  0  0
 23 28  1  0  0  0  0
 23 29  1  0  0  0  0
 25 24  1  6  0  0  0
 25 27  1  0  0  0  0
 26 10  1  6  0  0  0
 26 27  1  0  0  0  0
M  END
>  <CHROM.1>
57.15911015,58.28174372,-51.29794970,157.12077134,-76.86402628,-77.97080591
28.01599215,36.46150637,18.23787232,0.62914677,-1.34523128,-2.94045585

>  <Name>
ligand

>  <RI>
0

>  <Rbt.Current_Directory>
/home/itssahil/PROJECTS/Mol_Feturizer/New_Systems/rnas/3F4H

>  <Rbt.Executable>
rbdock ($Id: //depot/dev/client3/rdock/2013.1/src/exe/rbdock.cxx#4 $)

>  <Rbt.Library>
libRbt.so (2013.1, Build901 2013/11/27)

>  <Rbt.Parameter_File>
/export/apps/rDock/src/rDock_2013.1_src/data/scripts/dock_solv.prm

>  <Rbt.Receptor>
prm/blind_docking_80.prm

>  <SCORE>
-40.8086

>  <SCORE.INTER>
-24.1892

>  <SCORE.INTER.CONST>
1

>  <SCORE.INTER.POLAR>
-0.994987

>  <SCORE.INTER.ROT>
6

>  <SCORE.INTER.SOLV>
10.5666

>  <SCORE.INTER.VDW>
-23.9317

>  <SCORE.INTER.norm>
-0.834112

>  <SCORE.INTRA>
-16.6193

>  <SCORE.INTRA.DIHEDRAL>
-2.78901

>  <SCORE.INTRA.DIHEDRAL.0>
6.83446

>  <SCORE.INTRA.POLAR>
0

>  <SCORE.INTRA.POLAR.0>
0

>  <SCORE.INTRA.REPUL>
0

>  <SCORE.INTRA.REPUL.0>
0

>  <SCORE.INTRA.SOLV>
-0.256044

>  <SCORE.INTRA.SOLV.lig_0>
-26.4601

>  <SCORE.INTRA.VDW>
-15.0968

>  <SCORE.INTRA.VDW.0>
13.7853

>  <SCORE.INTRA.norm>
-0.57308

>  <SCORE.RESTR>
0

>  <SCORE.RESTR.CAVITY>
0

>  <SCORE.RESTR.norm>
0

>  <SCORE.SYSTEM>
0

>  <SCORE.SYSTEM.CONST>
0

>  <SCORE.SYSTEM.DIHEDRAL>
0

>  <SCORE.SYSTEM.SOLV>
0

>  <SCORE.SYSTEM.norm>
0

>  <SCORE.heavy>
29

>  <SCORE.norm>
-1.40719

>  <RMSD>
4.959

$$$$
ligand
 OpenBabel11021811473D
libRbt.so/2013.1/901 2013/11/27
 29 31  0  0  0  0  0  0  0  0999 V2000
   26.5647   32.4345   16.7090 C   0  0  0  0  0  0  0  0  0  0  0  0
   26.8385   33.5681   15.8790 O   0  0  0  0  0  0  0  0  0  0  0  0
   27.0580   32.7147   18.1219 C   0  0  1  0  0  0  0  0  0  0  0  0
   28.4664   32.9217   18.0775 O   0  0  0  0  0  0  0  0  0  0  0  0
   26.3612   33.9401   18.6991 C   0  0  1  0  0  0  0  0  0  0  0  0
   24.9601   33.7209   18.5825 O   0  0  0  0  0  0  0  0  0  0  0  0
   26.7221   34.2660   20.1514 C   0  0  1  0  0  0  0  0  0  0  0  0
   26.7875   33.0432   20.8863 O   0  0  0  0  0  0  0  0  0  0  0  0
   28.0633   34.9815   20.2992 C   0  0  0  0  0  0  0  0  0  0  0  0
   28.3122   35.8751   17.6326 N   0  0  0  0  0  0  0  0  0  0  0  0
   28.4330   36.2712   16.3339 C   0  0  0  0  0  0  0  0  0  0  0  0
   28.6678   35.4292   15.4315 O   0  0  0  0  0  0  0  0  0  0  0  0
   28.3063   37.5809   16.0016 N   0  0  0  0  0  0  0  0  0  0  0  0
   28.0575   38.5190   16.9497 C   0  0  0  0  0  0  0  0  0  0  0  0
   27.9305   38.1295   18.2782 C   0  0  1  0  0  0  0  0  0  0  0  0
   27.9432   39.7302   16.6376 O   0  0  0  0  0  0  0  0  0  0  0  0
   27.5528   38.6760   20.5174 C   0  0  1  0  0  0  0  0  0  0  0  0
   27.6777   39.0550   19.2290 N   0  0  0  0  0  0  0  0  0  0  0  0
   27.2931   39.6355   21.4898 C   0  0  0  0  0  0  0  0  0  0  0  0
   27.1565   39.2757   22.8260 C   0  0  2  0  0  0  0  0  0  0  0  0
   26.8767   40.3667   23.8275 C   0  0  0  0  0  0  0  0  0  0  0  0
   27.2810   37.9315   23.1994 C   0  0  2  0  0  0  0  0  0  0  0  0
   27.1594   37.5035   24.4922 N   0  0  0  0  0  0  0  0  0  0  0  0
   27.5439   36.9769   22.2094 C   0  0  0  0  0  0  0  0  0  0  0  0
   27.6829   37.3333   20.8684 C   0  0  2  0  0  0  0  0  0  0  0  0
   28.0594   36.7802   18.6219 C   0  0  2  0  0  0  0  0  0  0  0  0
   27.9402   36.4027   19.9208 N   0  0  0  0  0  0  0  0  0  0  0  0
   25.8407   37.3295   25.0710 C   0  0  0  0  0  0  0  0  0  0  0  0
   28.3090   37.2048   25.3300 C   0  0  0  0  0  0  0  0  0  0  0  0
  1  2  1  0  0  0  0
  3  1  1  6  0  0  0
  3  4  1  0  0  0  0
  3  5  1  0  0  0  0
  5  6  1  1  0  0  0
  5  7  1  0  0  0  0
  7  8  1  1  0  0  0
  7  9  1  0  0  0  0
  9 27  1  0  0  0  0
 10 11  1  0  0  0  0
 11 12  2  0  0  0  0
 11 13  1  0  0  0  0
 13 14  1  0  0  0  0
 14 16  2  0  0  0  0
 15 14  1  6  0  0  0
 15 18  1  0  0  0  0
 15 26  1  0  0  0  0
 17 19  1  6  0  0  0
 17 25  1  0  0  0  0
 17 18  1  0  0  0  0
 19 20  1  0  0  0  0
 20 21  1  1  0  0  0
 20 22  1  0  0  0  0
 22 23  1  1  0  0  0
 22 24  1  0  0  0  0
 23 28  1  0  0  0  0
 23 29  1  0  0  0  0
 25 24  1  1  0  0  0
 25 27  1  0  0  0  0
 26 10  1  1  0  0  0
 26 27  1  0  0  0  0
M  END
>  <CHROM.1>
-61.46308995,53.87958182,-41.01608145,76.62421442,79.77743946,93.32053479
27.42719713,36.37742271,19.69335936,1.40446418,-1.34244113,-2.24999198

>  <Name>
ligand

>  <RI>
0

>  <Rbt.Current_Directory>
/home/itssahil/PROJECTS/Mol_Feturizer/New_Systems/rnas/3F4H

>  <Rbt.Executable>
rbdock ($Id: //depot/dev/client3/rdock/2013.1/src/exe/rbdock.cxx#4 $)

>  <Rbt.Library>
libRbt.so (2013.1, Build901 2013/11/27)

>  <Rbt.Parameter_File>
/export/apps/rDock/src/rDock_2013.1_src/data/scripts/dock_solv.prm

>  <Rbt.Receptor>
prm/blind_docking_60.prm

>  <SCORE>
-34.8303

>  <SCORE.INTER>
-17.7017

>  <SCORE.INTER.CONST>
1

>  <SCORE.INTER.POLAR>
0

>  <SCORE.INTER.ROT>
6

>  <SCORE.INTER.SOLV>
11.31

>  <SCORE.INTER.VDW>
-23.1712

>  <SCORE.INTER.norm>
-0.610404

>  <SCORE.INTRA>
-17.1286

>  <SCORE.INTRA.DIHEDRAL>
-2.55194

>  <SCORE.INTRA.DIHEDRAL.0>
6.83446

>  <SCORE.INTRA.POLAR>
0

>  <SCORE.INTRA.POLAR.0>
0

>  <SCORE.INTRA.REPUL>
0

>  <SCORE.INTRA.REPUL.0>
0

>  <SCORE.INTRA.SOLV>
1.05849

>  <SCORE.INTRA.SOLV.lig_0>
-26.4601

>  <SCORE.INTRA.VDW>
-16.3819

>  <SCORE.INTRA.VDW.0>
13.7853

>  <SCORE.INTRA.norm>
-0.590642

>  <SCORE.RESTR>
0

>  <SCORE.RESTR.CAVITY>
0

>  <SCORE.RESTR.norm>
0

>  <SCORE.SYSTEM>
0

>  <SCORE.SYSTEM.CONST>
0

>  <SCORE.SYSTEM.DIHEDRAL>
0

>  <SCORE.SYSTEM.SOLV>
0

>  <SCORE.SYSTEM.norm>
0

>  <SCORE.heavy>
29

>  <SCORE.norm>
-1.20105

>  <RMSD>
4.978

$$$$
ligand
 OpenBabel11021811473D
libRbt.so/2013.1/901 2013/11/27
 29 31  0  0  0  0  0  0  0  0999 V2000
   26.7233   32.9984   14.1972 C   0  0  0  0  0  0  0  0  0  0  0  0
   25.9622   33.5373   13.1113 O   0  0  0  0  0  0  0  0  0  0  0  0
   26.4623   33.8210   15.4515 C   0  0  1  0  0  0  0  0  0  0  0  0
   27.0602   33.1578   16.5610 O   0  0  0  0  0  0  0  0  0  0  0  0
   27.0372   35.2236   15.3012 C   0  0  1  0  0  0  0  0  0  0  0  0
   26.2955   35.8743   14.2760 O   0  0  0  0  0  0  0  0  0  0  0  0
   27.0217   36.0698   16.5776 C   0  0  1  0  0  0  0  0  0  0  0  0
   25.7653   35.8812   17.2298 O   0  0  0  0  0  0  0  0  0  0  0  0
   28.1288   35.7035   17.5640 C   0  0  0  0  0  0  0  0  0  0  0  0
   27.5882   34.2281   19.9097 N   0  0  0  0  0  0  0  0  0  0  0  0
   27.3347   33.4846   21.0237 C   0  0  0  0  0  0  0  0  0  0  0  0
   27.2810   32.2314   20.9531 O   0  0  0  0  0  0  0  0  0  0  0  0
   27.1322   34.0902   22.2212 N   0  0  0  0  0  0  0  0  0  0  0  0
   27.1779   35.4415   22.3347 C   0  0  0  0  0  0  0  0  0  0  0  0
   27.4367   36.2126   21.2073 C   0  0  1  0  0  0  0  0  0  0  0  0
   26.9876   35.9976   23.4447 O   0  0  0  0  0  0  0  0  0  0  0  0
   27.7424   38.3057   20.2167 C   0  0  1  0  0  0  0  0  0  0  0  0
   27.4893   37.5584   21.3107 N   0  0  0  0  0  0  0  0  0  0  0  0
   27.7942   39.6904   20.3322 C   0  0  0  0  0  0  0  0  0  0  0  0
   28.0555   40.4877   19.2233 C   0  0  2  0  0  0  0  0  0  0  0  0
   28.0961   41.9814   19.4196 C   0  0  0  0  0  0  0  0  0  0  0  0
   28.2698   39.8913   17.9742 C   0  0  2  0  0  0  0  0  0  0  0  0
   28.5315   40.6100   16.8410 N   0  0  0  0  0  0  0  0  0  0  0  0
   28.2131   38.4959   17.8732 C   0  0  0  0  0  0  0  0  0  0  0  0
   27.9502   37.6925   18.9823 C   0  0  2  0  0  0  0  0  0  0  0  0
   27.6471   35.5899   19.9730 C   0  0  2  0  0  0  0  0  0  0  0  0
   27.8945   36.3453   18.8722 N   0  0  0  0  0  0  0  0  0  0  0  0
   27.4326   41.1080   16.0355 C   0  0  0  0  0  0  0  0  0  0  0  0
   29.8831   40.9086   16.3972 C   0  0  0  0  0  0  0  0  0  0  0  0
  1  2  1  0  0  0  0
  3  1  1  6  0  0  0
  3  4  1  0  0  0  0
  3  5  1  0  0  0  0
  5  6  1  6  0  0  0
  5  7  1  0  0  0  0
  7  8  1  1  0  0  0
  7  9  1  0  0  0  0
  9 27  1  0  0  0  0
 10 11  1  0  0  0  0
 11 12  2  0  0  0  0
 11 13  1  0  0  0  0
 13 14  1  0  0  0  0
 14 16  2  0  0  0  0
 15 14  1  1  0  0  0
 15 18  1  0  0  0  0
 15 26  1  0  0  0  0
 17 19  1  1  0  0  0
 17 25  1  0  0  0  0
 17 18  1  0  0  0  0
 19 20  1  0  0  0  0
 20 21  1  6  0  0  0
 20 22  1  0  0  0  0
 22 23  1  6  0  0  0
 22 24  1  0  0  0  0
 23 28  1  0  0  0  0
 23 29  1  0  0  0  0
 25 24  1  6  0  0  0
 25 27  1  0  0  0  0
 26 10  1  6  0  0  0
 26 27  1  0  0  0  0
M  END
>  <CHROM.1>
171.27252121,66.20116461,-42.62501509,-168.18890520,-87.09820815,-65.79358443
27.43213969,36.57965445,18.35334570,-3.10157804,1.35993310,1.89521345

>  <Name>
ligand

>  <RI>
0

>  <Rbt.Current_Directory>
/home/itssahil/PROJECTS/Mol_Feturizer/New_Systems/rnas/3F4H

>  <Rbt.Executable>
rbdock ($Id: //depot/dev/client3/rdock/2013.1/src/exe/rbdock.cxx#4 $)

>  <Rbt.Library>
libRbt.so (2013.1, Build901 2013/11/27)

>  <Rbt.Parameter_File>
/export/apps/rDock/src/rDock_2013.1_src/data/scripts/dock_solv.prm

>  <Rbt.Receptor>
prm/pocket_docking_8.prm

>  <SCORE>
-38.4384

>  <SCORE.INTER>
-21.761

>  <SCORE.INTER.CONST>
1

>  <SCORE.INTER.POLAR>
0

>  <SCORE.INTER.ROT>
6

>  <SCORE.INTER.SOLV>
9.93299

>  <SCORE.INTER.VDW>
-25.4183

>  <SCORE.INTER.norm>
-0.750378

>  <SCORE.INTRA>
-16.6774

>  <SCORE.INTRA.DIHEDRAL>
-2.86441

>  <SCORE.INTRA.DIHEDRAL.0>
6.83446

>  <SCORE.INTRA.POLAR>
0

>  <SCORE.INTRA.POLAR.0>
0

>  <SCORE.INTRA.REPUL>
0

>  <SCORE.INTRA.REPUL.0>
0

>  <SCORE.INTRA.SOLV>
0.247376

>  <SCORE.INTRA.SOLV.lig_0>
-26.4601

>  <SCORE.INTRA.VDW>
-15.3689

>  <SCORE.INTRA.VDW.0>
13.7853

>  <SCORE.INTRA.norm>
-0.575082

>  <SCORE.RESTR>
0

>  <SCORE.RESTR.CAVITY>
0

>  <SCORE.RESTR.norm>
0

>  <SCORE.SYSTEM>
0

>  <SCORE.SYSTEM.CONST>
0

>  <SCORE.SYSTEM.DIHEDRAL>
0

>  <SCORE.SYSTEM.SOLV>
0

>  <SCORE.SYSTEM.norm>
0

>  <SCORE.heavy>
29

>  <SCORE.norm>
-1.32546

>  <RMSD>
5.032

$$$$
ligand
 OpenBabel11021811473D
libRbt.so/2013.1/901 2013/11/27
 29 31  0  0  0  0  0  0  0  0999 V2000
   28.0954   32.7647   15.3684 C   0  0  0  0  0  0  0  0  0  0  0  0
   29.1829   31.8774   15.0875 O   0  0  0  0  0  0  0  0  0  0  0  0
   28.4735   34.1756   14.9387 C   0  0  1  0  0  0  0  0  0  0  0  0
   28.7233   34.1707   13.5366 O   0  0  0  0  0  0  0  0  0  0  0  0
   27.3556   35.1548   15.2734 C   0  0  1  0  0  0  0  0  0  0  0  0
   26.1674   34.6593   14.6673 O   0  0  0  0  0  0  0  0  0  0  0  0
   27.1242   35.3863   16.7695 C   0  0  1  0  0  0  0  0  0  0  0  0
   26.5437   34.2057   17.3252 O   0  0  0  0  0  0  0  0  0  0  0  0
   28.4046   35.6954   17.5426 C   0  0  0  0  0  0  0  0  0  0  0  0
   27.8443   34.2114   19.8782 N   0  0  0  0  0  0  0  0  0  0  0  0
   27.5834   33.4639   20.9878 C   0  0  0  0  0  0  0  0  0  0  0  0
   27.5906   32.2091   20.9254 O   0  0  0  0  0  0  0  0  0  0  0  0
   27.3076   34.0670   22.1719 N   0  0  0  0  0  0  0  0  0  0  0  0
   27.2863   35.4196   22.2761 C   0  0  0  0  0  0  0  0  0  0  0  0
   27.5517   36.1948   21.1530 C   0  0  1  0  0  0  0  0  0  0  0  0
   27.0284   35.9733   23.3735 O   0  0  0  0  0  0  0  0  0  0  0  0
   27.7975   38.2935   20.1577 C   0  0  1  0  0  0  0  0  0  0  0  0
   27.5380   37.5422   21.2474 N   0  0  0  0  0  0  0  0  0  0  0  0
   27.7806   39.6798   20.2638 C   0  0  0  0  0  0  0  0  0  0  0  0
   28.0466   40.4814   19.1591 C   0  0  2  0  0  0  0  0  0  0  0  0
   28.0104   41.9766   19.3447 C   0  0  0  0  0  0  0  0  0  0  0  0
   28.3356   39.8877   17.9238 C   0  0  2  0  0  0  0  0  0  0  0  0
   28.6066   40.6106   16.7955 N   0  0  0  0  0  0  0  0  0  0  0  0
   28.3476   38.4906   17.8321 C   0  0  0  0  0  0  0  0  0  0  0  0
   28.0802   37.6828   18.9370 C   0  0  2  0  0  0  0  0  0  0  0  0
   27.8375   35.5747   19.9326 C   0  0  2  0  0  0  0  0  0  0  0  0
   28.0913   36.3339   18.8357 N   0  0  0  0  0  0  0  0  0  0  0  0
   29.9838   40.8755   16.4247 C   0  0  0  0  0  0  0  0  0  0  0  0
   27.5621   41.1336   15.9304 C   0  0  0  0  0  0  0  0  0  0  0  0
  1  2  1  0  0  0  0
  3  1  1  6  0  0  0
  3  4  1  0  0  0  0
  3  5  1  0  0  0  0
  5  6  1  1  0  0  0
  5  7  1  0  0  0  0
  7  8  1  1  0  0  0
  7  9  1  0  0  0  0
  9 27  1  0  0  0  0
 10 11  1  0  0  0  0
 11 12  2  0  0  0  0
 11 13  1  0  0  0  0
 13 14  1  0  0  0  0
 14 16  2  0  0  0  0
 15 14  1  1  0  0  0
 15 18  1  0  0  0  0
 15 26  1  0  0  0  0
 17 19  1  1  0  0  0
 17 25  1  0  0  0  0
 17 18  1  0  0  0  0
 19 20  1  0  0  0  0
 20 21  1  6  0  0  0
 20 22  1  0  0  0  0
 22 23  1  6  0  0  0
 22 24  1  0  0  0  0
 23 28  1  0  0  0  0
 23 29  1  0  0  0  0
 25 24  1  6  0  0  0
 25 27  1  0  0  0  0
 26 10  1  6  0  0  0
 26 27  1  0  0  0  0
M  END
>  <CHROM.1>
61.00438784,-54.94857621,-70.88663726,161.28844289,95.82721969,-94.01186822
27.86882513,36.40766634,18.32659890,-1.91022142,1.43964071,0.63119096

>  <Name>
ligand

>  <RI>
0

>  <Rbt.Current_Directory>
/home/itssahil/PROJECTS/Mol_Feturizer/New_Systems/rnas/3F4H

>  <Rbt.Executable>
rbdock ($Id: //depot/dev/client3/rdock/2013.1/src/exe/rbdock.cxx#4 $)

>  <Rbt.Library>
libRbt.so (2013.1, Build901 2013/11/27)

>  <Rbt.Parameter_File>
/export/apps/rDock/src/rDock_2013.1_src/data/scripts/dock_solv.prm

>  <Rbt.Receptor>
prm/blind_docking_60.prm

>  <SCORE>
-41.0322

>  <SCORE.INTER>
-24.5053

>  <SCORE.INTER.CONST>
1

>  <SCORE.INTER.POLAR>
-0.994987

>  <SCORE.INTER.ROT>
6

>  <SCORE.INTER.SOLV>
10.1967

>  <SCORE.INTER.VDW>
-24.0191

>  <SCORE.INTER.norm>
-0.84501

>  <SCORE.INTRA>
-16.5269

>  <SCORE.INTRA.DIHEDRAL>
-3.06855

>  <SCORE.INTRA.DIHEDRAL.0>
6.83446

>  <SCORE.INTRA.POLAR>
0

>  <SCORE.INTRA.POLAR.0>
0

>  <SCORE.INTRA.REPUL>
0

>  <SCORE.INTRA.REPUL.0>
0

>  <SCORE.INTRA.SOLV>
-0.227228

>  <SCORE.INTRA.SOLV.lig_0>
-26.4601

>  <SCORE.INTRA.VDW>
-14.879

>  <SCORE.INTRA.VDW.0>
13.7853

>  <SCORE.INTRA.norm>
-0.569893

>  <SCORE.RESTR>
0

>  <SCORE.RESTR.CAVITY>
0

>  <SCORE.RESTR.norm>
0

>  <SCORE.SYSTEM>
0

>  <SCORE.SYSTEM.CONST>
0

>  <SCORE.SYSTEM.DIHEDRAL>
0

>  <SCORE.SYSTEM.SOLV>
0

>  <SCORE.SYSTEM.norm>
0

>  <SCORE.heavy>
29

>  <SCORE.norm>
-1.4149

>  <RMSD>
5.119

$$$$
ligand
 OpenBabel11021811473D
libRbt.so/2013.1/901 2013/11/27
 29 31  0  0  0  0  0  0  0  0999 V2000
   28.0648   33.1285   13.9800 C   0  0  0  0  0  0  0  0  0  0  0  0
   28.9718   32.0232   13.9132 O   0  0  0  0  0  0  0  0  0  0  0  0
   27.8918   33.5502   15.4327 C   0  0  1  0  0  0  0  0  0  0  0  0
   29.1813   33.6836   16.0225 O   0  0  0  0  0  0  0  0  0  0  0  0
   27.1311   34.8669   15.5210 C   0  0  1  0  0  0  0  0  0  0  0  0
   25.8744   34.6700   14.8832 O   0  0  0  0  0  0  0  0  0  0  0  0
   26.9206   35.3989   16.9417 C   0  0  1  0  0  0  0  0  0  0  0  0
   26.2718   34.3864   17.7121 O   0  0  0  0  0  0  0  0  0  0  0  0
   28.2208   35.7746   17.6495 C   0  0  0  0  0  0  0  0  0  0  0  0
   27.6513   34.3217   20.0024 N   0  0  0  0  0  0  0  0  0  0  0  0
   27.3849   33.5889   21.1205 C   0  0  0  0  0  0  0  0  0  0  0  0
   27.3589   32.3339   21.0670 O   0  0  0  0  0  0  0  0  0  0  0  0
   27.1394   34.2071   22.3035 N   0  0  0  0  0  0  0  0  0  0  0  0
   27.1543   35.5605   22.3982 C   0  0  0  0  0  0  0  0  0  0  0  0
   27.4257   36.3208   21.2664 C   0  0  1  0  0  0  0  0  0  0  0  0
   26.9244   36.1281   23.4947 O   0  0  0  0  0  0  0  0  0  0  0  0
   27.7133   38.4055   20.2531 C   0  0  1  0  0  0  0  0  0  0  0  0
   27.4479   37.6687   21.3512 N   0  0  0  0  0  0  0  0  0  0  0  0
   27.7335   39.7925   20.3494 C   0  0  0  0  0  0  0  0  0  0  0  0
   28.0065   40.5793   19.2358 C   0  0  2  0  0  0  0  0  0  0  0  0
   28.0112   42.0762   19.4111 C   0  0  0  0  0  0  0  0  0  0  0  0
   28.2648   39.9698   18.0014 C   0  0  2  0  0  0  0  0  0  0  0  0
   28.5403   40.6777   16.8647 N   0  0  0  0  0  0  0  0  0  0  0  0
   28.2395   38.5723   17.9196 C   0  0  0  0  0  0  0  0  0  0  0  0
   27.9651   37.7793   19.0334 C   0  0  2  0  0  0  0  0  0  0  0  0
   27.6803   35.6851   20.0471 C   0  0  2  0  0  0  0  0  0  0  0  0
   27.9401   36.4299   18.9418 N   0  0  0  0  0  0  0  0  0  0  0  0
   29.9190   40.8932   16.4683 C   0  0  0  0  0  0  0  0  0  0  0  0
   27.4993   41.2324   16.0154 C   0  0  0  0  0  0  0  0  0  0  0  0
  1  2  1  0  0  0  0
  3  1  1  6  0  0  0
  3  4  1  0  0  0  0
  3  5  1  0  0  0  0
  5  6  1  1  0  0  0
  5  7  1  0  0  0  0
  7  8  1  1  0  0  0
  7  9  1  0  0  0  0
  9 27  1  0  0  0  0
 10 11  1  0  0  0  0
 11 12  2  0  0  0  0
 11 13  1  0  0  0  0
 13 14  1  0  0  0  0
 14 16  2  0  0  0  0
 15 14  1  1  0  0  0
 15 18  1  0  0  0  0
 15 26  1  0  0  0  0
 17 19  1  1  0  0  0
 17 25  1  0  0  0  0
 17 18  1  0  0  0  0
 19 20  1  0  0  0  0
 20 21  1  6  0  0  0
 20 22  1  0  0  0  0
 22 23  1  6  0  0  0
 22 24  1  0  0  0  0
 23 28  1  0  0  0  0
 23 29  1  0  0  0  0
 25 24  1  6  0  0  0
 25 27  1  0  0  0  0
 26 10  1  6  0  0  0
 26 27  1  0  0  0  0
M  END
>  <CHROM.1>
48.98809185,58.33625596,-55.37223072,173.09608218,96.42547086,-98.25391740
27.74116613,36.45889700,18.45517799,-1.88799531,1.42221173,0.68505116

>  <Name>
ligand

>  <RI>
0

>  <Rbt.Current_Directory>
/home/itssahil/PROJECTS/Mol_Feturizer/New_Systems/rnas/3F4H

>  <Rbt.Executable>
rbdock ($Id: //depot/dev/client3/rdock/2013.1/src/exe/rbdock.cxx#4 $)

>  <Rbt.Library>
libRbt.so (2013.1, Build901 2013/11/27)

>  <Rbt.Parameter_File>
/export/apps/rDock/src/rDock_2013.1_src/data/scripts/dock_solv.prm

>  <Rbt.Receptor>
prm/blind_docking_80.prm

>  <SCORE>
-41.7773

>  <SCORE.INTER>
-24.6456

>  <SCORE.INTER.CONST>
1

>  <SCORE.INTER.POLAR>
-0.994987

>  <SCORE.INTER.ROT>
6

>  <SCORE.INTER.SOLV>
10.0203

>  <SCORE.INTER.VDW>
-24.0539

>  <SCORE.INTER.norm>
-0.849848

>  <SCORE.INTRA>
-17.1317

>  <SCORE.INTRA.DIHEDRAL>
-4.08709

>  <SCORE.INTRA.DIHEDRAL.0>
6.83446

>  <SCORE.INTRA.POLAR>
0

>  <SCORE.INTRA.POLAR.0>
0

>  <SCORE.INTRA.REPUL>
0

>  <SCORE.INTRA.REPUL.0>
0

>  <SCORE.INTRA.SOLV>
-0.0690543

>  <SCORE.INTRA.SOLV.lig_0>
-26.4601

>  <SCORE.INTRA.VDW>
-15.0537

>  <SCORE.INTRA.VDW.0>
13.7853

>  <SCORE.INTRA.norm>
-0.590749

>  <SCORE.RESTR>
0

>  <SCORE.RESTR.CAVITY>
0

>  <SCORE.RESTR.norm>
0

>  <SCORE.SYSTEM>
0

>  <SCORE.SYSTEM.CONST>
0

>  <SCORE.SYSTEM.DIHEDRAL>
0

>  <SCORE.SYSTEM.SOLV>
0

>  <SCORE.SYSTEM.norm>
0

>  <SCORE.heavy>
29

>  <SCORE.norm>
-1.4406

>  <RMSD>
5.139

$$$$
ligand
 OpenBabel11021811473D
libRbt.so/2013.1/901 2013/11/27
 29 31  0  0  0  0  0  0  0  0999 V2000
   28.6967   32.3453   15.2163 C   0  0  0  0  0  0  0  0  0  0  0  0
   28.4157   32.9900   13.9695 O   0  0  0  0  0  0  0  0  0  0  0  0
   28.3749   33.2984   16.3592 C   0  0  1  0  0  0  0  0  0  0  0  0
   28.4718   32.5829   17.5868 O   0  0  0  0  0  0  0  0  0  0  0  0
   29.3367   34.4796   16.3581 C   0  0  1  0  0  0  0  0  0  0  0  0
   29.0689   35.2388   15.1848 O   0  0  0  0  0  0  0  0  0  0  0  0
   29.2578   35.3798   17.5947 C   0  0  1  0  0  0  0  0  0  0  0  0
   30.2563   36.3944   17.4798 O   0  0  0  0  0  0  0  0  0  0  0  0
   27.9027   36.0638   17.7638 C   0  0  0  0  0  0  0  0  0  0  0  0
   27.5597   34.5547   20.1251 N   0  0  0  0  0  0  0  0  0  0  0  0
   27.3996   33.7950   21.2456 C   0  0  0  0  0  0  0  0  0  0  0  0
   27.3247   32.5438   21.1602 O   0  0  0  0  0  0  0  0  0  0  0  0
   27.3139   34.3824   22.4661 N   0  0  0  0  0  0  0  0  0  0  0  0
   27.3858   35.7310   22.5964 C   0  0  0  0  0  0  0  0  0  0  0  0
   27.5504   36.5184   21.4626 C   0  0  1  0  0  0  0  0  0  0  0  0
   27.3039   36.2701   23.7278 O   0  0  0  0  0  0  0  0  0  0  0  0
   27.7899   38.6246   20.4817 C   0  0  1  0  0  0  0  0  0  0  0  0
   27.6283   37.8615   21.5822 N   0  0  0  0  0  0  0  0  0  0  0  0
   27.8686   40.0065   20.6141 C   0  0  0  0  0  0  0  0  0  0  0  0
   28.0376   40.8197   19.4989 C   0  0  2  0  0  0  0  0  0  0  0  0
   28.1137   42.3094   19.7144 C   0  0  0  0  0  0  0  0  0  0  0  0
   28.1304   40.2423   18.2261 C   0  0  2  0  0  0  0  0  0  0  0  0
   28.2967   40.9774   17.0854 N   0  0  0  0  0  0  0  0  0  0  0  0
   28.0481   38.8495   18.1085 C   0  0  0  0  0  0  0  0  0  0  0  0
   27.8774   38.0302   19.2239 C   0  0  2  0  0  0  0  0  0  0  0  0
   27.6404   35.9144   20.2045 C   0  0  2  0  0  0  0  0  0  0  0  0
   27.7958   36.6858   19.0979 N   0  0  0  0  0  0  0  0  0  0  0  0
   29.6242   41.1443   16.5246 C   0  0  0  0  0  0  0  0  0  0  0  0
   27.1865   41.6088   16.3913 C   0  0  0  0  0  0  0  0  0  0  0  0
  1  2  1  0  0  0  0
  3  1  1  6  0  0  0
  3  4  1  0  0  0  0
  3  5  1  0  0  0  0
  5  6  1  6  0  0  0
  5  7  1  0  0  0  0
  7  8  1  6  0  0  0
  7  9  1  0  0  0  0
  9 27  1  0  0  0  0
 10 11  1  0  0  0  0
 11 12  2  0  0  0  0
 11 13  1  0  0  0  0
 13 14  1  0  0  0  0
 14 16  2  0  0  0  0
 15 14  1  1  0  0  0
 15 18  1  0  0  0  0
 15 26  1  0  0  0  0
 17 19  1  1  0  0  0
 17 25  1  0  0  0  0
 17 18  1  0  0  0  0
 19 20  1  0  0  0  0
 20 21  1  6  0  0  0
 20 22  1  0  0  0  0
 22 23  1  6  0  0  0
 22 24  1  0  0  0  0
 23 28  1  0  0  0  0
 23 29  1  0  0  0  0
 25 24  1  6  0  0  0
 25 27  1  0  0  0  0
 26 10  1  6  0  0  0
 26 27  1  0  0  0  0
M  END
>  <CHROM.1>
171.62947654,67.02855065,177.14649401,168.40342494,97.45302247,106.16829294
28.14924356,36.67407668,18.78327461,-1.41422609,1.35807719,0.02095302

>  <Name>
ligand

>  <RI>
0

>  <Rbt.Current_Directory>
/home/itssahil/PROJECTS/Mol_Feturizer/New_Systems/rnas/3F4H

>  <Rbt.Executable>
rbdock ($Id: //depot/dev/client3/rdock/2013.1/src/exe/rbdock.cxx#4 $)

>  <Rbt.Library>
libRbt.so (2013.1, Build901 2013/11/27)

>  <Rbt.Parameter_File>
/export/apps/rDock/src/rDock_2013.1_src/data/scripts/dock_solv.prm

>  <Rbt.Receptor>
prm/pocket_docking_7.prm

>  <SCORE>
-38.7336

>  <SCORE.INTER>
-20.8902

>  <SCORE.INTER.CONST>
1

>  <SCORE.INTER.POLAR>
0

>  <SCORE.INTER.ROT>
6

>  <SCORE.INTER.SOLV>
10.3262

>  <SCORE.INTER.VDW>
-24.9689

>  <SCORE.INTER.norm>
-0.720353

>  <SCORE.INTRA>
-17.8433

>  <SCORE.INTRA.DIHEDRAL>
-3.89348

>  <SCORE.INTRA.DIHEDRAL.0>
6.83446

>  <SCORE.INTRA.POLAR>
0

>  <SCORE.INTRA.POLAR.0>
0

>  <SCORE.INTRA.REPUL>
0

>  <SCORE.INTRA.REPUL.0>
0

>  <SCORE.INTRA.SOLV>
-0.0644958

>  <SCORE.INTRA.SOLV.lig_0>
-26.4601

>  <SCORE.INTRA.VDW>
-15.8644

>  <SCORE.INTRA.VDW.0>
13.7853

>  <SCORE.INTRA.norm>
-0.615288

>  <SCORE.RESTR>
0

>  <SCORE.RESTR.CAVITY>
0

>  <SCORE.RESTR.norm>
0

>  <SCORE.SYSTEM>
0

>  <SCORE.SYSTEM.CONST>
0

>  <SCORE.SYSTEM.DIHEDRAL>
0

>  <SCORE.SYSTEM.SOLV>
0

>  <SCORE.SYSTEM.norm>
0

>  <SCORE.heavy>
29

>  <SCORE.norm>
-1.33564

>  <RMSD>
5.139

$$$$
ligand
 OpenBabel11021811473D
libRbt.so/2013.1/901 2013/11/27
 29 31  0  0  0  0  0  0  0  0999 V2000
   27.9208   32.4698   15.0385 C   0  0  0  0  0  0  0  0  0  0  0  0
   29.1700   31.7727   15.0888 O   0  0  0  0  0  0  0  0  0  0  0  0
   27.7861   33.3505   16.2732 C   0  0  1  0  0  0  0  0  0  0  0  0
   27.8412   32.5210   17.4296 O   0  0  0  0  0  0  0  0  0  0  0  0
   28.8995   34.3892   16.3139 C   0  0  1  0  0  0  0  0  0  0  0  0
   28.7455   35.2158   15.1660 O   0  0  0  0  0  0  0  0  0  0  0  0
   28.9350   35.2508   17.5797 C   0  0  1  0  0  0  0  0  0  0  0  0
   30.0365   36.1544   17.4807 O   0  0  0  0  0  0  0  0  0  0  0  0
   27.6647   36.0717   17.7927 C   0  0  0  0  0  0  0  0  0  0  0  0
   27.3946   34.5153   20.1328 N   0  0  0  0  0  0  0  0  0  0  0  0
   27.2676   33.7333   21.2420 C   0  0  0  0  0  0  0  0  0  0  0  0
   27.1474   32.4875   21.1314 O   0  0  0  0  0  0  0  0  0  0  0  0
   27.2641   34.2922   22.4787 N   0  0  0  0  0  0  0  0  0  0  0  0
   27.3868   35.6342   22.6367 C   0  0  0  0  0  0  0  0  0  0  0  0
   27.5185   36.4442   21.5145 C   0  0  1  0  0  0  0  0  0  0  0  0
   27.3809   36.1471   23.7832 O   0  0  0  0  0  0  0  0  0  0  0  0
   27.7760   38.5657   20.5721 C   0  0  1  0  0  0  0  0  0  0  0  0
   27.6464   37.7808   21.6613 N   0  0  0  0  0  0  0  0  0  0  0  0
   27.9066   39.9408   20.7324 C   0  0  0  0  0  0  0  0  0  0  0  0
   28.0445   40.7760   19.6292 C   0  0  2  0  0  0  0  0  0  0  0  0
   28.1804   42.2566   19.8753 C   0  0  0  0  0  0  0  0  0  0  0  0
   28.0527   40.2280   18.3402 C   0  0  2  0  0  0  0  0  0  0  0  0
   28.1840   40.9858   17.2099 N   0  0  0  0  0  0  0  0  0  0  0  0
   27.9189   38.8419   18.1945 C   0  0  0  0  0  0  0  0  0  0  0  0
   27.7791   38.0007   19.2978 C   0  0  2  0  0  0  0  0  0  0  0  0
   27.5237   35.8695   20.2397 C   0  0  2  0  0  0  0  0  0  0  0  0
   27.6471   36.6631   19.1448 N   0  0  0  0  0  0  0  0  0  0  0  0
   29.4929   41.1605   16.6093 C   0  0  0  0  0  0  0  0  0  0  0  0
   27.0538   41.6344   16.5657 C   0  0  0  0  0  0  0  0  0  0  0  0
  1  2  1  0  0  0  0
  3  1  1  6  0  0  0
  3  4  1  0  0  0  0
  3  5  1  0  0  0  0
  5  6  1  6  0  0  0
  5  7  1  0  0  0  0
  7  8  1  6  0  0  0
  7  9  1  0  0  0  0
  9 27  1  0  0  0  0
 10 11  1  0  0  0  0
 11 12  2  0  0  0  0
 11 13  1  0  0  0  0
 13 14  1  0  0  0  0
 14 16  2  0  0  0  0
 15 14  1  1  0  0  0
 15 18  1  0  0  0  0
 15 26  1  0  0  0  0
 17 19  1  1  0  0  0
 17 25  1  0  0  0  0
 17 18  1  0  0  0  0
 19 20  1  0  0  0  0
 20 21  1  6  0  0  0
 20 22  1  0  0  0  0
 22 23  1  6  0  0  0
 22 24  1  0  0  0  0
 23 28  1  0  0  0  0
 23 29  1  0  0  0  0
 25 24  1  6  0  0  0
 25 27  1  0  0  0  0
 26 10  1  6  0  0  0
 26 27  1  0  0  0  0
M  END
>  <CHROM.1>
-59.73051131,62.53250113,179.07561577,168.73331325,95.45140938,110.95237239
28.00833279,36.58082376,18.85987455,-1.52418386,1.37691077,0.13019466

>  <Name>
ligand

>  <RI>
0

>  <Rbt.Current_Directory>
/home/itssahil/PROJECTS/Mol_Feturizer/New_Systems/rnas/3F4H

>  <Rbt.Executable>
rbdock ($Id: //depot/dev/client3/rdock/2013.1/src/exe/rbdock.cxx#4 $)

>  <Rbt.Library>
libRbt.so (2013.1, Build901 2013/11/27)

>  <Rbt.Parameter_File>
/export/apps/rDock/src/rDock_2013.1_src/data/scripts/dock_solv.prm

>  <Rbt.Receptor>
prm/pocket_docking_8.prm

>  <SCORE>
-43.0808

>  <SCORE.INTER>
-25.0459

>  <SCORE.INTER.CONST>
1

>  <SCORE.INTER.POLAR>
-0.994987

>  <SCORE.INTER.ROT>
6

>  <SCORE.INTER.SOLV>
11.1068

>  <SCORE.INTER.VDW>
-24.6829

>  <SCORE.INTER.norm>
-0.863652

>  <SCORE.INTRA>
-18.0349

>  <SCORE.INTRA.DIHEDRAL>
-4.34916

>  <SCORE.INTRA.DIHEDRAL.0>
6.83446

>  <SCORE.INTRA.POLAR>
0

>  <SCORE.INTRA.POLAR.0>
0

>  <SCORE.INTRA.REPUL>
0

>  <SCORE.INTRA.REPUL.0>
0

>  <SCORE.INTRA.SOLV>
-0.0564268

>  <SCORE.INTRA.SOLV.lig_0>
-26.4601

>  <SCORE.INTRA.VDW>
-15.8321

>  <SCORE.INTRA.VDW.0>
13.7853

>  <SCORE.INTRA.norm>
-0.621894

>  <SCORE.RESTR>
0

>  <SCORE.RESTR.CAVITY>
0

>  <SCORE.RESTR.norm>
0

>  <SCORE.SYSTEM>
0

>  <SCORE.SYSTEM.CONST>
0

>  <SCORE.SYSTEM.DIHEDRAL>
0

>  <SCORE.SYSTEM.SOLV>
0

>  <SCORE.SYSTEM.norm>
0

>  <SCORE.heavy>
29

>  <SCORE.norm>
-1.48555

>  <RMSD>
5.166

$$$$
ligand
 OpenBabel11021811473D
libRbt.so/2013.1/901 2013/11/27
 29 31  0  0  0  0  0  0  0  0999 V2000
   23.7040   34.1245   17.4309 C   0  0  0  0  0  0  0  0  0  0  0  0
   23.6790   35.5455   17.2603 O   0  0  0  0  0  0  0  0  0  0  0  0
   24.9310   33.5555   16.7317 C   0  0  1  0  0  0  0  0  0  0  0  0
   24.9481   34.0299   15.3889 O   0  0  0  0  0  0  0  0  0  0  0  0
   26.2032   33.9749   17.4570 C   0  0  1  0  0  0  0  0  0  0  0  0
   27.0224   32.8172   17.5724 O   0  0  0  0  0  0  0  0  0  0  0  0
   26.9869   35.1074   16.7871 C   0  0  1  0  0  0  0  0  0  0  0  0
   26.1526   36.2654   16.7351 O   0  0  0  0  0  0  0  0  0  0  0  0
   28.2704   35.4794   17.5267 C   0  0  0  0  0  0  0  0  0  0  0  0
   27.6907   34.0465   19.8893 N   0  0  0  0  0  0  0  0  0  0  0  0
   27.4202   33.3233   21.0126 C   0  0  0  0  0  0  0  0  0  0  0  0
   27.4158   32.0675   20.9747 O   0  0  0  0  0  0  0  0  0  0  0  0
   27.1472   33.9520   22.1840 N   0  0  0  0  0  0  0  0  0  0  0  0
   27.1382   35.3065   22.2618 C   0  0  0  0  0  0  0  0  0  0  0  0
   27.4136   36.0571   21.1244 C   0  0  1  0  0  0  0  0  0  0  0  0
   26.8829   35.8839   23.3476 O   0  0  0  0  0  0  0  0  0  0  0  0
   27.6813   38.1336   20.0890 C   0  0  1  0  0  0  0  0  0  0  0  0
   27.4122   37.4062   21.1925 N   0  0  0  0  0  0  0  0  0  0  0  0
   27.6771   39.5219   20.1681 C   0  0  0  0  0  0  0  0  0  0  0  0
   27.9533   40.2992   19.0487 C   0  0  2  0  0  0  0  0  0  0  0  0
   27.9306   41.7980   19.2050 C   0  0  0  0  0  0  0  0  0  0  0  0
   28.2396   39.6788   17.8259 C   0  0  2  0  0  0  0  0  0  0  0  0
   28.5200   40.3771   16.6844 N   0  0  0  0  0  0  0  0  0  0  0  0
   28.2388   38.2801   17.7615 C   0  0  0  0  0  0  0  0  0  0  0  0
   27.9613   37.4966   18.8812 C   0  0  2  0  0  0  0  0  0  0  0  0
   27.6965   35.4107   19.9172 C   0  0  2  0  0  0  0  0  0  0  0  0
   27.9600   36.1459   18.8064 N   0  0  0  0  0  0  0  0  0  0  0  0
   29.9005   40.6258   16.3145 C   0  0  0  0  0  0  0  0  0  0  0  0
   27.4826   40.8889   15.8043 C   0  0  0  0  0  0  0  0  0  0  0  0
  1  2  1  0  0  0  0
  3  1  1  1  0  0  0
  3  4  1  0  0  0  0
  3  5  1  0  0  0  0
  5  6  1  6  0  0  0
  5  7  1  0  0  0  0
  7  8  1  1  0  0  0
  7  9  1  0  0  0  0
  9 27  1  0  0  0  0
 10 11  1  0  0  0  0
 11 12  2  0  0  0  0
 11 13  1  0  0  0  0
 13 14  1  0  0  0  0
 14 16  2  0  0  0  0
 15 14  1  1  0  0  0
 15 18  1  0  0  0  0
 15 26  1  0  0  0  0
 17 19  1  1  0  0  0
 17 25  1  0  0  0  0
 17 18  1  0  0  0  0
 19 20  1  0  0  0  0
 20 21  1  6  0  0  0
 20 22  1  0  0  0  0
 22 23  1  6  0  0  0
 22 24  1  0  0  0  0
 23 28  1  0  0  0  0
 23 29  1  0  0  0  0
 25 24  1  6  0  0  0
 25 27  1  0  0  0  0
 26 10  1  6  0  0  0
 26 27  1  0  0  0  0
M  END
>  <CHROM.1>
-52.24067253,134.50542458,61.07571943,-69.99428679,95.61680926,-96.70747943
27.11532808,36.41621688,18.74849154,2.27639962,1.14401886,2.24205153

>  <Name>
ligand

>  <RI>
0

>  <Rbt.Current_Directory>
/home/itssahil/PROJECTS/Mol_Feturizer/New_Systems/rnas/3F4H

>  <Rbt.Executable>
rbdock ($Id: //depot/dev/client3/rdock/2013.1/src/exe/rbdock.cxx#4 $)

>  <Rbt.Library>
libRbt.so (2013.1, Build901 2013/11/27)

>  <Rbt.Parameter_File>
/export/apps/rDock/src/rDock_2013.1_src/data/scripts/dock_solv.prm

>  <Rbt.Receptor>
prm/pocket_docking_8.prm

>  <SCORE>
-38.7801

>  <SCORE.INTER>
-23.2876

>  <SCORE.INTER.CONST>
1

>  <SCORE.INTER.POLAR>
0

>  <SCORE.INTER.ROT>
6

>  <SCORE.INTER.SOLV>
11.5154

>  <SCORE.INTER.VDW>
-26.9635

>  <SCORE.INTER.norm>
-0.803019

>  <SCORE.INTRA>
-15.4926

>  <SCORE.INTRA.DIHEDRAL>
0.416873

>  <SCORE.INTRA.DIHEDRAL.0>
6.83446

>  <SCORE.INTRA.POLAR>
0

>  <SCORE.INTRA.POLAR.0>
0

>  <SCORE.INTRA.REPUL>
0

>  <SCORE.INTRA.REPUL.0>
0

>  <SCORE.INTRA.SOLV>
1.08251

>  <SCORE.INTRA.SOLV.lig_0>
-26.4601

>  <SCORE.INTRA.VDW>
-16.2423

>  <SCORE.INTRA.VDW.0>
13.7853

>  <SCORE.INTRA.norm>
-0.534227

>  <SCORE.RESTR>
0

>  <SCORE.RESTR.CAVITY>
0

>  <SCORE.RESTR.norm>
0

>  <SCORE.SYSTEM>
0

>  <SCORE.SYSTEM.CONST>
0

>  <SCORE.SYSTEM.DIHEDRAL>
0

>  <SCORE.SYSTEM.SOLV>
0

>  <SCORE.SYSTEM.norm>
0

>  <SCORE.heavy>
29

>  <SCORE.norm>
-1.33725

>  <RMSD>
5.171

$$$$
ligand
 OpenBabel11021811473D
libRbt.so/2013.1/901 2013/11/27
 29 31  0  0  0  0  0  0  0  0999 V2000
   27.1836   32.4204   15.9517 C   0  0  0  0  0  0  0  0  0  0  0  0
   26.7317   32.5423   17.3044 O   0  0  0  0  0  0  0  0  0  0  0  0
   28.5914   32.9891   15.8384 C   0  0  1  0  0  0  0  0  0  0  0  0
   29.3049   32.2408   14.8590 O   0  0  0  0  0  0  0  0  0  0  0  0
   28.5445   34.4610   15.4489 C   0  0  1  0  0  0  0  0  0  0  0  0
   27.6443   34.5774   14.3532 O   0  0  0  0  0  0  0  0  0  0  0  0
   28.1292   35.4150   16.5727 C   0  0  1  0  0  0  0  0  0  0  0  0
   26.7909   35.1015   16.9604 O   0  0  0  0  0  0  0  0  0  0  0  0
   29.0175   35.3194   17.8114 C   0  0  0  0  0  0  0  0  0  0  0  0
   27.9753   33.9025   20.0199 N   0  0  0  0  0  0  0  0  0  0  0  0
   27.4870   33.1872   21.0725 C   0  0  0  0  0  0  0  0  0  0  0  0
   27.5561   31.9328   21.0757 O   0  0  0  0  0  0  0  0  0  0  0  0
   26.9155   33.8222   22.1271 N   0  0  0  0  0  0  0  0  0  0  0  0
   26.8190   35.1752   22.1563 C   0  0  0  0  0  0  0  0  0  0  0  0
   27.3139   35.9178   21.0904 C   0  0  1  0  0  0  0  0  0  0  0  0
   26.2873   35.7582   23.1335 O   0  0  0  0  0  0  0  0  0  0  0  0
   27.7094   37.9854   20.0784 C   0  0  1  0  0  0  0  0  0  0  0  0
   27.2273   37.2656   21.1121 N   0  0  0  0  0  0  0  0  0  0  0  0
   27.6156   39.3724   20.1089 C   0  0  0  0  0  0  0  0  0  0  0  0
   28.1057   40.1421   19.0596 C   0  0  2  0  0  0  0  0  0  0  0  0
   27.9700   41.6399   19.1573 C   0  0  0  0  0  0  0  0  0  0  0  0
   28.7018   39.5152   17.9580 C   0  0  2  0  0  0  0  0  0  0  0  0
   29.2053   40.2057   16.8908 N   0  0  0  0  0  0  0  0  0  0  0  0
   28.7879   38.1178   17.9408 C   0  0  0  0  0  0  0  0  0  0  0  0
   28.2967   37.3418   18.9902 C   0  0  2  0  0  0  0  0  0  0  0  0
   27.9043   35.2650   20.0038 C   0  0  2  0  0  0  0  0  0  0  0  0
   28.3823   35.9921   18.9613 N   0  0  0  0  0  0  0  0  0  0  0  0
   30.6408   40.2813   16.6958 C   0  0  0  0  0  0  0  0  0  0  0  0
   28.3561   40.8776   15.9211 C   0  0  0  0  0  0  0  0  0  0  0  0
  1  2  1  0  0  0  0
  3  1  1  6  0  0  0
  3  4  1  0  0  0  0
  3  5  1  0  0  0  0
  5  6  1  6  0  0  0
  5  7  1  0  0  0  0
  7  8  1  1  0  0  0
  7  9  1  0  0  0  0
  9 27  1  0  0  0  0
 10 11  1  0  0  0  0
 11 12  2  0  0  0  0
 11 13  1  0  0  0  0
 13 14  1  0  0  0  0
 14 16  2  0  0  0  0
 15 14  1  1  0  0  0
 15 18  1  0  0  0  0
 15 26  1  0  0  0  0
 17 19  1  1  0  0  0
 17 25  1  0  0  0  0
 17 18  1  0  0  0  0
 19 20  1  0  0  0  0
 20 21  1  6  0  0  0
 20 22  1  0  0  0  0
 22 23  1  6  0  0  0
 22 24  1  0  0  0  0
 23 28  1  0  0  0  0
 23 29  1  0  0  0  0
 25 24  1  6  0  0  0
 25 27  1  0  0  0  0
 26 10  1  6  0  0  0
 26 27  1  0  0  0  0
M  END
>  <CHROM.1>
146.67606049,-47.78263382,-63.28011005,-165.73021451,108.70477911,-71.44744048
27.96411276,36.08873727,18.50087508,-2.13408465,1.31155302,0.52385813

>  <Name>
ligand

>  <RI>
0

>  <Rbt.Current_Directory>
/home/itssahil/PROJECTS/Mol_Feturizer/New_Systems/rnas/3F4H

>  <Rbt.Executable>
rbdock ($Id: //depot/dev/client3/rdock/2013.1/src/exe/rbdock.cxx#4 $)

>  <Rbt.Library>
libRbt.so (2013.1, Build901 2013/11/27)

>  <Rbt.Parameter_File>
/export/apps/rDock/src/rDock_2013.1_src/data/scripts/dock_solv.prm

>  <Rbt.Receptor>
prm/blind_docking_80.prm

>  <SCORE>
-38.1621

>  <SCORE.INTER>
-23.6679

>  <SCORE.INTER.CONST>
1

>  <SCORE.INTER.POLAR>
-0.991969

>  <SCORE.INTER.ROT>
6

>  <SCORE.INTER.SOLV>
11.5162

>  <SCORE.INTER.VDW>
-23.9107

>  <SCORE.INTER.norm>
-0.816133

>  <SCORE.INTRA>
-14.4943

>  <SCORE.INTRA.DIHEDRAL>
-0.409831

>  <SCORE.INTRA.DIHEDRAL.0>
6.83446

>  <SCORE.INTRA.POLAR>
0

>  <SCORE.INTRA.POLAR.0>
0

>  <SCORE.INTRA.REPUL>
0

>  <SCORE.INTRA.REPUL.0>
0

>  <SCORE.INTRA.SOLV>
0.627145

>  <SCORE.INTRA.SOLV.lig_0>
-26.4601

>  <SCORE.INTRA.VDW>
-14.6029

>  <SCORE.INTRA.VDW.0>
13.7853

>  <SCORE.INTRA.norm>
-0.499802

>  <SCORE.RESTR>
0

>  <SCORE.RESTR.CAVITY>
0

>  <SCORE.RESTR.norm>
0

>  <SCORE.SYSTEM>
0

>  <SCORE.SYSTEM.CONST>
0

>  <SCORE.SYSTEM.DIHEDRAL>
0

>  <SCORE.SYSTEM.SOLV>
0

>  <SCORE.SYSTEM.norm>
0

>  <SCORE.heavy>
29

>  <SCORE.norm>
-1.31594

>  <RMSD>
5.177

$$$$
ligand
 OpenBabel11021811473D
libRbt.so/2013.1/901 2013/11/27
 29 31  0  0  0  0  0  0  0  0999 V2000
   27.1009   32.5303   17.6519 C   0  0  0  0  0  0  0  0  0  0  0  0
   25.9207   31.7247   17.5687 O   0  0  0  0  0  0  0  0  0  0  0  0
   27.2426   33.3482   16.3755 C   0  0  1  0  0  0  0  0  0  0  0  0
   26.1136   34.2088   16.2610 O   0  0  0  0  0  0  0  0  0  0  0  0
   28.5288   34.1639   16.4024 C   0  0  1  0  0  0  0  0  0  0  0  0
   28.5542   34.9480   15.2152 O   0  0  0  0  0  0  0  0  0  0  0  0
   28.6987   35.0645   17.6294 C   0  0  1  0  0  0  0  0  0  0  0  0
   29.9454   35.7520   17.5165 O   0  0  0  0  0  0  0  0  0  0  0  0
   27.5926   36.1074   17.7766 C   0  0  0  0  0  0  0  0  0  0  0  0
   27.3850   34.5417   20.1168 N   0  0  0  0  0  0  0  0  0  0  0  0
   27.2878   33.7552   21.2259 C   0  0  0  0  0  0  0  0  0  0  0  0
   27.1690   32.5094   21.1136 O   0  0  0  0  0  0  0  0  0  0  0  0
   27.3127   34.3096   22.4644 N   0  0  0  0  0  0  0  0  0  0  0  0
   27.4348   35.6514   22.6243 C   0  0  0  0  0  0  0  0  0  0  0  0
   27.5363   36.4659   21.5022 C   0  0  1  0  0  0  0  0  0  0  0  0
   27.4553   36.1601   23.7724 O   0  0  0  0  0  0  0  0  0  0  0  0
   27.7637   38.5917   20.5616 C   0  0  1  0  0  0  0  0  0  0  0  0
   27.6634   37.8024   21.6508 N   0  0  0  0  0  0  0  0  0  0  0  0
   27.8936   39.9666   20.7238 C   0  0  0  0  0  0  0  0  0  0  0  0
   28.0017   40.8063   19.6207 C   0  0  2  0  0  0  0  0  0  0  0  0
   28.1387   42.2865   19.8689 C   0  0  0  0  0  0  0  0  0  0  0  0
   27.9801   40.2630   18.3298 C   0  0  2  0  0  0  0  0  0  0  0  0
   28.0812   41.0254   17.1994 N   0  0  0  0  0  0  0  0  0  0  0  0
   27.8474   38.8770   18.1823 C   0  0  0  0  0  0  0  0  0  0  0  0
   27.7374   38.0313   19.2856 C   0  0  2  0  0  0  0  0  0  0  0  0
   27.5122   35.8958   20.2255 C   0  0  2  0  0  0  0  0  0  0  0  0
   27.6062   36.6938   19.1309 N   0  0  0  0  0  0  0  0  0  0  0  0
   26.8800   41.5382   16.5681 C   0  0  0  0  0  0  0  0  0  0  0  0
   29.3584   41.3569   16.5896 C   0  0  0  0  0  0  0  0  0  0  0  0
  1  2  1  0  0  0  0
  3  1  1  1  0  0  0
  3  4  1  0  0  0  0
  3  5  1  0  0  0  0
  5  6  1  6  0  0  0
  5  7  1  0  0  0  0
  7  8  1  6  0  0  0
  7  9  1  0  0  0  0
  9 27  1  0  0  0  0
 10 11  1  0  0  0  0
 11 12  2  0  0  0  0
 11 13  1  0  0  0  0
 13 14  1  0  0  0  0
 14 16  2  0  0  0  0
 15 14  1  1  0  0  0
 15 18  1  0  0  0  0
 15 26  1  0  0  0  0
 17 19  1  1  0  0  0
 17 25  1  0  0  0  0
 17 18  1  0  0  0  0
 19 20  1  0  0  0  0
 20 21  1  6  0  0  0
 20 22  1  0  0  0  0
 22 23  1  6  0  0  0
 22 24  1  0  0  0  0
 23 28  1  0  0  0  0
 23 29  1  0  0  0  0
 25 24  1  6  0  0  0
 25 27  1  0  0  0  0
 26 10  1  6  0  0  0
 26 27  1  0  0  0  0
M  END
>  <CHROM.1>
61.76207937,-177.06004416,179.58772312,165.08014646,-90.53253243,122.84207942
27.71023038,36.62884446,19.00738912,-2.62395681,1.43790942,1.00581310

>  <Name>
ligand

>  <RI>
0

>  <Rbt.Current_Directory>
/home/itssahil/PROJECTS/Mol_Feturizer/New_Systems/rnas/3F4H

>  <Rbt.Executable>
rbdock ($Id: //depot/dev/client3/rdock/2013.1/src/exe/rbdock.cxx#4 $)

>  <Rbt.Library>
libRbt.so (2013.1, Build901 2013/11/27)

>  <Rbt.Parameter_File>
/export/apps/rDock/src/rDock_2013.1_src/data/scripts/dock_solv.prm

>  <Rbt.Receptor>
prm/pocket_docking_5.prm

>  <SCORE>
-38.7338

>  <SCORE.INTER>
-21.4482

>  <SCORE.INTER.CONST>
1

>  <SCORE.INTER.POLAR>
0

>  <SCORE.INTER.ROT>
6

>  <SCORE.INTER.SOLV>
9.9819

>  <SCORE.INTER.VDW>
-25.2261

>  <SCORE.INTER.norm>
-0.739594

>  <SCORE.INTRA>
-17.2856

>  <SCORE.INTRA.DIHEDRAL>
-3.99074

>  <SCORE.INTRA.DIHEDRAL.0>
6.83446

>  <SCORE.INTRA.POLAR>
0

>  <SCORE.INTRA.POLAR.0>
0

>  <SCORE.INTRA.REPUL>
0

>  <SCORE.INTRA.REPUL.0>
0

>  <SCORE.INTRA.SOLV>
-0.0468521

>  <SCORE.INTRA.SOLV.lig_0>
-26.4601

>  <SCORE.INTRA.VDW>
-15.2668

>  <SCORE.INTRA.VDW.0>
13.7853

>  <SCORE.INTRA.norm>
-0.596054

>  <SCORE.RESTR>
0

>  <SCORE.RESTR.CAVITY>
0

>  <SCORE.RESTR.norm>
0

>  <SCORE.SYSTEM>
0

>  <SCORE.SYSTEM.CONST>
0

>  <SCORE.SYSTEM.DIHEDRAL>
0

>  <SCORE.SYSTEM.SOLV>
0

>  <SCORE.SYSTEM.norm>
0

>  <SCORE.heavy>
29

>  <SCORE.norm>
-1.33565

>  <RMSD>
5.195

$$$$
ligand
 OpenBabel11021811473D
libRbt.so/2013.1/901 2013/11/27
 29 31  0  0  0  0  0  0  0  0999 V2000
   28.0176   42.4530   18.5724 C   0  0  0  0  0  0  0  0  0  0  0  0
   27.2624   43.4606   17.8918 O   0  0  0  0  0  0  0  0  0  0  0  0
   27.7034   42.5085   20.0612 C   0  0  1  0  0  0  0  0  0  0  0  0
   26.3090   42.2793   20.2388 O   0  0  0  0  0  0  0  0  0  0  0  0
   28.5119   41.4628   20.8183 C   0  0  1  0  0  0  0  0  0  0  0  0
   28.5433   41.8631   22.1834 O   0  0  0  0  0  0  0  0  0  0  0  0
   27.9848   40.0294   20.7040 C   0  0  1  0  0  0  0  0  0  0  0  0
   27.7912   39.7279   19.3215 O   0  0  0  0  0  0  0  0  0  0  0  0
   28.9320   38.9843   21.2901 C   0  0  0  0  0  0  0  0  0  0  0  0
   27.3289   37.5462   23.1157 N   0  0  0  0  0  0  0  0  0  0  0  0
   26.5523   36.8824   24.0181 C   0  0  0  0  0  0  0  0  0  0  0  0
   26.2529   37.4175   25.1147 O   0  0  0  0  0  0  0  0  0  0  0  0
   26.0978   35.6332   23.7442 N   0  0  0  0  0  0  0  0  0  0  0  0
   26.4047   35.0219   22.5725 C   0  0  0  0  0  0  0  0  0  0  0  0
   27.1949   35.6873   21.6421 C   0  0  1  0  0  0  0  0  0  0  0  0
   25.9836   33.8649   22.3245 O   0  0  0  0  0  0  0  0  0  0  0  0
   28.2669   35.7365   19.5676 C   0  0  1  0  0  0  0  0  0  0  0  0
   27.5018   35.0894   20.4705 N   0  0  0  0  0  0  0  0  0  0  0  0
   28.5785   35.1133   18.3642 C   0  0  0  0  0  0  0  0  0  0  0  0
   29.3628   35.7555   17.4124 C   0  0  2  0  0  0  0  0  0  0  0  0
   29.6628   35.0214   16.1307 C   0  0  0  0  0  0  0  0  0  0  0  0
   29.8455   37.0456   17.6662 C   0  0  2  0  0  0  0  0  0  0  0  0
   30.6214   37.7382   16.7788 N   0  0  0  0  0  0  0  0  0  0  0  0
   29.5246   37.6598   18.8829 C   0  0  0  0  0  0  0  0  0  0  0  0
   28.7395   37.0191   19.8408 C   0  0  2  0  0  0  0  0  0  0  0  0
   27.6626   36.9750   21.9223 C   0  0  2  0  0  0  0  0  0  0  0  0
   28.4385   37.6210   21.0143 N   0  0  0  0  0  0  0  0  0  0  0  0
   30.0085   38.7112   15.8944 C   0  0  0  0  0  0  0  0  0  0  0  0
   32.0588   37.5465   16.6788 C   0  0  0  0  0  0  0  0  0  0  0  0
  1  2  1  0  0  0  0
  3  1  1  6  0  0  0
  3  4  1  0  0  0  0
  3  5  1  0  0  0  0
  5  6  1  1  0  0  0
  5  7  1  0  0  0  0
  7  8  1  6  0  0  0
  7  9  1  0  0  0  0
  9 27  1  0  0  0  0
 10 11  1  0  0  0  0
 11 12  2  0  0  0  0
 11 13  1  0  0  0  0
 13 14  1  0  0  0  0
 14 16  2  0  0  0  0
 15 14  1  6  0  0  0
 15 18  1  0  0  0  0
 15 26  1  0  0  0  0
 17 19  1  6  0  0  0
 17 25  1  0  0  0  0
 17 18  1  0  0  0  0
 19 20  1  0  0  0  0
 20 21  1  1  0  0  0
 20 22  1  0  0  0  0
 22 23  1  1  0  0  0
 22 24  1  0  0  0  0
 23 28  1  0  0  0  0
 23 29  1  0  0  0  0
 25 24  1  1  0  0  0
 25 27  1  0  0  0  0
 26 10  1  1  0  0  0
 26 27  1  0  0  0  0
M  END
>  <CHROM.1>
59.87534145,159.89919784,50.91534972,-173.67872216,97.23371202,85.29151014
28.16034581,38.10213716,20.14183402,0.81577086,1.08233621,-0.11599755

>  <Name>
ligand

>  <RI>
0

>  <Rbt.Current_Directory>
/home/itssahil/PROJECTS/Mol_Feturizer/New_Systems/rnas/3F4H

>  <Rbt.Executable>
rbdock ($Id: //depot/dev/client3/rdock/2013.1/src/exe/rbdock.cxx#4 $)

>  <Rbt.Library>
libRbt.so (2013.1, Build901 2013/11/27)

>  <Rbt.Parameter_File>
/export/apps/rDock/src/rDock_2013.1_src/data/scripts/dock_solv.prm

>  <Rbt.Receptor>
prm/pocket_docking_5.prm

>  <SCORE>
-43.2831

>  <SCORE.INTER>
-26.3789

>  <SCORE.INTER.CONST>
1

>  <SCORE.INTER.POLAR>
0

>  <SCORE.INTER.ROT>
6

>  <SCORE.INTER.SOLV>
12.8604

>  <SCORE.INTER.VDW>
-29.4727

>  <SCORE.INTER.norm>
-0.909616

>  <SCORE.INTRA>
-16.9043

>  <SCORE.INTRA.DIHEDRAL>
-3.05115

>  <SCORE.INTRA.DIHEDRAL.0>
6.83446

>  <SCORE.INTRA.POLAR>
0

>  <SCORE.INTRA.POLAR.0>
0

>  <SCORE.INTRA.REPUL>
0

>  <SCORE.INTRA.REPUL.0>
0

>  <SCORE.INTRA.SOLV>
0.0283852

>  <SCORE.INTRA.SOLV.lig_0>
-26.4601

>  <SCORE.INTRA.VDW>
-15.3929

>  <SCORE.INTRA.VDW.0>
13.7853

>  <SCORE.INTRA.norm>
-0.582905

>  <SCORE.RESTR>
0

>  <SCORE.RESTR.CAVITY>
0

>  <SCORE.RESTR.norm>
0

>  <SCORE.SYSTEM>
0

>  <SCORE.SYSTEM.CONST>
0

>  <SCORE.SYSTEM.DIHEDRAL>
0

>  <SCORE.SYSTEM.SOLV>
0

>  <SCORE.SYSTEM.norm>
0

>  <SCORE.heavy>
29

>  <SCORE.norm>
-1.49252

>  <RMSD>
5.350

$$$$
ligand
 OpenBabel11021811473D
libRbt.so/2013.1/901 2013/11/27
 29 31  0  0  0  0  0  0  0  0999 V2000
   29.3146   41.4025   15.7757 C   0  0  0  0  0  0  0  0  0  0  0  0
   28.0901   41.9431   15.2686 O   0  0  0  0  0  0  0  0  0  0  0  0
   29.0814   40.8577   17.1782 C   0  0  1  0  0  0  0  0  0  0  0  0
   28.5745   41.9091   17.9943 O   0  0  0  0  0  0  0  0  0  0  0  0
   28.0988   39.6941   17.1439 C   0  0  1  0  0  0  0  0  0  0  0  0
   28.6749   38.6814   16.3271 O   0  0  0  0  0  0  0  0  0  0  0  0
   27.7310   39.1169   18.5140 C   0  0  1  0  0  0  0  0  0  0  0  0
   26.7711   38.0768   18.3234 O   0  0  0  0  0  0  0  0  0  0  0  0
   28.9234   38.5308   19.2673 C   0  0  0  0  0  0  0  0  0  0  0  0
   28.5921   39.2006   21.9899 N   0  0  0  0  0  0  0  0  0  0  0  0
   28.4379   39.5596   23.2958 C   0  0  0  0  0  0  0  0  0  0  0  0
   28.6931   40.7323   23.6673 O   0  0  0  0  0  0  0  0  0  0  0  0
   28.0119   38.6524   24.2109 N   0  0  0  0  0  0  0  0  0  0  0  0
   27.7314   37.3757   23.8474 C   0  0  0  0  0  0  0  0  0  0  0  0
   27.8828   36.9956   22.5187 C   0  0  1  0  0  0  0  0  0  0  0  0
   27.3395   36.5391   24.6982 O   0  0  0  0  0  0  0  0  0  0  0  0
   27.7466   35.3608   20.8560 C   0  0  1  0  0  0  0  0  0  0  0  0
   27.6013   35.7283   22.1456 N   0  0  0  0  0  0  0  0  0  0  0  0
   27.4550   34.0540   20.4808 C   0  0  0  0  0  0  0  0  0  0  0  0
   27.5925   33.6457   19.1588 C   0  0  2  0  0  0  0  0  0  0  0  0
   27.2604   32.2147   18.8220 C   0  0  0  0  0  0  0  0  0  0  0  0
   28.0292   34.5598   18.1915 C   0  0  2  0  0  0  0  0  0  0  0  0
   28.1879   34.2308   16.8740 N   0  0  0  0  0  0  0  0  0  0  0  0
   28.3203   35.8718   18.5845 C   0  0  0  0  0  0  0  0  0  0  0  0
   28.1851   36.2854   19.9094 C   0  0  2  0  0  0  0  0  0  0  0  0
   28.3202   37.9296   21.5745 C   0  0  2  0  0  0  0  0  0  0  0  0
   28.4724   37.5547   20.2783 N   0  0  0  0  0  0  0  0  0  0  0  0
   27.0536   34.3046   15.9727 C   0  0  0  0  0  0  0  0  0  0  0  0
   29.4632   33.8062   16.3206 C   0  0  0  0  0  0  0  0  0  0  0  0
  1  2  1  0  0  0  0
  3  1  1  6  0  0  0
  3  4  1  0  0  0  0
  3  5  1  0  0  0  0
  5  6  1  6  0  0  0
  5  7  1  0  0  0  0
  7  8  1  6  0  0  0
  7  9  1  0  0  0  0
  9 27  1  0  0  0  0
 10 11  1  0  0  0  0
 11 12  2  0  0  0  0
 11 13  1  0  0  0  0
 13 14  1  0  0  0  0
 14 16  2  0  0  0  0
 15 14  1  6  0  0  0
 15 18  1  0  0  0  0
 15 26  1  0  0  0  0
 17 19  1  6  0  0  0
 17 25  1  0  0  0  0
 17 18  1  0  0  0  0
 19 20  1  0  0  0  0
 20 21  1  1  0  0  0
 20 22  1  0  0  0  0
 22 23  1  1  0  0  0
 22 24  1  0  0  0  0
 23 28  1  0  0  0  0
 23 29  1  0  0  0  0
 25 24  1  1  0  0  0
 25 27  1  0  0  0  0
 26 10  1  1  0  0  0
 26 27  1  0  0  0  0
M  END
>  <CHROM.1>
-57.15204960,60.53758987,177.80974138,-157.84745689,85.94385253,81.75586919
28.12735690,37.48799767,19.55369363,-0.78290878,1.44943198,1.15497976

>  <Name>
ligand

>  <RI>
0

>  <Rbt.Current_Directory>
/home/itssahil/PROJECTS/Mol_Feturizer/New_Systems/rnas/3F4H

>  <Rbt.Executable>
rbdock ($Id: //depot/dev/client3/rdock/2013.1/src/exe/rbdock.cxx#4 $)

>  <Rbt.Library>
libRbt.so (2013.1, Build901 2013/11/27)

>  <Rbt.Parameter_File>
/export/apps/rDock/src/rDock_2013.1_src/data/scripts/dock_solv.prm

>  <Rbt.Receptor>
prm/pocket_docking_3.prm

>  <SCORE>
-38.7774

>  <SCORE.INTER>
-21.9465

>  <SCORE.INTER.CONST>
1

>  <SCORE.INTER.POLAR>
0

>  <SCORE.INTER.ROT>
6

>  <SCORE.INTER.SOLV>
9.1867

>  <SCORE.INTER.VDW>
-25.2933

>  <SCORE.INTER.norm>
-0.756777

>  <SCORE.INTRA>
-16.8309

>  <SCORE.INTRA.DIHEDRAL>
-3.21171

>  <SCORE.INTRA.DIHEDRAL.0>
6.83446

>  <SCORE.INTRA.POLAR>
0

>  <SCORE.INTRA.POLAR.0>
0

>  <SCORE.INTRA.REPUL>
0

>  <SCORE.INTRA.REPUL.0>
0

>  <SCORE.INTRA.SOLV>
0.0430466

>  <SCORE.INTRA.SOLV.lig_0>
-26.4601

>  <SCORE.INTRA.VDW>
-15.2465

>  <SCORE.INTRA.VDW.0>
13.7853

>  <SCORE.INTRA.norm>
-0.580374

>  <SCORE.RESTR>
0

>  <SCORE.RESTR.CAVITY>
0

>  <SCORE.RESTR.norm>
0

>  <SCORE.SYSTEM>
0

>  <SCORE.SYSTEM.CONST>
0

>  <SCORE.SYSTEM.DIHEDRAL>
0

>  <SCORE.SYSTEM.SOLV>
0

>  <SCORE.SYSTEM.norm>
0

>  <SCORE.heavy>
29

>  <SCORE.norm>
-1.33715

>  <RMSD>
5.362

$$$$
ligand
 OpenBabel11021811473D
libRbt.so/2013.1/901 2013/11/27
 29 31  0  0  0  0  0  0  0  0999 V2000
   27.0990   42.2945   18.6953 C   0  0  0  0  0  0  0  0  0  0  0  0
   26.9678   43.6093   18.1449 O   0  0  0  0  0  0  0  0  0  0  0  0
   27.3342   42.3985   20.1960 C   0  0  1  0  0  0  0  0  0  0  0  0
   26.0949   42.1857   20.8648 O   0  0  0  0  0  0  0  0  0  0  0  0
   28.3631   41.3707   20.6491 C   0  0  1  0  0  0  0  0  0  0  0  0
   28.8019   41.7586   21.9459 O   0  0  0  0  0  0  0  0  0  0  0  0
   27.8637   39.9231   20.6756 C   0  0  1  0  0  0  0  0  0  0  0  0
   27.3436   39.6007   19.3852 O   0  0  0  0  0  0  0  0  0  0  0  0
   28.9545   38.9093   21.0151 C   0  0  0  0  0  0  0  0  0  0  0  0
   27.3315   37.5984   22.9174 N   0  0  0  0  0  0  0  0  0  0  0  0
   26.5451   36.9974   23.8545 C   0  0  0  0  0  0  0  0  0  0  0  0
   26.2358   37.6052   24.9098 O   0  0  0  0  0  0  0  0  0  0  0  0
   26.0914   35.7331   23.6607 N   0  0  0  0  0  0  0  0  0  0  0  0
   26.4088   35.0441   22.5358 C   0  0  0  0  0  0  0  0  0  0  0  0
   27.2090   35.6449   21.5706 C   0  0  1  0  0  0  0  0  0  0  0  0
   25.9884   33.8735   22.3618 O   0  0  0  0  0  0  0  0  0  0  0  0
   28.3013   35.5538   19.5081 C   0  0  1  0  0  0  0  0  0  0  0  0
   27.5265   34.9694   20.4448 N   0  0  0  0  0  0  0  0  0  0  0  0
   28.6237   34.8508   18.3525 C   0  0  0  0  0  0  0  0  0  0  0  0
   29.4182   35.4270   17.3674 C   0  0  2  0  0  0  0  0  0  0  0  0
   29.7297   34.6083   16.1410 C   0  0  0  0  0  0  0  0  0  0  0  0
   29.9005   36.7308   17.5387 C   0  0  2  0  0  0  0  0  0  0  0  0
   30.6860   37.3616   16.6145 N   0  0  0  0  0  0  0  0  0  0  0  0
   29.5686   37.4256   18.7082 C   0  0  0  0  0  0  0  0  0  0  0  0
   28.7731   36.8514   19.6992 C   0  0  2  0  0  0  0  0  0  0  0  0
   27.6759   36.9481   21.7683 C   0  0  2  0  0  0  0  0  0  0  0  0
   28.4617   37.5310   20.8267 N   0  0  0  0  0  0  0  0  0  0  0  0
   30.0970   38.3351   15.7146 C   0  0  0  0  0  0  0  0  0  0  0  0
   32.1108   37.1024   16.4896 C   0  0  0  0  0  0  0  0  0  0  0  0
  1  2  1  0  0  0  0
  3  1  1  6  0  0  0
  3  4  1  0  0  0  0
  3  5  1  0  0  0  0
  5  6  1  1  0  0  0
  5  7  1  0  0  0  0
  7  8  1  6  0  0  0
  7  9  1  0  0  0  0
  9 27  1  0  0  0  0
 10 11  1  0  0  0  0
 11 12  2  0  0  0  0
 11 13  1  0  0  0  0
 13 14  1  0  0  0  0
 14 16  2  0  0  0  0
 15 14  1  6  0  0  0
 15 18  1  0  0  0  0
 15 26  1  0  0  0  0
 17 19  1  6  0  0  0
 17 25  1  0  0  0  0
 17 18  1  0  0  0  0
 19 20  1  0  0  0  0
 20 21  1  1  0  0  0
 20 22  1  0  0  0  0
 22 23  1  1  0  0  0
 22 24  1  0  0  0  0
 23 28  1  0  0  0  0
 23 29  1  0  0  0  0
 25 24  1  1  0  0  0
 25 27  1  0  0  0  0
 26 10  1  1  0  0  0
 26 27  1  0  0  0  0
M  END
>  <CHROM.1>
98.54546325,164.21949596,54.74470453,-171.51168958,101.00717572,99.69362923
28.09984158,37.97991892,20.08958600,-2.75396697,-1.05799249,2.96048971

>  <Name>
ligand

>  <RI>
0

>  <Rbt.Current_Directory>
/home/itssahil/PROJECTS/Mol_Feturizer/New_Systems/rnas/3F4H

>  <Rbt.Executable>
rbdock ($Id: //depot/dev/client3/rdock/2013.1/src/exe/rbdock.cxx#4 $)

>  <Rbt.Library>
libRbt.so (2013.1, Build901 2013/11/27)

>  <Rbt.Parameter_File>
/export/apps/rDock/src/rDock_2013.1_src/data/scripts/dock_solv.prm

>  <Rbt.Receptor>
prm/pocket_docking_8.prm

>  <SCORE>
-40.1194

>  <SCORE.INTER>
-24.7106

>  <SCORE.INTER.CONST>
1

>  <SCORE.INTER.POLAR>
0

>  <SCORE.INTER.ROT>
6

>  <SCORE.INTER.SOLV>
12.7479

>  <SCORE.INTER.VDW>
-28.3231

>  <SCORE.INTER.norm>
-0.852091

>  <SCORE.INTRA>
-15.4353

>  <SCORE.INTRA.DIHEDRAL>
0.149345

>  <SCORE.INTRA.DIHEDRAL.0>
6.83446

>  <SCORE.INTRA.POLAR>
0

>  <SCORE.INTRA.POLAR.0>
0

>  <SCORE.INTRA.REPUL>
0

>  <SCORE.INTRA.REPUL.0>
0

>  <SCORE.INTRA.SOLV>
-0.240207

>  <SCORE.INTRA.SOLV.lig_0>
-26.4601

>  <SCORE.INTRA.VDW>
-15.3898

>  <SCORE.INTRA.VDW.0>
13.7853

>  <SCORE.INTRA.norm>
-0.532251

>  <SCORE.RESTR>
0.0265152

>  <SCORE.RESTR.CAVITY>
0.0265152

>  <SCORE.RESTR.norm>
0.000914317

>  <SCORE.SYSTEM>
0

>  <SCORE.SYSTEM.CONST>
0

>  <SCORE.SYSTEM.DIHEDRAL>
0

>  <SCORE.SYSTEM.SOLV>
0

>  <SCORE.SYSTEM.norm>
0

>  <SCORE.heavy>
29

>  <SCORE.norm>
-1.38343

>  <RMSD>
5.394

$$$$
ligand
 OpenBabel11021811473D
libRbt.so/2013.1/901 2013/11/27
 29 31  0  0  0  0  0  0  0  0999 V2000
   26.9247   42.4148   19.1917 C   0  0  0  0  0  0  0  0  0  0  0  0
   28.0870   42.8655   18.4883 O   0  0  0  0  0  0  0  0  0  0  0  0
   27.2535   42.2798   20.6722 C   0  0  1  0  0  0  0  0  0  0  0  0
   26.0685   41.9043   21.3672 O   0  0  0  0  0  0  0  0  0  0  0  0
   28.3444   41.2382   20.8856 C   0  0  1  0  0  0  0  0  0  0  0  0
   28.8129   41.3876   22.2208 O   0  0  0  0  0  0  0  0  0  0  0  0
   27.9130   39.7894   20.6400 C   0  0  1  0  0  0  0  0  0  0  0  0
   27.6079   39.6374   19.2531 O   0  0  0  0  0  0  0  0  0  0  0  0
   28.9852   38.7650   21.0057 C   0  0  0  0  0  0  0  0  0  0  0  0
   27.4058   37.4246   22.9241 N   0  0  0  0  0  0  0  0  0  0  0  0
   26.6411   36.8089   23.8697 C   0  0  0  0  0  0  0  0  0  0  0  0
   26.3600   37.3986   24.9430 O   0  0  0  0  0  0  0  0  0  0  0  0
   26.1788   35.5495   23.6648 N   0  0  0  0  0  0  0  0  0  0  0  0
   26.4662   34.8799   22.5202 C   0  0  0  0  0  0  0  0  0  0  0  0
   27.2440   35.4957   21.5463 C   0  0  1  0  0  0  0  0  0  0  0  0
   26.0379   33.7137   22.3360 O   0  0  0  0  0  0  0  0  0  0  0  0
   28.2845   35.4386   19.4560 C   0  0  1  0  0  0  0  0  0  0  0  0
   27.5314   34.8396   20.4011 N   0  0  0  0  0  0  0  0  0  0  0  0
   28.5759   34.7556   18.2804 C   0  0  0  0  0  0  0  0  0  0  0  0
   29.3476   35.3472   17.2862 C   0  0  2  0  0  0  0  0  0  0  0  0
   29.6259   34.5497   16.0381 C   0  0  0  0  0  0  0  0  0  0  0  0
   29.8379   36.6465   17.4687 C   0  0  2  0  0  0  0  0  0  0  0  0
   30.6022   37.2916   16.5366 N   0  0  0  0  0  0  0  0  0  0  0  0
   29.5373   37.3211   18.6583 C   0  0  0  0  0  0  0  0  0  0  0  0
   28.7649   36.7314   19.6584 C   0  0  2  0  0  0  0  0  0  0  0  0
   27.7197   36.7940   21.7555 C   0  0  2  0  0  0  0  0  0  0  0  0
   28.4836   37.3915   20.8051 N   0  0  0  0  0  0  0  0  0  0  0  0
   30.0231   38.3632   15.7488 C   0  0  0  0  0  0  0  0  0  0  0  0
   31.9947   36.9523   16.2944 C   0  0  0  0  0  0  0  0  0  0  0  0
  1  2  1  0  0  0  0
  3  1  1  6  0  0  0
  3  4  1  0  0  0  0
  3  5  1  0  0  0  0
  5  6  1  1  0  0  0
  5  7  1  0  0  0  0
  7  8  1  6  0  0  0
  7  9  1  0  0  0  0
  9 27  1  0  0  0  0
 10 11  1  0  0  0  0
 11 12  2  0  0  0  0
 11 13  1  0  0  0  0
 13 14  1  0  0  0  0
 14 16  2  0  0  0  0
 15 14  1  6  0  0  0
 15 18  1  0  0  0  0
 15 26  1  0  0  0  0
 17 19  1  6  0  0  0
 17 25  1  0  0  0  0
 17 18  1  0  0  0  0
 19 20  1  0  0  0  0
 20 21  1  1  0  0  0
 20 22  1  0  0  0  0
 22 23  1  1  0  0  0
 22 24  1  0  0  0  0
 23 28  1  0  0  0  0
 23 29  1  0  0  0  0
 25 24  1  1  0  0  0
 25 27  1  0  0  0  0
 26 10  1  1  0  0  0
 26 27  1  0  0  0  0
M  END
>  <CHROM.1>
176.75736172,166.70222570,65.97791732,177.35848431,106.33111245,96.67223458
28.14750550,37.82800910,20.14207771,-2.87783942,-1.08089482,3.07466369

>  <Name>
ligand

>  <RI>
0

>  <Rbt.Current_Directory>
/home/itssahil/PROJECTS/Mol_Feturizer/New_Systems/rnas/3F4H

>  <Rbt.Executable>
rbdock ($Id: //depot/dev/client3/rdock/2013.1/src/exe/rbdock.cxx#4 $)

>  <Rbt.Library>
libRbt.so (2013.1, Build901 2013/11/27)

>  <Rbt.Parameter_File>
/export/apps/rDock/src/rDock_2013.1_src/data/scripts/dock_solv.prm

>  <Rbt.Receptor>
prm/pocket_docking_7.prm

>  <SCORE>
-42.6763

>  <SCORE.INTER>
-25.3772

>  <SCORE.INTER.CONST>
1

>  <SCORE.INTER.POLAR>
0

>  <SCORE.INTER.ROT>
6

>  <SCORE.INTER.SOLV>
12.3305

>  <SCORE.INTER.VDW>
-28.6283

>  <SCORE.INTER.norm>
-0.875074

>  <SCORE.INTRA>
-17.2991

>  <SCORE.INTRA.DIHEDRAL>
-4.03321

>  <SCORE.INTRA.DIHEDRAL.0>
6.83446

>  <SCORE.INTRA.POLAR>
0

>  <SCORE.INTRA.POLAR.0>
0

>  <SCORE.INTRA.REPUL>
0

>  <SCORE.INTRA.REPUL.0>
0

>  <SCORE.INTRA.SOLV>
0.0993962

>  <SCORE.INTRA.SOLV.lig_0>
-26.4601

>  <SCORE.INTRA.VDW>
-15.3322

>  <SCORE.INTRA.VDW.0>
13.7853

>  <SCORE.INTRA.norm>
-0.596521

>  <SCORE.RESTR>
0

>  <SCORE.RESTR.CAVITY>
0

>  <SCORE.RESTR.norm>
0

>  <SCORE.SYSTEM>
0

>  <SCORE.SYSTEM.CONST>
0

>  <SCORE.SYSTEM.DIHEDRAL>
0

>  <SCORE.SYSTEM.SOLV>
0

>  <SCORE.SYSTEM.norm>
0

>  <SCORE.heavy>
29

>  <SCORE.norm>
-1.47159

>  <RMSD>
5.403

$$$$
ligand
 OpenBabel11021811473D
libRbt.so/2013.1/901 2013/11/27
 29 31  0  0  0  0  0  0  0  0999 V2000
   28.1096   42.3515   17.2045 C   0  0  0  0  0  0  0  0  0  0  0  0
   28.7066   43.5304   17.7545 O   0  0  0  0  0  0  0  0  0  0  0  0
   28.1526   41.2359   18.2398 C   0  0  1  0  0  0  0  0  0  0  0  0
   27.4488   41.6674   19.4004 O   0  0  0  0  0  0  0  0  0  0  0  0
   27.5251   39.9644   17.6831 C   0  0  1  0  0  0  0  0  0  0  0  0
   28.3779   39.4942   16.6456 O   0  0  0  0  0  0  0  0  0  0  0  0
   27.2897   38.8546   18.7120 C   0  0  1  0  0  0  0  0  0  0  0  0
   26.6354   37.7653   18.0602 O   0  0  0  0  0  0  0  0  0  0  0  0
   28.5767   38.3270   19.3429 C   0  0  0  0  0  0  0  0  0  0  0  0
   28.4076   39.1329   22.0435 N   0  0  0  0  0  0  0  0  0  0  0  0
   28.3286   39.5574   23.3364 C   0  0  0  0  0  0  0  0  0  0  0  0
   28.5297   40.7640   23.6230 O   0  0  0  0  0  0  0  0  0  0  0  0
   28.0369   38.6799   24.3299 N   0  0  0  0  0  0  0  0  0  0  0  0
   27.8185   37.3686   24.0588 C   0  0  0  0  0  0  0  0  0  0  0  0
   27.8944   36.9215   22.7446 C   0  0  1  0  0  0  0  0  0  0  0  0
   27.5510   36.5599   24.9818 O   0  0  0  0  0  0  0  0  0  0  0  0
   27.7456   35.1865   21.1880 C   0  0  1  0  0  0  0  0  0  0  0  0
   27.6736   35.6189   22.4636 N   0  0  0  0  0  0  0  0  0  0  0  0
   27.5173   33.8438   20.9079 C   0  0  0  0  0  0  0  0  0  0  0  0
   27.5819   33.3681   19.6028 C   0  0  2  0  0  0  0  0  0  0  0  0
   27.3248   31.9013   19.3708 C   0  0  0  0  0  0  0  0  0  0  0  0
   27.8797   34.2501   18.5562 C   0  0  2  0  0  0  0  0  0  0  0  0
   27.9603   33.8551   17.2498 N   0  0  0  0  0  0  0  0  0  0  0  0
   28.1085   35.5990   18.8539 C   0  0  0  0  0  0  0  0  0  0  0  0
   28.0460   36.0801   20.1613 C   0  0  2  0  0  0  0  0  0  0  0  0
   28.1934   37.8248   21.7198 C   0  0  2  0  0  0  0  0  0  0  0  0
   28.2722   37.3850   20.4375 N   0  0  0  0  0  0  0  0  0  0  0  0
   26.7450   33.6354   16.4888 C   0  0  0  0  0  0  0  0  0  0  0  0
   29.2287   33.6441   16.5719 C   0  0  0  0  0  0  0  0  0  0  0  0
  1  2  1  0  0  0  0
  3  1  1  6  0  0  0
  3  4  1  0  0  0  0
  3  5  1  0  0  0  0
  5  6  1  6  0  0  0
  5  7  1  0  0  0  0
  7  8  1  6  0  0  0
  7  9  1  0  0  0  0
  9 27  1  0  0  0  0
 10 11  1  0  0  0  0
 11 12  2  0  0  0  0
 11 13  1  0  0  0  0
 13 14  1  0  0  0  0
 14 16  2  0  0  0  0
 15 14  1  6  0  0  0
 15 18  1  0  0  0  0
 15 26  1  0  0  0  0
 17 19  1  6  0  0  0
 17 25  1  0  0  0  0
 17 18  1  0  0  0  0
 19 20  1  0  0  0  0
 20 21  1  1  0  0  0
 20 22  1  0  0  0  0
 22 23  1  1  0  0  0
 22 24  1  0  0  0  0
 23 28  1  0  0  0  0
 23 29  1  0  0  0  0
 25 24  1  1  0  0  0
 25 27  1  0  0  0  0
 26 10  1  1  0  0  0
 26 27  1  0  0  0  0
M  END
>  <CHROM.1>
58.93721179,67.61614911,176.88542535,173.02066681,78.00003075,85.18435477
27.91940907,37.48612337,20.00111425,0.02770466,-1.51232176,-1.44648678

>  <Name>
ligand

>  <RI>
0

>  <Rbt.Current_Directory>
/home/itssahil/PROJECTS/Mol_Feturizer/New_Systems/rnas/3F4H

>  <Rbt.Executable>
rbdock ($Id: //depot/dev/client3/rdock/2013.1/src/exe/rbdock.cxx#4 $)

>  <Rbt.Library>
libRbt.so (2013.1, Build901 2013/11/27)

>  <Rbt.Parameter_File>
/export/apps/rDock/src/rDock_2013.1_src/data/scripts/dock_solv.prm

>  <Rbt.Receptor>
prm/pocket_docking_4.prm

>  <SCORE>
-40.7985

>  <SCORE.INTER>
-22.8567

>  <SCORE.INTER.CONST>
1

>  <SCORE.INTER.POLAR>
0

>  <SCORE.INTER.ROT>
6

>  <SCORE.INTER.SOLV>
9.40723

>  <SCORE.INTER.VDW>
-25.9735

>  <SCORE.INTER.norm>
-0.788162

>  <SCORE.INTRA>
-17.9418

>  <SCORE.INTRA.DIHEDRAL>
-4.41512

>  <SCORE.INTRA.DIHEDRAL.0>
6.83446

>  <SCORE.INTRA.POLAR>
0

>  <SCORE.INTRA.POLAR.0>
0

>  <SCORE.INTRA.REPUL>
0

>  <SCORE.INTRA.REPUL.0>
0

>  <SCORE.INTRA.SOLV>
-0.377376

>  <SCORE.INTRA.SOLV.lig_0>
-26.4601

>  <SCORE.INTRA.VDW>
-15.5456

>  <SCORE.INTRA.VDW.0>
13.7853

>  <SCORE.INTRA.norm>
-0.618684

>  <SCORE.RESTR>
0

>  <SCORE.RESTR.CAVITY>
0

>  <SCORE.RESTR.norm>
0

>  <SCORE.SYSTEM>
0

>  <SCORE.SYSTEM.CONST>
0

>  <SCORE.SYSTEM.DIHEDRAL>
0

>  <SCORE.SYSTEM.SOLV>
0

>  <SCORE.SYSTEM.norm>
0

>  <SCORE.heavy>
29

>  <SCORE.norm>
-1.40685

>  <RMSD>
5.412

$$$$
ligand
 OpenBabel11021811473D
libRbt.so/2013.1/901 2013/11/27
 29 31  0  0  0  0  0  0  0  0999 V2000
   28.1018   41.3394   17.0238 C   0  0  0  0  0  0  0  0  0  0  0  0
   27.0052   41.1198   17.9172 O   0  0  0  0  0  0  0  0  0  0  0  0
   28.2571   40.1305   16.1113 C   0  0  1  0  0  0  0  0  0  0  0  0
   29.1055   40.4888   15.0249 O   0  0  0  0  0  0  0  0  0  0  0  0
   28.8475   38.9537   16.8775 C   0  0  1  0  0  0  0  0  0  0  0  0
   30.2412   39.2021   17.0208 O   0  0  0  0  0  0  0  0  0  0  0  0
   28.2175   38.6926   18.2488 C   0  0  1  0  0  0  0  0  0  0  0  0
   27.0140   37.9474   18.0590 O   0  0  0  0  0  0  0  0  0  0  0  0
   29.1214   37.9028   19.1932 C   0  0  0  0  0  0  0  0  0  0  0  0
   28.3871   38.6147   21.8248 N   0  0  0  0  0  0  0  0  0  0  0  0
   28.0459   38.9925   23.0893 C   0  0  0  0  0  0  0  0  0  0  0  0
   28.4222   40.1012   23.5451 O   0  0  0  0  0  0  0  0  0  0  0  0
   27.3001   38.1726   23.8725 N   0  0  0  0  0  0  0  0  0  0  0  0
   26.8800   36.9660   23.4159 C   0  0  0  0  0  0  0  0  0  0  0  0
   27.2192   36.5680   22.1278 C   0  0  1  0  0  0  0  0  0  0  0  0
   26.1918   36.2097   24.1452 O   0  0  0  0  0  0  0  0  0  0  0  0
   27.1296   34.9863   20.4115 C   0  0  1  0  0  0  0  0  0  0  0  0
   26.8016   35.3709   21.6620 N   0  0  0  0  0  0  0  0  0  0  0  0
   26.6958   33.7521   19.9403 C   0  0  0  0  0  0  0  0  0  0  0  0
   27.0154   33.3287   18.6549 C   0  0  2  0  0  0  0  0  0  0  0  0
   26.5137   31.9793   18.2092 C   0  0  0  0  0  0  0  0  0  0  0  0
   27.7829   34.1537   17.8228 C   0  0  2  0  0  0  0  0  0  0  0  0
   28.1359   33.8046   16.5490 N   0  0  0  0  0  0  0  0  0  0  0  0
   28.2136   35.3931   18.3117 C   0  0  0  0  0  0  0  0  0  0  0  0
   27.8965   35.8212   19.6004 C   0  0  2  0  0  0  0  0  0  0  0  0
   27.9863   37.4124   21.3192 C   0  0  2  0  0  0  0  0  0  0  0  0
   28.3209   37.0193   20.0632 N   0  0  0  0  0  0  0  0  0  0  0  0
   29.3418   33.0306   16.3235 C   0  0  0  0  0  0  0  0  0  0  0  0
   27.3445   34.1750   15.3873 C   0  0  0  0  0  0  0  0  0  0  0  0
  1  2  1  0  0  0  0
  3  1  1  1  0  0  0
  3  4  1  0  0  0  0
  3  5  1  0  0  0  0
  5  6  1  1  0  0  0
  5  7  1  0  0  0  0
  7  8  1  6  0  0  0
  7  9  1  0  0  0  0
  9 27  1  0  0  0  0
 10 11  1  0  0  0  0
 11 12  2  0  0  0  0
 11 13  1  0  0  0  0
 13 14  1  0  0  0  0
 14 16  2  0  0  0  0
 15 14  1  6  0  0  0
 15 18  1  0  0  0  0
 15 26  1  0  0  0  0
 17 19  1  6  0  0  0
 17 25  1  0  0  0  0
 17 18  1  0  0  0  0
 19 20  1  0  0  0  0
 20 21  1  1  0  0  0
 20 22  1  0  0  0  0
 22 23  1  1  0  0  0
 22 24  1  0  0  0  0
 23 28  1  0  0  0  0
 23 29  1  0  0  0  0
 25 24  1  1  0  0  0
 25 27  1  0  0  0  0
 26 10  1  1  0  0  0
 26 27  1  0  0  0  0
M  END
>  <CHROM.1>
165.40498445,-76.89161896,81.69789228,-146.10624235,-87.14017775,81.82462643
27.86337818,37.03340706,19.30893637,-0.97089194,1.34485513,0.74770419

>  <Name>
ligand

>  <RI>
0

>  <Rbt.Current_Directory>
/home/itssahil/PROJECTS/Mol_Feturizer/New_Systems/rnas/3F4H

>  <Rbt.Executable>
rbdock ($Id: //depot/dev/client3/rdock/2013.1/src/exe/rbdock.cxx#4 $)

>  <Rbt.Library>
libRbt.so (2013.1, Build901 2013/11/27)

>  <Rbt.Parameter_File>
/export/apps/rDock/src/rDock_2013.1_src/data/scripts/dock_solv.prm

>  <Rbt.Receptor>
prm/pocket_docking_2.prm

>  <SCORE>
-30.5296

>  <SCORE.INTER>
-18.2164

>  <SCORE.INTER.CONST>
1

>  <SCORE.INTER.POLAR>
0

>  <SCORE.INTER.ROT>
6

>  <SCORE.INTER.SOLV>
8.79714

>  <SCORE.INTER.VDW>
-22.6766

>  <SCORE.INTER.norm>
-0.62815

>  <SCORE.INTRA>
-12.944

>  <SCORE.INTRA.DIHEDRAL>
1.59149

>  <SCORE.INTRA.DIHEDRAL.0>
6.83446

>  <SCORE.INTRA.POLAR>
0

>  <SCORE.INTRA.POLAR.0>
0

>  <SCORE.INTRA.REPUL>
0

>  <SCORE.INTRA.REPUL.0>
0

>  <SCORE.INTRA.SOLV>
0.252354

>  <SCORE.INTRA.SOLV.lig_0>
-26.4601

>  <SCORE.INTRA.VDW>
-13.8659

>  <SCORE.INTRA.VDW.0>
13.7853

>  <SCORE.INTRA.norm>
-0.446344

>  <SCORE.RESTR>
0.630733

>  <SCORE.RESTR.CAVITY>
0.630733

>  <SCORE.RESTR.norm>
0.0217494

>  <SCORE.SYSTEM>
0

>  <SCORE.SYSTEM.CONST>
0

>  <SCORE.SYSTEM.DIHEDRAL>
0

>  <SCORE.SYSTEM.SOLV>
0

>  <SCORE.SYSTEM.norm>
0

>  <SCORE.heavy>
29

>  <SCORE.norm>
-1.05275

>  <RMSD>
5.427

$$$$
ligand
 OpenBabel11021811473D
libRbt.so/2013.1/901 2013/11/27
 29 31  0  0  0  0  0  0  0  0999 V2000
   27.5181   42.5677   18.8832 C   0  0  0  0  0  0  0  0  0  0  0  0
   26.5600   43.5385   18.4490 O   0  0  0  0  0  0  0  0  0  0  0  0
   27.4541   42.4409   20.3991 C   0  0  1  0  0  0  0  0  0  0  0  0
   26.1234   42.0938   20.7691 O   0  0  0  0  0  0  0  0  0  0  0  0
   28.4328   41.3816   20.8895 C   0  0  1  0  0  0  0  0  0  0  0  0
   28.6654   41.6314   22.2708 O   0  0  0  0  0  0  0  0  0  0  0  0
   27.9745   39.9341   20.6881 C   0  0  1  0  0  0  0  0  0  0  0  0
   27.6269   39.7569   19.3143 O   0  0  0  0  0  0  0  0  0  0  0  0
   29.0428   38.9025   21.0447 C   0  0  0  0  0  0  0  0  0  0  0  0
   27.4384   37.6000   22.9684 N   0  0  0  0  0  0  0  0  0  0  0  0
   26.6617   37.0029   23.9162 C   0  0  0  0  0  0  0  0  0  0  0  0
   26.3809   37.6071   24.9813 O   0  0  0  0  0  0  0  0  0  0  0  0
   26.1871   35.7463   23.7222 N   0  0  0  0  0  0  0  0  0  0  0  0
   26.4737   35.0613   22.5866 C   0  0  0  0  0  0  0  0  0  0  0  0
   27.2636   35.6581   21.6106 C   0  0  1  0  0  0  0  0  0  0  0  0
   26.0340   33.8978   22.4125 O   0  0  0  0  0  0  0  0  0  0  0  0
   28.3152   35.5671   19.5270 C   0  0  1  0  0  0  0  0  0  0  0  0
   27.5503   34.9866   20.4743 N   0  0  0  0  0  0  0  0  0  0  0  0
   28.6059   34.8683   18.3606 C   0  0  0  0  0  0  0  0  0  0  0  0
   29.3894   35.4407   17.3646 C   0  0  2  0  0  0  0  0  0  0  0  0
   29.6663   34.6268   16.1267 C   0  0  0  0  0  0  0  0  0  0  0  0
   29.8927   36.7366   17.5358 C   0  0  2  0  0  0  0  0  0  0  0  0
   30.6691   37.3634   16.6012 N   0  0  0  0  0  0  0  0  0  0  0  0
   29.5926   37.4274   18.7162 C   0  0  0  0  0  0  0  0  0  0  0  0
   28.8083   36.8568   19.7182 C   0  0  2  0  0  0  0  0  0  0  0  0
   27.7520   36.9534   21.8085 C   0  0  2  0  0  0  0  0  0  0  0  0
   28.5277   37.5324   20.8561 N   0  0  0  0  0  0  0  0  0  0  0  0
   32.0797   37.0389   16.5036 C   0  0  0  0  0  0  0  0  0  0  0  0
   30.1394   38.3552   15.6801 C   0  0  0  0  0  0  0  0  0  0  0  0
  1  2  1  0  0  0  0
  3  1  1  6  0  0  0
  3  4  1  0  0  0  0
  3  5  1  0  0  0  0
  5  6  1  1  0  0  0
  5  7  1  0  0  0  0
  7  8  1  6  0  0  0
  7  9  1  0  0  0  0
  9 27  1  0  0  0  0
 10 11  1  0  0  0  0
 11 12  2  0  0  0  0
 11 13  1  0  0  0  0
 13 14  1  0  0  0  0
 14 16  2  0  0  0  0
 15 14  1  6  0  0  0
 15 18  1  0  0  0  0
 15 26  1  0  0  0  0
 17 19  1  6  0  0  0
 17 25  1  0  0  0  0
 17 18  1  0  0  0  0
 19 20  1  0  0  0  0
 20 21  1  1  0  0  0
 20 22  1  0  0  0  0
 22 23  1  1  0  0  0
 22 24  1  0  0  0  0
 23 28  1  0  0  0  0
 23 29  1  0  0  0  0
 25 24  1  1  0  0  0
 25 27  1  0  0  0  0
 26 10  1  1  0  0  0
 26 27  1  0  0  0  0
M  END
>  <CHROM.1>
57.06438212,160.14522549,53.31555855,178.78304741,-79.25979877,97.79262882
28.14353180,37.99035135,20.14713077,-2.61419551,-1.07731740,2.96526244

>  <Name>
ligand

>  <RI>
0

>  <Rbt.Current_Directory>
/home/itssahil/PROJECTS/Mol_Feturizer/New_Systems/rnas/3F4H

>  <Rbt.Executable>
rbdock ($Id: //depot/dev/client3/rdock/2013.1/src/exe/rbdock.cxx#4 $)

>  <Rbt.Library>
libRbt.so (2013.1, Build901 2013/11/27)

>  <Rbt.Parameter_File>
/export/apps/rDock/src/rDock_2013.1_src/data/scripts/dock_solv.prm

>  <Rbt.Receptor>
prm/pocket_docking_8.prm

>  <SCORE>
-42.3018

>  <SCORE.INTER>
-25.048

>  <SCORE.INTER.CONST>
1

>  <SCORE.INTER.POLAR>
0

>  <SCORE.INTER.ROT>
6

>  <SCORE.INTER.SOLV>
12.3763

>  <SCORE.INTER.VDW>
-28.4241

>  <SCORE.INTER.norm>
-0.863723

>  <SCORE.INTRA>
-17.2549

>  <SCORE.INTRA.DIHEDRAL>
-3.32068

>  <SCORE.INTRA.DIHEDRAL.0>
6.83446

>  <SCORE.INTRA.POLAR>
0

>  <SCORE.INTRA.POLAR.0>
0

>  <SCORE.INTRA.REPUL>
0

>  <SCORE.INTRA.REPUL.0>
0

>  <SCORE.INTRA.SOLV>
-0.0969682

>  <SCORE.INTRA.SOLV.lig_0>
-26.4601

>  <SCORE.INTRA.VDW>
-15.5461

>  <SCORE.INTRA.VDW.0>
13.7853

>  <SCORE.INTRA.norm>
-0.594996

>  <SCORE.RESTR>
0.00101772

>  <SCORE.RESTR.CAVITY>
0.00101772

>  <SCORE.RESTR.norm>
3.50939e-05

>  <SCORE.SYSTEM>
0

>  <SCORE.SYSTEM.CONST>
0

>  <SCORE.SYSTEM.DIHEDRAL>
0

>  <SCORE.SYSTEM.SOLV>
0

>  <SCORE.SYSTEM.norm>
0

>  <SCORE.heavy>
29

>  <SCORE.norm>
-1.45868

>  <RMSD>
5.438

$$$$
ligand
 OpenBabel11021811473D
libRbt.so/2013.1/901 2013/11/27
 29 31  0  0  0  0  0  0  0  0999 V2000
   28.0752   42.7320   17.9853 C   0  0  0  0  0  0  0  0  0  0  0  0
   28.9230   42.5409   16.8478 O   0  0  0  0  0  0  0  0  0  0  0  0
   28.1148   41.4846   18.8574 C   0  0  1  0  0  0  0  0  0  0  0  0
   27.4289   41.7607   20.0746 O   0  0  0  0  0  0  0  0  0  0  0  0
   27.4653   40.3085   18.1394 C   0  0  1  0  0  0  0  0  0  0  0  0
   28.2988   39.9784   17.0343 O   0  0  0  0  0  0  0  0  0  0  0  0
   27.2307   39.0692   19.0081 C   0  0  1  0  0  0  0  0  0  0  0  0
   26.6269   38.0584   18.1999 O   0  0  0  0  0  0  0  0  0  0  0  0
   28.5127   38.4952   19.6079 C   0  0  0  0  0  0  0  0  0  0  0  0
   28.2820   39.2306   22.3240 N   0  0  0  0  0  0  0  0  0  0  0  0
   28.1730   39.6213   23.6253 C   0  0  0  0  0  0  0  0  0  0  0  0
   28.3530   40.8227   23.9458 O   0  0  0  0  0  0  0  0  0  0  0  0
   27.8738   38.7156   24.5908 N   0  0  0  0  0  0  0  0  0  0  0  0
   27.6774   37.4088   24.2828 C   0  0  0  0  0  0  0  0  0  0  0  0
   27.7841   36.9961   22.9596 C   0  0  1  0  0  0  0  0  0  0  0  0
   27.4029   36.5739   25.1800 O   0  0  0  0  0  0  0  0  0  0  0  0
   27.6871   35.2991   21.3576 C   0  0  1  0  0  0  0  0  0  0  0  0
   27.5853   35.6984   22.6419 N   0  0  0  0  0  0  0  0  0  0  0  0
   27.4815   33.9612   21.0396 C   0  0  0  0  0  0  0  0  0  0  0  0
   27.5769   33.5194   19.7246 C   0  0  2  0  0  0  0  0  0  0  0  0
   27.3432   32.0559   19.4511 C   0  0  0  0  0  0  0  0  0  0  0  0
   27.8833   34.4311   18.7063 C   0  0  2  0  0  0  0  0  0  0  0  0
   27.9937   34.0702   17.3923 N   0  0  0  0  0  0  0  0  0  0  0  0
   28.0889   35.7748   19.0420 C   0  0  0  0  0  0  0  0  0  0  0  0
   27.9955   36.2220   20.3595 C   0  0  2  0  0  0  0  0  0  0  0  0
   28.0908   37.9285   21.9636 C   0  0  2  0  0  0  0  0  0  0  0  0
   28.1996   37.5222   20.6725 N   0  0  0  0  0  0  0  0  0  0  0  0
   29.2879   34.1209   16.7390 C   0  0  0  0  0  0  0  0  0  0  0  0
   26.8564   33.6259   16.6035 C   0  0  0  0  0  0  0  0  0  0  0  0
  1  2  1  0  0  0  0
  3  1  1  6  0  0  0
  3  4  1  0  0  0  0
  3  5  1  0  0  0  0
  5  6  1  6  0  0  0
  5  7  1  0  0  0  0
  7  8  1  6  0  0  0
  7  9  1  0  0  0  0
  9 27  1  0  0  0  0
 10 11  1  0  0  0  0
 11 12  2  0  0  0  0
 11 13  1  0  0  0  0
 13 14  1  0  0  0  0
 14 16  2  0  0  0  0
 15 14  1  6  0  0  0
 15 18  1  0  0  0  0
 15 26  1  0  0  0  0
 17 19  1  6  0  0  0
 17 25  1  0  0  0  0
 17 18  1  0  0  0  0
 19 20  1  0  0  0  0
 20 21  1  1  0  0  0
 20 22  1  0  0  0  0
 22 23  1  1  0  0  0
 22 24  1  0  0  0  0
 23 28  1  0  0  0  0
 23 29  1  0  0  0  0
 25 24  1  1  0  0  0
 25 27  1  0  0  0  0
 26 10  1  1  0  0  0
 26 27  1  0  0  0  0
M  END
>  <CHROM.1>
171.57306059,67.42394710,-179.72187763,166.51351791,-112.20702992,87.71399301
27.87428923,37.60836083,20.22600012,-0.55974566,-1.51033395,-1.99773084

>  <Name>
ligand

>  <RI>
0

>  <Rbt.Current_Directory>
/home/itssahil/PROJECTS/Mol_Feturizer/New_Systems/rnas/3F4H

>  <Rbt.Executable>
rbdock ($Id: //depot/dev/client3/rdock/2013.1/src/exe/rbdock.cxx#4 $)

>  <Rbt.Library>
libRbt.so (2013.1, Build901 2013/11/27)

>  <Rbt.Parameter_File>
/export/apps/rDock/src/rDock_2013.1_src/data/scripts/dock_solv.prm

>  <Rbt.Receptor>
prm/pocket_docking_5.prm

>  <SCORE>
-40.6688

>  <SCORE.INTER>
-23.6261

>  <SCORE.INTER.CONST>
1

>  <SCORE.INTER.POLAR>
0

>  <SCORE.INTER.ROT>
6

>  <SCORE.INTER.SOLV>
8.96407

>  <SCORE.INTER.VDW>
-26.3388

>  <SCORE.INTER.norm>
-0.814693

>  <SCORE.INTRA>
-17.0427

>  <SCORE.INTRA.DIHEDRAL>
-3.75554

>  <SCORE.INTRA.DIHEDRAL.0>
6.83446

>  <SCORE.INTRA.POLAR>
0

>  <SCORE.INTRA.POLAR.0>
0

>  <SCORE.INTRA.REPUL>
0

>  <SCORE.INTRA.REPUL.0>
0

>  <SCORE.INTRA.SOLV>
-0.0858086

>  <SCORE.INTRA.SOLV.lig_0>
-26.4601

>  <SCORE.INTRA.VDW>
-15.122

>  <SCORE.INTRA.VDW.0>
13.7853

>  <SCORE.INTRA.norm>
-0.587679

>  <SCORE.RESTR>
0

>  <SCORE.RESTR.CAVITY>
0

>  <SCORE.RESTR.norm>
0

>  <SCORE.SYSTEM>
0

>  <SCORE.SYSTEM.CONST>
0

>  <SCORE.SYSTEM.DIHEDRAL>
0

>  <SCORE.SYSTEM.SOLV>
0

>  <SCORE.SYSTEM.norm>
0

>  <SCORE.heavy>
29

>  <SCORE.norm>
-1.40237

>  <RMSD>
5.452

$$$$
ligand
 OpenBabel11021811473D
libRbt.so/2013.1/901 2013/11/27
 29 31  0  0  0  0  0  0  0  0999 V2000
   28.0047   42.7798   18.0654 C   0  0  0  0  0  0  0  0  0  0  0  0
   28.8010   42.6235   16.8862 O   0  0  0  0  0  0  0  0  0  0  0  0
   28.0751   41.5037   18.8928 C   0  0  1  0  0  0  0  0  0  0  0  0
   27.4040   41.7274   20.1289 O   0  0  0  0  0  0  0  0  0  0  0  0
   27.4315   40.3438   18.1439 C   0  0  1  0  0  0  0  0  0  0  0  0
   28.2633   40.0512   17.0271 O   0  0  0  0  0  0  0  0  0  0  0  0
   27.2088   39.0787   18.9778 C   0  0  1  0  0  0  0  0  0  0  0  0
   26.5978   38.0911   18.1467 O   0  0  0  0  0  0  0  0  0  0  0  0
   28.4984   38.4898   19.5461 C   0  0  0  0  0  0  0  0  0  0  0  0
   28.2969   39.2511   22.2573 N   0  0  0  0  0  0  0  0  0  0  0  0
   28.2017   39.6543   23.5560 C   0  0  0  0  0  0  0  0  0  0  0  0
   28.3818   40.8593   23.8626 O   0  0  0  0  0  0  0  0  0  0  0  0
   27.9166   38.7571   24.5336 N   0  0  0  0  0  0  0  0  0  0  0  0
   27.7207   37.4469   24.2408 C   0  0  0  0  0  0  0  0  0  0  0  0
   27.8133   37.0215   22.9205 C   0  0  1  0  0  0  0  0  0  0  0  0
   27.4591   36.6200   25.1492 O   0  0  0  0  0  0  0  0  0  0  0  0
   27.7030   35.3086   21.3364 C   0  0  1  0  0  0  0  0  0  0  0  0
   27.6149   35.7201   22.6179 N   0  0  0  0  0  0  0  0  0  0  0  0
   27.4978   33.9670   21.0339 C   0  0  0  0  0  0  0  0  0  0  0  0
   27.5794   33.5126   19.7223 C   0  0  2  0  0  0  0  0  0  0  0  0
   27.3470   32.0458   19.4658 C   0  0  0  0  0  0  0  0  0  0  0  0
   27.8711   34.4152   18.6916 C   0  0  2  0  0  0  0  0  0  0  0  0
   27.9674   34.0418   17.3800 N   0  0  0  0  0  0  0  0  0  0  0  0
   28.0765   35.7627   19.0117 C   0  0  0  0  0  0  0  0  0  0  0  0
   27.9970   36.2226   20.3258 C   0  0  2  0  0  0  0  0  0  0  0  0
   28.1055   37.9450   21.9120 C   0  0  2  0  0  0  0  0  0  0  0  0
   28.2007   37.5263   20.6237 N   0  0  0  0  0  0  0  0  0  0  0  0
   29.2585   34.0643   16.7189 C   0  0  0  0  0  0  0  0  0  0  0  0
   26.8179   33.6112   16.6015 C   0  0  0  0  0  0  0  0  0  0  0  0
  1  2  1  0  0  0  0
  3  1  1  6  0  0  0
  3  4  1  0  0  0  0
  3  5  1  0  0  0  0
  5  6  1  6  0  0  0
  5  7  1  0  0  0  0
  7  8  1  6  0  0  0
  7  9  1  0  0  0  0
  9 27  1  0  0  0  0
 10 11  1  0  0  0  0
 11 12  2  0  0  0  0
 11 13  1  0  0  0  0
 13 14  1  0  0  0  0
 14 16  2  0  0  0  0
 15 14  1  6  0  0  0
 15 18  1  0  0  0  0
 15 26  1  0  0  0  0
 17 19  1  6  0  0  0
 17 25  1  0  0  0  0
 17 18  1  0  0  0  0
 19 20  1  0  0  0  0
 20 21  1  1  0  0  0
 20 22  1  0  0  0  0
 22 23  1  1  0  0  0
 22 24  1  0  0  0  0
 23 28  1  0  0  0  0
 23 29  1  0  0  0  0
 25 24  1  1  0  0  0
 25 27  1  0  0  0  0
 26 10  1  1  0  0  0
 26 27  1  0  0  0  0
M  END
>  <CHROM.1>
173.55383616,68.28461661,179.74237984,164.14764463,-110.97590357,89.04444124
27.86672016,37.62334253,20.20669688,-0.38345259,-1.52003409,-1.81446536

>  <Name>
ligand

>  <RI>
0

>  <Rbt.Current_Directory>
/home/itssahil/PROJECTS/Mol_Feturizer/New_Systems/rnas/3F4H

>  <Rbt.Executable>
rbdock ($Id: //depot/dev/client3/rdock/2013.1/src/exe/rbdock.cxx#4 $)

>  <Rbt.Library>
libRbt.so (2013.1, Build901 2013/11/27)

>  <Rbt.Parameter_File>
/export/apps/rDock/src/rDock_2013.1_src/data/scripts/dock_solv.prm

>  <Rbt.Receptor>
prm/pocket_docking_6.prm

>  <SCORE>
-40.6964

>  <SCORE.INTER>
-23.6147

>  <SCORE.INTER.CONST>
1

>  <SCORE.INTER.POLAR>
0

>  <SCORE.INTER.ROT>
6

>  <SCORE.INTER.SOLV>
8.878

>  <SCORE.INTER.VDW>
-26.3024

>  <SCORE.INTER.norm>
-0.814299

>  <SCORE.INTRA>
-17.0817

>  <SCORE.INTRA.DIHEDRAL>
-3.58396

>  <SCORE.INTRA.DIHEDRAL.0>
6.83446

>  <SCORE.INTRA.POLAR>
0

>  <SCORE.INTRA.POLAR.0>
0

>  <SCORE.INTRA.REPUL>
0

>  <SCORE.INTRA.REPUL.0>
0

>  <SCORE.INTRA.SOLV>
-0.0549083

>  <SCORE.INTRA.SOLV.lig_0>
-26.4601

>  <SCORE.INTRA.VDW>
-15.2623

>  <SCORE.INTRA.VDW.0>
13.7853

>  <SCORE.INTRA.norm>
-0.589026

>  <SCORE.RESTR>
0

>  <SCORE.RESTR.CAVITY>
0

>  <SCORE.RESTR.norm>
0

>  <SCORE.SYSTEM>
0

>  <SCORE.SYSTEM.CONST>
0

>  <SCORE.SYSTEM.DIHEDRAL>
0

>  <SCORE.SYSTEM.SOLV>
0

>  <SCORE.SYSTEM.norm>
0

>  <SCORE.heavy>
29

>  <SCORE.norm>
-1.40332

>  <RMSD>
5.455

$$$$
ligand
 OpenBabel11021811473D
libRbt.so/2013.1/901 2013/11/27
 29 31  0  0  0  0  0  0  0  0999 V2000
   28.1153   42.6903   17.9023 C   0  0  0  0  0  0  0  0  0  0  0  0
   26.7673   43.0803   17.6200 O   0  0  0  0  0  0  0  0  0  0  0  0
   28.1058   41.4388   18.7694 C   0  0  1  0  0  0  0  0  0  0  0  0
   27.4106   41.7300   19.9778 O   0  0  0  0  0  0  0  0  0  0  0  0
   27.4329   40.2851   18.0369 C   0  0  1  0  0  0  0  0  0  0  0  0
   28.2330   39.9858   16.8990 O   0  0  0  0  0  0  0  0  0  0  0  0
   27.2205   39.0216   18.8759 C   0  0  1  0  0  0  0  0  0  0  0  0
   26.5731   38.0423   18.0626 O   0  0  0  0  0  0  0  0  0  0  0  0
   28.5197   38.4167   19.4043 C   0  0  0  0  0  0  0  0  0  0  0  0
   28.3777   39.1888   22.1163 N   0  0  0  0  0  0  0  0  0  0  0  0
   28.3112   39.5972   23.4151 C   0  0  0  0  0  0  0  0  0  0  0  0
   28.4998   40.8030   23.7130 O   0  0  0  0  0  0  0  0  0  0  0  0
   28.0456   38.7043   24.4021 N   0  0  0  0  0  0  0  0  0  0  0  0
   27.8412   37.3933   24.1187 C   0  0  0  0  0  0  0  0  0  0  0  0
   27.9047   36.9627   22.7983 C   0  0  1  0  0  0  0  0  0  0  0  0
   27.5978   36.5704   25.0357 O   0  0  0  0  0  0  0  0  0  0  0  0
   27.7576   35.2439   21.2237 C   0  0  1  0  0  0  0  0  0  0  0  0
   27.6976   35.6605   22.5051 N   0  0  0  0  0  0  0  0  0  0  0  0
   27.5437   33.9015   20.9309 C   0  0  0  0  0  0  0  0  0  0  0  0
   27.5963   33.4419   19.6196 C   0  0  2  0  0  0  0  0  0  0  0  0
   27.3560   31.9745   19.3740 C   0  0  0  0  0  0  0  0  0  0  0  0
   27.8673   34.3399   18.5794 C   0  0  2  0  0  0  0  0  0  0  0  0
   27.9348   33.9612   17.2675 N   0  0  0  0  0  0  0  0  0  0  0  0
   28.0818   35.6883   18.8898 C   0  0  0  0  0  0  0  0  0  0  0  0
   28.0313   36.1534   20.2035 C   0  0  2  0  0  0  0  0  0  0  0  0
   28.1768   37.8817   21.7802 C   0  0  2  0  0  0  0  0  0  0  0  0
   28.2435   37.4579   20.4919 N   0  0  0  0  0  0  0  0  0  0  0  0
   29.2286   33.7892   16.6344 C   0  0  0  0  0  0  0  0  0  0  0  0
   26.7507   33.7140   16.4614 C   0  0  0  0  0  0  0  0  0  0  0  0
  1  2  1  0  0  0  0
  3  1  1  6  0  0  0
  3  4  1  0  0  0  0
  3  5  1  0  0  0  0
  5  6  1  6  0  0  0
  5  7  1  0  0  0  0
  7  8  1  6  0  0  0
  7  9  1  0  0  0  0
  9 27  1  0  0  0  0
 10 11  1  0  0  0  0
 11 12  2  0  0  0  0
 11 13  1  0  0  0  0
 13 14  1  0  0  0  0
 14 16  2  0  0  0  0
 15 14  1  6  0  0  0
 15 18  1  0  0  0  0
 15 26  1  0  0  0  0
 17 19  1  6  0  0  0
 17 25  1  0  0  0  0
 17 18  1  0  0  0  0
 19 20  1  0  0  0  0
 20 21  1  1  0  0  0
 20 22  1  0  0  0  0
 22 23  1  1  0  0  0
 22 24  1  0  0  0  0
 23 28  1  0  0  0  0
 23 29  1  0  0  0  0
 25 24  1  1  0  0  0
 25 27  1  0  0  0  0
 26 10  1  1  0  0  0
 26 27  1  0  0  0  0
M  END
>  <CHROM.1>
-59.56716377,64.15900690,179.43028274,164.00056214,-101.93856879,89.90513154
27.82324842,37.58107326,20.11939765,1.44165935,-1.52053073,0.02473360

>  <Name>
ligand

>  <RI>
0

>  <Rbt.Current_Directory>
/home/itssahil/PROJECTS/Mol_Feturizer/New_Systems/rnas/3F4H

>  <Rbt.Executable>
rbdock ($Id: //depot/dev/client3/rdock/2013.1/src/exe/rbdock.cxx#4 $)

>  <Rbt.Library>
libRbt.so (2013.1, Build901 2013/11/27)

>  <Rbt.Parameter_File>
/export/apps/rDock/src/rDock_2013.1_src/data/scripts/dock_solv.prm

>  <Rbt.Receptor>
prm/pocket_docking_3.prm

>  <SCORE>
-40.6347

>  <SCORE.INTER>
-22.9009

>  <SCORE.INTER.CONST>
1

>  <SCORE.INTER.POLAR>
0

>  <SCORE.INTER.ROT>
6

>  <SCORE.INTER.SOLV>
8.10323

>  <SCORE.INTER.VDW>
-25.5683

>  <SCORE.INTER.norm>
-0.789686

>  <SCORE.INTRA>
-17.7338

>  <SCORE.INTRA.DIHEDRAL>
-3.90479

>  <SCORE.INTRA.DIHEDRAL.0>
6.83446

>  <SCORE.INTRA.POLAR>
0

>  <SCORE.INTRA.POLAR.0>
0

>  <SCORE.INTRA.REPUL>
0.00134628

>  <SCORE.INTRA.REPUL.0>
0

>  <SCORE.INTRA.SOLV>
-0.0516036

>  <SCORE.INTRA.SOLV.lig_0>
-26.4601

>  <SCORE.INTRA.VDW>
-15.7623

>  <SCORE.INTRA.VDW.0>
13.7853

>  <SCORE.INTRA.norm>
-0.61151

>  <SCORE.RESTR>
0

>  <SCORE.RESTR.CAVITY>
0

>  <SCORE.RESTR.norm>
0

>  <SCORE.SYSTEM>
0

>  <SCORE.SYSTEM.CONST>
0

>  <SCORE.SYSTEM.DIHEDRAL>
0

>  <SCORE.SYSTEM.SOLV>
0

>  <SCORE.SYSTEM.norm>
0

>  <SCORE.heavy>
29

>  <SCORE.norm>
-1.4012

>  <RMSD>
5.463

$$$$
ligand
 OpenBabel11021811473D
libRbt.so/2013.1/901 2013/11/27
 29 31  0  0  0  0  0  0  0  0999 V2000
   29.9994   40.5763   16.0229 C   0  0  0  0  0  0  0  0  0  0  0  0
   29.2310   41.6767   15.5253 O   0  0  0  0  0  0  0  0  0  0  0  0
   29.1058   39.6812   16.8704 C   0  0  1  0  0  0  0  0  0  0  0  0
   29.8292   38.4992   17.1989 O   0  0  0  0  0  0  0  0  0  0  0  0
   28.6712   40.4049   18.1384 C   0  0  1  0  0  0  0  0  0  0  0  0
   27.7901   41.4505   17.7446 O   0  0  0  0  0  0  0  0  0  0  0  0
   27.9972   39.5193   19.1905 C   0  0  1  0  0  0  0  0  0  0  0  0
   27.0393   38.6874   18.5348 O   0  0  0  0  0  0  0  0  0  0  0  0
   28.9738   38.6175   19.9427 C   0  0  0  0  0  0  0  0  0  0  0  0
   28.3059   39.0580   22.6503 N   0  0  0  0  0  0  0  0  0  0  0  0
   27.9950   39.3057   23.9542 C   0  0  0  0  0  0  0  0  0  0  0  0
   28.3387   40.3861   24.4956 O   0  0  0  0  0  0  0  0  0  0  0  0
   27.3152   38.3854   24.6841 N   0  0  0  0  0  0  0  0  0  0  0  0
   26.9320   37.2056   24.1344 C   0  0  0  0  0  0  0  0  0  0  0  0
   27.2410   36.9398   22.8053 C   0  0  1  0  0  0  0  0  0  0  0  0
   26.3049   36.3561   24.8145 O   0  0  0  0  0  0  0  0  0  0  0  0
   27.1580   35.5141   20.9571 C   0  0  1  0  0  0  0  0  0  0  0  0
   26.8595   35.7704   22.2472 N   0  0  0  0  0  0  0  0  0  0  0  0
   26.7619   34.3074   20.3908 C   0  0  0  0  0  0  0  0  0  0  0  0
   27.0525   34.0152   19.0628 C   0  0  2  0  0  0  0  0  0  0  0  0
   26.5945   32.6885   18.5137 C   0  0  0  0  0  0  0  0  0  0  0  0
   27.7520   34.9458   18.2840 C   0  0  2  0  0  0  0  0  0  0  0  0
   28.0730   34.7281   16.9730 N   0  0  0  0  0  0  0  0  0  0  0  0
   28.1454   36.1559   18.8683 C   0  0  0  0  0  0  0  0  0  0  0  0
   27.8573   36.4527   20.2001 C   0  0  2  0  0  0  0  0  0  0  0  0
   27.9401   37.8877   22.0516 C   0  0  2  0  0  0  0  0  0  0  0  0
   28.2454   37.6237   20.7551 N   0  0  0  0  0  0  0  0  0  0  0  0
   29.0273   33.6911   16.6290 C   0  0  0  0  0  0  0  0  0  0  0  0
   27.4906   35.4971   15.8856 C   0  0  0  0  0  0  0  0  0  0  0  0
  1  2  1  0  0  0  0
  3  1  1  6  0  0  0
  3  4  1  0  0  0  0
  3  5  1  0  0  0  0
  5  6  1  6  0  0  0
  5  7  1  0  0  0  0
  7  8  1  6  0  0  0
  7  9  1  0  0  0  0
  9 27  1  0  0  0  0
 10 11  1  0  0  0  0
 11 12  2  0  0  0  0
 11 13  1  0  0  0  0
 13 14  1  0  0  0  0
 14 16  2  0  0  0  0
 15 14  1  6  0  0  0
 15 18  1  0  0  0  0
 15 26  1  0  0  0  0
 17 19  1  6  0  0  0
 17 25  1  0  0  0  0
 17 18  1  0  0  0  0
 19 20  1  0  0  0  0
 20 21  1  1  0  0  0
 20 22  1  0  0  0  0
 22 23  1  1  0  0  0
 22 24  1  0  0  0  0
 23 28  1  0  0  0  0
 23 29  1  0  0  0  0
 25 24  1  1  0  0  0
 25 27  1  0  0  0  0
 26 10  1  1  0  0  0
 26 27  1  0  0  0  0
M  END
>  <CHROM.1>
171.84530277,68.59533177,-45.60584731,-169.60423420,-67.00753466,86.43382136
27.95262097,37.52520300,19.84191678,-0.76912013,1.29646725,0.88975491

>  <Name>
ligand

>  <RI>
0

>  <Rbt.Current_Directory>
/home/itssahil/PROJECTS/Mol_Feturizer/New_Systems/rnas/3F4H

>  <Rbt.Executable>
rbdock ($Id: //depot/dev/client3/rdock/2013.1/src/exe/rbdock.cxx#4 $)

>  <Rbt.Library>
libRbt.so (2013.1, Build901 2013/11/27)

>  <Rbt.Parameter_File>
/export/apps/rDock/src/rDock_2013.1_src/data/scripts/dock_solv.prm

>  <Rbt.Receptor>
prm/pocket_docking_2.prm

>  <SCORE>
-37.5611

>  <SCORE.INTER>
-21.7236

>  <SCORE.INTER.CONST>
1

>  <SCORE.INTER.POLAR>
0

>  <SCORE.INTER.ROT>
6

>  <SCORE.INTER.SOLV>
9.14723

>  <SCORE.INTER.VDW>
-25.1315

>  <SCORE.INTER.norm>
-0.749091

>  <SCORE.INTRA>
-16.3319

>  <SCORE.INTRA.DIHEDRAL>
-3.23512

>  <SCORE.INTRA.DIHEDRAL.0>
6.83446

>  <SCORE.INTRA.POLAR>
0

>  <SCORE.INTRA.POLAR.0>
0

>  <SCORE.INTRA.REPUL>
0.00309495

>  <SCORE.INTRA.REPUL.0>
0

>  <SCORE.INTRA.SOLV>
0.538586

>  <SCORE.INTRA.SOLV.lig_0>
-26.4601

>  <SCORE.INTRA.VDW>
-14.9991

>  <SCORE.INTRA.VDW.0>
13.7853

>  <SCORE.INTRA.norm>
-0.56317

>  <SCORE.RESTR>
0.494461

>  <SCORE.RESTR.CAVITY>
0.494461

>  <SCORE.RESTR.norm>
0.0170504

>  <SCORE.SYSTEM>
0

>  <SCORE.SYSTEM.CONST>
0

>  <SCORE.SYSTEM.DIHEDRAL>
0

>  <SCORE.SYSTEM.SOLV>
0

>  <SCORE.SYSTEM.norm>
0

>  <SCORE.heavy>
29

>  <SCORE.norm>
-1.29521

>  <RMSD>
5.465

$$$$
ligand
 OpenBabel11021811473D
libRbt.so/2013.1/901 2013/11/27
 29 31  0  0  0  0  0  0  0  0999 V2000
   28.1302   42.4412   17.5847 C   0  0  0  0  0  0  0  0  0  0  0  0
   27.3932   43.6590   17.4341 O   0  0  0  0  0  0  0  0  0  0  0  0
   27.6887   41.4506   16.5161 C   0  0  1  0  0  0  0  0  0  0  0  0
   27.9599   42.0136   15.2363 O   0  0  0  0  0  0  0  0  0  0  0  0
   28.4234   40.1260   16.6776 C   0  0  1  0  0  0  0  0  0  0  0  0
   29.8164   40.4058   16.6004 O   0  0  0  0  0  0  0  0  0  0  0  0
   28.1119   39.3665   17.9705 C   0  0  1  0  0  0  0  0  0  0  0  0
   26.7487   38.9425   17.9286 O   0  0  0  0  0  0  0  0  0  0  0  0
   28.9872   38.1320   18.1769 C   0  0  0  0  0  0  0  0  0  0  0  0
   28.9062   39.4475   20.6737 N   0  0  0  0  0  0  0  0  0  0  0  0
   28.8722   40.1150   21.8617 C   0  0  0  0  0  0  0  0  0  0  0  0
   29.1642   41.3359   21.9138 O   0  0  0  0  0  0  0  0  0  0  0  0
   28.5276   39.4668   23.0032 N   0  0  0  0  0  0  0  0  0  0  0  0
   28.2107   38.1476   22.9863 C   0  0  0  0  0  0  0  0  0  0  0  0
   28.2398   37.4542   21.7816 C   0  0  1  0  0  0  0  0  0  0  0  0
   27.8945   37.5514   24.0455 O   0  0  0  0  0  0  0  0  0  0  0  0
   27.9477   35.4704   20.5838 C   0  0  1  0  0  0  0  0  0  0  0  0
   27.9211   36.1419   21.7533 N   0  0  0  0  0  0  0  0  0  0  0  0
   27.6187   34.1195   20.5639 C   0  0  0  0  0  0  0  0  0  0  0  0
   27.6344   33.4007   19.3737 C   0  0  2  0  0  0  0  0  0  0  0  0
   27.2681   31.9397   19.4247 C   0  0  0  0  0  0  0  0  0  0  0  0
   27.9850   34.0428   18.1793 C   0  0  2  0  0  0  0  0  0  0  0  0
   28.0226   33.4015   16.9725 N   0  0  0  0  0  0  0  0  0  0  0  0
   28.3152   35.4030   18.2152 C   0  0  0  0  0  0  0  0  0  0  0  0
   28.3020   36.1276   19.4067 C   0  0  2  0  0  0  0  0  0  0  0  0
   28.5933   38.1212   20.6045 C   0  0  2  0  0  0  0  0  0  0  0  0
   28.6261   37.4407   19.4299 N   0  0  0  0  0  0  0  0  0  0  0  0
   29.2948   32.9636   16.4301 C   0  0  0  0  0  0  0  0  0  0  0  0
   26.8266   33.1282   16.1929 C   0  0  0  0  0  0  0  0  0  0  0  0
  1  2  1  0  0  0  0
  3  1  1  1  0  0  0
  3  4  1  0  0  0  0
  3  5  1  0  0  0  0
  5  6  1  1  0  0  0
  5  7  1  0  0  0  0
  7  8  1  6  0  0  0
  7  9  1  0  0  0  0
  9 27  1  0  0  0  0
 10 11  1  0  0  0  0
 11 12  2  0  0  0  0
 11 13  1  0  0  0  0
 13 14  1  0  0  0  0
 14 16  2  0  0  0  0
 15 14  1  6  0  0  0
 15 18  1  0  0  0  0
 15 26  1  0  0  0  0
 17 19  1  6  0  0  0
 17 25  1  0  0  0  0
 17 18  1  0  0  0  0
 19 20  1  0  0  0  0
 20 21  1  1  0  0  0
 20 22  1  0  0  0  0
 22 23  1  1  0  0  0
 22 24  1  0  0  0  0
 23 28  1  0  0  0  0
 23 29  1  0  0  0  0
 25 24  1  1  0  0  0
 25 27  1  0  0  0  0
 26 10  1  1  0  0  0
 26 27  1  0  0  0  0
M  END
>  <CHROM.1>
60.69494820,-57.72847695,66.76431618,-179.38986788,-100.28182759,125.32213422
28.18514903,37.74938528,19.15875282,0.71987034,-1.50209087,-0.91661446

>  <Name>
ligand

>  <RI>
0

>  <Rbt.Current_Directory>
/home/itssahil/PROJECTS/Mol_Feturizer/New_Systems/rnas/3F4H

>  <Rbt.Executable>
rbdock ($Id: //depot/dev/client3/rdock/2013.1/src/exe/rbdock.cxx#4 $)

>  <Rbt.Library>
libRbt.so (2013.1, Build901 2013/11/27)

>  <Rbt.Parameter_File>
/export/apps/rDock/src/rDock_2013.1_src/data/scripts/dock_solv.prm

>  <Rbt.Receptor>
prm/pocket_docking_5.prm

>  <SCORE>
-37.5287

>  <SCORE.INTER>
-20.1055

>  <SCORE.INTER.CONST>
1

>  <SCORE.INTER.POLAR>
0

>  <SCORE.INTER.ROT>
6

>  <SCORE.INTER.SOLV>
9.67366

>  <SCORE.INTER.VDW>
-24.2282

>  <SCORE.INTER.norm>
-0.693293

>  <SCORE.INTRA>
-17.4232

>  <SCORE.INTRA.DIHEDRAL>
-4.61192

>  <SCORE.INTRA.DIHEDRAL.0>
6.83446

>  <SCORE.INTRA.POLAR>
0

>  <SCORE.INTRA.POLAR.0>
0

>  <SCORE.INTRA.REPUL>
0

>  <SCORE.INTRA.REPUL.0>
0

>  <SCORE.INTRA.SOLV>
-0.550224

>  <SCORE.INTRA.SOLV.lig_0>
-26.4601

>  <SCORE.INTRA.VDW>
-14.8421

>  <SCORE.INTRA.VDW.0>
13.7853

>  <SCORE.INTRA.norm>
-0.600801

>  <SCORE.RESTR>
0

>  <SCORE.RESTR.CAVITY>
0

>  <SCORE.RESTR.norm>
0

>  <SCORE.SYSTEM>
0

>  <SCORE.SYSTEM.CONST>
0

>  <SCORE.SYSTEM.DIHEDRAL>
0

>  <SCORE.SYSTEM.SOLV>
0

>  <SCORE.SYSTEM.norm>
0

>  <SCORE.heavy>
29

>  <SCORE.norm>
-1.29409

>  <RMSD>
5.467

$$$$
ligand
 OpenBabel11021811473D
libRbt.so/2013.1/901 2013/11/27
 29 31  0  0  0  0  0  0  0  0999 V2000
   26.1153   41.2170   18.7815 C   0  0  0  0  0  0  0  0  0  0  0  0
   26.3504   42.5568   19.2271 O   0  0  0  0  0  0  0  0  0  0  0  0
   27.1198   40.8654   17.6927 C   0  0  1  0  0  0  0  0  0  0  0  0
   28.4287   40.9095   18.2524 O   0  0  0  0  0  0  0  0  0  0  0  0
   26.8330   39.4805   17.1267 C   0  0  1  0  0  0  0  0  0  0  0  0
   27.7980   39.2335   16.1107 O   0  0  0  0  0  0  0  0  0  0  0  0
   26.8507   38.3449   18.1542 C   0  0  1  0  0  0  0  0  0  0  0  0
   26.4387   37.1414   17.5050 O   0  0  0  0  0  0  0  0  0  0  0  0
   28.2268   38.1045   18.7717 C   0  0  0  0  0  0  0  0  0  0  0  0
   28.3141   39.4474   21.2537 N   0  0  0  0  0  0  0  0  0  0  0  0
   28.3555   40.1281   22.4339 C   0  0  0  0  0  0  0  0  0  0  0  0
   28.5161   41.3741   22.4440 O   0  0  0  0  0  0  0  0  0  0  0  0
   28.2291   39.4666   23.6122 N   0  0  0  0  0  0  0  0  0  0  0  0
   28.0591   38.1208   23.6404 C   0  0  0  0  0  0  0  0  0  0  0  0
   28.0136   37.4135   22.4444 C   0  0  1  0  0  0  0  0  0  0  0  0
   27.9447   37.5126   24.7333 O   0  0  0  0  0  0  0  0  0  0  0  0
   27.7936   35.3889   21.3006 C   0  0  1  0  0  0  0  0  0  0  0  0
   27.8396   36.0741   22.4615 N   0  0  0  0  0  0  0  0  0  0  0  0
   27.6147   34.0102   21.3276 C   0  0  0  0  0  0  0  0  0  0  0  0
   27.5606   33.2764   20.1477 C   0  0  2  0  0  0  0  0  0  0  0  0
   27.3658   31.7854   20.2500 C   0  0  0  0  0  0  0  0  0  0  0  0
   27.6870   33.9315   18.9161 C   0  0  2  0  0  0  0  0  0  0  0  0
   27.6438   33.2769   17.7166 N   0  0  0  0  0  0  0  0  0  0  0  0
   27.8679   35.3199   18.9049 C   0  0  0  0  0  0  0  0  0  0  0  0
   27.9241   36.0597   20.0857 C   0  0  2  0  0  0  0  0  0  0  0  0
   28.1422   38.0940   21.2296 C   0  0  2  0  0  0  0  0  0  0  0  0
   28.1027   37.4004   20.0628 N   0  0  0  0  0  0  0  0  0  0  0  0
   28.8799   32.9440   17.0342 C   0  0  0  0  0  0  0  0  0  0  0  0
   26.3960   32.8871   17.0812 C   0  0  0  0  0  0  0  0  0  0  0  0
  1  2  1  0  0  0  0
  3  1  1  1  0  0  0
  3  4  1  0  0  0  0
  3  5  1  0  0  0  0
  5  6  1  6  0  0  0
  5  7  1  0  0  0  0
  7  8  1  6  0  0  0
  7  9  1  0  0  0  0
  9 27  1  0  0  0  0
 10 11  1  0  0  0  0
 11 12  2  0  0  0  0
 11 13  1  0  0  0  0
 13 14  1  0  0  0  0
 14 16  2  0  0  0  0
 15 14  1  6  0  0  0
 15 18  1  0  0  0  0
 15 26  1  0  0  0  0
 17 19  1  6  0  0  0
 17 25  1  0  0  0  0
 17 18  1  0  0  0  0
 19 20  1  0  0  0  0
 20 21  1  1  0  0  0
 20 22  1  0  0  0  0
 22 23  1  1  0  0  0
 22 24  1  0  0  0  0
 23 28  1  0  0  0  0
 23 29  1  0  0  0  0
 25 24  1  1  0  0  0
 25 27  1  0  0  0  0
 26 10  1  1  0  0  0
 26 27  1  0  0  0  0
M  END
>  <CHROM.1>
62.91380226,179.31496626,174.36791896,158.60302038,-98.94337106,80.61948418
27.65948014,37.37990858,19.89623046,1.55206876,-1.42461783,0.19402654

>  <Name>
ligand

>  <RI>
0

>  <Rbt.Current_Directory>
/home/itssahil/PROJECTS/Mol_Feturizer/New_Systems/rnas/3F4H

>  <Rbt.Executable>
rbdock ($Id: //depot/dev/client3/rdock/2013.1/src/exe/rbdock.cxx#4 $)

>  <Rbt.Library>
libRbt.so (2013.1, Build901 2013/11/27)

>  <Rbt.Parameter_File>
/export/apps/rDock/src/rDock_2013.1_src/data/scripts/dock_solv.prm

>  <Rbt.Receptor>
prm/pocket_docking_8.prm

>  <SCORE>
-39.0103

>  <SCORE.INTER>
-21.8322

>  <SCORE.INTER.CONST>
1

>  <SCORE.INTER.POLAR>
0

>  <SCORE.INTER.ROT>
6

>  <SCORE.INTER.SOLV>
8.81909

>  <SCORE.INTER.VDW>
-25.0945

>  <SCORE.INTER.norm>
-0.752836

>  <SCORE.INTRA>
-17.1781

>  <SCORE.INTRA.DIHEDRAL>
-3.19899

>  <SCORE.INTRA.DIHEDRAL.0>
6.83446

>  <SCORE.INTRA.POLAR>
0

>  <SCORE.INTRA.POLAR.0>
0

>  <SCORE.INTRA.REPUL>
0

>  <SCORE.INTRA.REPUL.0>
0

>  <SCORE.INTRA.SOLV>
0.0440956

>  <SCORE.INTRA.SOLV.lig_0>
-26.4601

>  <SCORE.INTRA.VDW>
-15.6007

>  <SCORE.INTRA.VDW.0>
13.7853

>  <SCORE.INTRA.norm>
-0.592349

>  <SCORE.RESTR>
0

>  <SCORE.RESTR.CAVITY>
0

>  <SCORE.RESTR.norm>
0

>  <SCORE.SYSTEM>
0

>  <SCORE.SYSTEM.CONST>
0

>  <SCORE.SYSTEM.DIHEDRAL>
0

>  <SCORE.SYSTEM.SOLV>
0

>  <SCORE.SYSTEM.norm>
0

>  <SCORE.heavy>
29

>  <SCORE.norm>
-1.34518

>  <RMSD>
5.470

$$$$
ligand
 OpenBabel11021811473D
libRbt.so/2013.1/901 2013/11/27
 29 31  0  0  0  0  0  0  0  0999 V2000
   28.1509   42.9196   17.9764 C   0  0  0  0  0  0  0  0  0  0  0  0
   26.8281   43.3246   17.6088 O   0  0  0  0  0  0  0  0  0  0  0  0
   28.0694   41.7018   18.8866 C   0  0  1  0  0  0  0  0  0  0  0  0
   27.2685   42.0334   20.0166 O   0  0  0  0  0  0  0  0  0  0  0  0
   27.4688   40.5163   18.1422 C   0  0  1  0  0  0  0  0  0  0  0  0
   28.3594   40.1911   17.0811 O   0  0  0  0  0  0  0  0  0  0  0  0
   27.2045   39.2776   19.0033 C   0  0  1  0  0  0  0  0  0  0  0  0
   26.6018   38.2765   18.1824 O   0  0  0  0  0  0  0  0  0  0  0  0
   28.4692   38.6862   19.6227 C   0  0  0  0  0  0  0  0  0  0  0  0
   28.1239   39.3393   22.3477 N   0  0  0  0  0  0  0  0  0  0  0  0
   27.9596   39.6906   23.6544 C   0  0  0  0  0  0  0  0  0  0  0  0
   28.1127   40.8840   24.0162 O   0  0  0  0  0  0  0  0  0  0  0  0
   27.6338   38.7538   24.5808 N   0  0  0  0  0  0  0  0  0  0  0  0
   27.4652   37.4547   24.2279 C   0  0  0  0  0  0  0  0  0  0  0  0
   27.6283   37.0819   22.8986 C   0  0  1  0  0  0  0  0  0  0  0  0
   27.1658   36.5909   25.0892 O   0  0  0  0  0  0  0  0  0  0  0  0
   27.6142   35.4316   21.2458 C   0  0  1  0  0  0  0  0  0  0  0  0
   27.4576   35.7920   22.5361 N   0  0  0  0  0  0  0  0  0  0  0  0
   27.4371   34.1014   20.8816 C   0  0  0  0  0  0  0  0  0  0  0  0
   27.5890   33.6993   19.5591 C   0  0  2  0  0  0  0  0  0  0  0  0
   27.3836   32.2420   19.2346 C   0  0  0  0  0  0  0  0  0  0  0  0
   27.9239   34.6437   18.5804 C   0  0  2  0  0  0  0  0  0  0  0  0
   28.0898   34.3226   17.2619 N   0  0  0  0  0  0  0  0  0  0  0  0
   28.1003   35.9791   18.9624 C   0  0  0  0  0  0  0  0  0  0  0  0
   27.9502   36.3866   20.2876 C   0  0  2  0  0  0  0  0  0  0  0  0
   27.9625   38.0464   21.9427 C   0  0  2  0  0  0  0  0  0  0  0  0
   28.1264   37.6791   20.6457 N   0  0  0  0  0  0  0  0  0  0  0  0
   26.9265   34.1128   16.4210 C   0  0  0  0  0  0  0  0  0  0  0  0
   29.4002   34.1822   16.6485 C   0  0  0  0  0  0  0  0  0  0  0  0
  1  2  1  0  0  0  0
  3  1  1  6  0  0  0
  3  4  1  0  0  0  0
  3  5  1  0  0  0  0
  5  6  1  6  0  0  0
  5  7  1  0  0  0  0
  7  8  1  6  0  0  0
  7  9  1  0  0  0  0
  9 27  1  0  0  0  0
 10 11  1  0  0  0  0
 11 12  2  0  0  0  0
 11 13  1  0  0  0  0
 13 14  1  0  0  0  0
 14 16  2  0  0  0  0
 15 14  1  6  0  0  0
 15 18  1  0  0  0  0
 15 26  1  0  0  0  0
 17 19  1  6  0  0  0
 17 25  1  0  0  0  0
 17 18  1  0  0  0  0
 19 20  1  0  0  0  0
 20 21  1  1  0  0  0
 20 22  1  0  0  0  0
 22 23  1  1  0  0  0
 22 24  1  0  0  0  0
 23 28  1  0  0  0  0
 23 29  1  0  0  0  0
 25 24  1  1  0  0  0
 25 27  1  0  0  0  0
 26 10  1  1  0  0  0
 26 27  1  0  0  0  0
M  END
>  <CHROM.1>
-57.02850988,63.41010609,177.94416532,168.52832300,77.78219448,88.49704682
27.73122479,37.79663796,20.20370269,-2.16455629,-1.54734214,2.70629160

>  <Name>
ligand

>  <RI>
0

>  <Rbt.Current_Directory>
/home/itssahil/PROJECTS/Mol_Feturizer/New_Systems/rnas/3F4H

>  <Rbt.Executable>
rbdock ($Id: //depot/dev/client3/rdock/2013.1/src/exe/rbdock.cxx#4 $)

>  <Rbt.Library>
libRbt.so (2013.1, Build901 2013/11/27)

>  <Rbt.Parameter_File>
/export/apps/rDock/src/rDock_2013.1_src/data/scripts/dock_solv.prm

>  <Rbt.Receptor>
prm/pocket_docking_8.prm

>  <SCORE>
-40.6421

>  <SCORE.INTER>
-22.819

>  <SCORE.INTER.CONST>
1

>  <SCORE.INTER.POLAR>
0

>  <SCORE.INTER.ROT>
6

>  <SCORE.INTER.SOLV>
8.21447

>  <SCORE.INTER.VDW>
-25.5508

>  <SCORE.INTER.norm>
-0.786863

>  <SCORE.INTRA>
-17.8253

>  <SCORE.INTRA.DIHEDRAL>
-4.29171

>  <SCORE.INTRA.DIHEDRAL.0>
6.83446

>  <SCORE.INTRA.POLAR>
0

>  <SCORE.INTRA.POLAR.0>
0

>  <SCORE.INTRA.REPUL>
0

>  <SCORE.INTRA.REPUL.0>
0

>  <SCORE.INTRA.SOLV>
-0.115663

>  <SCORE.INTRA.SOLV.lig_0>
-26.4601

>  <SCORE.INTRA.VDW>
-15.6217

>  <SCORE.INTRA.VDW.0>
13.7853

>  <SCORE.INTRA.norm>
-0.614667

>  <SCORE.RESTR>
0.00227737

>  <SCORE.RESTR.CAVITY>
0.00227737

>  <SCORE.RESTR.norm>
7.85298e-05

>  <SCORE.SYSTEM>
0

>  <SCORE.SYSTEM.CONST>
0

>  <SCORE.SYSTEM.DIHEDRAL>
0

>  <SCORE.SYSTEM.SOLV>
0

>  <SCORE.SYSTEM.norm>
0

>  <SCORE.heavy>
29

>  <SCORE.norm>
-1.40145

>  <RMSD>
5.502

$$$$
ligand
 OpenBabel11021811473D
libRbt.so/2013.1/901 2013/11/27
 29 31  0  0  0  0  0  0  0  0999 V2000
   29.4311   41.6939   16.4171 C   0  0  0  0  0  0  0  0  0  0  0  0
   29.8983   41.2544   15.1375 O   0  0  0  0  0  0  0  0  0  0  0  0
   28.8181   40.5152   17.1608 C   0  0  1  0  0  0  0  0  0  0  0  0
   29.8135   39.5081   17.3130 O   0  0  0  0  0  0  0  0  0  0  0  0
   28.2973   40.9543   18.5233 C   0  0  1  0  0  0  0  0  0  0  0  0
   27.2414   41.8795   18.2916 O   0  0  0  0  0  0  0  0  0  0  0  0
   27.8101   39.8178   19.4270 C   0  0  1  0  0  0  0  0  0  0  0  0
   26.9025   39.0051   18.6818 O   0  0  0  0  0  0  0  0  0  0  0  0
   28.9365   38.9235   19.9409 C   0  0  0  0  0  0  0  0  0  0  0  0
   28.5155   39.3594   22.6984 N   0  0  0  0  0  0  0  0  0  0  0  0
   28.3198   39.6058   24.0247 C   0  0  0  0  0  0  0  0  0  0  0  0
   28.6044   40.7284   24.5117 O   0  0  0  0  0  0  0  0  0  0  0  0
   27.8201   38.6390   24.8356 N   0  0  0  0  0  0  0  0  0  0  0  0
   27.5058   37.4133   24.3460 C   0  0  0  0  0  0  0  0  0  0  0  0
   27.6989   37.1480   22.9950 C   0  0  1  0  0  0  0  0  0  0  0  0
   27.0456   36.5211   25.1007 O   0  0  0  0  0  0  0  0  0  0  0  0
   27.5703   35.6767   21.1855 C   0  0  1  0  0  0  0  0  0  0  0  0
   27.3844   35.9326   22.4968 N   0  0  0  0  0  0  0  0  0  0  0  0
   27.2443   34.4226   20.6812 C   0  0  0  0  0  0  0  0  0  0  0  0
   27.4221   34.1292   19.3337 C   0  0  2  0  0  0  0  0  0  0  0  0
   27.0492   32.7498   18.8546 C   0  0  0  0  0  0  0  0  0  0  0  0
   27.9351   35.1071   18.4719 C   0  0  2  0  0  0  0  0  0  0  0  0
   28.1370   34.8914   17.1371 N   0  0  0  0  0  0  0  0  0  0  0  0
   28.2599   36.3649   18.9945 C   0  0  0  0  0  0  0  0  0  0  0  0
   28.0845   36.6630   20.3454 C   0  0  2  0  0  0  0  0  0  0  0  0
   28.2123   38.1437   22.1581 C   0  0  2  0  0  0  0  0  0  0  0  0
   28.4051   37.8807   20.8399 N   0  0  0  0  0  0  0  0  0  0  0  0
   29.4004   34.3441   16.6802 C   0  0  0  0  0  0  0  0  0  0  0  0
   27.1267   35.1856   16.1342 C   0  0  0  0  0  0  0  0  0  0  0  0
  1  2  1  0  0  0  0
  3  1  1  1  0  0  0
  3  4  1  0  0  0  0
  3  5  1  0  0  0  0
  5  6  1  6  0  0  0
  5  7  1  0  0  0  0
  7  8  1  6  0  0  0
  7  9  1  0  0  0  0
  9 27  1  0  0  0  0
 10 11  1  0  0  0  0
 11 12  2  0  0  0  0
 11 13  1  0  0  0  0
 13 14  1  0  0  0  0
 14 16  2  0  0  0  0
 15 14  1  6  0  0  0
 15 18  1  0  0  0  0
 15 26  1  0  0  0  0
 17 19  1  6  0  0  0
 17 25  1  0  0  0  0
 17 18  1  0  0  0  0
 19 20  1  0  0  0  0
 20 21  1  1  0  0  0
 20 22  1  0  0  0  0
 22 23  1  1  0  0  0
 22 24  1  0  0  0  0
 23 28  1  0  0  0  0
 23 29  1  0  0  0  0
 25 24  1  1  0  0  0
 25 27  1  0  0  0  0
 26 10  1  1  0  0  0
 26 27  1  0  0  0  0
M  END
>  <CHROM.1>
59.44623601,64.29760986,-50.45892859,178.04965942,-88.37911116,93.76207317
28.11464055,37.81803122,20.01839477,-0.77465263,1.37938499,0.95051540

>  <Name>
ligand

>  <RI>
0

>  <Rbt.Current_Directory>
/home/itssahil/PROJECTS/Mol_Feturizer/New_Systems/rnas/3F4H

>  <Rbt.Executable>
rbdock ($Id: //depot/dev/client3/rdock/2013.1/src/exe/rbdock.cxx#4 $)

>  <Rbt.Library>
libRbt.so (2013.1, Build901 2013/11/27)

>  <Rbt.Parameter_File>
/export/apps/rDock/src/rDock_2013.1_src/data/scripts/dock_solv.prm

>  <Rbt.Receptor>
prm/blind_docking_100.prm

>  <SCORE>
-40.4732

>  <SCORE.INTER>
-22.5411

>  <SCORE.INTER.CONST>
1

>  <SCORE.INTER.POLAR>
0

>  <SCORE.INTER.ROT>
6

>  <SCORE.INTER.SOLV>
9.18294

>  <SCORE.INTER.VDW>
-25.6884

>  <SCORE.INTER.norm>
-0.777278

>  <SCORE.INTRA>
-17.9321

>  <SCORE.INTRA.DIHEDRAL>
-4.43823

>  <SCORE.INTRA.DIHEDRAL.0>
6.83446

>  <SCORE.INTRA.POLAR>
0

>  <SCORE.INTRA.POLAR.0>
0

>  <SCORE.INTRA.REPUL>
0

>  <SCORE.INTRA.REPUL.0>
0

>  <SCORE.INTRA.SOLV>
-0.125649

>  <SCORE.INTRA.SOLV.lig_0>
-26.4601

>  <SCORE.INTRA.VDW>
-15.6501

>  <SCORE.INTRA.VDW.0>
13.7853

>  <SCORE.INTRA.norm>
-0.618348

>  <SCORE.RESTR>
0

>  <SCORE.RESTR.CAVITY>
0

>  <SCORE.RESTR.norm>
0

>  <SCORE.SYSTEM>
0

>  <SCORE.SYSTEM.CONST>
0

>  <SCORE.SYSTEM.DIHEDRAL>
0

>  <SCORE.SYSTEM.SOLV>
0

>  <SCORE.SYSTEM.norm>
0

>  <SCORE.heavy>
29

>  <SCORE.norm>
-1.39563

>  <RMSD>
5.516

$$$$
ligand
 OpenBabel11021811473D
libRbt.so/2013.1/901 2013/11/27
 29 31  0  0  0  0  0  0  0  0999 V2000
   28.6129   40.5757   15.9132 C   0  0  0  0  0  0  0  0  0  0  0  0
   27.4041   39.9995   15.4076 O   0  0  0  0  0  0  0  0  0  0  0  0
   28.7831   40.1855   17.3750 C   0  0  1  0  0  0  0  0  0  0  0  0
   27.6045   40.5564   18.0833 O   0  0  0  0  0  0  0  0  0  0  0  0
   29.0286   38.6877   17.5042 C   0  0  1  0  0  0  0  0  0  0  0  0
   30.2623   38.4062   16.8536 O   0  0  0  0  0  0  0  0  0  0  0  0
   29.0606   38.1585   18.9411 C   0  0  1  0  0  0  0  0  0  0  0  0
   29.9663   38.9619   19.6987 O   0  0  0  0  0  0  0  0  0  0  0  0
   27.6997   38.1952   19.6335 C   0  0  0  0  0  0  0  0  0  0  0  0
   27.8214   39.2402   22.2535 N   0  0  0  0  0  0  0  0  0  0  0  0
   27.8760   39.7789   23.5045 C   0  0  0  0  0  0  0  0  0  0  0  0
   27.9404   41.0241   23.6584 O   0  0  0  0  0  0  0  0  0  0  0  0
   27.8669   38.9755   24.5983 N   0  0  0  0  0  0  0  0  0  0  0  0
   27.8030   37.6262   24.4707 C   0  0  0  0  0  0  0  0  0  0  0  0
   27.7456   37.0628   23.2010 C   0  0  1  0  0  0  0  0  0  0  0  0
   27.7970   36.8867   25.4858 O   0  0  0  0  0  0  0  0  0  0  0  0
   27.6189   35.1751   21.8312 C   0  0  1  0  0  0  0  0  0  0  0  0
   27.6766   35.7208   23.0634 N   0  0  0  0  0  0  0  0  0  0  0  0
   27.5487   33.7927   21.6988 C   0  0  0  0  0  0  0  0  0  0  0  0
   27.4856   33.2005   20.4423 C   0  0  2  0  0  0  0  0  0  0  0  0
   27.4124   31.6968   20.3717 C   0  0  0  0  0  0  0  0  0  0  0  0
   27.4922   34.0038   19.2949 C   0  0  2  0  0  0  0  0  0  0  0  0
   27.4329   33.4931   18.0281 N   0  0  0  0  0  0  0  0  0  0  0  0
   27.5647   35.3941   19.4440 C   0  0  0  0  0  0  0  0  0  0  0  0
   27.6294   35.9923   20.7021 C   0  0  2  0  0  0  0  0  0  0  0  0
   27.7534   37.8894   22.0732 C   0  0  2  0  0  0  0  0  0  0  0  0
   27.7025   37.3367   20.8339 N   0  0  0  0  0  0  0  0  0  0  0  0
   28.6499   33.3544   17.2509 C   0  0  0  0  0  0  0  0  0  0  0  0
   26.1864   33.0704   17.4113 C   0  0  0  0  0  0  0  0  0  0  0  0
  1  2  1  0  0  0  0
  3  1  1  6  0  0  0
  3  4  1  0  0  0  0
  3  5  1  0  0  0  0
  5  6  1  1  0  0  0
  5  7  1  0  0  0  0
  7  8  1  1  0  0  0
  7  9  1  0  0  0  0
  9 27  1  0  0  0  0
 10 11  1  0  0  0  0
 11 12  2  0  0  0  0
 11 13  1  0  0  0  0
 13 14  1  0  0  0  0
 14 16  2  0  0  0  0
 15 14  1  1  0  0  0
 15 18  1  0  0  0  0
 15 26  1  0  0  0  0
 17 19  1  1  0  0  0
 17 25  1  0  0  0  0
 17 18  1  0  0  0  0
 19 20  1  0  0  0  0
 20 21  1  6  0  0  0
 20 22  1  0  0  0  0
 22 23  1  6  0  0  0
 22 24  1  0  0  0  0
 23 28  1  0  0  0  0
 23 29  1  0  0  0  0
 25 24  1  6  0  0  0
 25 27  1  0  0  0  0
 26 10  1  6  0  0  0
 26 27  1  0  0  0  0
M  END
>  <CHROM.1>
-54.18948290,63.77854497,-51.10488312,163.65705091,-99.33050985,-76.01404153
28.00051883,37.12245547,20.23218341,-0.96344550,1.41245413,1.06625659

>  <Name>
ligand

>  <RI>
0

>  <Rbt.Current_Directory>
/home/itssahil/PROJECTS/Mol_Feturizer/New_Systems/rnas/3F4H

>  <Rbt.Executable>
rbdock ($Id: //depot/dev/client3/rdock/2013.1/src/exe/rbdock.cxx#4 $)

>  <Rbt.Library>
libRbt.so (2013.1, Build901 2013/11/27)

>  <Rbt.Parameter_File>
/export/apps/rDock/src/rDock_2013.1_src/data/scripts/dock_solv.prm

>  <Rbt.Receptor>
prm/blind_docking_100.prm

>  <SCORE>
-42.8454

>  <SCORE.INTER>
-25.8885

>  <SCORE.INTER.CONST>
1

>  <SCORE.INTER.POLAR>
0

>  <SCORE.INTER.ROT>
6

>  <SCORE.INTER.SOLV>
9.5153

>  <SCORE.INTER.VDW>
-28.0308

>  <SCORE.INTER.norm>
-0.892707

>  <SCORE.INTRA>
-16.9569

>  <SCORE.INTRA.DIHEDRAL>
-3.41694

>  <SCORE.INTRA.DIHEDRAL.0>
6.83446

>  <SCORE.INTRA.POLAR>
0

>  <SCORE.INTRA.POLAR.0>
0

>  <SCORE.INTRA.REPUL>
0

>  <SCORE.INTRA.REPUL.0>
0

>  <SCORE.INTRA.SOLV>
0.103746

>  <SCORE.INTRA.SOLV.lig_0>
-26.4601

>  <SCORE.INTRA.VDW>
-15.3003

>  <SCORE.INTRA.VDW.0>
13.7853

>  <SCORE.INTRA.norm>
-0.584721

>  <SCORE.RESTR>
0

>  <SCORE.RESTR.CAVITY>
0

>  <SCORE.RESTR.norm>
0

>  <SCORE.SYSTEM>
0

>  <SCORE.SYSTEM.CONST>
0

>  <SCORE.SYSTEM.DIHEDRAL>
0

>  <SCORE.SYSTEM.SOLV>
0

>  <SCORE.SYSTEM.norm>
0

>  <SCORE.heavy>
29

>  <SCORE.norm>
-1.47743

>  <RMSD>
5.516

$$$$
ligand
 OpenBabel11021811473D
libRbt.so/2013.1/901 2013/11/27
 29 31  0  0  0  0  0  0  0  0999 V2000
   28.6929   40.5226   15.8513 C   0  0  0  0  0  0  0  0  0  0  0  0
   28.8652   41.9335   15.6817 O   0  0  0  0  0  0  0  0  0  0  0  0
   28.9358   40.1579   17.3094 C   0  0  1  0  0  0  0  0  0  0  0  0
   27.9452   40.7980   18.1077 O   0  0  0  0  0  0  0  0  0  0  0  0
   28.8748   38.6479   17.5008 C   0  0  1  0  0  0  0  0  0  0  0  0
   29.9091   38.0811   16.7048 O   0  0  0  0  0  0  0  0  0  0  0  0
   29.0090   38.1733   18.9508 C   0  0  1  0  0  0  0  0  0  0  0  0
   30.0680   38.9047   19.5697 O   0  0  0  0  0  0  0  0  0  0  0  0
   27.7420   38.3798   19.7783 C   0  0  0  0  0  0  0  0  0  0  0  0
   27.9260   39.4060   22.4021 N   0  0  0  0  0  0  0  0  0  0  0  0
   28.0108   39.9357   23.6552 C   0  0  0  0  0  0  0  0  0  0  0  0
   28.0968   41.1788   23.8157 O   0  0  0  0  0  0  0  0  0  0  0  0
   28.0089   39.1255   24.7440 N   0  0  0  0  0  0  0  0  0  0  0  0
   27.9224   37.7781   24.6092 C   0  0  0  0  0  0  0  0  0  0  0  0
   27.8339   37.2238   23.3374 C   0  0  1  0  0  0  0  0  0  0  0  0
   27.9231   37.0322   25.6197 O   0  0  0  0  0  0  0  0  0  0  0  0
   27.6544   35.3472   21.9584 C   0  0  1  0  0  0  0  0  0  0  0  0
   27.7422   35.8840   23.1927 N   0  0  0  0  0  0  0  0  0  0  0  0
   27.5609   33.9669   21.8187 C   0  0  0  0  0  0  0  0  0  0  0  0
   27.4666   33.3838   20.5599 C   0  0  2  0  0  0  0  0  0  0  0  0
   27.3694   31.8818   20.4813 C   0  0  0  0  0  0  0  0  0  0  0  0
   27.4651   34.1943   19.4175 C   0  0  2  0  0  0  0  0  0  0  0  0
   27.3755   33.6927   18.1489 N   0  0  0  0  0  0  0  0  0  0  0  0
   27.5612   35.5824   19.5740 C   0  0  0  0  0  0  0  0  0  0  0  0
   27.6573   36.1714   20.8343 C   0  0  2  0  0  0  0  0  0  0  0  0
   27.8343   38.0575   22.2147 C   0  0  2  0  0  0  0  0  0  0  0  0
   27.7530   37.5136   20.9732 N   0  0  0  0  0  0  0  0  0  0  0  0
   26.0729   33.5192   17.5345 C   0  0  0  0  0  0  0  0  0  0  0  0
   28.5445   33.3212   17.3689 C   0  0  0  0  0  0  0  0  0  0  0  0
  1  2  1  0  0  0  0
  3  1  1  6  0  0  0
  3  4  1  0  0  0  0
  3  5  1  0  0  0  0
  5  6  1  6  0  0  0
  5  7  1  0  0  0  0
  7  8  1  1  0  0  0
  7  9  1  0  0  0  0
  9 27  1  0  0  0  0
 10 11  1  0  0  0  0
 11 12  2  0  0  0  0
 11 13  1  0  0  0  0
 13 14  1  0  0  0  0
 14 16  2  0  0  0  0
 15 14  1  1  0  0  0
 15 18  1  0  0  0  0
 15 26  1  0  0  0  0
 17 19  1  1  0  0  0
 17 25  1  0  0  0  0
 17 18  1  0  0  0  0
 19 20  1  0  0  0  0
 20 21  1  6  0  0  0
 20 22  1  0  0  0  0
 22 23  1  6  0  0  0
 22 24  1  0  0  0  0
 23 28  1  0  0  0  0
 23 29  1  0  0  0  0
 25 24  1  6  0  0  0
 25 27  1  0  0  0  0
 26 10  1  6  0  0  0
 26 27  1  0  0  0  0
M  END
>  <CHROM.1>
63.59039688,61.39734051,-44.16432373,160.38849256,90.56824498,-67.74498188
28.09112105,37.31422554,20.32266396,-0.52676589,1.38303406,1.07362406

>  <Name>
ligand

>  <RI>
0

>  <Rbt.Current_Directory>
/home/itssahil/PROJECTS/Mol_Feturizer/New_Systems/rnas/3F4H

>  <Rbt.Executable>
rbdock ($Id: //depot/dev/client3/rdock/2013.1/src/exe/rbdock.cxx#4 $)

>  <Rbt.Library>
libRbt.so (2013.1, Build901 2013/11/27)

>  <Rbt.Parameter_File>
/export/apps/rDock/src/rDock_2013.1_src/data/scripts/dock_solv.prm

>  <Rbt.Receptor>
prm/pocket_docking_7.prm

>  <SCORE>
-43.0432

>  <SCORE.INTER>
-26.1608

>  <SCORE.INTER.CONST>
1

>  <SCORE.INTER.POLAR>
0

>  <SCORE.INTER.ROT>
6

>  <SCORE.INTER.SOLV>
8.87263

>  <SCORE.INTER.VDW>
-27.9981

>  <SCORE.INTER.norm>
-0.902096

>  <SCORE.INTRA>
-16.8824

>  <SCORE.INTRA.DIHEDRAL>
-2.60142

>  <SCORE.INTRA.DIHEDRAL.0>
6.83446

>  <SCORE.INTRA.POLAR>
0

>  <SCORE.INTRA.POLAR.0>
0

>  <SCORE.INTRA.REPUL>
0

>  <SCORE.INTRA.REPUL.0>
0

>  <SCORE.INTRA.SOLV>
-0.268562

>  <SCORE.INTRA.SOLV.lig_0>
-26.4601

>  <SCORE.INTRA.VDW>
-15.4474

>  <SCORE.INTRA.VDW.0>
13.7853

>  <SCORE.INTRA.norm>
-0.582153

>  <SCORE.RESTR>
0

>  <SCORE.RESTR.CAVITY>
0

>  <SCORE.RESTR.norm>
0

>  <SCORE.SYSTEM>
0

>  <SCORE.SYSTEM.CONST>
0

>  <SCORE.SYSTEM.DIHEDRAL>
0

>  <SCORE.SYSTEM.SOLV>
0

>  <SCORE.SYSTEM.norm>
0

>  <SCORE.heavy>
29

>  <SCORE.norm>
-1.48425

>  <RMSD>
5.517

$$$$
ligand
 OpenBabel11021811473D
libRbt.so/2013.1/901 2013/11/27
 29 31  0  0  0  0  0  0  0  0999 V2000
   27.8328   39.1815   16.0598 C   0  0  0  0  0  0  0  0  0  0  0  0
   27.1979   40.4049   15.6738 O   0  0  0  0  0  0  0  0  0  0  0  0
   28.6026   39.4012   17.3549 C   0  0  1  0  0  0  0  0  0  0  0  0
   29.5381   40.4559   17.1528 O   0  0  0  0  0  0  0  0  0  0  0  0
   27.6501   39.7497   18.4914 C   0  0  1  0  0  0  0  0  0  0  0  0
   26.8348   38.6065   18.7221 O   0  0  0  0  0  0  0  0  0  0  0  0
   28.3281   40.1820   19.7948 C   0  0  1  0  0  0  0  0  0  0  0  0
   27.3154   40.4274   20.7715 O   0  0  0  0  0  0  0  0  0  0  0  0
   29.2875   39.1355   20.3578 C   0  0  0  0  0  0  0  0  0  0  0  0
   28.0330   39.1224   22.8870 N   0  0  0  0  0  0  0  0  0  0  0  0
   27.4348   39.1523   24.1115 C   0  0  0  0  0  0  0  0  0  0  0  0
   27.5196   40.1754   24.8359 O   0  0  0  0  0  0  0  0  0  0  0  0
   26.7450   38.0749   24.5645 N   0  0  0  0  0  0  0  0  0  0  0  0
   26.6362   36.9511   23.8120 C   0  0  0  0  0  0  0  0  0  0  0  0
   27.2401   36.9067   22.5606 C   0  0  1  0  0  0  0  0  0  0  0  0
   25.9986   35.9557   24.2363 O   0  0  0  0  0  0  0  0  0  0  0  0
   27.7179   35.7529   20.5867 C   0  0  1  0  0  0  0  0  0  0  0  0
   27.1334   35.7944   21.8016 N   0  0  0  0  0  0  0  0  0  0  0  0
   27.6035   34.6037   19.8123 C   0  0  0  0  0  0  0  0  0  0  0  0
   28.1926   34.5313   18.5549 C   0  0  2  0  0  0  0  0  0  0  0  0
   28.0300   33.2552   17.7697 C   0  0  0  0  0  0  0  0  0  0  0  0
   28.9101   35.6278   18.0600 C   0  0  2  0  0  0  0  0  0  0  0  0
   29.5158   35.6295   16.8343 N   0  0  0  0  0  0  0  0  0  0  0  0
   29.0179   36.7776   18.8518 C   0  0  0  0  0  0  0  0  0  0  0  0
   28.4297   36.8542   20.1139 C   0  0  2  0  0  0  0  0  0  0  0  0
   27.9499   38.0166   22.0920 C   0  0  2  0  0  0  0  0  0  0  0  0
   28.5433   37.9691   20.8715 N   0  0  0  0  0  0  0  0  0  0  0  0
   28.7219   35.8492   15.6403 C   0  0  0  0  0  0  0  0  0  0  0  0
   30.9446   35.4217   16.6661 C   0  0  0  0  0  0  0  0  0  0  0  0
  1  2  1  0  0  0  0
  3  1  1  6  0  0  0
  3  4  1  0  0  0  0
  3  5  1  0  0  0  0
  5  6  1  1  0  0  0
  5  7  1  0  0  0  0
  7  8  1  1  0  0  0
  7  9  1  0  0  0  0
  9 27  1  0  0  0  0
 10 11  1  0  0  0  0
 11 12  2  0  0  0  0
 11 13  1  0  0  0  0
 13 14  1  0  0  0  0
 14 16  2  0  0  0  0
 15 14  1  6  0  0  0
 15 18  1  0  0  0  0
 15 26  1  0  0  0  0
 17 19  1  6  0  0  0
 17 25  1  0  0  0  0
 17 18  1  0  0  0  0
 19 20  1  0  0  0  0
 20 21  1  1  0  0  0
 20 22  1  0  0  0  0
 22 23  1  1  0  0  0
 22 24  1  0  0  0  0
 23 28  1  0  0  0  0
 23 29  1  0  0  0  0
 25 24  1  1  0  0  0
 25 27  1  0  0  0  0
 26 10  1  1  0  0  0
 26 27  1  0  0  0  0
M  END
>  <CHROM.1>
-57.17715731,65.45874517,-177.96552332,-70.19567671,78.84431123,99.18954595
28.02633734,37.65375675,19.91542536,-0.01094791,1.34129456,-0.14203292

>  <Name>
ligand

>  <RI>
0

>  <Rbt.Current_Directory>
/home/itssahil/PROJECTS/Mol_Feturizer/New_Systems/rnas/3F4H

>  <Rbt.Executable>
rbdock ($Id: //depot/dev/client3/rdock/2013.1/src/exe/rbdock.cxx#4 $)

>  <Rbt.Library>
libRbt.so (2013.1, Build901 2013/11/27)

>  <Rbt.Parameter_File>
/export/apps/rDock/src/rDock_2013.1_src/data/scripts/dock_solv.prm

>  <Rbt.Receptor>
prm/blind_docking_80.prm

>  <SCORE>
-39.3633

>  <SCORE.INTER>
-21.0462

>  <SCORE.INTER.CONST>
1

>  <SCORE.INTER.POLAR>
0

>  <SCORE.INTER.ROT>
6

>  <SCORE.INTER.SOLV>
10.3496

>  <SCORE.INTER.VDW>
-25.0807

>  <SCORE.INTER.norm>
-0.725731

>  <SCORE.INTRA>
-18.3172

>  <SCORE.INTRA.DIHEDRAL>
-4.32114

>  <SCORE.INTRA.DIHEDRAL.0>
6.83446

>  <SCORE.INTRA.POLAR>
0

>  <SCORE.INTRA.POLAR.0>
0

>  <SCORE.INTRA.REPUL>
0

>  <SCORE.INTRA.REPUL.0>
0

>  <SCORE.INTRA.SOLV>
0.87763

>  <SCORE.INTRA.SOLV.lig_0>
-26.4601

>  <SCORE.INTRA.VDW>
-16.5954

>  <SCORE.INTRA.VDW.0>
13.7853

>  <SCORE.INTRA.norm>
-0.631626

>  <SCORE.RESTR>
0

>  <SCORE.RESTR.CAVITY>
0

>  <SCORE.RESTR.norm>
0

>  <SCORE.SYSTEM>
0

>  <SCORE.SYSTEM.CONST>
0

>  <SCORE.SYSTEM.DIHEDRAL>
0

>  <SCORE.SYSTEM.SOLV>
0

>  <SCORE.SYSTEM.norm>
0

>  <SCORE.heavy>
29

>  <SCORE.norm>
-1.35736

>  <RMSD>
5.518

$$$$
ligand
 OpenBabel11021811473D
libRbt.so/2013.1/901 2013/11/27
 29 31  0  0  0  0  0  0  0  0999 V2000
   28.7139   41.2836   16.4142 C   0  0  0  0  0  0  0  0  0  0  0  0
   29.9823   41.1491   15.7646 O   0  0  0  0  0  0  0  0  0  0  0  0
   28.7825   40.6363   17.7905 C   0  0  1  0  0  0  0  0  0  0  0  0
   27.5836   40.9428   18.4957 O   0  0  0  0  0  0  0  0  0  0  0  0
   28.9511   39.1276   17.6648 C   0  0  1  0  0  0  0  0  0  0  0  0
   30.1634   38.8978   16.9562 O   0  0  0  0  0  0  0  0  0  0  0  0
   28.9672   38.3651   18.9929 C   0  0  1  0  0  0  0  0  0  0  0  0
   29.9701   38.9395   19.8319 O   0  0  0  0  0  0  0  0  0  0  0  0
   27.6361   38.4165   19.7401 C   0  0  0  0  0  0  0  0  0  0  0  0
   27.8250   39.4173   22.3733 N   0  0  0  0  0  0  0  0  0  0  0  0
   27.9116   39.9349   23.6314 C   0  0  0  0  0  0  0  0  0  0  0  0
   27.9799   41.1774   23.8046 O   0  0  0  0  0  0  0  0  0  0  0  0
   27.9305   39.1132   24.7114 N   0  0  0  0  0  0  0  0  0  0  0  0
   27.8635   37.7662   24.5628 C   0  0  0  0  0  0  0  0  0  0  0  0
   27.7734   37.2242   23.2857 C   0  0  1  0  0  0  0  0  0  0  0  0
   27.8834   37.0097   25.5651 O   0  0  0  0  0  0  0  0  0  0  0  0
   27.6117   35.3598   21.8881 C   0  0  1  0  0  0  0  0  0  0  0  0
   27.7009   35.8847   23.1273 N   0  0  0  0  0  0  0  0  0  0  0  0
   27.5381   33.9798   21.7342 C   0  0  0  0  0  0  0  0  0  0  0  0
   27.4427   33.4088   20.4700 C   0  0  2  0  0  0  0  0  0  0  0  0
   27.3678   31.9065   20.3760 C   0  0  0  0  0  0  0  0  0  0  0  0
   27.4200   34.2313   19.3364 C   0  0  2  0  0  0  0  0  0  0  0  0
   27.3281   33.7419   18.0632 N   0  0  0  0  0  0  0  0  0  0  0  0
   27.4962   35.6189   19.5070 C   0  0  0  0  0  0  0  0  0  0  0  0
   27.5932   36.1959   20.7729 C   0  0  2  0  0  0  0  0  0  0  0  0
   27.7523   38.0697   22.1721 C   0  0  2  0  0  0  0  0  0  0  0  0
   27.6697   37.5379   20.9255 N   0  0  0  0  0  0  0  0  0  0  0  0
   26.0312   33.6505   17.4197 C   0  0  0  0  0  0  0  0  0  0  0  0
   28.4894   33.3039   17.3065 C   0  0  0  0  0  0  0  0  0  0  0  0
  1  2  1  0  0  0  0
  3  1  1  6  0  0  0
  3  4  1  0  0  0  0
  3  5  1  0  0  0  0
  5  6  1  1  0  0  0
  5  7  1  0  0  0  0
  7  8  1  1  0  0  0
  7  9  1  0  0  0  0
  9 27  1  0  0  0  0
 10 11  1  0  0  0  0
 11 12  2  0  0  0  0
 11 13  1  0  0  0  0
 13 14  1  0  0  0  0
 14 16  2  0  0  0  0
 15 14  1  1  0  0  0
 15 18  1  0  0  0  0
 15 26  1  0  0  0  0
 17 19  1  1  0  0  0
 17 25  1  0  0  0  0
 17 18  1  0  0  0  0
 19 20  1  0  0  0  0
 20 21  1  6  0  0  0
 20 22  1  0  0  0  0
 22 23  1  6  0  0  0
 22 24  1  0  0  0  0
 23 28  1  0  0  0  0
 23 29  1  0  0  0  0
 25 24  1  6  0  0  0
 25 27  1  0  0  0  0
 26 10  1  6  0  0  0
 26 27  1  0  0  0  0
M  END
>  <CHROM.1>
171.82076791,60.01795721,-54.19793195,173.40487545,95.23865879,-74.60032988
28.08150400,37.39972730,20.36203706,0.00025372,-1.34581883,-2.14691977

>  <Name>
ligand

>  <RI>
0

>  <Rbt.Current_Directory>
/home/itssahil/PROJECTS/Mol_Feturizer/New_Systems/rnas/3F4H

>  <Rbt.Executable>
rbdock ($Id: //depot/dev/client3/rdock/2013.1/src/exe/rbdock.cxx#4 $)

>  <Rbt.Library>
libRbt.so (2013.1, Build901 2013/11/27)

>  <Rbt.Parameter_File>
/export/apps/rDock/src/rDock_2013.1_src/data/scripts/dock_solv.prm

>  <Rbt.Receptor>
prm/pocket_docking_6.prm

>  <SCORE>
-42.8133

>  <SCORE.INTER>
-25.8617

>  <SCORE.INTER.CONST>
1

>  <SCORE.INTER.POLAR>
0

>  <SCORE.INTER.ROT>
6

>  <SCORE.INTER.SOLV>
8.87055

>  <SCORE.INTER.VDW>
-27.798

>  <SCORE.INTER.norm>
-0.891784

>  <SCORE.INTRA>
-16.9516

>  <SCORE.INTRA.DIHEDRAL>
-4.26619

>  <SCORE.INTRA.DIHEDRAL.0>
6.83446

>  <SCORE.INTRA.POLAR>
0

>  <SCORE.INTRA.POLAR.0>
0

>  <SCORE.INTRA.REPUL>
0

>  <SCORE.INTRA.REPUL.0>
0

>  <SCORE.INTRA.SOLV>
0.13602

>  <SCORE.INTRA.SOLV.lig_0>
-26.4601

>  <SCORE.INTRA.VDW>
-14.8865

>  <SCORE.INTRA.VDW.0>
13.7853

>  <SCORE.INTRA.norm>
-0.584536

>  <SCORE.RESTR>
0

>  <SCORE.RESTR.CAVITY>
0

>  <SCORE.RESTR.norm>
0

>  <SCORE.SYSTEM>
0

>  <SCORE.SYSTEM.CONST>
0

>  <SCORE.SYSTEM.DIHEDRAL>
0

>  <SCORE.SYSTEM.SOLV>
0

>  <SCORE.SYSTEM.norm>
0

>  <SCORE.heavy>
29

>  <SCORE.norm>
-1.47632

>  <RMSD>
5.522

$$$$
ligand
 OpenBabel11021811473D
libRbt.so/2013.1/901 2013/11/27
 29 31  0  0  0  0  0  0  0  0999 V2000
   29.6190   38.8056   15.9639 C   0  0  0  0  0  0  0  0  0  0  0  0
   29.1977   37.4485   16.1362 O   0  0  0  0  0  0  0  0  0  0  0  0
   28.3987   39.7160   15.9720 C   0  0  1  0  0  0  0  0  0  0  0  0
   27.2915   38.9946   15.4410 O   0  0  0  0  0  0  0  0  0  0  0  0
   28.0924   40.1882   17.3875 C   0  0  1  0  0  0  0  0  0  0  0  0
   27.0506   41.1527   17.2928 O   0  0  0  0  0  0  0  0  0  0  0  0
   27.6943   39.0806   18.3675 C   0  0  1  0  0  0  0  0  0  0  0  0
   26.7740   38.2068   17.7125 O   0  0  0  0  0  0  0  0  0  0  0  0
   28.8768   38.2460   18.8554 C   0  0  0  0  0  0  0  0  0  0  0  0
   28.5501   39.1723   21.5023 N   0  0  0  0  0  0  0  0  0  0  0  0
   28.3968   39.6543   22.7681 C   0  0  0  0  0  0  0  0  0  0  0  0
   28.6168   40.8657   23.0183 O   0  0  0  0  0  0  0  0  0  0  0  0
   28.0099   38.8295   23.7741 N   0  0  0  0  0  0  0  0  0  0  0  0
   27.7682   37.5146   23.5425 C   0  0  0  0  0  0  0  0  0  0  0  0
   27.9191   37.0093   22.2562 C   0  0  1  0  0  0  0  0  0  0  0  0
   27.4124   36.7547   24.4770 O   0  0  0  0  0  0  0  0  0  0  0  0
   27.8207   35.2138   20.7655 C   0  0  1  0  0  0  0  0  0  0  0  0
   27.6759   35.7028   22.0142 N   0  0  0  0  0  0  0  0  0  0  0  0
   27.5688   33.8676   20.5255 C   0  0  0  0  0  0  0  0  0  0  0  0
   27.7067   33.3344   19.2487 C   0  0  2  0  0  0  0  0  0  0  0  0
   27.4188   31.8671   19.0597 C   0  0  0  0  0  0  0  0  0  0  0  0
   28.1036   34.1612   18.1900 C   0  0  2  0  0  0  0  0  0  0  0  0
   28.2603   33.7080   16.9097 N   0  0  0  0  0  0  0  0  0  0  0  0
   28.3550   35.5144   18.4473 C   0  0  0  0  0  0  0  0  0  0  0  0
   28.2192   36.0531   19.7264 C   0  0  2  0  0  0  0  0  0  0  0  0
   28.3162   37.8583   21.2184 C   0  0  2  0  0  0  0  0  0  0  0  0
   28.4681   37.3614   19.9639 N   0  0  0  0  0  0  0  0  0  0  0  0
   27.2492   34.0055   15.9128 C   0  0  0  0  0  0  0  0  0  0  0  0
   29.4145   32.9310   16.4893 C   0  0  0  0  0  0  0  0  0  0  0  0
  1  2  1  0  0  0  0
  3  1  1  1  0  0  0
  3  4  1  0  0  0  0
  3  5  1  0  0  0  0
  5  6  1  6  0  0  0
  5  7  1  0  0  0  0
  7  8  1  6  0  0  0
  7  9  1  0  0  0  0
  9 27  1  0  0  0  0
 10 11  1  0  0  0  0
 11 12  2  0  0  0  0
 11 13  1  0  0  0  0
 13 14  1  0  0  0  0
 14 16  2  0  0  0  0
 15 14  1  6  0  0  0
 15 18  1  0  0  0  0
 15 26  1  0  0  0  0
 17 19  1  6  0  0  0
 17 25  1  0  0  0  0
 17 18  1  0  0  0  0
 19 20  1  0  0  0  0
 20 21  1  1  0  0  0
 20 22  1  0  0  0  0
 22 23  1  1  0  0  0
 22 24  1  0  0  0  0
 23 28  1  0  0  0  0
 23 29  1  0  0  0  0
 25 24  1  1  0  0  0
 25 27  1  0  0  0  0
 26 10  1  1  0  0  0
 26 27  1  0  0  0  0
M  END
>  <CHROM.1>
-30.70621974,173.12750820,-43.84034211,170.08821016,103.73710277,100.93909031
28.06966864,37.06287925,19.33516658,-1.10719967,1.52919004,0.58548556

>  <Name>
ligand

>  <RI>
0

>  <Rbt.Current_Directory>
/home/itssahil/PROJECTS/Mol_Feturizer/New_Systems/rnas/3F4H

>  <Rbt.Executable>
rbdock ($Id: //depot/dev/client3/rdock/2013.1/src/exe/rbdock.cxx#4 $)

>  <Rbt.Library>
libRbt.so (2013.1, Build901 2013/11/27)

>  <Rbt.Parameter_File>
/export/apps/rDock/src/rDock_2013.1_src/data/scripts/dock_solv.prm

>  <Rbt.Receptor>
prm/pocket_docking_2.prm

>  <SCORE>
-33.7641

>  <SCORE.INTER>
-19.7598

>  <SCORE.INTER.CONST>
1

>  <SCORE.INTER.POLAR>
0

>  <SCORE.INTER.ROT>
6

>  <SCORE.INTER.SOLV>
8.05849

>  <SCORE.INTER.VDW>
-23.4594

>  <SCORE.INTER.norm>
-0.681372

>  <SCORE.INTRA>
-14.1608

>  <SCORE.INTRA.DIHEDRAL>
-0.89113

>  <SCORE.INTRA.DIHEDRAL.0>
6.83446

>  <SCORE.INTRA.POLAR>
0

>  <SCORE.INTRA.POLAR.0>
0

>  <SCORE.INTRA.REPUL>
0

>  <SCORE.INTRA.REPUL.0>
0

>  <SCORE.INTRA.SOLV>
1.28381

>  <SCORE.INTRA.SOLV.lig_0>
-26.4601

>  <SCORE.INTRA.VDW>
-14.3572

>  <SCORE.INTRA.VDW.0>
13.7853

>  <SCORE.INTRA.norm>
-0.488304

>  <SCORE.RESTR>
0.156541

>  <SCORE.RESTR.CAVITY>
0.156541

>  <SCORE.RESTR.norm>
0.00539797

>  <SCORE.SYSTEM>
0

>  <SCORE.SYSTEM.CONST>
0

>  <SCORE.SYSTEM.DIHEDRAL>
0

>  <SCORE.SYSTEM.SOLV>
0

>  <SCORE.SYSTEM.norm>
0

>  <SCORE.heavy>
29

>  <SCORE.norm>
-1.16428

>  <RMSD>
5.523

$$$$
ligand
 OpenBabel11021811473D
libRbt.so/2013.1/901 2013/11/27
 29 31  0  0  0  0  0  0  0  0999 V2000
   29.2272   41.8432   16.4588 C   0  0  0  0  0  0  0  0  0  0  0  0
   29.6905   41.4610   15.1595 O   0  0  0  0  0  0  0  0  0  0  0  0
   28.6862   40.6167   17.1808 C   0  0  1  0  0  0  0  0  0  0  0  0
   29.7363   39.6622   17.3019 O   0  0  0  0  0  0  0  0  0  0  0  0
   28.1554   40.9965   18.5572 C   0  0  1  0  0  0  0  0  0  0  0  0
   27.0558   41.8767   18.3555 O   0  0  0  0  0  0  0  0  0  0  0  0
   27.7283   39.8161   19.4346 C   0  0  1  0  0  0  0  0  0  0  0  0
   26.8339   38.9946   18.6832 O   0  0  0  0  0  0  0  0  0  0  0  0
   28.8966   38.9475   19.8967 C   0  0  0  0  0  0  0  0  0  0  0  0
   28.4840   39.4530   22.6436 N   0  0  0  0  0  0  0  0  0  0  0  0
   28.2903   39.7333   23.9634 C   0  0  0  0  0  0  0  0  0  0  0  0
   28.5186   40.8856   24.4090 O   0  0  0  0  0  0  0  0  0  0  0  0
   27.8536   38.7688   24.8126 N   0  0  0  0  0  0  0  0  0  0  0  0
   27.6014   37.5119   24.3682 C   0  0  0  0  0  0  0  0  0  0  0  0
   27.7932   37.2119   23.0243 C   0  0  1  0  0  0  0  0  0  0  0  0
   27.1994   36.6221   25.1582 O   0  0  0  0  0  0  0  0  0  0  0  0
   27.7246   35.6753   21.2666 C   0  0  1  0  0  0  0  0  0  0  0  0
   27.5400   35.9650   22.5710 N   0  0  0  0  0  0  0  0  0  0  0  0
   27.4620   34.3889   20.8086 C   0  0  0  0  0  0  0  0  0  0  0  0
   27.6401   34.0601   19.4693 C   0  0  2  0  0  0  0  0  0  0  0  0
   27.3379   32.6470   19.0414 C   0  0  0  0  0  0  0  0  0  0  0  0
   28.0888   35.0346   18.5688 C   0  0  2  0  0  0  0  0  0  0  0  0
   28.2869   34.7851   17.2393 N   0  0  0  0  0  0  0  0  0  0  0  0
   28.3503   36.3252   19.0450 C   0  0  0  0  0  0  0  0  0  0  0  0
   28.1743   36.6590   20.3874 C   0  0  2  0  0  0  0  0  0  0  0  0
   28.2417   38.2050   22.1480 C   0  0  2  0  0  0  0  0  0  0  0  0
   28.4334   37.9084   20.8369 N   0  0  0  0  0  0  0  0  0  0  0  0
   27.1722   34.8807   16.3159 C   0  0  0  0  0  0  0  0  0  0  0  0
   29.5857   34.4255   16.6946 C   0  0  0  0  0  0  0  0  0  0  0  0
  1  2  1  0  0  0  0
  3  1  1  1  0  0  0
  3  4  1  0  0  0  0
  3  5  1  0  0  0  0
  5  6  1  6  0  0  0
  5  7  1  0  0  0  0
  7  8  1  6  0  0  0
  7  9  1  0  0  0  0
  9 27  1  0  0  0  0
 10 11  1  0  0  0  0
 11 12  2  0  0  0  0
 11 13  1  0  0  0  0
 13 14  1  0  0  0  0
 14 16  2  0  0  0  0
 15 14  1  6  0  0  0
 15 18  1  0  0  0  0
 15 26  1  0  0  0  0
 17 19  1  6  0  0  0
 17 25  1  0  0  0  0
 17 18  1  0  0  0  0
 19 20  1  0  0  0  0
 20 21  1  1  0  0  0
 20 22  1  0  0  0  0
 22 23  1  1  0  0  0
 22 24  1  0  0  0  0
 23 28  1  0  0  0  0
 23 29  1  0  0  0  0
 25 24  1  1  0  0  0
 25 27  1  0  0  0  0
 26 10  1  1  0  0  0
 26 27  1  0  0  0  0
M  END
>  <CHROM.1>
60.13250714,63.80772305,-51.56539757,174.68019640,85.19465208,97.23981360
28.14049632,37.85095472,20.05485757,-0.55997312,1.42375973,0.77593913

>  <Name>
ligand

>  <RI>
0

>  <Rbt.Current_Directory>
/home/itssahil/PROJECTS/Mol_Feturizer/New_Systems/rnas/3F4H

>  <Rbt.Executable>
rbdock ($Id: //depot/dev/client3/rdock/2013.1/src/exe/rbdock.cxx#4 $)

>  <Rbt.Library>
libRbt.so (2013.1, Build901 2013/11/27)

>  <Rbt.Parameter_File>
/export/apps/rDock/src/rDock_2013.1_src/data/scripts/dock_solv.prm

>  <Rbt.Receptor>
prm/pocket_docking_5.prm

>  <SCORE>
-40.5399

>  <SCORE.INTER>
-22.7214

>  <SCORE.INTER.CONST>
1

>  <SCORE.INTER.POLAR>
0

>  <SCORE.INTER.ROT>
6

>  <SCORE.INTER.SOLV>
9.11598

>  <SCORE.INTER.VDW>
-25.7863

>  <SCORE.INTER.norm>
-0.783497

>  <SCORE.INTRA>
-17.8185

>  <SCORE.INTRA.DIHEDRAL>
-4.43378

>  <SCORE.INTRA.DIHEDRAL.0>
6.83446

>  <SCORE.INTRA.POLAR>
0

>  <SCORE.INTRA.POLAR.0>
0

>  <SCORE.INTRA.REPUL>
0

>  <SCORE.INTRA.REPUL.0>
0

>  <SCORE.INTRA.SOLV>
-0.168157

>  <SCORE.INTRA.SOLV.lig_0>
-26.4601

>  <SCORE.INTRA.VDW>
-15.5175

>  <SCORE.INTRA.VDW.0>
13.7853

>  <SCORE.INTRA.norm>
-0.61443

>  <SCORE.RESTR>
0

>  <SCORE.RESTR.CAVITY>
0

>  <SCORE.RESTR.norm>
0

>  <SCORE.SYSTEM>
0

>  <SCORE.SYSTEM.CONST>
0

>  <SCORE.SYSTEM.DIHEDRAL>
0

>  <SCORE.SYSTEM.SOLV>
0

>  <SCORE.SYSTEM.norm>
0

>  <SCORE.heavy>
29

>  <SCORE.norm>
-1.39793

>  <RMSD>
5.529

$$$$
ligand
 OpenBabel11021811473D
libRbt.so/2013.1/901 2013/11/27
 29 31  0  0  0  0  0  0  0  0999 V2000
   28.3517   42.0245   18.5052 C   0  0  0  0  0  0  0  0  0  0  0  0
   27.3668   43.0269   18.7772 O   0  0  0  0  0  0  0  0  0  0  0  0
   27.7396   40.9439   17.6243 C   0  0  1  0  0  0  0  0  0  0  0  0
   28.7753   40.0611   17.2043 O   0  0  0  0  0  0  0  0  0  0  0  0
   26.6668   40.1763   18.3860 C   0  0  1  0  0  0  0  0  0  0  0  0
   25.4835   40.2125   17.5967 O   0  0  0  0  0  0  0  0  0  0  0  0
   27.0263   38.7269   18.7262 C   0  0  1  0  0  0  0  0  0  0  0  0
   27.2730   38.0243   17.5076 O   0  0  0  0  0  0  0  0  0  0  0  0
   28.2667   38.5986   19.6081 C   0  0  0  0  0  0  0  0  0  0  0  0
   28.0858   39.3362   22.3274 N   0  0  0  0  0  0  0  0  0  0  0  0
   27.9987   39.7280   23.6300 C   0  0  0  0  0  0  0  0  0  0  0  0
   28.1254   40.9390   23.9397 O   0  0  0  0  0  0  0  0  0  0  0  0
   27.7793   38.8132   24.6083 N   0  0  0  0  0  0  0  0  0  0  0  0
   27.6423   37.4963   24.3121 C   0  0  0  0  0  0  0  0  0  0  0  0
   27.7276   37.0822   22.9877 C   0  0  1  0  0  0  0  0  0  0  0  0
   27.4416   36.6531   25.2211 O   0  0  0  0  0  0  0  0  0  0  0  0
   27.6684   35.3735   21.3964 C   0  0  1  0  0  0  0  0  0  0  0  0
   27.5874   35.7741   22.6818 N   0  0  0  0  0  0  0  0  0  0  0  0
   27.5235   34.0248   21.0906 C   0  0  0  0  0  0  0  0  0  0  0  0
   27.5993   33.5812   19.7749 C   0  0  2  0  0  0  0  0  0  0  0  0
   27.4344   32.1059   19.5150 C   0  0  0  0  0  0  0  0  0  0  0  0
   27.8238   34.5020   18.7436 C   0  0  2  0  0  0  0  0  0  0  0  0
   27.9104   34.1400   17.4281 N   0  0  0  0  0  0  0  0  0  0  0  0
   27.9690   35.8566   19.0671 C   0  0  0  0  0  0  0  0  0  0  0  0
   27.8950   36.3057   20.3852 C   0  0  2  0  0  0  0  0  0  0  0  0
   27.9520   38.0239   21.9786 C   0  0  2  0  0  0  0  0  0  0  0  0
   28.0402   37.6165   20.6862 N   0  0  0  0  0  0  0  0  0  0  0  0
   29.1950   34.1767   16.7552 C   0  0  0  0  0  0  0  0  0  0  0  0
   26.7565   33.7081   16.6567 C   0  0  0  0  0  0  0  0  0  0  0  0
  1  2  1  0  0  0  0
  3  1  1  1  0  0  0
  3  4  1  0  0  0  0
  3  5  1  0  0  0  0
  5  6  1  6  0  0  0
  5  7  1  0  0  0  0
  7  8  1  6  0  0  0
  7  9  1  0  0  0  0
  9 27  1  0  0  0  0
 10 11  1  0  0  0  0
 11 12  2  0  0  0  0
 11 13  1  0  0  0  0
 13 14  1  0  0  0  0
 14 16  2  0  0  0  0
 15 14  1  6  0  0  0
 15 18  1  0  0  0  0
 15 26  1  0  0  0  0
 17 19  1  6  0  0  0
 17 25  1  0  0  0  0
 17 18  1  0  0  0  0
 19 20  1  0  0  0  0
 20 21  1  1  0  0  0
 20 22  1  0  0  0  0
 22 23  1  1  0  0  0
 22 24  1  0  0  0  0
 23 28  1  0  0  0  0
 23 29  1  0  0  0  0
 25 24  1  1  0  0  0
 25 27  1  0  0  0  0
 26 10  1  1  0  0  0
 26 27  1  0  0  0  0
M  END
>  <CHROM.1>
171.68193268,126.60862474,-59.65803252,135.81055338,-108.41718766,67.49836525
27.68539124,37.56822525,20.17936415,1.67595670,-1.53537073,0.42318056

>  <Name>
ligand

>  <RI>
0

>  <Rbt.Current_Directory>
/home/itssahil/PROJECTS/Mol_Feturizer/New_Systems/rnas/3F4H

>  <Rbt.Executable>
rbdock ($Id: //depot/dev/client3/rdock/2013.1/src/exe/rbdock.cxx#4 $)

>  <Rbt.Library>
libRbt.so (2013.1, Build901 2013/11/27)

>  <Rbt.Parameter_File>
/export/apps/rDock/src/rDock_2013.1_src/data/scripts/dock_solv.prm

>  <Rbt.Receptor>
prm/pocket_docking_3.prm

>  <SCORE>
-34.5614

>  <SCORE.INTER>
-23.1532

>  <SCORE.INTER.CONST>
1

>  <SCORE.INTER.POLAR>
0

>  <SCORE.INTER.ROT>
6

>  <SCORE.INTER.SOLV>
8.37585

>  <SCORE.INTER.VDW>
-25.8274

>  <SCORE.INTER.norm>
-0.798387

>  <SCORE.INTRA>
-11.4081

>  <SCORE.INTRA.DIHEDRAL>
5.05216

>  <SCORE.INTRA.DIHEDRAL.0>
6.83446

>  <SCORE.INTRA.POLAR>
0

>  <SCORE.INTRA.POLAR.0>
0

>  <SCORE.INTRA.REPUL>
0

>  <SCORE.INTRA.REPUL.0>
0

>  <SCORE.INTRA.SOLV>
0.33998

>  <SCORE.INTRA.SOLV.lig_0>
-26.4601

>  <SCORE.INTRA.VDW>
-14.1042

>  <SCORE.INTRA.VDW.0>
13.7853

>  <SCORE.INTRA.norm>
-0.393384

>  <SCORE.RESTR>
0

>  <SCORE.RESTR.CAVITY>
0

>  <SCORE.RESTR.norm>
0

>  <SCORE.SYSTEM>
0

>  <SCORE.SYSTEM.CONST>
0

>  <SCORE.SYSTEM.DIHEDRAL>
0

>  <SCORE.SYSTEM.SOLV>
0

>  <SCORE.SYSTEM.norm>
0

>  <SCORE.heavy>
29

>  <SCORE.norm>
-1.19177

>  <RMSD>
5.540

$$$$
ligand
 OpenBabel11021811473D
libRbt.so/2013.1/901 2013/11/27
 29 31  0  0  0  0  0  0  0  0999 V2000
   29.2537   41.8413   16.4134 C   0  0  0  0  0  0  0  0  0  0  0  0
   29.6312   41.4247   15.0970 O   0  0  0  0  0  0  0  0  0  0  0  0
   28.7314   40.6408   17.1906 C   0  0  1  0  0  0  0  0  0  0  0  0
   29.7844   39.6903   17.3177 O   0  0  0  0  0  0  0  0  0  0  0  0
   28.2357   41.0680   18.5661 C   0  0  1  0  0  0  0  0  0  0  0  0
   27.1581   41.9746   18.3618 O   0  0  0  0  0  0  0  0  0  0  0  0
   27.7906   39.9215   19.4787 C   0  0  1  0  0  0  0  0  0  0  0  0
   26.8840   39.0910   18.7520 O   0  0  0  0  0  0  0  0  0  0  0  0
   28.9455   39.0498   19.9678 C   0  0  0  0  0  0  0  0  0  0  0  0
   28.6244   39.4963   22.7371 N   0  0  0  0  0  0  0  0  0  0  0  0
   28.4763   39.7479   24.0685 C   0  0  0  0  0  0  0  0  0  0  0  0
   28.7696   40.8753   24.5391 O   0  0  0  0  0  0  0  0  0  0  0  0
   28.0153   38.7812   24.9022 N   0  0  0  0  0  0  0  0  0  0  0  0
   27.6932   37.5505   24.4306 C   0  0  0  0  0  0  0  0  0  0  0  0
   27.8378   37.2799   23.0747 C   0  0  1  0  0  0  0  0  0  0  0  0
   27.2690   36.6584   25.2064 O   0  0  0  0  0  0  0  0  0  0  0  0
   27.6538   35.7984   21.2784 C   0  0  1  0  0  0  0  0  0  0  0  0
   27.5150   36.0594   22.5944 N   0  0  0  0  0  0  0  0  0  0  0  0
   27.3196   34.5390   20.7927 C   0  0  0  0  0  0  0  0  0  0  0  0
   27.4493   34.2403   19.4408 C   0  0  2  0  0  0  0  0  0  0  0  0
   27.0702   32.8554   18.9827 C   0  0  0  0  0  0  0  0  0  0  0  0
   27.9215   35.2179   18.5558 C   0  0  2  0  0  0  0  0  0  0  0  0
   28.0751   34.9970   17.2154 N   0  0  0  0  0  0  0  0  0  0  0  0
   28.2552   36.4808   19.0598 C   0  0  0  0  0  0  0  0  0  0  0  0
   28.1280   36.7845   20.4149 C   0  0  2  0  0  0  0  0  0  0  0  0
   28.3113   38.2754   22.2143 C   0  0  2  0  0  0  0  0  0  0  0  0
   28.4567   38.0073   20.8911 N   0  0  0  0  0  0  0  0  0  0  0  0
   29.2867   34.3681   16.7244 C   0  0  0  0  0  0  0  0  0  0  0  0
   27.0626   35.3649   16.2396 C   0  0  0  0  0  0  0  0  0  0  0  0
  1  2  1  0  0  0  0
  3  1  1  1  0  0  0
  3  4  1  0  0  0  0
  3  5  1  0  0  0  0
  5  6  1  6  0  0  0
  5  7  1  0  0  0  0
  7  8  1  6  0  0  0
  7  9  1  0  0  0  0
  9 27  1  0  0  0  0
 10 11  1  0  0  0  0
 11 12  2  0  0  0  0
 11 13  1  0  0  0  0
 13 14  1  0  0  0  0
 14 16  2  0  0  0  0
 15 14  1  6  0  0  0
 15 18  1  0  0  0  0
 15 26  1  0  0  0  0
 17 19  1  6  0  0  0
 17 25  1  0  0  0  0
 17 18  1  0  0  0  0
 19 20  1  0  0  0  0
 20 21  1  1  0  0  0
 20 22  1  0  0  0  0
 22 23  1  1  0  0  0
 22 24  1  0  0  0  0
 23 28  1  0  0  0  0
 23 29  1  0  0  0  0
 25 24  1  1  0  0  0
 25 27  1  0  0  0  0
 26 10  1  1  0  0  0
 26 27  1  0  0  0  0
M  END
>  <CHROM.1>
62.56087947,62.00900654,-50.24136403,177.28305833,-83.92532855,93.06378145
28.13577363,37.94321262,20.07893725,-0.92067215,1.40862455,1.10551227

>  <Name>
ligand

>  <RI>
0

>  <Rbt.Current_Directory>
/home/itssahil/PROJECTS/Mol_Feturizer/New_Systems/rnas/3F4H

>  <Rbt.Executable>
rbdock ($Id: //depot/dev/client3/rdock/2013.1/src/exe/rbdock.cxx#4 $)

>  <Rbt.Library>
libRbt.so (2013.1, Build901 2013/11/27)

>  <Rbt.Parameter_File>
/export/apps/rDock/src/rDock_2013.1_src/data/scripts/dock_solv.prm

>  <Rbt.Receptor>
prm/blind_docking_100.prm

>  <SCORE>
-40.5034

>  <SCORE.INTER>
-22.5902

>  <SCORE.INTER.CONST>
1

>  <SCORE.INTER.POLAR>
0

>  <SCORE.INTER.ROT>
6

>  <SCORE.INTER.SOLV>
9.24324

>  <SCORE.INTER.VDW>
-25.7412

>  <SCORE.INTER.norm>
-0.778972

>  <SCORE.INTRA>
-17.9132

>  <SCORE.INTRA.DIHEDRAL>
-4.44301

>  <SCORE.INTRA.DIHEDRAL.0>
6.83446

>  <SCORE.INTRA.POLAR>
0

>  <SCORE.INTRA.POLAR.0>
0

>  <SCORE.INTRA.REPUL>
0

>  <SCORE.INTRA.REPUL.0>
0

>  <SCORE.INTRA.SOLV>
-0.12531

>  <SCORE.INTRA.SOLV.lig_0>
-26.4601

>  <SCORE.INTRA.VDW>
-15.6291

>  <SCORE.INTRA.VDW.0>
13.7853

>  <SCORE.INTRA.norm>
-0.617698

>  <SCORE.RESTR>
0

>  <SCORE.RESTR.CAVITY>
0

>  <SCORE.RESTR.norm>
0

>  <SCORE.SYSTEM>
0

>  <SCORE.SYSTEM.CONST>
0

>  <SCORE.SYSTEM.DIHEDRAL>
0

>  <SCORE.SYSTEM.SOLV>
0

>  <SCORE.SYSTEM.norm>
0

>  <SCORE.heavy>
29

>  <SCORE.norm>
-1.39667

>  <RMSD>
5.542

$$$$
ligand
 OpenBabel11021811473D
libRbt.so/2013.1/901 2013/11/27
 29 31  0  0  0  0  0  0  0  0999 V2000
   29.1003   40.6151   16.9740 C   0  0  0  0  0  0  0  0  0  0  0  0
   28.5468   41.9140   16.7388 O   0  0  0  0  0  0  0  0  0  0  0  0
   27.9861   39.5783   16.9321 C   0  0  1  0  0  0  0  0  0  0  0  0
   27.4497   39.5425   15.6132 O   0  0  0  0  0  0  0  0  0  0  0  0
   28.5171   38.2056   17.3246 C   0  0  1  0  0  0  0  0  0  0  0  0
   29.6825   37.9668   16.5440 O   0  0  0  0  0  0  0  0  0  0  0  0
   28.8386   38.0370   18.8124 C   0  0  1  0  0  0  0  0  0  0  0  0
   29.9029   38.9280   19.1488 O   0  0  0  0  0  0  0  0  0  0  0  0
   27.6557   38.3425   19.7290 C   0  0  0  0  0  0  0  0  0  0  0  0
   27.8756   39.4024   22.3366 N   0  0  0  0  0  0  0  0  0  0  0  0
   27.9773   39.9482   23.5815 C   0  0  0  0  0  0  0  0  0  0  0  0
   28.0535   41.1940   23.7254 O   0  0  0  0  0  0  0  0  0  0  0  0
   28.0027   39.1514   24.6799 N   0  0  0  0  0  0  0  0  0  0  0  0
   27.9273   37.8018   24.5629 C   0  0  0  0  0  0  0  0  0  0  0  0
   27.8220   37.2311   23.2996 C   0  0  1  0  0  0  0  0  0  0  0  0
   27.9534   37.0683   25.5821 O   0  0  0  0  0  0  0  0  0  0  0  0
   27.6371   35.3361   21.9467 C   0  0  1  0  0  0  0  0  0  0  0  0
   27.7412   35.8888   23.1727 N   0  0  0  0  0  0  0  0  0  0  0  0
   27.5550   33.9533   21.8254 C   0  0  0  0  0  0  0  0  0  0  0  0
   27.4443   33.3539   20.5756 C   0  0  2  0  0  0  0  0  0  0  0  0
   27.3608   31.8503   20.5168 C   0  0  0  0  0  0  0  0  0  0  0  0
   27.4145   34.1504   19.4237 C   0  0  2  0  0  0  0  0  0  0  0  0
   27.3076   33.6324   18.1630 N   0  0  0  0  0  0  0  0  0  0  0  0
   27.4994   35.5412   19.5616 C   0  0  0  0  0  0  0  0  0  0  0  0
   27.6118   36.1465   20.8129 C   0  0  2  0  0  0  0  0  0  0  0  0
   27.7942   38.0510   22.1671 C   0  0  2  0  0  0  0  0  0  0  0  0
   27.6965   37.4912   20.9338 N   0  0  0  0  0  0  0  0  0  0  0  0
   25.9957   33.4255   17.5794 C   0  0  0  0  0  0  0  0  0  0  0  0
   28.4667   33.2758   17.3616 C   0  0  0  0  0  0  0  0  0  0  0  0
  1  2  1  0  0  0  0
  3  1  1  6  0  0  0
  3  4  1  0  0  0  0
  3  5  1  0  0  0  0
  5  6  1  6  0  0  0
  5  7  1  0  0  0  0
  7  8  1  1  0  0  0
  7  9  1  0  0  0  0
  9 27  1  0  0  0  0
 10 11  1  0  0  0  0
 11 12  2  0  0  0  0
 11 13  1  0  0  0  0
 13 14  1  0  0  0  0
 14 16  2  0  0  0  0
 15 14  1  1  0  0  0
 15 18  1  0  0  0  0
 15 26  1  0  0  0  0
 17 19  1  1  0  0  0
 17 25  1  0  0  0  0
 17 18  1  0  0  0  0
 19 20  1  0  0  0  0
 20 21  1  6  0  0  0
 20 22  1  0  0  0  0
 22 23  1  6  0  0  0
 22 24  1  0  0  0  0
 23 28  1  0  0  0  0
 23 29  1  0  0  0  0
 25 24  1  6  0  0  0
 25 27  1  0  0  0  0
 26 10  1  6  0  0  0
 26 27  1  0  0  0  0
M  END
>  <CHROM.1>
64.85857148,-50.08749132,-64.09541152,147.25122099,89.91817331,-62.05312531
27.98404326,37.21326879,20.24152274,-1.13796760,1.40687222,1.22203820

>  <Name>
ligand

>  <RI>
0

>  <Rbt.Current_Directory>
/home/itssahil/PROJECTS/Mol_Feturizer/New_Systems/rnas/3F4H

>  <Rbt.Executable>
rbdock ($Id: //depot/dev/client3/rdock/2013.1/src/exe/rbdock.cxx#4 $)

>  <Rbt.Library>
libRbt.so (2013.1, Build901 2013/11/27)

>  <Rbt.Parameter_File>
/export/apps/rDock/src/rDock_2013.1_src/data/scripts/dock_solv.prm

>  <Rbt.Receptor>
prm/pocket_docking_5.prm

>  <SCORE>
-41.1803

>  <SCORE.INTER>
-25.8433

>  <SCORE.INTER.CONST>
1

>  <SCORE.INTER.POLAR>
0

>  <SCORE.INTER.ROT>
6

>  <SCORE.INTER.SOLV>
8.97712

>  <SCORE.INTER.VDW>
-27.8212

>  <SCORE.INTER.norm>
-0.891148

>  <SCORE.INTRA>
-15.337

>  <SCORE.INTRA.DIHEDRAL>
-1.28102

>  <SCORE.INTRA.DIHEDRAL.0>
6.83446

>  <SCORE.INTRA.POLAR>
0

>  <SCORE.INTRA.POLAR.0>
0

>  <SCORE.INTRA.REPUL>
0

>  <SCORE.INTRA.REPUL.0>
0

>  <SCORE.INTRA.SOLV>
-0.378446

>  <SCORE.INTRA.SOLV.lig_0>
-26.4601

>  <SCORE.INTRA.VDW>
-14.5072

>  <SCORE.INTRA.VDW.0>
13.7853

>  <SCORE.INTRA.norm>
-0.528861

>  <SCORE.RESTR>
0

>  <SCORE.RESTR.CAVITY>
0

>  <SCORE.RESTR.norm>
0

>  <SCORE.SYSTEM>
0

>  <SCORE.SYSTEM.CONST>
0

>  <SCORE.SYSTEM.DIHEDRAL>
0

>  <SCORE.SYSTEM.SOLV>
0

>  <SCORE.SYSTEM.norm>
0

>  <SCORE.heavy>
29

>  <SCORE.norm>
-1.42001

>  <RMSD>
5.542

$$$$
ligand
 OpenBabel11021811473D
libRbt.so/2013.1/901 2013/11/27
 29 31  0  0  0  0  0  0  0  0999 V2000
   28.0235   42.1191   16.5911 C   0  0  0  0  0  0  0  0  0  0  0  0
   28.6419   42.9824   17.5509 O   0  0  0  0  0  0  0  0  0  0  0  0
   27.9227   40.7143   17.1694 C   0  0  1  0  0  0  0  0  0  0  0  0
   29.2392   40.2306   17.4169 O   0  0  0  0  0  0  0  0  0  0  0  0
   27.1114   40.7230   18.4586 C   0  0  1  0  0  0  0  0  0  0  0  0
   25.8236   41.2386   18.1414 O   0  0  0  0  0  0  0  0  0  0  0  0
   26.9762   39.3619   19.1476 C   0  0  1  0  0  0  0  0  0  0  0  0
   26.5487   38.4047   18.1778 O   0  0  0  0  0  0  0  0  0  0  0  0
   28.2796   38.8614   19.7668 C   0  0  0  0  0  0  0  0  0  0  0  0
   27.9812   39.5529   22.4878 N   0  0  0  0  0  0  0  0  0  0  0  0
   27.8377   39.9227   23.7920 C   0  0  0  0  0  0  0  0  0  0  0  0
   27.9505   41.1282   24.1273 O   0  0  0  0  0  0  0  0  0  0  0  0
   27.5766   38.9916   24.7442 N   0  0  0  0  0  0  0  0  0  0  0  0
   27.4529   37.6798   24.4201 C   0  0  0  0  0  0  0  0  0  0  0  0
   27.5955   37.2882   23.0938 C   0  0  1  0  0  0  0  0  0  0  0  0
   27.2133   36.8215   25.3052 O   0  0  0  0  0  0  0  0  0  0  0  0
   27.6056   35.6067   21.4728 C   0  0  1  0  0  0  0  0  0  0  0  0
   27.4691   35.9855   22.7601 N   0  0  0  0  0  0  0  0  0  0  0  0
   27.4745   34.2634   21.1383 C   0  0  0  0  0  0  0  0  0  0  0  0
   27.6073   33.8421   19.8197 C   0  0  2  0  0  0  0  0  0  0  0  0
   27.4542   32.3715   19.5280 C   0  0  0  0  0  0  0  0  0  0  0  0
   27.8758   34.7802   18.8148 C   0  0  2  0  0  0  0  0  0  0  0  0
   28.0193   34.4404   17.4983 N   0  0  0  0  0  0  0  0  0  0  0  0
   28.0065   36.1290   19.1671 C   0  0  0  0  0  0  0  0  0  0  0  0
   27.8754   36.5558   20.4882 C   0  0  2  0  0  0  0  0  0  0  0  0
   27.8630   38.2467   22.1114 C   0  0  2  0  0  0  0  0  0  0  0  0
   28.0071   37.8613   20.8174 N   0  0  0  0  0  0  0  0  0  0  0  0
   29.3394   34.4352   16.8968 C   0  0  0  0  0  0  0  0  0  0  0  0
   26.8925   34.0734   16.6565 C   0  0  0  0  0  0  0  0  0  0  0  0
  1  2  1  0  0  0  0
  3  1  1  1  0  0  0
  3  4  1  0  0  0  0
  3  5  1  0  0  0  0
  5  6  1  6  0  0  0
  5  7  1  0  0  0  0
  7  8  1  6  0  0  0
  7  9  1  0  0  0  0
  9 27  1  0  0  0  0
 10 11  1  0  0  0  0
 11 12  2  0  0  0  0
 11 13  1  0  0  0  0
 13 14  1  0  0  0  0
 14 16  2  0  0  0  0
 15 14  1  6  0  0  0
 15 18  1  0  0  0  0
 15 26  1  0  0  0  0
 17 19  1  6  0  0  0
 17 25  1  0  0  0  0
 17 18  1  0  0  0  0
 19 20  1  0  0  0  0
 20 21  1  1  0  0  0
 20 22  1  0  0  0  0
 22 23  1  1  0  0  0
 22 24  1  0  0  0  0
 23 28  1  0  0  0  0
 23 29  1  0  0  0  0
 25 24  1  1  0  0  0
 25 27  1  0  0  0  0
 26 10  1  1  0  0  0
 26 27  1  0  0  0  0
M  END
>  <CHROM.1>
-62.28292670,58.82956816,-49.97137405,158.44105898,-105.90475006,87.06638167
27.71219099,37.83241829,20.19262044,-1.13567793,-1.52999987,-2.91649199

>  <Name>
ligand

>  <RI>
0

>  <Rbt.Current_Directory>
/home/itssahil/PROJECTS/Mol_Feturizer/New_Systems/rnas/3F4H

>  <Rbt.Executable>
rbdock ($Id: //depot/dev/client3/rdock/2013.1/src/exe/rbdock.cxx#4 $)

>  <Rbt.Library>
libRbt.so (2013.1, Build901 2013/11/27)

>  <Rbt.Parameter_File>
/export/apps/rDock/src/rDock_2013.1_src/data/scripts/dock_solv.prm

>  <Rbt.Receptor>
prm/blind_docking_60.prm

>  <SCORE>
-39.3259

>  <SCORE.INTER>
-22.8843

>  <SCORE.INTER.CONST>
1

>  <SCORE.INTER.POLAR>
0

>  <SCORE.INTER.ROT>
6

>  <SCORE.INTER.SOLV>
8.14856

>  <SCORE.INTER.VDW>
-25.5724

>  <SCORE.INTER.norm>
-0.789115

>  <SCORE.INTRA>
-16.4416

>  <SCORE.INTRA.DIHEDRAL>
-2.95309

>  <SCORE.INTRA.DIHEDRAL.0>
6.83446

>  <SCORE.INTRA.POLAR>
0

>  <SCORE.INTRA.POLAR.0>
0

>  <SCORE.INTRA.REPUL>
0

>  <SCORE.INTRA.REPUL.0>
0

>  <SCORE.INTRA.SOLV>
0.215726

>  <SCORE.INTRA.SOLV.lig_0>
-26.4601

>  <SCORE.INTRA.VDW>
-15.0729

>  <SCORE.INTRA.VDW.0>
13.7853

>  <SCORE.INTRA.norm>
-0.566952

>  <SCORE.RESTR>
0

>  <SCORE.RESTR.CAVITY>
0

>  <SCORE.RESTR.norm>
0

>  <SCORE.SYSTEM>
0

>  <SCORE.SYSTEM.CONST>
0

>  <SCORE.SYSTEM.DIHEDRAL>
0

>  <SCORE.SYSTEM.SOLV>
0

>  <SCORE.SYSTEM.norm>
0

>  <SCORE.heavy>
29

>  <SCORE.norm>
-1.35607

>  <RMSD>
5.554

$$$$
ligand
 OpenBabel11021811473D
libRbt.so/2013.1/901 2013/11/27
 29 31  0  0  0  0  0  0  0  0999 V2000
   28.6149   41.4083   16.5474 C   0  0  0  0  0  0  0  0  0  0  0  0
   28.2573   42.7905   16.6492 O   0  0  0  0  0  0  0  0  0  0  0  0
   28.5489   40.7686   17.9274 C   0  0  1  0  0  0  0  0  0  0  0  0
   27.2026   40.8243   18.3888 O   0  0  0  0  0  0  0  0  0  0  0  0
   29.0295   39.3242   17.8715 C   0  0  1  0  0  0  0  0  0  0  0  0
   30.3577   39.3425   17.3614 O   0  0  0  0  0  0  0  0  0  0  0  0
   28.9911   38.5770   19.2079 C   0  0  1  0  0  0  0  0  0  0  0  0
   29.7013   39.3483   20.1777 O   0  0  0  0  0  0  0  0  0  0  0  0
   27.5763   38.3406   19.7323 C   0  0  0  0  0  0  0  0  0  0  0  0
   27.7292   39.3577   22.3617 N   0  0  0  0  0  0  0  0  0  0  0  0
   27.7985   39.8829   23.6176 C   0  0  0  0  0  0  0  0  0  0  0  0
   27.8581   41.1268   23.7843 O   0  0  0  0  0  0  0  0  0  0  0  0
   27.8093   39.0676   24.7025 N   0  0  0  0  0  0  0  0  0  0  0  0
   27.7512   37.7195   24.5611 C   0  0  0  0  0  0  0  0  0  0  0  0
   27.6789   37.1696   23.2863 C   0  0  1  0  0  0  0  0  0  0  0  0
   27.7635   36.9689   25.5680 O   0  0  0  0  0  0  0  0  0  0  0  0
   27.5434   35.2963   21.8978 C   0  0  1  0  0  0  0  0  0  0  0  0
   27.6154   35.8289   23.1349 N   0  0  0  0  0  0  0  0  0  0  0  0
   27.4790   33.9151   21.7512 C   0  0  0  0  0  0  0  0  0  0  0  0
   27.4013   33.3362   20.4893 C   0  0  2  0  0  0  0  0  0  0  0  0
   27.3355   31.8330   20.4032 C   0  0  0  0  0  0  0  0  0  0  0  0
   27.3873   34.1520   19.3508 C   0  0  2  0  0  0  0  0  0  0  0  0
   27.3129   33.6547   18.0794 N   0  0  0  0  0  0  0  0  0  0  0  0
   27.4541   35.5410   19.5141 C   0  0  0  0  0  0  0  0  0  0  0  0
   27.5333   36.1258   20.7776 C   0  0  2  0  0  0  0  0  0  0  0  0
   27.6662   38.0085   22.1676 C   0  0  2  0  0  0  0  0  0  0  0  0
   27.6008   37.4690   20.9232 N   0  0  0  0  0  0  0  0  0  0  0  0
   28.5317   33.3800   17.3422 C   0  0  0  0  0  0  0  0  0  0  0  0
   26.0479   33.3789   17.4187 C   0  0  0  0  0  0  0  0  0  0  0  0
  1  2  1  0  0  0  0
  3  1  1  6  0  0  0
  3  4  1  0  0  0  0
  3  5  1  0  0  0  0
  5  6  1  1  0  0  0
  5  7  1  0  0  0  0
  7  8  1  1  0  0  0
  7  9  1  0  0  0  0
  9 27  1  0  0  0  0
 10 11  1  0  0  0  0
 11 12  2  0  0  0  0
 11 13  1  0  0  0  0
 13 14  1  0  0  0  0
 14 16  2  0  0  0  0
 15 14  1  1  0  0  0
 15 18  1  0  0  0  0
 15 26  1  0  0  0  0
 17 19  1  1  0  0  0
 17 25  1  0  0  0  0
 17 18  1  0  0  0  0
 19 20  1  0  0  0  0
 20 21  1  6  0  0  0
 20 22  1  0  0  0  0
 22 23  1  6  0  0  0
 22 24  1  0  0  0  0
 23 28  1  0  0  0  0
 23 29  1  0  0  0  0
 25 24  1  6  0  0  0
 25 27  1  0  0  0  0
 26 10  1  6  0  0  0
 26 27  1  0  0  0  0
M  END
>  <CHROM.1>
63.29635012,57.94698729,-53.28697820,172.62240609,-91.91557813,-89.07466330
27.94035783,37.47021342,20.44937078,-0.29395402,-1.40779925,-2.09324993

>  <Name>
ligand

>  <RI>
0

>  <Rbt.Current_Directory>
/home/itssahil/PROJECTS/Mol_Feturizer/New_Systems/rnas/3F4H

>  <Rbt.Executable>
rbdock ($Id: //depot/dev/client3/rdock/2013.1/src/exe/rbdock.cxx#4 $)

>  <Rbt.Library>
libRbt.so (2013.1, Build901 2013/11/27)

>  <Rbt.Parameter_File>
/export/apps/rDock/src/rDock_2013.1_src/data/scripts/dock_solv.prm

>  <Rbt.Receptor>
prm/blind_docking_80.prm

>  <SCORE>
-43.2156

>  <SCORE.INTER>
-25.503

>  <SCORE.INTER.CONST>
1

>  <SCORE.INTER.POLAR>
0

>  <SCORE.INTER.ROT>
6

>  <SCORE.INTER.SOLV>
8.6821

>  <SCORE.INTER.VDW>
-27.496

>  <SCORE.INTER.norm>
-0.879414

>  <SCORE.INTRA>
-17.728

>  <SCORE.INTRA.DIHEDRAL>
-4.36266

>  <SCORE.INTRA.DIHEDRAL.0>
6.83446

>  <SCORE.INTRA.POLAR>
0

>  <SCORE.INTRA.POLAR.0>
0

>  <SCORE.INTRA.REPUL>
0

>  <SCORE.INTRA.REPUL.0>
0

>  <SCORE.INTRA.SOLV>
-0.18096

>  <SCORE.INTRA.SOLV.lig_0>
-26.4601

>  <SCORE.INTRA.VDW>
-15.4562

>  <SCORE.INTRA.VDW.0>
13.7853

>  <SCORE.INTRA.norm>
-0.611311

>  <SCORE.RESTR>
0.0154134

>  <SCORE.RESTR.CAVITY>
0.0154134

>  <SCORE.RESTR.norm>
0.000531498

>  <SCORE.SYSTEM>
0

>  <SCORE.SYSTEM.CONST>
0

>  <SCORE.SYSTEM.DIHEDRAL>
0

>  <SCORE.SYSTEM.SOLV>
0

>  <SCORE.SYSTEM.norm>
0

>  <SCORE.heavy>
29

>  <SCORE.norm>
-1.49019

>  <RMSD>
5.555

$$$$
ligand
 OpenBabel11021811473D
libRbt.so/2013.1/901 2013/11/27
 29 31  0  0  0  0  0  0  0  0999 V2000
   27.7485   39.1041   16.0520 C   0  0  0  0  0  0  0  0  0  0  0  0
   27.2106   40.3657   15.6422 O   0  0  0  0  0  0  0  0  0  0  0  0
   28.5415   39.2893   17.3384 C   0  0  1  0  0  0  0  0  0  0  0  0
   29.5600   40.2577   17.1074 O   0  0  0  0  0  0  0  0  0  0  0  0
   27.6279   39.7423   18.4700 C   0  0  1  0  0  0  0  0  0  0  0  0
   26.7048   38.6871   18.7130 O   0  0  0  0  0  0  0  0  0  0  0  0
   28.3454   40.1210   19.7690 C   0  0  1  0  0  0  0  0  0  0  0  0
   27.3605   40.3847   20.7691 O   0  0  0  0  0  0  0  0  0  0  0  0
   29.2734   39.0268   20.2928 C   0  0  0  0  0  0  0  0  0  0  0  0
   28.3238   39.2281   22.9441 N   0  0  0  0  0  0  0  0  0  0  0  0
   27.8762   39.3607   24.2248 C   0  0  0  0  0  0  0  0  0  0  0  0
   28.1307   40.4002   24.8829 O   0  0  0  0  0  0  0  0  0  0  0  0
   27.1549   38.3686   24.8055 N   0  0  0  0  0  0  0  0  0  0  0  0
   26.8650   37.2298   24.1273 C   0  0  0  0  0  0  0  0  0  0  0  0
   27.3138   37.0811   22.8199 C   0  0  1  0  0  0  0  0  0  0  0  0
   26.1989   36.3135   24.6697 O   0  0  0  0  0  0  0  0  0  0  0  0
   27.4603   35.8108   20.8654 C   0  0  1  0  0  0  0  0  0  0  0  0
   27.0261   35.9534   22.1344 N   0  0  0  0  0  0  0  0  0  0  0  0
   27.1600   34.6464   20.1672 C   0  0  0  0  0  0  0  0  0  0  0  0
   27.5912   34.4709   18.8570 C   0  0  2  0  0  0  0  0  0  0  0  0
   27.2313   33.1841   18.1599 C   0  0  0  0  0  0  0  0  0  0  0  0
   28.3367   35.4778   18.2306 C   0  0  2  0  0  0  0  0  0  0  0  0
   28.7942   35.3759   16.9463 N   0  0  0  0  0  0  0  0  0  0  0  0
   28.6324   36.6442   18.9466 C   0  0  0  0  0  0  0  0  0  0  0  0
   28.2031   36.8239   20.2612 C   0  0  2  0  0  0  0  0  0  0  0  0
   28.0558   38.1032   22.2198 C   0  0  2  0  0  0  0  0  0  0  0  0
   28.4977   37.9536   20.9445 N   0  0  0  0  0  0  0  0  0  0  0  0
   27.8863   35.6081   15.8389 C   0  0  0  0  0  0  0  0  0  0  0  0
   30.1735   35.0437   16.6299 C   0  0  0  0  0  0  0  0  0  0  0  0
  1  2  1  0  0  0  0
  3  1  1  6  0  0  0
  3  4  1  0  0  0  0
  3  5  1  0  0  0  0
  5  6  1  1  0  0  0
  5  7  1  0  0  0  0
  7  8  1  1  0  0  0
  7  9  1  0  0  0  0
  9 27  1  0  0  0  0
 10 11  1  0  0  0  0
 11 12  2  0  0  0  0
 11 13  1  0  0  0  0
 13 14  1  0  0  0  0
 14 16  2  0  0  0  0
 15 14  1  6  0  0  0
 15 18  1  0  0  0  0
 15 26  1  0  0  0  0
 17 19  1  6  0  0  0
 17 25  1  0  0  0  0
 17 18  1  0  0  0  0
 19 20  1  0  0  0  0
 20 21  1  1  0  0  0
 20 22  1  0  0  0  0
 22 23  1  1  0  0  0
 22 24  1  0  0  0  0
 23 28  1  0  0  0  0
 23 29  1  0  0  0  0
 25 24  1  1  0  0  0
 25 27  1  0  0  0  0
 26 10  1  1  0  0  0
 26 27  1  0  0  0  0
M  END
>  <CHROM.1>
-57.39861391,64.31137899,-173.95845451,-77.06005686,78.38391880,98.27369522
27.90500297,37.65512994,20.04131899,-0.69534939,1.41380771,0.52048312

>  <Name>
ligand

>  <RI>
0

>  <Rbt.Current_Directory>
/home/itssahil/PROJECTS/Mol_Feturizer/New_Systems/rnas/3F4H

>  <Rbt.Executable>
rbdock ($Id: //depot/dev/client3/rdock/2013.1/src/exe/rbdock.cxx#4 $)

>  <Rbt.Library>
libRbt.so (2013.1, Build901 2013/11/27)

>  <Rbt.Parameter_File>
/export/apps/rDock/src/rDock_2013.1_src/data/scripts/dock_solv.prm

>  <Rbt.Receptor>
prm/pocket_docking_4.prm

>  <SCORE>
-39.1891

>  <SCORE.INTER>
-21.1658

>  <SCORE.INTER.CONST>
1

>  <SCORE.INTER.POLAR>
0

>  <SCORE.INTER.ROT>
6

>  <SCORE.INTER.SOLV>
9.75708

>  <SCORE.INTER.VDW>
-24.9629

>  <SCORE.INTER.norm>
-0.729856

>  <SCORE.INTRA>
-18.0232

>  <SCORE.INTRA.DIHEDRAL>
-3.63342

>  <SCORE.INTRA.DIHEDRAL.0>
6.83446

>  <SCORE.INTRA.POLAR>
0

>  <SCORE.INTRA.POLAR.0>
0

>  <SCORE.INTRA.REPUL>
0

>  <SCORE.INTRA.REPUL.0>
0

>  <SCORE.INTRA.SOLV>
0.852356

>  <SCORE.INTRA.SOLV.lig_0>
-26.4601

>  <SCORE.INTRA.VDW>
-16.6327

>  <SCORE.INTRA.VDW.0>
13.7853

>  <SCORE.INTRA.norm>
-0.621491

>  <SCORE.RESTR>
0

>  <SCORE.RESTR.CAVITY>
0

>  <SCORE.RESTR.norm>
0

>  <SCORE.SYSTEM>
0

>  <SCORE.SYSTEM.CONST>
0

>  <SCORE.SYSTEM.DIHEDRAL>
0

>  <SCORE.SYSTEM.SOLV>
0

>  <SCORE.SYSTEM.norm>
0

>  <SCORE.heavy>
29

>  <SCORE.norm>
-1.35135

>  <RMSD>
5.570

$$$$
ligand
 OpenBabel11021811473D
libRbt.so/2013.1/901 2013/11/27
 29 31  0  0  0  0  0  0  0  0999 V2000
   27.6814   42.6106   16.7123 C   0  0  0  0  0  0  0  0  0  0  0  0
   27.7202   43.6864   17.6558 O   0  0  0  0  0  0  0  0  0  0  0  0
   27.2073   41.3444   17.4123 C   0  0  1  0  0  0  0  0  0  0  0  0
   27.0305   40.3247   16.4339 O   0  0  0  0  0  0  0  0  0  0  0  0
   28.2194   40.9014   18.4610 C   0  0  1  0  0  0  0  0  0  0  0  0
   27.9994   41.6968   19.6201 O   0  0  0  0  0  0  0  0  0  0  0  0
   28.1644   39.4151   18.8265 C   0  0  1  0  0  0  0  0  0  0  0  0
   28.4496   38.6504   17.6546 O   0  0  0  0  0  0  0  0  0  0  0  0
   29.1659   39.0173   19.9088 C   0  0  0  0  0  0  0  0  0  0  0  0
   28.8401   39.5806   22.6561 N   0  0  0  0  0  0  0  0  0  0  0  0
   28.6934   39.8876   23.9761 C   0  0  0  0  0  0  0  0  0  0  0  0
   29.0879   40.9951   24.4191 O   0  0  0  0  0  0  0  0  0  0  0  0
   28.1241   38.9977   24.8282 N   0  0  0  0  0  0  0  0  0  0  0  0
   27.6908   37.7902   24.3867 C   0  0  0  0  0  0  0  0  0  0  0  0
   27.8326   37.4639   23.0427 C   0  0  1  0  0  0  0  0  0  0  0  0
   27.1665   36.9691   25.1794 O   0  0  0  0  0  0  0  0  0  0  0  0
   27.5361   35.9514   21.2878 C   0  0  1  0  0  0  0  0  0  0  0  0
   27.3997   36.2664   22.5922 N   0  0  0  0  0  0  0  0  0  0  0  0
   27.0881   34.7162   20.8327 C   0  0  0  0  0  0  0  0  0  0  0  0
   27.2123   34.3635   19.4934 C   0  0  2  0  0  0  0  0  0  0  0  0
   26.7068   33.0086   19.0687 C   0  0  0  0  0  0  0  0  0  0  0  0
   27.7947   35.2615   18.5899 C   0  0  2  0  0  0  0  0  0  0  0  0
   27.9502   34.9842   17.2602 N   0  0  0  0  0  0  0  0  0  0  0  0
   28.2422   36.5010   19.0631 C   0  0  0  0  0  0  0  0  0  0  0  0
   28.1209   36.8584   20.4056 C   0  0  2  0  0  0  0  0  0  0  0  0
   28.4176   38.3804   22.1634 C   0  0  2  0  0  0  0  0  0  0  0  0
   28.5599   38.0575   20.8521 N   0  0  0  0  0  0  0  0  0  0  0  0
   29.0893   34.2030   16.8170 C   0  0  0  0  0  0  0  0  0  0  0  0
   27.0096   35.4395   16.2498 C   0  0  0  0  0  0  0  0  0  0  0  0
  1  2  1  0  0  0  0
  3  1  1  6  0  0  0
  3  4  1  0  0  0  0
  3  5  1  0  0  0  0
  5  6  1  1  0  0  0
  5  7  1  0  0  0  0
  7  8  1  6  0  0  0
  7  9  1  0  0  0  0
  9 27  1  0  0  0  0
 10 11  1  0  0  0  0
 11 12  2  0  0  0  0
 11 13  1  0  0  0  0
 13 14  1  0  0  0  0
 14 16  2  0  0  0  0
 15 14  1  6  0  0  0
 15 18  1  0  0  0  0
 15 26  1  0  0  0  0
 17 19  1  6  0  0  0
 17 25  1  0  0  0  0
 17 18  1  0  0  0  0
 19 20  1  0  0  0  0
 20 21  1  1  0  0  0
 20 22  1  0  0  0  0
 22 23  1  1  0  0  0
 22 24  1  0  0  0  0
 23 28  1  0  0  0  0
 23 29  1  0  0  0  0
 25 24  1  1  0  0  0
 25 27  1  0  0  0  0
 26 10  1  1  0  0  0
 26 27  1  0  0  0  0
M  END
>  <CHROM.1>
173.55909262,80.60251616,61.49450793,140.03678273,-82.77319302,61.09906189
27.93885596,38.13443101,20.13683358,-2.07300771,1.48327463,2.21968900

>  <Name>
ligand

>  <RI>
0

>  <Rbt.Current_Directory>
/home/itssahil/PROJECTS/Mol_Feturizer/New_Systems/rnas/3F4H

>  <Rbt.Executable>
rbdock ($Id: //depot/dev/client3/rdock/2013.1/src/exe/rbdock.cxx#4 $)

>  <Rbt.Library>
libRbt.so (2013.1, Build901 2013/11/27)

>  <Rbt.Parameter_File>
/export/apps/rDock/src/rDock_2013.1_src/data/scripts/dock_solv.prm

>  <Rbt.Receptor>
prm/pocket_docking_7.prm

>  <SCORE>
-35.5329

>  <SCORE.INTER>
-21.7449

>  <SCORE.INTER.CONST>
1

>  <SCORE.INTER.POLAR>
0

>  <SCORE.INTER.ROT>
6

>  <SCORE.INTER.SOLV>
8.18759

>  <SCORE.INTER.VDW>
-24.8258

>  <SCORE.INTER.norm>
-0.749824

>  <SCORE.INTRA>
-13.7892

>  <SCORE.INTRA.DIHEDRAL>
0.723636

>  <SCORE.INTRA.DIHEDRAL.0>
6.83446

>  <SCORE.INTRA.POLAR>
0

>  <SCORE.INTRA.POLAR.0>
0

>  <SCORE.INTRA.REPUL>
0

>  <SCORE.INTRA.REPUL.0>
0

>  <SCORE.INTRA.SOLV>
0.391906

>  <SCORE.INTRA.SOLV.lig_0>
-26.4601

>  <SCORE.INTRA.VDW>
-14.3469

>  <SCORE.INTRA.VDW.0>
13.7853

>  <SCORE.INTRA.norm>
-0.475488

>  <SCORE.RESTR>
0.00113238

>  <SCORE.RESTR.CAVITY>
0.00113238

>  <SCORE.RESTR.norm>
3.90477e-05

>  <SCORE.SYSTEM>
0

>  <SCORE.SYSTEM.CONST>
0

>  <SCORE.SYSTEM.DIHEDRAL>
0

>  <SCORE.SYSTEM.SOLV>
0

>  <SCORE.SYSTEM.norm>
0

>  <SCORE.heavy>
29

>  <SCORE.norm>
-1.22527

>  <RMSD>
5.596

$$$$
ligand
 OpenBabel11021811473D
libRbt.so/2013.1/901 2013/11/27
 29 31  0  0  0  0  0  0  0  0999 V2000
   30.0514   40.0991   15.7538 C   0  0  0  0  0  0  0  0  0  0  0  0
   30.0645   41.4334   16.2718 O   0  0  0  0  0  0  0  0  0  0  0  0
   30.1121   39.1101   16.9098 C   0  0  1  0  0  0  0  0  0  0  0  0
   31.2944   39.3641   17.6620 O   0  0  0  0  0  0  0  0  0  0  0  0
   28.8813   39.2472   17.7968 C   0  0  1  0  0  0  0  0  0  0  0  0
   27.7534   38.8810   17.0103 O   0  0  0  0  0  0  0  0  0  0  0  0
   28.9150   38.4175   19.0837 C   0  0  1  0  0  0  0  0  0  0  0  0
   29.9375   38.9408   19.9323 O   0  0  0  0  0  0  0  0  0  0  0  0
   27.5981   38.4401   19.8569 C   0  0  0  0  0  0  0  0  0  0  0  0
   27.8428   39.3837   22.5066 N   0  0  0  0  0  0  0  0  0  0  0  0
   27.9560   39.8738   23.7735 C   0  0  0  0  0  0  0  0  0  0  0  0
   28.0233   41.1125   23.9724 O   0  0  0  0  0  0  0  0  0  0  0  0
   28.0027   39.0287   24.8344 N   0  0  0  0  0  0  0  0  0  0  0  0
   27.9375   37.6850   24.6577 C   0  0  0  0  0  0  0  0  0  0  0  0
   27.8206   37.1708   23.3714 C   0  0  1  0  0  0  0  0  0  0  0  0
   27.9832   36.9068   25.6424 O   0  0  0  0  0  0  0  0  0  0  0  0
   27.6346   35.3369   21.9369 C   0  0  1  0  0  0  0  0  0  0  0  0
   27.7499   35.8348   23.1851 N   0  0  0  0  0  0  0  0  0  0  0  0
   27.5629   33.9603   21.7544 C   0  0  0  0  0  0  0  0  0  0  0  0
   27.4411   33.4167   20.4803 C   0  0  2  0  0  0  0  0  0  0  0  0
   27.3699   31.9165   20.3549 C   0  0  0  0  0  0  0  0  0  0  0  0
   27.3894   34.2638   19.3660 C   0  0  2  0  0  0  0  0  0  0  0  0
   27.2706   33.8021   18.0847 N   0  0  0  0  0  0  0  0  0  0  0  0
   27.4640   35.6477   19.5654 C   0  0  0  0  0  0  0  0  0  0  0  0
   27.5874   36.1972   20.8412 C   0  0  2  0  0  0  0  0  0  0  0  0
   27.7709   38.0405   22.2774 C   0  0  2  0  0  0  0  0  0  0  0  0
   27.6621   37.5358   21.0215 N   0  0  0  0  0  0  0  0  0  0  0  0
   28.4579   33.4132   17.3475 C   0  0  0  0  0  0  0  0  0  0  0  0
   25.9876   33.6758   17.4131 C   0  0  0  0  0  0  0  0  0  0  0  0
  1  2  1  0  0  0  0
  3  1  1  6  0  0  0
  3  4  1  0  0  0  0
  3  5  1  0  0  0  0
  5  6  1  6  0  0  0
  5  7  1  0  0  0  0
  7  8  1  1  0  0  0
  7  9  1  0  0  0  0
  9 27  1  0  0  0  0
 10 11  1  0  0  0  0
 11 12  2  0  0  0  0
 11 13  1  0  0  0  0
 13 14  1  0  0  0  0
 14 16  2  0  0  0  0
 15 14  1  1  0  0  0
 15 18  1  0  0  0  0
 15 26  1  0  0  0  0
 17 19  1  1  0  0  0
 17 25  1  0  0  0  0
 17 18  1  0  0  0  0
 19 20  1  0  0  0  0
 20 21  1  6  0  0  0
 20 22  1  0  0  0  0
 22 23  1  6  0  0  0
 22 24  1  0  0  0  0
 23 28  1  0  0  0  0
 23 29  1  0  0  0  0
 25 24  1  6  0  0  0
 25 27  1  0  0  0  0
 26 10  1  6  0  0  0
 26 27  1  0  0  0  0
M  END
>  <CHROM.1>
-58.30483412,64.29864096,67.18891356,175.32308507,-85.42622655,-74.94471213
28.23143820,37.25091111,20.36003873,-0.79196158,1.24365516,1.04541872

>  <Name>
ligand

>  <RI>
0

>  <Rbt.Current_Directory>
/home/itssahil/PROJECTS/Mol_Feturizer/New_Systems/rnas/3F4H

>  <Rbt.Executable>
rbdock ($Id: //depot/dev/client3/rdock/2013.1/src/exe/rbdock.cxx#4 $)

>  <Rbt.Library>
libRbt.so (2013.1, Build901 2013/11/27)

>  <Rbt.Parameter_File>
/export/apps/rDock/src/rDock_2013.1_src/data/scripts/dock_solv.prm

>  <Rbt.Receptor>
prm/pocket_docking_6.prm

>  <SCORE>
-44.855

>  <SCORE.INTER>
-27.0591

>  <SCORE.INTER.CONST>
1

>  <SCORE.INTER.POLAR>
0

>  <SCORE.INTER.ROT>
6

>  <SCORE.INTER.SOLV>
10.243

>  <SCORE.INTER.VDW>
-29.0537

>  <SCORE.INTER.norm>
-0.933074

>  <SCORE.INTRA>
-17.7959

>  <SCORE.INTRA.DIHEDRAL>
-4.44075

>  <SCORE.INTRA.DIHEDRAL.0>
6.83446

>  <SCORE.INTRA.POLAR>
0

>  <SCORE.INTRA.POLAR.0>
0

>  <SCORE.INTRA.REPUL>
0

>  <SCORE.INTRA.REPUL.0>
0

>  <SCORE.INTRA.SOLV>
-0.0155264

>  <SCORE.INTRA.SOLV.lig_0>
-26.4601

>  <SCORE.INTRA.VDW>
-15.5677

>  <SCORE.INTRA.VDW.0>
13.7853

>  <SCORE.INTRA.norm>
-0.613651

>  <SCORE.RESTR>
0

>  <SCORE.RESTR.CAVITY>
0

>  <SCORE.RESTR.norm>
0

>  <SCORE.SYSTEM>
0

>  <SCORE.SYSTEM.CONST>
0

>  <SCORE.SYSTEM.DIHEDRAL>
0

>  <SCORE.SYSTEM.SOLV>
0

>  <SCORE.SYSTEM.norm>
0

>  <SCORE.heavy>
29

>  <SCORE.norm>
-1.54672

>  <RMSD>
5.598

$$$$
ligand
 OpenBabel11021811473D
libRbt.so/2013.1/901 2013/11/27
 29 31  0  0  0  0  0  0  0  0999 V2000
   29.5083   39.7851   17.0808 C   0  0  0  0  0  0  0  0  0  0  0  0
   29.6791   39.4065   15.7109 O   0  0  0  0  0  0  0  0  0  0  0  0
   28.2497   40.6313   17.2156 C   0  0  1  0  0  0  0  0  0  0  0  0
   27.1331   39.8528   16.7967 O   0  0  0  0  0  0  0  0  0  0  0  0
   28.0644   41.0893   18.6565 C   0  0  1  0  0  0  0  0  0  0  0  0
   27.0574   42.0946   18.6518 O   0  0  0  0  0  0  0  0  0  0  0  0
   27.6939   39.9804   19.6457 C   0  0  1  0  0  0  0  0  0  0  0  0
   26.5530   39.2860   19.1400 O   0  0  0  0  0  0  0  0  0  0  0  0
   28.8111   38.9622   19.8647 C   0  0  0  0  0  0  0  0  0  0  0  0
   28.5219   39.5288   22.6154 N   0  0  0  0  0  0  0  0  0  0  0  0
   28.3871   39.8383   23.9361 C   0  0  0  0  0  0  0  0  0  0  0  0
   28.6260   41.0024   24.3440 O   0  0  0  0  0  0  0  0  0  0  0  0
   27.9984   38.8908   24.8266 N   0  0  0  0  0  0  0  0  0  0  0  0
   27.7365   37.6220   24.4234 C   0  0  0  0  0  0  0  0  0  0  0  0
   27.8685   37.2921   23.0793 C   0  0  1  0  0  0  0  0  0  0  0  0
   27.3791   36.7480   25.2515 O   0  0  0  0  0  0  0  0  0  0  0  0
   27.7316   35.7144   21.3625 C   0  0  1  0  0  0  0  0  0  0  0  0
   27.6052   36.0331   22.6670 N   0  0  0  0  0  0  0  0  0  0  0  0
   27.4590   34.4157   20.9469 C   0  0  0  0  0  0  0  0  0  0  0  0
   27.5777   34.0571   19.6087 C   0  0  2  0  0  0  0  0  0  0  0  0
   27.2680   32.6321   19.2279 C   0  0  0  0  0  0  0  0  0  0  0  0
   27.9760   35.0136   18.6662 C   0  0  2  0  0  0  0  0  0  0  0  0
   28.1145   34.7345   17.3350 N   0  0  0  0  0  0  0  0  0  0  0  0
   28.2483   36.3168   19.0998 C   0  0  0  0  0  0  0  0  0  0  0  0
   28.1318   36.6806   20.4410 C   0  0  2  0  0  0  0  0  0  0  0  0
   28.2675   38.2678   22.1605 C   0  0  2  0  0  0  0  0  0  0  0  0
   28.4008   37.9420   20.8490 N   0  0  0  0  0  0  0  0  0  0  0  0
   29.4311   34.4609   16.7908 C   0  0  0  0  0  0  0  0  0  0  0  0
   26.9847   34.6938   16.4213 C   0  0  0  0  0  0  0  0  0  0  0  0
  1  2  1  0  0  0  0
  3  1  1  1  0  0  0
  3  4  1  0  0  0  0
  3  5  1  0  0  0  0
  5  6  1  6  0  0  0
  5  7  1  0  0  0  0
  7  8  1  6  0  0  0
  7  9  1  0  0  0  0
  9 27  1  0  0  0  0
 10 11  1  0  0  0  0
 11 12  2  0  0  0  0
 11 13  1  0  0  0  0
 13 14  1  0  0  0  0
 14 16  2  0  0  0  0
 15 14  1  6  0  0  0
 15 18  1  0  0  0  0
 15 26  1  0  0  0  0
 17 19  1  6  0  0  0
 17 25  1  0  0  0  0
 17 18  1  0  0  0  0
 19 20  1  0  0  0  0
 20 21  1  1  0  0  0
 20 22  1  0  0  0  0
 22 23  1  1  0  0  0
 22 24  1  0  0  0  0
 23 28  1  0  0  0  0
 23 29  1  0  0  0  0
 25 24  1  1  0  0  0
 25 27  1  0  0  0  0
 26 10  1  1  0  0  0
 26 27  1  0  0  0  0
M  END
>  <CHROM.1>
60.72335359,167.59348859,-52.96655604,178.70651550,-98.82717169,108.46277249
28.01080498,37.75816302,20.16180321,-1.20377617,1.49806497,0.91450399

>  <Name>
ligand

>  <RI>
0

>  <Rbt.Current_Directory>
/home/itssahil/PROJECTS/Mol_Feturizer/New_Systems/rnas/3F4H

>  <Rbt.Executable>
rbdock ($Id: //depot/dev/client3/rdock/2013.1/src/exe/rbdock.cxx#4 $)

>  <Rbt.Library>
libRbt.so (2013.1, Build901 2013/11/27)

>  <Rbt.Parameter_File>
/export/apps/rDock/src/rDock_2013.1_src/data/scripts/dock_solv.prm

>  <Rbt.Receptor>
prm/pocket_docking_7.prm

>  <SCORE>
-38.2065

>  <SCORE.INTER>
-21.7088

>  <SCORE.INTER.CONST>
1

>  <SCORE.INTER.POLAR>
0

>  <SCORE.INTER.ROT>
6

>  <SCORE.INTER.SOLV>
7.80237

>  <SCORE.INTER.VDW>
-24.6733

>  <SCORE.INTER.norm>
-0.74858

>  <SCORE.INTRA>
-16.4977

>  <SCORE.INTRA.DIHEDRAL>
-4.10395

>  <SCORE.INTRA.DIHEDRAL.0>
6.83446

>  <SCORE.INTRA.POLAR>
0

>  <SCORE.INTRA.POLAR.0>
0

>  <SCORE.INTRA.REPUL>
0

>  <SCORE.INTRA.REPUL.0>
0

>  <SCORE.INTRA.SOLV>
0.111944

>  <SCORE.INTRA.SOLV.lig_0>
-26.4601

>  <SCORE.INTRA.VDW>
-14.5017

>  <SCORE.INTRA.VDW.0>
13.7853

>  <SCORE.INTRA.norm>
-0.568887

>  <SCORE.RESTR>
0

>  <SCORE.RESTR.CAVITY>
0

>  <SCORE.RESTR.norm>
0

>  <SCORE.SYSTEM>
0

>  <SCORE.SYSTEM.CONST>
0

>  <SCORE.SYSTEM.DIHEDRAL>
0

>  <SCORE.SYSTEM.SOLV>
0

>  <SCORE.SYSTEM.norm>
0

>  <SCORE.heavy>
29

>  <SCORE.norm>
-1.31747

>  <RMSD>
5.598

$$$$
ligand
 OpenBabel11021811473D
libRbt.so/2013.1/901 2013/11/27
 29 31  0  0  0  0  0  0  0  0999 V2000
   26.6851   40.2956   17.5515 C   0  0  0  0  0  0  0  0  0  0  0  0
   25.9732   41.5291   17.4080 O   0  0  0  0  0  0  0  0  0  0  0  0
   28.1720   40.5873   17.7005 C   0  0  1  0  0  0  0  0  0  0  0  0
   28.3647   41.3711   18.8739 O   0  0  0  0  0  0  0  0  0  0  0  0
   28.9652   39.2902   17.7947 C   0  0  1  0  0  0  0  0  0  0  0  0
   30.3022   39.5861   17.4079 O   0  0  0  0  0  0  0  0  0  0  0  0
   28.9533   38.6229   19.1731 C   0  0  1  0  0  0  0  0  0  0  0  0
   29.6117   39.4876   20.0997 O   0  0  0  0  0  0  0  0  0  0  0  0
   27.5479   38.3423   19.7012 C   0  0  0  0  0  0  0  0  0  0  0  0
   27.7375   39.3793   22.3204 N   0  0  0  0  0  0  0  0  0  0  0  0
   27.8238   39.9141   23.5713 C   0  0  0  0  0  0  0  0  0  0  0  0
   27.8731   41.1596   23.7283 O   0  0  0  0  0  0  0  0  0  0  0  0
   27.8630   39.1065   24.6613 N   0  0  0  0  0  0  0  0  0  0  0  0
   27.8168   37.7569   24.5301 C   0  0  0  0  0  0  0  0  0  0  0  0
   27.7273   37.1974   23.2606 C   0  0  1  0  0  0  0  0  0  0  0  0
   27.8554   37.0135   25.5417 O   0  0  0  0  0  0  0  0  0  0  0  0
   27.5869   35.3131   21.8875 C   0  0  1  0  0  0  0  0  0  0  0  0
   27.6756   35.8550   23.1195 N   0  0  0  0  0  0  0  0  0  0  0  0
   27.5347   33.9302   21.7515 C   0  0  0  0  0  0  0  0  0  0  0  0
   27.4405   33.3418   20.4952 C   0  0  2  0  0  0  0  0  0  0  0  0
   27.3893   31.8374   20.4206 C   0  0  0  0  0  0  0  0  0  0  0  0
   27.3971   34.1494   19.3516 C   0  0  2  0  0  0  0  0  0  0  0  0
   27.3051   33.6425   18.0852 N   0  0  0  0  0  0  0  0  0  0  0  0
   27.4519   35.5401   19.5043 C   0  0  0  0  0  0  0  0  0  0  0  0
   27.5477   36.1346   20.7621 C   0  0  2  0  0  0  0  0  0  0  0  0
   27.6854   38.0283   22.1366 C   0  0  2  0  0  0  0  0  0  0  0  0
   27.6034   37.4794   20.8973 N   0  0  0  0  0  0  0  0  0  0  0  0
   28.5127   33.3913   17.3217 C   0  0  0  0  0  0  0  0  0  0  0  0
   26.0319   33.3335   17.4556 C   0  0  0  0  0  0  0  0  0  0  0  0
  1  2  1  0  0  0  0
  3  1  1  1  0  0  0
  3  4  1  0  0  0  0
  3  5  1  0  0  0  0
  5  6  1  1  0  0  0
  5  7  1  0  0  0  0
  7  8  1  1  0  0  0
  7  9  1  0  0  0  0
  9 27  1  0  0  0  0
 10 11  1  0  0  0  0
 11 12  2  0  0  0  0
 11 13  1  0  0  0  0
 13 14  1  0  0  0  0
 14 16  2  0  0  0  0
 15 14  1  1  0  0  0
 15 18  1  0  0  0  0
 15 26  1  0  0  0  0
 17 19  1  1  0  0  0
 17 25  1  0  0  0  0
 17 18  1  0  0  0  0
 19 20  1  0  0  0  0
 20 21  1  6  0  0  0
 20 22  1  0  0  0  0
 22 23  1  6  0  0  0
 22 24  1  0  0  0  0
 23 28  1  0  0  0  0
 23 29  1  0  0  0  0
 25 24  1  6  0  0  0
 25 27  1  0  0  0  0
 26 10  1  6  0  0  0
 26 27  1  0  0  0  0
M  END
>  <CHROM.1>
61.31343754,157.61530222,-64.56858691,169.29378233,-92.68448701,-90.69813421
27.82357397,37.42199985,20.51018091,-0.26754159,-1.47564902,-1.69970392

>  <Name>
ligand

>  <RI>
0

>  <Rbt.Current_Directory>
/home/itssahil/PROJECTS/Mol_Feturizer/New_Systems/rnas/3F4H

>  <Rbt.Executable>
rbdock ($Id: //depot/dev/client3/rdock/2013.1/src/exe/rbdock.cxx#4 $)

>  <Rbt.Library>
libRbt.so (2013.1, Build901 2013/11/27)

>  <Rbt.Parameter_File>
/export/apps/rDock/src/rDock_2013.1_src/data/scripts/dock_solv.prm

>  <Rbt.Receptor>
prm/pocket_docking_3.prm

>  <SCORE>
-41.2456

>  <SCORE.INTER>
-25.0219

>  <SCORE.INTER.CONST>
1

>  <SCORE.INTER.POLAR>
0

>  <SCORE.INTER.ROT>
6

>  <SCORE.INTER.SOLV>
8.00699

>  <SCORE.INTER.VDW>
-26.9503

>  <SCORE.INTER.norm>
-0.862824

>  <SCORE.INTRA>
-16.2237

>  <SCORE.INTRA.DIHEDRAL>
-2.64643

>  <SCORE.INTRA.DIHEDRAL.0>
6.83446

>  <SCORE.INTRA.POLAR>
0

>  <SCORE.INTRA.POLAR.0>
0

>  <SCORE.INTRA.REPUL>
0

>  <SCORE.INTRA.REPUL.0>
0

>  <SCORE.INTRA.SOLV>
0.115278

>  <SCORE.INTRA.SOLV.lig_0>
-26.4601

>  <SCORE.INTRA.VDW>
-14.9581

>  <SCORE.INTRA.VDW.0>
13.7853

>  <SCORE.INTRA.norm>
-0.559437

>  <SCORE.RESTR>
0

>  <SCORE.RESTR.CAVITY>
0

>  <SCORE.RESTR.norm>
0

>  <SCORE.SYSTEM>
0

>  <SCORE.SYSTEM.CONST>
0

>  <SCORE.SYSTEM.DIHEDRAL>
0

>  <SCORE.SYSTEM.SOLV>
0

>  <SCORE.SYSTEM.norm>
0

>  <SCORE.heavy>
29

>  <SCORE.norm>
-1.42226

>  <RMSD>
5.602

$$$$
ligand
 OpenBabel11021811473D
libRbt.so/2013.1/901 2013/11/27
 29 31  0  0  0  0  0  0  0  0999 V2000
   30.3788   40.5736   16.1898 C   0  0  0  0  0  0  0  0  0  0  0  0
   29.2822   40.6366   15.2720 O   0  0  0  0  0  0  0  0  0  0  0  0
   30.2358   39.3324   17.0600 C   0  0  1  0  0  0  0  0  0  0  0  0
   31.3955   39.2166   17.8785 O   0  0  0  0  0  0  0  0  0  0  0  0
   28.9853   39.4261   17.9248 C   0  0  1  0  0  0  0  0  0  0  0  0
   27.8699   39.1656   17.0806 O   0  0  0  0  0  0  0  0  0  0  0  0
   28.9609   38.4838   19.1319 C   0  0  1  0  0  0  0  0  0  0  0  0
   29.9531   38.9166   20.0634 O   0  0  0  0  0  0  0  0  0  0  0  0
   27.6144   38.4524   19.8522 C   0  0  0  0  0  0  0  0  0  0  0  0
   27.8350   39.4067   22.5002 N   0  0  0  0  0  0  0  0  0  0  0  0
   27.9365   39.9020   23.7661 C   0  0  0  0  0  0  0  0  0  0  0  0
   28.0005   41.1415   23.9607 O   0  0  0  0  0  0  0  0  0  0  0  0
   27.9751   39.0611   24.8306 N   0  0  0  0  0  0  0  0  0  0  0  0
   27.9132   37.7167   24.6586 C   0  0  0  0  0  0  0  0  0  0  0  0
   27.8082   37.1972   23.3733 C   0  0  1  0  0  0  0  0  0  0  0  0
   27.9514   36.9423   25.6468 O   0  0  0  0  0  0  0  0  0  0  0  0
   27.6369   35.3575   21.9446 C   0  0  1  0  0  0  0  0  0  0  0  0
   27.7407   35.8605   23.1918 N   0  0  0  0  0  0  0  0  0  0  0  0
   27.5686   33.9801   21.7668 C   0  0  0  0  0  0  0  0  0  0  0  0
   27.4586   33.4314   20.4939 C   0  0  2  0  0  0  0  0  0  0  0  0
   27.3904   31.9306   20.3738 C   0  0  0  0  0  0  0  0  0  0  0  0
   27.4154   34.2740   19.3759 C   0  0  2  0  0  0  0  0  0  0  0  0
   27.3083   33.8072   18.0954 N   0  0  0  0  0  0  0  0  0  0  0  0
   27.4865   35.6588   19.5705 C   0  0  0  0  0  0  0  0  0  0  0  0
   27.5981   36.2134   20.8451 C   0  0  2  0  0  0  0  0  0  0  0  0
   27.7668   38.0625   22.2756 C   0  0  2  0  0  0  0  0  0  0  0  0
   27.6695   37.5528   21.0208 N   0  0  0  0  0  0  0  0  0  0  0  0
   25.9984   33.6700   17.4872 C   0  0  0  0  0  0  0  0  0  0  0  0
   28.4653   33.4381   17.2966 C   0  0  0  0  0  0  0  0  0  0  0  0
  1  2  1  0  0  0  0
  3  1  1  1  0  0  0
  3  4  1  0  0  0  0
  3  5  1  0  0  0  0
  5  6  1  6  0  0  0
  5  7  1  0  0  0  0
  7  8  1  1  0  0  0
  7  9  1  0  0  0  0
  9 27  1  0  0  0  0
 10 11  1  0  0  0  0
 11 12  2  0  0  0  0
 11 13  1  0  0  0  0
 13 14  1  0  0  0  0
 14 16  2  0  0  0  0
 15 14  1  1  0  0  0
 15 18  1  0  0  0  0
 15 26  1  0  0  0  0
 17 19  1  1  0  0  0
 17 25  1  0  0  0  0
 17 18  1  0  0  0  0
 19 20  1  0  0  0  0
 20 21  1  6  0  0  0
 20 22  1  0  0  0  0
 22 23  1  6  0  0  0
 22 24  1  0  0  0  0
 23 28  1  0  0  0  0
 23 29  1  0  0  0  0
 25 24  1  6  0  0  0
 25 27  1  0  0  0  0
 26 10  1  6  0  0  0
 26 27  1  0  0  0  0
M  END
>  <CHROM.1>
174.59507041,75.76112760,68.49114614,-178.63120757,92.80461942,-77.85975794
28.23043614,37.26937900,20.36541316,-0.82707493,1.25468591,1.04470368

>  <Name>
ligand

>  <RI>
0

>  <Rbt.Current_Directory>
/home/itssahil/PROJECTS/Mol_Feturizer/New_Systems/rnas/3F4H

>  <Rbt.Executable>
rbdock ($Id: //depot/dev/client3/rdock/2013.1/src/exe/rbdock.cxx#4 $)

>  <Rbt.Library>
libRbt.so (2013.1, Build901 2013/11/27)

>  <Rbt.Parameter_File>
/export/apps/rDock/src/rDock_2013.1_src/data/scripts/dock_solv.prm

>  <Rbt.Receptor>
prm/pocket_docking_6.prm

>  <SCORE>
-44.7263

>  <SCORE.INTER>
-27.4298

>  <SCORE.INTER.CONST>
1

>  <SCORE.INTER.POLAR>
0

>  <SCORE.INTER.ROT>
6

>  <SCORE.INTER.SOLV>
10.2155

>  <SCORE.INTER.VDW>
-29.2917

>  <SCORE.INTER.norm>
-0.945854

>  <SCORE.INTRA>
-17.2965

>  <SCORE.INTRA.DIHEDRAL>
-3.54156

>  <SCORE.INTRA.DIHEDRAL.0>
6.83446

>  <SCORE.INTRA.POLAR>
0

>  <SCORE.INTRA.POLAR.0>
0

>  <SCORE.INTRA.REPUL>
0

>  <SCORE.INTRA.REPUL.0>
0

>  <SCORE.INTRA.SOLV>
0.0019878

>  <SCORE.INTRA.SOLV.lig_0>
-26.4601

>  <SCORE.INTRA.VDW>
-15.5268

>  <SCORE.INTRA.VDW.0>
13.7853

>  <SCORE.INTRA.norm>
-0.596433

>  <SCORE.RESTR>
0

>  <SCORE.RESTR.CAVITY>
0

>  <SCORE.RESTR.norm>
0

>  <SCORE.SYSTEM>
0

>  <SCORE.SYSTEM.CONST>
0

>  <SCORE.SYSTEM.DIHEDRAL>
0

>  <SCORE.SYSTEM.SOLV>
0

>  <SCORE.SYSTEM.norm>
0

>  <SCORE.heavy>
29

>  <SCORE.norm>
-1.54229

>  <RMSD>
5.603

$$$$
ligand
 OpenBabel11021811473D
libRbt.so/2013.1/901 2013/11/27
 29 31  0  0  0  0  0  0  0  0999 V2000
   30.4447   40.4622   16.1886 C   0  0  0  0  0  0  0  0  0  0  0  0
   29.4117   40.4214   15.1986 O   0  0  0  0  0  0  0  0  0  0  0  0
   30.3014   39.2625   17.1150 C   0  0  1  0  0  0  0  0  0  0  0  0
   31.4347   39.2170   17.9763 O   0  0  0  0  0  0  0  0  0  0  0  0
   29.0200   39.3670   17.9321 C   0  0  1  0  0  0  0  0  0  0  0  0
   27.9390   39.0571   17.0602 O   0  0  0  0  0  0  0  0  0  0  0  0
   28.9678   38.4694   19.1719 C   0  0  1  0  0  0  0  0  0  0  0  0
   29.9048   38.9653   20.1288 O   0  0  0  0  0  0  0  0  0  0  0  0
   27.5918   38.4249   19.8332 C   0  0  0  0  0  0  0  0  0  0  0  0
   27.6860   39.3762   22.4898 N   0  0  0  0  0  0  0  0  0  0  0  0
   27.7268   39.8700   23.7597 C   0  0  0  0  0  0  0  0  0  0  0  0
   27.7698   41.1098   23.9588 O   0  0  0  0  0  0  0  0  0  0  0  0
   27.7268   39.0275   24.8236 N   0  0  0  0  0  0  0  0  0  0  0  0
   27.6860   37.6829   24.6471 C   0  0  0  0  0  0  0  0  0  0  0  0
   27.6428   37.1649   23.3577 C   0  0  1  0  0  0  0  0  0  0  0  0
   27.6884   36.9071   25.6348 O   0  0  0  0  0  0  0  0  0  0  0  0
   27.5530   35.3263   21.9201 C   0  0  1  0  0  0  0  0  0  0  0  0
   27.5968   35.8279   23.1714 N   0  0  0  0  0  0  0  0  0  0  0  0
   27.5063   33.9486   21.7375 C   0  0  0  0  0  0  0  0  0  0  0  0
   27.4579   33.4013   20.4601 C   0  0  2  0  0  0  0  0  0  0  0  0
   27.4101   31.9001   20.3349 C   0  0  0  0  0  0  0  0  0  0  0  0
   27.4556   34.2456   19.3425 C   0  0  2  0  0  0  0  0  0  0  0  0
   27.4096   33.7802   18.0578 N   0  0  0  0  0  0  0  0  0  0  0  0
   27.5042   35.6306   19.5421 C   0  0  0  0  0  0  0  0  0  0  0  0
   27.5541   36.1839   20.8212 C   0  0  2  0  0  0  0  0  0  0  0  0
   27.6412   38.0319   22.2605 C   0  0  2  0  0  0  0  0  0  0  0  0
   27.6043   37.5236   21.0019 N   0  0  0  0  0  0  0  0  0  0  0  0
   26.1280   33.4873   17.4445 C   0  0  0  0  0  0  0  0  0  0  0  0
   28.6050   33.5639   17.2596 C   0  0  0  0  0  0  0  0  0  0  0  0
  1  2  1  0  0  0  0
  3  1  1  6  0  0  0
  3  4  1  0  0  0  0
  3  5  1  0  0  0  0
  5  6  1  6  0  0  0
  5  7  1  0  0  0  0
  7  8  1  1  0  0  0
  7  9  1  0  0  0  0
  9 27  1  0  0  0  0
 10 11  1  0  0  0  0
 11 12  2  0  0  0  0
 11 13  1  0  0  0  0
 13 14  1  0  0  0  0
 14 16  2  0  0  0  0
 15 14  1  1  0  0  0
 15 18  1  0  0  0  0
 15 26  1  0  0  0  0
 17 19  1  1  0  0  0
 17 25  1  0  0  0  0
 17 18  1  0  0  0  0
 19 20  1  0  0  0  0
 20 21  1  6  0  0  0
 20 22  1  0  0  0  0
 22 23  1  6  0  0  0
 22 24  1  0  0  0  0
 23 28  1  0  0  0  0
 23 29  1  0  0  0  0
 25 24  1  6  0  0  0
 25 27  1  0  0  0  0
 26 10  1  6  0  0  0
 26 27  1  0  0  0  0
M  END
>  <CHROM.1>
172.20465905,74.86705361,69.40119650,178.85663269,85.83650617,-77.78417349
28.19044902,37.22813163,20.35579345,-0.75845541,1.23777292,0.92468401

>  <Name>
ligand

>  <RI>
0

>  <Rbt.Current_Directory>
/home/itssahil/PROJECTS/Mol_Feturizer/New_Systems/rnas/3F4H

>  <Rbt.Executable>
rbdock ($Id: //depot/dev/client3/rdock/2013.1/src/exe/rbdock.cxx#4 $)

>  <Rbt.Library>
libRbt.so (2013.1, Build901 2013/11/27)

>  <Rbt.Parameter_File>
/export/apps/rDock/src/rDock_2013.1_src/data/scripts/dock_solv.prm

>  <Rbt.Receptor>
prm/blind_docking_80.prm

>  <SCORE>
-44.3985

>  <SCORE.INTER>
-27.0903

>  <SCORE.INTER.CONST>
1

>  <SCORE.INTER.POLAR>
0

>  <SCORE.INTER.ROT>
6

>  <SCORE.INTER.SOLV>
10.2646

>  <SCORE.INTER.VDW>
-29.0818

>  <SCORE.INTER.norm>
-0.93415

>  <SCORE.INTRA>
-17.3081

>  <SCORE.INTRA.DIHEDRAL>
-3.46382

>  <SCORE.INTRA.DIHEDRAL.0>
6.83446

>  <SCORE.INTRA.POLAR>
0

>  <SCORE.INTRA.POLAR.0>
0

>  <SCORE.INTRA.REPUL>
0

>  <SCORE.INTRA.REPUL.0>
0

>  <SCORE.INTRA.SOLV>
-0.0233609

>  <SCORE.INTRA.SOLV.lig_0>
-26.4601

>  <SCORE.INTRA.VDW>
-15.5646

>  <SCORE.INTRA.VDW.0>
13.7853

>  <SCORE.INTRA.norm>
-0.596833

>  <SCORE.RESTR>
0

>  <SCORE.RESTR.CAVITY>
0

>  <SCORE.RESTR.norm>
0

>  <SCORE.SYSTEM>
0

>  <SCORE.SYSTEM.CONST>
0

>  <SCORE.SYSTEM.DIHEDRAL>
0

>  <SCORE.SYSTEM.SOLV>
0

>  <SCORE.SYSTEM.norm>
0

>  <SCORE.heavy>
29

>  <SCORE.norm>
-1.53098

>  <RMSD>
5.609

$$$$
ligand
 OpenBabel11021811473D
libRbt.so/2013.1/901 2013/11/27
 29 31  0  0  0  0  0  0  0  0999 V2000
   29.4548   40.1811   15.7048 C   0  0  0  0  0  0  0  0  0  0  0  0
   30.2152   39.7449   14.5733 O   0  0  0  0  0  0  0  0  0  0  0  0
   29.5943   39.1623   16.8276 C   0  0  1  0  0  0  0  0  0  0  0  0
   30.9020   39.2738   17.3808 O   0  0  0  0  0  0  0  0  0  0  0  0
   28.5428   39.4035   17.9031 C   0  0  1  0  0  0  0  0  0  0  0  0
   27.2691   39.2587   17.2856 O   0  0  0  0  0  0  0  0  0  0  0  0
   28.6418   38.4831   19.1232 C   0  0  1  0  0  0  0  0  0  0  0  0
   29.7974   38.8535   19.8763 O   0  0  0  0  0  0  0  0  0  0  0  0
   27.4275   38.5634   20.0460 C   0  0  0  0  0  0  0  0  0  0  0  0
   27.8040   39.4392   22.7036 N   0  0  0  0  0  0  0  0  0  0  0  0
   27.9795   39.8969   23.9755 C   0  0  0  0  0  0  0  0  0  0  0  0
   28.0370   41.1308   24.2051 O   0  0  0  0  0  0  0  0  0  0  0  0
   28.0996   39.0243   25.0080 N   0  0  0  0  0  0  0  0  0  0  0  0
   28.0474   37.6850   24.7975 C   0  0  0  0  0  0  0  0  0  0  0  0
   27.8675   37.2037   23.5057 C   0  0  1  0  0  0  0  0  0  0  0  0
   28.1612   36.8813   25.7560 O   0  0  0  0  0  0  0  0  0  0  0  0
   27.6324   35.4062   22.0329 C   0  0  1  0  0  0  0  0  0  0  0  0
   27.8089   35.8722   23.2863 N   0  0  0  0  0  0  0  0  0  0  0  0
   27.5739   34.0340   21.8161 C   0  0  0  0  0  0  0  0  0  0  0  0
   27.3903   33.5230   20.5359 C   0  0  2  0  0  0  0  0  0  0  0  0
   27.3375   32.0257   20.3726 C   0  0  0  0  0  0  0  0  0  0  0  0
   27.2620   34.3989   19.4504 C   0  0  2  0  0  0  0  0  0  0  0  0
   27.0796   33.9700   18.1652 N   0  0  0  0  0  0  0  0  0  0  0  0
   27.3244   35.7780   19.6842 C   0  0  0  0  0  0  0  0  0  0  0  0
   27.5096   36.2949   20.9660 C   0  0  2  0  0  0  0  0  0  0  0  0
   27.7420   38.1016   22.4411 C   0  0  2  0  0  0  0  0  0  0  0  0
   27.5716   37.6292   21.1795 N   0  0  0  0  0  0  0  0  0  0  0  0
   28.2309   33.6344   17.3488 C   0  0  0  0  0  0  0  0  0  0  0  0
   25.7629   33.8272   17.5662 C   0  0  0  0  0  0  0  0  0  0  0  0
  1  2  1  0  0  0  0
  3  1  1  6  0  0  0
  3  4  1  0  0  0  0
  3  5  1  0  0  0  0
  5  6  1  6  0  0  0
  5  7  1  0  0  0  0
  7  8  1  1  0  0  0
  7  9  1  0  0  0  0
  9 27  1  0  0  0  0
 10 11  1  0  0  0  0
 11 12  2  0  0  0  0
 11 13  1  0  0  0  0
 13 14  1  0  0  0  0
 14 16  2  0  0  0  0
 15 14  1  1  0  0  0
 15 18  1  0  0  0  0
 15 26  1  0  0  0  0
 17 19  1  1  0  0  0
 17 25  1  0  0  0  0
 17 18  1  0  0  0  0
 19 20  1  0  0  0  0
 20 21  1  6  0  0  0
 20 22  1  0  0  0  0
 22 23  1  6  0  0  0
 22 24  1  0  0  0  0
 23 28  1  0  0  0  0
 23 29  1  0  0  0  0
 25 24  1  6  0  0  0
 25 27  1  0  0  0  0
 26 10  1  6  0  0  0
 26 27  1  0  0  0  0
M  END
>  <CHROM.1>
72.97246175,60.68965043,71.06318244,178.54639162,-85.97465424,-69.28691293
28.10926461,37.25949543,20.37730949,-1.07953218,1.27184199,1.14416353

>  <Name>
ligand

>  <RI>
0

>  <Rbt.Current_Directory>
/home/itssahil/PROJECTS/Mol_Feturizer/New_Systems/rnas/3F4H

>  <Rbt.Executable>
rbdock ($Id: //depot/dev/client3/rdock/2013.1/src/exe/rbdock.cxx#4 $)

>  <Rbt.Library>
libRbt.so (2013.1, Build901 2013/11/27)

>  <Rbt.Parameter_File>
/export/apps/rDock/src/rDock_2013.1_src/data/scripts/dock_solv.prm

>  <Rbt.Receptor>
prm/pocket_docking_5.prm

>  <SCORE>
-42.8076

>  <SCORE.INTER>
-25.2318

>  <SCORE.INTER.CONST>
1

>  <SCORE.INTER.POLAR>
0

>  <SCORE.INTER.ROT>
6

>  <SCORE.INTER.SOLV>
10.7904

>  <SCORE.INTER.VDW>
-28.018

>  <SCORE.INTER.norm>
-0.870062

>  <SCORE.INTRA>
-17.5769

>  <SCORE.INTRA.DIHEDRAL>
-3.76901

>  <SCORE.INTRA.DIHEDRAL.0>
6.83446

>  <SCORE.INTRA.POLAR>
0

>  <SCORE.INTRA.POLAR.0>
0

>  <SCORE.INTRA.REPUL>
0

>  <SCORE.INTRA.REPUL.0>
0

>  <SCORE.INTRA.SOLV>
-0.403647

>  <SCORE.INTRA.SOLV.lig_0>
-26.4601

>  <SCORE.INTRA.VDW>
-15.4906

>  <SCORE.INTRA.VDW.0>
13.7853

>  <SCORE.INTRA.norm>
-0.606101

>  <SCORE.RESTR>
0.00117385

>  <SCORE.RESTR.CAVITY>
0.00117385

>  <SCORE.RESTR.norm>
4.04774e-05

>  <SCORE.SYSTEM>
0

>  <SCORE.SYSTEM.CONST>
0

>  <SCORE.SYSTEM.DIHEDRAL>
0

>  <SCORE.SYSTEM.SOLV>
0

>  <SCORE.SYSTEM.norm>
0

>  <SCORE.heavy>
29

>  <SCORE.norm>
-1.47612

>  <RMSD>
5.622

$$$$
ligand
 OpenBabel11021811473D
libRbt.so/2013.1/901 2013/11/27
 29 31  0  0  0  0  0  0  0  0999 V2000
   28.6006   40.5594   15.8595 C   0  0  0  0  0  0  0  0  0  0  0  0
   29.9999   40.7331   15.6133 O   0  0  0  0  0  0  0  0  0  0  0  0
   28.4049   39.4660   16.9008 C   0  0  1  0  0  0  0  0  0  0  0  0
   29.0226   38.2733   16.4271 O   0  0  0  0  0  0  0  0  0  0  0  0
   29.0118   39.8821   18.2346 C   0  0  1  0  0  0  0  0  0  0  0  0
   28.3060   41.0362   18.6757 O   0  0  0  0  0  0  0  0  0  0  0  0
   28.9859   38.8039   19.3220 C   0  0  1  0  0  0  0  0  0  0  0  0
   29.7045   39.2891   20.4568 O   0  0  0  0  0  0  0  0  0  0  0  0
   27.5760   38.4314   19.7760 C   0  0  0  0  0  0  0  0  0  0  0  0
   27.7616   39.3749   22.4305 N   0  0  0  0  0  0  0  0  0  0  0  0
   27.8462   39.8650   23.6997 C   0  0  0  0  0  0  0  0  0  0  0  0
   27.8986   41.1041   23.9007 O   0  0  0  0  0  0  0  0  0  0  0  0
   27.8801   39.0195   24.7607 N   0  0  0  0  0  0  0  0  0  0  0  0
   27.8304   37.6755   24.5819 C   0  0  0  0  0  0  0  0  0  0  0  0
   27.7427   37.1613   23.2933 C   0  0  1  0  0  0  0  0  0  0  0  0
   27.8642   36.8968   25.5668 O   0  0  0  0  0  0  0  0  0  0  0  0
   27.6004   35.3269   21.8543 C   0  0  1  0  0  0  0  0  0  0  0  0
   27.6874   35.8249   23.1049 N   0  0  0  0  0  0  0  0  0  0  0  0
   27.5446   33.9499   21.6696 C   0  0  0  0  0  0  0  0  0  0  0  0
   27.4520   33.4063   20.3931 C   0  0  2  0  0  0  0  0  0  0  0  0
   27.3967   31.9056   20.2654 C   0  0  0  0  0  0  0  0  0  0  0  0
   27.4140   34.2538   19.2785 C   0  0  2  0  0  0  0  0  0  0  0  0
   27.3239   33.7922   17.9948 N   0  0  0  0  0  0  0  0  0  0  0  0
   27.4725   35.6382   19.4802 C   0  0  0  0  0  0  0  0  0  0  0  0
   27.5666   36.1877   20.7584 C   0  0  2  0  0  0  0  0  0  0  0  0
   27.7061   38.0313   22.1992 C   0  0  2  0  0  0  0  0  0  0  0  0
   27.6258   37.5267   20.9411 N   0  0  0  0  0  0  0  0  0  0  0  0
   28.5256   33.3883   17.2898 C   0  0  0  0  0  0  0  0  0  0  0  0
   26.0578   33.6804   17.2895 C   0  0  0  0  0  0  0  0  0  0  0  0
  1  2  1  0  0  0  0
  3  1  1  6  0  0  0
  3  4  1  0  0  0  0
  3  5  1  0  0  0  0
  5  6  1  1  0  0  0
  5  7  1  0  0  0  0
  7  8  1  1  0  0  0
  7  9  1  0  0  0  0
  9 27  1  0  0  0  0
 10 11  1  0  0  0  0
 11 12  2  0  0  0  0
 11 13  1  0  0  0  0
 13 14  1  0  0  0  0
 14 16  2  0  0  0  0
 15 14  1  1  0  0  0
 15 18  1  0  0  0  0
 15 26  1  0  0  0  0
 17 19  1  1  0  0  0
 17 25  1  0  0  0  0
 17 18  1  0  0  0  0
 19 20  1  0  0  0  0
 20 21  1  6  0  0  0
 20 22  1  0  0  0  0
 22 23  1  6  0  0  0
 22 24  1  0  0  0  0
 23 28  1  0  0  0  0
 23 29  1  0  0  0  0
 25 24  1  6  0  0  0
 25 27  1  0  0  0  0
 26 10  1  6  0  0  0
 26 27  1  0  0  0  0
M  END
>  <CHROM.1>
-57.19681773,62.67705631,174.16384774,-172.48157201,-84.15307784,-94.64318076
28.02529247,37.33393961,20.33978373,-0.99992577,1.35729394,1.07422872

>  <Name>
ligand

>  <RI>
0

>  <Rbt.Current_Directory>
/home/itssahil/PROJECTS/Mol_Feturizer/New_Systems/rnas/3F4H

>  <Rbt.Executable>
rbdock ($Id: //depot/dev/client3/rdock/2013.1/src/exe/rbdock.cxx#4 $)

>  <Rbt.Library>
libRbt.so (2013.1, Build901 2013/11/27)

>  <Rbt.Parameter_File>
/export/apps/rDock/src/rDock_2013.1_src/data/scripts/dock_solv.prm

>  <Rbt.Receptor>
prm/blind_docking_60.prm

>  <SCORE>
-43.6811

>  <SCORE.INTER>
-25.8206

>  <SCORE.INTER.CONST>
1

>  <SCORE.INTER.POLAR>
0

>  <SCORE.INTER.ROT>
6

>  <SCORE.INTER.SOLV>
9.34548

>  <SCORE.INTER.VDW>
-27.9289

>  <SCORE.INTER.norm>
-0.890365

>  <SCORE.INTRA>
-17.8606

>  <SCORE.INTRA.DIHEDRAL>
-4.38683

>  <SCORE.INTRA.DIHEDRAL.0>
6.83446

>  <SCORE.INTRA.POLAR>
0

>  <SCORE.INTRA.POLAR.0>
0

>  <SCORE.INTRA.REPUL>
0

>  <SCORE.INTRA.REPUL.0>
0

>  <SCORE.INTRA.SOLV>
-0.0999741

>  <SCORE.INTRA.SOLV.lig_0>
-26.4601

>  <SCORE.INTRA.VDW>
-15.6172

>  <SCORE.INTRA.VDW.0>
13.7853

>  <SCORE.INTRA.norm>
-0.615881

>  <SCORE.RESTR>
0

>  <SCORE.RESTR.CAVITY>
0

>  <SCORE.RESTR.norm>
0

>  <SCORE.SYSTEM>
0

>  <SCORE.SYSTEM.CONST>
0

>  <SCORE.SYSTEM.DIHEDRAL>
0

>  <SCORE.SYSTEM.SOLV>
0

>  <SCORE.SYSTEM.norm>
0

>  <SCORE.heavy>
29

>  <SCORE.norm>
-1.50625

>  <RMSD>
5.624

$$$$
ligand
 OpenBabel11021811473D
libRbt.so/2013.1/901 2013/11/27
 29 31  0  0  0  0  0  0  0  0999 V2000
   27.8117   40.1312   15.6703 C   0  0  0  0  0  0  0  0  0  0  0  0
   27.6421   41.5042   16.0378 O   0  0  0  0  0  0  0  0  0  0  0  0
   27.6229   39.2541   16.9004 C   0  0  1  0  0  0  0  0  0  0  0  0
   27.6072   37.8913   16.4872 O   0  0  0  0  0  0  0  0  0  0  0  0
   28.7451   39.4898   17.9032 C   0  0  1  0  0  0  0  0  0  0  0  0
   28.6159   40.8270   18.3720 O   0  0  0  0  0  0  0  0  0  0  0  0
   28.7694   38.5189   19.0874 C   0  0  1  0  0  0  0  0  0  0  0  0
   29.8430   38.8889   19.9535 O   0  0  0  0  0  0  0  0  0  0  0  0
   27.4783   38.5218   19.9033 C   0  0  0  0  0  0  0  0  0  0  0  0
   27.7733   39.4497   22.5534 N   0  0  0  0  0  0  0  0  0  0  0  0
   27.9098   39.9322   23.8209 C   0  0  0  0  0  0  0  0  0  0  0  0
   27.9584   41.1705   24.0282 O   0  0  0  0  0  0  0  0  0  0  0  0
   28.0002   39.0801   24.8734 N   0  0  0  0  0  0  0  0  0  0  0  0
   27.9564   37.7368   24.6874 C   0  0  0  0  0  0  0  0  0  0  0  0
   27.8161   37.2303   23.4004 C   0  0  1  0  0  0  0  0  0  0  0  0
   28.0425   36.9521   25.6643 O   0  0  0  0  0  0  0  0  0  0  0  0
   27.6283   35.4041   21.9563 C   0  0  1  0  0  0  0  0  0  0  0  0
   27.7663   35.8946   23.2052 N   0  0  0  0  0  0  0  0  0  0  0  0
   27.5785   34.0278   21.7645 C   0  0  0  0  0  0  0  0  0  0  0  0
   27.4342   33.4917   20.4896 C   0  0  2  0  0  0  0  0  0  0  0  0
   27.3887   31.9914   20.3538 C   0  0  0  0  0  0  0  0  0  0  0  0
   27.3373   34.3462   19.3839 C   0  0  2  0  0  0  0  0  0  0  0  0
   27.1943   33.8921   18.1023 N   0  0  0  0  0  0  0  0  0  0  0  0
   27.3904   35.7297   19.5926 C   0  0  0  0  0  0  0  0  0  0  0  0
   27.5363   36.2717   20.8692 C   0  0  2  0  0  0  0  0  0  0  0  0
   27.7214   38.1071   22.3152 C   0  0  2  0  0  0  0  0  0  0  0  0
   27.5898   37.6101   21.0585 N   0  0  0  0  0  0  0  0  0  0  0  0
   28.3713   33.6498   17.2897 C   0  0  0  0  0  0  0  0  0  0  0  0
   25.8956   33.6314   17.5038 C   0  0  0  0  0  0  0  0  0  0  0  0
  1  2  1  0  0  0  0
  3  1  1  6  0  0  0
  3  4  1  0  0  0  0
  3  5  1  0  0  0  0
  5  6  1  1  0  0  0
  5  7  1  0  0  0  0
  7  8  1  1  0  0  0
  7  9  1  0  0  0  0
  9 27  1  0  0  0  0
 10 11  1  0  0  0  0
 11 12  2  0  0  0  0
 11 13  1  0  0  0  0
 13 14  1  0  0  0  0
 14 16  2  0  0  0  0
 15 14  1  1  0  0  0
 15 18  1  0  0  0  0
 15 26  1  0  0  0  0
 17 19  1  1  0  0  0
 17 25  1  0  0  0  0
 17 18  1  0  0  0  0
 19 20  1  0  0  0  0
 20 21  1  6  0  0  0
 20 22  1  0  0  0  0
 22 23  1  6  0  0  0
 22 24  1  0  0  0  0
 23 28  1  0  0  0  0
 23 29  1  0  0  0  0
 25 24  1  6  0  0  0
 25 27  1  0  0  0  0
 26 10  1  6  0  0  0
 26 27  1  0  0  0  0
M  END
>  <CHROM.1>
171.92745813,65.72125053,-178.27431925,-177.58971211,-91.11904160,-74.31115734
27.82210679,37.33750676,20.37863133,-1.82152115,1.44480396,1.74225672

>  <Name>
ligand

>  <RI>
0

>  <Rbt.Current_Directory>
/home/itssahil/PROJECTS/Mol_Feturizer/New_Systems/rnas/3F4H

>  <Rbt.Executable>
rbdock ($Id: //depot/dev/client3/rdock/2013.1/src/exe/rbdock.cxx#4 $)

>  <Rbt.Library>
libRbt.so (2013.1, Build901 2013/11/27)

>  <Rbt.Parameter_File>
/export/apps/rDock/src/rDock_2013.1_src/data/scripts/dock_solv.prm

>  <Rbt.Receptor>
prm/blind_docking_100.prm

>  <SCORE>
-43.4869

>  <SCORE.INTER>
-25.5289

>  <SCORE.INTER.CONST>
1

>  <SCORE.INTER.POLAR>
0

>  <SCORE.INTER.ROT>
6

>  <SCORE.INTER.SOLV>
9.22258

>  <SCORE.INTER.VDW>
-27.6935

>  <SCORE.INTER.norm>
-0.880307

>  <SCORE.INTRA>
-17.958

>  <SCORE.INTRA.DIHEDRAL>
-4.39674

>  <SCORE.INTRA.DIHEDRAL.0>
6.83446

>  <SCORE.INTRA.POLAR>
0

>  <SCORE.INTRA.POLAR.0>
0

>  <SCORE.INTRA.REPUL>
0

>  <SCORE.INTRA.REPUL.0>
0

>  <SCORE.INTRA.SOLV>
-0.136009

>  <SCORE.INTRA.SOLV.lig_0>
-26.4601

>  <SCORE.INTRA.VDW>
-15.6916

>  <SCORE.INTRA.VDW.0>
13.7853

>  <SCORE.INTRA.norm>
-0.61924

>  <SCORE.RESTR>
0

>  <SCORE.RESTR.CAVITY>
0

>  <SCORE.RESTR.norm>
0

>  <SCORE.SYSTEM>
0

>  <SCORE.SYSTEM.CONST>
0

>  <SCORE.SYSTEM.DIHEDRAL>
0

>  <SCORE.SYSTEM.SOLV>
0

>  <SCORE.SYSTEM.norm>
0

>  <SCORE.heavy>
29

>  <SCORE.norm>
-1.49955

>  <RMSD>
5.626

$$$$
ligand
 OpenBabel11021811473D
libRbt.so/2013.1/901 2013/11/27
 29 31  0  0  0  0  0  0  0  0999 V2000
   30.7504   39.8661   16.8205 C   0  0  0  0  0  0  0  0  0  0  0  0
   29.9217   39.6871   15.6672 O   0  0  0  0  0  0  0  0  0  0  0  0
   30.8797   38.5403   17.5578 C   0  0  1  0  0  0  0  0  0  0  0  0
   31.7438   38.7252   18.6747 O   0  0  0  0  0  0  0  0  0  0  0  0
   29.5139   38.0500   18.0212 C   0  0  1  0  0  0  0  0  0  0  0  0
   29.6359   36.6581   18.2901 O   0  0  0  0  0  0  0  0  0  0  0  0
   28.9481   38.7734   19.2468 C   0  0  1  0  0  0  0  0  0  0  0  0
   28.9071   40.1732   18.9667 O   0  0  0  0  0  0  0  0  0  0  0  0
   27.5379   38.3225   19.6222 C   0  0  0  0  0  0  0  0  0  0  0  0
   27.6791   39.2915   22.2703 N   0  0  0  0  0  0  0  0  0  0  0  0
   27.7423   39.7938   23.5359 C   0  0  0  0  0  0  0  0  0  0  0  0
   27.7881   41.0349   23.7259 O   0  0  0  0  0  0  0  0  0  0  0  0
   27.7618   38.9584   24.6053 N   0  0  0  0  0  0  0  0  0  0  0  0
   27.7186   37.6126   24.4384 C   0  0  0  0  0  0  0  0  0  0  0  0
   27.6526   37.0861   23.1535 C   0  0  1  0  0  0  0  0  0  0  0  0
   27.7390   36.8434   25.4311 O   0  0  0  0  0  0  0  0  0  0  0  0
   27.5381   35.2379   21.7299 C   0  0  1  0  0  0  0  0  0  0  0  0
   27.6040   35.7478   22.9769 N   0  0  0  0  0  0  0  0  0  0  0  0
   27.4890   33.8590   21.5574 C   0  0  0  0  0  0  0  0  0  0  0  0
   27.4180   33.3031   20.2848 C   0  0  2  0  0  0  0  0  0  0  0  0
   27.3688   31.8011   20.1704 C   0  0  0  0  0  0  0  0  0  0  0  0
   27.3952   34.1400   19.1618 C   0  0  2  0  0  0  0  0  0  0  0  0
   27.3266   33.6660   17.8813 N   0  0  0  0  0  0  0  0  0  0  0  0
   27.4467   35.5263   19.3513 C   0  0  0  0  0  0  0  0  0  0  0  0
   27.5192   36.0881   20.6255 C   0  0  2  0  0  0  0  0  0  0  0  0
   27.6309   37.9457   22.0508 C   0  0  2  0  0  0  0  0  0  0  0  0
   27.5718   37.4290   20.7964 N   0  0  0  0  0  0  0  0  0  0  0  0
   28.5483   33.3611   17.1609 C   0  0  0  0  0  0  0  0  0  0  0  0
   26.0649   33.4446   17.1943 C   0  0  0  0  0  0  0  0  0  0  0  0
  1  2  1  0  0  0  0
  3  1  1  1  0  0  0
  3  4  1  0  0  0  0
  3  5  1  0  0  0  0
  5  6  1  1  0  0  0
  5  7  1  0  0  0  0
  7  8  1  6  0  0  0
  7  9  1  0  0  0  0
  9 27  1  0  0  0  0
 10 11  1  0  0  0  0
 11 12  2  0  0  0  0
 11 13  1  0  0  0  0
 13 14  1  0  0  0  0
 14 16  2  0  0  0  0
 15 14  1  1  0  0  0
 15 18  1  0  0  0  0
 15 26  1  0  0  0  0
 17 19  1  1  0  0  0
 17 25  1  0  0  0  0
 17 18  1  0  0  0  0
 19 20  1  0  0  0  0
 20 21  1  6  0  0  0
 20 22  1  0  0  0  0
 22 23  1  6  0  0  0
 22 24  1  0  0  0  0
 23 28  1  0  0  0  0
 23 29  1  0  0  0  0
 25 24  1  6  0  0  0
 25 27  1  0  0  0  0
 26 10  1  6  0  0  0
 26 27  1  0  0  0  0
M  END
>  <CHROM.1>
178.00026216,161.22254387,55.80025717,103.58834189,-89.12714173,-98.61324053
28.28320591,36.98867437,20.30839097,-1.29193876,1.14413664,0.83667823

>  <Name>
ligand

>  <RI>
0

>  <Rbt.Current_Directory>
/home/itssahil/PROJECTS/Mol_Feturizer/New_Systems/rnas/3F4H

>  <Rbt.Executable>
rbdock ($Id: //depot/dev/client3/rdock/2013.1/src/exe/rbdock.cxx#4 $)

>  <Rbt.Library>
libRbt.so (2013.1, Build901 2013/11/27)

>  <Rbt.Parameter_File>
/export/apps/rDock/src/rDock_2013.1_src/data/scripts/dock_solv.prm

>  <Rbt.Receptor>
prm/blind_docking_80.prm

>  <SCORE>
-41.3172

>  <SCORE.INTER>
-26.0456

>  <SCORE.INTER.CONST>
1

>  <SCORE.INTER.POLAR>
0

>  <SCORE.INTER.ROT>
6

>  <SCORE.INTER.SOLV>
9.80453

>  <SCORE.INTER.VDW>
-28.2319

>  <SCORE.INTER.norm>
-0.898124

>  <SCORE.INTRA>
-15.2756

>  <SCORE.INTRA.DIHEDRAL>
0.859386

>  <SCORE.INTRA.DIHEDRAL.0>
6.83446

>  <SCORE.INTRA.POLAR>
0

>  <SCORE.INTRA.POLAR.0>
0

>  <SCORE.INTRA.REPUL>
0

>  <SCORE.INTRA.REPUL.0>
0

>  <SCORE.INTRA.SOLV>
0.510639

>  <SCORE.INTRA.SOLV.lig_0>
-26.4601

>  <SCORE.INTRA.VDW>
-15.9606

>  <SCORE.INTRA.VDW.0>
13.7853

>  <SCORE.INTRA.norm>
-0.526744

>  <SCORE.RESTR>
0.00400714

>  <SCORE.RESTR.CAVITY>
0.00400714

>  <SCORE.RESTR.norm>
0.000138177

>  <SCORE.SYSTEM>
0

>  <SCORE.SYSTEM.CONST>
0

>  <SCORE.SYSTEM.DIHEDRAL>
0

>  <SCORE.SYSTEM.SOLV>
0

>  <SCORE.SYSTEM.norm>
0

>  <SCORE.heavy>
29

>  <SCORE.norm>
-1.42473

>  <RMSD>
5.638

$$$$
ligand
 OpenBabel11021811473D
libRbt.so/2013.1/901 2013/11/27
 29 31  0  0  0  0  0  0  0  0999 V2000
   28.4572   40.1931   15.7753 C   0  0  0  0  0  0  0  0  0  0  0  0
   29.8455   40.1761   15.4271 O   0  0  0  0  0  0  0  0  0  0  0  0
   28.2221   39.2552   16.9514 C   0  0  1  0  0  0  0  0  0  0  0  0
   28.6548   37.9492   16.5831 O   0  0  0  0  0  0  0  0  0  0  0  0
   28.9819   39.7370   18.1806 C   0  0  1  0  0  0  0  0  0  0  0  0
   28.4089   40.9804   18.5684 O   0  0  0  0  0  0  0  0  0  0  0  0
   28.9791   38.7661   19.3651 C   0  0  1  0  0  0  0  0  0  0  0  0
   29.7141   39.3583   20.4368 O   0  0  0  0  0  0  0  0  0  0  0  0
   27.5787   38.4338   19.8761 C   0  0  0  0  0  0  0  0  0  0  0  0
   27.8125   39.3732   22.5283 N   0  0  0  0  0  0  0  0  0  0  0  0
   27.9201   39.8614   23.7964 C   0  0  0  0  0  0  0  0  0  0  0  0
   27.9761   41.1002   23.9983 O   0  0  0  0  0  0  0  0  0  0  0  0
   27.9733   39.0142   24.8553 N   0  0  0  0  0  0  0  0  0  0  0  0
   27.9205   37.6705   24.6754 C   0  0  0  0  0  0  0  0  0  0  0  0
   27.8094   37.1583   23.3877 C   0  0  1  0  0  0  0  0  0  0  0  0
   27.9723   36.8903   25.6583 O   0  0  0  0  0  0  0  0  0  0  0  0
   27.6411   35.3261   21.9488 C   0  0  1  0  0  0  0  0  0  0  0  0
   27.7508   35.8221   23.1983 N   0  0  0  0  0  0  0  0  0  0  0  0
   27.5820   33.9494   21.7630 C   0  0  0  0  0  0  0  0  0  0  0  0
   27.4663   33.4077   20.4875 C   0  0  2  0  0  0  0  0  0  0  0  0
   27.4087   31.9073   20.3585 C   0  0  0  0  0  0  0  0  0  0  0  0
   27.4080   34.2570   19.3752 C   0  0  2  0  0  0  0  0  0  0  0  0
   27.2945   33.7973   18.0926 N   0  0  0  0  0  0  0  0  0  0  0  0
   27.4699   35.6410   19.5779 C   0  0  0  0  0  0  0  0  0  0  0  0
   27.5873   36.1885   20.8551 C   0  0  2  0  0  0  0  0  0  0  0  0
   27.7529   38.0300   22.2958 C   0  0  2  0  0  0  0  0  0  0  0  0
   27.6497   37.5273   21.0386 N   0  0  0  0  0  0  0  0  0  0  0  0
   25.9817   33.6648   17.4897 C   0  0  0  0  0  0  0  0  0  0  0  0
   28.4474   33.4314   17.2865 C   0  0  0  0  0  0  0  0  0  0  0  0
  1  2  1  0  0  0  0
  3  1  1  6  0  0  0
  3  4  1  0  0  0  0
  3  5  1  0  0  0  0
  5  6  1  1  0  0  0
  5  7  1  0  0  0  0
  7  8  1  1  0  0  0
  7  9  1  0  0  0  0
  9 27  1  0  0  0  0
 10 11  1  0  0  0  0
 11 12  2  0  0  0  0
 11 13  1  0  0  0  0
 13 14  1  0  0  0  0
 14 16  2  0  0  0  0
 15 14  1  1  0  0  0
 15 18  1  0  0  0  0
 15 26  1  0  0  0  0
 17 19  1  1  0  0  0
 17 25  1  0  0  0  0
 17 18  1  0  0  0  0
 19 20  1  0  0  0  0
 20 21  1  6  0  0  0
 20 22  1  0  0  0  0
 22 23  1  6  0  0  0
 22 24  1  0  0  0  0
 23 28  1  0  0  0  0
 23 29  1  0  0  0  0
 25 24  1  6  0  0  0
 25 27  1  0  0  0  0
 26 10  1  6  0  0  0
 26 27  1  0  0  0  0
M  END
>  <CHROM.1>
-58.04232417,65.60160627,-179.45387835,-178.36289025,93.33598142,-92.55617527
28.01740387,37.27377740,20.39955981,-1.28075009,1.36711591,1.17284422

>  <Name>
ligand

>  <RI>
0

>  <Rbt.Current_Directory>
/home/itssahil/PROJECTS/Mol_Feturizer/New_Systems/rnas/3F4H

>  <Rbt.Executable>
rbdock ($Id: //depot/dev/client3/rdock/2013.1/src/exe/rbdock.cxx#4 $)

>  <Rbt.Library>
libRbt.so (2013.1, Build901 2013/11/27)

>  <Rbt.Parameter_File>
/export/apps/rDock/src/rDock_2013.1_src/data/scripts/dock_solv.prm

>  <Rbt.Receptor>
prm/pocket_docking_3.prm

>  <SCORE>
-44.098

>  <SCORE.INTER>
-25.8981

>  <SCORE.INTER.CONST>
1

>  <SCORE.INTER.POLAR>
0

>  <SCORE.INTER.ROT>
6

>  <SCORE.INTER.SOLV>
9.3454

>  <SCORE.INTER.VDW>
-27.9805

>  <SCORE.INTER.norm>
-0.893036

>  <SCORE.INTRA>
-18.2

>  <SCORE.INTRA.DIHEDRAL>
-4.63103

>  <SCORE.INTRA.DIHEDRAL.0>
6.83446

>  <SCORE.INTRA.POLAR>
0

>  <SCORE.INTRA.POLAR.0>
0

>  <SCORE.INTRA.REPUL>
0

>  <SCORE.INTRA.REPUL.0>
0

>  <SCORE.INTRA.SOLV>
-0.0943926

>  <SCORE.INTRA.SOLV.lig_0>
-26.4601

>  <SCORE.INTRA.VDW>
-15.8372

>  <SCORE.INTRA.VDW.0>
13.7853

>  <SCORE.INTRA.norm>
-0.627585

>  <SCORE.RESTR>
0

>  <SCORE.RESTR.CAVITY>
0

>  <SCORE.RESTR.norm>
0

>  <SCORE.SYSTEM>
0

>  <SCORE.SYSTEM.CONST>
0

>  <SCORE.SYSTEM.DIHEDRAL>
0

>  <SCORE.SYSTEM.SOLV>
0

>  <SCORE.SYSTEM.norm>
0

>  <SCORE.heavy>
29

>  <SCORE.norm>
-1.52062

>  <RMSD>
5.639

$$$$
ligand
 OpenBabel11021811473D
libRbt.so/2013.1/901 2013/11/27
 29 31  0  0  0  0  0  0  0  0999 V2000
   25.1443   41.2178   18.1467 C   0  0  0  0  0  0  0  0  0  0  0  0
   24.5995   40.1743   18.9611 O   0  0  0  0  0  0  0  0  0  0  0  0
   26.1755   40.6269   17.1951 C   0  0  1  0  0  0  0  0  0  0  0  0
   26.5214   41.6160   16.2306 O   0  0  0  0  0  0  0  0  0  0  0  0
   27.4141   40.1778   17.9597 C   0  0  1  0  0  0  0  0  0  0  0  0
   27.8664   41.2927   18.7194 O   0  0  0  0  0  0  0  0  0  0  0  0
   27.2061   38.9684   18.8760 C   0  0  1  0  0  0  0  0  0  0  0  0
   26.6734   37.8969   18.0965 O   0  0  0  0  0  0  0  0  0  0  0  0
   28.4920   38.4795   19.5396 C   0  0  0  0  0  0  0  0  0  0  0  0
   28.2742   39.2334   22.2517 N   0  0  0  0  0  0  0  0  0  0  0  0
   28.1712   39.6330   23.5508 C   0  0  0  0  0  0  0  0  0  0  0  0
   28.3480   40.8374   23.8616 O   0  0  0  0  0  0  0  0  0  0  0  0
   27.8818   38.7329   24.5245 N   0  0  0  0  0  0  0  0  0  0  0  0
   27.6892   37.4232   24.2271 C   0  0  0  0  0  0  0  0  0  0  0  0
   27.7898   37.0014   22.9062 C   0  0  1  0  0  0  0  0  0  0  0  0
   27.4236   36.5936   25.1318 O   0  0  0  0  0  0  0  0  0  0  0  0
   27.6907   35.2926   21.3170 C   0  0  1  0  0  0  0  0  0  0  0  0
   27.5948   35.7006   22.5990 N   0  0  0  0  0  0  0  0  0  0  0  0
   27.4890   33.9515   21.0099 C   0  0  0  0  0  0  0  0  0  0  0  0
   27.5785   33.5007   19.6975 C   0  0  2  0  0  0  0  0  0  0  0  0
   27.3495   32.0343   19.4359 C   0  0  0  0  0  0  0  0  0  0  0  0
   27.8748   34.4064   18.6709 C   0  0  2  0  0  0  0  0  0  0  0  0
   27.9790   34.0366   17.3588 N   0  0  0  0  0  0  0  0  0  0  0  0
   28.0767   35.7534   18.9957 C   0  0  0  0  0  0  0  0  0  0  0  0
   27.9891   36.2096   20.3105 C   0  0  2  0  0  0  0  0  0  0  0  0
   28.0865   37.9280   21.9018 C   0  0  2  0  0  0  0  0  0  0  0  0
   28.1895   37.5128   20.6130 N   0  0  0  0  0  0  0  0  0  0  0  0
   26.7787   33.7653   16.5907 C   0  0  0  0  0  0  0  0  0  0  0  0
   29.2583   33.9031   16.6816 C   0  0  0  0  0  0  0  0  0  0  0  0
  1  2  1  0  0  0  0
  3  1  1  1  0  0  0
  3  4  1  0  0  0  0
  3  5  1  0  0  0  0
  5  6  1  1  0  0  0
  5  7  1  0  0  0  0
  7  8  1  6  0  0  0
  7  9  1  0  0  0  0
  9 27  1  0  0  0  0
 10 11  1  0  0  0  0
 11 12  2  0  0  0  0
 11 13  1  0  0  0  0
 13 14  1  0  0  0  0
 14 16  2  0  0  0  0
 15 14  1  6  0  0  0
 15 18  1  0  0  0  0
 15 26  1  0  0  0  0
 17 19  1  6  0  0  0
 17 25  1  0  0  0  0
 17 18  1  0  0  0  0
 19 20  1  0  0  0  0
 20 21  1  1  0  0  0
 20 22  1  0  0  0  0
 22 23  1  1  0  0  0
 22 24  1  0  0  0  0
 23 28  1  0  0  0  0
 23 29  1  0  0  0  0
 25 24  1  1  0  0  0
 25 27  1  0  0  0  0
 26 10  1  1  0  0  0
 26 27  1  0  0  0  0
M  END
>  <CHROM.1>
169.19508979,-53.95200589,55.25915190,168.05075825,75.86762573,83.65957584
27.47509557,37.45933595,20.12629853,2.10804798,-1.37291691,0.77078769

>  <Name>
ligand

>  <RI>
0

>  <Rbt.Current_Directory>
/home/itssahil/PROJECTS/Mol_Feturizer/New_Systems/rnas/3F4H

>  <Rbt.Executable>
rbdock ($Id: //depot/dev/client3/rdock/2013.1/src/exe/rbdock.cxx#4 $)

>  <Rbt.Library>
libRbt.so (2013.1, Build901 2013/11/27)

>  <Rbt.Parameter_File>
/export/apps/rDock/src/rDock_2013.1_src/data/scripts/dock_solv.prm

>  <Rbt.Receptor>
prm/blind_docking_80.prm

>  <SCORE>
-40.5415

>  <SCORE.INTER>
-23.9032

>  <SCORE.INTER.CONST>
1

>  <SCORE.INTER.POLAR>
0

>  <SCORE.INTER.ROT>
6

>  <SCORE.INTER.SOLV>
9.50996

>  <SCORE.INTER.VDW>
-26.7055

>  <SCORE.INTER.norm>
-0.824249

>  <SCORE.INTRA>
-16.6382

>  <SCORE.INTRA.DIHEDRAL>
-3.70749

>  <SCORE.INTRA.DIHEDRAL.0>
6.83446

>  <SCORE.INTRA.POLAR>
0

>  <SCORE.INTRA.POLAR.0>
0

>  <SCORE.INTRA.REPUL>
0

>  <SCORE.INTRA.REPUL.0>
0

>  <SCORE.INTRA.SOLV>
0.258979

>  <SCORE.INTRA.SOLV.lig_0>
-26.4601

>  <SCORE.INTRA.VDW>
-14.914

>  <SCORE.INTRA.VDW.0>
13.7853

>  <SCORE.INTRA.norm>
-0.573732

>  <SCORE.RESTR>
0

>  <SCORE.RESTR.CAVITY>
0

>  <SCORE.RESTR.norm>
0

>  <SCORE.SYSTEM>
0

>  <SCORE.SYSTEM.CONST>
0

>  <SCORE.SYSTEM.DIHEDRAL>
0

>  <SCORE.SYSTEM.SOLV>
0

>  <SCORE.SYSTEM.norm>
0

>  <SCORE.heavy>
29

>  <SCORE.norm>
-1.39798

>  <RMSD>
5.642

$$$$
ligand
 OpenBabel11021811473D
libRbt.so/2013.1/901 2013/11/27
 29 31  0  0  0  0  0  0  0  0999 V2000
   28.4995   40.2388   15.7743 C   0  0  0  0  0  0  0  0  0  0  0  0
   29.8786   40.1574   15.3998 O   0  0  0  0  0  0  0  0  0  0  0  0
   28.2336   39.2792   16.9261 C   0  0  1  0  0  0  0  0  0  0  0  0
   28.6144   37.9681   16.5207 O   0  0  0  0  0  0  0  0  0  0  0  0
   29.0163   39.6984   18.1638 C   0  0  1  0  0  0  0  0  0  0  0  0
   28.4868   40.9474   18.5931 O   0  0  0  0  0  0  0  0  0  0  0  0
   28.9892   38.6925   19.3184 C   0  0  1  0  0  0  0  0  0  0  0  0
   29.7922   39.2042   20.3828 O   0  0  0  0  0  0  0  0  0  0  0  0
   27.5870   38.4309   19.8645 C   0  0  0  0  0  0  0  0  0  0  0  0
   27.8031   39.4125   22.5029 N   0  0  0  0  0  0  0  0  0  0  0  0
   27.9024   39.9209   23.7637 C   0  0  0  0  0  0  0  0  0  0  0  0
   27.9628   41.1625   23.9459 O   0  0  0  0  0  0  0  0  0  0  0  0
   27.9426   39.0909   24.8368 N   0  0  0  0  0  0  0  0  0  0  0  0
   27.8847   37.7446   24.6784 C   0  0  0  0  0  0  0  0  0  0  0  0
   27.7819   37.2119   23.3984 C   0  0  1  0  0  0  0  0  0  0  0  0
   27.9244   36.9805   25.6743 O   0  0  0  0  0  0  0  0  0  0  0  0
   27.6168   35.3573   21.9882 C   0  0  1  0  0  0  0  0  0  0  0  0
   27.7184   35.8732   23.2303 N   0  0  0  0  0  0  0  0  0  0  0  0
   27.5525   33.9780   21.8244 C   0  0  0  0  0  0  0  0  0  0  0  0
   27.4449   33.4161   20.5570 C   0  0  2  0  0  0  0  0  0  0  0  0
   27.3811   31.9140   20.4520 C   0  0  0  0  0  0  0  0  0  0  0  0
   27.4001   34.2473   19.4304 C   0  0  2  0  0  0  0  0  0  0  0  0
   27.2952   33.7672   18.1546 N   0  0  0  0  0  0  0  0  0  0  0  0
   27.4672   35.6342   19.6111 C   0  0  0  0  0  0  0  0  0  0  0  0
   27.5764   36.2020   20.8801 C   0  0  2  0  0  0  0  0  0  0  0  0
   27.7389   38.0660   22.2919 C   0  0  2  0  0  0  0  0  0  0  0  0
   27.6438   37.5433   21.0423 N   0  0  0  0  0  0  0  0  0  0  0  0
   28.4961   33.4983   17.3865 C   0  0  0  0  0  0  0  0  0  0  0  0
   26.0146   33.5043   17.5193 C   0  0  0  0  0  0  0  0  0  0  0  0
  1  2  1  0  0  0  0
  3  1  1  6  0  0  0
  3  4  1  0  0  0  0
  3  5  1  0  0  0  0
  5  6  1  1  0  0  0
  5  7  1  0  0  0  0
  7  8  1  1  0  0  0
  7  9  1  0  0  0  0
  9 27  1  0  0  0  0
 10 11  1  0  0  0  0
 11 12  2  0  0  0  0
 11 13  1  0  0  0  0
 13 14  1  0  0  0  0
 14 16  2  0  0  0  0
 15 14  1  1  0  0  0
 15 18  1  0  0  0  0
 15 26  1  0  0  0  0
 17 19  1  1  0  0  0
 17 25  1  0  0  0  0
 17 18  1  0  0  0  0
 19 20  1  0  0  0  0
 20 21  1  6  0  0  0
 20 22  1  0  0  0  0
 22 23  1  6  0  0  0
 22 24  1  0  0  0  0
 23 28  1  0  0  0  0
 23 29  1  0  0  0  0
 25 24  1  6  0  0  0
 25 27  1  0  0  0  0
 26 10  1  6  0  0  0
 26 27  1  0  0  0  0
M  END
>  <CHROM.1>
-56.82658889,65.99640916,178.34405076,-175.29444640,-91.52817622,-89.76511327
28.01806317,37.28181280,20.40813280,-1.22398761,1.36063083,1.13610900

>  <Name>
ligand

>  <RI>
0

>  <Rbt.Current_Directory>
/home/itssahil/PROJECTS/Mol_Feturizer/New_Systems/rnas/3F4H

>  <Rbt.Executable>
rbdock ($Id: //depot/dev/client3/rdock/2013.1/src/exe/rbdock.cxx#4 $)

>  <Rbt.Library>
libRbt.so (2013.1, Build901 2013/11/27)

>  <Rbt.Parameter_File>
/export/apps/rDock/src/rDock_2013.1_src/data/scripts/dock_solv.prm

>  <Rbt.Receptor>
prm/pocket_docking_6.prm

>  <SCORE>
-44.034

>  <SCORE.INTER>
-25.861

>  <SCORE.INTER.CONST>
1

>  <SCORE.INTER.POLAR>
0

>  <SCORE.INTER.ROT>
6

>  <SCORE.INTER.SOLV>
9.49983

>  <SCORE.INTER.VDW>
-28.0073

>  <SCORE.INTER.norm>
-0.89176

>  <SCORE.INTRA>
-18.1729

>  <SCORE.INTRA.DIHEDRAL>
-4.51186

>  <SCORE.INTRA.DIHEDRAL.0>
6.83446

>  <SCORE.INTRA.POLAR>
0

>  <SCORE.INTRA.POLAR.0>
0

>  <SCORE.INTRA.REPUL>
0

>  <SCORE.INTRA.REPUL.0>
0

>  <SCORE.INTRA.SOLV>
-0.109417

>  <SCORE.INTRA.SOLV.lig_0>
-26.4601

>  <SCORE.INTRA.VDW>
-15.8623

>  <SCORE.INTRA.VDW.0>
13.7853

>  <SCORE.INTRA.norm>
-0.626652

>  <SCORE.RESTR>
0

>  <SCORE.RESTR.CAVITY>
0

>  <SCORE.RESTR.norm>
0

>  <SCORE.SYSTEM>
0

>  <SCORE.SYSTEM.CONST>
0

>  <SCORE.SYSTEM.DIHEDRAL>
0

>  <SCORE.SYSTEM.SOLV>
0

>  <SCORE.SYSTEM.norm>
0

>  <SCORE.heavy>
29

>  <SCORE.norm>
-1.51841

>  <RMSD>
5.642

$$$$
ligand
 OpenBabel11021811473D
libRbt.so/2013.1/901 2013/11/27
 29 31  0  0  0  0  0  0  0  0999 V2000
   27.0830   42.9658   17.3759 C   0  0  0  0  0  0  0  0  0  0  0  0
   27.9165   42.5351   16.2948 O   0  0  0  0  0  0  0  0  0  0  0  0
   26.6191   41.7513   18.1682 C   0  0  1  0  0  0  0  0  0  0  0  0
   25.8968   40.8891   17.2945 O   0  0  0  0  0  0  0  0  0  0  0  0
   27.8108   41.0172   18.7695 C   0  0  1  0  0  0  0  0  0  0  0  0
   28.4398   41.9117   19.6799 O   0  0  0  0  0  0  0  0  0  0  0  0
   27.4712   39.7018   19.4766 C   0  0  1  0  0  0  0  0  0  0  0  0
   26.8163   38.8424   18.5427 O   0  0  0  0  0  0  0  0  0  0  0  0
   28.6964   38.9686   20.0187 C   0  0  0  0  0  0  0  0  0  0  0  0
   28.4565   39.6302   22.7529 N   0  0  0  0  0  0  0  0  0  0  0  0
   28.3455   39.9854   24.0643 C   0  0  0  0  0  0  0  0  0  0  0  0
   28.5927   41.1625   24.4274 O   0  0  0  0  0  0  0  0  0  0  0  0
   27.9716   39.0698   24.9937 N   0  0  0  0  0  0  0  0  0  0  0  0
   27.7014   37.7883   24.6393 C   0  0  0  0  0  0  0  0  0  0  0  0
   27.8092   37.4120   23.3053 C   0  0  1  0  0  0  0  0  0  0  0  0
   27.3578   36.9440   25.5033 O   0  0  0  0  0  0  0  0  0  0  0  0
   27.6403   35.7761   21.6467 C   0  0  1  0  0  0  0  0  0  0  0  0
   27.5373   36.1399   22.9415 N   0  0  0  0  0  0  0  0  0  0  0  0
   27.3591   34.4643   21.2812 C   0  0  0  0  0  0  0  0  0  0  0  0
   27.4537   34.0595   19.9542 C   0  0  2  0  0  0  0  0  0  0  0  0
   27.1358   32.6228   19.6284 C   0  0  0  0  0  0  0  0  0  0  0  0
   27.8362   34.9822   18.9723 C   0  0  2  0  0  0  0  0  0  0  0  0
   27.9507   34.6571   17.6493 N   0  0  0  0  0  0  0  0  0  0  0  0
   28.1174   36.2992   19.3558 C   0  0  0  0  0  0  0  0  0  0  0  0
   28.0251   36.7093   20.6854 C   0  0  2  0  0  0  0  0  0  0  0  0
   28.1928   38.3547   22.3464 C   0  0  2  0  0  0  0  0  0  0  0  0
   28.3025   37.9836   21.0448 N   0  0  0  0  0  0  0  0  0  0  0  0
   26.7574   34.5271   16.8349 C   0  0  0  0  0  0  0  0  0  0  0  0
   29.2348   34.4349   17.0054 C   0  0  0  0  0  0  0  0  0  0  0  0
  1  2  1  0  0  0  0
  3  1  1  6  0  0  0
  3  4  1  0  0  0  0
  3  5  1  0  0  0  0
  5  6  1  1  0  0  0
  5  7  1  0  0  0  0
  7  8  1  6  0  0  0
  7  9  1  0  0  0  0
  9 27  1  0  0  0  0
 10 11  1  0  0  0  0
 11 12  2  0  0  0  0
 11 13  1  0  0  0  0
 13 14  1  0  0  0  0
 14 16  2  0  0  0  0
 15 14  1  6  0  0  0
 15 18  1  0  0  0  0
 15 26  1  0  0  0  0
 17 19  1  6  0  0  0
 17 25  1  0  0  0  0
 17 18  1  0  0  0  0
 19 20  1  0  0  0  0
 20 21  1  1  0  0  0
 20 22  1  0  0  0  0
 22 23  1  1  0  0  0
 22 24  1  0  0  0  0
 23 28  1  0  0  0  0
 23 29  1  0  0  0  0
 25 24  1  1  0  0  0
 25 27  1  0  0  0  0
 26 10  1  1  0  0  0
 26 27  1  0  0  0  0
M  END
>  <CHROM.1>
-59.41306268,62.92963042,57.59672245,161.27391416,77.30498952,91.22604522
27.73290604,38.07516082,20.43444671,1.89480293,-1.49114100,0.02277824

>  <Name>
ligand

>  <RI>
0

>  <Rbt.Current_Directory>
/home/itssahil/PROJECTS/Mol_Feturizer/New_Systems/rnas/3F4H

>  <Rbt.Executable>
rbdock ($Id: //depot/dev/client3/rdock/2013.1/src/exe/rbdock.cxx#4 $)

>  <Rbt.Library>
libRbt.so (2013.1, Build901 2013/11/27)

>  <Rbt.Parameter_File>
/export/apps/rDock/src/rDock_2013.1_src/data/scripts/dock_solv.prm

>  <Rbt.Receptor>
prm/pocket_docking_3.prm

>  <SCORE>
-39.9934

>  <SCORE.INTER>
-22.8559

>  <SCORE.INTER.CONST>
1

>  <SCORE.INTER.POLAR>
0

>  <SCORE.INTER.ROT>
6

>  <SCORE.INTER.SOLV>
8.5742

>  <SCORE.INTER.VDW>
-25.6954

>  <SCORE.INTER.norm>
-0.788136

>  <SCORE.INTRA>
-17.1374

>  <SCORE.INTRA.DIHEDRAL>
-3.61769

>  <SCORE.INTRA.DIHEDRAL.0>
6.83446

>  <SCORE.INTRA.POLAR>
0

>  <SCORE.INTRA.POLAR.0>
0

>  <SCORE.INTRA.REPUL>
0

>  <SCORE.INTRA.REPUL.0>
0

>  <SCORE.INTRA.SOLV>
0.0597137

>  <SCORE.INTRA.SOLV.lig_0>
-26.4601

>  <SCORE.INTRA.VDW>
-15.3584

>  <SCORE.INTRA.VDW.0>
13.7853

>  <SCORE.INTRA.norm>
-0.590946

>  <SCORE.RESTR>
0

>  <SCORE.RESTR.CAVITY>
0

>  <SCORE.RESTR.norm>
0

>  <SCORE.SYSTEM>
0

>  <SCORE.SYSTEM.CONST>
0

>  <SCORE.SYSTEM.DIHEDRAL>
0

>  <SCORE.SYSTEM.SOLV>
0

>  <SCORE.SYSTEM.norm>
0

>  <SCORE.heavy>
29

>  <SCORE.norm>
-1.37908

>  <RMSD>
5.644

$$$$
ligand
 OpenBabel11021811473D
libRbt.so/2013.1/901 2013/11/27
 29 31  0  0  0  0  0  0  0  0999 V2000
   29.2294   39.8227   15.7058 C   0  0  0  0  0  0  0  0  0  0  0  0
   28.5411   41.0770   15.7506 O   0  0  0  0  0  0  0  0  0  0  0  0
   28.8079   38.9747   16.8979 C   0  0  1  0  0  0  0  0  0  0  0  0
   29.3827   37.6791   16.7584 O   0  0  0  0  0  0  0  0  0  0  0  0
   29.2643   39.6183   18.2009 C   0  0  1  0  0  0  0  0  0  0  0  0
   28.4856   40.7951   18.3839 O   0  0  0  0  0  0  0  0  0  0  0  0
   29.1581   38.7215   19.4379 C   0  0  1  0  0  0  0  0  0  0  0  0
   29.7795   39.3904   20.5360 O   0  0  0  0  0  0  0  0  0  0  0  0
   27.7187   38.3969   19.8323 C   0  0  0  0  0  0  0  0  0  0  0  0
   27.7929   39.3664   22.4829 N   0  0  0  0  0  0  0  0  0  0  0  0
   27.8252   39.8691   23.7495 C   0  0  0  0  0  0  0  0  0  0  0  0
   27.8962   41.1089   23.9400 O   0  0  0  0  0  0  0  0  0  0  0  0
   27.7862   39.0353   24.8196 N   0  0  0  0  0  0  0  0  0  0  0  0
   27.7144   37.6907   24.6525 C   0  0  0  0  0  0  0  0  0  0  0  0
   27.6794   37.1639   23.3664 C   0  0  1  0  0  0  0  0  0  0  0  0
   27.6807   36.9229   25.6459 O   0  0  0  0  0  0  0  0  0  0  0  0
   27.5669   35.3168   21.9412 C   0  0  1  0  0  0  0  0  0  0  0  0
   27.6027   35.8270   23.1893 N   0  0  0  0  0  0  0  0  0  0  0  0
   27.4884   33.9393   21.7682 C   0  0  0  0  0  0  0  0  0  0  0  0
   27.4474   33.3833   20.4943 C   0  0  2  0  0  0  0  0  0  0  0  0
   27.3637   31.8829   20.3796 C   0  0  0  0  0  0  0  0  0  0  0  0
   27.4849   34.2186   19.3706 C   0  0  2  0  0  0  0  0  0  0  0  0
   27.4485   33.7443   18.0888 N   0  0  0  0  0  0  0  0  0  0  0  0
   27.5653   35.6035   19.5606 C   0  0  0  0  0  0  0  0  0  0  0  0
   27.6080   36.1654   20.8362 C   0  0  2  0  0  0  0  0  0  0  0  0
   27.7179   38.0219   22.2629 C   0  0  2  0  0  0  0  0  0  0  0  0
   27.6890   37.5048   21.0077 N   0  0  0  0  0  0  0  0  0  0  0  0
   28.6777   33.6398   17.3256 C   0  0  0  0  0  0  0  0  0  0  0  0
   26.2150   33.3280   17.4422 C   0  0  0  0  0  0  0  0  0  0  0  0
  1  2  1  0  0  0  0
  3  1  1  6  0  0  0
  3  4  1  0  0  0  0
  3  5  1  0  0  0  0
  5  6  1  1  0  0  0
  5  7  1  0  0  0  0
  7  8  1  1  0  0  0
  7  9  1  0  0  0  0
  9 27  1  0  0  0  0
 10 11  1  0  0  0  0
 11 12  2  0  0  0  0
 11 13  1  0  0  0  0
 13 14  1  0  0  0  0
 14 16  2  0  0  0  0
 15 14  1  1  0  0  0
 15 18  1  0  0  0  0
 15 26  1  0  0  0  0
 17 19  1  1  0  0  0
 17 25  1  0  0  0  0
 17 18  1  0  0  0  0
 19 20  1  0  0  0  0
 20 21  1  6  0  0  0
 20 22  1  0  0  0  0
 22 23  1  6  0  0  0
 22 24  1  0  0  0  0
 23 28  1  0  0  0  0
 23 29  1  0  0  0  0
 25 24  1  6  0  0  0
 25 27  1  0  0  0  0
 26 10  1  6  0  0  0
 26 27  1  0  0  0  0
M  END
>  <CHROM.1>
173.54014087,69.56527500,172.45294769,178.59315800,-100.43417554,-94.10764824
28.04765270,37.25447790,20.40188519,-1.08973704,1.35717032,0.98222570

>  <Name>
ligand

>  <RI>
0

>  <Rbt.Current_Directory>
/home/itssahil/PROJECTS/Mol_Feturizer/New_Systems/rnas/3F4H

>  <Rbt.Executable>
rbdock ($Id: //depot/dev/client3/rdock/2013.1/src/exe/rbdock.cxx#4 $)

>  <Rbt.Library>
libRbt.so (2013.1, Build901 2013/11/27)

>  <Rbt.Parameter_File>
/export/apps/rDock/src/rDock_2013.1_src/data/scripts/dock_solv.prm

>  <Rbt.Receptor>
prm/blind_docking_80.prm

>  <SCORE>
-43.4605

>  <SCORE.INTER>
-25.6653

>  <SCORE.INTER.CONST>
1

>  <SCORE.INTER.POLAR>
0

>  <SCORE.INTER.ROT>
6

>  <SCORE.INTER.SOLV>
8.90558

>  <SCORE.INTER.VDW>
-27.6787

>  <SCORE.INTER.norm>
-0.885009

>  <SCORE.INTRA>
-17.7979

>  <SCORE.INTRA.DIHEDRAL>
-4.06643

>  <SCORE.INTRA.DIHEDRAL.0>
6.83446

>  <SCORE.INTRA.POLAR>
0

>  <SCORE.INTRA.POLAR.0>
0

>  <SCORE.INTRA.REPUL>
0

>  <SCORE.INTRA.REPUL.0>
0

>  <SCORE.INTRA.SOLV>
-0.0673516

>  <SCORE.INTRA.SOLV.lig_0>
-26.4601

>  <SCORE.INTRA.VDW>
-15.731

>  <SCORE.INTRA.VDW.0>
13.7853

>  <SCORE.INTRA.norm>
-0.61372

>  <SCORE.RESTR>
0.00266582

>  <SCORE.RESTR.CAVITY>
0.00266582

>  <SCORE.RESTR.norm>
9.1925e-05

>  <SCORE.SYSTEM>
0

>  <SCORE.SYSTEM.CONST>
0

>  <SCORE.SYSTEM.DIHEDRAL>
0

>  <SCORE.SYSTEM.SOLV>
0

>  <SCORE.SYSTEM.norm>
0

>  <SCORE.heavy>
29

>  <SCORE.norm>
-1.49864

>  <RMSD>
5.645

$$$$
ligand
 OpenBabel11021811473D
libRbt.so/2013.1/901 2013/11/27
 29 31  0  0  0  0  0  0  0  0999 V2000
   26.4500   41.0102   16.5993 C   0  0  0  0  0  0  0  0  0  0  0  0
   27.5461   41.3237   15.7338 O   0  0  0  0  0  0  0  0  0  0  0  0
   26.6411   41.7226   17.9312 C   0  0  1  0  0  0  0  0  0  0  0  0
   25.4408   41.5985   18.6878 O   0  0  0  0  0  0  0  0  0  0  0  0
   27.8132   41.1218   18.6965 C   0  0  1  0  0  0  0  0  0  0  0  0
   28.2694   42.1114   19.6115 O   0  0  0  0  0  0  0  0  0  0  0  0
   27.5006   39.8215   19.4429 C   0  0  1  0  0  0  0  0  0  0  0  0
   26.9043   38.9050   18.5243 O   0  0  0  0  0  0  0  0  0  0  0  0
   28.7351   39.1543   20.0459 C   0  0  0  0  0  0  0  0  0  0  0  0
   28.3969   39.6668   22.8017 N   0  0  0  0  0  0  0  0  0  0  0  0
   28.2375   39.9505   24.1254 C   0  0  0  0  0  0  0  0  0  0  0  0
   28.4373   41.1141   24.5549 O   0  0  0  0  0  0  0  0  0  0  0  0
   27.8663   38.9774   24.9956 N   0  0  0  0  0  0  0  0  0  0  0  0
   27.6465   37.7084   24.5689 C   0  0  0  0  0  0  0  0  0  0  0  0
   27.8040   37.4047   23.2214 C   0  0  1  0  0  0  0  0  0  0  0  0
   27.3052   36.8107   25.3783 O   0  0  0  0  0  0  0  0  0  0  0  0
   27.7337   35.8521   21.4778 C   0  0  1  0  0  0  0  0  0  0  0  0
   27.5826   36.1455   22.7856 N   0  0  0  0  0  0  0  0  0  0  0  0
   27.5043   34.5531   21.0380 C   0  0  0  0  0  0  0  0  0  0  0  0
   27.6493   34.2202   19.6957 C   0  0  2  0  0  0  0  0  0  0  0  0
   27.3860   32.7933   19.2881 C   0  0  0  0  0  0  0  0  0  0  0  0
   28.0304   35.2033   18.7737 C   0  0  2  0  0  0  0  0  0  0  0  0
   28.1927   34.9504   17.4399 N   0  0  0  0  0  0  0  0  0  0  0  0
   28.2592   36.5066   19.2316 C   0  0  0  0  0  0  0  0  0  0  0  0
   28.1163   36.8447   20.5769 C   0  0  2  0  0  0  0  0  0  0  0  0
   28.1850   38.4066   22.3234 C   0  0  2  0  0  0  0  0  0  0  0  0
   28.3433   38.1065   21.0085 N   0  0  0  0  0  0  0  0  0  0  0  0
   29.5280   34.7933   16.8951 C   0  0  0  0  0  0  0  0  0  0  0  0
   27.0710   34.8249   16.5241 C   0  0  0  0  0  0  0  0  0  0  0  0
  1  2  1  0  0  0  0
  3  1  1  6  0  0  0
  3  4  1  0  0  0  0
  3  5  1  0  0  0  0
  5  6  1  1  0  0  0
  5  7  1  0  0  0  0
  7  8  1  6  0  0  0
  7  9  1  0  0  0  0
  9 27  1  0  0  0  0
 10 11  1  0  0  0  0
 11 12  2  0  0  0  0
 11 13  1  0  0  0  0
 13 14  1  0  0  0  0
 14 16  2  0  0  0  0
 15 14  1  6  0  0  0
 15 18  1  0  0  0  0
 15 26  1  0  0  0  0
 17 19  1  6  0  0  0
 17 25  1  0  0  0  0
 17 18  1  0  0  0  0
 19 20  1  0  0  0  0
 20 21  1  1  0  0  0
 20 22  1  0  0  0  0
 22 23  1  1  0  0  0
 22 24  1  0  0  0  0
 23 28  1  0  0  0  0
 23 29  1  0  0  0  0
 25 24  1  1  0  0  0
 25 27  1  0  0  0  0
 26 10  1  1  0  0  0
 26 27  1  0  0  0  0
M  END
>  <CHROM.1>
169.75362820,157.17480838,52.35248571,166.43455861,-102.02179663,87.86606648
27.72763963,38.07106339,20.34904955,2.15173263,1.47126778,-2.30380460

>  <Name>
ligand

>  <RI>
0

>  <Rbt.Current_Directory>
/home/itssahil/PROJECTS/Mol_Feturizer/New_Systems/rnas/3F4H

>  <Rbt.Executable>
rbdock ($Id: //depot/dev/client3/rdock/2013.1/src/exe/rbdock.cxx#4 $)

>  <Rbt.Library>
libRbt.so (2013.1, Build901 2013/11/27)

>  <Rbt.Parameter_File>
/export/apps/rDock/src/rDock_2013.1_src/data/scripts/dock_solv.prm

>  <Rbt.Receptor>
prm/blind_docking_80.prm

>  <SCORE>
-38.5832

>  <SCORE.INTER>
-22.0459

>  <SCORE.INTER.CONST>
1

>  <SCORE.INTER.POLAR>
0

>  <SCORE.INTER.ROT>
6

>  <SCORE.INTER.SOLV>
8.46505

>  <SCORE.INTER.VDW>
-25.1189

>  <SCORE.INTER.norm>
-0.760203

>  <SCORE.INTRA>
-16.5373

>  <SCORE.INTRA.DIHEDRAL>
-1.92354

>  <SCORE.INTRA.DIHEDRAL.0>
6.83446

>  <SCORE.INTRA.POLAR>
0

>  <SCORE.INTRA.POLAR.0>
0

>  <SCORE.INTRA.REPUL>
0.00391262

>  <SCORE.INTRA.REPUL.0>
0

>  <SCORE.INTRA.SOLV>
0.0365485

>  <SCORE.INTRA.SOLV.lig_0>
-26.4601

>  <SCORE.INTRA.VDW>
-15.6133

>  <SCORE.INTRA.VDW.0>
13.7853

>  <SCORE.INTRA.norm>
-0.570251

>  <SCORE.RESTR>
0

>  <SCORE.RESTR.CAVITY>
0

>  <SCORE.RESTR.norm>
0

>  <SCORE.SYSTEM>
0

>  <SCORE.SYSTEM.CONST>
0

>  <SCORE.SYSTEM.DIHEDRAL>
0

>  <SCORE.SYSTEM.SOLV>
0

>  <SCORE.SYSTEM.norm>
0

>  <SCORE.heavy>
29

>  <SCORE.norm>
-1.33045

>  <RMSD>
5.645

$$$$
ligand
 OpenBabel11021811473D
libRbt.so/2013.1/901 2013/11/27
 29 31  0  0  0  0  0  0  0  0999 V2000
   27.7493   40.0028   15.7120 C   0  0  0  0  0  0  0  0  0  0  0  0
   27.4915   41.3696   16.0502 O   0  0  0  0  0  0  0  0  0  0  0  0
   27.6061   39.1405   16.9586 C   0  0  1  0  0  0  0  0  0  0  0  0
   27.6638   37.7711   16.5714 O   0  0  0  0  0  0  0  0  0  0  0  0
   28.7127   39.4549   17.9570 C   0  0  1  0  0  0  0  0  0  0  0  0
   28.5326   40.8037   18.3732 O   0  0  0  0  0  0  0  0  0  0  0  0
   28.7644   38.5318   19.1780 C   0  0  1  0  0  0  0  0  0  0  0  0
   29.8214   38.9707   20.0322 O   0  0  0  0  0  0  0  0  0  0  0  0
   27.4704   38.5229   19.9893 C   0  0  0  0  0  0  0  0  0  0  0  0
   27.7879   39.4404   22.6405 N   0  0  0  0  0  0  0  0  0  0  0  0
   27.9354   39.9180   23.9086 C   0  0  0  0  0  0  0  0  0  0  0  0
   27.9929   41.1553   24.1195 O   0  0  0  0  0  0  0  0  0  0  0  0
   28.0272   39.0620   24.9577 N   0  0  0  0  0  0  0  0  0  0  0  0
   27.9741   37.7196   24.7678 C   0  0  0  0  0  0  0  0  0  0  0  0
   27.8226   37.2181   23.4801 C   0  0  1  0  0  0  0  0  0  0  0  0
   28.0617   36.9312   25.7416 O   0  0  0  0  0  0  0  0  0  0  0  0
   27.6145   35.3978   22.0314 C   0  0  1  0  0  0  0  0  0  0  0  0
   27.7634   35.8834   23.2809 N   0  0  0  0  0  0  0  0  0  0  0  0
   27.5550   34.0224   21.8355 C   0  0  0  0  0  0  0  0  0  0  0  0
   27.3994   33.4913   20.5598 C   0  0  2  0  0  0  0  0  0  0  0  0
   27.3439   31.9918   20.4196 C   0  0  0  0  0  0  0  0  0  0  0  0
   27.3008   34.3499   19.4575 C   0  0  2  0  0  0  0  0  0  0  0  0
   27.1468   33.9008   18.1754 N   0  0  0  0  0  0  0  0  0  0  0  0
   27.3636   35.7324   19.6703 C   0  0  0  0  0  0  0  0  0  0  0  0
   27.5208   36.2694   20.9477 C   0  0  2  0  0  0  0  0  0  0  0  0
   27.7263   38.0990   22.3983 C   0  0  2  0  0  0  0  0  0  0  0  0
   27.5837   37.6068   21.1409 N   0  0  0  0  0  0  0  0  0  0  0  0
   28.3174   33.5876   17.3778 C   0  0  0  0  0  0  0  0  0  0  0  0
   25.8424   33.7146   17.5618 C   0  0  0  0  0  0  0  0  0  0  0  0
  1  2  1  0  0  0  0
  3  1  1  6  0  0  0
  3  4  1  0  0  0  0
  3  5  1  0  0  0  0
  5  6  1  1  0  0  0
  5  7  1  0  0  0  0
  7  8  1  1  0  0  0
  7  9  1  0  0  0  0
  9 27  1  0  0  0  0
 10 11  1  0  0  0  0
 11 12  2  0  0  0  0
 11 13  1  0  0  0  0
 13 14  1  0  0  0  0
 14 16  2  0  0  0  0
 15 14  1  1  0  0  0
 15 18  1  0  0  0  0
 15 26  1  0  0  0  0
 17 19  1  1  0  0  0
 17 25  1  0  0  0  0
 17 18  1  0  0  0  0
 19 20  1  0  0  0  0
 20 21  1  6  0  0  0
 20 22  1  0  0  0  0
 22 23  1  6  0  0  0
 22 24  1  0  0  0  0
 23 28  1  0  0  0  0
 23 29  1  0  0  0  0
 25 24  1  6  0  0  0
 25 27  1  0  0  0  0
 26 10  1  6  0  0  0
 26 27  1  0  0  0  0
M  END
>  <CHROM.1>
171.29220410,64.19614142,-178.46238280,179.49431133,-87.91630237,-75.22190313
27.80286425,37.31710430,20.44920070,-1.91198006,1.44057381,1.80486325

>  <Name>
ligand

>  <RI>
0

>  <Rbt.Current_Directory>
/home/itssahil/PROJECTS/Mol_Feturizer/New_Systems/rnas/3F4H

>  <Rbt.Executable>
rbdock ($Id: //depot/dev/client3/rdock/2013.1/src/exe/rbdock.cxx#4 $)

>  <Rbt.Library>
libRbt.so (2013.1, Build901 2013/11/27)

>  <Rbt.Parameter_File>
/export/apps/rDock/src/rDock_2013.1_src/data/scripts/dock_solv.prm

>  <Rbt.Receptor>
prm/pocket_docking_5.prm

>  <SCORE>
-43.5148

>  <SCORE.INTER>
-25.5552

>  <SCORE.INTER.CONST>
1

>  <SCORE.INTER.POLAR>
0

>  <SCORE.INTER.ROT>
6

>  <SCORE.INTER.SOLV>
9.274

>  <SCORE.INTER.VDW>
-27.7282

>  <SCORE.INTER.norm>
-0.881215

>  <SCORE.INTRA>
-17.9596

>  <SCORE.INTRA.DIHEDRAL>
-4.43525

>  <SCORE.INTRA.DIHEDRAL.0>
6.83446

>  <SCORE.INTRA.POLAR>
0

>  <SCORE.INTRA.POLAR.0>
0

>  <SCORE.INTRA.REPUL>
0

>  <SCORE.INTRA.REPUL.0>
0

>  <SCORE.INTRA.SOLV>
-0.076404

>  <SCORE.INTRA.SOLV.lig_0>
-26.4601

>  <SCORE.INTRA.VDW>
-15.7037

>  <SCORE.INTRA.VDW.0>
13.7853

>  <SCORE.INTRA.norm>
-0.619295

>  <SCORE.RESTR>
0

>  <SCORE.RESTR.CAVITY>
0

>  <SCORE.RESTR.norm>
0

>  <SCORE.SYSTEM>
0

>  <SCORE.SYSTEM.CONST>
0

>  <SCORE.SYSTEM.DIHEDRAL>
0

>  <SCORE.SYSTEM.SOLV>
0

>  <SCORE.SYSTEM.norm>
0

>  <SCORE.heavy>
29

>  <SCORE.norm>
-1.50051

>  <RMSD>
5.646

$$$$
ligand
 OpenBabel11021811473D
libRbt.so/2013.1/901 2013/11/27
 29 31  0  0  0  0  0  0  0  0999 V2000
   27.4986   40.7359   16.7502 C   0  0  0  0  0  0  0  0  0  0  0  0
   28.1911   40.5970   15.5052 O   0  0  0  0  0  0  0  0  0  0  0  0
   28.4770   41.1983   17.8212 C   0  0  1  0  0  0  0  0  0  0  0  0
   28.9986   42.4679   17.4409 O   0  0  0  0  0  0  0  0  0  0  0  0
   27.7835   41.2951   19.1740 C   0  0  1  0  0  0  0  0  0  0  0  0
   26.6327   42.1135   18.9988 O   0  0  0  0  0  0  0  0  0  0  0  0
   27.3834   39.9530   19.7938 C   0  0  1  0  0  0  0  0  0  0  0  0
   26.4662   39.3036   18.9125 O   0  0  0  0  0  0  0  0  0  0  0  0
   28.5651   39.0137   20.0261 C   0  0  0  0  0  0  0  0  0  0  0  0
   28.4029   39.6536   22.7712 N   0  0  0  0  0  0  0  0  0  0  0  0
   28.3279   39.9985   24.0878 C   0  0  0  0  0  0  0  0  0  0  0  0
   28.5514   41.1809   24.4492 O   0  0  0  0  0  0  0  0  0  0  0  0
   28.0162   39.0670   25.0243 N   0  0  0  0  0  0  0  0  0  0  0  0
   27.7733   37.7795   24.6718 C   0  0  0  0  0  0  0  0  0  0  0  0
   27.8448   37.4135   23.3325 C   0  0  1  0  0  0  0  0  0  0  0  0
   27.4872   36.9204   25.5423 O   0  0  0  0  0  0  0  0  0  0  0  0
   27.6675   35.7816   21.6709 C   0  0  1  0  0  0  0  0  0  0  0  0
   27.5997   36.1354   22.9707 N   0  0  0  0  0  0  0  0  0  0  0  0
   27.4142   34.4635   21.3075 C   0  0  0  0  0  0  0  0  0  0  0  0
   27.4738   34.0686   19.9755 C   0  0  2  0  0  0  0  0  0  0  0  0
   27.1891   32.6243   19.6524 C   0  0  0  0  0  0  0  0  0  0  0  0
   27.7920   35.0078   18.9863 C   0  0  2  0  0  0  0  0  0  0  0  0
   27.8692   34.6932   17.6581 N   0  0  0  0  0  0  0  0  0  0  0  0
   28.0458   36.3310   19.3677 C   0  0  0  0  0  0  0  0  0  0  0  0
   27.9885   36.7312   20.7023 C   0  0  2  0  0  0  0  0  0  0  0  0
   28.1645   38.3726   22.3664 C   0  0  2  0  0  0  0  0  0  0  0  0
   28.2390   38.0117   21.0595 N   0  0  0  0  0  0  0  0  0  0  0  0
   29.1603   34.4120   17.0596 C   0  0  0  0  0  0  0  0  0  0  0  0
   26.6977   34.6214   16.8006 C   0  0  0  0  0  0  0  0  0  0  0  0
  1  2  1  0  0  0  0
  3  1  1  6  0  0  0
  3  4  1  0  0  0  0
  3  5  1  0  0  0  0
  5  6  1  6  0  0  0
  5  7  1  0  0  0  0
  7  8  1  6  0  0  0
  7  9  1  0  0  0  0
  9 27  1  0  0  0  0
 10 11  1  0  0  0  0
 11 12  2  0  0  0  0
 11 13  1  0  0  0  0
 13 14  1  0  0  0  0
 14 16  2  0  0  0  0
 15 14  1  6  0  0  0
 15 18  1  0  0  0  0
 15 26  1  0  0  0  0
 17 19  1  6  0  0  0
 17 25  1  0  0  0  0
 17 18  1  0  0  0  0
 19 20  1  0  0  0  0
 20 21  1  1  0  0  0
 20 22  1  0  0  0  0
 22 23  1  1  0  0  0
 22 24  1  0  0  0  0
 23 28  1  0  0  0  0
 23 29  1  0  0  0  0
 25 24  1  1  0  0  0
 25 27  1  0  0  0  0
 26 10  1  1  0  0  0
 26 27  1  0  0  0  0
M  END
>  <CHROM.1>
61.42150823,-53.22265665,-60.88038014,157.95356591,-97.39094441,105.93615514
27.84645973,38.01852460,20.40081261,-1.43858255,1.51625079,1.82300223

>  <Name>
ligand

>  <RI>
0

>  <Rbt.Current_Directory>
/home/itssahil/PROJECTS/Mol_Feturizer/New_Systems/rnas/3F4H

>  <Rbt.Executable>
rbdock ($Id: //depot/dev/client3/rdock/2013.1/src/exe/rbdock.cxx#4 $)

>  <Rbt.Library>
libRbt.so (2013.1, Build901 2013/11/27)

>  <Rbt.Parameter_File>
/export/apps/rDock/src/rDock_2013.1_src/data/scripts/dock_solv.prm

>  <Rbt.Receptor>
prm/blind_docking_100.prm

>  <SCORE>
-38.8608

>  <SCORE.INTER>
-22.4864

>  <SCORE.INTER.CONST>
1

>  <SCORE.INTER.POLAR>
0

>  <SCORE.INTER.ROT>
6

>  <SCORE.INTER.SOLV>
9.30945

>  <SCORE.INTER.VDW>
-25.6941

>  <SCORE.INTER.norm>
-0.775395

>  <SCORE.INTRA>
-16.3744

>  <SCORE.INTRA.DIHEDRAL>
-3.07967

>  <SCORE.INTRA.DIHEDRAL.0>
6.83446

>  <SCORE.INTRA.POLAR>
0

>  <SCORE.INTRA.POLAR.0>
0

>  <SCORE.INTRA.REPUL>
0

>  <SCORE.INTRA.REPUL.0>
0

>  <SCORE.INTRA.SOLV>
-0.283585

>  <SCORE.INTRA.SOLV.lig_0>
-26.4601

>  <SCORE.INTRA.VDW>
-14.6928

>  <SCORE.INTRA.VDW.0>
13.7853

>  <SCORE.INTRA.norm>
-0.564634

>  <SCORE.RESTR>
0

>  <SCORE.RESTR.CAVITY>
0

>  <SCORE.RESTR.norm>
0

>  <SCORE.SYSTEM>
0

>  <SCORE.SYSTEM.CONST>
0

>  <SCORE.SYSTEM.DIHEDRAL>
0

>  <SCORE.SYSTEM.SOLV>
0

>  <SCORE.SYSTEM.norm>
0

>  <SCORE.heavy>
29

>  <SCORE.norm>
-1.34003

>  <RMSD>
5.647

$$$$
ligand
 OpenBabel11021811473D
libRbt.so/2013.1/901 2013/11/27
 29 31  0  0  0  0  0  0  0  0999 V2000
   31.2757   39.3613   17.0618 C   0  0  0  0  0  0  0  0  0  0  0  0
   30.9501   40.7056   16.6934 O   0  0  0  0  0  0  0  0  0  0  0  0
   30.1386   38.4369   16.6487 C   0  0  1  0  0  0  0  0  0  0  0  0
   30.5696   37.0889   16.8081 O   0  0  0  0  0  0  0  0  0  0  0  0
   28.9003   38.6999   17.4959 C   0  0  1  0  0  0  0  0  0  0  0  0
   27.7977   38.0989   16.8267 O   0  0  0  0  0  0  0  0  0  0  0  0
   28.9814   38.1883   18.9371 C   0  0  1  0  0  0  0  0  0  0  0  0
   29.9724   38.9470   19.6312 O   0  0  0  0  0  0  0  0  0  0  0  0
   27.6653   38.3133   19.7021 C   0  0  0  0  0  0  0  0  0  0  0  0
   27.8161   39.3632   22.3186 N   0  0  0  0  0  0  0  0  0  0  0  0
   27.8847   39.9042   23.5679 C   0  0  0  0  0  0  0  0  0  0  0  0
   27.9538   41.1496   23.7186 O   0  0  0  0  0  0  0  0  0  0  0  0
   27.8845   39.1030   24.6634 N   0  0  0  0  0  0  0  0  0  0  0  0
   27.8159   37.7537   24.5392 C   0  0  0  0  0  0  0  0  0  0  0  0
   27.7442   37.1879   23.2713 C   0  0  1  0  0  0  0  0  0  0  0  0
   27.8181   37.0162   25.5558 O   0  0  0  0  0  0  0  0  0  0  0  0
   27.5989   35.2979   21.9067 C   0  0  1  0  0  0  0  0  0  0  0  0
   27.6703   35.8458   23.1371 N   0  0  0  0  0  0  0  0  0  0  0  0
   27.5237   33.9154   21.7778 C   0  0  0  0  0  0  0  0  0  0  0  0
   27.4464   33.3208   20.5232 C   0  0  2  0  0  0  0  0  0  0  0  0
   27.3687   31.8172   20.4564 C   0  0  0  0  0  0  0  0  0  0  0  0
   27.4436   34.1218   19.3741 C   0  0  2  0  0  0  0  0  0  0  0  0
   27.3702   33.6087   18.1090 N   0  0  0  0  0  0  0  0  0  0  0  0
   27.5211   35.5122   19.5197 C   0  0  0  0  0  0  0  0  0  0  0  0
   27.6001   36.1128   20.7758 C   0  0  2  0  0  0  0  0  0  0  0  0
   27.7428   38.0122   22.1418 C   0  0  2  0  0  0  0  0  0  0  0  0
   27.6780   37.4572   20.9042 N   0  0  0  0  0  0  0  0  0  0  0  0
   28.5821   33.4419   17.3293 C   0  0  0  0  0  0  0  0  0  0  0  0
   26.1134   33.2108   17.4966 C   0  0  0  0  0  0  0  0  0  0  0  0
  1  2  1  0  0  0  0
  3  1  1  1  0  0  0
  3  4  1  0  0  0  0
  3  5  1  0  0  0  0
  5  6  1  6  0  0  0
  5  7  1  0  0  0  0
  7  8  1  1  0  0  0
  7  9  1  0  0  0  0
  9 27  1  0  0  0  0
 10 11  1  0  0  0  0
 11 12  2  0  0  0  0
 11 13  1  0  0  0  0
 13 14  1  0  0  0  0
 14 16  2  0  0  0  0
 15 14  1  1  0  0  0
 15 18  1  0  0  0  0
 15 26  1  0  0  0  0
 17 19  1  1  0  0  0
 17 25  1  0  0  0  0
 17 18  1  0  0  0  0
 19 20  1  0  0  0  0
 20 21  1  6  0  0  0
 20 22  1  0  0  0  0
 22 23  1  6  0  0  0
 22 24  1  0  0  0  0
 23 28  1  0  0  0  0
 23 29  1  0  0  0  0
 25 24  1  6  0  0  0
 25 27  1  0  0  0  0
 26 10  1  6  0  0  0
 26 27  1  0  0  0  0
M  END
>  <CHROM.1>
170.09388258,163.80488792,66.99741998,162.87180351,-98.17417035,-71.64668635
28.27901090,36.98600248,20.29677553,-1.15861767,1.17160131,0.88219760

>  <Name>
ligand

>  <RI>
0

>  <Rbt.Current_Directory>
/home/itssahil/PROJECTS/Mol_Feturizer/New_Systems/rnas/3F4H

>  <Rbt.Executable>
rbdock ($Id: //depot/dev/client3/rdock/2013.1/src/exe/rbdock.cxx#4 $)

>  <Rbt.Library>
libRbt.so (2013.1, Build901 2013/11/27)

>  <Rbt.Parameter_File>
/export/apps/rDock/src/rDock_2013.1_src/data/scripts/dock_solv.prm

>  <Rbt.Receptor>
prm/pocket_docking_6.prm

>  <SCORE>
-43.4706

>  <SCORE.INTER>
-26.4139

>  <SCORE.INTER.CONST>
1

>  <SCORE.INTER.POLAR>
0

>  <SCORE.INTER.ROT>
6

>  <SCORE.INTER.SOLV>
9.31683

>  <SCORE.INTER.VDW>
-28.3149

>  <SCORE.INTER.norm>
-0.910824

>  <SCORE.INTRA>
-17.0567

>  <SCORE.INTRA.DIHEDRAL>
-2.36743

>  <SCORE.INTRA.DIHEDRAL.0>
6.83446

>  <SCORE.INTRA.POLAR>
0

>  <SCORE.INTRA.POLAR.0>
0

>  <SCORE.INTRA.REPUL>
0

>  <SCORE.INTRA.REPUL.0>
0

>  <SCORE.INTRA.SOLV>
-0.0201286

>  <SCORE.INTRA.SOLV.lig_0>
-26.4601

>  <SCORE.INTRA.VDW>
-15.8629

>  <SCORE.INTRA.VDW.0>
13.7853

>  <SCORE.INTRA.norm>
-0.588161

>  <SCORE.RESTR>
0

>  <SCORE.RESTR.CAVITY>
0

>  <SCORE.RESTR.norm>
0

>  <SCORE.SYSTEM>
0

>  <SCORE.SYSTEM.CONST>
0

>  <SCORE.SYSTEM.DIHEDRAL>
0

>  <SCORE.SYSTEM.SOLV>
0

>  <SCORE.SYSTEM.norm>
0

>  <SCORE.heavy>
29

>  <SCORE.norm>
-1.49898

>  <RMSD>
5.647

$$$$
ligand
 OpenBabel11021811473D
libRbt.so/2013.1/901 2013/11/27
 29 31  0  0  0  0  0  0  0  0999 V2000
   28.5488   40.1776   15.7765 C   0  0  0  0  0  0  0  0  0  0  0  0
   29.9533   40.2374   15.5068 O   0  0  0  0  0  0  0  0  0  0  0  0
   28.2985   39.2151   16.9294 C   0  0  1  0  0  0  0  0  0  0  0  0
   28.7458   37.9193   16.5431 O   0  0  0  0  0  0  0  0  0  0  0  0
   29.0332   39.6768   18.1813 C   0  0  1  0  0  0  0  0  0  0  0  0
   28.4590   40.9188   18.5718 O   0  0  0  0  0  0  0  0  0  0  0  0
   28.9979   38.6912   19.3531 C   0  0  1  0  0  0  0  0  0  0  0  0
   29.7759   39.2315   20.4219 O   0  0  0  0  0  0  0  0  0  0  0  0
   27.5896   38.4219   19.8794 C   0  0  0  0  0  0  0  0  0  0  0  0
   27.7760   39.4057   22.5193 N   0  0  0  0  0  0  0  0  0  0  0  0
   27.8610   39.9150   23.7808 C   0  0  0  0  0  0  0  0  0  0  0  0
   27.9180   41.1569   23.9627 O   0  0  0  0  0  0  0  0  0  0  0  0
   27.8906   39.0859   24.8548 N   0  0  0  0  0  0  0  0  0  0  0  0
   27.8359   37.7394   24.6967 C   0  0  0  0  0  0  0  0  0  0  0  0
   27.7477   37.2057   23.4161 C   0  0  1  0  0  0  0  0  0  0  0  0
   27.8657   36.9760   25.6936 O   0  0  0  0  0  0  0  0  0  0  0  0
   27.6000   35.3499   22.0055 C   0  0  1  0  0  0  0  0  0  0  0  0
   27.6875   35.8668   23.2483 N   0  0  0  0  0  0  0  0  0  0  0  0
   27.5391   33.9704   21.8420 C   0  0  0  0  0  0  0  0  0  0  0  0
   27.4459   33.4075   20.5739 C   0  0  2  0  0  0  0  0  0  0  0  0
   27.3849   31.9052   20.4694 C   0  0  0  0  0  0  0  0  0  0  0  0
   27.4123   34.2378   19.4464 C   0  0  2  0  0  0  0  0  0  0  0  0
   27.3217   33.7567   18.1699 N   0  0  0  0  0  0  0  0  0  0  0  0
   27.4758   35.6249   19.6267 C   0  0  0  0  0  0  0  0  0  0  0  0
   27.5706   36.1937   20.8964 C   0  0  2  0  0  0  0  0  0  0  0  0
   27.7156   38.0589   22.3086 C   0  0  2  0  0  0  0  0  0  0  0  0
   27.6347   37.5352   21.0584 N   0  0  0  0  0  0  0  0  0  0  0  0
   26.0170   33.5324   17.5768 C   0  0  0  0  0  0  0  0  0  0  0  0
   28.4915   33.4568   17.3608 C   0  0  0  0  0  0  0  0  0  0  0  0
  1  2  1  0  0  0  0
  3  1  1  6  0  0  0
  3  4  1  0  0  0  0
  3  5  1  0  0  0  0
  5  6  1  1  0  0  0
  5  7  1  0  0  0  0
  7  8  1  1  0  0  0
  7  9  1  0  0  0  0
  9 27  1  0  0  0  0
 10 11  1  0  0  0  0
 11 12  2  0  0  0  0
 11 13  1  0  0  0  0
 13 14  1  0  0  0  0
 14 16  2  0  0  0  0
 15 14  1  1  0  0  0
 15 18  1  0  0  0  0
 15 26  1  0  0  0  0
 17 19  1  1  0  0  0
 17 25  1  0  0  0  0
 17 18  1  0  0  0  0
 19 20  1  0  0  0  0
 20 21  1  6  0  0  0
 20 22  1  0  0  0  0
 22 23  1  6  0  0  0
 22 24  1  0  0  0  0
 23 28  1  0  0  0  0
 23 29  1  0  0  0  0
 25 24  1  6  0  0  0
 25 27  1  0  0  0  0
 26 10  1  6  0  0  0
 26 27  1  0  0  0  0
M  END
>  <CHROM.1>
-61.54470431,64.74892160,177.29241639,-176.37078820,89.13789941,-90.08496891
28.01712494,37.27289326,20.42783501,-1.16997303,1.35405515,1.08457156

>  <Name>
ligand

>  <RI>
0

>  <Rbt.Current_Directory>
/home/itssahil/PROJECTS/Mol_Feturizer/New_Systems/rnas/3F4H

>  <Rbt.Executable>
rbdock ($Id: //depot/dev/client3/rdock/2013.1/src/exe/rbdock.cxx#4 $)

>  <Rbt.Library>
libRbt.so (2013.1, Build901 2013/11/27)

>  <Rbt.Parameter_File>
/export/apps/rDock/src/rDock_2013.1_src/data/scripts/dock_solv.prm

>  <Rbt.Receptor>
prm/pocket_docking_7.prm

>  <SCORE>
-44.1932

>  <SCORE.INTER>
-26.0123

>  <SCORE.INTER.CONST>
1

>  <SCORE.INTER.POLAR>
0

>  <SCORE.INTER.ROT>
6

>  <SCORE.INTER.SOLV>
9.39916

>  <SCORE.INTER.VDW>
-28.0746

>  <SCORE.INTER.norm>
-0.896975

>  <SCORE.INTRA>
-18.1809

>  <SCORE.INTRA.DIHEDRAL>
-4.60122

>  <SCORE.INTRA.DIHEDRAL.0>
6.83446

>  <SCORE.INTRA.POLAR>
0

>  <SCORE.INTRA.POLAR.0>
0

>  <SCORE.INTRA.REPUL>
0

>  <SCORE.INTRA.REPUL.0>
0

>  <SCORE.INTRA.SOLV>
-0.0938313

>  <SCORE.INTRA.SOLV.lig_0>
-26.4601

>  <SCORE.INTRA.VDW>
-15.8334

>  <SCORE.INTRA.VDW.0>
13.7853

>  <SCORE.INTRA.norm>
-0.626929

>  <SCORE.RESTR>
0

>  <SCORE.RESTR.CAVITY>
0

>  <SCORE.RESTR.norm>
0

>  <SCORE.SYSTEM>
0

>  <SCORE.SYSTEM.CONST>
0

>  <SCORE.SYSTEM.DIHEDRAL>
0

>  <SCORE.SYSTEM.SOLV>
0

>  <SCORE.SYSTEM.norm>
0

>  <SCORE.heavy>
29

>  <SCORE.norm>
-1.5239

>  <RMSD>
5.647

$$$$
ligand
 OpenBabel11021811473D
libRbt.so/2013.1/901 2013/11/27
 29 31  0  0  0  0  0  0  0  0999 V2000
   28.3224   42.0302   16.5265 C   0  0  0  0  0  0  0  0  0  0  0  0
   29.7490   41.9130   16.5295 O   0  0  0  0  0  0  0  0  0  0  0  0
   27.7323   41.0163   17.4971 C   0  0  1  0  0  0  0  0  0  0  0  0
   28.1845   39.7177   17.1263 O   0  0  0  0  0  0  0  0  0  0  0  0
   28.1534   41.3351   18.9258 C   0  0  1  0  0  0  0  0  0  0  0  0
   27.5402   42.5695   19.2793 O   0  0  0  0  0  0  0  0  0  0  0  0
   27.8027   40.2604   19.9591 C   0  0  1  0  0  0  0  0  0  0  0  0
   26.4693   39.8130   19.7114 O   0  0  0  0  0  0  0  0  0  0  0  0
   28.7279   39.0460   19.9118 C   0  0  0  0  0  0  0  0  0  0  0  0
   28.6051   39.6784   22.6607 N   0  0  0  0  0  0  0  0  0  0  0  0
   28.5513   40.0195   23.9793 C   0  0  0  0  0  0  0  0  0  0  0  0
   28.8434   41.1847   24.3472 O   0  0  0  0  0  0  0  0  0  0  0  0
   28.1866   39.1022   24.9107 N   0  0  0  0  0  0  0  0  0  0  0  0
   27.8690   37.8331   24.5512 C   0  0  0  0  0  0  0  0  0  0  0  0
   27.9181   37.4713   23.2097 C   0  0  1  0  0  0  0  0  0  0  0  0
   27.5341   36.9871   25.4170 O   0  0  0  0  0  0  0  0  0  0  0  0
   27.6450   35.8621   21.5390 C   0  0  1  0  0  0  0  0  0  0  0  0
   27.5988   36.2117   22.8409 N   0  0  0  0  0  0  0  0  0  0  0  0
   27.3152   34.5632   21.1683 C   0  0  0  0  0  0  0  0  0  0  0  0
   27.3507   34.1732   19.8340 C   0  0  2  0  0  0  0  0  0  0  0  0
   26.9824   32.7498   19.5029 C   0  0  0  0  0  0  0  0  0  0  0  0
   27.7224   35.0980   18.8499 C   0  0  2  0  0  0  0  0  0  0  0  0
   27.7801   34.7871   17.5198 N   0  0  0  0  0  0  0  0  0  0  0  0
   28.0530   36.4019   19.2386 C   0  0  0  0  0  0  0  0  0  0  0  0
   28.0200   36.7971   20.5755 C   0  0  2  0  0  0  0  0  0  0  0  0
   28.2923   38.4158   22.2488 C   0  0  2  0  0  0  0  0  0  0  0  0
   28.3447   38.0587   20.9397 N   0  0  0  0  0  0  0  0  0  0  0  0
   28.9384   34.0898   16.9940 C   0  0  0  0  0  0  0  0  0  0  0  0
   26.7154   35.1241   16.5894 C   0  0  0  0  0  0  0  0  0  0  0  0
  1  2  1  0  0  0  0
  3  1  1  6  0  0  0
  3  4  1  0  0  0  0
  3  5  1  0  0  0  0
  5  6  1  1  0  0  0
  5  7  1  0  0  0  0
  7  8  1  6  0  0  0
  7  9  1  0  0  0  0
  9 27  1  0  0  0  0
 10 11  1  0  0  0  0
 11 12  2  0  0  0  0
 11 13  1  0  0  0  0
 13 14  1  0  0  0  0
 14 16  2  0  0  0  0
 15 14  1  6  0  0  0
 15 18  1  0  0  0  0
 15 26  1  0  0  0  0
 17 19  1  6  0  0  0
 17 25  1  0  0  0  0
 17 18  1  0  0  0  0
 19 20  1  0  0  0  0
 20 21  1  1  0  0  0
 20 22  1  0  0  0  0
 22 23  1  1  0  0  0
 22 24  1  0  0  0  0
 23 28  1  0  0  0  0
 23 29  1  0  0  0  0
 25 24  1  1  0  0  0
 25 27  1  0  0  0  0
 26 10  1  1  0  0  0
 26 27  1  0  0  0  0
M  END
>  <CHROM.1>
-56.36223463,66.53644400,-43.82826119,179.37822662,-80.45226534,121.88811719
27.96823673,38.09667354,20.36230393,-0.09317024,-1.46028943,-1.58932012

>  <Name>
ligand

>  <RI>
0

>  <Rbt.Current_Directory>
/home/itssahil/PROJECTS/Mol_Feturizer/New_Systems/rnas/3F4H

>  <Rbt.Executable>
rbdock ($Id: //depot/dev/client3/rdock/2013.1/src/exe/rbdock.cxx#4 $)

>  <Rbt.Library>
libRbt.so (2013.1, Build901 2013/11/27)

>  <Rbt.Parameter_File>
/export/apps/rDock/src/rDock_2013.1_src/data/scripts/dock_solv.prm

>  <Rbt.Receptor>
prm/blind_docking_100.prm

>  <SCORE>
-39.451

>  <SCORE.INTER>
-22.4058

>  <SCORE.INTER.CONST>
1

>  <SCORE.INTER.POLAR>
0

>  <SCORE.INTER.ROT>
6

>  <SCORE.INTER.SOLV>
8.69844

>  <SCORE.INTER.VDW>
-25.4367

>  <SCORE.INTER.norm>
-0.772613

>  <SCORE.INTRA>
-17.0452

>  <SCORE.INTRA.DIHEDRAL>
-3.69788

>  <SCORE.INTRA.DIHEDRAL.0>
6.83446

>  <SCORE.INTRA.POLAR>
0

>  <SCORE.INTRA.POLAR.0>
0

>  <SCORE.INTRA.REPUL>
0

>  <SCORE.INTRA.REPUL.0>
0

>  <SCORE.INTRA.SOLV>
0.176943

>  <SCORE.INTRA.SOLV.lig_0>
-26.4601

>  <SCORE.INTRA.VDW>
-15.2848

>  <SCORE.INTRA.VDW.0>
13.7853

>  <SCORE.INTRA.norm>
-0.587766

>  <SCORE.RESTR>
0

>  <SCORE.RESTR.CAVITY>
0

>  <SCORE.RESTR.norm>
0

>  <SCORE.SYSTEM>
0

>  <SCORE.SYSTEM.CONST>
0

>  <SCORE.SYSTEM.DIHEDRAL>
0

>  <SCORE.SYSTEM.SOLV>
0

>  <SCORE.SYSTEM.norm>
0

>  <SCORE.heavy>
29

>  <SCORE.norm>
-1.36038

>  <RMSD>
5.650

$$$$
ligand
 OpenBabel11021811473D
libRbt.so/2013.1/901 2013/11/27
 29 31  0  0  0  0  0  0  0  0999 V2000
   26.7716   42.5127   16.7266 C   0  0  0  0  0  0  0  0  0  0  0  0
   25.5831   43.1099   16.1977 O   0  0  0  0  0  0  0  0  0  0  0  0
   26.3913   41.4936   17.7919 C   0  0  1  0  0  0  0  0  0  0  0  0
   25.5780   40.4911   17.1903 O   0  0  0  0  0  0  0  0  0  0  0  0
   27.6382   40.8669   18.4026 C   0  0  1  0  0  0  0  0  0  0  0  0
   28.3475   41.9052   19.0685 O   0  0  0  0  0  0  0  0  0  0  0  0
   27.3735   39.7089   19.3693 C   0  0  1  0  0  0  0  0  0  0  0  0
   26.6916   38.6742   18.6594 O   0  0  0  0  0  0  0  0  0  0  0  0
   28.6460   39.1143   19.9694 C   0  0  0  0  0  0  0  0  0  0  0  0
   28.3917   39.7040   22.7187 N   0  0  0  0  0  0  0  0  0  0  0  0
   28.2716   40.0248   24.0381 C   0  0  0  0  0  0  0  0  0  0  0  0
   28.4553   41.2060   24.4246 O   0  0  0  0  0  0  0  0  0  0  0  0
   27.9575   39.0703   24.9503 N   0  0  0  0  0  0  0  0  0  0  0  0
   27.7567   37.7833   24.5705 C   0  0  0  0  0  0  0  0  0  0  0  0
   27.8745   37.4417   23.2280 C   0  0  1  0  0  0  0  0  0  0  0  0
   27.4683   36.9030   25.4186 O   0  0  0  0  0  0  0  0  0  0  0  0
   27.7843   35.8340   21.5361 C   0  0  1  0  0  0  0  0  0  0  0  0
   27.6716   36.1642   22.8390 N   0  0  0  0  0  0  0  0  0  0  0  0
   27.5742   34.5164   21.1445 C   0  0  0  0  0  0  0  0  0  0  0  0
   27.6805   34.1455   19.8086 C   0  0  2  0  0  0  0  0  0  0  0  0
   27.4412   32.7003   19.4543 C   0  0  0  0  0  0  0  0  0  0  0  0
   28.0025   35.1087   18.8440 C   0  0  2  0  0  0  0  0  0  0  0  0
   28.1243   34.8184   17.5135 N   0  0  0  0  0  0  0  0  0  0  0  0
   28.2124   36.4311   19.2535 C   0  0  0  0  0  0  0  0  0  0  0  0
   28.1081   36.8073   20.5923 C   0  0  2  0  0  0  0  0  0  0  0  0
   28.1967   38.4244   22.2869 C   0  0  2  0  0  0  0  0  0  0  0  0
   28.3164   38.0874   20.9769 N   0  0  0  0  0  0  0  0  0  0  0  0
   26.9348   34.6995   16.6917 C   0  0  0  0  0  0  0  0  0  0  0  0
   29.4124   34.6231   16.8689 C   0  0  0  0  0  0  0  0  0  0  0  0
  1  2  1  0  0  0  0
  3  1  1  6  0  0  0
  3  4  1  0  0  0  0
  3  5  1  0  0  0  0
  5  6  1  1  0  0  0
  5  7  1  0  0  0  0
  7  8  1  6  0  0  0
  7  9  1  0  0  0  0
  9 27  1  0  0  0  0
 10 11  1  0  0  0  0
 11 12  2  0  0  0  0
 11 13  1  0  0  0  0
 13 14  1  0  0  0  0
 14 16  2  0  0  0  0
 15 14  1  6  0  0  0
 15 18  1  0  0  0  0
 15 26  1  0  0  0  0
 17 19  1  6  0  0  0
 17 25  1  0  0  0  0
 17 18  1  0  0  0  0
 19 20  1  0  0  0  0
 20 21  1  1  0  0  0
 20 22  1  0  0  0  0
 22 23  1  1  0  0  0
 22 24  1  0  0  0  0
 23 28  1  0  0  0  0
 23 29  1  0  0  0  0
 25 24  1  1  0  0  0
 25 27  1  0  0  0  0
 26 10  1  1  0  0  0
 26 27  1  0  0  0  0
M  END
>  <CHROM.1>
60.41969965,64.19838257,60.30687539,175.03355084,80.14852937,86.62536305
27.65060666,38.10141930,20.29134286,-2.97554094,1.40260160,-2.47697125

>  <Name>
ligand

>  <RI>
0

>  <Rbt.Current_Directory>
/home/itssahil/PROJECTS/Mol_Feturizer/New_Systems/rnas/3F4H

>  <Rbt.Executable>
rbdock ($Id: //depot/dev/client3/rdock/2013.1/src/exe/rbdock.cxx#4 $)

>  <Rbt.Library>
libRbt.so (2013.1, Build901 2013/11/27)

>  <Rbt.Parameter_File>
/export/apps/rDock/src/rDock_2013.1_src/data/scripts/dock_solv.prm

>  <Rbt.Receptor>
prm/blind_docking_100.prm

>  <SCORE>
-39.8598

>  <SCORE.INTER>
-22.0778

>  <SCORE.INTER.CONST>
1

>  <SCORE.INTER.POLAR>
0

>  <SCORE.INTER.ROT>
6

>  <SCORE.INTER.SOLV>
8.26227

>  <SCORE.INTER.VDW>
-25.0726

>  <SCORE.INTER.norm>
-0.761304

>  <SCORE.INTRA>
-17.782

>  <SCORE.INTRA.DIHEDRAL>
-4.69035

>  <SCORE.INTRA.DIHEDRAL.0>
6.83446

>  <SCORE.INTRA.POLAR>
0

>  <SCORE.INTRA.POLAR.0>
0

>  <SCORE.INTRA.REPUL>
0

>  <SCORE.INTRA.REPUL.0>
0

>  <SCORE.INTRA.SOLV>
-0.214519

>  <SCORE.INTRA.SOLV.lig_0>
-26.4601

>  <SCORE.INTRA.VDW>
-15.3295

>  <SCORE.INTRA.VDW.0>
13.7853

>  <SCORE.INTRA.norm>
-0.613171

>  <SCORE.RESTR>
0

>  <SCORE.RESTR.CAVITY>
0

>  <SCORE.RESTR.norm>
0

>  <SCORE.SYSTEM>
0

>  <SCORE.SYSTEM.CONST>
0

>  <SCORE.SYSTEM.DIHEDRAL>
0

>  <SCORE.SYSTEM.SOLV>
0

>  <SCORE.SYSTEM.norm>
0

>  <SCORE.heavy>
29

>  <SCORE.norm>
-1.37448

>  <RMSD>
5.663

$$$$
ligand
 OpenBabel11021811473D
libRbt.so/2013.1/901 2013/11/27
 29 31  0  0  0  0  0  0  0  0999 V2000
   28.0539   40.9226   16.1624 C   0  0  0  0  0  0  0  0  0  0  0  0
   27.0497   40.7886   15.1512 O   0  0  0  0  0  0  0  0  0  0  0  0
   27.9094   39.7888   17.1682 C   0  0  1  0  0  0  0  0  0  0  0  0
   28.2560   38.5660   16.5256 O   0  0  0  0  0  0  0  0  0  0  0  0
   28.8087   40.0257   18.3747 C   0  0  1  0  0  0  0  0  0  0  0  0
   28.3739   41.2313   18.9929 O   0  0  0  0  0  0  0  0  0  0  0  0
   28.8291   38.8883   19.4001 C   0  0  1  0  0  0  0  0  0  0  0  0
   29.6886   39.2653   20.4765 O   0  0  0  0  0  0  0  0  0  0  0  0
   27.4532   38.5678   19.9807 C   0  0  0  0  0  0  0  0  0  0  0  0
   27.7669   39.4637   22.6397 N   0  0  0  0  0  0  0  0  0  0  0  0
   27.9123   39.9309   23.9119 C   0  0  0  0  0  0  0  0  0  0  0  0
   27.9623   41.1666   24.1337 O   0  0  0  0  0  0  0  0  0  0  0  0
   28.0100   39.0662   24.9533 N   0  0  0  0  0  0  0  0  0  0  0  0
   27.9649   37.7252   24.7515 C   0  0  0  0  0  0  0  0  0  0  0  0
   27.8157   37.2342   23.4595 C   0  0  1  0  0  0  0  0  0  0  0  0
   28.0580   36.9288   25.7182 O   0  0  0  0  0  0  0  0  0  0  0  0
   27.6177   35.4256   21.9949 C   0  0  1  0  0  0  0  0  0  0  0  0
   27.7645   35.9010   23.2486 N   0  0  0  0  0  0  0  0  0  0  0  0
   27.5666   34.0517   21.7869 C   0  0  0  0  0  0  0  0  0  0  0  0
   27.4133   33.5310   20.5066 C   0  0  2  0  0  0  0  0  0  0  0  0
   27.3669   32.0324   20.3532 C   0  0  0  0  0  0  0  0  0  0  0  0
   27.3087   34.3986   19.4121 C   0  0  2  0  0  0  0  0  0  0  0  0
   27.1567   33.9600   18.1261 N   0  0  0  0  0  0  0  0  0  0  0  0
   27.3632   35.7796   19.6370 C   0  0  0  0  0  0  0  0  0  0  0  0
   27.5180   36.3061   20.9190 C   0  0  2  0  0  0  0  0  0  0  0  0
   27.7133   38.1241   22.3857 C   0  0  2  0  0  0  0  0  0  0  0  0
   27.5728   37.6422   21.1240 N   0  0  0  0  0  0  0  0  0  0  0  0
   28.3287   33.6729   17.3210 C   0  0  0  0  0  0  0  0  0  0  0  0
   25.8528   33.7597   17.5156 C   0  0  0  0  0  0  0  0  0  0  0  0
  1  2  1  0  0  0  0
  3  1  1  6  0  0  0
  3  4  1  0  0  0  0
  3  5  1  0  0  0  0
  5  6  1  1  0  0  0
  5  7  1  0  0  0  0
  7  8  1  1  0  0  0
  7  9  1  0  0  0  0
  9 27  1  0  0  0  0
 10 11  1  0  0  0  0
 11 12  2  0  0  0  0
 11 13  1  0  0  0  0
 13 14  1  0  0  0  0
 14 16  2  0  0  0  0
 15 14  1  1  0  0  0
 15 18  1  0  0  0  0
 15 26  1  0  0  0  0
 17 19  1  1  0  0  0
 17 25  1  0  0  0  0
 17 18  1  0  0  0  0
 19 20  1  0  0  0  0
 20 21  1  6  0  0  0
 20 22  1  0  0  0  0
 22 23  1  6  0  0  0
 22 24  1  0  0  0  0
 23 28  1  0  0  0  0
 23 29  1  0  0  0  0
 25 24  1  6  0  0  0
 25 27  1  0  0  0  0
 26 10  1  6  0  0  0
 26 27  1  0  0  0  0
M  END
>  <CHROM.1>
68.11488419,62.07989278,-178.87328875,-169.90010002,-88.48755103,-90.71242036
27.82089259,37.46059877,20.47808792,-1.78625790,1.44048840,1.82215781

>  <Name>
ligand

>  <RI>
0

>  <Rbt.Current_Directory>
/home/itssahil/PROJECTS/Mol_Feturizer/New_Systems/rnas/3F4H

>  <Rbt.Executable>
rbdock ($Id: //depot/dev/client3/rdock/2013.1/src/exe/rbdock.cxx#4 $)

>  <Rbt.Library>
libRbt.so (2013.1, Build901 2013/11/27)

>  <Rbt.Parameter_File>
/export/apps/rDock/src/rDock_2013.1_src/data/scripts/dock_solv.prm

>  <Rbt.Receptor>
prm/pocket_docking_7.prm

>  <SCORE>
-42.9016

>  <SCORE.INTER>
-24.8513

>  <SCORE.INTER.CONST>
1

>  <SCORE.INTER.POLAR>
0

>  <SCORE.INTER.ROT>
6

>  <SCORE.INTER.SOLV>
10.2039

>  <SCORE.INTER.VDW>
-27.5688

>  <SCORE.INTER.norm>
-0.856942

>  <SCORE.INTRA>
-18.0503

>  <SCORE.INTRA.DIHEDRAL>
-4.1592

>  <SCORE.INTRA.DIHEDRAL.0>
6.83446

>  <SCORE.INTRA.POLAR>
0

>  <SCORE.INTRA.POLAR.0>
0

>  <SCORE.INTRA.REPUL>
0

>  <SCORE.INTRA.REPUL.0>
0

>  <SCORE.INTRA.SOLV>
-0.454532

>  <SCORE.INTRA.SOLV.lig_0>
-26.4601

>  <SCORE.INTRA.VDW>
-15.7434

>  <SCORE.INTRA.VDW.0>
13.7853

>  <SCORE.INTRA.norm>
-0.622423

>  <SCORE.RESTR>
0

>  <SCORE.RESTR.CAVITY>
0

>  <SCORE.RESTR.norm>
0

>  <SCORE.SYSTEM>
0

>  <SCORE.SYSTEM.CONST>
0

>  <SCORE.SYSTEM.DIHEDRAL>
0

>  <SCORE.SYSTEM.SOLV>
0

>  <SCORE.SYSTEM.norm>
0

>  <SCORE.heavy>
29

>  <SCORE.norm>
-1.47936

>  <RMSD>
5.665

$$$$
ligand
 OpenBabel11021811473D
libRbt.so/2013.1/901 2013/11/27
 29 31  0  0  0  0  0  0  0  0999 V2000
   31.0687   38.1029   16.8254 C   0  0  0  0  0  0  0  0  0  0  0  0
   30.3257   37.6534   15.6875 O   0  0  0  0  0  0  0  0  0  0  0  0
   30.5473   39.4656   17.2604 C   0  0  1  0  0  0  0  0  0  0  0  0
   30.5163   40.3230   16.1236 O   0  0  0  0  0  0  0  0  0  0  0  0
   29.1548   39.3380   17.8647 C   0  0  1  0  0  0  0  0  0  0  0  0
   28.3029   38.8165   16.8513 O   0  0  0  0  0  0  0  0  0  0  0  0
   29.0716   38.4651   19.1204 C   0  0  1  0  0  0  0  0  0  0  0  0
   29.8812   39.0572   20.1370 O   0  0  0  0  0  0  0  0  0  0  0  0
   27.6530   38.3197   19.6673 C   0  0  0  0  0  0  0  0  0  0  0  0
   27.7292   39.3329   22.3015 N   0  0  0  0  0  0  0  0  0  0  0  0
   27.7619   39.8564   23.5597 C   0  0  0  0  0  0  0  0  0  0  0  0
   27.8190   41.0999   23.7298 O   0  0  0  0  0  0  0  0  0  0  0  0
   27.7387   39.0396   24.6433 N   0  0  0  0  0  0  0  0  0  0  0  0
   27.6822   37.6918   24.4982 C   0  0  0  0  0  0  0  0  0  0  0  0
   27.6470   37.1438   23.2211 C   0  0  1  0  0  0  0  0  0  0  0  0
   27.6630   36.9398   25.5041 O   0  0  0  0  0  0  0  0  0  0  0  0
   27.5494   35.2726   21.8265 C   0  0  1  0  0  0  0  0  0  0  0  0
   27.5855   35.8034   23.0660 N   0  0  0  0  0  0  0  0  0  0  0  0
   27.4868   33.8917   21.6762 C   0  0  0  0  0  0  0  0  0  0  0  0
   27.4458   33.3146   20.4117 C   0  0  2  0  0  0  0  0  0  0  0  0
   27.3796   31.8117   20.3216 C   0  0  0  0  0  0  0  0  0  0  0  0
   27.4674   34.1320   19.2744 C   0  0  2  0  0  0  0  0  0  0  0  0
   27.4301   33.6366   18.0007 N   0  0  0  0  0  0  0  0  0  0  0  0
   27.5320   35.5207   19.4416 C   0  0  0  0  0  0  0  0  0  0  0  0
   27.5745   36.1036   20.7077 C   0  0  2  0  0  0  0  0  0  0  0  0
   27.6694   37.9842   22.1037 C   0  0  2  0  0  0  0  0  0  0  0  0
   27.6402   37.4465   20.8571 N   0  0  0  0  0  0  0  0  0  0  0  0
   26.1623   33.2312   17.4237 C   0  0  0  0  0  0  0  0  0  0  0  0
   28.6209   33.4972   17.1790 C   0  0  0  0  0  0  0  0  0  0  0  0
  1  2  1  0  0  0  0
  3  1  1  6  0  0  0
  3  4  1  0  0  0  0
  3  5  1  0  0  0  0
  5  6  1  6  0  0  0
  5  7  1  0  0  0  0
  7  8  1  1  0  0  0
  7  9  1  0  0  0  0
  9 27  1  0  0  0  0
 10 11  1  0  0  0  0
 11 12  2  0  0  0  0
 11 13  1  0  0  0  0
 13 14  1  0  0  0  0
 14 16  2  0  0  0  0
 15 14  1  1  0  0  0
 15 18  1  0  0  0  0
 15 26  1  0  0  0  0
 17 19  1  1  0  0  0
 17 25  1  0  0  0  0
 17 18  1  0  0  0  0
 19 20  1  0  0  0  0
 20 21  1  6  0  0  0
 20 22  1  0  0  0  0
 22 23  1  6  0  0  0
 22 24  1  0  0  0  0
 23 28  1  0  0  0  0
 23 29  1  0  0  0  0
 25 24  1  6  0  0  0
 25 27  1  0  0  0  0
 26 10  1  6  0  0  0
 26 27  1  0  0  0  0
M  END
>  <CHROM.1>
-51.10041087,-61.23985137,61.94453909,178.82902758,80.23267194,-84.62370883
28.25179172,37.03254201,20.23385421,-0.97892815,1.18714813,0.82699403

>  <Name>
ligand

>  <RI>
0

>  <Rbt.Current_Directory>
/home/itssahil/PROJECTS/Mol_Feturizer/New_Systems/rnas/3F4H

>  <Rbt.Executable>
rbdock ($Id: //depot/dev/client3/rdock/2013.1/src/exe/rbdock.cxx#4 $)

>  <Rbt.Library>
libRbt.so (2013.1, Build901 2013/11/27)

>  <Rbt.Parameter_File>
/export/apps/rDock/src/rDock_2013.1_src/data/scripts/dock_solv.prm

>  <Rbt.Receptor>
prm/blind_docking_80.prm

>  <SCORE>
-43.774

>  <SCORE.INTER>
-26.4135

>  <SCORE.INTER.CONST>
1

>  <SCORE.INTER.POLAR>
0

>  <SCORE.INTER.ROT>
6

>  <SCORE.INTER.SOLV>
9.07489

>  <SCORE.INTER.VDW>
-28.234

>  <SCORE.INTER.norm>
-0.910812

>  <SCORE.INTRA>
-17.3605

>  <SCORE.INTRA.DIHEDRAL>
-4.4718

>  <SCORE.INTRA.DIHEDRAL.0>
6.83446

>  <SCORE.INTRA.POLAR>
0

>  <SCORE.INTRA.POLAR.0>
0

>  <SCORE.INTRA.REPUL>
0

>  <SCORE.INTRA.REPUL.0>
0

>  <SCORE.INTRA.SOLV>
0.134759

>  <SCORE.INTRA.SOLV.lig_0>
-26.4601

>  <SCORE.INTRA.VDW>
-15.192

>  <SCORE.INTRA.VDW.0>
13.7853

>  <SCORE.INTRA.norm>
-0.598638

>  <SCORE.RESTR>
0

>  <SCORE.RESTR.CAVITY>
0

>  <SCORE.RESTR.norm>
0

>  <SCORE.SYSTEM>
0

>  <SCORE.SYSTEM.CONST>
0

>  <SCORE.SYSTEM.DIHEDRAL>
0

>  <SCORE.SYSTEM.SOLV>
0

>  <SCORE.SYSTEM.norm>
0

>  <SCORE.heavy>
29

>  <SCORE.norm>
-1.50945

>  <RMSD>
5.673

$$$$
ligand
 OpenBabel11021811473D
libRbt.so/2013.1/901 2013/11/27
 29 31  0  0  0  0  0  0  0  0999 V2000
   24.5585   40.8332   18.3925 C   0  0  0  0  0  0  0  0  0  0  0  0
   24.7701   41.9298   19.2878 O   0  0  0  0  0  0  0  0  0  0  0  0
   25.7139   40.7611   17.4035 C   0  0  1  0  0  0  0  0  0  0  0  0
   25.8806   42.0435   16.8070 O   0  0  0  0  0  0  0  0  0  0  0  0
   26.9955   40.3347   18.1078 C   0  0  1  0  0  0  0  0  0  0  0  0
   27.3012   41.3389   19.0686 O   0  0  0  0  0  0  0  0  0  0  0  0
   26.9364   38.9621   18.7845 C   0  0  1  0  0  0  0  0  0  0  0  0
   26.6250   37.9824   17.7931 O   0  0  0  0  0  0  0  0  0  0  0  0
   28.2472   38.5580   19.4564 C   0  0  0  0  0  0  0  0  0  0  0  0
   28.0300   39.3256   22.1647 N   0  0  0  0  0  0  0  0  0  0  0  0
   27.9257   39.7318   23.4617 C   0  0  0  0  0  0  0  0  0  0  0  0
   28.0543   40.9454   23.7603 O   0  0  0  0  0  0  0  0  0  0  0  0
   27.6869   38.8287   24.4462 N   0  0  0  0  0  0  0  0  0  0  0  0
   27.5471   37.5094   24.1620 C   0  0  0  0  0  0  0  0  0  0  0  0
   27.6498   37.0807   22.8435 C   0  0  1  0  0  0  0  0  0  0  0  0
   27.3283   36.6770   25.0768 O   0  0  0  0  0  0  0  0  0  0  0  0
   27.6050   35.3554   21.2697 C   0  0  1  0  0  0  0  0  0  0  0  0
   27.5071   35.7701   22.5495 N   0  0  0  0  0  0  0  0  0  0  0  0
   27.4573   34.0043   20.9762 C   0  0  0  0  0  0  0  0  0  0  0  0
   27.5503   33.5463   19.6665 C   0  0  2  0  0  0  0  0  0  0  0  0
   27.3813   32.0691   19.4198 C   0  0  0  0  0  0  0  0  0  0  0  0
   27.7951   34.4548   18.6289 C   0  0  2  0  0  0  0  0  0  0  0  0
   27.8992   34.0783   17.3187 N   0  0  0  0  0  0  0  0  0  0  0  0
   27.9428   35.8119   18.9401 C   0  0  0  0  0  0  0  0  0  0  0  0
   27.8516   36.2755   20.2521 C   0  0  2  0  0  0  0  0  0  0  0  0
   27.8943   38.0103   21.8279 C   0  0  2  0  0  0  0  0  0  0  0  0
   27.9994   37.5887   20.5414 N   0  0  0  0  0  0  0  0  0  0  0  0
   29.2056   34.0104   16.6917 C   0  0  0  0  0  0  0  0  0  0  0  0
   26.7430   33.7322   16.5087 C   0  0  0  0  0  0  0  0  0  0  0  0
  1  2  1  0  0  0  0
  3  1  1  1  0  0  0
  3  4  1  0  0  0  0
  3  5  1  0  0  0  0
  5  6  1  1  0  0  0
  5  7  1  0  0  0  0
  7  8  1  6  0  0  0
  7  9  1  0  0  0  0
  9 27  1  0  0  0  0
 10 11  1  0  0  0  0
 11 12  2  0  0  0  0
 11 13  1  0  0  0  0
 13 14  1  0  0  0  0
 14 16  2  0  0  0  0
 15 14  1  6  0  0  0
 15 18  1  0  0  0  0
 15 26  1  0  0  0  0
 17 19  1  6  0  0  0
 17 25  1  0  0  0  0
 17 18  1  0  0  0  0
 19 20  1  0  0  0  0
 20 21  1  1  0  0  0
 20 22  1  0  0  0  0
 22 23  1  1  0  0  0
 22 24  1  0  0  0  0
 23 28  1  0  0  0  0
 23 29  1  0  0  0  0
 25 24  1  1  0  0  0
 25 27  1  0  0  0  0
 26 10  1  1  0  0  0
 26 27  1  0  0  0  0
M  END
>  <CHROM.1>
-52.04818710,-62.51711026,58.72723374,155.24107091,-104.08626056,82.40920802
27.28228593,37.59635506,20.14086544,2.30699379,-1.31958877,0.90532565

>  <Name>
ligand

>  <RI>
0

>  <Rbt.Current_Directory>
/home/itssahil/PROJECTS/Mol_Feturizer/New_Systems/rnas/3F4H

>  <Rbt.Executable>
rbdock ($Id: //depot/dev/client3/rdock/2013.1/src/exe/rbdock.cxx#4 $)

>  <Rbt.Library>
libRbt.so (2013.1, Build901 2013/11/27)

>  <Rbt.Parameter_File>
/export/apps/rDock/src/rDock_2013.1_src/data/scripts/dock_solv.prm

>  <Rbt.Receptor>
prm/pocket_docking_8.prm

>  <SCORE>
-40.6447

>  <SCORE.INTER>
-24.5407

>  <SCORE.INTER.CONST>
1

>  <SCORE.INTER.POLAR>
0

>  <SCORE.INTER.ROT>
6

>  <SCORE.INTER.SOLV>
8.28376

>  <SCORE.INTER.VDW>
-26.7217

>  <SCORE.INTER.norm>
-0.846233

>  <SCORE.INTRA>
-16.1069

>  <SCORE.INTRA.DIHEDRAL>
-2.6662

>  <SCORE.INTRA.DIHEDRAL.0>
6.83446

>  <SCORE.INTRA.POLAR>
0

>  <SCORE.INTRA.POLAR.0>
0

>  <SCORE.INTRA.REPUL>
0

>  <SCORE.INTRA.REPUL.0>
0

>  <SCORE.INTRA.SOLV>
0.25582

>  <SCORE.INTRA.SOLV.lig_0>
-26.4601

>  <SCORE.INTRA.VDW>
-14.9017

>  <SCORE.INTRA.VDW.0>
13.7853

>  <SCORE.INTRA.norm>
-0.555409

>  <SCORE.RESTR>
0.00290323

>  <SCORE.RESTR.CAVITY>
0.00290323

>  <SCORE.RESTR.norm>
0.000100112

>  <SCORE.SYSTEM>
0

>  <SCORE.SYSTEM.CONST>
0

>  <SCORE.SYSTEM.DIHEDRAL>
0

>  <SCORE.SYSTEM.SOLV>
0

>  <SCORE.SYSTEM.norm>
0

>  <SCORE.heavy>
29

>  <SCORE.norm>
-1.40154

>  <RMSD>
5.689

$$$$
ligand
 OpenBabel11021811473D
libRbt.so/2013.1/901 2013/11/27
 29 31  0  0  0  0  0  0  0  0999 V2000
   26.6903   42.8583   17.3101 C   0  0  0  0  0  0  0  0  0  0  0  0
   25.5092   43.6087   17.0088 O   0  0  0  0  0  0  0  0  0  0  0  0
   26.3260   41.6879   18.2131 C   0  0  1  0  0  0  0  0  0  0  0  0
   25.4483   40.8217   17.5004 O   0  0  0  0  0  0  0  0  0  0  0  0
   27.5777   40.9344   18.6442 C   0  0  1  0  0  0  0  0  0  0  0  0
   28.3718   41.8384   19.4037 O   0  0  0  0  0  0  0  0  0  0  0  0
   27.3195   39.6582   19.4506 C   0  0  1  0  0  0  0  0  0  0  0  0
   26.6318   38.7266   18.6146 O   0  0  0  0  0  0  0  0  0  0  0  0
   28.5961   38.9897   19.9569 C   0  0  0  0  0  0  0  0  0  0  0  0
   28.4179   39.6336   22.7001 N   0  0  0  0  0  0  0  0  0  0  0  0
   28.3346   39.9803   24.0157 C   0  0  0  0  0  0  0  0  0  0  0  0
   28.5391   41.1668   24.3748 O   0  0  0  0  0  0  0  0  0  0  0  0
   28.0351   39.0463   24.9537 N   0  0  0  0  0  0  0  0  0  0  0  0
   27.8129   37.7544   24.6038 C   0  0  0  0  0  0  0  0  0  0  0  0
   27.8931   37.3864   23.2655 C   0  0  1  0  0  0  0  0  0  0  0  0
   27.5381   36.8931   25.4756 O   0  0  0  0  0  0  0  0  0  0  0  0
   27.7446   35.7481   21.6074 C   0  0  1  0  0  0  0  0  0  0  0  0
   27.6684   36.1039   22.9062 N   0  0  0  0  0  0  0  0  0  0  0  0
   27.5124   34.4255   21.2465 C   0  0  0  0  0  0  0  0  0  0  0  0
   27.5810   34.0284   19.9157 C   0  0  2  0  0  0  0  0  0  0  0  0
   27.3193   32.5791   19.5953 C   0  0  0  0  0  0  0  0  0  0  0  0
   27.8870   34.9700   18.9250 C   0  0  2  0  0  0  0  0  0  0  0  0
   27.9719   34.6535   17.5977 N   0  0  0  0  0  0  0  0  0  0  0  0
   28.1196   36.2978   19.3037 C   0  0  0  0  0  0  0  0  0  0  0  0
   28.0531   36.7003   20.6373 C   0  0  2  0  0  0  0  0  0  0  0  0
   28.2001   38.3480   22.2978 C   0  0  2  0  0  0  0  0  0  0  0  0
   28.2830   37.9853   20.9919 N   0  0  0  0  0  0  0  0  0  0  0  0
   29.2741   34.5031   16.9762 C   0  0  0  0  0  0  0  0  0  0  0  0
   26.7987   34.4525   16.7635 C   0  0  0  0  0  0  0  0  0  0  0  0
  1  2  1  0  0  0  0
  3  1  1  6  0  0  0
  3  4  1  0  0  0  0
  3  5  1  0  0  0  0
  5  6  1  1  0  0  0
  5  7  1  0  0  0  0
  7  8  1  6  0  0  0
  7  9  1  0  0  0  0
  9 27  1  0  0  0  0
 10 11  1  0  0  0  0
 11 12  2  0  0  0  0
 11 13  1  0  0  0  0
 13 14  1  0  0  0  0
 14 16  2  0  0  0  0
 15 14  1  6  0  0  0
 15 18  1  0  0  0  0
 15 26  1  0  0  0  0
 17 19  1  6  0  0  0
 17 25  1  0  0  0  0
 17 18  1  0  0  0  0
 19 20  1  0  0  0  0
 20 21  1  1  0  0  0
 20 22  1  0  0  0  0
 22 23  1  1  0  0  0
 22 24  1  0  0  0  0
 23 28  1  0  0  0  0
 23 29  1  0  0  0  0
 25 24  1  1  0  0  0
 25 27  1  0  0  0  0
 26 10  1  1  0  0  0
 26 27  1  0  0  0  0
M  END
>  <CHROM.1>
63.43383502,62.76955645,64.31819491,165.67102931,-102.64754407,90.75324116
27.60898170,38.08715085,20.42571771,2.40004017,-1.38516966,0.57539041

>  <Name>
ligand

>  <RI>
0

>  <Rbt.Current_Directory>
/home/itssahil/PROJECTS/Mol_Feturizer/New_Systems/rnas/3F4H

>  <Rbt.Executable>
rbdock ($Id: //depot/dev/client3/rdock/2013.1/src/exe/rbdock.cxx#4 $)

>  <Rbt.Library>
libRbt.so (2013.1, Build901 2013/11/27)

>  <Rbt.Parameter_File>
/export/apps/rDock/src/rDock_2013.1_src/data/scripts/dock_solv.prm

>  <Rbt.Receptor>
prm/pocket_docking_7.prm

>  <SCORE>
-40.0558

>  <SCORE.INTER>
-22.3963

>  <SCORE.INTER.CONST>
1

>  <SCORE.INTER.POLAR>
0

>  <SCORE.INTER.ROT>
6

>  <SCORE.INTER.SOLV>
7.97723

>  <SCORE.INTER.VDW>
-25.1899

>  <SCORE.INTER.norm>
-0.772285

>  <SCORE.INTRA>
-17.6596

>  <SCORE.INTRA.DIHEDRAL>
-4.00046

>  <SCORE.INTRA.DIHEDRAL.0>
6.83446

>  <SCORE.INTRA.POLAR>
0

>  <SCORE.INTRA.POLAR.0>
0

>  <SCORE.INTRA.REPUL>
0.000864765

>  <SCORE.INTRA.REPUL.0>
0

>  <SCORE.INTRA.SOLV>
-0.329493

>  <SCORE.INTRA.SOLV.lig_0>
-26.4601

>  <SCORE.INTRA.VDW>
-15.4989

>  <SCORE.INTRA.VDW.0>
13.7853

>  <SCORE.INTRA.norm>
-0.608951

>  <SCORE.RESTR>
0

>  <SCORE.RESTR.CAVITY>
0

>  <SCORE.RESTR.norm>
0

>  <SCORE.SYSTEM>
0

>  <SCORE.SYSTEM.CONST>
0

>  <SCORE.SYSTEM.DIHEDRAL>
0

>  <SCORE.SYSTEM.SOLV>
0

>  <SCORE.SYSTEM.norm>
0

>  <SCORE.heavy>
29

>  <SCORE.norm>
-1.38124

>  <RMSD>
5.692

$$$$
ligand
 OpenBabel11021811473D
libRbt.so/2013.1/901 2013/11/27
 29 31  0  0  0  0  0  0  0  0999 V2000
   27.0380   43.0049   17.3707 C   0  0  0  0  0  0  0  0  0  0  0  0
   25.8960   43.6459   16.7928 O   0  0  0  0  0  0  0  0  0  0  0  0
   26.5877   41.7657   18.1319 C   0  0  1  0  0  0  0  0  0  0  0  0
   25.9275   40.8904   17.2229 O   0  0  0  0  0  0  0  0  0  0  0  0
   27.7813   41.0651   18.7682 C   0  0  1  0  0  0  0  0  0  0  0  0
   28.3732   41.9855   19.6777 O   0  0  0  0  0  0  0  0  0  0  0  0
   27.4539   39.7534   19.4880 C   0  0  1  0  0  0  0  0  0  0  0  0
   26.8102   38.8778   18.5614 O   0  0  0  0  0  0  0  0  0  0  0  0
   28.6855   39.0386   20.0402 C   0  0  0  0  0  0  0  0  0  0  0  0
   28.4284   39.6584   22.7826 N   0  0  0  0  0  0  0  0  0  0  0  0
   28.3087   39.9935   24.0985 C   0  0  0  0  0  0  0  0  0  0  0  0
   28.5437   41.1674   24.4796 O   0  0  0  0  0  0  0  0  0  0  0  0
   27.9395   39.0611   25.0130 N   0  0  0  0  0  0  0  0  0  0  0  0
   27.6825   37.7825   24.6390 C   0  0  0  0  0  0  0  0  0  0  0  0
   27.7992   37.4265   23.3002 C   0  0  1  0  0  0  0  0  0  0  0  0
   27.3432   36.9226   25.4892 O   0  0  0  0  0  0  0  0  0  0  0  0
   27.6521   35.8134   21.6174 C   0  0  1  0  0  0  0  0  0  0  0  0
   27.5405   36.1574   22.9168 N   0  0  0  0  0  0  0  0  0  0  0  0
   27.3845   34.5045   21.2317 C   0  0  0  0  0  0  0  0  0  0  0  0
   27.4882   34.1199   19.8995 C   0  0  2  0  0  0  0  0  0  0  0  0
   27.1848   32.6852   19.5516 C   0  0  0  0  0  0  0  0  0  0  0  0
   27.8662   35.0602   18.9326 C   0  0  2  0  0  0  0  0  0  0  0  0
   27.9891   34.7554   17.6056 N   0  0  0  0  0  0  0  0  0  0  0  0
   28.1337   36.3740   19.3363 C   0  0  0  0  0  0  0  0  0  0  0  0
   28.0322   36.7639   20.6713 C   0  0  2  0  0  0  0  0  0  0  0  0
   28.1780   38.3865   22.3566 C   0  0  2  0  0  0  0  0  0  0  0  0
   28.2965   38.0353   21.0503 N   0  0  0  0  0  0  0  0  0  0  0  0
   29.3071   34.5610   17.0315 C   0  0  0  0  0  0  0  0  0  0  0  0
   26.8415   34.6099   16.7255 C   0  0  0  0  0  0  0  0  0  0  0  0
  1  2  1  0  0  0  0
  3  1  1  6  0  0  0
  3  4  1  0  0  0  0
  3  5  1  0  0  0  0
  5  6  1  1  0  0  0
  5  7  1  0  0  0  0
  7  8  1  6  0  0  0
  7  9  1  0  0  0  0
  9 27  1  0  0  0  0
 10 11  1  0  0  0  0
 11 12  2  0  0  0  0
 11 13  1  0  0  0  0
 13 14  1  0  0  0  0
 14 16  2  0  0  0  0
 15 14  1  6  0  0  0
 15 18  1  0  0  0  0
 15 26  1  0  0  0  0
 17 19  1  6  0  0  0
 17 25  1  0  0  0  0
 17 18  1  0  0  0  0
 19 20  1  0  0  0  0
 20 21  1  1  0  0  0
 20 22  1  0  0  0  0
 22 23  1  1  0  0  0
 22 24  1  0  0  0  0
 23 28  1  0  0  0  0
 23 29  1  0  0  0  0
 25 24  1  1  0  0  0
 25 27  1  0  0  0  0
 26 10  1  1  0  0  0
 26 27  1  0  0  0  0
M  END
>  <CHROM.1>
59.25437760,60.98939233,56.37921083,162.74242376,-102.56106910,90.35364463
27.65121899,38.15979441,20.44187469,2.35807353,-1.43826683,0.48811138

>  <Name>
ligand

>  <RI>
0

>  <Rbt.Current_Directory>
/home/itssahil/PROJECTS/Mol_Feturizer/New_Systems/rnas/3F4H

>  <Rbt.Executable>
rbdock ($Id: //depot/dev/client3/rdock/2013.1/src/exe/rbdock.cxx#4 $)

>  <Rbt.Library>
libRbt.so (2013.1, Build901 2013/11/27)

>  <Rbt.Parameter_File>
/export/apps/rDock/src/rDock_2013.1_src/data/scripts/dock_solv.prm

>  <Rbt.Receptor>
prm/pocket_docking_4.prm

>  <SCORE>
-39.9753

>  <SCORE.INTER>
-22.5838

>  <SCORE.INTER.CONST>
1

>  <SCORE.INTER.POLAR>
0

>  <SCORE.INTER.ROT>
6

>  <SCORE.INTER.SOLV>
8.17026

>  <SCORE.INTER.VDW>
-25.3793

>  <SCORE.INTER.norm>
-0.778753

>  <SCORE.INTRA>
-17.3954

>  <SCORE.INTRA.DIHEDRAL>
-3.78152

>  <SCORE.INTRA.DIHEDRAL.0>
6.83446

>  <SCORE.INTRA.POLAR>
0

>  <SCORE.INTRA.POLAR.0>
0

>  <SCORE.INTRA.REPUL>
0.000754359

>  <SCORE.INTRA.REPUL.0>
0

>  <SCORE.INTRA.SOLV>
-0.296459

>  <SCORE.INTRA.SOLV.lig_0>
-26.4601

>  <SCORE.INTRA.VDW>
-15.3602

>  <SCORE.INTRA.VDW.0>
13.7853

>  <SCORE.INTRA.norm>
-0.599841

>  <SCORE.RESTR>
0.00396105

>  <SCORE.RESTR.CAVITY>
0.00396105

>  <SCORE.RESTR.norm>
0.000136588

>  <SCORE.SYSTEM>
0

>  <SCORE.SYSTEM.CONST>
0

>  <SCORE.SYSTEM.DIHEDRAL>
0

>  <SCORE.SYSTEM.SOLV>
0

>  <SCORE.SYSTEM.norm>
0

>  <SCORE.heavy>
29

>  <SCORE.norm>
-1.37846

>  <RMSD>
5.694

$$$$
ligand
 OpenBabel11021811473D
libRbt.so/2013.1/901 2013/11/27
 29 31  0  0  0  0  0  0  0  0999 V2000
   25.5898   41.2891   17.4520 C   0  0  0  0  0  0  0  0  0  0  0  0
   26.4138   41.1991   16.2851 O   0  0  0  0  0  0  0  0  0  0  0  0
   26.3813   41.9407   18.5777 C   0  0  1  0  0  0  0  0  0  0  0  0
   25.5374   42.0520   19.7196 O   0  0  0  0  0  0  0  0  0  0  0  0
   27.6166   41.1143   18.9116 C   0  0  1  0  0  0  0  0  0  0  0  0
   28.4253   41.8993   19.7802 O   0  0  0  0  0  0  0  0  0  0  0  0
   27.3309   39.7517   19.5498 C   0  0  1  0  0  0  0  0  0  0  0  0
   26.6164   38.9518   18.6068 O   0  0  0  0  0  0  0  0  0  0  0  0
   28.5929   38.9936   19.9563 C   0  0  0  0  0  0  0  0  0  0  0  0
   28.4407   39.6335   22.7019 N   0  0  0  0  0  0  0  0  0  0  0  0
   28.3700   39.9783   24.0188 C   0  0  0  0  0  0  0  0  0  0  0  0
   28.5811   41.1636   24.3780 O   0  0  0  0  0  0  0  0  0  0  0  0
   28.0760   39.0437   24.9579 N   0  0  0  0  0  0  0  0  0  0  0  0
   27.8468   37.7530   24.6078 C   0  0  0  0  0  0  0  0  0  0  0  0
   27.9141   37.3870   23.2683 C   0  0  1  0  0  0  0  0  0  0  0  0
   27.5771   36.8911   25.4807 O   0  0  0  0  0  0  0  0  0  0  0  0
   27.7462   35.7518   21.6089 C   0  0  1  0  0  0  0  0  0  0  0  0
   27.6825   36.1057   22.9089 N   0  0  0  0  0  0  0  0  0  0  0  0
   27.5070   34.4305   21.2480 C   0  0  0  0  0  0  0  0  0  0  0  0
   27.5627   34.0354   19.9159 C   0  0  2  0  0  0  0  0  0  0  0  0
   27.2939   32.5874   19.5955 C   0  0  0  0  0  0  0  0  0  0  0  0
   27.8628   34.9777   18.9241 C   0  0  2  0  0  0  0  0  0  0  0  0
   27.9352   34.6631   17.5956 N   0  0  0  0  0  0  0  0  0  0  0  0
   28.1027   36.3042   19.3030 C   0  0  0  0  0  0  0  0  0  0  0  0
   28.0491   36.7046   20.6377 C   0  0  2  0  0  0  0  0  0  0  0  0
   28.2155   38.3493   22.2995 C   0  0  2  0  0  0  0  0  0  0  0  0
   28.2860   37.9884   20.9924 N   0  0  0  0  0  0  0  0  0  0  0  0
   29.2308   34.4750   16.9707 C   0  0  0  0  0  0  0  0  0  0  0  0
   26.7545   34.5009   16.7634 C   0  0  0  0  0  0  0  0  0  0  0  0
  1  2  1  0  0  0  0
  3  1  1  6  0  0  0
  3  4  1  0  0  0  0
  3  5  1  0  0  0  0
  5  6  1  1  0  0  0
  5  7  1  0  0  0  0
  7  8  1  6  0  0  0
  7  9  1  0  0  0  0
  9 27  1  0  0  0  0
 10 11  1  0  0  0  0
 11 12  2  0  0  0  0
 11 13  1  0  0  0  0
 13 14  1  0  0  0  0
 14 16  2  0  0  0  0
 15 14  1  6  0  0  0
 15 18  1  0  0  0  0
 15 26  1  0  0  0  0
 17 19  1  6  0  0  0
 17 25  1  0  0  0  0
 17 18  1  0  0  0  0
 19 20  1  0  0  0  0
 20 21  1  1  0  0  0
 20 22  1  0  0  0  0
 22 23  1  1  0  0  0
 22 24  1  0  0  0  0
 23 28  1  0  0  0  0
 23 29  1  0  0  0  0
 25 24  1  1  0  0  0
 25 27  1  0  0  0  0
 26 10  1  1  0  0  0
 26 27  1  0  0  0  0
M  END
>  <CHROM.1>
178.59710956,169.35985388,63.73928399,158.17723441,-101.01657874,95.69570936
27.61671738,38.01561355,20.53025010,1.80164008,-1.38575213,0.59357547

>  <Name>
ligand

>  <RI>
0

>  <Rbt.Current_Directory>
/home/itssahil/PROJECTS/Mol_Feturizer/New_Systems/rnas/3F4H

>  <Rbt.Executable>
rbdock ($Id: //depot/dev/client3/rdock/2013.1/src/exe/rbdock.cxx#4 $)

>  <Rbt.Library>
libRbt.so (2013.1, Build901 2013/11/27)

>  <Rbt.Parameter_File>
/export/apps/rDock/src/rDock_2013.1_src/data/scripts/dock_solv.prm

>  <Rbt.Receptor>
prm/pocket_docking_4.prm

>  <SCORE>
-39.6104

>  <SCORE.INTER>
-22.8342

>  <SCORE.INTER.CONST>
1

>  <SCORE.INTER.POLAR>
0

>  <SCORE.INTER.ROT>
6

>  <SCORE.INTER.SOLV>
8.94371

>  <SCORE.INTER.VDW>
-25.804

>  <SCORE.INTER.norm>
-0.787385

>  <SCORE.INTRA>
-16.7763

>  <SCORE.INTRA.DIHEDRAL>
-2.84092

>  <SCORE.INTRA.DIHEDRAL.0>
6.83446

>  <SCORE.INTRA.POLAR>
0

>  <SCORE.INTRA.POLAR.0>
0

>  <SCORE.INTRA.REPUL>
0

>  <SCORE.INTRA.REPUL.0>
0

>  <SCORE.INTRA.SOLV>
0.0868512

>  <SCORE.INTRA.SOLV.lig_0>
-26.4601

>  <SCORE.INTRA.VDW>
-15.3992

>  <SCORE.INTRA.VDW.0>
13.7853

>  <SCORE.INTRA.norm>
-0.578492

>  <SCORE.RESTR>
0

>  <SCORE.RESTR.CAVITY>
0

>  <SCORE.RESTR.norm>
0

>  <SCORE.SYSTEM>
0

>  <SCORE.SYSTEM.CONST>
0

>  <SCORE.SYSTEM.DIHEDRAL>
0

>  <SCORE.SYSTEM.SOLV>
0

>  <SCORE.SYSTEM.norm>
0

>  <SCORE.heavy>
29

>  <SCORE.norm>
-1.36588

>  <RMSD>
5.699

$$$$
ligand
 OpenBabel11021811473D
libRbt.so/2013.1/901 2013/11/27
 29 31  0  0  0  0  0  0  0  0999 V2000
   30.4135   38.0333   15.2753 C   0  0  0  0  0  0  0  0  0  0  0  0
   31.5692   37.4639   14.6515 O   0  0  0  0  0  0  0  0  0  0  0  0
   30.5275   37.8750   16.7853 C   0  0  1  0  0  0  0  0  0  0  0  0
   31.5500   38.7472   17.2565 O   0  0  0  0  0  0  0  0  0  0  0  0
   29.2012   38.2019   17.4594 C   0  0  1  0  0  0  0  0  0  0  0  0
   28.2227   37.3283   16.9080 O   0  0  0  0  0  0  0  0  0  0  0  0
   29.2058   38.0872   18.9867 C   0  0  1  0  0  0  0  0  0  0  0  0
   29.9742   39.1670   19.5189 O   0  0  0  0  0  0  0  0  0  0  0  0
   27.8106   38.1467   19.6054 C   0  0  0  0  0  0  0  0  0  0  0  0
   27.8591   39.2301   22.2122 N   0  0  0  0  0  0  0  0  0  0  0  0
   27.8797   39.7871   23.4561 C   0  0  0  0  0  0  0  0  0  0  0  0
   27.9732   41.0324   23.5937 O   0  0  0  0  0  0  0  0  0  0  0  0
   27.8050   39.0020   24.5606 N   0  0  0  0  0  0  0  0  0  0  0  0
   27.7082   37.6531   24.4509 C   0  0  0  0  0  0  0  0  0  0  0  0
   27.6846   37.0711   23.1886 C   0  0  1  0  0  0  0  0  0  0  0  0
   27.6414   36.9305   25.4760 O   0  0  0  0  0  0  0  0  0  0  0  0
   27.5585   35.1658   21.8434 C   0  0  1  0  0  0  0  0  0  0  0  0
   27.5832   35.7295   23.0685 N   0  0  0  0  0  0  0  0  0  0  0  0
   27.4545   33.7840   21.7291 C   0  0  0  0  0  0  0  0  0  0  0  0
   27.4240   33.1735   20.4801 C   0  0  2  0  0  0  0  0  0  0  0  0
   27.3112   31.6715   20.4293 C   0  0  0  0  0  0  0  0  0  0  0  0
   27.4983   33.9577   19.3219 C   0  0  2  0  0  0  0  0  0  0  0  0
   27.4743   33.4284   18.0616 N   0  0  0  0  0  0  0  0  0  0  0  0
   27.6041   35.3477   19.4529 C   0  0  0  0  0  0  0  0  0  0  0  0
   27.6363   35.9641   20.7034 C   0  0  2  0  0  0  0  0  0  0  0  0
   27.7600   37.8789   22.0497 C   0  0  2  0  0  0  0  0  0  0  0  0
   27.7421   37.3079   20.8178 N   0  0  0  0  0  0  0  0  0  0  0  0
   26.2088   33.0376   17.4698 C   0  0  0  0  0  0  0  0  0  0  0  0
   28.6775   33.2381   17.2686 C   0  0  0  0  0  0  0  0  0  0  0  0
  1  2  1  0  0  0  0
  3  1  1  6  0  0  0
  3  4  1  0  0  0  0
  3  5  1  0  0  0  0
  5  6  1  6  0  0  0
  5  7  1  0  0  0  0
  7  8  1  1  0  0  0
  7  9  1  0  0  0  0
  9 27  1  0  0  0  0
 10 11  1  0  0  0  0
 11 12  2  0  0  0  0
 11 13  1  0  0  0  0
 13 14  1  0  0  0  0
 14 16  2  0  0  0  0
 15 14  1  6  0  0  0
 15 18  1  0  0  0  0
 15 26  1  0  0  0  0
 17 19  1  6  0  0  0
 17 25  1  0  0  0  0
 17 18  1  0  0  0  0
 19 20  1  0  0  0  0
 20 21  1  1  0  0  0
 20 22  1  0  0  0  0
 22 23  1  1  0  0  0
 22 24  1  0  0  0  0
 23 28  1  0  0  0  0
 23 29  1  0  0  0  0
 25 24  1  1  0  0  0
 25 27  1  0  0  0  0
 26 10  1  1  0  0  0
 26 27  1  0  0  0  0
M  END
>  <CHROM.1>
70.61403937,57.86405557,71.33885992,147.15172528,79.73682951,-77.35036389
28.36190796,36.71705605,20.12135198,-1.00198798,1.11052969,0.80737588

>  <Name>
ligand

>  <RI>
0

>  <Rbt.Current_Directory>
/home/itssahil/PROJECTS/Mol_Feturizer/New_Systems/rnas/3F4H

>  <Rbt.Executable>
rbdock ($Id: //depot/dev/client3/rdock/2013.1/src/exe/rbdock.cxx#4 $)

>  <Rbt.Library>
libRbt.so (2013.1, Build901 2013/11/27)

>  <Rbt.Parameter_File>
/export/apps/rDock/src/rDock_2013.1_src/data/scripts/dock_solv.prm

>  <Rbt.Receptor>
prm/blind_docking_80.prm

>  <SCORE>
-41.3373

>  <SCORE.INTER>
-24.9137

>  <SCORE.INTER.CONST>
1

>  <SCORE.INTER.POLAR>
0

>  <SCORE.INTER.ROT>
6

>  <SCORE.INTER.SOLV>
9.87924

>  <SCORE.INTER.VDW>
-27.5022

>  <SCORE.INTER.norm>
-0.859093

>  <SCORE.INTRA>
-16.4236

>  <SCORE.INTRA.DIHEDRAL>
-0.882557

>  <SCORE.INTRA.DIHEDRAL.0>
6.83446

>  <SCORE.INTRA.POLAR>
0

>  <SCORE.INTRA.POLAR.0>
0

>  <SCORE.INTRA.REPUL>
0

>  <SCORE.INTRA.REPUL.0>
0

>  <SCORE.INTRA.SOLV>
-0.285743

>  <SCORE.INTRA.SOLV.lig_0>
-26.4601

>  <SCORE.INTRA.VDW>
-15.8394

>  <SCORE.INTRA.VDW.0>
13.7853

>  <SCORE.INTRA.norm>
-0.566331

>  <SCORE.RESTR>
0

>  <SCORE.RESTR.CAVITY>
0

>  <SCORE.RESTR.norm>
0

>  <SCORE.SYSTEM>
0

>  <SCORE.SYSTEM.CONST>
0

>  <SCORE.SYSTEM.DIHEDRAL>
0

>  <SCORE.SYSTEM.SOLV>
0

>  <SCORE.SYSTEM.norm>
0

>  <SCORE.heavy>
29

>  <SCORE.norm>
-1.42542

>  <RMSD>
5.701

$$$$
ligand
 OpenBabel11021811473D
libRbt.so/2013.1/901 2013/11/27
 29 31  0  0  0  0  0  0  0  0999 V2000
   27.7975   36.4737   12.5457 C   0  0  0  0  0  0  0  0  0  0  0  0
   27.3767   37.7725   12.1157 O   0  0  0  0  0  0  0  0  0  0  0  0
   28.3919   36.5747   13.9438 C   0  0  1  0  0  0  0  0  0  0  0  0
   29.4638   37.5120   13.9139 O   0  0  0  0  0  0  0  0  0  0  0  0
   27.3322   37.0149   14.9455 C   0  0  1  0  0  0  0  0  0  0  0  0
   26.2118   36.1538   14.7780 O   0  0  0  0  0  0  0  0  0  0  0  0
   27.7832   37.0101   16.4092 C   0  0  1  0  0  0  0  0  0  0  0  0
   28.8470   37.9513   16.5575 O   0  0  0  0  0  0  0  0  0  0  0  0
   26.6741   37.3884   17.3888 C   0  0  0  0  0  0  0  0  0  0  0  0
   27.4918   39.5886   18.9577 N   0  0  0  0  0  0  0  0  0  0  0  0
   27.8747   40.6738   19.6885 C   0  0  0  0  0  0  0  0  0  0  0  0
   27.8533   41.8225   19.1801 O   0  0  0  0  0  0  0  0  0  0  0  0
   28.2888   40.5248   20.9723 N   0  0  0  0  0  0  0  0  0  0  0  0
   28.3297   39.2992   21.5530 C   0  0  0  0  0  0  0  0  0  0  0  0
   27.9409   38.1836   20.8203 C   0  0  1  0  0  0  0  0  0  0  0  0
   28.7157   39.1661   22.7408 O   0  0  0  0  0  0  0  0  0  0  0  0
   27.5939   35.8781   20.6798 C   0  0  1  0  0  0  0  0  0  0  0  0
   27.9731   36.9597   21.3908 N   0  0  0  0  0  0  0  0  0  0  0  0
   27.6307   34.6219   21.2749 C   0  0  0  0  0  0  0  0  0  0  0  0
   27.2436   33.4883   20.5688 C   0  0  2  0  0  0  0  0  0  0  0  0
   27.3095   32.1583   21.2746 C   0  0  0  0  0  0  0  0  0  0  0  0
   26.8106   33.6106   19.2424 C   0  0  2  0  0  0  0  0  0  0  0  0
   26.4153   32.5421   18.4866 N   0  0  0  0  0  0  0  0  0  0  0  0
   26.7801   34.8818   18.6562 C   0  0  0  0  0  0  0  0  0  0  0  0
   27.1686   36.0213   19.3601 C   0  0  2  0  0  0  0  0  0  0  0  0
   27.5126   38.3358   19.4978 C   0  0  2  0  0  0  0  0  0  0  0  0
   27.1383   37.2441   18.7823 N   0  0  0  0  0  0  0  0  0  0  0  0
   25.0048   32.2218   18.3764 C   0  0  0  0  0  0  0  0  0  0  0  0
   27.3572   31.6973   17.7711 C   0  0  0  0  0  0  0  0  0  0  0  0
  1  2  1  0  0  0  0
  3  1  1  6  0  0  0
  3  4  1  0  0  0  0
  3  5  1  0  0  0  0
  5  6  1  1  0  0  0
  5  7  1  0  0  0  0
  7  8  1  6  0  0  0
  7  9  1  0  0  0  0
  9 27  1  0  0  0  0
 10 11  1  0  0  0  0
 11 12  2  0  0  0  0
 11 13  1  0  0  0  0
 13 14  1  0  0  0  0
 14 16  2  0  0  0  0
 15 14  1  1  0  0  0
 15 18  1  0  0  0  0
 15 26  1  0  0  0  0
 17 19  1  1  0  0  0
 17 25  1  0  0  0  0
 17 18  1  0  0  0  0
 19 20  1  0  0  0  0
 20 21  1  6  0  0  0
 20 22  1  0  0  0  0
 22 23  1  6  0  0  0
 22 24  1  0  0  0  0
 23 28  1  0  0  0  0
 23 29  1  0  0  0  0
 25 24  1  6  0  0  0
 25 27  1  0  0  0  0
 26 10  1  6  0  0  0
 26 27  1  0  0  0  0
M  END
>  <CHROM.1>
-56.99721190,51.27953605,62.77521746,174.78683043,96.56577386,-79.89509547
27.53663539,36.66981287,18.22671664,-1.76339286,1.37136309,1.56112971

>  <Name>
ligand

>  <RI>
0

>  <Rbt.Current_Directory>
/home/itssahil/PROJECTS/Mol_Feturizer/New_Systems/rnas/3F4H

>  <Rbt.Executable>
rbdock ($Id: //depot/dev/client3/rdock/2013.1/src/exe/rbdock.cxx#4 $)

>  <Rbt.Library>
libRbt.so (2013.1, Build901 2013/11/27)

>  <Rbt.Parameter_File>
/export/apps/rDock/src/rDock_2013.1_src/data/scripts/dock_solv.prm

>  <Rbt.Receptor>
prm/blind_docking_80.prm

>  <SCORE>
242.236

>  <SCORE.INTER>
257.33

>  <SCORE.INTER.CONST>
1

>  <SCORE.INTER.POLAR>
0

>  <SCORE.INTER.ROT>
6

>  <SCORE.INTER.SOLV>
15.787

>  <SCORE.INTER.VDW>
158.691

>  <SCORE.INTER.norm>
8.87345

>  <SCORE.INTRA>
-17.5371

>  <SCORE.INTRA.DIHEDRAL>
-4.34891

>  <SCORE.INTRA.DIHEDRAL.0>
6.83446

>  <SCORE.INTRA.POLAR>
0

>  <SCORE.INTRA.POLAR.0>
0

>  <SCORE.INTRA.REPUL>
0

>  <SCORE.INTRA.REPUL.0>
0

>  <SCORE.INTRA.SOLV>
0.000495974

>  <SCORE.INTRA.SOLV.lig_0>
-26.4601

>  <SCORE.INTRA.VDW>
-15.3629

>  <SCORE.INTRA.VDW.0>
13.7853

>  <SCORE.INTRA.norm>
-0.604729

>  <SCORE.RESTR>
2.44283

>  <SCORE.RESTR.CAVITY>
2.44283

>  <SCORE.RESTR.norm>
0.0842356

>  <SCORE.SYSTEM>
0

>  <SCORE.SYSTEM.CONST>
0

>  <SCORE.SYSTEM.DIHEDRAL>
0

>  <SCORE.SYSTEM.SOLV>
0

>  <SCORE.SYSTEM.norm>
0

>  <SCORE.heavy>
29

>  <SCORE.norm>
8.35296

>  <RMSD>
5.701

$$$$
ligand
 OpenBabel11021811473D
libRbt.so/2013.1/901 2013/11/27
 29 31  0  0  0  0  0  0  0  0999 V2000
   28.6593   37.3517   16.4055 C   0  0  0  0  0  0  0  0  0  0  0  0
   30.0257   37.3816   15.9800 O   0  0  0  0  0  0  0  0  0  0  0  0
   28.1989   38.7687   16.7187 C   0  0  1  0  0  0  0  0  0  0  0  0
   26.8192   38.7297   17.0701 O   0  0  0  0  0  0  0  0  0  0  0  0
   29.0187   39.3583   17.8592 C   0  0  1  0  0  0  0  0  0  0  0  0
   28.5117   40.6639   18.1102 O   0  0  0  0  0  0  0  0  0  0  0  0
   29.0144   38.5365   19.1516 C   0  0  1  0  0  0  0  0  0  0  0  0
   29.9170   39.1441   20.0767 O   0  0  0  0  0  0  0  0  0  0  0  0
   27.6409   38.4515   19.8140 C   0  0  0  0  0  0  0  0  0  0  0  0
   27.8581   39.4145   22.4592 N   0  0  0  0  0  0  0  0  0  0  0  0
   27.9584   39.9140   23.7235 C   0  0  0  0  0  0  0  0  0  0  0  0
   28.0328   41.1537   23.9134 O   0  0  0  0  0  0  0  0  0  0  0  0
   27.9844   39.0771   24.7916 N   0  0  0  0  0  0  0  0  0  0  0  0
   27.9111   37.7326   24.6248 C   0  0  0  0  0  0  0  0  0  0  0  0
   27.8071   37.2090   23.3411 C   0  0  1  0  0  0  0  0  0  0  0  0
   27.9377   36.9620   25.6162 O   0  0  0  0  0  0  0  0  0  0  0  0
   27.6255   35.3650   21.9191 C   0  0  1  0  0  0  0  0  0  0  0  0
   27.7283   35.8721   23.1647 N   0  0  0  0  0  0  0  0  0  0  0  0
   27.5455   33.9876   21.7466 C   0  0  0  0  0  0  0  0  0  0  0  0
   27.4362   33.4347   20.4754 C   0  0  2  0  0  0  0  0  0  0  0  0
   27.3549   31.9341   20.3610 C   0  0  0  0  0  0  0  0  0  0  0  0
   27.4058   34.2731   19.3538 C   0  0  2  0  0  0  0  0  0  0  0  0
   27.3003   33.8021   18.0747 N   0  0  0  0  0  0  0  0  0  0  0  0
   27.4887   35.6580   19.5431 C   0  0  0  0  0  0  0  0  0  0  0  0
   27.5996   36.2167   20.8159 C   0  0  2  0  0  0  0  0  0  0  0  0
   27.7786   38.0701   22.2398 C   0  0  2  0  0  0  0  0  0  0  0  0
   27.6824   37.5562   20.9866 N   0  0  0  0  0  0  0  0  0  0  0  0
   28.4973   33.4303   17.3442 C   0  0  0  0  0  0  0  0  0  0  0  0
   26.0224   33.6488   17.3991 C   0  0  0  0  0  0  0  0  0  0  0  0
  1  2  1  0  0  0  0
  3  1  1  1  0  0  0
  3  4  1  0  0  0  0
  3  5  1  0  0  0  0
  5  6  1  1  0  0  0
  5  7  1  0  0  0  0
  7  8  1  1  0  0  0
  7  9  1  0  0  0  0
  9 27  1  0  0  0  0
 10 11  1  0  0  0  0
 11 12  2  0  0  0  0
 11 13  1  0  0  0  0
 13 14  1  0  0  0  0
 14 16  2  0  0  0  0
 15 14  1  1  0  0  0
 15 18  1  0  0  0  0
 15 26  1  0  0  0  0
 17 19  1  1  0  0  0
 17 25  1  0  0  0  0
 17 18  1  0  0  0  0
 19 20  1  0  0  0  0
 20 21  1  6  0  0  0
 20 22  1  0  0  0  0
 22 23  1  6  0  0  0
 22 24  1  0  0  0  0
 23 28  1  0  0  0  0
 23 29  1  0  0  0  0
 25 24  1  6  0  0  0
 25 27  1  0  0  0  0
 26 10  1  6  0  0  0
 26 27  1  0  0  0  0
M  END
>  <CHROM.1>
176.89038727,-178.74345594,174.67214071,175.24244786,-87.00447960,-81.44281023
27.97890846,37.05953732,20.37736404,-1.60560220,1.37310564,1.13461875

>  <Name>
ligand

>  <RI>
0

>  <Rbt.Current_Directory>
/home/itssahil/PROJECTS/Mol_Feturizer/New_Systems/rnas/3F4H

>  <Rbt.Executable>
rbdock ($Id: //depot/dev/client3/rdock/2013.1/src/exe/rbdock.cxx#4 $)

>  <Rbt.Library>
libRbt.so (2013.1, Build901 2013/11/27)

>  <Rbt.Parameter_File>
/export/apps/rDock/src/rDock_2013.1_src/data/scripts/dock_solv.prm

>  <Rbt.Receptor>
prm/pocket_docking_7.prm

>  <SCORE>
-43.1633

>  <SCORE.INTER>
-24.969

>  <SCORE.INTER.CONST>
1

>  <SCORE.INTER.POLAR>
0

>  <SCORE.INTER.ROT>
6

>  <SCORE.INTER.SOLV>
8.36288

>  <SCORE.INTER.VDW>
-27.0336

>  <SCORE.INTER.norm>
-0.861

>  <SCORE.INTRA>
-18.1942

>  <SCORE.INTRA.DIHEDRAL>
-4.54264

>  <SCORE.INTRA.DIHEDRAL.0>
6.83446

>  <SCORE.INTRA.POLAR>
0

>  <SCORE.INTRA.POLAR.0>
0

>  <SCORE.INTRA.REPUL>
0

>  <SCORE.INTRA.REPUL.0>
0

>  <SCORE.INTRA.SOLV>
-0.019779

>  <SCORE.INTRA.SOLV.lig_0>
-26.4601

>  <SCORE.INTRA.VDW>
-15.913

>  <SCORE.INTRA.VDW.0>
13.7853

>  <SCORE.INTRA.norm>
-0.627388

>  <SCORE.RESTR>
0

>  <SCORE.RESTR.CAVITY>
0

>  <SCORE.RESTR.norm>
0

>  <SCORE.SYSTEM>
0

>  <SCORE.SYSTEM.CONST>
0

>  <SCORE.SYSTEM.DIHEDRAL>
0

>  <SCORE.SYSTEM.SOLV>
0

>  <SCORE.SYSTEM.norm>
0

>  <SCORE.heavy>
29

>  <SCORE.norm>
-1.48839

>  <RMSD>
5.702

$$$$
ligand
 OpenBabel11021811473D
libRbt.so/2013.1/901 2013/11/27
 29 31  0  0  0  0  0  0  0  0999 V2000
   30.8490   38.2297   16.5810 C   0  0  0  0  0  0  0  0  0  0  0  0
   31.1798   37.3059   17.6232 O   0  0  0  0  0  0  0  0  0  0  0  0
   30.3970   39.5453   17.1998 C   0  0  1  0  0  0  0  0  0  0  0  0
   30.3424   40.5330   16.1751 O   0  0  0  0  0  0  0  0  0  0  0  0
   29.0311   39.3873   17.8553 C   0  0  1  0  0  0  0  0  0  0  0  0
   28.1491   38.8649   16.8685 O   0  0  0  0  0  0  0  0  0  0  0  0
   29.0102   38.4971   19.1014 C   0  0  1  0  0  0  0  0  0  0  0  0
   29.9577   39.0097   20.0391 O   0  0  0  0  0  0  0  0  0  0  0  0
   27.6462   38.4414   19.7865 C   0  0  0  0  0  0  0  0  0  0  0  0
   27.8721   39.4286   22.4220 N   0  0  0  0  0  0  0  0  0  0  0  0
   27.9766   39.9396   23.6814 C   0  0  0  0  0  0  0  0  0  0  0  0
   28.0514   41.1810   23.8597 O   0  0  0  0  0  0  0  0  0  0  0  0
   28.0064   39.1125   24.7570 N   0  0  0  0  0  0  0  0  0  0  0  0
   27.9327   37.7666   24.6027 C   0  0  0  0  0  0  0  0  0  0  0  0
   27.8246   37.2312   23.3242 C   0  0  1  0  0  0  0  0  0  0  0  0
   27.9628   37.0050   25.6010 O   0  0  0  0  0  0  0  0  0  0  0  0
   27.6386   35.3743   21.9197 C   0  0  1  0  0  0  0  0  0  0  0  0
   27.7455   35.8927   23.1603 N   0  0  0  0  0  0  0  0  0  0  0  0
   27.5583   33.9953   21.7600 C   0  0  0  0  0  0  0  0  0  0  0  0
   27.4449   33.4308   20.4943 C   0  0  2  0  0  0  0  0  0  0  0  0
   27.3635   31.9292   20.3940 C   0  0  0  0  0  0  0  0  0  0  0  0
   27.4105   34.2590   19.3652 C   0  0  2  0  0  0  0  0  0  0  0  0
   27.3008   33.7762   18.0908 N   0  0  0  0  0  0  0  0  0  0  0  0
   27.4937   35.6455   19.5416 C   0  0  0  0  0  0  0  0  0  0  0  0
   27.6088   36.2159   20.8089 C   0  0  2  0  0  0  0  0  0  0  0  0
   27.7922   38.0822   22.2152 C   0  0  2  0  0  0  0  0  0  0  0  0
   27.6919   37.5568   20.9671 N   0  0  0  0  0  0  0  0  0  0  0  0
   28.4935   33.3770   17.3680 C   0  0  0  0  0  0  0  0  0  0  0  0
   26.0225   33.6371   17.4130 C   0  0  0  0  0  0  0  0  0  0  0  0
  1  2  1  0  0  0  0
  3  1  1  6  0  0  0
  3  4  1  0  0  0  0
  3  5  1  0  0  0  0
  5  6  1  6  0  0  0
  5  7  1  0  0  0  0
  7  8  1  1  0  0  0
  7  9  1  0  0  0  0
  9 27  1  0  0  0  0
 10 11  1  0  0  0  0
 11 12  2  0  0  0  0
 11 13  1  0  0  0  0
 13 14  1  0  0  0  0
 14 16  2  0  0  0  0
 15 14  1  1  0  0  0
 15 18  1  0  0  0  0
 15 26  1  0  0  0  0
 17 19  1  1  0  0  0
 17 25  1  0  0  0  0
 17 18  1  0  0  0  0
 19 20  1  0  0  0  0
 20 21  1  6  0  0  0
 20 22  1  0  0  0  0
 22 23  1  6  0  0  0
 22 24  1  0  0  0  0
 23 28  1  0  0  0  0
 23 29  1  0  0  0  0
 25 24  1  6  0  0  0
 25 27  1  0  0  0  0
 26 10  1  6  0  0  0
 26 27  1  0  0  0  0
M  END
>  <CHROM.1>
167.95664379,-54.53751053,55.78371950,179.33727327,-85.97347348,-80.23820876
28.31114240,37.11103199,20.37019598,-1.16608783,1.19814699,0.91669026

>  <Name>
ligand

>  <RI>
0

>  <Rbt.Current_Directory>
/home/itssahil/PROJECTS/Mol_Feturizer/New_Systems/rnas/3F4H

>  <Rbt.Executable>
rbdock ($Id: //depot/dev/client3/rdock/2013.1/src/exe/rbdock.cxx#4 $)

>  <Rbt.Library>
libRbt.so (2013.1, Build901 2013/11/27)

>  <Rbt.Parameter_File>
/export/apps/rDock/src/rDock_2013.1_src/data/scripts/dock_solv.prm

>  <Rbt.Receptor>
prm/blind_docking_60.prm

>  <SCORE>
-44.0024

>  <SCORE.INTER>
-26.4742

>  <SCORE.INTER.CONST>
1

>  <SCORE.INTER.POLAR>
0

>  <SCORE.INTER.ROT>
6

>  <SCORE.INTER.SOLV>
9.10793

>  <SCORE.INTER.VDW>
-28.2855

>  <SCORE.INTER.norm>
-0.912904

>  <SCORE.INTRA>
-17.5282

>  <SCORE.INTRA.DIHEDRAL>
-4.08379

>  <SCORE.INTRA.DIHEDRAL.0>
6.83446

>  <SCORE.INTRA.POLAR>
0

>  <SCORE.INTRA.POLAR.0>
0

>  <SCORE.INTRA.REPUL>
0

>  <SCORE.INTRA.REPUL.0>
0

>  <SCORE.INTRA.SOLV>
0.104629

>  <SCORE.INTRA.SOLV.lig_0>
-26.4601

>  <SCORE.INTRA.VDW>
-15.5386

>  <SCORE.INTRA.VDW.0>
13.7853

>  <SCORE.INTRA.norm>
-0.604422

>  <SCORE.RESTR>
0

>  <SCORE.RESTR.CAVITY>
0

>  <SCORE.RESTR.norm>
0

>  <SCORE.SYSTEM>
0

>  <SCORE.SYSTEM.CONST>
0

>  <SCORE.SYSTEM.DIHEDRAL>
0

>  <SCORE.SYSTEM.SOLV>
0

>  <SCORE.SYSTEM.norm>
0

>  <SCORE.heavy>
29

>  <SCORE.norm>
-1.51733

>  <RMSD>
5.709

$$$$
ligand
 OpenBabel11021811473D
libRbt.so/2013.1/901 2013/11/27
 29 31  0  0  0  0  0  0  0  0999 V2000
   27.1590   42.8367   16.8044 C   0  0  0  0  0  0  0  0  0  0  0  0
   26.0795   43.4834   16.1222 O   0  0  0  0  0  0  0  0  0  0  0  0
   26.5967   41.7978   17.7649 C   0  0  1  0  0  0  0  0  0  0  0  0
   25.9041   40.8094   17.0087 O   0  0  0  0  0  0  0  0  0  0  0  0
   27.7160   41.1560   18.5746 C   0  0  1  0  0  0  0  0  0  0  0  0
   28.3237   42.1879   19.3432 O   0  0  0  0  0  0  0  0  0  0  0  0
   27.2772   40.0093   19.4901 C   0  0  1  0  0  0  0  0  0  0  0  0
   26.6855   38.9890   18.6848 O   0  0  0  0  0  0  0  0  0  0  0  0
   28.4274   39.3855   20.2779 C   0  0  0  0  0  0  0  0  0  0  0  0
   27.6749   39.8331   22.9620 N   0  0  0  0  0  0  0  0  0  0  0  0
   27.3152   40.0857   24.2523 C   0  0  0  0  0  0  0  0  0  0  0  0
   27.4131   41.2460   24.7242 O   0  0  0  0  0  0  0  0  0  0  0  0
   26.8523   39.0851   25.0438 N   0  0  0  0  0  0  0  0  0  0  0  0
   26.7377   37.8189   24.5701 C   0  0  0  0  0  0  0  0  0  0  0  0
   27.0995   37.5467   23.2557 C   0  0  1  0  0  0  0  0  0  0  0  0
   26.3107   36.8958   25.3070 O   0  0  0  0  0  0  0  0  0  0  0  0
   27.3337   36.0276   21.4970 C   0  0  1  0  0  0  0  0  0  0  0  0
   26.9842   36.2904   22.7729 N   0  0  0  0  0  0  0  0  0  0  0  0
   27.2124   34.7314   21.0085 C   0  0  0  0  0  0  0  0  0  0  0  0
   27.5621   34.4296   19.6969 C   0  0  2  0  0  0  0  0  0  0  0  0
   27.4066   33.0039   19.2334 C   0  0  0  0  0  0  0  0  0  0  0  0
   28.0420   35.4415   18.8558 C   0  0  2  0  0  0  0  0  0  0  0  0
   28.4050   35.2199   17.5564 N   0  0  0  0  0  0  0  0  0  0  0  0
   28.1600   36.7416   19.3622 C   0  0  0  0  0  0  0  0  0  0  0  0
   27.8117   37.0486   20.6771 C   0  0  2  0  0  0  0  0  0  0  0  0
   27.5752   38.5769   22.4386 C   0  0  2  0  0  0  0  0  0  0  0  0
   27.9330   38.3077   21.1566 N   0  0  0  0  0  0  0  0  0  0  0  0
   29.8050   35.2792   17.1808 C   0  0  0  0  0  0  0  0  0  0  0  0
   27.4386   34.9182   16.5135 C   0  0  0  0  0  0  0  0  0  0  0  0
  1  2  1  0  0  0  0
  3  1  1  6  0  0  0
  3  4  1  0  0  0  0
  3  5  1  0  0  0  0
  5  6  1  1  0  0  0
  5  7  1  0  0  0  0
  7  8  1  6  0  0  0
  7  9  1  0  0  0  0
  9 27  1  0  0  0  0
 10 11  1  0  0  0  0
 11 12  2  0  0  0  0
 11 13  1  0  0  0  0
 13 14  1  0  0  0  0
 14 16  2  0  0  0  0
 15 14  1  6  0  0  0
 15 18  1  0  0  0  0
 15 26  1  0  0  0  0
 17 19  1  6  0  0  0
 17 25  1  0  0  0  0
 17 18  1  0  0  0  0
 19 20  1  0  0  0  0
 20 21  1  1  0  0  0
 20 22  1  0  0  0  0
 22 23  1  1  0  0  0
 22 24  1  0  0  0  0
 23 28  1  0  0  0  0
 23 29  1  0  0  0  0
 25 24  1  1  0  0  0
 25 27  1  0  0  0  0
 26 10  1  1  0  0  0
 26 27  1  0  0  0  0
M  END
>  <CHROM.1>
62.62787353,62.30838871,59.44653495,178.90722519,-109.71544104,86.72808280
27.40775450,38.33876221,20.34637678,1.86697702,1.44940064,-1.09921134

>  <Name>
ligand

>  <RI>
0

>  <Rbt.Current_Directory>
/home/itssahil/PROJECTS/Mol_Feturizer/New_Systems/rnas/3F4H

>  <Rbt.Executable>
rbdock ($Id: //depot/dev/client3/rdock/2013.1/src/exe/rbdock.cxx#4 $)

>  <Rbt.Library>
libRbt.so (2013.1, Build901 2013/11/27)

>  <Rbt.Parameter_File>
/export/apps/rDock/src/rDock_2013.1_src/data/scripts/dock_solv.prm

>  <Rbt.Receptor>
prm/blind_docking_80.prm

>  <SCORE>
-39.3846

>  <SCORE.INTER>
-21.9998

>  <SCORE.INTER.CONST>
1

>  <SCORE.INTER.POLAR>
0

>  <SCORE.INTER.ROT>
6

>  <SCORE.INTER.SOLV>
9.46961

>  <SCORE.INTER.VDW>
-25.4231

>  <SCORE.INTER.norm>
-0.758613

>  <SCORE.INTRA>
-17.3848

>  <SCORE.INTRA.DIHEDRAL>
-4.79606

>  <SCORE.INTRA.DIHEDRAL.0>
6.83446

>  <SCORE.INTRA.POLAR>
0

>  <SCORE.INTRA.POLAR.0>
0

>  <SCORE.INTRA.REPUL>
0.00585114

>  <SCORE.INTRA.REPUL.0>
0

>  <SCORE.INTRA.SOLV>
-0.23923

>  <SCORE.INTRA.SOLV.lig_0>
-26.4601

>  <SCORE.INTRA.VDW>
-14.8964

>  <SCORE.INTRA.VDW.0>
13.7853

>  <SCORE.INTRA.norm>
-0.599475

>  <SCORE.RESTR>
0

>  <SCORE.RESTR.CAVITY>
0

>  <SCORE.RESTR.norm>
0

>  <SCORE.SYSTEM>
0

>  <SCORE.SYSTEM.CONST>
0

>  <SCORE.SYSTEM.DIHEDRAL>
0

>  <SCORE.SYSTEM.SOLV>
0

>  <SCORE.SYSTEM.norm>
0

>  <SCORE.heavy>
29

>  <SCORE.norm>
-1.35809

>  <RMSD>
5.711

$$$$
ligand
 OpenBabel11021811473D
libRbt.so/2013.1/901 2013/11/27
 29 31  0  0  0  0  0  0  0  0999 V2000
   29.2174   37.3437   16.4918 C   0  0  0  0  0  0  0  0  0  0  0  0
   30.6043   37.6183   16.2684 O   0  0  0  0  0  0  0  0  0  0  0  0
   28.4787   38.6522   16.7376 C   0  0  1  0  0  0  0  0  0  0  0  0
   27.1012   38.3614   16.9527 O   0  0  0  0  0  0  0  0  0  0  0  0
   29.0610   39.3771   17.9442 C   0  0  1  0  0  0  0  0  0  0  0  0
   28.3539   40.6046   18.0786 O   0  0  0  0  0  0  0  0  0  0  0  0
   29.0059   38.5934   19.2589 C   0  0  1  0  0  0  0  0  0  0  0  0
   29.7402   39.3167   20.2474 O   0  0  0  0  0  0  0  0  0  0  0  0
   27.5867   38.3814   19.7818 C   0  0  0  0  0  0  0  0  0  0  0  0
   27.6869   39.3640   22.4268 N   0  0  0  0  0  0  0  0  0  0  0  0
   27.7307   39.8728   23.6906 C   0  0  0  0  0  0  0  0  0  0  0  0
   27.7819   41.1145   23.8748 O   0  0  0  0  0  0  0  0  0  0  0  0
   27.7251   39.0431   24.7646 N   0  0  0  0  0  0  0  0  0  0  0  0
   27.6753   37.6968   24.6043 C   0  0  0  0  0  0  0  0  0  0  0  0
   27.6289   37.1636   23.3212 C   0  0  1  0  0  0  0  0  0  0  0  0
   27.6724   36.9329   25.6013 O   0  0  0  0  0  0  0  0  0  0  0  0
   27.5270   35.3085   21.9057 C   0  0  1  0  0  0  0  0  0  0  0  0
   27.5740   35.8248   23.1509 N   0  0  0  0  0  0  0  0  0  0  0  0
   27.4712   33.9290   21.7397 C   0  0  0  0  0  0  0  0  0  0  0  0
   27.4193   33.3667   20.4690 C   0  0  2  0  0  0  0  0  0  0  0  0
   27.3616   31.8645   20.3619 C   0  0  0  0  0  0  0  0  0  0  0  0
   27.4228   34.1975   19.3414 C   0  0  2  0  0  0  0  0  0  0  0  0
   27.3739   33.7170   18.0624 N   0  0  0  0  0  0  0  0  0  0  0  0
   27.4806   35.5845   19.5243 C   0  0  0  0  0  0  0  0  0  0  0  0
   27.5340   36.1528   20.7966 C   0  0  2  0  0  0  0  0  0  0  0  0
   27.6332   38.0173   22.2136 C   0  0  2  0  0  0  0  0  0  0  0  0
   27.5930   37.4942   20.9612 N   0  0  0  0  0  0  0  0  0  0  0  0
   26.0908   33.4180   17.4551 C   0  0  0  0  0  0  0  0  0  0  0  0
   28.5675   33.4902   17.2644 C   0  0  0  0  0  0  0  0  0  0  0  0
  1  2  1  0  0  0  0
  3  1  1  1  0  0  0
  3  4  1  0  0  0  0
  3  5  1  0  0  0  0
  5  6  1  1  0  0  0
  5  7  1  0  0  0  0
  7  8  1  1  0  0  0
  7  9  1  0  0  0  0
  9 27  1  0  0  0  0
 10 11  1  0  0  0  0
 11 12  2  0  0  0  0
 11 13  1  0  0  0  0
 13 14  1  0  0  0  0
 14 16  2  0  0  0  0
 15 14  1  1  0  0  0
 15 18  1  0  0  0  0
 15 26  1  0  0  0  0
 17 19  1  1  0  0  0
 17 25  1  0  0  0  0
 17 18  1  0  0  0  0
 19 20  1  0  0  0  0
 20 21  1  6  0  0  0
 20 22  1  0  0  0  0
 22 23  1  6  0  0  0
 22 24  1  0  0  0  0
 23 28  1  0  0  0  0
 23 29  1  0  0  0  0
 25 24  1  6  0  0  0
 25 27  1  0  0  0  0
 26 10  1  6  0  0  0
 26 27  1  0  0  0  0
M  END
>  <CHROM.1>
179.78189655,177.96091991,172.35906020,173.58421657,85.48704981,-87.20683214
27.96050184,37.01587120,20.38638261,-1.37825675,1.33014474,0.89657818

>  <Name>
ligand

>  <RI>
0

>  <Rbt.Current_Directory>
/home/itssahil/PROJECTS/Mol_Feturizer/New_Systems/rnas/3F4H

>  <Rbt.Executable>
rbdock ($Id: //depot/dev/client3/rdock/2013.1/src/exe/rbdock.cxx#4 $)

>  <Rbt.Library>
libRbt.so (2013.1, Build901 2013/11/27)

>  <Rbt.Parameter_File>
/export/apps/rDock/src/rDock_2013.1_src/data/scripts/dock_solv.prm

>  <Rbt.Receptor>
prm/pocket_docking_8.prm

>  <SCORE>
-43.0812

>  <SCORE.INTER>
-24.9055

>  <SCORE.INTER.CONST>
1

>  <SCORE.INTER.POLAR>
0

>  <SCORE.INTER.ROT>
6

>  <SCORE.INTER.SOLV>
8.11836

>  <SCORE.INTER.VDW>
-26.9098

>  <SCORE.INTER.norm>
-0.858812

>  <SCORE.INTRA>
-18.1774

>  <SCORE.INTRA.DIHEDRAL>
-4.38997

>  <SCORE.INTRA.DIHEDRAL.0>
6.83446

>  <SCORE.INTRA.POLAR>
0

>  <SCORE.INTRA.POLAR.0>
0

>  <SCORE.INTRA.REPUL>
0

>  <SCORE.INTRA.REPUL.0>
0

>  <SCORE.INTRA.SOLV>
-0.0786032

>  <SCORE.INTRA.SOLV.lig_0>
-26.4601

>  <SCORE.INTRA.VDW>
-15.9431

>  <SCORE.INTRA.VDW.0>
13.7853

>  <SCORE.INTRA.norm>
-0.626807

>  <SCORE.RESTR>
0.00177882

>  <SCORE.RESTR.CAVITY>
0.00177882

>  <SCORE.RESTR.norm>
6.13386e-05

>  <SCORE.SYSTEM>
0

>  <SCORE.SYSTEM.CONST>
0

>  <SCORE.SYSTEM.DIHEDRAL>
0

>  <SCORE.SYSTEM.SOLV>
0

>  <SCORE.SYSTEM.norm>
0

>  <SCORE.heavy>
29

>  <SCORE.norm>
-1.48556

>  <RMSD>
5.711

$$$$
ligand
 OpenBabel11021811473D
libRbt.so/2013.1/901 2013/11/27
 29 31  0  0  0  0  0  0  0  0999 V2000
   30.8335   38.2139   16.5923 C   0  0  0  0  0  0  0  0  0  0  0  0
   31.0712   37.2581   17.6309 O   0  0  0  0  0  0  0  0  0  0  0  0
   30.4067   39.5366   17.2140 C   0  0  1  0  0  0  0  0  0  0  0  0
   30.3548   40.5236   16.1884 O   0  0  0  0  0  0  0  0  0  0  0  0
   29.0459   39.3987   17.8845 C   0  0  1  0  0  0  0  0  0  0  0  0
   28.1527   38.8608   16.9162 O   0  0  0  0  0  0  0  0  0  0  0  0
   29.0318   38.5340   19.1485 C   0  0  1  0  0  0  0  0  0  0  0  0
   29.9471   39.0951   20.0903 O   0  0  0  0  0  0  0  0  0  0  0  0
   27.6590   38.4495   19.8126 C   0  0  0  0  0  0  0  0  0  0  0  0
   27.8806   39.4061   22.4597 N   0  0  0  0  0  0  0  0  0  0  0  0
   27.9830   39.9025   23.7250 C   0  0  0  0  0  0  0  0  0  0  0  0
   28.0593   41.1417   23.9177 O   0  0  0  0  0  0  0  0  0  0  0  0
   28.0092   39.0632   24.7912 N   0  0  0  0  0  0  0  0  0  0  0  0
   27.9340   37.7191   24.6213 C   0  0  0  0  0  0  0  0  0  0  0  0
   27.8278   37.1986   23.3366 C   0  0  1  0  0  0  0  0  0  0  0  0
   27.9607   36.9462   25.6109 O   0  0  0  0  0  0  0  0  0  0  0  0
   27.6422   35.3582   21.9104 C   0  0  1  0  0  0  0  0  0  0  0  0
   27.7470   35.8623   23.1571 N   0  0  0  0  0  0  0  0  0  0  0  0
   27.5601   33.9812   21.7349 C   0  0  0  0  0  0  0  0  0  0  0  0
   27.4487   33.4314   20.4625 C   0  0  2  0  0  0  0  0  0  0  0  0
   27.3653   31.9313   20.3448 C   0  0  0  0  0  0  0  0  0  0  0  0
   27.4180   34.2725   19.3429 C   0  0  2  0  0  0  0  0  0  0  0  0
   27.3104   33.8046   18.0628 N   0  0  0  0  0  0  0  0  0  0  0  0
   27.5029   35.6568   19.5353 C   0  0  0  0  0  0  0  0  0  0  0  0
   27.6160   36.2125   20.8093 C   0  0  2  0  0  0  0  0  0  0  0  0
   27.7992   38.0623   22.2373 C   0  0  2  0  0  0  0  0  0  0  0  0
   27.7007   37.5514   20.9830 N   0  0  0  0  0  0  0  0  0  0  0  0
   28.5040   33.4112   17.3383 C   0  0  0  0  0  0  0  0  0  0  0  0
   26.0334   33.6757   17.3805 C   0  0  0  0  0  0  0  0  0  0  0  0
  1  2  1  0  0  0  0
  3  1  1  6  0  0  0
  3  4  1  0  0  0  0
  3  5  1  0  0  0  0
  5  6  1  6  0  0  0
  5  7  1  0  0  0  0
  7  8  1  1  0  0  0
  7  9  1  0  0  0  0
  9 27  1  0  0  0  0
 10 11  1  0  0  0  0
 11 12  2  0  0  0  0
 11 13  1  0  0  0  0
 13 14  1  0  0  0  0
 14 16  2  0  0  0  0
 15 14  1  1  0  0  0
 15 18  1  0  0  0  0
 15 26  1  0  0  0  0
 17 19  1  1  0  0  0
 17 25  1  0  0  0  0
 17 18  1  0  0  0  0
 19 20  1  0  0  0  0
 20 21  1  6  0  0  0
 20 22  1  0  0  0  0
 22 23  1  6  0  0  0
 22 24  1  0  0  0  0
 23 28  1  0  0  0  0
 23 29  1  0  0  0  0
 25 24  1  6  0  0  0
 25 27  1  0  0  0  0
 26 10  1  6  0  0  0
 26 27  1  0  0  0  0
M  END
>  <CHROM.1>
172.02361833,-53.33502662,58.30835869,177.24081925,-85.94359858,-81.42972122
28.31217004,37.10474553,20.37987684,-1.17842841,1.19946801,0.92688351

>  <Name>
ligand

>  <RI>
0

>  <Rbt.Current_Directory>
/home/itssahil/PROJECTS/Mol_Feturizer/New_Systems/rnas/3F4H

>  <Rbt.Executable>
rbdock ($Id: //depot/dev/client3/rdock/2013.1/src/exe/rbdock.cxx#4 $)

>  <Rbt.Library>
libRbt.so (2013.1, Build901 2013/11/27)

>  <Rbt.Parameter_File>
/export/apps/rDock/src/rDock_2013.1_src/data/scripts/dock_solv.prm

>  <Rbt.Receptor>
prm/pocket_docking_6.prm

>  <SCORE>
-44.0828

>  <SCORE.INTER>
-26.5088

>  <SCORE.INTER.CONST>
1

>  <SCORE.INTER.POLAR>
0

>  <SCORE.INTER.ROT>
6

>  <SCORE.INTER.SOLV>
9.12462

>  <SCORE.INTER.VDW>
-28.3141

>  <SCORE.INTER.norm>
-0.914098

>  <SCORE.INTRA>
-17.574

>  <SCORE.INTRA.DIHEDRAL>
-4.34182

>  <SCORE.INTRA.DIHEDRAL.0>
6.83446

>  <SCORE.INTRA.POLAR>
0

>  <SCORE.INTRA.POLAR.0>
0

>  <SCORE.INTRA.REPUL>
0

>  <SCORE.INTRA.REPUL.0>
0

>  <SCORE.INTRA.SOLV>
0.127078

>  <SCORE.INTRA.SOLV.lig_0>
-26.4601

>  <SCORE.INTRA.VDW>
-15.4666

>  <SCORE.INTRA.VDW.0>
13.7853

>  <SCORE.INTRA.norm>
-0.606

>  <SCORE.RESTR>
0

>  <SCORE.RESTR.CAVITY>
0

>  <SCORE.RESTR.norm>
0

>  <SCORE.SYSTEM>
0

>  <SCORE.SYSTEM.CONST>
0

>  <SCORE.SYSTEM.DIHEDRAL>
0

>  <SCORE.SYSTEM.SOLV>
0

>  <SCORE.SYSTEM.norm>
0

>  <SCORE.heavy>
29

>  <SCORE.norm>
-1.5201

>  <RMSD>
5.712

$$$$
ligand
 OpenBabel11021811473D
libRbt.so/2013.1/901 2013/11/27
 29 31  0  0  0  0  0  0  0  0999 V2000
   30.8251   38.2111   16.5806 C   0  0  0  0  0  0  0  0  0  0  0  0
   31.1230   37.2718   17.6188 O   0  0  0  0  0  0  0  0  0  0  0  0
   30.4187   39.5390   17.2051 C   0  0  1  0  0  0  0  0  0  0  0  0
   30.3754   40.5272   16.1805 O   0  0  0  0  0  0  0  0  0  0  0  0
   29.0593   39.4186   17.8816 C   0  0  1  0  0  0  0  0  0  0  0  0
   28.1511   38.9083   16.9124 O   0  0  0  0  0  0  0  0  0  0  0  0
   29.0359   38.5402   19.1360 C   0  0  1  0  0  0  0  0  0  0  0  0
   29.9477   39.0883   20.0888 O   0  0  0  0  0  0  0  0  0  0  0  0
   27.6593   38.4524   19.7917 C   0  0  0  0  0  0  0  0  0  0  0  0
   27.8629   39.4448   22.4270 N   0  0  0  0  0  0  0  0  0  0  0  0
   27.9565   39.9583   23.6862 C   0  0  0  0  0  0  0  0  0  0  0  0
   28.0247   41.2004   23.8630 O   0  0  0  0  0  0  0  0  0  0  0  0
   27.9825   39.1332   24.7634 N   0  0  0  0  0  0  0  0  0  0  0  0
   27.9157   37.7866   24.6108 C   0  0  0  0  0  0  0  0  0  0  0  0
   27.8186   37.2487   23.3326 C   0  0  1  0  0  0  0  0  0  0  0  0
   27.9422   37.0269   25.6106 O   0  0  0  0  0  0  0  0  0  0  0  0
   27.6503   35.3887   21.9299 C   0  0  1  0  0  0  0  0  0  0  0  0
   27.7464   35.9097   23.1703 N   0  0  0  0  0  0  0  0  0  0  0  0
   27.5770   34.0092   21.7720 C   0  0  0  0  0  0  0  0  0  0  0  0
   27.4747   33.4421   20.5065 C   0  0  2  0  0  0  0  0  0  0  0  0
   27.4005   31.9400   20.4081 C   0  0  0  0  0  0  0  0  0  0  0  0
   27.4445   34.2683   19.3758 C   0  0  2  0  0  0  0  0  0  0  0  0
   27.3456   33.7830   18.1015 N   0  0  0  0  0  0  0  0  0  0  0  0
   27.5205   35.6554   19.5504 C   0  0  0  0  0  0  0  0  0  0  0  0
   27.6245   36.2284   20.8175 C   0  0  2  0  0  0  0  0  0  0  0  0
   27.7902   38.0978   22.2219 C   0  0  2  0  0  0  0  0  0  0  0  0
   27.7007   37.5699   20.9740 N   0  0  0  0  0  0  0  0  0  0  0  0
   28.5445   33.6079   17.3036 C   0  0  0  0  0  0  0  0  0  0  0  0
   26.0738   33.4232   17.4966 C   0  0  0  0  0  0  0  0  0  0  0  0
  1  2  1  0  0  0  0
  3  1  1  6  0  0  0
  3  4  1  0  0  0  0
  3  5  1  0  0  0  0
  5  6  1  6  0  0  0
  5  7  1  0  0  0  0
  7  8  1  1  0  0  0
  7  9  1  0  0  0  0
  9 27  1  0  0  0  0
 10 11  1  0  0  0  0
 11 12  2  0  0  0  0
 11 13  1  0  0  0  0
 13 14  1  0  0  0  0
 14 16  2  0  0  0  0
 15 14  1  1  0  0  0
 15 18  1  0  0  0  0
 15 26  1  0  0  0  0
 17 19  1  1  0  0  0
 17 25  1  0  0  0  0
 17 18  1  0  0  0  0
 19 20  1  0  0  0  0
 20 21  1  6  0  0  0
 20 22  1  0  0  0  0
 22 23  1  6  0  0  0
 22 24  1  0  0  0  0
 23 28  1  0  0  0  0
 23 29  1  0  0  0  0
 25 24  1  6  0  0  0
 25 27  1  0  0  0  0
 26 10  1  6  0  0  0
 26 27  1  0  0  0  0
M  END
>  <CHROM.1>
169.00174870,-54.00667257,59.40030382,178.76605909,-96.70479684,-81.63784935
28.31883361,37.12590457,20.38220242,-1.15398242,1.19876930,0.89754293

>  <Name>
ligand

>  <RI>
0

>  <Rbt.Current_Directory>
/home/itssahil/PROJECTS/Mol_Feturizer/New_Systems/rnas/3F4H

>  <Rbt.Executable>
rbdock ($Id: //depot/dev/client3/rdock/2013.1/src/exe/rbdock.cxx#4 $)

>  <Rbt.Library>
libRbt.so (2013.1, Build901 2013/11/27)

>  <Rbt.Parameter_File>
/export/apps/rDock/src/rDock_2013.1_src/data/scripts/dock_solv.prm

>  <Rbt.Receptor>
prm/blind_docking_100.prm

>  <SCORE>
-44.0961

>  <SCORE.INTER>
-26.5452

>  <SCORE.INTER.CONST>
1

>  <SCORE.INTER.POLAR>
0

>  <SCORE.INTER.ROT>
6

>  <SCORE.INTER.SOLV>
9.12591

>  <SCORE.INTER.VDW>
-28.3388

>  <SCORE.INTER.norm>
-0.915351

>  <SCORE.INTRA>
-17.5509

>  <SCORE.INTRA.DIHEDRAL>
-4.20511

>  <SCORE.INTRA.DIHEDRAL.0>
6.83446

>  <SCORE.INTRA.POLAR>
0

>  <SCORE.INTRA.POLAR.0>
0

>  <SCORE.INTRA.REPUL>
0

>  <SCORE.INTRA.REPUL.0>
0

>  <SCORE.INTRA.SOLV>
0.11696

>  <SCORE.INTRA.SOLV.lig_0>
-26.4601

>  <SCORE.INTRA.VDW>
-15.5068

>  <SCORE.INTRA.VDW.0>
13.7853

>  <SCORE.INTRA.norm>
-0.605204

>  <SCORE.RESTR>
0

>  <SCORE.RESTR.CAVITY>
0

>  <SCORE.RESTR.norm>
0

>  <SCORE.SYSTEM>
0

>  <SCORE.SYSTEM.CONST>
0

>  <SCORE.SYSTEM.DIHEDRAL>
0

>  <SCORE.SYSTEM.SOLV>
0

>  <SCORE.SYSTEM.norm>
0

>  <SCORE.heavy>
29

>  <SCORE.norm>
-1.52056

>  <RMSD>
5.714

$$$$
ligand
 OpenBabel11021811473D
libRbt.so/2013.1/901 2013/11/27
 29 31  0  0  0  0  0  0  0  0999 V2000
   28.7338   42.3991   16.9201 C   0  0  0  0  0  0  0  0  0  0  0  0
   28.0643   43.6426   17.1536 O   0  0  0  0  0  0  0  0  0  0  0  0
   28.0459   41.2999   17.7180 C   0  0  1  0  0  0  0  0  0  0  0  0
   28.6252   40.0493   17.3592 O   0  0  0  0  0  0  0  0  0  0  0  0
   28.2024   41.5457   19.2131 C   0  0  1  0  0  0  0  0  0  0  0  0
   27.4482   42.7102   19.5289 O   0  0  0  0  0  0  0  0  0  0  0  0
   27.7697   40.3815   20.1093 C   0  0  1  0  0  0  0  0  0  0  0  0
   26.5007   39.9089   19.6554 O   0  0  0  0  0  0  0  0  0  0  0  0
   28.7465   39.2075   20.0957 C   0  0  0  0  0  0  0  0  0  0  0  0
   28.5612   39.7507   22.8601 N   0  0  0  0  0  0  0  0  0  0  0  0
   28.4771   40.0489   24.1875 C   0  0  0  0  0  0  0  0  0  0  0  0
   28.7545   41.2032   24.5987 O   0  0  0  0  0  0  0  0  0  0  0  0
   28.0977   39.1004   25.0810 N   0  0  0  0  0  0  0  0  0  0  0  0
   27.7952   37.8419   24.6742 C   0  0  0  0  0  0  0  0  0  0  0  0
   27.8752   37.5236   23.3233 C   0  0  1  0  0  0  0  0  0  0  0  0
   27.4466   36.9669   25.5051 O   0  0  0  0  0  0  0  0  0  0  0  0
   27.6472   35.9676   21.5964 C   0  0  1  0  0  0  0  0  0  0  0  0
   27.5711   36.2750   22.9075 N   0  0  0  0  0  0  0  0  0  0  0  0
   27.3330   34.6796   21.1772 C   0  0  0  0  0  0  0  0  0  0  0  0
   27.3993   34.3328   19.8323 C   0  0  2  0  0  0  0  0  0  0  0  0
   27.0463   32.9189   19.4479 C   0  0  0  0  0  0  0  0  0  0  0  0
   27.7867   35.2906   18.8865 C   0  0  2  0  0  0  0  0  0  0  0  0
   27.8748   35.0228   17.5487 N   0  0  0  0  0  0  0  0  0  0  0  0
   28.1014   36.5830   19.3238 C   0  0  0  0  0  0  0  0  0  0  0  0
   28.0374   36.9348   20.6716 C   0  0  2  0  0  0  0  0  0  0  0  0
   28.2645   38.5003   22.4014 C   0  0  2  0  0  0  0  0  0  0  0  0
   28.3471   38.1858   21.0830 N   0  0  0  0  0  0  0  0  0  0  0  0
   29.1165   34.5143   16.9974 C   0  0  0  0  0  0  0  0  0  0  0  0
   26.7624   35.2229   16.6347 C   0  0  0  0  0  0  0  0  0  0  0  0
  1  2  1  0  0  0  0
  3  1  1  6  0  0  0
  3  4  1  0  0  0  0
  3  5  1  0  0  0  0
  5  6  1  1  0  0  0
  5  7  1  0  0  0  0
  7  8  1  6  0  0  0
  7  9  1  0  0  0  0
  9 27  1  0  0  0  0
 10 11  1  0  0  0  0
 11 12  2  0  0  0  0
 11 13  1  0  0  0  0
 13 14  1  0  0  0  0
 14 16  2  0  0  0  0
 15 14  1  6  0  0  0
 15 18  1  0  0  0  0
 15 26  1  0  0  0  0
 17 19  1  6  0  0  0
 17 25  1  0  0  0  0
 17 18  1  0  0  0  0
 19 20  1  0  0  0  0
 20 21  1  1  0  0  0
 20 22  1  0  0  0  0
 22 23  1  1  0  0  0
 22 24  1  0  0  0  0
 23 28  1  0  0  0  0
 23 29  1  0  0  0  0
 25 24  1  1  0  0  0
 25 27  1  0  0  0  0
 26 10  1  1  0  0  0
 26 27  1  0  0  0  0
M  END
>  <CHROM.1>
173.49137142,67.72857239,-46.61757670,174.00784970,-88.71673854,118.83116623
27.94274087,38.30347337,20.50766985,0.22074777,-1.49518060,-1.49943837

>  <Name>
ligand

>  <RI>
0

>  <Rbt.Current_Directory>
/home/itssahil/PROJECTS/Mol_Feturizer/New_Systems/rnas/3F4H

>  <Rbt.Executable>
rbdock ($Id: //depot/dev/client3/rdock/2013.1/src/exe/rbdock.cxx#4 $)

>  <Rbt.Library>
libRbt.so (2013.1, Build901 2013/11/27)

>  <Rbt.Parameter_File>
/export/apps/rDock/src/rDock_2013.1_src/data/scripts/dock_solv.prm

>  <Rbt.Receptor>
prm/pocket_docking_4.prm

>  <SCORE>
-39.6738

>  <SCORE.INTER>
-22.7171

>  <SCORE.INTER.CONST>
1

>  <SCORE.INTER.POLAR>
0

>  <SCORE.INTER.ROT>
6

>  <SCORE.INTER.SOLV>
9.37299

>  <SCORE.INTER.VDW>
-25.869

>  <SCORE.INTER.norm>
-0.783347

>  <SCORE.INTRA>
-16.9567

>  <SCORE.INTRA.DIHEDRAL>
-3.6803

>  <SCORE.INTRA.DIHEDRAL.0>
6.83446

>  <SCORE.INTRA.POLAR>
0

>  <SCORE.INTRA.POLAR.0>
0

>  <SCORE.INTRA.REPUL>
0

>  <SCORE.INTRA.REPUL.0>
0

>  <SCORE.INTRA.SOLV>
0.144781

>  <SCORE.INTRA.SOLV.lig_0>
-26.4601

>  <SCORE.INTRA.VDW>
-15.189

>  <SCORE.INTRA.VDW.0>
13.7853

>  <SCORE.INTRA.norm>
-0.584714

>  <SCORE.RESTR>
0

>  <SCORE.RESTR.CAVITY>
0

>  <SCORE.RESTR.norm>
0

>  <SCORE.SYSTEM>
0

>  <SCORE.SYSTEM.CONST>
0

>  <SCORE.SYSTEM.DIHEDRAL>
0

>  <SCORE.SYSTEM.SOLV>
0

>  <SCORE.SYSTEM.norm>
0

>  <SCORE.heavy>
29

>  <SCORE.norm>
-1.36806

>  <RMSD>
5.715

$$$$
ligand
 OpenBabel11021811473D
libRbt.so/2013.1/901 2013/11/27
 29 31  0  0  0  0  0  0  0  0999 V2000
   30.2564   38.3550   15.4389 C   0  0  0  0  0  0  0  0  0  0  0  0
   31.2552   37.6264   14.7174 O   0  0  0  0  0  0  0  0  0  0  0  0
   30.4250   38.0979   16.9301 C   0  0  1  0  0  0  0  0  0  0  0  0
   31.5659   38.8172   17.3878 O   0  0  0  0  0  0  0  0  0  0  0  0
   29.1819   38.5370   17.6930 C   0  0  1  0  0  0  0  0  0  0  0  0
   28.0677   37.8900   17.0892 O   0  0  0  0  0  0  0  0  0  0  0  0
   29.2075   38.2438   19.1960 C   0  0  1  0  0  0  0  0  0  0  0  0
   30.0743   39.1878   19.8261 O   0  0  0  0  0  0  0  0  0  0  0  0
   27.8350   38.3430   19.8587 C   0  0  0  0  0  0  0  0  0  0  0  0
   27.8844   39.3342   22.5019 N   0  0  0  0  0  0  0  0  0  0  0  0
   27.9058   39.8472   23.7646 C   0  0  0  0  0  0  0  0  0  0  0  0
   28.0034   41.0866   23.9458 O   0  0  0  0  0  0  0  0  0  0  0  0
   27.8272   39.0242   24.8408 N   0  0  0  0  0  0  0  0  0  0  0  0
   27.7258   37.6803   24.6838 C   0  0  0  0  0  0  0  0  0  0  0  0
   27.7015   37.1430   23.4018 C   0  0  1  0  0  0  0  0  0  0  0  0
   27.6554   36.9225   25.6829 O   0  0  0  0  0  0  0  0  0  0  0  0
   27.5702   35.2865   21.9906 C   0  0  1  0  0  0  0  0  0  0  0  0
   27.5956   35.8068   23.2347 N   0  0  0  0  0  0  0  0  0  0  0  0
   27.4615   33.9098   21.8278 C   0  0  0  0  0  0  0  0  0  0  0  0
   27.4301   33.3436   20.5582 C   0  0  2  0  0  0  0  0  0  0  0  0
   27.3121   31.8447   20.4546 C   0  0  0  0  0  0  0  0  0  0  0  0
   27.5084   34.1676   19.4283 C   0  0  2  0  0  0  0  0  0  0  0  0
   27.4838   33.6830   18.1501 N   0  0  0  0  0  0  0  0  0  0  0  0
   27.6188   35.5518   19.6080 C   0  0  0  0  0  0  0  0  0  0  0  0
   27.6519   36.1239   20.8793 C   0  0  2  0  0  0  0  0  0  0  0  0
   27.7809   37.9899   22.2920 C   0  0  2  0  0  0  0  0  0  0  0  0
   27.7623   37.4625   21.0409 N   0  0  0  0  0  0  0  0  0  0  0  0
   28.7010   33.6741   17.3609 C   0  0  0  0  0  0  0  0  0  0  0  0
   26.2752   33.1625   17.5326 C   0  0  0  0  0  0  0  0  0  0  0  0
  1  2  1  0  0  0  0
  3  1  1  6  0  0  0
  3  4  1  0  0  0  0
  3  5  1  0  0  0  0
  5  6  1  6  0  0  0
  5  7  1  0  0  0  0
  7  8  1  1  0  0  0
  7  9  1  0  0  0  0
  9 27  1  0  0  0  0
 10 11  1  0  0  0  0
 11 12  2  0  0  0  0
 11 13  1  0  0  0  0
 13 14  1  0  0  0  0
 14 16  2  0  0  0  0
 15 14  1  6  0  0  0
 15 18  1  0  0  0  0
 15 26  1  0  0  0  0
 17 19  1  6  0  0  0
 17 25  1  0  0  0  0
 17 18  1  0  0  0  0
 19 20  1  0  0  0  0
 20 21  1  1  0  0  0
 20 22  1  0  0  0  0
 22 23  1  1  0  0  0
 22 24  1  0  0  0  0
 23 28  1  0  0  0  0
 23 29  1  0  0  0  0
 25 24  1  1  0  0  0
 25 27  1  0  0  0  0
 26 10  1  1  0  0  0
 26 27  1  0  0  0  0
M  END
>  <CHROM.1>
74.10762691,53.70885672,75.33273839,152.15982958,-106.93633928,-74.34348266
28.35189200,36.88049637,20.30187542,-1.02143973,1.12928491,0.85194539

>  <Name>
ligand

>  <RI>
0

>  <Rbt.Current_Directory>
/home/itssahil/PROJECTS/Mol_Feturizer/New_Systems/rnas/3F4H

>  <Rbt.Executable>
rbdock ($Id: //depot/dev/client3/rdock/2013.1/src/exe/rbdock.cxx#4 $)

>  <Rbt.Library>
libRbt.so (2013.1, Build901 2013/11/27)

>  <Rbt.Parameter_File>
/export/apps/rDock/src/rDock_2013.1_src/data/scripts/dock_solv.prm

>  <Rbt.Receptor>
prm/pocket_docking_5.prm

>  <SCORE>
-41.1606

>  <SCORE.INTER>
-25.1904

>  <SCORE.INTER.CONST>
1

>  <SCORE.INTER.POLAR>
0

>  <SCORE.INTER.ROT>
6

>  <SCORE.INTER.SOLV>
10.055

>  <SCORE.INTER.VDW>
-27.7453

>  <SCORE.INTER.norm>
-0.868635

>  <SCORE.INTRA>
-15.9702

>  <SCORE.INTRA.DIHEDRAL>
-0.801854

>  <SCORE.INTRA.DIHEDRAL.0>
6.83446

>  <SCORE.INTRA.POLAR>
0

>  <SCORE.INTRA.POLAR.0>
0

>  <SCORE.INTRA.REPUL>
0

>  <SCORE.INTRA.REPUL.0>
0

>  <SCORE.INTRA.SOLV>
-0.402526

>  <SCORE.INTRA.SOLV.lig_0>
-26.4601

>  <SCORE.INTRA.VDW>
-15.368

>  <SCORE.INTRA.VDW.0>
13.7853

>  <SCORE.INTRA.norm>
-0.550697

>  <SCORE.RESTR>
0

>  <SCORE.RESTR.CAVITY>
0

>  <SCORE.RESTR.norm>
0

>  <SCORE.SYSTEM>
0

>  <SCORE.SYSTEM.CONST>
0

>  <SCORE.SYSTEM.DIHEDRAL>
0

>  <SCORE.SYSTEM.SOLV>
0

>  <SCORE.SYSTEM.norm>
0

>  <SCORE.heavy>
29

>  <SCORE.norm>
-1.41933

>  <RMSD>
5.715

$$$$
ligand
 OpenBabel11021811473D
libRbt.so/2013.1/901 2013/11/27
 29 31  0  0  0  0  0  0  0  0999 V2000
   25.5655   40.5980   18.1536 C   0  0  0  0  0  0  0  0  0  0  0  0
   24.8946   41.3808   17.1606 O   0  0  0  0  0  0  0  0  0  0  0  0
   26.5996   41.4625   18.8616 C   0  0  1  0  0  0  0  0  0  0  0  0
   25.9178   42.4719   19.5996 O   0  0  0  0  0  0  0  0  0  0  0  0
   27.4584   40.6159   19.7922 C   0  0  1  0  0  0  0  0  0  0  0  0
   26.5893   40.0466   20.7644 O   0  0  0  0  0  0  0  0  0  0  0  0
   28.2676   39.5137   19.1024 C   0  0  1  0  0  0  0  0  0  0  0  0
   29.0769   40.1132   18.0899 O   0  0  0  0  0  0  0  0  0  0  0  0
   29.1856   38.7475   20.0526 C   0  0  0  0  0  0  0  0  0  0  0  0
   28.5337   39.1520   22.7697 N   0  0  0  0  0  0  0  0  0  0  0  0
   28.2320   39.3819   24.0790 C   0  0  0  0  0  0  0  0  0  0  0  0
   28.6191   40.4345   24.6454 O   0  0  0  0  0  0  0  0  0  0  0  0
   27.5144   38.4736   24.7874 N   0  0  0  0  0  0  0  0  0  0  0  0
   27.0838   37.3235   24.2105 C   0  0  0  0  0  0  0  0  0  0  0  0
   27.3828   37.0761   22.8755 C   0  0  1  0  0  0  0  0  0  0  0  0
   26.4218   36.4849   24.8707 O   0  0  0  0  0  0  0  0  0  0  0  0
   27.2433   35.6983   20.9947 C   0  0  1  0  0  0  0  0  0  0  0  0
   26.9543   35.9366   22.2905 N   0  0  0  0  0  0  0  0  0  0  0  0
   26.7987   34.5223   20.4006 C   0  0  0  0  0  0  0  0  0  0  0  0
   27.0783   34.2493   19.0661 C   0  0  2  0  0  0  0  0  0  0  0  0
   26.5669   32.9555   18.4864 C   0  0  0  0  0  0  0  0  0  0  0  0
   27.8160   35.1683   18.3091 C   0  0  2  0  0  0  0  0  0  0  0  0
   28.1291   34.9681   16.9934 N   0  0  0  0  0  0  0  0  0  0  0  0
   28.2581   36.3474   18.9214 C   0  0  0  0  0  0  0  0  0  0  0  0
   27.9811   36.6247   20.2597 C   0  0  2  0  0  0  0  0  0  0  0  0
   28.1209   38.0119   22.1440 C   0  0  2  0  0  0  0  0  0  0  0  0
   28.4163   37.7657   20.8417 N   0  0  0  0  0  0  0  0  0  0  0  0
   29.3037   34.1920   16.6439 C   0  0  0  0  0  0  0  0  0  0  0  0
   27.3248   35.5018   15.9067 C   0  0  0  0  0  0  0  0  0  0  0  0
  1  2  1  0  0  0  0
  3  1  1  1  0  0  0
  3  4  1  0  0  0  0
  3  5  1  0  0  0  0
  5  6  1  1  0  0  0
  5  7  1  0  0  0  0
  7  8  1  6  0  0  0
  7  9  1  0  0  0  0
  9 27  1  0  0  0  0
 10 11  1  0  0  0  0
 11 12  2  0  0  0  0
 11 13  1  0  0  0  0
 13 14  1  0  0  0  0
 14 16  2  0  0  0  0
 15 14  1  6  0  0  0
 15 18  1  0  0  0  0
 15 26  1  0  0  0  0
 17 19  1  6  0  0  0
 17 25  1  0  0  0  0
 17 18  1  0  0  0  0
 19 20  1  0  0  0  0
 20 21  1  1  0  0  0
 20 22  1  0  0  0  0
 22 23  1  1  0  0  0
 22 24  1  0  0  0  0
 23 28  1  0  0  0  0
 23 29  1  0  0  0  0
 25 24  1  1  0  0  0
 25 27  1  0  0  0  0
 26 10  1  1  0  0  0
 26 27  1  0  0  0  0
M  END
>  <CHROM.1>
66.44501178,-61.39638855,55.99729783,78.02282882,-84.94016466,74.70026286
27.47398503,37.85644074,20.34095208,1.85003316,-1.44212329,1.09889259

>  <Name>
ligand

>  <RI>
0

>  <Rbt.Current_Directory>
/home/itssahil/PROJECTS/Mol_Feturizer/New_Systems/rnas/3F4H

>  <Rbt.Executable>
rbdock ($Id: //depot/dev/client3/rdock/2013.1/src/exe/rbdock.cxx#4 $)

>  <Rbt.Library>
libRbt.so (2013.1, Build901 2013/11/27)

>  <Rbt.Parameter_File>
/export/apps/rDock/src/rDock_2013.1_src/data/scripts/dock_solv.prm

>  <Rbt.Receptor>
prm/pocket_docking_4.prm

>  <SCORE>
-39.3402

>  <SCORE.INTER>
-21.2748

>  <SCORE.INTER.CONST>
1

>  <SCORE.INTER.POLAR>
0

>  <SCORE.INTER.ROT>
6

>  <SCORE.INTER.SOLV>
9.69732

>  <SCORE.INTER.VDW>
-25.0156

>  <SCORE.INTER.norm>
-0.733614

>  <SCORE.INTRA>
-18.0708

>  <SCORE.INTRA.DIHEDRAL>
-3.53232

>  <SCORE.INTRA.DIHEDRAL.0>
6.83446

>  <SCORE.INTRA.POLAR>
0

>  <SCORE.INTRA.POLAR.0>
0

>  <SCORE.INTRA.REPUL>
0

>  <SCORE.INTRA.REPUL.0>
0

>  <SCORE.INTRA.SOLV>
-0.397614

>  <SCORE.INTRA.SOLV.lig_0>
-26.4601

>  <SCORE.INTRA.VDW>
-16.1058

>  <SCORE.INTRA.VDW.0>
13.7853

>  <SCORE.INTRA.norm>
-0.623132

>  <SCORE.RESTR>
0.00539312

>  <SCORE.RESTR.CAVITY>
0.00539312

>  <SCORE.RESTR.norm>
0.00018597

>  <SCORE.SYSTEM>
0

>  <SCORE.SYSTEM.CONST>
0

>  <SCORE.SYSTEM.DIHEDRAL>
0

>  <SCORE.SYSTEM.SOLV>
0

>  <SCORE.SYSTEM.norm>
0

>  <SCORE.heavy>
29

>  <SCORE.norm>
-1.35656

>  <RMSD>
5.718

$$$$
ligand
 OpenBabel11021811473D
libRbt.so/2013.1/901 2013/11/27
 29 31  0  0  0  0  0  0  0  0999 V2000
   25.1849   41.0120   18.0134 C   0  0  0  0  0  0  0  0  0  0  0  0
   24.1372   41.0980   17.0419 O   0  0  0  0  0  0  0  0  0  0  0  0
   26.5131   40.7911   17.3026 C   0  0  1  0  0  0  0  0  0  0  0  0
   26.8104   41.9486   16.5277 O   0  0  0  0  0  0  0  0  0  0  0  0
   27.6238   40.5310   18.3121 C   0  0  1  0  0  0  0  0  0  0  0  0
   27.7574   41.7067   19.1024 O   0  0  0  0  0  0  0  0  0  0  0  0
   27.4053   39.3137   19.2155 C   0  0  1  0  0  0  0  0  0  0  0  0
   27.0381   38.2029   18.3964 O   0  0  0  0  0  0  0  0  0  0  0  0
   28.6438   38.9225   20.0192 C   0  0  0  0  0  0  0  0  0  0  0  0
   28.4270   39.6684   22.7336 N   0  0  0  0  0  0  0  0  0  0  0  0
   28.3260   40.0641   24.0341 C   0  0  0  0  0  0  0  0  0  0  0  0
   28.5464   41.2588   24.3543 O   0  0  0  0  0  0  0  0  0  0  0  0
   27.9912   39.1703   24.9990 N   0  0  0  0  0  0  0  0  0  0  0  0
   27.7508   37.8709   24.6915 C   0  0  0  0  0  0  0  0  0  0  0  0
   27.8488   37.4533   23.3691 C   0  0  1  0  0  0  0  0  0  0  0  0
   27.4434   37.0470   25.5882 O   0  0  0  0  0  0  0  0  0  0  0  0
   27.6998   35.7590   21.7682 C   0  0  1  0  0  0  0  0  0  0  0  0
   27.6063   36.1629   23.0517 N   0  0  0  0  0  0  0  0  0  0  0  0
   27.4490   34.4287   21.4506 C   0  0  0  0  0  0  0  0  0  0  0  0
   27.5347   33.9825   20.1364 C   0  0  2  0  0  0  0  0  0  0  0  0
   27.2513   32.5276   19.8632 C   0  0  0  0  0  0  0  0  0  0  0  0
   27.8771   34.8818   19.1186 C   0  0  2  0  0  0  0  0  0  0  0  0
   27.9806   34.5159   17.8054 N   0  0  0  0  0  0  0  0  0  0  0  0
   28.1280   36.2179   19.4540 C   0  0  0  0  0  0  0  0  0  0  0  0
   28.0444   36.6695   20.7707 C   0  0  2  0  0  0  0  0  0  0  0  0
   28.1921   38.3734   22.3736 C   0  0  2  0  0  0  0  0  0  0  0  0
   28.2923   37.9621   21.0834 N   0  0  0  0  0  0  0  0  0  0  0  0
   29.2784   34.5225   17.1573 C   0  0  0  0  0  0  0  0  0  0  0  0
   26.8323   34.1089   17.0126 C   0  0  0  0  0  0  0  0  0  0  0  0
  1  2  1  0  0  0  0
  3  1  1  1  0  0  0
  3  4  1  0  0  0  0
  3  5  1  0  0  0  0
  5  6  1  1  0  0  0
  5  7  1  0  0  0  0
  7  8  1  6  0  0  0
  7  9  1  0  0  0  0
  9 27  1  0  0  0  0
 10 11  1  0  0  0  0
 11 12  2  0  0  0  0
 11 13  1  0  0  0  0
 13 14  1  0  0  0  0
 14 16  2  0  0  0  0
 15 14  1  6  0  0  0
 15 18  1  0  0  0  0
 15 26  1  0  0  0  0
 17 19  1  6  0  0  0
 17 25  1  0  0  0  0
 17 18  1  0  0  0  0
 19 20  1  0  0  0  0
 20 21  1  1  0  0  0
 20 22  1  0  0  0  0
 22 23  1  1  0  0  0
 22 24  1  0  0  0  0
 23 28  1  0  0  0  0
 23 29  1  0  0  0  0
 25 24  1  1  0  0  0
 25 27  1  0  0  0  0
 26 10  1  1  0  0  0
 26 27  1  0  0  0  0
M  END
>  <CHROM.1>
65.53946875,-63.36158275,48.59827239,166.89676275,-112.29168839,75.60856158
27.54323389,37.88367460,20.43488121,2.99539162,1.36100848,-2.56358241

>  <Name>
ligand

>  <RI>
0

>  <Rbt.Current_Directory>
/home/itssahil/PROJECTS/Mol_Feturizer/New_Systems/rnas/3F4H

>  <Rbt.Executable>
rbdock ($Id: //depot/dev/client3/rdock/2013.1/src/exe/rbdock.cxx#4 $)

>  <Rbt.Library>
libRbt.so (2013.1, Build901 2013/11/27)

>  <Rbt.Parameter_File>
/export/apps/rDock/src/rDock_2013.1_src/data/scripts/dock_solv.prm

>  <Rbt.Receptor>
prm/blind_docking_80.prm

>  <SCORE>
-38.96

>  <SCORE.INTER>
-23.5932

>  <SCORE.INTER.CONST>
1

>  <SCORE.INTER.POLAR>
0

>  <SCORE.INTER.ROT>
6

>  <SCORE.INTER.SOLV>
9.43118

>  <SCORE.INTER.VDW>
-26.4725

>  <SCORE.INTER.norm>
-0.813559

>  <SCORE.INTRA>
-15.3668

>  <SCORE.INTRA.DIHEDRAL>
-3.61617

>  <SCORE.INTRA.DIHEDRAL.0>
6.83446

>  <SCORE.INTRA.POLAR>
0

>  <SCORE.INTRA.POLAR.0>
0

>  <SCORE.INTRA.REPUL>
0

>  <SCORE.INTRA.REPUL.0>
0

>  <SCORE.INTRA.SOLV>
-0.156126

>  <SCORE.INTRA.SOLV.lig_0>
-26.4601

>  <SCORE.INTRA.VDW>
-13.4806

>  <SCORE.INTRA.VDW.0>
13.7853

>  <SCORE.INTRA.norm>
-0.529889

>  <SCORE.RESTR>
0

>  <SCORE.RESTR.CAVITY>
0

>  <SCORE.RESTR.norm>
0

>  <SCORE.SYSTEM>
0

>  <SCORE.SYSTEM.CONST>
0

>  <SCORE.SYSTEM.DIHEDRAL>
0

>  <SCORE.SYSTEM.SOLV>
0

>  <SCORE.SYSTEM.norm>
0

>  <SCORE.heavy>
29

>  <SCORE.norm>
-1.34345

>  <RMSD>
5.721

$$$$
ligand
 OpenBabel11021811473D
libRbt.so/2013.1/901 2013/11/27
 29 31  0  0  0  0  0  0  0  0999 V2000
   28.1171   37.3442   16.4341 C   0  0  0  0  0  0  0  0  0  0  0  0
   27.1461   36.9559   15.4568 O   0  0  0  0  0  0  0  0  0  0  0  0
   27.9396   38.8207   16.7606 C   0  0  1  0  0  0  0  0  0  0  0  0
   26.6171   39.0209   17.2497 O   0  0  0  0  0  0  0  0  0  0  0  0
   28.9608   39.2658   17.7996 C   0  0  1  0  0  0  0  0  0  0  0  0
   28.6921   40.6315   18.0949 O   0  0  0  0  0  0  0  0  0  0  0  0
   28.9717   38.4422   19.0907 C   0  0  1  0  0  0  0  0  0  0  0  0
   29.9895   38.9597   19.9485 O   0  0  0  0  0  0  0  0  0  0  0  0
   27.6462   38.4816   19.8487 C   0  0  0  0  0  0  0  0  0  0  0  0
   27.8677   39.4491   22.4918 N   0  0  0  0  0  0  0  0  0  0  0  0
   27.9701   39.9508   23.7551 C   0  0  0  0  0  0  0  0  0  0  0  0
   28.0440   41.1908   23.9429 O   0  0  0  0  0  0  0  0  0  0  0  0
   27.9987   39.1157   24.8246 N   0  0  0  0  0  0  0  0  0  0  0  0
   27.9260   37.7709   24.6601 C   0  0  0  0  0  0  0  0  0  0  0  0
   27.8200   37.2450   23.3775 C   0  0  1  0  0  0  0  0  0  0  0  0
   27.9550   37.0019   25.6527 O   0  0  0  0  0  0  0  0  0  0  0  0
   27.6371   35.3986   21.9588 C   0  0  1  0  0  0  0  0  0  0  0  0
   27.7418   35.9078   23.2034 N   0  0  0  0  0  0  0  0  0  0  0  0
   27.5577   34.0208   21.7888 C   0  0  0  0  0  0  0  0  0  0  0  0
   27.4464   33.4657   20.5187 C   0  0  2  0  0  0  0  0  0  0  0  0
   27.3660   31.9649   20.4070 C   0  0  0  0  0  0  0  0  0  0  0  0
   27.4133   34.3023   19.3958 C   0  0  2  0  0  0  0  0  0  0  0  0
   27.3057   33.8291   18.1176 N   0  0  0  0  0  0  0  0  0  0  0  0
   27.4955   35.6875   19.5826 C   0  0  0  0  0  0  0  0  0  0  0  0
   27.6085   36.2485   20.8544 C   0  0  2  0  0  0  0  0  0  0  0  0
   27.7889   38.1043   22.2748 C   0  0  2  0  0  0  0  0  0  0  0  0
   27.6906   37.5882   21.0226 N   0  0  0  0  0  0  0  0  0  0  0  0
   28.5028   33.4738   17.3792 C   0  0  0  0  0  0  0  0  0  0  0  0
   26.0255   33.6574   17.4509 C   0  0  0  0  0  0  0  0  0  0  0  0
  1  2  1  0  0  0  0
  3  1  1  1  0  0  0
  3  4  1  0  0  0  0
  3  5  1  0  0  0  0
  5  6  1  1  0  0  0
  5  7  1  0  0  0  0
  7  8  1  1  0  0  0
  7  9  1  0  0  0  0
  9 27  1  0  0  0  0
 10 11  1  0  0  0  0
 11 12  2  0  0  0  0
 11 13  1  0  0  0  0
 13 14  1  0  0  0  0
 14 16  2  0  0  0  0
 15 14  1  1  0  0  0
 15 18  1  0  0  0  0
 15 26  1  0  0  0  0
 17 19  1  1  0  0  0
 17 25  1  0  0  0  0
 17 18  1  0  0  0  0
 19 20  1  0  0  0  0
 20 21  1  6  0  0  0
 20 22  1  0  0  0  0
 22 23  1  6  0  0  0
 22 24  1  0  0  0  0
 23 28  1  0  0  0  0
 23 29  1  0  0  0  0
 25 24  1  6  0  0  0
 25 27  1  0  0  0  0
 26 10  1  6  0  0  0
 26 27  1  0  0  0  0
M  END
>  <CHROM.1>
58.87731236,-177.38469142,178.92244517,175.63794889,-87.82688010,-74.94444509
27.84152948,37.06400749,20.38312826,-2.08497000,1.42504079,1.61878780

>  <Name>
ligand

>  <RI>
0

>  <Rbt.Current_Directory>
/home/itssahil/PROJECTS/Mol_Feturizer/New_Systems/rnas/3F4H

>  <Rbt.Executable>
rbdock ($Id: //depot/dev/client3/rdock/2013.1/src/exe/rbdock.cxx#4 $)

>  <Rbt.Library>
libRbt.so (2013.1, Build901 2013/11/27)

>  <Rbt.Parameter_File>
/export/apps/rDock/src/rDock_2013.1_src/data/scripts/dock_solv.prm

>  <Rbt.Receptor>
prm/pocket_docking_6.prm

>  <SCORE>
-43.5509

>  <SCORE.INTER>
-25.4316

>  <SCORE.INTER.CONST>
1

>  <SCORE.INTER.POLAR>
0

>  <SCORE.INTER.ROT>
6

>  <SCORE.INTER.SOLV>
9.22481

>  <SCORE.INTER.VDW>
-27.6293

>  <SCORE.INTER.norm>
-0.876952

>  <SCORE.INTRA>
-18.1193

>  <SCORE.INTRA.DIHEDRAL>
-4.67763

>  <SCORE.INTRA.DIHEDRAL.0>
6.83446

>  <SCORE.INTRA.POLAR>
0

>  <SCORE.INTRA.POLAR.0>
0

>  <SCORE.INTRA.REPUL>
0

>  <SCORE.INTRA.REPUL.0>
0

>  <SCORE.INTRA.SOLV>
0.156009

>  <SCORE.INTRA.SOLV.lig_0>
-26.4601

>  <SCORE.INTRA.VDW>
-15.8585

>  <SCORE.INTRA.VDW.0>
13.7853

>  <SCORE.INTRA.norm>
-0.624803

>  <SCORE.RESTR>
0

>  <SCORE.RESTR.CAVITY>
0

>  <SCORE.RESTR.norm>
0

>  <SCORE.SYSTEM>
0

>  <SCORE.SYSTEM.CONST>
0

>  <SCORE.SYSTEM.DIHEDRAL>
0

>  <SCORE.SYSTEM.SOLV>
0

>  <SCORE.SYSTEM.norm>
0

>  <SCORE.heavy>
29

>  <SCORE.norm>
-1.50175

>  <RMSD>
5.721

$$$$
ligand
 OpenBabel11021811473D
libRbt.so/2013.1/901 2013/11/27
 29 31  0  0  0  0  0  0  0  0999 V2000
   31.3318   38.8043   17.2274 C   0  0  0  0  0  0  0  0  0  0  0  0
   31.4820   37.5861   17.9638 O   0  0  0  0  0  0  0  0  0  0  0  0
   29.9211   38.8778   16.6592 C   0  0  1  0  0  0  0  0  0  0  0  0
   29.5793   37.6013   16.1281 O   0  0  0  0  0  0  0  0  0  0  0  0
   28.9286   39.2835   17.7412 C   0  0  1  0  0  0  0  0  0  0  0  0
   27.6414   39.3265   17.1362 O   0  0  0  0  0  0  0  0  0  0  0  0
   28.9005   38.3692   18.9696 C   0  0  1  0  0  0  0  0  0  0  0  0
   29.9549   38.7616   19.8494 O   0  0  0  0  0  0  0  0  0  0  0  0
   27.5863   38.4325   19.7451 C   0  0  0  0  0  0  0  0  0  0  0  0
   27.7633   39.4169   22.3854 N   0  0  0  0  0  0  0  0  0  0  0  0
   27.8437   39.9265   23.6471 C   0  0  0  0  0  0  0  0  0  0  0  0
   27.8942   41.1686   23.8291 O   0  0  0  0  0  0  0  0  0  0  0  0
   27.8756   39.0974   24.7210 N   0  0  0  0  0  0  0  0  0  0  0  0
   27.8279   37.7507   24.5628 C   0  0  0  0  0  0  0  0  0  0  0  0
   27.7445   37.2167   23.2819 C   0  0  1  0  0  0  0  0  0  0  0  0
   27.8599   36.9873   25.5596 O   0  0  0  0  0  0  0  0  0  0  0  0
   27.6083   35.3603   21.8709 C   0  0  1  0  0  0  0  0  0  0  0  0
   27.6912   35.8775   23.1139 N   0  0  0  0  0  0  0  0  0  0  0  0
   27.5546   33.9805   21.7072 C   0  0  0  0  0  0  0  0  0  0  0  0
   27.4662   33.4173   20.4389 C   0  0  2  0  0  0  0  0  0  0  0  0
   27.4129   31.9148   20.3341 C   0  0  0  0  0  0  0  0  0  0  0  0
   27.4304   34.2476   19.3114 C   0  0  2  0  0  0  0  0  0  0  0  0
   27.3444   33.7662   18.0347 N   0  0  0  0  0  0  0  0  0  0  0  0
   27.4867   35.6349   19.4919 C   0  0  0  0  0  0  0  0  0  0  0  0
   27.5766   36.2041   20.7618 C   0  0  2  0  0  0  0  0  0  0  0  0
   27.7100   38.0698   22.1745 C   0  0  2  0  0  0  0  0  0  0  0  0
   27.6338   37.5459   20.9241 N   0  0  0  0  0  0  0  0  0  0  0  0
   28.5437   33.6531   17.2265 C   0  0  0  0  0  0  0  0  0  0  0  0
   26.0862   33.3503   17.4372 C   0  0  0  0  0  0  0  0  0  0  0  0
  1  2  1  0  0  0  0
  3  1  1  1  0  0  0
  3  4  1  0  0  0  0
  3  5  1  0  0  0  0
  5  6  1  6  0  0  0
  5  7  1  0  0  0  0
  7  8  1  1  0  0  0
  7  9  1  0  0  0  0
  9 27  1  0  0  0  0
 10 11  1  0  0  0  0
 11 12  2  0  0  0  0
 11 13  1  0  0  0  0
 13 14  1  0  0  0  0
 14 16  2  0  0  0  0
 15 14  1  1  0  0  0
 15 18  1  0  0  0  0
 15 26  1  0  0  0  0
 17 19  1  1  0  0  0
 17 25  1  0  0  0  0
 17 18  1  0  0  0  0
 19 20  1  0  0  0  0
 20 21  1  6  0  0  0
 20 22  1  0  0  0  0
 22 23  1  6  0  0  0
 22 24  1  0  0  0  0
 23 28  1  0  0  0  0
 23 29  1  0  0  0  0
 25 24  1  6  0  0  0
 25 27  1  0  0  0  0
 26 10  1  6  0  0  0
 26 27  1  0  0  0  0
M  END
>  <CHROM.1>
-43.32785117,-179.86103572,83.04608626,-179.14781653,-98.78113843,-72.66386174
28.23639219,36.99529265,20.34945390,-1.26014247,1.19525977,0.87247589

>  <Name>
ligand

>  <RI>
0

>  <Rbt.Current_Directory>
/home/itssahil/PROJECTS/Mol_Feturizer/New_Systems/rnas/3F4H

>  <Rbt.Executable>
rbdock ($Id: //depot/dev/client3/rdock/2013.1/src/exe/rbdock.cxx#4 $)

>  <Rbt.Library>
libRbt.so (2013.1, Build901 2013/11/27)

>  <Rbt.Parameter_File>
/export/apps/rDock/src/rDock_2013.1_src/data/scripts/dock_solv.prm

>  <Rbt.Receptor>
prm/pocket_docking_4.prm

>  <SCORE>
-41.9082

>  <SCORE.INTER>
-26.2562

>  <SCORE.INTER.CONST>
1

>  <SCORE.INTER.POLAR>
0

>  <SCORE.INTER.ROT>
6

>  <SCORE.INTER.SOLV>
8.25891

>  <SCORE.INTER.VDW>
-27.8571

>  <SCORE.INTER.norm>
-0.905387

>  <SCORE.INTRA>
-15.6579

>  <SCORE.INTRA.DIHEDRAL>
-2.12287

>  <SCORE.INTRA.DIHEDRAL.0>
6.83446

>  <SCORE.INTRA.POLAR>
0

>  <SCORE.INTRA.POLAR.0>
0

>  <SCORE.INTRA.REPUL>
0

>  <SCORE.INTRA.REPUL.0>
0

>  <SCORE.INTRA.SOLV>
0.537592

>  <SCORE.INTRA.SOLV.lig_0>
-26.4601

>  <SCORE.INTRA.VDW>
-14.8652

>  <SCORE.INTRA.VDW.0>
13.7853

>  <SCORE.INTRA.norm>
-0.539927

>  <SCORE.RESTR>
0.00584002

>  <SCORE.RESTR.CAVITY>
0.00584002

>  <SCORE.RESTR.norm>
0.00020138

>  <SCORE.SYSTEM>
0

>  <SCORE.SYSTEM.CONST>
0

>  <SCORE.SYSTEM.DIHEDRAL>
0

>  <SCORE.SYSTEM.SOLV>
0

>  <SCORE.SYSTEM.norm>
0

>  <SCORE.heavy>
29

>  <SCORE.norm>
-1.44511

>  <RMSD>
5.722

$$$$
ligand
 OpenBabel11021811473D
libRbt.so/2013.1/901 2013/11/27
 29 31  0  0  0  0  0  0  0  0999 V2000
   31.0285   37.9828   16.9424 C   0  0  0  0  0  0  0  0  0  0  0  0
   32.4154   38.0883   16.6039 O   0  0  0  0  0  0  0  0  0  0  0  0
   30.4801   39.3685   17.2544 C   0  0  1  0  0  0  0  0  0  0  0  0
   30.3926   40.1056   16.0390 O   0  0  0  0  0  0  0  0  0  0  0  0
   29.1093   39.2663   17.9108 C   0  0  1  0  0  0  0  0  0  0  0  0
   28.2340   38.6637   16.9646 O   0  0  0  0  0  0  0  0  0  0  0  0
   29.0784   38.4834   19.2268 C   0  0  1  0  0  0  0  0  0  0  0  0
   29.9491   39.1284   20.1571 O   0  0  0  0  0  0  0  0  0  0  0  0
   27.6883   38.4029   19.8543 C   0  0  0  0  0  0  0  0  0  0  0  0
   27.8439   39.3959   22.4927 N   0  0  0  0  0  0  0  0  0  0  0  0
   27.9148   39.9098   23.7532 C   0  0  0  0  0  0  0  0  0  0  0  0
   27.9860   41.1515   23.9307 O   0  0  0  0  0  0  0  0  0  0  0  0
   27.9146   39.0852   24.8312 N   0  0  0  0  0  0  0  0  0  0  0  0
   27.8438   37.7389   24.6780 C   0  0  0  0  0  0  0  0  0  0  0  0
   27.7697   37.2007   23.3983 C   0  0  1  0  0  0  0  0  0  0  0  0
   27.8461   36.9797   25.6785 O   0  0  0  0  0  0  0  0  0  0  0  0
   27.6199   35.3407   21.9935 C   0  0  1  0  0  0  0  0  0  0  0  0
   27.6937   35.8619   23.2353 N   0  0  0  0  0  0  0  0  0  0  0  0
   27.5424   33.9614   21.8349 C   0  0  0  0  0  0  0  0  0  0  0  0
   27.4627   33.3941   20.5679 C   0  0  2  0  0  0  0  0  0  0  0  0
   27.3825   31.8924   20.4688 C   0  0  0  0  0  0  0  0  0  0  0  0
   27.4597   34.2197   19.4364 C   0  0  2  0  0  0  0  0  0  0  0  0
   27.3840   33.7341   18.1606 N   0  0  0  0  0  0  0  0  0  0  0  0
   27.5396   35.6066   19.6118 C   0  0  0  0  0  0  0  0  0  0  0  0
   27.6209   36.1798   20.8804 C   0  0  2  0  0  0  0  0  0  0  0  0
   27.7682   38.0492   22.2868 C   0  0  2  0  0  0  0  0  0  0  0  0
   27.7011   37.5210   21.0377 N   0  0  0  0  0  0  0  0  0  0  0  0
   26.0880   33.4410   17.5785 C   0  0  0  0  0  0  0  0  0  0  0  0
   28.5611   33.4962   17.3416 C   0  0  0  0  0  0  0  0  0  0  0  0
  1  2  1  0  0  0  0
  3  1  1  6  0  0  0
  3  4  1  0  0  0  0
  3  5  1  0  0  0  0
  5  6  1  6  0  0  0
  5  7  1  0  0  0  0
  7  8  1  1  0  0  0
  7  9  1  0  0  0  0
  9 27  1  0  0  0  0
 10 11  1  0  0  0  0
 11 12  2  0  0  0  0
 11 13  1  0  0  0  0
 13 14  1  0  0  0  0
 14 16  2  0  0  0  0
 15 14  1  1  0  0  0
 15 18  1  0  0  0  0
 15 26  1  0  0  0  0
 17 19  1  1  0  0  0
 17 25  1  0  0  0  0
 17 18  1  0  0  0  0
 19 20  1  0  0  0  0
 20 21  1  6  0  0  0
 20 22  1  0  0  0  0
 22 23  1  6  0  0  0
 22 24  1  0  0  0  0
 23 28  1  0  0  0  0
 23 29  1  0  0  0  0
 25 24  1  6  0  0  0
 25 27  1  0  0  0  0
 26 10  1  6  0  0  0
 26 27  1  0  0  0  0
M  END
>  <CHROM.1>
71.38817957,-63.14891741,59.82859247,174.06549154,85.03710600,-81.65843644
28.37259965,37.07908625,20.40384615,-0.95522825,1.14120490,0.85247338

>  <Name>
ligand

>  <RI>
0

>  <Rbt.Current_Directory>
/home/itssahil/PROJECTS/Mol_Feturizer/New_Systems/rnas/3F4H

>  <Rbt.Executable>
rbdock ($Id: //depot/dev/client3/rdock/2013.1/src/exe/rbdock.cxx#4 $)

>  <Rbt.Library>
libRbt.so (2013.1, Build901 2013/11/27)

>  <Rbt.Parameter_File>
/export/apps/rDock/src/rDock_2013.1_src/data/scripts/dock_solv.prm

>  <Rbt.Receptor>
prm/pocket_docking_7.prm

>  <SCORE>
-44.5927

>  <SCORE.INTER>
-26.6609

>  <SCORE.INTER.CONST>
1

>  <SCORE.INTER.POLAR>
0

>  <SCORE.INTER.ROT>
6

>  <SCORE.INTER.SOLV>
10.0763

>  <SCORE.INTER.VDW>
-28.7327

>  <SCORE.INTER.norm>
-0.919341

>  <SCORE.INTRA>
-17.9318

>  <SCORE.INTRA.DIHEDRAL>
-4.16131

>  <SCORE.INTRA.DIHEDRAL.0>
6.83446

>  <SCORE.INTRA.POLAR>
0

>  <SCORE.INTRA.POLAR.0>
0

>  <SCORE.INTRA.REPUL>
0

>  <SCORE.INTRA.REPUL.0>
0

>  <SCORE.INTRA.SOLV>
-0.546425

>  <SCORE.INTRA.SOLV.lig_0>
-26.4601

>  <SCORE.INTRA.VDW>
-15.578

>  <SCORE.INTRA.VDW.0>
13.7853

>  <SCORE.INTRA.norm>
-0.61834

>  <SCORE.RESTR>
0

>  <SCORE.RESTR.CAVITY>
0

>  <SCORE.RESTR.norm>
0

>  <SCORE.SYSTEM>
0

>  <SCORE.SYSTEM.CONST>
0

>  <SCORE.SYSTEM.DIHEDRAL>
0

>  <SCORE.SYSTEM.SOLV>
0

>  <SCORE.SYSTEM.norm>
0

>  <SCORE.heavy>
29

>  <SCORE.norm>
-1.53768

>  <RMSD>
5.726

$$$$
ligand
 OpenBabel11021811473D
libRbt.so/2013.1/901 2013/11/27
 29 31  0  0  0  0  0  0  0  0999 V2000
   31.0546   37.9781   16.9743 C   0  0  0  0  0  0  0  0  0  0  0  0
   32.4437   38.0750   16.6426 O   0  0  0  0  0  0  0  0  0  0  0  0
   30.5073   39.3699   17.2598 C   0  0  1  0  0  0  0  0  0  0  0  0
   30.4248   40.0852   16.0310 O   0  0  0  0  0  0  0  0  0  0  0  0
   29.1343   39.2815   17.9135 C   0  0  1  0  0  0  0  0  0  0  0  0
   28.2565   38.6807   16.9684 O   0  0  0  0  0  0  0  0  0  0  0  0
   29.0945   38.5056   19.2334 C   0  0  1  0  0  0  0  0  0  0  0  0
   29.9484   39.1633   20.1703 O   0  0  0  0  0  0  0  0  0  0  0  0
   27.6977   38.4163   19.8448 C   0  0  0  0  0  0  0  0  0  0  0  0
   27.8378   39.4004   22.4873 N   0  0  0  0  0  0  0  0  0  0  0  0
   27.9013   39.9100   23.7500 C   0  0  0  0  0  0  0  0  0  0  0  0
   27.9735   41.1510   23.9320 O   0  0  0  0  0  0  0  0  0  0  0  0
   27.8927   39.0819   24.8252 N   0  0  0  0  0  0  0  0  0  0  0  0
   27.8206   37.7362   24.6671 C   0  0  0  0  0  0  0  0  0  0  0  0
   27.7539   37.2023   23.3852 C   0  0  1  0  0  0  0  0  0  0  0  0
   27.8151   36.9737   25.6651 O   0  0  0  0  0  0  0  0  0  0  0  0
   27.6101   35.3473   21.9733 C   0  0  1  0  0  0  0  0  0  0  0  0
   27.6767   35.8643   23.2173 N   0  0  0  0  0  0  0  0  0  0  0  0
   27.5314   33.9687   21.8097 C   0  0  0  0  0  0  0  0  0  0  0  0
   27.4589   33.4057   20.5403 C   0  0  2  0  0  0  0  0  0  0  0  0
   27.3769   31.9044   20.4357 C   0  0  0  0  0  0  0  0  0  0  0  0
   27.4648   34.2350   19.4115 C   0  0  2  0  0  0  0  0  0  0  0  0
   27.3965   33.7537   18.1337 N   0  0  0  0  0  0  0  0  0  0  0  0
   27.5458   35.6211   19.5920 C   0  0  0  0  0  0  0  0  0  0  0  0
   27.6199   36.1900   20.8630 C   0  0  2  0  0  0  0  0  0  0  0  0
   27.7612   38.0545   22.2765 C   0  0  2  0  0  0  0  0  0  0  0  0
   27.7013   37.5305   21.0252 N   0  0  0  0  0  0  0  0  0  0  0  0
   28.6045   33.6568   17.3363 C   0  0  0  0  0  0  0  0  0  0  0  0
   26.1493   33.3224   17.5244 C   0  0  0  0  0  0  0  0  0  0  0  0
  1  2  1  0  0  0  0
  3  1  1  6  0  0  0
  3  4  1  0  0  0  0
  3  5  1  0  0  0  0
  5  6  1  6  0  0  0
  5  7  1  0  0  0  0
  7  8  1  1  0  0  0
  7  9  1  0  0  0  0
  9 27  1  0  0  0  0
 10 11  1  0  0  0  0
 11 12  2  0  0  0  0
 11 13  1  0  0  0  0
 13 14  1  0  0  0  0
 14 16  2  0  0  0  0
 15 14  1  1  0  0  0
 15 18  1  0  0  0  0
 15 26  1  0  0  0  0
 17 19  1  1  0  0  0
 17 25  1  0  0  0  0
 17 18  1  0  0  0  0
 19 20  1  0  0  0  0
 20 21  1  6  0  0  0
 20 22  1  0  0  0  0
 22 23  1  6  0  0  0
 22 24  1  0  0  0  0
 23 28  1  0  0  0  0
 23 29  1  0  0  0  0
 25 24  1  6  0  0  0
 25 27  1  0  0  0  0
 26 10  1  6  0  0  0
 26 27  1  0  0  0  0
M  END
>  <CHROM.1>
71.57267872,-63.96443361,60.91677641,173.50823991,-100.83253829,-82.12383078
28.37801922,37.08644017,20.39544476,-0.95243514,1.13549013,0.84591903

>  <Name>
ligand

>  <RI>
0

>  <Rbt.Current_Directory>
/home/itssahil/PROJECTS/Mol_Feturizer/New_Systems/rnas/3F4H

>  <Rbt.Executable>
rbdock ($Id: //depot/dev/client3/rdock/2013.1/src/exe/rbdock.cxx#4 $)

>  <Rbt.Library>
libRbt.so (2013.1, Build901 2013/11/27)

>  <Rbt.Parameter_File>
/export/apps/rDock/src/rDock_2013.1_src/data/scripts/dock_solv.prm

>  <Rbt.Receptor>
prm/pocket_docking_7.prm

>  <SCORE>
-44.4841

>  <SCORE.INTER>
-26.6707

>  <SCORE.INTER.CONST>
1

>  <SCORE.INTER.POLAR>
0

>  <SCORE.INTER.ROT>
6

>  <SCORE.INTER.SOLV>
10.055

>  <SCORE.INTER.VDW>
-28.7321

>  <SCORE.INTER.norm>
-0.919678

>  <SCORE.INTRA>
-17.8134

>  <SCORE.INTRA.DIHEDRAL>
-4.09878

>  <SCORE.INTRA.DIHEDRAL.0>
6.83446

>  <SCORE.INTRA.POLAR>
0

>  <SCORE.INTRA.POLAR.0>
0

>  <SCORE.INTRA.REPUL>
0

>  <SCORE.INTRA.REPUL.0>
0

>  <SCORE.INTRA.SOLV>
-0.546535

>  <SCORE.INTRA.SOLV.lig_0>
-26.4601

>  <SCORE.INTRA.VDW>
-15.4908

>  <SCORE.INTRA.VDW.0>
13.7853

>  <SCORE.INTRA.norm>
-0.614257

>  <SCORE.RESTR>
0

>  <SCORE.RESTR.CAVITY>
0

>  <SCORE.RESTR.norm>
0

>  <SCORE.SYSTEM>
0

>  <SCORE.SYSTEM.CONST>
0

>  <SCORE.SYSTEM.DIHEDRAL>
0

>  <SCORE.SYSTEM.SOLV>
0

>  <SCORE.SYSTEM.norm>
0

>  <SCORE.heavy>
29

>  <SCORE.norm>
-1.53393

>  <RMSD>
5.727

$$$$
ligand
 OpenBabel11021811473D
libRbt.so/2013.1/901 2013/11/27
 29 31  0  0  0  0  0  0  0  0999 V2000
   30.7599   37.7200   16.7098 C   0  0  0  0  0  0  0  0  0  0  0  0
   32.0852   37.6944   16.1695 O   0  0  0  0  0  0  0  0  0  0  0  0
   30.4030   39.1479   17.0995 C   0  0  1  0  0  0  0  0  0  0  0  0
   30.3389   39.9380   15.9162 O   0  0  0  0  0  0  0  0  0  0  0  0
   29.0685   39.1850   17.8331 C   0  0  1  0  0  0  0  0  0  0  0  0
   28.0869   38.6597   16.9469 O   0  0  0  0  0  0  0  0  0  0  0  0
   29.0383   38.4222   19.1608 C   0  0  1  0  0  0  0  0  0  0  0  0
   29.9928   39.0133   20.0435 O   0  0  0  0  0  0  0  0  0  0  0  0
   27.6745   38.4506   19.8479 C   0  0  0  0  0  0  0  0  0  0  0  0
   27.7770   39.4342   22.4924 N   0  0  0  0  0  0  0  0  0  0  0  0
   27.8224   39.9435   23.7560 C   0  0  0  0  0  0  0  0  0  0  0  0
   27.8868   41.1848   23.9393 O   0  0  0  0  0  0  0  0  0  0  0  0
   27.8039   39.1149   24.8306 N   0  0  0  0  0  0  0  0  0  0  0  0
   27.7396   37.7690   24.6712 C   0  0  0  0  0  0  0  0  0  0  0  0
   27.6914   37.2354   23.3884 C   0  0  1  0  0  0  0  0  0  0  0  0
   27.7249   37.0061   25.6688 O   0  0  0  0  0  0  0  0  0  0  0  0
   27.5735   35.3803   21.9741 C   0  0  1  0  0  0  0  0  0  0  0  0
   27.6221   35.8971   23.2190 N   0  0  0  0  0  0  0  0  0  0  0  0
   27.5029   34.0014   21.8090 C   0  0  0  0  0  0  0  0  0  0  0  0
   27.4489   33.4387   20.5386 C   0  0  2  0  0  0  0  0  0  0  0  0
   27.3747   31.9371   20.4324 C   0  0  0  0  0  0  0  0  0  0  0  0
   27.4653   34.2684   19.4102 C   0  0  2  0  0  0  0  0  0  0  0  0
   27.4153   33.7874   18.1315 N   0  0  0  0  0  0  0  0  0  0  0  0
   27.5381   35.6548   19.5923 C   0  0  0  0  0  0  0  0  0  0  0  0
   27.5936   36.2235   20.8643 C   0  0  2  0  0  0  0  0  0  0  0  0
   27.7089   38.0880   22.2802 C   0  0  2  0  0  0  0  0  0  0  0  0
   27.6671   37.5643   21.0280 N   0  0  0  0  0  0  0  0  0  0  0  0
   28.6383   33.6645   17.3611 C   0  0  0  0  0  0  0  0  0  0  0  0
   26.1731   33.3816   17.4951 C   0  0  0  0  0  0  0  0  0  0  0  0
  1  2  1  0  0  0  0
  3  1  1  6  0  0  0
  3  4  1  0  0  0  0
  3  5  1  0  0  0  0
  5  6  1  6  0  0  0
  5  7  1  0  0  0  0
  7  8  1  1  0  0  0
  7  9  1  0  0  0  0
  9 27  1  0  0  0  0
 10 11  1  0  0  0  0
 11 12  2  0  0  0  0
 11 13  1  0  0  0  0
 13 14  1  0  0  0  0
 14 16  2  0  0  0  0
 15 14  1  1  0  0  0
 15 18  1  0  0  0  0
 15 26  1  0  0  0  0
 17 19  1  1  0  0  0
 17 25  1  0  0  0  0
 17 18  1  0  0  0  0
 19 20  1  0  0  0  0
 20 21  1  6  0  0  0
 20 22  1  0  0  0  0
 22 23  1  6  0  0  0
 22 24  1  0  0  0  0
 23 28  1  0  0  0  0
 23 29  1  0  0  0  0
 25 24  1  6  0  0  0
 25 27  1  0  0  0  0
 26 10  1  6  0  0  0
 26 27  1  0  0  0  0
M  END
>  <CHROM.1>
65.77441688,-59.96607158,61.39425109,172.98088827,-99.28766379,-75.69254102
28.31226270,37.05966365,20.34750065,-0.95383868,1.15610788,0.80772692

>  <Name>
ligand

>  <RI>
0

>  <Rbt.Current_Directory>
/home/itssahil/PROJECTS/Mol_Feturizer/New_Systems/rnas/3F4H

>  <Rbt.Executable>
rbdock ($Id: //depot/dev/client3/rdock/2013.1/src/exe/rbdock.cxx#4 $)

>  <Rbt.Library>
libRbt.so (2013.1, Build901 2013/11/27)

>  <Rbt.Parameter_File>
/export/apps/rDock/src/rDock_2013.1_src/data/scripts/dock_solv.prm

>  <Rbt.Receptor>
prm/pocket_docking_8.prm

>  <SCORE>
-44.1682

>  <SCORE.INTER>
-26.1709

>  <SCORE.INTER.CONST>
1

>  <SCORE.INTER.POLAR>
0

>  <SCORE.INTER.ROT>
6

>  <SCORE.INTER.SOLV>
9.46121

>  <SCORE.INTER.VDW>
-28.201

>  <SCORE.INTER.norm>
-0.902444

>  <SCORE.INTRA>
-18.0187

>  <SCORE.INTRA.DIHEDRAL>
-4.48099

>  <SCORE.INTRA.DIHEDRAL.0>
6.83446

>  <SCORE.INTRA.POLAR>
0

>  <SCORE.INTRA.POLAR.0>
0

>  <SCORE.INTRA.REPUL>
0

>  <SCORE.INTRA.REPUL.0>
0

>  <SCORE.INTRA.SOLV>
-0.566655

>  <SCORE.INTRA.SOLV.lig_0>
-26.4601

>  <SCORE.INTRA.VDW>
-15.4949

>  <SCORE.INTRA.VDW.0>
13.7853

>  <SCORE.INTRA.norm>
-0.621336

>  <SCORE.RESTR>
0.0214351

>  <SCORE.RESTR.CAVITY>
0.0214351

>  <SCORE.RESTR.norm>
0.000739142

>  <SCORE.SYSTEM>
0

>  <SCORE.SYSTEM.CONST>
0

>  <SCORE.SYSTEM.DIHEDRAL>
0

>  <SCORE.SYSTEM.SOLV>
0

>  <SCORE.SYSTEM.norm>
0

>  <SCORE.heavy>
29

>  <SCORE.norm>
-1.52304

>  <RMSD>
5.727

$$$$
ligand
 OpenBabel11021811473D
libRbt.so/2013.1/901 2013/11/27
 29 31  0  0  0  0  0  0  0  0999 V2000
   25.0287   41.1874   17.5795 C   0  0  0  0  0  0  0  0  0  0  0  0
   25.8513   41.3734   16.4229 O   0  0  0  0  0  0  0  0  0  0  0  0
   25.7623   41.7088   18.8076 C   0  0  1  0  0  0  0  0  0  0  0  0
   24.9255   41.5282   19.9459 O   0  0  0  0  0  0  0  0  0  0  0  0
   27.0806   40.9697   18.9977 C   0  0  1  0  0  0  0  0  0  0  0  0
   27.8330   41.6939   19.9641 O   0  0  0  0  0  0  0  0  0  0  0  0
   26.9460   39.5058   19.4272 C   0  0  1  0  0  0  0  0  0  0  0  0
   26.4456   38.7542   18.3208 O   0  0  0  0  0  0  0  0  0  0  0  0
   28.2659   38.8779   19.8702 C   0  0  0  0  0  0  0  0  0  0  0  0
   28.1006   39.5683   22.6028 N   0  0  0  0  0  0  0  0  0  0  0  0
   28.0212   39.9374   23.9126 C   0  0  0  0  0  0  0  0  0  0  0  0
   28.1572   41.1419   24.2432 O   0  0  0  0  0  0  0  0  0  0  0  0
   27.7996   39.0069   24.8753 N   0  0  0  0  0  0  0  0  0  0  0  0
   27.6526   37.6963   24.5564 C   0  0  0  0  0  0  0  0  0  0  0  0
   27.7299   37.3053   23.2245 C   0  0  1  0  0  0  0  0  0  0  0  0
   27.4498   36.8385   25.4511 O   0  0  0  0  0  0  0  0  0  0  0  0
   27.6531   35.6255   21.6035 C   0  0  1  0  0  0  0  0  0  0  0  0
   27.5799   36.0037   22.8961 N   0  0  0  0  0  0  0  0  0  0  0  0
   27.4980   34.2834   21.2744 C   0  0  0  0  0  0  0  0  0  0  0  0
   27.5657   33.8628   19.9508 C   0  0  2  0  0  0  0  0  0  0  0  0
   27.3900   32.3934   19.6654 C   0  0  0  0  0  0  0  0  0  0  0  0
   27.7923   34.8003   18.9350 C   0  0  2  0  0  0  0  0  0  0  0  0
   27.8714   34.4611   17.6129 N   0  0  0  0  0  0  0  0  0  0  0  0
   27.9479   36.1479   19.2818 C   0  0  0  0  0  0  0  0  0  0  0  0
   27.8820   36.5740   20.6080 C   0  0  2  0  0  0  0  0  0  0  0  0
   27.9567   38.2632   22.2314 C   0  0  2  0  0  0  0  0  0  0  0  0
   28.0371   37.8783   20.9317 N   0  0  0  0  0  0  0  0  0  0  0  0
   26.6557   34.2292   16.8562 C   0  0  0  0  0  0  0  0  0  0  0  0
   29.1383   34.3227   16.9139 C   0  0  0  0  0  0  0  0  0  0  0  0
  1  2  1  0  0  0  0
  3  1  1  6  0  0  0
  3  4  1  0  0  0  0
  3  5  1  0  0  0  0
  5  6  1  1  0  0  0
  5  7  1  0  0  0  0
  7  8  1  6  0  0  0
  7  9  1  0  0  0  0
  9 27  1  0  0  0  0
 10 11  1  0  0  0  0
 11 12  2  0  0  0  0
 11 13  1  0  0  0  0
 13 14  1  0  0  0  0
 14 16  2  0  0  0  0
 15 14  1  6  0  0  0
 15 18  1  0  0  0  0
 15 26  1  0  0  0  0
 17 19  1  6  0  0  0
 17 25  1  0  0  0  0
 17 18  1  0  0  0  0
 19 20  1  0  0  0  0
 20 21  1  1  0  0  0
 20 22  1  0  0  0  0
 22 23  1  1  0  0  0
 22 24  1  0  0  0  0
 23 28  1  0  0  0  0
 23 29  1  0  0  0  0
 25 24  1  1  0  0  0
 25 27  1  0  0  0  0
 26 10  1  1  0  0  0
 26 27  1  0  0  0  0
M  END
>  <CHROM.1>
179.43858112,167.45964395,71.11009265,147.28937113,79.38024413,93.66514706
27.35074380,37.87748702,20.52993814,2.07502185,-1.32686476,0.80528003

>  <Name>
ligand

>  <RI>
0

>  <Rbt.Current_Directory>
/home/itssahil/PROJECTS/Mol_Feturizer/New_Systems/rnas/3F4H

>  <Rbt.Executable>
rbdock ($Id: //depot/dev/client3/rdock/2013.1/src/exe/rbdock.cxx#4 $)

>  <Rbt.Library>
libRbt.so (2013.1, Build901 2013/11/27)

>  <Rbt.Parameter_File>
/export/apps/rDock/src/rDock_2013.1_src/data/scripts/dock_solv.prm

>  <Rbt.Receptor>
prm/pocket_docking_4.prm

>  <SCORE>
-40.2399

>  <SCORE.INTER>
-24.1593

>  <SCORE.INTER.CONST>
1

>  <SCORE.INTER.POLAR>
0

>  <SCORE.INTER.ROT>
6

>  <SCORE.INTER.SOLV>
9.10407

>  <SCORE.INTER.VDW>
-26.7409

>  <SCORE.INTER.norm>
-0.83308

>  <SCORE.INTRA>
-16.0806

>  <SCORE.INTRA.DIHEDRAL>
-0.840049

>  <SCORE.INTRA.DIHEDRAL.0>
6.83446

>  <SCORE.INTRA.POLAR>
0

>  <SCORE.INTRA.POLAR.0>
0

>  <SCORE.INTRA.REPUL>
0

>  <SCORE.INTRA.REPUL.0>
0

>  <SCORE.INTRA.SOLV>
0.0589333

>  <SCORE.INTRA.SOLV.lig_0>
-26.4601

>  <SCORE.INTRA.VDW>
-15.6901

>  <SCORE.INTRA.VDW.0>
13.7853

>  <SCORE.INTRA.norm>
-0.554504

>  <SCORE.RESTR>
0

>  <SCORE.RESTR.CAVITY>
0

>  <SCORE.RESTR.norm>
0

>  <SCORE.SYSTEM>
0

>  <SCORE.SYSTEM.CONST>
0

>  <SCORE.SYSTEM.DIHEDRAL>
0

>  <SCORE.SYSTEM.SOLV>
0

>  <SCORE.SYSTEM.norm>
0

>  <SCORE.heavy>
29

>  <SCORE.norm>
-1.38758

>  <RMSD>
5.731

$$$$
ligand
 OpenBabel11021811473D
libRbt.so/2013.1/901 2013/11/27
 29 31  0  0  0  0  0  0  0  0999 V2000
   30.9946   37.8867   16.9114 C   0  0  0  0  0  0  0  0  0  0  0  0
   32.3597   37.8989   16.4807 O   0  0  0  0  0  0  0  0  0  0  0  0
   30.5638   39.3052   17.2582 C   0  0  1  0  0  0  0  0  0  0  0  0
   30.5114   40.0693   16.0574 O   0  0  0  0  0  0  0  0  0  0  0  0
   29.2023   39.2994   17.9412 C   0  0  1  0  0  0  0  0  0  0  0  0
   28.2643   38.7819   17.0046 O   0  0  0  0  0  0  0  0  0  0  0  0
   29.1360   38.5001   19.2460 C   0  0  1  0  0  0  0  0  0  0  0  0
   29.9932   39.1243   20.2026 O   0  0  0  0  0  0  0  0  0  0  0  0
   27.7323   38.4255   19.8432 C   0  0  0  0  0  0  0  0  0  0  0  0
   27.8441   39.4065   22.4883 N   0  0  0  0  0  0  0  0  0  0  0  0
   27.8944   39.9145   23.7522 C   0  0  0  0  0  0  0  0  0  0  0  0
   27.9725   41.1549   23.9363 O   0  0  0  0  0  0  0  0  0  0  0  0
   27.8660   39.0856   24.8264 N   0  0  0  0  0  0  0  0  0  0  0  0
   27.7869   37.7406   24.6661 C   0  0  0  0  0  0  0  0  0  0  0  0
   27.7336   37.2082   23.3830 C   0  0  1  0  0  0  0  0  0  0  0  0
   27.7631   36.9773   25.6633 O   0  0  0  0  0  0  0  0  0  0  0  0
   27.5959   35.3554   21.9676 C   0  0  1  0  0  0  0  0  0  0  0  0
   27.6495   35.8709   23.2128 N   0  0  0  0  0  0  0  0  0  0  0  0
   27.5100   33.9775   21.8016 C   0  0  0  0  0  0  0  0  0  0  0  0
   27.4506   33.4160   20.5309 C   0  0  2  0  0  0  0  0  0  0  0  0
   27.3598   31.9155   20.4238 C   0  0  0  0  0  0  0  0  0  0  0  0
   27.4769   34.2462   19.4030 C   0  0  2  0  0  0  0  0  0  0  0  0
   27.4223   33.7665   18.1240 N   0  0  0  0  0  0  0  0  0  0  0  0
   27.5649   35.6316   19.5859 C   0  0  0  0  0  0  0  0  0  0  0  0
   27.6260   36.1989   20.8583 C   0  0  2  0  0  0  0  0  0  0  0  0
   27.7612   38.0613   22.2753 C   0  0  2  0  0  0  0  0  0  0  0  0
   27.7143   37.5388   21.0228 N   0  0  0  0  0  0  0  0  0  0  0  0
   28.6388   33.6704   17.3395 C   0  0  0  0  0  0  0  0  0  0  0  0
   26.1816   33.3360   17.5009 C   0  0  0  0  0  0  0  0  0  0  0  0
  1  2  1  0  0  0  0
  3  1  1  6  0  0  0
  3  4  1  0  0  0  0
  3  5  1  0  0  0  0
  5  6  1  6  0  0  0
  5  7  1  0  0  0  0
  7  8  1  1  0  0  0
  7  9  1  0  0  0  0
  9 27  1  0  0  0  0
 10 11  1  0  0  0  0
 11 12  2  0  0  0  0
 11 13  1  0  0  0  0
 13 14  1  0  0  0  0
 14 16  2  0  0  0  0
 15 14  1  1  0  0  0
 15 18  1  0  0  0  0
 15 26  1  0  0  0  0
 17 19  1  1  0  0  0
 17 25  1  0  0  0  0
 17 18  1  0  0  0  0
 19 20  1  0  0  0  0
 20 21  1  6  0  0  0
 20 22  1  0  0  0  0
 22 23  1  6  0  0  0
 22 24  1  0  0  0  0
 23 28  1  0  0  0  0
 23 29  1  0  0  0  0
 25 24  1  6  0  0  0
 25 27  1  0  0  0  0
 26 10  1  6  0  0  0
 26 27  1  0  0  0  0
M  END
>  <CHROM.1>
68.47951352,-62.99939332,64.38592917,174.61091879,-101.23954330,-81.82535611
28.38216098,37.08207339,20.38877084,-0.94630510,1.13193048,0.82968425

>  <Name>
ligand

>  <RI>
0

>  <Rbt.Current_Directory>
/home/itssahil/PROJECTS/Mol_Feturizer/New_Systems/rnas/3F4H

>  <Rbt.Executable>
rbdock ($Id: //depot/dev/client3/rdock/2013.1/src/exe/rbdock.cxx#4 $)

>  <Rbt.Library>
libRbt.so (2013.1, Build901 2013/11/27)

>  <Rbt.Parameter_File>
/export/apps/rDock/src/rDock_2013.1_src/data/scripts/dock_solv.prm

>  <Rbt.Receptor>
prm/blind_docking_60.prm

>  <SCORE>
-44.4622

>  <SCORE.INTER>
-26.6057

>  <SCORE.INTER.CONST>
1

>  <SCORE.INTER.POLAR>
0

>  <SCORE.INTER.ROT>
6

>  <SCORE.INTER.SOLV>
9.97854

>  <SCORE.INTER.VDW>
-28.6633

>  <SCORE.INTER.norm>
-0.917437

>  <SCORE.INTRA>
-17.8566

>  <SCORE.INTRA.DIHEDRAL>
-4.31754

>  <SCORE.INTRA.DIHEDRAL.0>
6.83446

>  <SCORE.INTRA.POLAR>
0

>  <SCORE.INTRA.POLAR.0>
0

>  <SCORE.INTRA.REPUL>
0

>  <SCORE.INTRA.REPUL.0>
0

>  <SCORE.INTRA.SOLV>
-0.546988

>  <SCORE.INTRA.SOLV.lig_0>
-26.4601

>  <SCORE.INTRA.VDW>
-15.4243

>  <SCORE.INTRA.VDW.0>
13.7853

>  <SCORE.INTRA.norm>
-0.615744

>  <SCORE.RESTR>
0

>  <SCORE.RESTR.CAVITY>
0

>  <SCORE.RESTR.norm>
0

>  <SCORE.SYSTEM>
0

>  <SCORE.SYSTEM.CONST>
0

>  <SCORE.SYSTEM.DIHEDRAL>
0

>  <SCORE.SYSTEM.SOLV>
0

>  <SCORE.SYSTEM.norm>
0

>  <SCORE.heavy>
29

>  <SCORE.norm>
-1.53318

>  <RMSD>
5.733

$$$$
ligand
 OpenBabel11021811473D
libRbt.so/2013.1/901 2013/11/27
 29 31  0  0  0  0  0  0  0  0999 V2000
   31.5016   39.1787   17.3755 C   0  0  0  0  0  0  0  0  0  0  0  0
   31.8585   38.1460   18.3002 O   0  0  0  0  0  0  0  0  0  0  0  0
   30.1300   38.8759   16.7880 C   0  0  1  0  0  0  0  0  0  0  0  0
   30.0675   37.4880   16.4748 O   0  0  0  0  0  0  0  0  0  0  0  0
   29.0310   39.2452   17.7760 C   0  0  1  0  0  0  0  0  0  0  0  0
   27.7892   39.1023   17.0963 O   0  0  0  0  0  0  0  0  0  0  0  0
   29.0193   38.4231   19.0682 C   0  0  1  0  0  0  0  0  0  0  0  0
   30.0116   38.9513   19.9491 O   0  0  0  0  0  0  0  0  0  0  0  0
   27.6760   38.4506   19.7946 C   0  0  0  0  0  0  0  0  0  0  0  0
   27.8627   39.4414   22.4318 N   0  0  0  0  0  0  0  0  0  0  0  0
   27.9484   39.9542   23.6919 C   0  0  0  0  0  0  0  0  0  0  0  0
   28.0198   41.1959   23.8696 O   0  0  0  0  0  0  0  0  0  0  0  0
   27.9629   39.1286   24.7689 N   0  0  0  0  0  0  0  0  0  0  0  0
   27.8923   37.7823   24.6154 C   0  0  0  0  0  0  0  0  0  0  0  0
   27.8032   37.2452   23.3362 C   0  0  1  0  0  0  0  0  0  0  0  0
   27.9082   37.0222   25.6150 O   0  0  0  0  0  0  0  0  0  0  0  0
   27.6389   35.3863   21.9315 C   0  0  1  0  0  0  0  0  0  0  0  0
   27.7272   35.9065   23.1729 N   0  0  0  0  0  0  0  0  0  0  0  0
   27.5617   34.0071   21.7726 C   0  0  0  0  0  0  0  0  0  0  0  0
   27.4672   33.4409   20.5061 C   0  0  2  0  0  0  0  0  0  0  0  0
   27.3881   31.9391   20.4066 C   0  0  0  0  0  0  0  0  0  0  0  0
   27.4489   34.2675   19.3755 C   0  0  2  0  0  0  0  0  0  0  0  0
   27.3581   33.7830   18.1003 N   0  0  0  0  0  0  0  0  0  0  0  0
   27.5287   35.6543   19.5513 C   0  0  0  0  0  0  0  0  0  0  0  0
   27.6249   36.2264   20.8193 C   0  0  2  0  0  0  0  0  0  0  0  0
   27.7866   38.0947   22.2256 C   0  0  2  0  0  0  0  0  0  0  0  0
   27.7048   37.5676   20.9769 N   0  0  0  0  0  0  0  0  0  0  0  0
   28.5635   33.5930   17.3158 C   0  0  0  0  0  0  0  0  0  0  0  0
   26.0888   33.4385   17.4815 C   0  0  0  0  0  0  0  0  0  0  0  0
  1  2  1  0  0  0  0
  3  1  1  1  0  0  0
  3  4  1  0  0  0  0
  3  5  1  0  0  0  0
  5  6  1  6  0  0  0
  5  7  1  0  0  0  0
  7  8  1  1  0  0  0
  7  9  1  0  0  0  0
  9 27  1  0  0  0  0
 10 11  1  0  0  0  0
 11 12  2  0  0  0  0
 11 13  1  0  0  0  0
 13 14  1  0  0  0  0
 14 16  2  0  0  0  0
 15 14  1  1  0  0  0
 15 18  1  0  0  0  0
 15 26  1  0  0  0  0
 17 19  1  1  0  0  0
 17 25  1  0  0  0  0
 17 18  1  0  0  0  0
 19 20  1  0  0  0  0
 20 21  1  6  0  0  0
 20 22  1  0  0  0  0
 22 23  1  6  0  0  0
 22 24  1  0  0  0  0
 23 28  1  0  0  0  0
 23 29  1  0  0  0  0
 25 24  1  6  0  0  0
 25 27  1  0  0  0  0
 26 10  1  6  0  0  0
 26 27  1  0  0  0  0
M  END
>  <CHROM.1>
-42.92354928,172.47279444,80.26351913,176.10974516,-96.18353138,-75.91837183
28.33384725,37.04248406,20.43341141,-1.31736265,1.14922567,0.90637803

>  <Name>
ligand

>  <RI>
0

>  <Rbt.Current_Directory>
/home/itssahil/PROJECTS/Mol_Feturizer/New_Systems/rnas/3F4H

>  <Rbt.Executable>
rbdock ($Id: //depot/dev/client3/rdock/2013.1/src/exe/rbdock.cxx#4 $)

>  <Rbt.Library>
libRbt.so (2013.1, Build901 2013/11/27)

>  <Rbt.Parameter_File>
/export/apps/rDock/src/rDock_2013.1_src/data/scripts/dock_solv.prm

>  <Rbt.Receptor>
prm/pocket_docking_7.prm

>  <SCORE>
-42.9851

>  <SCORE.INTER>
-26.992

>  <SCORE.INTER.CONST>
1

>  <SCORE.INTER.POLAR>
0

>  <SCORE.INTER.ROT>
6

>  <SCORE.INTER.SOLV>
8.49737

>  <SCORE.INTER.VDW>
-28.4271

>  <SCORE.INTER.norm>
-0.930759

>  <SCORE.INTRA>
-15.9931

>  <SCORE.INTRA.DIHEDRAL>
-2.17468

>  <SCORE.INTRA.DIHEDRAL.0>
6.83446

>  <SCORE.INTRA.POLAR>
0

>  <SCORE.INTRA.POLAR.0>
0

>  <SCORE.INTRA.REPUL>
0

>  <SCORE.INTRA.REPUL.0>
0

>  <SCORE.INTRA.SOLV>
0.544842

>  <SCORE.INTRA.SOLV.lig_0>
-26.4601

>  <SCORE.INTRA.VDW>
-15.1782

>  <SCORE.INTRA.VDW.0>
13.7853

>  <SCORE.INTRA.norm>
-0.551485

>  <SCORE.RESTR>
0

>  <SCORE.RESTR.CAVITY>
0

>  <SCORE.RESTR.norm>
0

>  <SCORE.SYSTEM>
0

>  <SCORE.SYSTEM.CONST>
0

>  <SCORE.SYSTEM.DIHEDRAL>
0

>  <SCORE.SYSTEM.SOLV>
0

>  <SCORE.SYSTEM.norm>
0

>  <SCORE.heavy>
29

>  <SCORE.norm>
-1.48224

>  <RMSD>
5.733

$$$$
ligand
 OpenBabel11021811473D
libRbt.so/2013.1/901 2013/11/27
 29 31  0  0  0  0  0  0  0  0999 V2000
   31.5174   38.7488   17.4144 C   0  0  0  0  0  0  0  0  0  0  0  0
   32.4933   38.0862   16.6035 O   0  0  0  0  0  0  0  0  0  0  0  0
   30.1471   38.6120   16.7649 C   0  0  1  0  0  0  0  0  0  0  0  0
   29.9588   37.2521   16.3862 O   0  0  0  0  0  0  0  0  0  0  0  0
   29.0517   39.0490   17.7291 C   0  0  1  0  0  0  0  0  0  0  0  0
   27.8076   38.8630   17.0641 O   0  0  0  0  0  0  0  0  0  0  0  0
   29.0426   38.3159   19.0737 C   0  0  1  0  0  0  0  0  0  0  0  0
   30.0318   38.9067   19.9175 O   0  0  0  0  0  0  0  0  0  0  0  0
   27.6986   38.3863   19.7959 C   0  0  0  0  0  0  0  0  0  0  0  0
   27.8323   39.3903   22.4313 N   0  0  0  0  0  0  0  0  0  0  0  0
   27.8929   39.9093   23.6902 C   0  0  0  0  0  0  0  0  0  0  0  0
   27.9654   41.1517   23.8631 O   0  0  0  0  0  0  0  0  0  0  0  0
   27.8809   39.0894   24.7716 N   0  0  0  0  0  0  0  0  0  0  0  0
   27.8083   37.7426   24.6236 C   0  0  0  0  0  0  0  0  0  0  0  0
   27.7446   37.1991   23.3456 C   0  0  1  0  0  0  0  0  0  0  0  0
   27.7996   36.9877   25.6273 O   0  0  0  0  0  0  0  0  0  0  0  0
   27.6033   35.3335   21.9474 C   0  0  1  0  0  0  0  0  0  0  0  0
   27.6669   35.8599   23.1876 N   0  0  0  0  0  0  0  0  0  0  0  0
   27.5240   33.9537   21.7940 C   0  0  0  0  0  0  0  0  0  0  0  0
   27.4546   33.3812   20.5287 C   0  0  2  0  0  0  0  0  0  0  0  0
   27.3717   31.8793   20.4352 C   0  0  0  0  0  0  0  0  0  0  0  0
   27.4639   34.2019   19.3937 C   0  0  2  0  0  0  0  0  0  0  0  0
   27.3988   33.7110   18.1193 N   0  0  0  0  0  0  0  0  0  0  0  0
   27.5455   35.5893   19.5639 C   0  0  0  0  0  0  0  0  0  0  0  0
   27.6166   36.1678   20.8308 C   0  0  2  0  0  0  0  0  0  0  0  0
   27.7554   38.0428   22.2305 C   0  0  2  0  0  0  0  0  0  0  0  0
   27.6984   37.5095   20.9831 N   0  0  0  0  0  0  0  0  0  0  0  0
   26.1066   33.4380   17.5191 C   0  0  0  0  0  0  0  0  0  0  0  0
   28.5836   33.4479   17.3195 C   0  0  0  0  0  0  0  0  0  0  0  0
  1  2  1  0  0  0  0
  3  1  1  1  0  0  0
  3  4  1  0  0  0  0
  3  5  1  0  0  0  0
  5  6  1  6  0  0  0
  5  7  1  0  0  0  0
  7  8  1  1  0  0  0
  7  9  1  0  0  0  0
  9 27  1  0  0  0  0
 10 11  1  0  0  0  0
 11 12  2  0  0  0  0
 11 13  1  0  0  0  0
 13 14  1  0  0  0  0
 14 16  2  0  0  0  0
 15 14  1  1  0  0  0
 15 18  1  0  0  0  0
 15 26  1  0  0  0  0
 17 19  1  1  0  0  0
 17 25  1  0  0  0  0
 17 18  1  0  0  0  0
 19 20  1  0  0  0  0
 20 21  1  6  0  0  0
 20 22  1  0  0  0  0
 22 23  1  6  0  0  0
 22 24  1  0  0  0  0
 23 28  1  0  0  0  0
 23 29  1  0  0  0  0
 25 24  1  6  0  0  0
 25 27  1  0  0  0  0
 26 10  1  6  0  0  0
 26 27  1  0  0  0  0
M  END
>  <CHROM.1>
47.22509410,-178.65416752,80.67814951,172.07676901,85.98991402,-74.13189378
28.34048381,36.94674493,20.36649622,-1.12570323,1.11617253,0.84070468

>  <Name>
ligand

>  <RI>
0

>  <Rbt.Current_Directory>
/home/itssahil/PROJECTS/Mol_Feturizer/New_Systems/rnas/3F4H

>  <Rbt.Executable>
rbdock ($Id: //depot/dev/client3/rdock/2013.1/src/exe/rbdock.cxx#4 $)

>  <Rbt.Library>
libRbt.so (2013.1, Build901 2013/11/27)

>  <Rbt.Parameter_File>
/export/apps/rDock/src/rDock_2013.1_src/data/scripts/dock_solv.prm

>  <Rbt.Receptor>
prm/blind_docking_100.prm

>  <SCORE>
-43.2129

>  <SCORE.INTER>
-26.7691

>  <SCORE.INTER.CONST>
1

>  <SCORE.INTER.POLAR>
0

>  <SCORE.INTER.ROT>
6

>  <SCORE.INTER.SOLV>
9.33964

>  <SCORE.INTER.VDW>
-28.5593

>  <SCORE.INTER.norm>
-0.923072

>  <SCORE.INTRA>
-16.4438

>  <SCORE.INTRA.DIHEDRAL>
-2.55917

>  <SCORE.INTRA.DIHEDRAL.0>
6.83446

>  <SCORE.INTRA.POLAR>
0

>  <SCORE.INTRA.POLAR.0>
0

>  <SCORE.INTRA.REPUL>
0

>  <SCORE.INTRA.REPUL.0>
0

>  <SCORE.INTRA.SOLV>
-0.209435

>  <SCORE.INTRA.SOLV.lig_0>
-26.4601

>  <SCORE.INTRA.VDW>
-15.0595

>  <SCORE.INTRA.VDW.0>
13.7853

>  <SCORE.INTRA.norm>
-0.567029

>  <SCORE.RESTR>
0

>  <SCORE.RESTR.CAVITY>
0

>  <SCORE.RESTR.norm>
0

>  <SCORE.SYSTEM>
0

>  <SCORE.SYSTEM.CONST>
0

>  <SCORE.SYSTEM.DIHEDRAL>
0

>  <SCORE.SYSTEM.SOLV>
0

>  <SCORE.SYSTEM.norm>
0

>  <SCORE.heavy>
29

>  <SCORE.norm>
-1.4901

>  <RMSD>
5.734

$$$$
ligand
 OpenBabel11021811473D
libRbt.so/2013.1/901 2013/11/27
 29 31  0  0  0  0  0  0  0  0999 V2000
   31.5546   38.7196   17.4763 C   0  0  0  0  0  0  0  0  0  0  0  0
   32.4925   38.0653   16.6155 O   0  0  0  0  0  0  0  0  0  0  0  0
   30.1800   38.7108   16.8217 C   0  0  1  0  0  0  0  0  0  0  0  0
   29.9024   37.3896   16.3682 O   0  0  0  0  0  0  0  0  0  0  0  0
   29.1136   39.1659   17.8097 C   0  0  1  0  0  0  0  0  0  0  0  0
   27.8574   39.0634   17.1492 O   0  0  0  0  0  0  0  0  0  0  0  0
   29.0780   38.3871   19.1280 C   0  0  1  0  0  0  0  0  0  0  0  0
   30.0836   38.9165   19.9930 O   0  0  0  0  0  0  0  0  0  0  0  0
   27.7353   38.4752   19.8506 C   0  0  0  0  0  0  0  0  0  0  0  0
   27.8581   39.4463   22.4988 N   0  0  0  0  0  0  0  0  0  0  0  0
   27.9139   39.9498   23.7643 C   0  0  0  0  0  0  0  0  0  0  0  0
   27.9971   41.1892   23.9526 O   0  0  0  0  0  0  0  0  0  0  0  0
   27.8855   39.1171   24.8357 N   0  0  0  0  0  0  0  0  0  0  0  0
   27.8010   37.7730   24.6709 C   0  0  0  0  0  0  0  0  0  0  0  0
   27.7421   37.2454   23.3860 C   0  0  1  0  0  0  0  0  0  0  0  0
   27.7771   37.0063   25.6654 O   0  0  0  0  0  0  0  0  0  0  0  0
   27.5936   35.3980   21.9645 C   0  0  1  0  0  0  0  0  0  0  0  0
   27.6526   35.9090   23.2114 N   0  0  0  0  0  0  0  0  0  0  0  0
   27.5022   34.0211   21.7940 C   0  0  0  0  0  0  0  0  0  0  0  0
   27.4371   33.4643   20.5214 C   0  0  2  0  0  0  0  0  0  0  0  0
   27.3404   31.9645   20.4094 C   0  0  0  0  0  0  0  0  0  0  0  0
   27.4633   34.2984   19.3964 C   0  0  2  0  0  0  0  0  0  0  0  0
   27.4033   33.8234   18.1158 N   0  0  0  0  0  0  0  0  0  0  0  0
   27.5569   35.6828   19.5839 C   0  0  0  0  0  0  0  0  0  0  0  0
   27.6237   36.2454   20.8582 C   0  0  2  0  0  0  0  0  0  0  0  0
   27.7697   38.1022   22.2813 C   0  0  2  0  0  0  0  0  0  0  0  0
   27.7174   37.5843   21.0271 N   0  0  0  0  0  0  0  0  0  0  0  0
   28.6180   33.7209   17.3293 C   0  0  0  0  0  0  0  0  0  0  0  0
   26.1586   33.4043   17.4931 C   0  0  0  0  0  0  0  0  0  0  0  0
  1  2  1  0  0  0  0
  3  1  1  1  0  0  0
  3  4  1  0  0  0  0
  3  5  1  0  0  0  0
  5  6  1  6  0  0  0
  5  7  1  0  0  0  0
  7  8  1  1  0  0  0
  7  9  1  0  0  0  0
  9 27  1  0  0  0  0
 10 11  1  0  0  0  0
 11 12  2  0  0  0  0
 11 13  1  0  0  0  0
 13 14  1  0  0  0  0
 14 16  2  0  0  0  0
 15 14  1  1  0  0  0
 15 18  1  0  0  0  0
 15 26  1  0  0  0  0
 17 19  1  1  0  0  0
 17 25  1  0  0  0  0
 17 18  1  0  0  0  0
 19 20  1  0  0  0  0
 20 21  1  6  0  0  0
 20 22  1  0  0  0  0
 22 23  1  6  0  0  0
 22 24  1  0  0  0  0
 23 28  1  0  0  0  0
 23 29  1  0  0  0  0
 25 24  1  6  0  0  0
 25 27  1  0  0  0  0
 26 10  1  6  0  0  0
 26 27  1  0  0  0  0
M  END
>  <CHROM.1>
48.49420843,-176.99926593,81.76274656,173.55814753,-101.01199262,-73.42494491
28.35280519,37.01697882,20.40172408,-1.12304609,1.11119728,0.85045472

>  <Name>
ligand

>  <RI>
0

>  <Rbt.Current_Directory>
/home/itssahil/PROJECTS/Mol_Feturizer/New_Systems/rnas/3F4H

>  <Rbt.Executable>
rbdock ($Id: //depot/dev/client3/rdock/2013.1/src/exe/rbdock.cxx#4 $)

>  <Rbt.Library>
libRbt.so (2013.1, Build901 2013/11/27)

>  <Rbt.Parameter_File>
/export/apps/rDock/src/rDock_2013.1_src/data/scripts/dock_solv.prm

>  <Rbt.Receptor>
prm/blind_docking_100.prm

>  <SCORE>
-43.0975

>  <SCORE.INTER>
-26.8168

>  <SCORE.INTER.CONST>
1

>  <SCORE.INTER.POLAR>
0

>  <SCORE.INTER.ROT>
6

>  <SCORE.INTER.SOLV>
9.21714

>  <SCORE.INTER.VDW>
-28.5503

>  <SCORE.INTER.norm>
-0.924719

>  <SCORE.INTRA>
-16.2807

>  <SCORE.INTRA.DIHEDRAL>
-2.5761

>  <SCORE.INTRA.DIHEDRAL.0>
6.83446

>  <SCORE.INTRA.POLAR>
0

>  <SCORE.INTRA.POLAR.0>
0

>  <SCORE.INTRA.REPUL>
0

>  <SCORE.INTRA.REPUL.0>
0

>  <SCORE.INTRA.SOLV>
-0.203993

>  <SCORE.INTRA.SOLV.lig_0>
-26.4601

>  <SCORE.INTRA.VDW>
-14.8906

>  <SCORE.INTRA.VDW.0>
13.7853

>  <SCORE.INTRA.norm>
-0.561402

>  <SCORE.RESTR>
0

>  <SCORE.RESTR.CAVITY>
0

>  <SCORE.RESTR.norm>
0

>  <SCORE.SYSTEM>
0

>  <SCORE.SYSTEM.CONST>
0

>  <SCORE.SYSTEM.DIHEDRAL>
0

>  <SCORE.SYSTEM.SOLV>
0

>  <SCORE.SYSTEM.norm>
0

>  <SCORE.heavy>
29

>  <SCORE.norm>
-1.48612

>  <RMSD>
5.745

$$$$
ligand
 OpenBabel11021811473D
libRbt.so/2013.1/901 2013/11/27
 29 31  0  0  0  0  0  0  0  0999 V2000
   31.1182   37.9230   17.1549 C   0  0  0  0  0  0  0  0  0  0  0  0
   32.5258   38.0255   16.9162 O   0  0  0  0  0  0  0  0  0  0  0  0
   30.5330   39.3189   17.3200 C   0  0  1  0  0  0  0  0  0  0  0  0
   30.4678   39.9374   16.0387 O   0  0  0  0  0  0  0  0  0  0  0  0
   29.1452   39.2473   17.9439 C   0  0  1  0  0  0  0  0  0  0  0  0
   28.3055   38.5600   17.0235 O   0  0  0  0  0  0  0  0  0  0  0  0
   29.0864   38.5684   19.3155 C   0  0  1  0  0  0  0  0  0  0  0  0
   29.8472   39.3482   20.2389 O   0  0  0  0  0  0  0  0  0  0  0  0
   27.6683   38.4304   19.8657 C   0  0  0  0  0  0  0  0  0  0  0  0
   27.7482   39.4162   22.5101 N   0  0  0  0  0  0  0  0  0  0  0  0
   27.7829   39.9266   23.7736 C   0  0  0  0  0  0  0  0  0  0  0  0
   27.8453   41.1681   23.9565 O   0  0  0  0  0  0  0  0  0  0  0  0
   27.7557   39.0989   24.8488 N   0  0  0  0  0  0  0  0  0  0  0  0
   27.6934   37.7529   24.6899 C   0  0  0  0  0  0  0  0  0  0  0  0
   27.6561   37.2181   23.4072 C   0  0  1  0  0  0  0  0  0  0  0  0
   27.6706   36.9907   25.6880 O   0  0  0  0  0  0  0  0  0  0  0  0
   27.5508   35.3618   21.9935 C   0  0  1  0  0  0  0  0  0  0  0  0
   27.5888   35.8797   23.2384 N   0  0  0  0  0  0  0  0  0  0  0  0
   27.4821   33.9828   21.8290 C   0  0  0  0  0  0  0  0  0  0  0  0
   27.4390   33.4189   20.5586 C   0  0  2  0  0  0  0  0  0  0  0  0
   27.3663   31.9173   20.4531 C   0  0  0  0  0  0  0  0  0  0  0  0
   27.4645   34.2478   19.4298 C   0  0  2  0  0  0  0  0  0  0  0  0
   27.4253   33.7657   18.1510 N   0  0  0  0  0  0  0  0  0  0  0  0
   27.5351   35.6344   19.6112 C   0  0  0  0  0  0  0  0  0  0  0  0
   27.5798   36.2041   20.8833 C   0  0  2  0  0  0  0  0  0  0  0  0
   27.6825   38.0699   22.2985 C   0  0  2  0  0  0  0  0  0  0  0  0
   27.6514   37.5451   21.0465 N   0  0  0  0  0  0  0  0  0  0  0  0
   26.1548   33.3806   17.5663 C   0  0  0  0  0  0  0  0  0  0  0  0
   28.6170   33.6210   17.3314 C   0  0  0  0  0  0  0  0  0  0  0  0
  1  2  1  0  0  0  0
  3  1  1  6  0  0  0
  3  4  1  0  0  0  0
  3  5  1  0  0  0  0
  5  6  1  6  0  0  0
  5  7  1  0  0  0  0
  7  8  1  1  0  0  0
  7  9  1  0  0  0  0
  9 27  1  0  0  0  0
 10 11  1  0  0  0  0
 11 12  2  0  0  0  0
 11 13  1  0  0  0  0
 13 14  1  0  0  0  0
 14 16  2  0  0  0  0
 15 14  1  1  0  0  0
 15 18  1  0  0  0  0
 15 26  1  0  0  0  0
 17 19  1  1  0  0  0
 17 25  1  0  0  0  0
 17 18  1  0  0  0  0
 19 20  1  0  0  0  0
 20 21  1  6  0  0  0
 20 22  1  0  0  0  0
 22 23  1  6  0  0  0
 22 24  1  0  0  0  0
 23 28  1  0  0  0  0
 23 29  1  0  0  0  0
 25 24  1  6  0  0  0
 25 27  1  0  0  0  0
 26 10  1  6  0  0  0
 26 27  1  0  0  0  0
M  END
>  <CHROM.1>
74.35987238,-64.14855200,63.76728320,168.92234454,80.66214455,-84.27997409
28.34247325,37.08866026,20.43834026,-0.94686146,1.11872052,0.80624343

>  <Name>
ligand

>  <RI>
0

>  <Rbt.Current_Directory>
/home/itssahil/PROJECTS/Mol_Feturizer/New_Systems/rnas/3F4H

>  <Rbt.Executable>
rbdock ($Id: //depot/dev/client3/rdock/2013.1/src/exe/rbdock.cxx#4 $)

>  <Rbt.Library>
libRbt.so (2013.1, Build901 2013/11/27)

>  <Rbt.Parameter_File>
/export/apps/rDock/src/rDock_2013.1_src/data/scripts/dock_solv.prm

>  <Rbt.Receptor>
prm/pocket_docking_8.prm

>  <SCORE>
-44.2468

>  <SCORE.INTER>
-26.7048

>  <SCORE.INTER.CONST>
1

>  <SCORE.INTER.POLAR>
0

>  <SCORE.INTER.ROT>
6

>  <SCORE.INTER.SOLV>
9.88697

>  <SCORE.INTER.VDW>
-28.6989

>  <SCORE.INTER.norm>
-0.920855

>  <SCORE.INTRA>
-17.5427

>  <SCORE.INTRA.DIHEDRAL>
-3.52282

>  <SCORE.INTRA.DIHEDRAL.0>
6.83446

>  <SCORE.INTRA.POLAR>
0

>  <SCORE.INTRA.POLAR.0>
0

>  <SCORE.INTRA.REPUL>
0

>  <SCORE.INTRA.REPUL.0>
0

>  <SCORE.INTRA.SOLV>
-0.564441

>  <SCORE.INTRA.SOLV.lig_0>
-26.4601

>  <SCORE.INTRA.VDW>
-15.4991

>  <SCORE.INTRA.VDW.0>
13.7853

>  <SCORE.INTRA.norm>
-0.60492

>  <SCORE.RESTR>
0.000669484

>  <SCORE.RESTR.CAVITY>
0.000669484

>  <SCORE.RESTR.norm>
2.30857e-05

>  <SCORE.SYSTEM>
0

>  <SCORE.SYSTEM.CONST>
0

>  <SCORE.SYSTEM.DIHEDRAL>
0

>  <SCORE.SYSTEM.SOLV>
0

>  <SCORE.SYSTEM.norm>
0

>  <SCORE.heavy>
29

>  <SCORE.norm>
-1.52575

>  <RMSD>
5.748

$$$$
ligand
 OpenBabel11021811473D
libRbt.so/2013.1/901 2013/11/27
 29 31  0  0  0  0  0  0  0  0999 V2000
   31.1900   37.4351   16.0219 C   0  0  0  0  0  0  0  0  0  0  0  0
   32.5987   37.2530   15.8450 O   0  0  0  0  0  0  0  0  0  0  0  0
   30.9221   37.9503   17.4293 C   0  0  1  0  0  0  0  0  0  0  0  0
   31.3730   39.2988   17.5117 O   0  0  0  0  0  0  0  0  0  0  0  0
   29.4365   37.8685   17.7557 C   0  0  1  0  0  0  0  0  0  0  0  0
   29.0650   36.4968   17.6828 O   0  0  0  0  0  0  0  0  0  0  0  0
   29.0399   38.4476   19.1169 C   0  0  1  0  0  0  0  0  0  0  0  0
   29.1405   39.8706   19.0495 O   0  0  0  0  0  0  0  0  0  0  0  0
   27.6156   38.0915   19.5380 C   0  0  0  0  0  0  0  0  0  0  0  0
   27.7297   39.1954   22.1341 N   0  0  0  0  0  0  0  0  0  0  0  0
   27.7804   39.7621   23.3728 C   0  0  0  0  0  0  0  0  0  0  0  0
   27.8351   41.0110   23.4990 O   0  0  0  0  0  0  0  0  0  0  0  0
   27.7776   38.9832   24.4842 N   0  0  0  0  0  0  0  0  0  0  0  0
   27.7242   37.6310   24.3867 C   0  0  0  0  0  0  0  0  0  0  0  0
   27.6709   37.0391   23.1299 C   0  0  1  0  0  0  0  0  0  0  0  0
   27.7241   36.9142   25.4180 O   0  0  0  0  0  0  0  0  0  0  0  0
   27.5586   35.1205   21.8025 C   0  0  1  0  0  0  0  0  0  0  0  0
   27.6123   35.6939   23.0221 N   0  0  0  0  0  0  0  0  0  0  0  0
   27.4991   33.7350   21.7008 C   0  0  0  0  0  0  0  0  0  0  0  0
   27.4403   33.1145   20.4578 C   0  0  2  0  0  0  0  0  0  0  0  0
   27.3788   31.6091   20.4207 C   0  0  0  0  0  0  0  0  0  0  0  0
   27.4405   33.8921   19.2928 C   0  0  2  0  0  0  0  0  0  0  0  0
   27.3849   33.3529   18.0377 N   0  0  0  0  0  0  0  0  0  0  0  0
   27.5022   35.2859   19.4110 C   0  0  0  0  0  0  0  0  0  0  0  0
   27.5626   35.9124   20.6554 C   0  0  2  0  0  0  0  0  0  0  0  0
   27.6721   37.8404   21.9839 C   0  0  2  0  0  0  0  0  0  0  0  0
   27.6253   37.2599   20.7573 N   0  0  0  0  0  0  0  0  0  0  0  0
   28.6143   33.0722   17.3206 C   0  0  0  0  0  0  0  0  0  0  0  0
   26.1301   33.0374   17.3754 C   0  0  0  0  0  0  0  0  0  0  0  0
  1  2  1  0  0  0  0
  3  1  1  6  0  0  0
  3  4  1  0  0  0  0
  3  5  1  0  0  0  0
  5  6  1  1  0  0  0
  5  7  1  0  0  0  0
  7  8  1  6  0  0  0
  7  9  1  0  0  0  0
  9 27  1  0  0  0  0
 10 11  1  0  0  0  0
 11 12  2  0  0  0  0
 11 13  1  0  0  0  0
 13 14  1  0  0  0  0
 14 16  2  0  0  0  0
 15 14  1  1  0  0  0
 15 18  1  0  0  0  0
 15 26  1  0  0  0  0
 17 19  1  1  0  0  0
 17 25  1  0  0  0  0
 17 18  1  0  0  0  0
 19 20  1  0  0  0  0
 20 21  1  6  0  0  0
 20 22  1  0  0  0  0
 22 23  1  6  0  0  0
 22 24  1  0  0  0  0
 23 28  1  0  0  0  0
 23 29  1  0  0  0  0
 25 24  1  6  0  0  0
 25 27  1  0  0  0  0
 26 10  1  6  0  0  0
 26 27  1  0  0  0  0
M  END
>  <CHROM.1>
71.15089875,61.15441961,71.96172924,116.19643685,-92.67175622,-95.56634213
28.40458784,36.67475411,20.21806495,-1.05553249,1.03995362,0.71253771

>  <Name>
ligand

>  <RI>
0

>  <Rbt.Current_Directory>
/home/itssahil/PROJECTS/Mol_Feturizer/New_Systems/rnas/3F4H

>  <Rbt.Executable>
rbdock ($Id: //depot/dev/client3/rdock/2013.1/src/exe/rbdock.cxx#4 $)

>  <Rbt.Library>
libRbt.so (2013.1, Build901 2013/11/27)

>  <Rbt.Parameter_File>
/export/apps/rDock/src/rDock_2013.1_src/data/scripts/dock_solv.prm

>  <Rbt.Receptor>
prm/pocket_docking_4.prm

>  <SCORE>
-40.6256

>  <SCORE.INTER>
-25.6023

>  <SCORE.INTER.CONST>
1

>  <SCORE.INTER.POLAR>
0

>  <SCORE.INTER.ROT>
6

>  <SCORE.INTER.SOLV>
10.105

>  <SCORE.INTER.VDW>
-28.0365

>  <SCORE.INTER.norm>
-0.882838

>  <SCORE.INTRA>
-15.0295

>  <SCORE.INTRA.DIHEDRAL>
1.39686

>  <SCORE.INTRA.DIHEDRAL.0>
6.83446

>  <SCORE.INTRA.POLAR>
0

>  <SCORE.INTRA.POLAR.0>
0

>  <SCORE.INTRA.REPUL>
0

>  <SCORE.INTRA.REPUL.0>
0

>  <SCORE.INTRA.SOLV>
0.141313

>  <SCORE.INTRA.SOLV.lig_0>
-26.4601

>  <SCORE.INTRA.VDW>
-15.7986

>  <SCORE.INTRA.VDW.0>
13.7853

>  <SCORE.INTRA.norm>
-0.518259

>  <SCORE.RESTR>
0.00625656

>  <SCORE.RESTR.CAVITY>
0.00625656

>  <SCORE.RESTR.norm>
0.000215743

>  <SCORE.SYSTEM>
0

>  <SCORE.SYSTEM.CONST>
0

>  <SCORE.SYSTEM.DIHEDRAL>
0

>  <SCORE.SYSTEM.SOLV>
0

>  <SCORE.SYSTEM.norm>
0

>  <SCORE.heavy>
29

>  <SCORE.norm>
-1.40088

>  <RMSD>
5.749

$$$$
ligand
 OpenBabel11021811473D
libRbt.so/2013.1/901 2013/11/27
 29 31  0  0  0  0  0  0  0  0999 V2000
   26.1259   41.7498   18.0454 C   0  0  0  0  0  0  0  0  0  0  0  0
   27.2064   42.5279   18.5709 O   0  0  0  0  0  0  0  0  0  0  0  0
   25.7225   40.6950   19.0666 C   0  0  1  0  0  0  0  0  0  0  0  0
   24.5198   40.0731   18.6247 O   0  0  0  0  0  0  0  0  0  0  0  0
   26.8258   39.6573   19.2288 C   0  0  1  0  0  0  0  0  0  0  0  0
   27.0170   39.0449   17.9588 O   0  0  0  0  0  0  0  0  0  0  0  0
   28.1568   40.2042   19.7532 C   0  0  1  0  0  0  0  0  0  0  0  0
   27.8967   40.9829   20.9218 O   0  0  0  0  0  0  0  0  0  0  0  0
   29.1596   39.1131   20.1228 C   0  0  0  0  0  0  0  0  0  0  0  0
   28.8252   39.6147   22.8810 N   0  0  0  0  0  0  0  0  0  0  0  0
   28.6745   39.8920   24.2071 C   0  0  0  0  0  0  0  0  0  0  0  0
   29.0696   40.9884   24.6764 O   0  0  0  0  0  0  0  0  0  0  0  0
   28.1006   38.9842   25.0368 N   0  0  0  0  0  0  0  0  0  0  0  0
   27.6665   37.7878   24.5665 C   0  0  0  0  0  0  0  0  0  0  0  0
   27.8124   37.4918   23.2160 C   0  0  1  0  0  0  0  0  0  0  0  0
   27.1379   36.9500   25.3386 O   0  0  0  0  0  0  0  0  0  0  0  0
   27.5190   36.0200   21.4263 C   0  0  1  0  0  0  0  0  0  0  0  0
   27.3788   36.3056   22.7370 N   0  0  0  0  0  0  0  0  0  0  0  0
   27.0704   34.7963   20.9418 C   0  0  0  0  0  0  0  0  0  0  0  0
   27.1985   34.4738   19.5953 C   0  0  2  0  0  0  0  0  0  0  0  0
   26.6919   33.1299   19.1383 C   0  0  0  0  0  0  0  0  0  0  0  0
   27.7858   35.3909   18.7144 C   0  0  2  0  0  0  0  0  0  0  0  0
   27.9453   35.1435   17.3793 N   0  0  0  0  0  0  0  0  0  0  0  0
   28.2340   36.6185   19.2171 C   0  0  0  0  0  0  0  0  0  0  0  0
   28.1087   36.9456   20.5669 C   0  0  2  0  0  0  0  0  0  0  0  0
   28.4022   38.4268   22.3597 C   0  0  2  0  0  0  0  0  0  0  0  0
   28.5485   38.1334   21.0420 N   0  0  0  0  0  0  0  0  0  0  0  0
   26.9039   35.5310   16.4467 C   0  0  0  0  0  0  0  0  0  0  0  0
   29.1320   34.5024   16.8376 C   0  0  0  0  0  0  0  0  0  0  0  0
  1  2  1  0  0  0  0
  3  1  1  6  0  0  0
  3  4  1  0  0  0  0
  3  5  1  0  0  0  0
  5  6  1  6  0  0  0
  5  7  1  0  0  0  0
  7  8  1  1  0  0  0
  7  9  1  0  0  0  0
  9 27  1  0  0  0  0
 10 11  1  0  0  0  0
 11 12  2  0  0  0  0
 11 13  1  0  0  0  0
 13 14  1  0  0  0  0
 14 16  2  0  0  0  0
 15 14  1  6  0  0  0
 15 18  1  0  0  0  0
 15 26  1  0  0  0  0
 17 19  1  6  0  0  0
 17 25  1  0  0  0  0
 17 18  1  0  0  0  0
 19 20  1  0  0  0  0
 20 21  1  1  0  0  0
 20 22  1  0  0  0  0
 22 23  1  1  0  0  0
 22 24  1  0  0  0  0
 23 28  1  0  0  0  0
 23 29  1  0  0  0  0
 25 24  1  1  0  0  0
 25 27  1  0  0  0  0
 26 10  1  1  0  0  0
 26 27  1  0  0  0  0
M  END
>  <CHROM.1>
170.89829671,-60.53680128,50.22748029,-52.34194942,90.64755883,100.85742727
27.59418211,38.05078732,20.59608380,1.04449068,-1.37610740,0.41045749

>  <Name>
ligand

>  <RI>
0

>  <Rbt.Current_Directory>
/home/itssahil/PROJECTS/Mol_Feturizer/New_Systems/rnas/3F4H

>  <Rbt.Executable>
rbdock ($Id: //depot/dev/client3/rdock/2013.1/src/exe/rbdock.cxx#4 $)

>  <Rbt.Library>
libRbt.so (2013.1, Build901 2013/11/27)

>  <Rbt.Parameter_File>
/export/apps/rDock/src/rDock_2013.1_src/data/scripts/dock_solv.prm

>  <Rbt.Receptor>
prm/pocket_docking_5.prm

>  <SCORE>
-39.9836

>  <SCORE.INTER>
-22.6341

>  <SCORE.INTER.CONST>
1

>  <SCORE.INTER.POLAR>
0

>  <SCORE.INTER.ROT>
6

>  <SCORE.INTER.SOLV>
8.85735

>  <SCORE.INTER.VDW>
-25.6418

>  <SCORE.INTER.norm>
-0.780486

>  <SCORE.INTRA>
-17.3495

>  <SCORE.INTRA.DIHEDRAL>
-3.98151

>  <SCORE.INTRA.DIHEDRAL.0>
6.83446

>  <SCORE.INTRA.POLAR>
0

>  <SCORE.INTRA.POLAR.0>
0

>  <SCORE.INTRA.REPUL>
0

>  <SCORE.INTRA.REPUL.0>
0

>  <SCORE.INTRA.SOLV>
0.798829

>  <SCORE.INTRA.SOLV.lig_0>
-26.4601

>  <SCORE.INTRA.VDW>
-15.7581

>  <SCORE.INTRA.VDW.0>
13.7853

>  <SCORE.INTRA.norm>
-0.598258

>  <SCORE.RESTR>
0

>  <SCORE.RESTR.CAVITY>
0

>  <SCORE.RESTR.norm>
0

>  <SCORE.SYSTEM>
0

>  <SCORE.SYSTEM.CONST>
0

>  <SCORE.SYSTEM.DIHEDRAL>
0

>  <SCORE.SYSTEM.SOLV>
0

>  <SCORE.SYSTEM.norm>
0

>  <SCORE.heavy>
29

>  <SCORE.norm>
-1.37874

>  <RMSD>
5.759

$$$$
ligand
 OpenBabel11021811473D
libRbt.so/2013.1/901 2013/11/27
 29 31  0  0  0  0  0  0  0  0999 V2000
   24.8581   40.8346   19.0771 C   0  0  0  0  0  0  0  0  0  0  0  0
   23.8647   41.6431   18.4381 O   0  0  0  0  0  0  0  0  0  0  0  0
   25.8288   40.3083   18.0288 C   0  0  1  0  0  0  0  0  0  0  0  0
   26.4919   41.4164   17.4282 O   0  0  0  0  0  0  0  0  0  0  0  0
   26.8430   39.3656   18.6636 C   0  0  1  0  0  0  0  0  0  0  0  0
   27.5345   38.7160   17.6032 O   0  0  0  0  0  0  0  0  0  0  0  0
   27.8440   40.0343   19.6105 C   0  0  1  0  0  0  0  0  0  0  0  0
   27.1346   40.5128   20.7539 O   0  0  0  0  0  0  0  0  0  0  0  0
   28.9457   39.0936   20.0943 C   0  0  0  0  0  0  0  0  0  0  0  0
   28.5861   39.5313   22.8602 N   0  0  0  0  0  0  0  0  0  0  0  0
   28.4211   39.7783   24.1906 C   0  0  0  0  0  0  0  0  0  0  0  0
   28.7525   40.8882   24.6771 O   0  0  0  0  0  0  0  0  0  0  0  0
   27.9018   38.8257   25.0059 N   0  0  0  0  0  0  0  0  0  0  0  0
   27.5372   37.6138   24.5169 C   0  0  0  0  0  0  0  0  0  0  0  0
   27.6985   37.3481   23.1618 C   0  0  1  0  0  0  0  0  0  0  0  0
   27.0590   36.7346   25.2757 O   0  0  0  0  0  0  0  0  0  0  0  0
   27.4888   35.8903   21.3490 C   0  0  1  0  0  0  0  0  0  0  0  0
   27.3338   36.1465   22.6642 N   0  0  0  0  0  0  0  0  0  0  0  0
   27.1113   34.6505   20.8453 C   0  0  0  0  0  0  0  0  0  0  0  0
   27.2563   34.3572   19.4938 C   0  0  2  0  0  0  0  0  0  0  0  0
   26.8280   32.9936   19.0157 C   0  0  0  0  0  0  0  0  0  0  0  0
   27.7884   35.3207   18.6274 C   0  0  2  0  0  0  0  0  0  0  0  0
   27.9604   35.1041   17.2885 N   0  0  0  0  0  0  0  0  0  0  0  0
   28.1653   36.5641   19.1494 C   0  0  0  0  0  0  0  0  0  0  0  0
   28.0228   36.8620   20.5042 C   0  0  2  0  0  0  0  0  0  0  0  0
   28.2320   38.3292   22.3203 C   0  0  2  0  0  0  0  0  0  0  0  0
   28.3935   38.0657   20.9980 N   0  0  0  0  0  0  0  0  0  0  0  0
   29.1735   34.4661   16.8134 C   0  0  0  0  0  0  0  0  0  0  0  0
   26.9664   35.4857   16.2990 C   0  0  0  0  0  0  0  0  0  0  0  0
  1  2  1  0  0  0  0
  3  1  1  1  0  0  0
  3  4  1  0  0  0  0
  3  5  1  0  0  0  0
  5  6  1  6  0  0  0
  5  7  1  0  0  0  0
  7  8  1  1  0  0  0
  7  9  1  0  0  0  0
  9 27  1  0  0  0  0
 10 11  1  0  0  0  0
 11 12  2  0  0  0  0
 11 13  1  0  0  0  0
 13 14  1  0  0  0  0
 14 16  2  0  0  0  0
 15 14  1  6  0  0  0
 15 18  1  0  0  0  0
 15 26  1  0  0  0  0
 17 19  1  6  0  0  0
 17 25  1  0  0  0  0
 17 18  1  0  0  0  0
 19 20  1  0  0  0  0
 20 21  1  1  0  0  0
 20 22  1  0  0  0  0
 22 23  1  1  0  0  0
 22 24  1  0  0  0  0
 23 28  1  0  0  0  0
 23 29  1  0  0  0  0
 25 24  1  1  0  0  0
 25 27  1  0  0  0  0
 26 10  1  1  0  0  0
 26 27  1  0  0  0  0
M  END
>  <CHROM.1>
62.75214274,168.64993375,66.83310396,-68.77560346,-85.88865239,94.14857817
27.41962972,37.90366915,20.45754492,1.84518108,1.29580703,-2.29546618

>  <Name>
ligand

>  <RI>
0

>  <Rbt.Current_Directory>
/home/itssahil/PROJECTS/Mol_Feturizer/New_Systems/rnas/3F4H

>  <Rbt.Executable>
rbdock ($Id: //depot/dev/client3/rdock/2013.1/src/exe/rbdock.cxx#4 $)

>  <Rbt.Library>
libRbt.so (2013.1, Build901 2013/11/27)

>  <Rbt.Parameter_File>
/export/apps/rDock/src/rDock_2013.1_src/data/scripts/dock_solv.prm

>  <Rbt.Receptor>
prm/blind_docking_60.prm

>  <SCORE>
-41.2942

>  <SCORE.INTER>
-23.4719

>  <SCORE.INTER.CONST>
1

>  <SCORE.INTER.POLAR>
0

>  <SCORE.INTER.ROT>
6

>  <SCORE.INTER.SOLV>
8.85584

>  <SCORE.INTER.VDW>
-26.1999

>  <SCORE.INTER.norm>
-0.809376

>  <SCORE.INTRA>
-17.8223

>  <SCORE.INTRA.DIHEDRAL>
-3.92292

>  <SCORE.INTRA.DIHEDRAL.0>
6.83446

>  <SCORE.INTRA.POLAR>
0

>  <SCORE.INTRA.POLAR.0>
0

>  <SCORE.INTRA.REPUL>
0

>  <SCORE.INTRA.REPUL.0>
0

>  <SCORE.INTRA.SOLV>
0.529299

>  <SCORE.INTRA.SOLV.lig_0>
-26.4601

>  <SCORE.INTRA.VDW>
-16.1255

>  <SCORE.INTRA.VDW.0>
13.7853

>  <SCORE.INTRA.norm>
-0.614562

>  <SCORE.RESTR>
0

>  <SCORE.RESTR.CAVITY>
0

>  <SCORE.RESTR.norm>
0

>  <SCORE.SYSTEM>
0

>  <SCORE.SYSTEM.CONST>
0

>  <SCORE.SYSTEM.DIHEDRAL>
0

>  <SCORE.SYSTEM.SOLV>
0

>  <SCORE.SYSTEM.norm>
0

>  <SCORE.heavy>
29

>  <SCORE.norm>
-1.42394

>  <RMSD>
5.768

$$$$
ligand
 OpenBabel11021811473D
libRbt.so/2013.1/901 2013/11/27
 29 31  0  0  0  0  0  0  0  0999 V2000
   24.9114   41.4594   17.9931 C   0  0  0  0  0  0  0  0  0  0  0  0
   24.2856   40.2435   18.4158 O   0  0  0  0  0  0  0  0  0  0  0  0
   25.9230   41.8962   19.0439 C   0  0  1  0  0  0  0  0  0  0  0  0
   25.3202   41.7804   20.3290 O   0  0  0  0  0  0  0  0  0  0  0  0
   27.1780   41.0362   18.9689 C   0  0  1  0  0  0  0  0  0  0  0  0
   28.1688   41.6674   19.7718 O   0  0  0  0  0  0  0  0  0  0  0  0
   26.9932   39.5815   19.4109 C   0  0  1  0  0  0  0  0  0  0  0  0
   26.4337   38.8458   18.3223 O   0  0  0  0  0  0  0  0  0  0  0  0
   28.2966   38.9010   19.8241 C   0  0  0  0  0  0  0  0  0  0  0  0
   28.1006   39.5718   22.5596 N   0  0  0  0  0  0  0  0  0  0  0  0
   28.0067   39.9317   23.8710 C   0  0  0  0  0  0  0  0  0  0  0  0
   28.1453   41.1328   24.2123 O   0  0  0  0  0  0  0  0  0  0  0  0
   27.7676   38.9953   24.8238 N   0  0  0  0  0  0  0  0  0  0  0  0
   27.6173   37.6880   24.4932 C   0  0  0  0  0  0  0  0  0  0  0  0
   27.7092   37.3065   23.1595 C   0  0  1  0  0  0  0  0  0  0  0  0
   27.3982   36.8247   25.3787 O   0  0  0  0  0  0  0  0  0  0  0  0
   27.6435   35.6393   21.5249 C   0  0  1  0  0  0  0  0  0  0  0  0
   27.5560   36.0083   22.8194 N   0  0  0  0  0  0  0  0  0  0  0  0
   27.4849   34.3007   21.1838 C   0  0  0  0  0  0  0  0  0  0  0  0
   27.5670   33.8896   19.8580 C   0  0  2  0  0  0  0  0  0  0  0  0
   27.3866   32.4234   19.5594 C   0  0  0  0  0  0  0  0  0  0  0  0
   27.8118   34.8332   18.8523 C   0  0  2  0  0  0  0  0  0  0  0  0
   27.9057   34.5035   17.5288 N   0  0  0  0  0  0  0  0  0  0  0  0
   27.9706   36.1773   19.2112 C   0  0  0  0  0  0  0  0  0  0  0  0
   27.8903   36.5939   20.5396 C   0  0  2  0  0  0  0  0  0  0  0  0
   27.9541   38.2705   22.1765 C   0  0  2  0  0  0  0  0  0  0  0  0
   28.0487   37.8948   20.8751 N   0  0  0  0  0  0  0  0  0  0  0  0
   29.2091   34.4337   16.8958 C   0  0  0  0  0  0  0  0  0  0  0  0
   26.7411   34.2101   16.7100 C   0  0  0  0  0  0  0  0  0  0  0  0
  1  2  1  0  0  0  0
  3  1  1  6  0  0  0
  3  4  1  0  0  0  0
  3  5  1  0  0  0  0
  5  6  1  1  0  0  0
  5  7  1  0  0  0  0
  7  8  1  6  0  0  0
  7  9  1  0  0  0  0
  9 27  1  0  0  0  0
 10 11  1  0  0  0  0
 11 12  2  0  0  0  0
 11 13  1  0  0  0  0
 13 14  1  0  0  0  0
 14 16  2  0  0  0  0
 15 14  1  6  0  0  0
 15 18  1  0  0  0  0
 15 26  1  0  0  0  0
 17 19  1  6  0  0  0
 17 25  1  0  0  0  0
 17 18  1  0  0  0  0
 19 20  1  0  0  0  0
 20 21  1  1  0  0  0
 20 22  1  0  0  0  0
 22 23  1  1  0  0  0
 22 24  1  0  0  0  0
 23 28  1  0  0  0  0
 23 29  1  0  0  0  0
 25 24  1  1  0  0  0
 25 27  1  0  0  0  0
 26 10  1  1  0  0  0
 26 27  1  0  0  0  0
M  END
>  <CHROM.1>
-45.62526107,168.18410991,81.41899968,148.61983683,-103.32842619,96.04577082
27.32519265,37.87569619,20.59021585,1.99633379,-1.29449434,0.82082056

>  <Name>
ligand

>  <RI>
0

>  <Rbt.Current_Directory>
/home/itssahil/PROJECTS/Mol_Feturizer/New_Systems/rnas/3F4H

>  <Rbt.Executable>
rbdock ($Id: //depot/dev/client3/rdock/2013.1/src/exe/rbdock.cxx#4 $)

>  <Rbt.Library>
libRbt.so (2013.1, Build901 2013/11/27)

>  <Rbt.Parameter_File>
/export/apps/rDock/src/rDock_2013.1_src/data/scripts/dock_solv.prm

>  <Rbt.Receptor>
prm/blind_docking_80.prm

>  <SCORE>
-38.9638

>  <SCORE.INTER>
-24.3912

>  <SCORE.INTER.CONST>
1

>  <SCORE.INTER.POLAR>
0

>  <SCORE.INTER.ROT>
6

>  <SCORE.INTER.SOLV>
9.75301

>  <SCORE.INTER.VDW>
-27.1118

>  <SCORE.INTER.norm>
-0.841077

>  <SCORE.INTRA>
-14.5726

>  <SCORE.INTRA.DIHEDRAL>
0.701381

>  <SCORE.INTRA.DIHEDRAL.0>
6.83446

>  <SCORE.INTRA.POLAR>
0

>  <SCORE.INTRA.POLAR.0>
0

>  <SCORE.INTRA.REPUL>
0

>  <SCORE.INTRA.REPUL.0>
0

>  <SCORE.INTRA.SOLV>
0.495006

>  <SCORE.INTRA.SOLV.lig_0>
-26.4601

>  <SCORE.INTRA.VDW>
-15.1708

>  <SCORE.INTRA.VDW.0>
13.7853

>  <SCORE.INTRA.norm>
-0.502502

>  <SCORE.RESTR>
0

>  <SCORE.RESTR.CAVITY>
0

>  <SCORE.RESTR.norm>
0

>  <SCORE.SYSTEM>
0

>  <SCORE.SYSTEM.CONST>
0

>  <SCORE.SYSTEM.DIHEDRAL>
0

>  <SCORE.SYSTEM.SOLV>
0

>  <SCORE.SYSTEM.norm>
0

>  <SCORE.heavy>
29

>  <SCORE.norm>
-1.34358

>  <RMSD>
5.793

$$$$
ligand
 OpenBabel11021811473D
libRbt.so/2013.1/901 2013/11/27
 29 31  0  0  0  0  0  0  0  0999 V2000
   28.3085   41.8659   15.4628 C   0  0  0  0  0  0  0  0  0  0  0  0
   27.5292   43.0650   15.4009 O   0  0  0  0  0  0  0  0  0  0  0  0
   27.7924   40.9884   16.5949 C   0  0  1  0  0  0  0  0  0  0  0  0
   28.4031   39.7061   16.4889 O   0  0  0  0  0  0  0  0  0  0  0  0
   28.1105   41.6157   17.9461 C   0  0  1  0  0  0  0  0  0  0  0  0
   27.3720   42.8290   18.0306 O   0  0  0  0  0  0  0  0  0  0  0  0
   27.8060   40.7307   19.1584 C   0  0  1  0  0  0  0  0  0  0  0  0
   26.4843   40.2088   19.0166 O   0  0  0  0  0  0  0  0  0  0  0  0
   28.7678   39.5539   19.3096 C   0  0  0  0  0  0  0  0  0  0  0  0
   29.0309   40.8478   21.8052 N   0  0  0  0  0  0  0  0  0  0  0  0
   29.1617   41.5049   22.9923 C   0  0  0  0  0  0  0  0  0  0  0  0
   29.4909   42.7172   23.0152 O   0  0  0  0  0  0  0  0  0  0  0  0
   28.9430   40.8553   24.1636 N   0  0  0  0  0  0  0  0  0  0  0  0
   28.5908   39.5451   24.1780 C   0  0  0  0  0  0  0  0  0  0  0  0
   28.4524   38.8624   22.9749 C   0  0  1  0  0  0  0  0  0  0  0  0
   28.3915   38.9476   25.2646 O   0  0  0  0  0  0  0  0  0  0  0  0
   27.9612   36.8982   21.8104 C   0  0  1  0  0  0  0  0  0  0  0  0
   28.0972   37.5592   22.9782 N   0  0  0  0  0  0  0  0  0  0  0  0
   27.5958   35.5566   21.8232 C   0  0  0  0  0  0  0  0  0  0  0  0
   27.4451   34.8487   20.6358 C   0  0  2  0  0  0  0  0  0  0  0  0
   27.0484   33.3974   20.7228 C   0  0  0  0  0  0  0  0  0  0  0  0
   27.6631   35.4925   19.4111 C   0  0  2  0  0  0  0  0  0  0  0  0
   27.5342   34.8617   18.2050 N   0  0  0  0  0  0  0  0  0  0  0  0
   28.0319   36.8433   19.4142 C   0  0  0  0  0  0  0  0  0  0  0  0
   28.1854   37.5568   20.6025 C   0  0  2  0  0  0  0  0  0  0  0  0
   28.6760   39.5309   21.7672 C   0  0  2  0  0  0  0  0  0  0  0  0
   28.5454   38.8607   20.5934 N   0  0  0  0  0  0  0  0  0  0  0  0
   26.2401   34.8180   17.5511 C   0  0  0  0  0  0  0  0  0  0  0  0
   28.6530   34.2238   17.5310 C   0  0  0  0  0  0  0  0  0  0  0  0
  1  2  1  0  0  0  0
  3  1  1  6  0  0  0
  3  4  1  0  0  0  0
  3  5  1  0  0  0  0
  5  6  1  1  0  0  0
  5  7  1  0  0  0  0
  7  8  1  6  0  0  0
  7  9  1  0  0  0  0
  9 27  1  0  0  0  0
 10 11  1  0  0  0  0
 11 12  2  0  0  0  0
 11 13  1  0  0  0  0
 13 14  1  0  0  0  0
 14 16  2  0  0  0  0
 15 14  1  6  0  0  0
 15 18  1  0  0  0  0
 15 26  1  0  0  0  0
 17 19  1  6  0  0  0
 17 25  1  0  0  0  0
 17 18  1  0  0  0  0
 19 20  1  0  0  0  0
 20 21  1  1  0  0  0
 20 22  1  0  0  0  0
 22 23  1  1  0  0  0
 22 24  1  0  0  0  0
 23 28  1  0  0  0  0
 23 29  1  0  0  0  0
 25 24  1  1  0  0  0
 25 27  1  0  0  0  0
 26 10  1  1  0  0  0
 26 27  1  0  0  0  0
M  END
>  <CHROM.1>
169.32853756,65.19992065,-48.85031378,171.75441666,87.75759163,119.52973495
28.06627929,38.84535985,20.08288601,1.29833374,-1.39162960,-0.69715878

>  <Name>
ligand

>  <RI>
0

>  <Rbt.Current_Directory>
/home/itssahil/PROJECTS/Mol_Feturizer/New_Systems/rnas/3F4H

>  <Rbt.Executable>
rbdock ($Id: //depot/dev/client3/rdock/2013.1/src/exe/rbdock.cxx#4 $)

>  <Rbt.Library>
libRbt.so (2013.1, Build901 2013/11/27)

>  <Rbt.Parameter_File>
/export/apps/rDock/src/rDock_2013.1_src/data/scripts/dock_solv.prm

>  <Rbt.Receptor>
prm/blind_docking_100.prm

>  <SCORE>
-38.9525

>  <SCORE.INTER>
-22.0665

>  <SCORE.INTER.CONST>
1

>  <SCORE.INTER.POLAR>
0

>  <SCORE.INTER.ROT>
6

>  <SCORE.INTER.SOLV>
9.32076

>  <SCORE.INTER.VDW>
-25.418

>  <SCORE.INTER.norm>
-0.760915

>  <SCORE.INTRA>
-16.8859

>  <SCORE.INTRA.DIHEDRAL>
-3.62066

>  <SCORE.INTRA.DIHEDRAL.0>
6.83446

>  <SCORE.INTRA.POLAR>
0

>  <SCORE.INTRA.POLAR.0>
0

>  <SCORE.INTRA.REPUL>
0

>  <SCORE.INTRA.REPUL.0>
0

>  <SCORE.INTRA.SOLV>
0.1049

>  <SCORE.INTRA.SOLV.lig_0>
-26.4601

>  <SCORE.INTRA.VDW>
-15.128

>  <SCORE.INTRA.VDW.0>
13.7853

>  <SCORE.INTRA.norm>
-0.582273

>  <SCORE.RESTR>
0

>  <SCORE.RESTR.CAVITY>
0

>  <SCORE.RESTR.norm>
0

>  <SCORE.SYSTEM>
0

>  <SCORE.SYSTEM.CONST>
0

>  <SCORE.SYSTEM.DIHEDRAL>
0

>  <SCORE.SYSTEM.SOLV>
0

>  <SCORE.SYSTEM.norm>
0

>  <SCORE.heavy>
29

>  <SCORE.norm>
-1.34319

>  <RMSD>
5.797

$$$$
ligand
 OpenBabel11021811473D
libRbt.so/2013.1/901 2013/11/27
 29 31  0  0  0  0  0  0  0  0999 V2000
   29.8825   36.5713   16.6620 C   0  0  0  0  0  0  0  0  0  0  0  0
   31.2382   36.9533   16.4069 O   0  0  0  0  0  0  0  0  0  0  0  0
   29.1381   37.7441   17.2853 C   0  0  1  0  0  0  0  0  0  0  0  0
   27.7496   37.4298   17.3256 O   0  0  0  0  0  0  0  0  0  0  0  0
   29.6583   38.0229   18.6896 C   0  0  1  0  0  0  0  0  0  0  0  0
   31.0006   38.4766   18.5583 O   0  0  0  0  0  0  0  0  0  0  0  0
   28.8386   39.0359   19.4943 C   0  0  1  0  0  0  0  0  0  0  0  0
   28.6463   40.2014   18.6916 O   0  0  0  0  0  0  0  0  0  0  0  0
   27.4650   38.5137   19.9105 C   0  0  0  0  0  0  0  0  0  0  0  0
   27.7810   39.4638   22.5503 N   0  0  0  0  0  0  0  0  0  0  0  0
   27.9277   39.9571   23.8126 C   0  0  0  0  0  0  0  0  0  0  0  0
   27.9822   41.1969   24.0085 O   0  0  0  0  0  0  0  0  0  0  0  0
   28.0219   39.1140   24.8719 N   0  0  0  0  0  0  0  0  0  0  0  0
   27.9719   37.7693   24.6982 C   0  0  0  0  0  0  0  0  0  0  0  0
   27.8213   37.2519   23.4166 C   0  0  1  0  0  0  0  0  0  0  0  0
   28.0616   36.9929   25.6814 O   0  0  0  0  0  0  0  0  0  0  0  0
   27.6172   35.4137   21.9901 C   0  0  1  0  0  0  0  0  0  0  0  0
   27.7652   35.9148   23.2336 N   0  0  0  0  0  0  0  0  0  0  0  0
   27.5610   34.0360   21.8108 C   0  0  0  0  0  0  0  0  0  0  0  0
   27.4064   33.4892   20.5417 C   0  0  2  0  0  0  0  0  0  0  0  0
   27.3545   31.9879   20.4196 C   0  0  0  0  0  0  0  0  0  0  0  0
   27.3053   34.3341   19.4291 C   0  0  2  0  0  0  0  0  0  0  0  0
   27.1522   33.8693   18.1526 N   0  0  0  0  0  0  0  0  0  0  0  0
   27.3649   35.7193   19.6252 C   0  0  0  0  0  0  0  0  0  0  0  0
   27.5212   36.2720   20.8959 C   0  0  2  0  0  0  0  0  0  0  0  0
   27.7226   38.1195   22.3244 C   0  0  2  0  0  0  0  0  0  0  0  0
   27.5808   37.6118   21.0730 N   0  0  0  0  0  0  0  0  0  0  0  0
   25.8225   33.7529   17.5844 C   0  0  0  0  0  0  0  0  0  0  0  0
   28.2785   33.4821   17.3193 C   0  0  0  0  0  0  0  0  0  0  0  0
  1  2  1  0  0  0  0
  3  1  1  1  0  0  0
  3  4  1  0  0  0  0
  3  5  1  0  0  0  0
  5  6  1  6  0  0  0
  5  7  1  0  0  0  0
  7  8  1  6  0  0  0
  7  9  1  0  0  0  0
  9 27  1  0  0  0  0
 10 11  1  0  0  0  0
 11 12  2  0  0  0  0
 11 13  1  0  0  0  0
 13 14  1  0  0  0  0
 14 16  2  0  0  0  0
 15 14  1  1  0  0  0
 15 18  1  0  0  0  0
 15 26  1  0  0  0  0
 17 19  1  1  0  0  0
 17 25  1  0  0  0  0
 17 18  1  0  0  0  0
 19 20  1  0  0  0  0
 20 21  1  6  0  0  0
 20 22  1  0  0  0  0
 22 23  1  6  0  0  0
 22 24  1  0  0  0  0
 23 28  1  0  0  0  0
 23 29  1  0  0  0  0
 25 24  1  6  0  0  0
 25 27  1  0  0  0  0
 26 10  1  6  0  0  0
 26 27  1  0  0  0  0
M  END
>  <CHROM.1>
170.37491580,66.46126228,-50.34988899,78.37218689,94.63663467,-101.85433923
28.16472072,36.89348922,20.48831097,-1.40615284,1.18770209,0.89329437

>  <Name>
ligand

>  <RI>
0

>  <Rbt.Current_Directory>
/home/itssahil/PROJECTS/Mol_Feturizer/New_Systems/rnas/3F4H

>  <Rbt.Executable>
rbdock ($Id: //depot/dev/client3/rdock/2013.1/src/exe/rbdock.cxx#4 $)

>  <Rbt.Library>
libRbt.so (2013.1, Build901 2013/11/27)

>  <Rbt.Parameter_File>
/export/apps/rDock/src/rDock_2013.1_src/data/scripts/dock_solv.prm

>  <Rbt.Receptor>
prm/pocket_docking_4.prm

>  <SCORE>
-42.3234

>  <SCORE.INTER>
-24.7697

>  <SCORE.INTER.CONST>
1

>  <SCORE.INTER.POLAR>
0

>  <SCORE.INTER.ROT>
6

>  <SCORE.INTER.SOLV>
7.67971

>  <SCORE.INTER.VDW>
-26.6731

>  <SCORE.INTER.norm>
-0.854129

>  <SCORE.INTRA>
-17.5537

>  <SCORE.INTRA.DIHEDRAL>
-2.83287

>  <SCORE.INTRA.DIHEDRAL.0>
6.83446

>  <SCORE.INTRA.POLAR>
0

>  <SCORE.INTRA.POLAR.0>
0

>  <SCORE.INTRA.REPUL>
0

>  <SCORE.INTRA.REPUL.0>
0

>  <SCORE.INTRA.SOLV>
0.6689

>  <SCORE.INTRA.SOLV.lig_0>
-26.4601

>  <SCORE.INTRA.VDW>
-16.4717

>  <SCORE.INTRA.VDW.0>
13.7853

>  <SCORE.INTRA.norm>
-0.6053

>  <SCORE.RESTR>
0

>  <SCORE.RESTR.CAVITY>
0

>  <SCORE.RESTR.norm>
0

>  <SCORE.SYSTEM>
0

>  <SCORE.SYSTEM.CONST>
0

>  <SCORE.SYSTEM.DIHEDRAL>
0

>  <SCORE.SYSTEM.SOLV>
0

>  <SCORE.SYSTEM.norm>
0

>  <SCORE.heavy>
29

>  <SCORE.norm>
-1.45943

>  <RMSD>
5.797

$$$$
ligand
 OpenBabel11021811473D
libRbt.so/2013.1/901 2013/11/27
 29 31  0  0  0  0  0  0  0  0999 V2000
   26.5724   43.1253   17.6325 C   0  0  0  0  0  0  0  0  0  0  0  0
   26.9374   44.4899   17.4008 O   0  0  0  0  0  0  0  0  0  0  0  0
   27.5723   42.2120   16.9366 C   0  0  1  0  0  0  0  0  0  0  0  0
   28.8283   42.3277   17.5979 O   0  0  0  0  0  0  0  0  0  0  0  0
   27.0895   40.7676   16.9673 C   0  0  1  0  0  0  0  0  0  0  0  0
   27.9809   40.0091   16.1581 O   0  0  0  0  0  0  0  0  0  0  0  0
   26.9921   40.1471   18.3641 C   0  0  1  0  0  0  0  0  0  0  0  0
   26.1458   38.9991   18.2908 O   0  0  0  0  0  0  0  0  0  0  0  0
   28.3410   39.7077   18.9300 C   0  0  0  0  0  0  0  0  0  0  0  0
   28.5181   41.2964   21.2572 N   0  0  0  0  0  0  0  0  0  0  0  0
   28.6048   42.0937   22.3594 C   0  0  0  0  0  0  0  0  0  0  0  0
   28.8394   43.3221   22.2388 O   0  0  0  0  0  0  0  0  0  0  0  0
   28.4438   41.5684   23.6004 N   0  0  0  0  0  0  0  0  0  0  0  0
   28.1941   40.2456   23.7696 C   0  0  0  0  0  0  0  0  0  0  0  0
   28.1017   39.4205   22.6545 C   0  0  1  0  0  0  0  0  0  0  0  0
   28.0480   39.7636   24.9202 O   0  0  0  0  0  0  0  0  0  0  0  0
   27.7568   37.3037   21.7294 C   0  0  1  0  0  0  0  0  0  0  0  0
   27.8482   38.1031   22.8120 N   0  0  0  0  0  0  0  0  0  0  0  0
   27.4962   35.9486   21.9008 C   0  0  0  0  0  0  0  0  0  0  0  0
   27.3937   35.0994   20.8045 C   0  0  2  0  0  0  0  0  0  0  0  0
   27.1108   33.6418   21.0625 C   0  0  0  0  0  0  0  0  0  0  0  0
   27.5540   35.6128   19.5111 C   0  0  2  0  0  0  0  0  0  0  0  0
   27.4671   34.8395   18.3870 N   0  0  0  0  0  0  0  0  0  0  0  0
   27.8174   36.9790   19.3544 C   0  0  0  0  0  0  0  0  0  0  0  0
   27.9223   37.8341   20.4510 C   0  0  2  0  0  0  0  0  0  0  0  0
   28.2658   39.9606   21.3752 C   0  0  2  0  0  0  0  0  0  0  0  0
   28.1804   39.1519   20.2877 N   0  0  0  0  0  0  0  0  0  0  0  0
   26.1683   34.5624   17.8034 C   0  0  0  0  0  0  0  0  0  0  0  0
   28.6355   34.2735   17.7331 C   0  0  0  0  0  0  0  0  0  0  0  0
  1  2  1  0  0  0  0
  3  1  1  1  0  0  0
  3  4  1  0  0  0  0
  3  5  1  0  0  0  0
  5  6  1  6  0  0  0
  5  7  1  0  0  0  0
  7  8  1  6  0  0  0
  7  9  1  0  0  0  0
  9 27  1  0  0  0  0
 10 11  1  0  0  0  0
 11 12  2  0  0  0  0
 11 13  1  0  0  0  0
 13 14  1  0  0  0  0
 14 16  2  0  0  0  0
 15 14  1  6  0  0  0
 15 18  1  0  0  0  0
 15 26  1  0  0  0  0
 17 19  1  6  0  0  0
 17 25  1  0  0  0  0
 17 18  1  0  0  0  0
 19 20  1  0  0  0  0
 20 21  1  1  0  0  0
 20 22  1  0  0  0  0
 22 23  1  1  0  0  0
 22 24  1  0  0  0  0
 23 28  1  0  0  0  0
 23 29  1  0  0  0  0
 25 24  1  1  0  0  0
 25 27  1  0  0  0  0
 26 10  1  1  0  0  0
 26 27  1  0  0  0  0
M  END
>  <CHROM.1>
68.20246863,172.74599814,161.49897789,178.56061624,84.40854809,88.61617519
27.74650224,39.13329911,20.00409344,1.17473069,-1.41782222,-0.42618525

>  <Name>
ligand

>  <RI>
0

>  <Rbt.Current_Directory>
/home/itssahil/PROJECTS/Mol_Feturizer/New_Systems/rnas/3F4H

>  <Rbt.Executable>
rbdock ($Id: //depot/dev/client3/rdock/2013.1/src/exe/rbdock.cxx#4 $)

>  <Rbt.Library>
libRbt.so (2013.1, Build901 2013/11/27)

>  <Rbt.Parameter_File>
/export/apps/rDock/src/rDock_2013.1_src/data/scripts/dock_solv.prm

>  <Rbt.Receptor>
prm/blind_docking_100.prm

>  <SCORE>
-37.824

>  <SCORE.INTER>
-20.3909

>  <SCORE.INTER.CONST>
1

>  <SCORE.INTER.POLAR>
0

>  <SCORE.INTER.ROT>
6

>  <SCORE.INTER.SOLV>
10.4068

>  <SCORE.INTER.VDW>
-24.6629

>  <SCORE.INTER.norm>
-0.703136

>  <SCORE.INTRA>
-17.4331

>  <SCORE.INTRA.DIHEDRAL>
-3.23339

>  <SCORE.INTRA.DIHEDRAL.0>
6.83446

>  <SCORE.INTRA.POLAR>
0

>  <SCORE.INTRA.POLAR.0>
0

>  <SCORE.INTRA.REPUL>
0

>  <SCORE.INTRA.REPUL.0>
0

>  <SCORE.INTRA.SOLV>
-0.255087

>  <SCORE.INTRA.SOLV.lig_0>
-26.4601

>  <SCORE.INTRA.VDW>
-15.6889

>  <SCORE.INTRA.VDW.0>
13.7853

>  <SCORE.INTRA.norm>
-0.601141

>  <SCORE.RESTR>
0

>  <SCORE.RESTR.CAVITY>
0

>  <SCORE.RESTR.norm>
0

>  <SCORE.SYSTEM>
0

>  <SCORE.SYSTEM.CONST>
0

>  <SCORE.SYSTEM.DIHEDRAL>
0

>  <SCORE.SYSTEM.SOLV>
0

>  <SCORE.SYSTEM.norm>
0

>  <SCORE.heavy>
29

>  <SCORE.norm>
-1.30428

>  <RMSD>
5.808

$$$$
ligand
 OpenBabel11021811473D
libRbt.so/2013.1/901 2013/11/27
 29 31  0  0  0  0  0  0  0  0999 V2000
   24.7350   41.1392   17.8599 C   0  0  0  0  0  0  0  0  0  0  0  0
   25.4956   41.5347   16.7136 O   0  0  0  0  0  0  0  0  0  0  0  0
   25.4313   41.6333   19.1205 C   0  0  1  0  0  0  0  0  0  0  0  0
   24.6176   41.3104   20.2439 O   0  0  0  0  0  0  0  0  0  0  0  0
   26.8051   40.9903   19.2603 C   0  0  1  0  0  0  0  0  0  0  0  0
   27.4606   41.6315   20.3484 O   0  0  0  0  0  0  0  0  0  0  0  0
   26.7913   39.4742   19.4762 C   0  0  1  0  0  0  0  0  0  0  0  0
   26.4090   38.8466   18.2516 O   0  0  0  0  0  0  0  0  0  0  0  0
   28.1453   38.9073   19.8981 C   0  0  0  0  0  0  0  0  0  0  0  0
   28.1252   39.6778   22.6142 N   0  0  0  0  0  0  0  0  0  0  0  0
   28.1150   40.0854   23.9149 C   0  0  0  0  0  0  0  0  0  0  0  0
   28.2585   41.3001   24.2018 O   0  0  0  0  0  0  0  0  0  0  0  0
   27.9550   39.1825   24.9154 N   0  0  0  0  0  0  0  0  0  0  0  0
   27.8021   37.8619   24.6439 C   0  0  0  0  0  0  0  0  0  0  0  0
   27.8091   37.4319   23.3218 C   0  0  1  0  0  0  0  0  0  0  0  0
   27.6564   37.0298   25.5733 O   0  0  0  0  0  0  0  0  0  0  0  0
   27.6575   35.7039   21.7576 C   0  0  1  0  0  0  0  0  0  0  0  0
   27.6525   36.1200   23.0407 N   0  0  0  0  0  0  0  0  0  0  0  0
   27.4962   34.3516   21.4773 C   0  0  0  0  0  0  0  0  0  0  0  0
   27.4944   33.8921   20.1649 C   0  0  2  0  0  0  0  0  0  0  0  0
   27.3159   32.4136   19.9331 C   0  0  0  0  0  0  0  0  0  0  0  0
   27.6564   34.8003   19.1110 C   0  0  2  0  0  0  0  0  0  0  0  0
   27.6652   34.4224   17.7971 N   0  0  0  0  0  0  0  0  0  0  0  0
   27.8191   36.1588   19.4089 C   0  0  0  0  0  0  0  0  0  0  0  0
   27.8228   36.6239   20.7235 C   0  0  2  0  0  0  0  0  0  0  0  0
   27.9724   38.3613   22.2899 C   0  0  2  0  0  0  0  0  0  0  0  0
   27.9842   37.9383   20.9996 N   0  0  0  0  0  0  0  0  0  0  0  0
   28.9288   34.2742   17.1000 C   0  0  0  0  0  0  0  0  0  0  0  0
   26.4471   34.1528   17.0512 C   0  0  0  0  0  0  0  0  0  0  0  0
  1  2  1  0  0  0  0
  3  1  1  6  0  0  0
  3  4  1  0  0  0  0
  3  5  1  0  0  0  0
  5  6  1  1  0  0  0
  5  7  1  0  0  0  0
  7  8  1  6  0  0  0
  7  9  1  0  0  0  0
  9 27  1  0  0  0  0
 10 11  1  0  0  0  0
 11 12  2  0  0  0  0
 11 13  1  0  0  0  0
 13 14  1  0  0  0  0
 14 16  2  0  0  0  0
 15 14  1  6  0  0  0
 15 18  1  0  0  0  0
 15 26  1  0  0  0  0
 17 19  1  6  0  0  0
 17 25  1  0  0  0  0
 17 18  1  0  0  0  0
 19 20  1  0  0  0  0
 20 21  1  1  0  0  0
 20 22  1  0  0  0  0
 22 23  1  1  0  0  0
 22 24  1  0  0  0  0
 23 28  1  0  0  0  0
 23 29  1  0  0  0  0
 25 24  1  1  0  0  0
 25 27  1  0  0  0  0
 26 10  1  1  0  0  0
 26 27  1  0  0  0  0
M  END
>  <CHROM.1>
176.14774670,172.23318988,71.80712380,135.82889267,-99.97182029,91.58313870
27.26011258,37.92126051,20.67823198,1.96342539,-1.26588011,0.69730041

>  <Name>
ligand

>  <RI>
0

>  <Rbt.Current_Directory>
/home/itssahil/PROJECTS/Mol_Feturizer/New_Systems/rnas/3F4H

>  <Rbt.Executable>
rbdock ($Id: //depot/dev/client3/rdock/2013.1/src/exe/rbdock.cxx#4 $)

>  <Rbt.Library>
libRbt.so (2013.1, Build901 2013/11/27)

>  <Rbt.Parameter_File>
/export/apps/rDock/src/rDock_2013.1_src/data/scripts/dock_solv.prm

>  <Rbt.Receptor>
prm/pocket_docking_6.prm

>  <SCORE>
-40.5432

>  <SCORE.INTER>
-25.1246

>  <SCORE.INTER.CONST>
1

>  <SCORE.INTER.POLAR>
0

>  <SCORE.INTER.ROT>
6

>  <SCORE.INTER.SOLV>
9.58109

>  <SCORE.INTER.VDW>
-27.5434

>  <SCORE.INTER.norm>
-0.866364

>  <SCORE.INTRA>
-15.4186

>  <SCORE.INTRA.DIHEDRAL>
0.340562

>  <SCORE.INTRA.DIHEDRAL.0>
6.83446

>  <SCORE.INTRA.POLAR>
0

>  <SCORE.INTRA.POLAR.0>
0

>  <SCORE.INTRA.REPUL>
0

>  <SCORE.INTRA.REPUL.0>
0

>  <SCORE.INTRA.SOLV>
0.146973

>  <SCORE.INTRA.SOLV.lig_0>
-26.4601

>  <SCORE.INTRA.VDW>
-15.6624

>  <SCORE.INTRA.VDW.0>
13.7853

>  <SCORE.INTRA.norm>
-0.531677

>  <SCORE.RESTR>
0

>  <SCORE.RESTR.CAVITY>
0

>  <SCORE.RESTR.norm>
0

>  <SCORE.SYSTEM>
0

>  <SCORE.SYSTEM.CONST>
0

>  <SCORE.SYSTEM.DIHEDRAL>
0

>  <SCORE.SYSTEM.SOLV>
0

>  <SCORE.SYSTEM.norm>
0

>  <SCORE.heavy>
29

>  <SCORE.norm>
-1.39804

>  <RMSD>
5.810

$$$$
ligand
 OpenBabel11021811473D
libRbt.so/2013.1/901 2013/11/27
 29 31  0  0  0  0  0  0  0  0999 V2000
   24.6474   41.0316   18.0159 C   0  0  0  0  0  0  0  0  0  0  0  0
   25.3913   41.3785   16.8432 O   0  0  0  0  0  0  0  0  0  0  0  0
   25.3727   41.5593   19.2462 C   0  0  1  0  0  0  0  0  0  0  0  0
   24.6084   41.2259   20.4007 O   0  0  0  0  0  0  0  0  0  0  0  0
   26.7686   40.9574   19.3440 C   0  0  1  0  0  0  0  0  0  0  0  0
   27.4177   41.5781   20.4476 O   0  0  0  0  0  0  0  0  0  0  0  0
   26.8072   39.4345   19.5016 C   0  0  1  0  0  0  0  0  0  0  0  0
   26.4849   38.8414   18.2430 O   0  0  0  0  0  0  0  0  0  0  0  0
   28.1695   38.9028   19.9424 C   0  0  0  0  0  0  0  0  0  0  0  0
   28.1677   39.6472   22.6659 N   0  0  0  0  0  0  0  0  0  0  0  0
   28.1663   40.0423   23.9705 C   0  0  0  0  0  0  0  0  0  0  0  0
   28.3103   41.2544   24.2680 O   0  0  0  0  0  0  0  0  0  0  0  0
   28.0146   39.1296   24.9634 N   0  0  0  0  0  0  0  0  0  0  0  0
   27.8615   37.8116   24.6803 C   0  0  0  0  0  0  0  0  0  0  0  0
   27.8597   37.3942   23.3542 C   0  0  1  0  0  0  0  0  0  0  0  0
   27.7237   36.9704   25.6027 O   0  0  0  0  0  0  0  0  0  0  0  0
   27.6992   35.6811   21.7746 C   0  0  1  0  0  0  0  0  0  0  0  0
   27.7028   36.0849   23.0616 N   0  0  0  0  0  0  0  0  0  0  0  0
   27.5377   34.3312   21.4826 C   0  0  0  0  0  0  0  0  0  0  0  0
   27.5271   33.8843   20.1658 C   0  0  2  0  0  0  0  0  0  0  0  0
   27.3489   32.4079   19.9211 C   0  0  0  0  0  0  0  0  0  0  0  0
   27.6803   34.8029   19.1195 C   0  0  2  0  0  0  0  0  0  0  0  0
   27.6803   34.4376   17.8021 N   0  0  0  0  0  0  0  0  0  0  0  0
   27.8434   36.1586   19.4292 C   0  0  0  0  0  0  0  0  0  0  0  0
   27.8559   36.6111   20.7482 C   0  0  2  0  0  0  0  0  0  0  0  0
   28.0143   38.3337   22.3300 C   0  0  2  0  0  0  0  0  0  0  0  0
   28.0175   37.9231   21.0357 N   0  0  0  0  0  0  0  0  0  0  0  0
   28.9401   34.2499   17.1079 C   0  0  0  0  0  0  0  0  0  0  0  0
   26.4560   34.2201   17.0494 C   0  0  0  0  0  0  0  0  0  0  0  0
  1  2  1  0  0  0  0
  3  1  1  6  0  0  0
  3  4  1  0  0  0  0
  3  5  1  0  0  0  0
  5  6  1  1  0  0  0
  5  7  1  0  0  0  0
  7  8  1  6  0  0  0
  7  9  1  0  0  0  0
  9 27  1  0  0  0  0
 10 11  1  0  0  0  0
 11 12  2  0  0  0  0
 11 13  1  0  0  0  0
 13 14  1  0  0  0  0
 14 16  2  0  0  0  0
 15 14  1  6  0  0  0
 15 18  1  0  0  0  0
 15 26  1  0  0  0  0
 17 19  1  6  0  0  0
 17 25  1  0  0  0  0
 17 18  1  0  0  0  0
 19 20  1  0  0  0  0
 20 21  1  1  0  0  0
 20 22  1  0  0  0  0
 22 23  1  1  0  0  0
 22 24  1  0  0  0  0
 23 28  1  0  0  0  0
 23 29  1  0  0  0  0
 25 24  1  1  0  0  0
 25 27  1  0  0  0  0
 26 10  1  1  0  0  0
 26 27  1  0  0  0  0
M  END
>  <CHROM.1>
179.01997195,175.30947065,74.26930347,133.71819594,-97.70730488,89.54964161
27.27798548,37.88687237,20.72468347,1.91268667,-1.24785665,0.70544607

>  <Name>
ligand

>  <RI>
0

>  <Rbt.Current_Directory>
/home/itssahil/PROJECTS/Mol_Feturizer/New_Systems/rnas/3F4H

>  <Rbt.Executable>
rbdock ($Id: //depot/dev/client3/rdock/2013.1/src/exe/rbdock.cxx#4 $)

>  <Rbt.Library>
libRbt.so (2013.1, Build901 2013/11/27)

>  <Rbt.Parameter_File>
/export/apps/rDock/src/rDock_2013.1_src/data/scripts/dock_solv.prm

>  <Rbt.Receptor>
prm/blind_docking_100.prm

>  <SCORE>
-40.632

>  <SCORE.INTER>
-25.4072

>  <SCORE.INTER.CONST>
1

>  <SCORE.INTER.POLAR>
0

>  <SCORE.INTER.ROT>
6

>  <SCORE.INTER.SOLV>
9.9545

>  <SCORE.INTER.VDW>
-27.8563

>  <SCORE.INTER.norm>
-0.876111

>  <SCORE.INTRA>
-15.2248

>  <SCORE.INTRA.DIHEDRAL>
0.573544

>  <SCORE.INTRA.DIHEDRAL.0>
6.83446

>  <SCORE.INTRA.POLAR>
0

>  <SCORE.INTRA.POLAR.0>
0

>  <SCORE.INTRA.REPUL>
0

>  <SCORE.INTRA.REPUL.0>
0

>  <SCORE.INTRA.SOLV>
0.197141

>  <SCORE.INTRA.SOLV.lig_0>
-26.4601

>  <SCORE.INTRA.VDW>
-15.6101

>  <SCORE.INTRA.VDW.0>
13.7853

>  <SCORE.INTRA.norm>
-0.524993

>  <SCORE.RESTR>
0

>  <SCORE.RESTR.CAVITY>
0

>  <SCORE.RESTR.norm>
0

>  <SCORE.SYSTEM>
0

>  <SCORE.SYSTEM.CONST>
0

>  <SCORE.SYSTEM.DIHEDRAL>
0

>  <SCORE.SYSTEM.SOLV>
0

>  <SCORE.SYSTEM.norm>
0

>  <SCORE.heavy>
29

>  <SCORE.norm>
-1.4011

>  <RMSD>
5.824

$$$$
ligand
 OpenBabel11021811473D
libRbt.so/2013.1/901 2013/11/27
 29 31  0  0  0  0  0  0  0  0999 V2000
   26.3689   41.5921   21.3896 C   0  0  0  0  0  0  0  0  0  0  0  0
   26.6973   42.4048   22.5213 O   0  0  0  0  0  0  0  0  0  0  0  0
   27.3836   41.8390   20.2816 C   0  0  1  0  0  0  0  0  0  0  0  0
   28.6875   41.5893   20.7974 O   0  0  0  0  0  0  0  0  0  0  0  0
   27.1045   40.9340   19.0886 C   0  0  1  0  0  0  0  0  0  0  0  0
   28.1285   41.1739   18.1303 O   0  0  0  0  0  0  0  0  0  0  0  0
   27.0299   39.4392   19.4135 C   0  0  1  0  0  0  0  0  0  0  0  0
   26.6147   38.7413   18.2387 O   0  0  0  0  0  0  0  0  0  0  0  0
   28.3621   38.8488   19.8710 C   0  0  0  0  0  0  0  0  0  0  0  0
   28.2564   39.4809   22.6207 N   0  0  0  0  0  0  0  0  0  0  0  0
   28.2058   39.8221   23.9394 C   0  0  0  0  0  0  0  0  0  0  0  0
   28.3561   41.0183   24.2930 O   0  0  0  0  0  0  0  0  0  0  0  0
   27.9978   38.8723   24.8863 N   0  0  0  0  0  0  0  0  0  0  0  0
   27.8361   37.5698   24.5423 C   0  0  0  0  0  0  0  0  0  0  0  0
   27.8840   37.2072   23.2010 C   0  0  1  0  0  0  0  0  0  0  0  0
   27.6459   36.6940   25.4222 O   0  0  0  0  0  0  0  0  0  0  0  0
   27.7638   35.5634   21.5461 C   0  0  1  0  0  0  0  0  0  0  0  0
   27.7191   35.9140   22.8478 N   0  0  0  0  0  0  0  0  0  0  0  0
   27.5935   34.2297   21.1915 C   0  0  0  0  0  0  0  0  0  0  0  0
   27.6318   33.8374   19.8580 C   0  0  2  0  0  0  0  0  0  0  0  0
   27.4410   32.3756   19.5447 C   0  0  0  0  0  0  0  0  0  0  0  0
   27.8438   34.7952   18.8582 C   0  0  2  0  0  0  0  0  0  0  0  0
   27.8939   34.4843   17.5278 N   0  0  0  0  0  0  0  0  0  0  0  0
   28.0149   36.1341   19.2307 C   0  0  0  0  0  0  0  0  0  0  0  0
   27.9785   36.5318   20.5668 C   0  0  2  0  0  0  0  0  0  0  0  0
   28.0968   38.1850   22.2243 C   0  0  2  0  0  0  0  0  0  0  0  0
   28.1484   37.8279   20.9152 N   0  0  0  0  0  0  0  0  0  0  0  0
   29.1793   34.3220   16.8752 C   0  0  0  0  0  0  0  0  0  0  0  0
   26.6992   34.3009   16.7205 C   0  0  0  0  0  0  0  0  0  0  0  0
  1  2  1  0  0  0  0
  3  1  1  1  0  0  0
  3  4  1  0  0  0  0
  3  5  1  0  0  0  0
  5  6  1  6  0  0  0
  5  7  1  0  0  0  0
  7  8  1  6  0  0  0
  7  9  1  0  0  0  0
  9 27  1  0  0  0  0
 10 11  1  0  0  0  0
 11 12  2  0  0  0  0
 11 13  1  0  0  0  0
 13 14  1  0  0  0  0
 14 16  2  0  0  0  0
 15 14  1  6  0  0  0
 15 18  1  0  0  0  0
 15 26  1  0  0  0  0
 17 19  1  6  0  0  0
 17 25  1  0  0  0  0
 17 18  1  0  0  0  0
 19 20  1  0  0  0  0
 20 21  1  1  0  0  0
 20 22  1  0  0  0  0
 22 23  1  1  0  0  0
 22 24  1  0  0  0  0
 23 28  1  0  0  0  0
 23 29  1  0  0  0  0
 25 24  1  1  0  0  0
 25 27  1  0  0  0  0
 26 10  1  1  0  0  0
 26 27  1  0  0  0  0
M  END
>  <CHROM.1>
55.88350760,-177.08872159,173.46445310,143.70373456,-98.58794904,90.53394903
27.73926076,37.87471840,20.88978764,1.73745012,-1.51046989,0.70726320

>  <Name>
ligand

>  <RI>
0

>  <Rbt.Current_Directory>
/home/itssahil/PROJECTS/Mol_Feturizer/New_Systems/rnas/3F4H

>  <Rbt.Executable>
rbdock ($Id: //depot/dev/client3/rdock/2013.1/src/exe/rbdock.cxx#4 $)

>  <Rbt.Library>
libRbt.so (2013.1, Build901 2013/11/27)

>  <Rbt.Parameter_File>
/export/apps/rDock/src/rDock_2013.1_src/data/scripts/dock_solv.prm

>  <Rbt.Receptor>
prm/pocket_docking_7.prm

>  <SCORE>
-40.4192

>  <SCORE.INTER>
-23.7814

>  <SCORE.INTER.CONST>
1

>  <SCORE.INTER.POLAR>
0

>  <SCORE.INTER.ROT>
6

>  <SCORE.INTER.SOLV>
9.11888

>  <SCORE.INTER.VDW>
-26.4939

>  <SCORE.INTER.norm>
-0.820048

>  <SCORE.INTRA>
-16.6378

>  <SCORE.INTRA.DIHEDRAL>
-1.09466

>  <SCORE.INTRA.DIHEDRAL.0>
6.83446

>  <SCORE.INTRA.POLAR>
0

>  <SCORE.INTRA.POLAR.0>
0

>  <SCORE.INTRA.REPUL>
0

>  <SCORE.INTRA.REPUL.0>
0

>  <SCORE.INTRA.SOLV>
0.793834

>  <SCORE.INTRA.SOLV.lig_0>
-26.4601

>  <SCORE.INTRA.VDW>
-16.4874

>  <SCORE.INTRA.VDW.0>
13.7853

>  <SCORE.INTRA.norm>
-0.573717

>  <SCORE.RESTR>
0

>  <SCORE.RESTR.CAVITY>
0

>  <SCORE.RESTR.norm>
0

>  <SCORE.SYSTEM>
0

>  <SCORE.SYSTEM.CONST>
0

>  <SCORE.SYSTEM.DIHEDRAL>
0

>  <SCORE.SYSTEM.SOLV>
0

>  <SCORE.SYSTEM.norm>
0

>  <SCORE.heavy>
29

>  <SCORE.norm>
-1.39377

>  <RMSD>
5.836

$$$$
ligand
 OpenBabel11021811473D
libRbt.so/2013.1/901 2013/11/27
 29 31  0  0  0  0  0  0  0  0999 V2000
   26.3730   43.3111   17.7608 C   0  0  0  0  0  0  0  0  0  0  0  0
   25.6111   42.4286   16.9304 O   0  0  0  0  0  0  0  0  0  0  0  0
   26.6052   42.6531   19.1141 C   0  0  1  0  0  0  0  0  0  0  0  0
   25.3402   42.3443   19.6909 O   0  0  0  0  0  0  0  0  0  0  0  0
   27.4384   41.3875   18.9581 C   0  0  1  0  0  0  0  0  0  0  0  0
   28.7085   41.7803   18.4507 O   0  0  0  0  0  0  0  0  0  0  0  0
   27.6162   40.5675   20.2393 C   0  0  1  0  0  0  0  0  0  0  0  0
   26.3384   40.0702   20.6387 O   0  0  0  0  0  0  0  0  0  0  0  0
   28.5588   39.3771   20.0739 C   0  0  0  0  0  0  0  0  0  0  0  0
   28.6291   39.9829   22.8306 N   0  0  0  0  0  0  0  0  0  0  0  0
   28.6661   40.3113   24.1530 C   0  0  0  0  0  0  0  0  0  0  0  0
   28.9308   41.4867   24.5091 O   0  0  0  0  0  0  0  0  0  0  0  0
   28.4225   39.3707   25.1005 N   0  0  0  0  0  0  0  0  0  0  0  0
   28.1381   38.0902   24.7536 C   0  0  0  0  0  0  0  0  0  0  0  0
   28.0956   37.7410   23.4086 C   0  0  1  0  0  0  0  0  0  0  0  0
   27.9155   37.2227   25.6341 O   0  0  0  0  0  0  0  0  0  0  0  0
   27.7655   36.1325   21.7475 C   0  0  1  0  0  0  0  0  0  0  0  0
   27.8083   36.4700   23.0527 N   0  0  0  0  0  0  0  0  0  0  0  0
   27.4694   34.8217   21.3901 C   0  0  0  0  0  0  0  0  0  0  0  0
   27.4153   34.4436   20.0530 C   0  0  2  0  0  0  0  0  0  0  0  0
   27.0900   33.0064   19.7368 C   0  0  0  0  0  0  0  0  0  0  0  0
   27.6611   35.3925   19.0525 C   0  0  2  0  0  0  0  0  0  0  0  0
   27.6256   35.0944   17.7187 N   0  0  0  0  0  0  0  0  0  0  0  0
   27.9592   36.7082   19.4278 C   0  0  0  0  0  0  0  0  0  0  0  0
   28.0157   37.0916   20.7674 C   0  0  2  0  0  0  0  0  0  0  0  0
   28.3449   38.7095   22.4312 C   0  0  2  0  0  0  0  0  0  0  0  0
   28.3081   38.3649   21.1183 N   0  0  0  0  0  0  0  0  0  0  0  0
   28.7965   34.5267   17.0774 C   0  0  0  0  0  0  0  0  0  0  0  0
   26.4481   35.3193   16.8967 C   0  0  0  0  0  0  0  0  0  0  0  0
  1  2  1  0  0  0  0
  3  1  1  6  0  0  0
  3  4  1  0  0  0  0
  3  5  1  0  0  0  0
  5  6  1  1  0  0  0
  5  7  1  0  0  0  0
  7  8  1  6  0  0  0
  7  9  1  0  0  0  0
  9 27  1  0  0  0  0
 10 11  1  0  0  0  0
 11 12  2  0  0  0  0
 11 13  1  0  0  0  0
 13 14  1  0  0  0  0
 14 16  2  0  0  0  0
 15 14  1  6  0  0  0
 15 18  1  0  0  0  0
 15 26  1  0  0  0  0
 17 19  1  6  0  0  0
 17 25  1  0  0  0  0
 17 18  1  0  0  0  0
 19 20  1  0  0  0  0
 20 21  1  1  0  0  0
 20 22  1  0  0  0  0
 22 23  1  1  0  0  0
 22 24  1  0  0  0  0
 23 28  1  0  0  0  0
 23 29  1  0  0  0  0
 25 24  1  1  0  0  0
 25 27  1  0  0  0  0
 26 10  1  1  0  0  0
 26 27  1  0  0  0  0
M  END
>  <CHROM.1>
-57.81658284,63.15546140,65.05557558,-158.57700552,-83.87614805,123.89658628
27.62973684,38.51406767,20.72977178,1.97491620,-1.35358090,0.38910801

>  <Name>
ligand

>  <RI>
0

>  <Rbt.Current_Directory>
/home/itssahil/PROJECTS/Mol_Feturizer/New_Systems/rnas/3F4H

>  <Rbt.Executable>
rbdock ($Id: //depot/dev/client3/rdock/2013.1/src/exe/rbdock.cxx#4 $)

>  <Rbt.Library>
libRbt.so (2013.1, Build901 2013/11/27)

>  <Rbt.Parameter_File>
/export/apps/rDock/src/rDock_2013.1_src/data/scripts/dock_solv.prm

>  <Rbt.Receptor>
prm/blind_docking_60.prm

>  <SCORE>
-37.7301

>  <SCORE.INTER>
-21.254

>  <SCORE.INTER.CONST>
1

>  <SCORE.INTER.POLAR>
0

>  <SCORE.INTER.ROT>
6

>  <SCORE.INTER.SOLV>
8.66733

>  <SCORE.INTER.VDW>
-24.6584

>  <SCORE.INTER.norm>
-0.732897

>  <SCORE.INTRA>
-16.4761

>  <SCORE.INTRA.DIHEDRAL>
-3.16372

>  <SCORE.INTRA.DIHEDRAL.0>
6.83446

>  <SCORE.INTRA.POLAR>
0

>  <SCORE.INTRA.POLAR.0>
0

>  <SCORE.INTRA.REPUL>
0

>  <SCORE.INTRA.REPUL.0>
0

>  <SCORE.INTRA.SOLV>
0.0948954

>  <SCORE.INTRA.SOLV.lig_0>
-26.4601

>  <SCORE.INTRA.VDW>
-14.9416

>  <SCORE.INTRA.VDW.0>
13.7853

>  <SCORE.INTRA.norm>
-0.56814

>  <SCORE.RESTR>
0

>  <SCORE.RESTR.CAVITY>
0

>  <SCORE.RESTR.norm>
0

>  <SCORE.SYSTEM>
0

>  <SCORE.SYSTEM.CONST>
0

>  <SCORE.SYSTEM.DIHEDRAL>
0

>  <SCORE.SYSTEM.SOLV>
0

>  <SCORE.SYSTEM.norm>
0

>  <SCORE.heavy>
29

>  <SCORE.norm>
-1.30104

>  <RMSD>
5.840

$$$$
ligand
 OpenBabel11021811473D
libRbt.so/2013.1/901 2013/11/27
 29 31  0  0  0  0  0  0  0  0999 V2000
   24.9532   41.7530   18.4673 C   0  0  0  0  0  0  0  0  0  0  0  0
   23.8557   42.6690   18.5397 O   0  0  0  0  0  0  0  0  0  0  0  0
   25.9784   42.1108   19.5345 C   0  0  1  0  0  0  0  0  0  0  0  0
   25.3655   41.9807   20.8135 O   0  0  0  0  0  0  0  0  0  0  0  0
   27.1947   41.1991   19.4356 C   0  0  1  0  0  0  0  0  0  0  0  0
   28.1600   41.6841   20.3616 O   0  0  0  0  0  0  0  0  0  0  0  0
   26.9151   39.7162   19.6977 C   0  0  1  0  0  0  0  0  0  0  0  0
   26.2137   39.1829   18.5738 O   0  0  0  0  0  0  0  0  0  0  0  0
   28.1801   38.8861   19.9059 C   0  0  0  0  0  0  0  0  0  0  0  0
   28.0396   39.5931   22.6357 N   0  0  0  0  0  0  0  0  0  0  0  0
   27.9715   39.9702   23.9438 C   0  0  0  0  0  0  0  0  0  0  0  0
   28.0938   41.1788   24.2644 O   0  0  0  0  0  0  0  0  0  0  0  0
   27.7761   39.0433   24.9157 N   0  0  0  0  0  0  0  0  0  0  0  0
   27.6445   37.7285   24.6076 C   0  0  0  0  0  0  0  0  0  0  0  0
   27.7106   37.3293   23.2775 C   0  0  1  0  0  0  0  0  0  0  0  0
   27.4659   36.8740   25.5106 O   0  0  0  0  0  0  0  0  0  0  0  0
   27.6379   35.6373   21.6690 C   0  0  1  0  0  0  0  0  0  0  0  0
   27.5756   36.0234   22.9599 N   0  0  0  0  0  0  0  0  0  0  0  0
   27.4986   34.2908   21.3511 C   0  0  0  0  0  0  0  0  0  0  0  0
   27.5556   33.8620   20.0296 C   0  0  2  0  0  0  0  0  0  0  0  0
   27.3981   32.3882   19.7565 C   0  0  0  0  0  0  0  0  0  0  0  0
   27.7553   34.7955   19.0047 C   0  0  2  0  0  0  0  0  0  0  0  0
   27.8224   34.4484   17.6840 N   0  0  0  0  0  0  0  0  0  0  0  0
   27.8952   36.1477   19.3403 C   0  0  0  0  0  0  0  0  0  0  0  0
   27.8399   36.5821   20.6643 C   0  0  2  0  0  0  0  0  0  0  0  0
   27.9104   38.2835   22.2750 C   0  0  2  0  0  0  0  0  0  0  0  0
   27.9798   37.8907   20.9770 N   0  0  0  0  0  0  0  0  0  0  0  0
   29.1113   34.3872   17.0212 C   0  0  0  0  0  0  0  0  0  0  0  0
   26.6430   34.1275   16.8973 C   0  0  0  0  0  0  0  0  0  0  0  0
  1  2  1  0  0  0  0
  3  1  1  6  0  0  0
  3  4  1  0  0  0  0
  3  5  1  0  0  0  0
  5  6  1  1  0  0  0
  5  7  1  0  0  0  0
  7  8  1  6  0  0  0
  7  9  1  0  0  0  0
  9 27  1  0  0  0  0
 10 11  1  0  0  0  0
 11 12  2  0  0  0  0
 11 13  1  0  0  0  0
 13 14  1  0  0  0  0
 14 16  2  0  0  0  0
 15 14  1  6  0  0  0
 15 18  1  0  0  0  0
 15 26  1  0  0  0  0
 17 19  1  6  0  0  0
 17 25  1  0  0  0  0
 17 18  1  0  0  0  0
 19 20  1  0  0  0  0
 20 21  1  1  0  0  0
 20 22  1  0  0  0  0
 22 23  1  1  0  0  0
 22 24  1  0  0  0  0
 23 28  1  0  0  0  0
 23 29  1  0  0  0  0
 25 24  1  1  0  0  0
 25 27  1  0  0  0  0
 26 10  1  1  0  0  0
 26 27  1  0  0  0  0
M  END
>  <CHROM.1>
61.85375926,173.86858503,73.00240869,140.40926448,-102.92636183,106.66446634
27.27778723,38.02032888,20.79417163,2.16682805,-1.26758590,0.83021654

>  <Name>
ligand

>  <RI>
0

>  <Rbt.Current_Directory>
/home/itssahil/PROJECTS/Mol_Feturizer/New_Systems/rnas/3F4H

>  <Rbt.Executable>
rbdock ($Id: //depot/dev/client3/rdock/2013.1/src/exe/rbdock.cxx#4 $)

>  <Rbt.Library>
libRbt.so (2013.1, Build901 2013/11/27)

>  <Rbt.Parameter_File>
/export/apps/rDock/src/rDock_2013.1_src/data/scripts/dock_solv.prm

>  <Rbt.Receptor>
prm/blind_docking_80.prm

>  <SCORE>
-40.2882

>  <SCORE.INTER>
-24.5981

>  <SCORE.INTER.CONST>
1

>  <SCORE.INTER.POLAR>
0

>  <SCORE.INTER.ROT>
6

>  <SCORE.INTER.SOLV>
9.6016

>  <SCORE.INTER.VDW>
-27.1993

>  <SCORE.INTER.norm>
-0.848212

>  <SCORE.INTRA>
-15.6901

>  <SCORE.INTRA.DIHEDRAL>
-0.180995

>  <SCORE.INTRA.DIHEDRAL.0>
6.83446

>  <SCORE.INTRA.POLAR>
0

>  <SCORE.INTRA.POLAR.0>
0

>  <SCORE.INTRA.REPUL>
0

>  <SCORE.INTRA.REPUL.0>
0

>  <SCORE.INTRA.SOLV>
-0.223413

>  <SCORE.INTRA.SOLV.lig_0>
-26.4601

>  <SCORE.INTRA.VDW>
-15.4879

>  <SCORE.INTRA.VDW.0>
13.7853

>  <SCORE.INTRA.norm>
-0.541036

>  <SCORE.RESTR>
0

>  <SCORE.RESTR.CAVITY>
0

>  <SCORE.RESTR.norm>
0

>  <SCORE.SYSTEM>
0

>  <SCORE.SYSTEM.CONST>
0

>  <SCORE.SYSTEM.DIHEDRAL>
0

>  <SCORE.SYSTEM.SOLV>
0

>  <SCORE.SYSTEM.norm>
0

>  <SCORE.heavy>
29

>  <SCORE.norm>
-1.38925

>  <RMSD>
5.878

$$$$
ligand
 OpenBabel11021811473D
libRbt.so/2013.1/901 2013/11/27
 29 31  0  0  0  0  0  0  0  0999 V2000
   28.0453   42.3038   20.6018 C   0  0  0  0  0  0  0  0  0  0  0  0
   28.5721   43.0752   21.6863 O   0  0  0  0  0  0  0  0  0  0  0  0
   27.2270   41.1467   21.1583 C   0  0  1  0  0  0  0  0  0  0  0  0
   26.1090   41.6793   21.8617 O   0  0  0  0  0  0  0  0  0  0  0  0
   26.7579   40.2330   20.0335 C   0  0  1  0  0  0  0  0  0  0  0  0
   25.9511   41.0180   19.1631 O   0  0  0  0  0  0  0  0  0  0  0  0
   27.8788   39.5547   19.2403 C   0  0  1  0  0  0  0  0  0  0  0  0
   28.5143   40.5391   18.4238 O   0  0  0  0  0  0  0  0  0  0  0  0
   28.9449   38.9098   20.1236 C   0  0  0  0  0  0  0  0  0  0  0  0
   28.4880   39.3559   22.8738 N   0  0  0  0  0  0  0  0  0  0  0  0
   28.2768   39.6069   24.1968 C   0  0  0  0  0  0  0  0  0  0  0  0
   28.6062   40.7123   24.6949 O   0  0  0  0  0  0  0  0  0  0  0  0
   27.7129   38.6632   24.9926 N   0  0  0  0  0  0  0  0  0  0  0  0
   27.3489   37.4563   24.4909 C   0  0  0  0  0  0  0  0  0  0  0  0
   27.5570   37.1867   23.1430 C   0  0  1  0  0  0  0  0  0  0  0  0
   26.8293   36.5852   25.2317 O   0  0  0  0  0  0  0  0  0  0  0  0
   27.3939   35.7301   21.3244 C   0  0  1  0  0  0  0  0  0  0  0  0
   27.1934   35.9901   22.6327 N   0  0  0  0  0  0  0  0  0  0  0  0
   27.0171   34.4955   20.8076 C   0  0  0  0  0  0  0  0  0  0  0  0
   27.2085   34.1986   19.4627 C   0  0  2  0  0  0  0  0  0  0  0  0
   26.7780   32.8410   18.9696 C   0  0  0  0  0  0  0  0  0  0  0  0
   27.7871   35.1530   18.6164 C   0  0  2  0  0  0  0  0  0  0  0  0
   28.0062   34.9323   17.2851 N   0  0  0  0  0  0  0  0  0  0  0  0
   28.1627   36.3912   19.1515 C   0  0  0  0  0  0  0  0  0  0  0  0
   27.9738   36.6928   20.4998 C   0  0  2  0  0  0  0  0  0  0  0  0
   28.1365   38.1587   22.3216 C   0  0  2  0  0  0  0  0  0  0  0  0
   28.3437   37.8913   21.0065 N   0  0  0  0  0  0  0  0  0  0  0  0
   27.0185   35.3613   16.3130 C   0  0  0  0  0  0  0  0  0  0  0  0
   29.2054   34.2798   16.7859 C   0  0  0  0  0  0  0  0  0  0  0  0
  1  2  1  0  0  0  0
  3  1  1  6  0  0  0
  3  4  1  0  0  0  0
  3  5  1  0  0  0  0
  5  6  1  6  0  0  0
  5  7  1  0  0  0  0
  7  8  1  6  0  0  0
  7  9  1  0  0  0  0
  9 27  1  0  0  0  0
 10 11  1  0  0  0  0
 11 12  2  0  0  0  0
 11 13  1  0  0  0  0
 13 14  1  0  0  0  0
 14 16  2  0  0  0  0
 15 14  1  6  0  0  0
 15 18  1  0  0  0  0
 15 26  1  0  0  0  0
 17 19  1  6  0  0  0
 17 25  1  0  0  0  0
 17 18  1  0  0  0  0
 19 20  1  0  0  0  0
 20 21  1  1  0  0  0
 20 22  1  0  0  0  0
 22 23  1  1  0  0  0
 22 24  1  0  0  0  0
 23 28  1  0  0  0  0
 23 29  1  0  0  0  0
 25 24  1  1  0  0  0
 25 27  1  0  0  0  0
 26 10  1  1  0  0  0
 26 27  1  0  0  0  0
M  END
>  <CHROM.1>
64.02368450,-60.38641724,-72.24791848,58.92470091,94.33773323,75.03378971
27.68649681,38.04090388,20.91624171,-1.30756775,-1.52779124,-2.26882818

>  <Name>
ligand

>  <RI>
0

>  <Rbt.Current_Directory>
/home/itssahil/PROJECTS/Mol_Feturizer/New_Systems/rnas/3F4H

>  <Rbt.Executable>
rbdock ($Id: //depot/dev/client3/rdock/2013.1/src/exe/rbdock.cxx#4 $)

>  <Rbt.Library>
libRbt.so (2013.1, Build901 2013/11/27)

>  <Rbt.Parameter_File>
/export/apps/rDock/src/rDock_2013.1_src/data/scripts/dock_solv.prm

>  <Rbt.Receptor>
prm/blind_docking_60.prm

>  <SCORE>
-40.94

>  <SCORE.INTER>
-23.4539

>  <SCORE.INTER.CONST>
1

>  <SCORE.INTER.POLAR>
0

>  <SCORE.INTER.ROT>
6

>  <SCORE.INTER.SOLV>
9.94823

>  <SCORE.INTER.VDW>
-26.552

>  <SCORE.INTER.norm>
-0.808755

>  <SCORE.INTRA>
-17.4861

>  <SCORE.INTRA.DIHEDRAL>
-4.23096

>  <SCORE.INTRA.DIHEDRAL.0>
6.83446

>  <SCORE.INTRA.POLAR>
0

>  <SCORE.INTRA.POLAR.0>
0

>  <SCORE.INTRA.REPUL>
0

>  <SCORE.INTRA.REPUL.0>
0

>  <SCORE.INTRA.SOLV>
0.0712062

>  <SCORE.INTRA.SOLV.lig_0>
-26.4601

>  <SCORE.INTRA.VDW>
-15.4062

>  <SCORE.INTRA.VDW.0>
13.7853

>  <SCORE.INTRA.norm>
-0.602969

>  <SCORE.RESTR>
0

>  <SCORE.RESTR.CAVITY>
0

>  <SCORE.RESTR.norm>
0

>  <SCORE.SYSTEM>
0

>  <SCORE.SYSTEM.CONST>
0

>  <SCORE.SYSTEM.DIHEDRAL>
0

>  <SCORE.SYSTEM.SOLV>
0

>  <SCORE.SYSTEM.norm>
0

>  <SCORE.heavy>
29

>  <SCORE.norm>
-1.41172

>  <RMSD>
5.879

$$$$
ligand
 OpenBabel11021811473D
libRbt.so/2013.1/901 2013/11/27
 29 31  0  0  0  0  0  0  0  0999 V2000
   28.9762   43.2304   23.5343 C   0  0  0  0  0  0  0  0  0  0  0  0
   29.7784   43.3721   24.7113 O   0  0  0  0  0  0  0  0  0  0  0  0
   28.8173   41.7516   23.2089 C   0  0  1  0  0  0  0  0  0  0  0  0
   28.1563   41.1161   24.2986 O   0  0  0  0  0  0  0  0  0  0  0  0
   28.0171   41.5688   21.9257 C   0  0  1  0  0  0  0  0  0  0  0  0
   28.7984   42.1030   20.8632 O   0  0  0  0  0  0  0  0  0  0  0  0
   27.6211   40.1234   21.6101 C   0  0  1  0  0  0  0  0  0  0  0  0
   26.8967   40.1115   20.3794 O   0  0  0  0  0  0  0  0  0  0  0  0
   28.8157   39.1825   21.4673 C   0  0  0  0  0  0  0  0  0  0  0  0
   27.2365   37.6793   23.2610 N   0  0  0  0  0  0  0  0  0  0  0  0
   26.4702   36.9837   24.1482 C   0  0  0  0  0  0  0  0  0  0  0  0
   26.1445   37.4981   25.2472 O   0  0  0  0  0  0  0  0  0  0  0  0
   26.0548   35.7250   23.8565 N   0  0  0  0  0  0  0  0  0  0  0  0
   26.3911   35.1354   22.6817 C   0  0  0  0  0  0  0  0  0  0  0  0
   27.1710   35.8333   21.7666 C   0  0  1  0  0  0  0  0  0  0  0  0
   26.0060   33.9696   22.4171 O   0  0  0  0  0  0  0  0  0  0  0  0
   28.2621   35.9357   19.7040 C   0  0  1  0  0  0  0  0  0  0  0  0
   27.5069   35.2572   20.5920 N   0  0  0  0  0  0  0  0  0  0  0  0
   28.6037   35.3348   18.4975 C   0  0  0  0  0  0  0  0  0  0  0  0
   29.3787   36.0095   17.5606 C   0  0  2  0  0  0  0  0  0  0  0  0
   29.7127   35.2983   16.2746 C   0  0  0  0  0  0  0  0  0  0  0  0
   29.8215   37.3101   17.8330 C   0  0  2  0  0  0  0  0  0  0  0  0
   30.5859   38.0343   16.9611 N   0  0  0  0  0  0  0  0  0  0  0  0
   29.4706   37.9017   19.0526 C   0  0  0  0  0  0  0  0  0  0  0  0
   28.6947   37.2284   19.9956 C   0  0  2  0  0  0  0  0  0  0  0  0
   27.5985   37.1308   22.0652 C   0  0  2  0  0  0  0  0  0  0  0  0
   28.3646   37.8086   21.1722 N   0  0  0  0  0  0  0  0  0  0  0  0
   29.9446   38.9083   15.9972 C   0  0  0  0  0  0  0  0  0  0  0  0
   32.0382   37.9731   16.9550 C   0  0  0  0  0  0  0  0  0  0  0  0
  1  2  1  0  0  0  0
  3  1  1  1  0  0  0
  3  4  1  0  0  0  0
  3  5  1  0  0  0  0
  5  6  1  6  0  0  0
  5  7  1  0  0  0  0
  7  8  1  6  0  0  0
  7  9  1  0  0  0  0
  9 27  1  0  0  0  0
 10 11  1  0  0  0  0
 11 12  2  0  0  0  0
 11 13  1  0  0  0  0
 13 14  1  0  0  0  0
 14 16  2  0  0  0  0
 15 14  1  6  0  0  0
 15 18  1  0  0  0  0
 15 26  1  0  0  0  0
 17 19  1  6  0  0  0
 17 25  1  0  0  0  0
 17 18  1  0  0  0  0
 19 20  1  0  0  0  0
 20 21  1  1  0  0  0
 20 22  1  0  0  0  0
 22 23  1  1  0  0  0
 22 24  1  0  0  0  0
 23 28  1  0  0  0  0
 23 29  1  0  0  0  0
 25 24  1  1  0  0  0
 25 27  1  0  0  0  0
 26 10  1  1  0  0  0
 26 27  1  0  0  0  0
M  END
>  <CHROM.1>
61.27546048,65.83212836,-179.28459686,179.67416829,91.61863799,116.37651652
28.32658351,38.22280882,21.01465096,-1.97016828,-1.02374400,-2.52891195

>  <Name>
ligand

>  <RI>
0

>  <Rbt.Current_Directory>
/home/itssahil/PROJECTS/Mol_Feturizer/New_Systems/rnas/3F4H

>  <Rbt.Executable>
rbdock ($Id: //depot/dev/client3/rdock/2013.1/src/exe/rbdock.cxx#4 $)

>  <Rbt.Library>
libRbt.so (2013.1, Build901 2013/11/27)

>  <Rbt.Parameter_File>
/export/apps/rDock/src/rDock_2013.1_src/data/scripts/dock_solv.prm

>  <Rbt.Receptor>
prm/pocket_docking_6.prm

>  <SCORE>
-48.3292

>  <SCORE.INTER>
-30.0619

>  <SCORE.INTER.CONST>
1

>  <SCORE.INTER.POLAR>
0

>  <SCORE.INTER.ROT>
6

>  <SCORE.INTER.SOLV>
12.9641

>  <SCORE.INTER.VDW>
-31.9626

>  <SCORE.INTER.norm>
-1.03662

>  <SCORE.INTRA>
-18.2673

>  <SCORE.INTRA.DIHEDRAL>
-4.68134

>  <SCORE.INTRA.DIHEDRAL.0>
6.83446

>  <SCORE.INTRA.POLAR>
0

>  <SCORE.INTRA.POLAR.0>
0

>  <SCORE.INTRA.REPUL>
0

>  <SCORE.INTRA.REPUL.0>
0

>  <SCORE.INTRA.SOLV>
-0.526191

>  <SCORE.INTRA.SOLV.lig_0>
-26.4601

>  <SCORE.INTRA.VDW>
-15.6635

>  <SCORE.INTRA.VDW.0>
13.7853

>  <SCORE.INTRA.norm>
-0.629906

>  <SCORE.RESTR>
0

>  <SCORE.RESTR.CAVITY>
0

>  <SCORE.RESTR.norm>
0

>  <SCORE.SYSTEM>
0

>  <SCORE.SYSTEM.CONST>
0

>  <SCORE.SYSTEM.DIHEDRAL>
0

>  <SCORE.SYSTEM.SOLV>
0

>  <SCORE.SYSTEM.norm>
0

>  <SCORE.heavy>
29

>  <SCORE.norm>
-1.66652

>  <RMSD>
5.917

$$$$
ligand
 OpenBabel11021811473D
libRbt.so/2013.1/901 2013/11/27
 29 31  0  0  0  0  0  0  0  0999 V2000
   28.9686   43.1996   23.5780 C   0  0  0  0  0  0  0  0  0  0  0  0
   29.7679   43.3097   24.7604 O   0  0  0  0  0  0  0  0  0  0  0  0
   28.7619   41.7282   23.2458 C   0  0  1  0  0  0  0  0  0  0  0  0
   28.0669   41.1130   24.3261 O   0  0  0  0  0  0  0  0  0  0  0  0
   27.9701   41.5773   21.9532 C   0  0  1  0  0  0  0  0  0  0  0  0
   28.7444   42.1664   20.9148 O   0  0  0  0  0  0  0  0  0  0  0  0
   27.6046   40.1371   21.5824 C   0  0  1  0  0  0  0  0  0  0  0  0
   26.8993   40.1550   20.3406 O   0  0  0  0  0  0  0  0  0  0  0  0
   28.8178   39.2223   21.4265 C   0  0  0  0  0  0  0  0  0  0  0  0
   27.2590   37.6843   23.2087 N   0  0  0  0  0  0  0  0  0  0  0  0
   26.5020   36.9718   24.0903 C   0  0  0  0  0  0  0  0  0  0  0  0
   26.1619   37.4766   25.1894 O   0  0  0  0  0  0  0  0  0  0  0  0
   26.1114   35.7065   23.7930 N   0  0  0  0  0  0  0  0  0  0  0  0
   26.4638   35.1270   22.6180 C   0  0  0  0  0  0  0  0  0  0  0  0
   27.2346   35.8421   21.7084 C   0  0  1  0  0  0  0  0  0  0  0  0
   26.1017   33.9550   22.3481 O   0  0  0  0  0  0  0  0  0  0  0  0
   28.3325   35.9713   19.6510 C   0  0  1  0  0  0  0  0  0  0  0  0
   27.5863   35.2760   20.5336 N   0  0  0  0  0  0  0  0  0  0  0  0
   28.6905   35.3805   18.4442 C   0  0  0  0  0  0  0  0  0  0  0  0
   29.4569   36.0724   17.5128 C   0  0  2  0  0  0  0  0  0  0  0  0
   29.8098   35.3716   16.2261 C   0  0  0  0  0  0  0  0  0  0  0  0
   29.8741   37.3803   17.7910 C   0  0  2  0  0  0  0  0  0  0  0  0
   30.6288   38.1213   16.9247 N   0  0  0  0  0  0  0  0  0  0  0  0
   29.5070   37.9614   19.0109 C   0  0  0  0  0  0  0  0  0  0  0  0
   28.7396   37.2708   19.9484 C   0  0  2  0  0  0  0  0  0  0  0  0
   27.6365   37.1464   22.0128 C   0  0  2  0  0  0  0  0  0  0  0  0
   28.3937   37.8412   21.1252 N   0  0  0  0  0  0  0  0  0  0  0  0
   32.0758   38.0316   16.9737 C   0  0  0  0  0  0  0  0  0  0  0  0
   30.0407   39.0088   15.9351 C   0  0  0  0  0  0  0  0  0  0  0  0
  1  2  1  0  0  0  0
  3  1  1  1  0  0  0
  3  4  1  0  0  0  0
  3  5  1  0  0  0  0
  5  6  1  6  0  0  0
  5  7  1  0  0  0  0
  7  8  1  6  0  0  0
  7  9  1  0  0  0  0
  9 27  1  0  0  0  0
 10 11  1  0  0  0  0
 11 12  2  0  0  0  0
 11 13  1  0  0  0  0
 13 14  1  0  0  0  0
 14 16  2  0  0  0  0
 15 14  1  6  0  0  0
 15 18  1  0  0  0  0
 15 26  1  0  0  0  0
 17 19  1  6  0  0  0
 17 25  1  0  0  0  0
 17 18  1  0  0  0  0
 19 20  1  0  0  0  0
 20 21  1  1  0  0  0
 20 22  1  0  0  0  0
 22 23  1  1  0  0  0
 22 24  1  0  0  0  0
 23 28  1  0  0  0  0
 23 29  1  0  0  0  0
 25 24  1  1  0  0  0
 25 27  1  0  0  0  0
 26 10  1  1  0  0  0
 26 27  1  0  0  0  0
M  END
>  <CHROM.1>
61.57708133,62.09722863,-178.58551021,177.64834945,-88.12353031,117.01276543
28.35513263,38.24613180,20.98633361,-2.00445381,-1.02739299,-2.54230831

>  <Name>
ligand

>  <RI>
0

>  <Rbt.Current_Directory>
/home/itssahil/PROJECTS/Mol_Feturizer/New_Systems/rnas/3F4H

>  <Rbt.Executable>
rbdock ($Id: //depot/dev/client3/rdock/2013.1/src/exe/rbdock.cxx#4 $)

>  <Rbt.Library>
libRbt.so (2013.1, Build901 2013/11/27)

>  <Rbt.Parameter_File>
/export/apps/rDock/src/rDock_2013.1_src/data/scripts/dock_solv.prm

>  <Rbt.Receptor>
prm/blind_docking_60.prm

>  <SCORE>
-48.4142

>  <SCORE.INTER>
-30.1892

>  <SCORE.INTER.CONST>
1

>  <SCORE.INTER.POLAR>
0

>  <SCORE.INTER.ROT>
6

>  <SCORE.INTER.SOLV>
12.81

>  <SCORE.INTER.VDW>
-31.9961

>  <SCORE.INTER.norm>
-1.04101

>  <SCORE.INTRA>
-18.225

>  <SCORE.INTRA.DIHEDRAL>
-4.7615

>  <SCORE.INTRA.DIHEDRAL.0>
6.83446

>  <SCORE.INTRA.POLAR>
0

>  <SCORE.INTRA.POLAR.0>
0

>  <SCORE.INTRA.REPUL>
0

>  <SCORE.INTRA.REPUL.0>
0

>  <SCORE.INTRA.SOLV>
-0.528843

>  <SCORE.INTRA.SOLV.lig_0>
-26.4601

>  <SCORE.INTRA.VDW>
-15.5798

>  <SCORE.INTRA.VDW.0>
13.7853

>  <SCORE.INTRA.norm>
-0.628447

>  <SCORE.RESTR>
0

>  <SCORE.RESTR.CAVITY>
0

>  <SCORE.RESTR.norm>
0

>  <SCORE.SYSTEM>
0

>  <SCORE.SYSTEM.CONST>
0

>  <SCORE.SYSTEM.DIHEDRAL>
0

>  <SCORE.SYSTEM.SOLV>
0

>  <SCORE.SYSTEM.norm>
0

>  <SCORE.heavy>
29

>  <SCORE.norm>
-1.66945

>  <RMSD>
5.922

$$$$
ligand
 OpenBabel11021811473D
libRbt.so/2013.1/901 2013/11/27
 29 31  0  0  0  0  0  0  0  0999 V2000
   28.9275   43.2159   23.6022 C   0  0  0  0  0  0  0  0  0  0  0  0
   29.6799   43.3278   24.8148 O   0  0  0  0  0  0  0  0  0  0  0  0
   28.7376   41.7440   23.2620 C   0  0  1  0  0  0  0  0  0  0  0  0
   28.0000   41.1275   24.3128 O   0  0  0  0  0  0  0  0  0  0  0  0
   28.0001   41.5914   21.9380 C   0  0  1  0  0  0  0  0  0  0  0  0
   28.8326   42.1471   20.9266 O   0  0  0  0  0  0  0  0  0  0  0  0
   27.6180   40.1543   21.5717 C   0  0  1  0  0  0  0  0  0  0  0  0
   26.9894   40.1664   20.2894 O   0  0  0  0  0  0  0  0  0  0  0  0
   28.8127   39.2049   21.5062 C   0  0  0  0  0  0  0  0  0  0  0  0
   27.2368   37.6825   23.2866 N   0  0  0  0  0  0  0  0  0  0  0  0
   26.4719   36.9776   24.1676 C   0  0  0  0  0  0  0  0  0  0  0  0
   26.1404   37.4836   25.2687 O   0  0  0  0  0  0  0  0  0  0  0  0
   26.0641   35.7184   23.8673 N   0  0  0  0  0  0  0  0  0  0  0  0
   26.4068   35.1376   22.6900 C   0  0  0  0  0  0  0  0  0  0  0  0
   27.1855   35.8451   21.7812 C   0  0  1  0  0  0  0  0  0  0  0  0
   26.0289   33.9713   22.4175 O   0  0  0  0  0  0  0  0  0  0  0  0
   28.2816   35.9657   19.7222 C   0  0  1  0  0  0  0  0  0  0  0  0
   27.5277   35.2778   20.6041 N   0  0  0  0  0  0  0  0  0  0  0  0
   28.6297   35.3737   18.5131 C   0  0  0  0  0  0  0  0  0  0  0  0
   29.4036   36.0581   17.5824 C   0  0  2  0  0  0  0  0  0  0  0  0
   29.7450   35.3564   16.2931 C   0  0  0  0  0  0  0  0  0  0  0  0
   29.8385   37.3596   17.8637 C   0  0  2  0  0  0  0  0  0  0  0  0
   30.6014   38.0930   16.9981 N   0  0  0  0  0  0  0  0  0  0  0  0
   29.4812   37.9420   19.0858 C   0  0  0  0  0  0  0  0  0  0  0  0
   28.7063   37.2589   20.0226 C   0  0  2  0  0  0  0  0  0  0  0  0
   27.6051   37.1431   22.0886 C   0  0  2  0  0  0  0  0  0  0  0  0
   28.3699   37.8304   21.2017 N   0  0  0  0  0  0  0  0  0  0  0  0
   29.9572   38.9413   16.0134 C   0  0  0  0  0  0  0  0  0  0  0  0
   32.0546   38.0669   17.0193 C   0  0  0  0  0  0  0  0  0  0  0  0
  1  2  1  0  0  0  0
  3  1  1  1  0  0  0
  3  4  1  0  0  0  0
  3  5  1  0  0  0  0
  5  6  1  6  0  0  0
  5  7  1  0  0  0  0
  7  8  1  6  0  0  0
  7  9  1  0  0  0  0
  9 27  1  0  0  0  0
 10 11  1  0  0  0  0
 11 12  2  0  0  0  0
 11 13  1  0  0  0  0
 13 14  1  0  0  0  0
 14 16  2  0  0  0  0
 15 14  1  6  0  0  0
 15 18  1  0  0  0  0
 15 26  1  0  0  0  0
 17 19  1  6  0  0  0
 17 25  1  0  0  0  0
 17 18  1  0  0  0  0
 19 20  1  0  0  0  0
 20 21  1  1  0  0  0
 20 22  1  0  0  0  0
 22 23  1  1  0  0  0
 22 24  1  0  0  0  0
 23 28  1  0  0  0  0
 23 29  1  0  0  0  0
 25 24  1  1  0  0  0
 25 27  1  0  0  0  0
 26 10  1  1  0  0  0
 26 27  1  0  0  0  0
M  END
>  <CHROM.1>
61.70630174,63.75349672,-177.59099252,177.77884281,89.93682545,113.11829603
28.32570310,38.24492138,21.03801743,-1.99855791,-1.02756765,-2.53999984

>  <Name>
ligand

>  <RI>
0

>  <Rbt.Current_Directory>
/home/itssahil/PROJECTS/Mol_Feturizer/New_Systems/rnas/3F4H

>  <Rbt.Executable>
rbdock ($Id: //depot/dev/client3/rdock/2013.1/src/exe/rbdock.cxx#4 $)

>  <Rbt.Library>
libRbt.so (2013.1, Build901 2013/11/27)

>  <Rbt.Parameter_File>
/export/apps/rDock/src/rDock_2013.1_src/data/scripts/dock_solv.prm

>  <Rbt.Receptor>
prm/blind_docking_60.prm

>  <SCORE>
-48.2899

>  <SCORE.INTER>
-29.9815

>  <SCORE.INTER.CONST>
1

>  <SCORE.INTER.POLAR>
0

>  <SCORE.INTER.ROT>
6

>  <SCORE.INTER.SOLV>
12.9421

>  <SCORE.INTER.VDW>
-31.9017

>  <SCORE.INTER.norm>
-1.03384

>  <SCORE.INTRA>
-18.3084

>  <SCORE.INTRA.DIHEDRAL>
-4.72033

>  <SCORE.INTRA.DIHEDRAL.0>
6.83446

>  <SCORE.INTRA.POLAR>
0

>  <SCORE.INTRA.POLAR.0>
0

>  <SCORE.INTRA.REPUL>
0

>  <SCORE.INTRA.REPUL.0>
0

>  <SCORE.INTRA.SOLV>
-0.523193

>  <SCORE.INTRA.SOLV.lig_0>
-26.4601

>  <SCORE.INTRA.VDW>
-15.6867

>  <SCORE.INTRA.VDW.0>
13.7853

>  <SCORE.INTRA.norm>
-0.631325

>  <SCORE.RESTR>
0

>  <SCORE.RESTR.CAVITY>
0

>  <SCORE.RESTR.norm>
0

>  <SCORE.SYSTEM>
0

>  <SCORE.SYSTEM.CONST>
0

>  <SCORE.SYSTEM.DIHEDRAL>
0

>  <SCORE.SYSTEM.SOLV>
0

>  <SCORE.SYSTEM.norm>
0

>  <SCORE.heavy>
29

>  <SCORE.norm>
-1.66517

>  <RMSD>
5.926

$$$$
ligand
 OpenBabel11021811473D
libRbt.so/2013.1/901 2013/11/27
 29 31  0  0  0  0  0  0  0  0999 V2000
   24.4245   41.9686   19.1808 C   0  0  0  0  0  0  0  0  0  0  0  0
   24.1892   42.0463   20.5906 O   0  0  0  0  0  0  0  0  0  0  0  0
   25.0081   40.6036   18.8427 C   0  0  1  0  0  0  0  0  0  0  0  0
   25.1574   40.5120   17.4293 O   0  0  0  0  0  0  0  0  0  0  0  0
   26.3538   40.4116   19.5302 C   0  0  1  0  0  0  0  0  0  0  0  0
   26.1052   40.3445   20.9296 O   0  0  0  0  0  0  0  0  0  0  0  0
   27.1418   39.1787   19.0777 C   0  0  1  0  0  0  0  0  0  0  0  0
   27.5063   39.3527   17.7079 O   0  0  0  0  0  0  0  0  0  0  0  0
   28.4182   38.9432   19.8828 C   0  0  0  0  0  0  0  0  0  0  0  0
   28.3724   39.7117   22.5992 N   0  0  0  0  0  0  0  0  0  0  0  0
   28.3521   40.1182   23.9001 C   0  0  0  0  0  0  0  0  0  0  0  0
   28.5570   41.3226   24.1932 O   0  0  0  0  0  0  0  0  0  0  0  0
   28.1156   39.2251   24.8942 N   0  0  0  0  0  0  0  0  0  0  0  0
   27.8950   37.9156   24.6160 C   0  0  0  0  0  0  0  0  0  0  0  0
   27.9114   37.4868   23.2936 C   0  0  1  0  0  0  0  0  0  0  0  0
   27.6786   37.0924   25.5395 O   0  0  0  0  0  0  0  0  0  0  0  0
   27.7020   35.7714   21.7223 C   0  0  1  0  0  0  0  0  0  0  0  0
   27.6878   36.1862   23.0057 N   0  0  0  0  0  0  0  0  0  0  0  0
   27.4714   34.4306   21.4350 C   0  0  0  0  0  0  0  0  0  0  0  0
   27.4770   33.9729   20.1220 C   0  0  2  0  0  0  0  0  0  0  0  0
   27.2209   32.5071   19.8825 C   0  0  0  0  0  0  0  0  0  0  0  0
   27.7172   34.8713   19.0745 C   0  0  2  0  0  0  0  0  0  0  0  0
   27.7382   34.4944   17.7605 N   0  0  0  0  0  0  0  0  0  0  0  0
   27.9491   36.2180   19.3794 C   0  0  0  0  0  0  0  0  0  0  0  0
   27.9456   36.6812   20.6948 C   0  0  2  0  0  0  0  0  0  0  0  0
   28.1534   38.4062   22.2682 C   0  0  2  0  0  0  0  0  0  0  0  0
   28.1742   37.9841   20.9777 N   0  0  0  0  0  0  0  0  0  0  0  0
   29.0080   34.2540   17.1016 C   0  0  0  0  0  0  0  0  0  0  0  0
   26.5268   34.3156   16.9773 C   0  0  0  0  0  0  0  0  0  0  0  0
  1  2  1  0  0  0  0
  3  1  1  6  0  0  0
  3  4  1  0  0  0  0
  3  5  1  0  0  0  0
  5  6  1  1  0  0  0
  5  7  1  0  0  0  0
  7  8  1  6  0  0  0
  7  9  1  0  0  0  0
  9 27  1  0  0  0  0
 10 11  1  0  0  0  0
 11 12  2  0  0  0  0
 11 13  1  0  0  0  0
 13 14  1  0  0  0  0
 14 16  2  0  0  0  0
 15 14  1  6  0  0  0
 15 18  1  0  0  0  0
 15 26  1  0  0  0  0
 17 19  1  6  0  0  0
 17 25  1  0  0  0  0
 17 18  1  0  0  0  0
 19 20  1  0  0  0  0
 20 21  1  1  0  0  0
 20 22  1  0  0  0  0
 22 23  1  1  0  0  0
 22 24  1  0  0  0  0
 23 28  1  0  0  0  0
 23 29  1  0  0  0  0
 25 24  1  1  0  0  0
 25 27  1  0  0  0  0
 26 10  1  1  0  0  0
 26 27  1  0  0  0  0
M  END
>  <CHROM.1>
176.39171035,67.17864749,65.49417561,95.23266577,-98.96719604,69.87084098
27.26864075,37.88622788,20.73492991,1.89310076,-1.18407759,0.80446130

>  <Name>
ligand

>  <RI>
0

>  <Rbt.Current_Directory>
/home/itssahil/PROJECTS/Mol_Feturizer/New_Systems/rnas/3F4H

>  <Rbt.Executable>
rbdock ($Id: //depot/dev/client3/rdock/2013.1/src/exe/rbdock.cxx#4 $)

>  <Rbt.Library>
libRbt.so (2013.1, Build901 2013/11/27)

>  <Rbt.Parameter_File>
/export/apps/rDock/src/rDock_2013.1_src/data/scripts/dock_solv.prm

>  <Rbt.Receptor>
prm/pocket_docking_5.prm

>  <SCORE>
-41.2065

>  <SCORE.INTER>
-25.1011

>  <SCORE.INTER.CONST>
1

>  <SCORE.INTER.POLAR>
0

>  <SCORE.INTER.ROT>
6

>  <SCORE.INTER.SOLV>
10.1001

>  <SCORE.INTER.VDW>
-27.7007

>  <SCORE.INTER.norm>
-0.865554

>  <SCORE.INTRA>
-16.1054

>  <SCORE.INTRA.DIHEDRAL>
-1.13178

>  <SCORE.INTRA.DIHEDRAL.0>
6.83446

>  <SCORE.INTRA.POLAR>
0

>  <SCORE.INTRA.POLAR.0>
0

>  <SCORE.INTRA.REPUL>
0

>  <SCORE.INTRA.REPUL.0>
0

>  <SCORE.INTRA.SOLV>
0.114395

>  <SCORE.INTRA.SOLV.lig_0>
-26.4601

>  <SCORE.INTRA.VDW>
-15.5967

>  <SCORE.INTRA.VDW.0>
13.7853

>  <SCORE.INTRA.norm>
-0.555359

>  <SCORE.RESTR>
0

>  <SCORE.RESTR.CAVITY>
0

>  <SCORE.RESTR.norm>
0

>  <SCORE.SYSTEM>
0

>  <SCORE.SYSTEM.CONST>
0

>  <SCORE.SYSTEM.DIHEDRAL>
0

>  <SCORE.SYSTEM.SOLV>
0

>  <SCORE.SYSTEM.norm>
0

>  <SCORE.heavy>
29

>  <SCORE.norm>
-1.42091

>  <RMSD>
5.939

$$$$
ligand
 OpenBabel11021811473D
libRbt.so/2013.1/901 2013/11/27
 29 31  0  0  0  0  0  0  0  0999 V2000
   24.6399   41.3905   17.6184 C   0  0  0  0  0  0  0  0  0  0  0  0
   25.4962   41.7355   16.5245 O   0  0  0  0  0  0  0  0  0  0  0  0
   25.1874   42.0054   18.8991 C   0  0  1  0  0  0  0  0  0  0  0  0
   24.2475   41.7840   19.9460 O   0  0  0  0  0  0  0  0  0  0  0  0
   26.5329   41.3874   19.2570 C   0  0  1  0  0  0  0  0  0  0  0  0
   27.0724   42.1482   20.3317 O   0  0  0  0  0  0  0  0  0  0  0  0
   26.4837   39.9046   19.6369 C   0  0  1  0  0  0  0  0  0  0  0  0
   26.2258   39.1437   18.4561 O   0  0  0  0  0  0  0  0  0  0  0  0
   27.7815   39.3923   20.2582 C   0  0  0  0  0  0  0  0  0  0  0  0
   27.2117   39.9853   22.9591 N   0  0  0  0  0  0  0  0  0  0  0  0
   26.9352   40.3076   24.2544 C   0  0  0  0  0  0  0  0  0  0  0  0
   26.9283   41.5086   24.6232 O   0  0  0  0  0  0  0  0  0  0  0  0
   26.6695   39.3340   25.1618 N   0  0  0  0  0  0  0  0  0  0  0  0
   26.6728   38.0261   24.8010 C   0  0  0  0  0  0  0  0  0  0  0  0
   26.9518   37.6825   23.4831 C   0  0  1  0  0  0  0  0  0  0  0  0
   26.4284   37.1285   25.6448 O   0  0  0  0  0  0  0  0  0  0  0  0
   27.2215   36.0512   21.8333 C   0  0  1  0  0  0  0  0  0  0  0  0
   26.9525   36.3835   23.1126 N   0  0  0  0  0  0  0  0  0  0  0  0
   27.2206   34.7115   21.4608 C   0  0  0  0  0  0  0  0  0  0  0  0
   27.4915   34.3374   20.1492 C   0  0  2  0  0  0  0  0  0  0  0  0
   27.4752   32.8680   19.8148 C   0  0  0  0  0  0  0  0  0  0  0  0
   27.7684   35.3199   19.1900 C   0  0  2  0  0  0  0  0  0  0  0  0
   28.0436   35.0278   17.8830 N   0  0  0  0  0  0  0  0  0  0  0  0
   27.7669   36.6646   19.5803 C   0  0  0  0  0  0  0  0  0  0  0  0
   27.4971   37.0442   20.8947 C   0  0  2  0  0  0  0  0  0  0  0  0
   27.2243   38.6846   22.5467 C   0  0  2  0  0  0  0  0  0  0  0  0
   27.5017   38.3464   21.2612 N   0  0  0  0  0  0  0  0  0  0  0  0
   26.9660   34.6496   16.9885 C   0  0  0  0  0  0  0  0  0  0  0  0
   29.3885   35.0826   17.3344 C   0  0  0  0  0  0  0  0  0  0  0  0
  1  2  1  0  0  0  0
  3  1  1  6  0  0  0
  3  4  1  0  0  0  0
  3  5  1  0  0  0  0
  5  6  1  1  0  0  0
  5  7  1  0  0  0  0
  7  8  1  6  0  0  0
  7  9  1  0  0  0  0
  9 27  1  0  0  0  0
 10 11  1  0  0  0  0
 11 12  2  0  0  0  0
 11 13  1  0  0  0  0
 13 14  1  0  0  0  0
 14 16  2  0  0  0  0
 15 14  1  6  0  0  0
 15 18  1  0  0  0  0
 15 26  1  0  0  0  0
 17 19  1  6  0  0  0
 17 25  1  0  0  0  0
 17 18  1  0  0  0  0
 19 20  1  0  0  0  0
 20 21  1  1  0  0  0
 20 22  1  0  0  0  0
 22 23  1  1  0  0  0
 22 24  1  0  0  0  0
 23 28  1  0  0  0  0
 23 29  1  0  0  0  0
 25 24  1  1  0  0  0
 25 27  1  0  0  0  0
 26 10  1  1  0  0  0
 26 27  1  0  0  0  0
M  END
>  <CHROM.1>
173.40991722,171.13741862,71.59407279,147.05204718,75.90663034,92.37962475
26.86626297,38.29323850,20.76725031,2.65785081,-1.30476746,1.41071794

>  <Name>
ligand

>  <RI>
0

>  <Rbt.Current_Directory>
/home/itssahil/PROJECTS/Mol_Feturizer/New_Systems/rnas/3F4H

>  <Rbt.Executable>
rbdock ($Id: //depot/dev/client3/rdock/2013.1/src/exe/rbdock.cxx#4 $)

>  <Rbt.Library>
libRbt.so (2013.1, Build901 2013/11/27)

>  <Rbt.Parameter_File>
/export/apps/rDock/src/rDock_2013.1_src/data/scripts/dock_solv.prm

>  <Rbt.Receptor>
prm/pocket_docking_5.prm

>  <SCORE>
-40.585

>  <SCORE.INTER>
-24.646

>  <SCORE.INTER.CONST>
1

>  <SCORE.INTER.POLAR>
0

>  <SCORE.INTER.ROT>
6

>  <SCORE.INTER.SOLV>
11.2942

>  <SCORE.INTER.VDW>
-27.7954

>  <SCORE.INTER.norm>
-0.849863

>  <SCORE.INTRA>
-15.939

>  <SCORE.INTRA.DIHEDRAL>
-0.886368

>  <SCORE.INTRA.DIHEDRAL.0>
6.83446

>  <SCORE.INTRA.POLAR>
0

>  <SCORE.INTRA.POLAR.0>
0

>  <SCORE.INTRA.REPUL>
0

>  <SCORE.INTRA.REPUL.0>
0

>  <SCORE.INTRA.SOLV>
0.0152678

>  <SCORE.INTRA.SOLV.lig_0>
-26.4601

>  <SCORE.INTRA.VDW>
-15.5034

>  <SCORE.INTRA.VDW.0>
13.7853

>  <SCORE.INTRA.norm>
-0.549619

>  <SCORE.RESTR>
0

>  <SCORE.RESTR.CAVITY>
0

>  <SCORE.RESTR.norm>
0

>  <SCORE.SYSTEM>
0

>  <SCORE.SYSTEM.CONST>
0

>  <SCORE.SYSTEM.DIHEDRAL>
0

>  <SCORE.SYSTEM.SOLV>
0

>  <SCORE.SYSTEM.norm>
0

>  <SCORE.heavy>
29

>  <SCORE.norm>
-1.39948

>  <RMSD>
5.940

$$$$
ligand
 OpenBabel11021811473D
libRbt.so/2013.1/901 2013/11/27
 29 31  0  0  0  0  0  0  0  0999 V2000
   28.9525   43.2652   23.7372 C   0  0  0  0  0  0  0  0  0  0  0  0
   29.6836   43.3726   24.9632 O   0  0  0  0  0  0  0  0  0  0  0  0
   28.7530   41.7945   23.3977 C   0  0  1  0  0  0  0  0  0  0  0  0
   28.0298   41.1785   24.4588 O   0  0  0  0  0  0  0  0  0  0  0  0
   27.9947   41.6462   22.0849 C   0  0  1  0  0  0  0  0  0  0  0  0
   28.8073   42.2134   21.0638 O   0  0  0  0  0  0  0  0  0  0  0  0
   27.6150   40.2092   21.7155 C   0  0  1  0  0  0  0  0  0  0  0  0
   26.9705   40.2253   20.4411 O   0  0  0  0  0  0  0  0  0  0  0  0
   28.8133   39.2660   21.6300 C   0  0  0  0  0  0  0  0  0  0  0  0
   27.2381   37.6773   23.3522 N   0  0  0  0  0  0  0  0  0  0  0  0
   26.4734   36.9395   24.2060 C   0  0  0  0  0  0  0  0  0  0  0  0
   26.1359   37.4065   25.3224 O   0  0  0  0  0  0  0  0  0  0  0  0
   26.0723   35.6895   23.8617 N   0  0  0  0  0  0  0  0  0  0  0  0
   26.4216   35.1505   22.6666 C   0  0  0  0  0  0  0  0  0  0  0  0
   27.2001   35.8918   21.7851 C   0  0  1  0  0  0  0  0  0  0  0  0
   26.0497   33.9924   22.3533 O   0  0  0  0  0  0  0  0  0  0  0  0
   28.3027   36.0869   19.7353 C   0  0  1  0  0  0  0  0  0  0  0  0
   27.5489   35.3662   20.5907 N   0  0  0  0  0  0  0  0  0  0  0  0
   28.6575   35.5378   18.5081 C   0  0  0  0  0  0  0  0  0  0  0  0
   29.4315   36.2568   17.6039 C   0  0  2  0  0  0  0  0  0  0  0  0
   29.7804   35.6007   16.2927 C   0  0  0  0  0  0  0  0  0  0  0  0
   29.8597   37.5498   17.9306 C   0  0  2  0  0  0  0  0  0  0  0  0
   30.6222   38.3155   17.0932 N   0  0  0  0  0  0  0  0  0  0  0  0
   29.4956   38.0888   19.1705 C   0  0  0  0  0  0  0  0  0  0  0  0
   28.7206   37.3710   20.0809 C   0  0  2  0  0  0  0  0  0  0  0  0
   27.6129   37.1805   22.1378 C   0  0  2  0  0  0  0  0  0  0  0  0
   28.3777   37.9007   21.2775 N   0  0  0  0  0  0  0  0  0  0  0  0
   32.0683   38.2105   17.1399 C   0  0  0  0  0  0  0  0  0  0  0  0
   30.0436   39.2449   16.1369 C   0  0  0  0  0  0  0  0  0  0  0  0
  1  2  1  0  0  0  0
  3  1  1  1  0  0  0
  3  4  1  0  0  0  0
  3  5  1  0  0  0  0
  5  6  1  6  0  0  0
  5  7  1  0  0  0  0
  7  8  1  6  0  0  0
  7  9  1  0  0  0  0
  9 27  1  0  0  0  0
 10 11  1  0  0  0  0
 11 12  2  0  0  0  0
 11 13  1  0  0  0  0
 13 14  1  0  0  0  0
 14 16  2  0  0  0  0
 15 14  1  6  0  0  0
 15 18  1  0  0  0  0
 15 26  1  0  0  0  0
 17 19  1  6  0  0  0
 17 25  1  0  0  0  0
 17 18  1  0  0  0  0
 19 20  1  0  0  0  0
 20 21  1  1  0  0  0
 20 22  1  0  0  0  0
 22 23  1  1  0  0  0
 22 24  1  0  0  0  0
 23 28  1  0  0  0  0
 23 29  1  0  0  0  0
 25 24  1  1  0  0  0
 25 27  1  0  0  0  0
 26 10  1  1  0  0  0
 26 27  1  0  0  0  0
M  END
>  <CHROM.1>
59.70464209,63.17073869,-177.34393377,179.73336212,-88.06654333,112.78941850
28.33923071,38.32888412,21.11018703,-1.99847115,-1.02645361,-2.52318846

>  <Name>
ligand

>  <RI>
0

>  <Rbt.Current_Directory>
/home/itssahil/PROJECTS/Mol_Feturizer/New_Systems/rnas/3F4H

>  <Rbt.Executable>
rbdock ($Id: //depot/dev/client3/rdock/2013.1/src/exe/rbdock.cxx#4 $)

>  <Rbt.Library>
libRbt.so (2013.1, Build901 2013/11/27)

>  <Rbt.Parameter_File>
/export/apps/rDock/src/rDock_2013.1_src/data/scripts/dock_solv.prm

>  <Rbt.Receptor>
prm/pocket_docking_5.prm

>  <SCORE>
-48.4164

>  <SCORE.INTER>
-30.1329

>  <SCORE.INTER.CONST>
1

>  <SCORE.INTER.POLAR>
0

>  <SCORE.INTER.ROT>
6

>  <SCORE.INTER.SOLV>
13.2329

>  <SCORE.INTER.VDW>
-32.0996

>  <SCORE.INTER.norm>
-1.03907

>  <SCORE.INTRA>
-18.2834

>  <SCORE.INTRA.DIHEDRAL>
-4.75872

>  <SCORE.INTRA.DIHEDRAL.0>
6.83446

>  <SCORE.INTRA.POLAR>
0

>  <SCORE.INTRA.POLAR.0>
0

>  <SCORE.INTRA.REPUL>
0

>  <SCORE.INTRA.REPUL.0>
0

>  <SCORE.INTRA.SOLV>
-0.524336

>  <SCORE.INTRA.SOLV.lig_0>
-26.4601

>  <SCORE.INTRA.VDW>
-15.6419

>  <SCORE.INTRA.VDW.0>
13.7853

>  <SCORE.INTRA.norm>
-0.630463

>  <SCORE.RESTR>
0

>  <SCORE.RESTR.CAVITY>
0

>  <SCORE.RESTR.norm>
0

>  <SCORE.SYSTEM>
0

>  <SCORE.SYSTEM.CONST>
0

>  <SCORE.SYSTEM.DIHEDRAL>
0

>  <SCORE.SYSTEM.SOLV>
0

>  <SCORE.SYSTEM.norm>
0

>  <SCORE.heavy>
29

>  <SCORE.norm>
-1.66953

>  <RMSD>
5.958

$$$$
ligand
 OpenBabel11021811473D
libRbt.so/2013.1/901 2013/11/27
 29 31  0  0  0  0  0  0  0  0999 V2000
   28.2177   42.7032   24.0437 C   0  0  0  0  0  0  0  0  0  0  0  0
   28.4722   42.6071   25.4490 O   0  0  0  0  0  0  0  0  0  0  0  0
   28.1884   41.3053   23.4410 C   0  0  1  0  0  0  0  0  0  0  0  0
   27.2252   40.5281   24.1456 O   0  0  0  0  0  0  0  0  0  0  0  0
   27.8365   41.3681   21.9602 C   0  0  1  0  0  0  0  0  0  0  0  0
   28.9205   42.0085   21.2973 O   0  0  0  0  0  0  0  0  0  0  0  0
   27.5477   40.0140   21.3056 C   0  0  1  0  0  0  0  0  0  0  0  0
   27.1318   40.2425   19.9586 O   0  0  0  0  0  0  0  0  0  0  0  0
   28.7569   39.0813   21.2778 C   0  0  0  0  0  0  0  0  0  0  0  0
   27.2498   37.5538   23.1125 N   0  0  0  0  0  0  0  0  0  0  0  0
   26.5179   36.8466   24.0194 C   0  0  0  0  0  0  0  0  0  0  0  0
   26.1974   37.3627   25.1191 O   0  0  0  0  0  0  0  0  0  0  0  0
   26.1316   35.5745   23.7466 N   0  0  0  0  0  0  0  0  0  0  0  0
   26.4634   34.9827   22.5716 C   0  0  0  0  0  0  0  0  0  0  0  0
   27.2085   35.6923   21.6367 C   0  0  1  0  0  0  0  0  0  0  0  0
   26.1055   33.8045   22.3246 O   0  0  0  0  0  0  0  0  0  0  0  0
   28.2608   35.8039   19.5545 C   0  0  1  0  0  0  0  0  0  0  0  0
   27.5395   35.1140   20.4618 N   0  0  0  0  0  0  0  0  0  0  0  0
   28.5976   35.2006   18.3478 C   0  0  0  0  0  0  0  0  0  0  0  0
   29.3380   35.8867   17.3914 C   0  0  2  0  0  0  0  0  0  0  0  0
   29.6689   35.1722   16.1063 C   0  0  0  0  0  0  0  0  0  0  0  0
   29.7501   37.2013   17.6439 C   0  0  2  0  0  0  0  0  0  0  0  0
   30.4797   37.9372   16.7521 N   0  0  0  0  0  0  0  0  0  0  0  0
   29.4045   37.7951   18.8640 C   0  0  0  0  0  0  0  0  0  0  0  0
   28.6633   37.1104   19.8265 C   0  0  2  0  0  0  0  0  0  0  0  0
   27.6059   37.0037   21.9157 C   0  0  2  0  0  0  0  0  0  0  0  0
   28.3380   37.6930   21.0032 N   0  0  0  0  0  0  0  0  0  0  0  0
   31.9068   37.7083   16.6284 C   0  0  0  0  0  0  0  0  0  0  0  0
   29.8832   38.9547   15.9026 C   0  0  0  0  0  0  0  0  0  0  0  0
  1  2  1  0  0  0  0
  3  1  1  1  0  0  0
  3  4  1  0  0  0  0
  3  5  1  0  0  0  0
  5  6  1  6  0  0  0
  5  7  1  0  0  0  0
  7  8  1  6  0  0  0
  7  9  1  0  0  0  0
  9 27  1  0  0  0  0
 10 11  1  0  0  0  0
 11 12  2  0  0  0  0
 11 13  1  0  0  0  0
 13 14  1  0  0  0  0
 14 16  2  0  0  0  0
 15 14  1  6  0  0  0
 15 18  1  0  0  0  0
 15 26  1  0  0  0  0
 17 19  1  6  0  0  0
 17 25  1  0  0  0  0
 17 18  1  0  0  0  0
 19 20  1  0  0  0  0
 20 21  1  1  0  0  0
 20 22  1  0  0  0  0
 22 23  1  1  0  0  0
 22 24  1  0  0  0  0
 23 28  1  0  0  0  0
 23 29  1  0  0  0  0
 25 24  1  1  0  0  0
 25 27  1  0  0  0  0
 26 10  1  1  0  0  0
 26 27  1  0  0  0  0
M  END
>  <CHROM.1>
55.46227116,67.15162530,175.39851586,163.79747129,-78.60062231,111.19034049
28.18870516,38.03720410,20.94439105,-2.18161764,-1.06450446,-2.62066216

>  <Name>
ligand

>  <RI>
0

>  <Rbt.Current_Directory>
/home/itssahil/PROJECTS/Mol_Feturizer/New_Systems/rnas/3F4H

>  <Rbt.Executable>
rbdock ($Id: //depot/dev/client3/rdock/2013.1/src/exe/rbdock.cxx#4 $)

>  <Rbt.Library>
libRbt.so (2013.1, Build901 2013/11/27)

>  <Rbt.Parameter_File>
/export/apps/rDock/src/rDock_2013.1_src/data/scripts/dock_solv.prm

>  <Rbt.Receptor>
prm/pocket_docking_4.prm

>  <SCORE>
-46.1908

>  <SCORE.INTER>
-28.3904

>  <SCORE.INTER.CONST>
1

>  <SCORE.INTER.POLAR>
0

>  <SCORE.INTER.ROT>
6

>  <SCORE.INTER.SOLV>
11.8103

>  <SCORE.INTER.VDW>
-30.4637

>  <SCORE.INTER.norm>
-0.978979

>  <SCORE.INTRA>
-17.8121

>  <SCORE.INTRA.DIHEDRAL>
-3.58329

>  <SCORE.INTRA.DIHEDRAL.0>
6.83446

>  <SCORE.INTRA.POLAR>
0

>  <SCORE.INTRA.POLAR.0>
0

>  <SCORE.INTRA.REPUL>
0

>  <SCORE.INTRA.REPUL.0>
0

>  <SCORE.INTRA.SOLV>
-0.309924

>  <SCORE.INTRA.SOLV.lig_0>
-26.4601

>  <SCORE.INTRA.VDW>
-15.8655

>  <SCORE.INTRA.VDW.0>
13.7853

>  <SCORE.INTRA.norm>
-0.61421

>  <SCORE.RESTR>
0.0116962

>  <SCORE.RESTR.CAVITY>
0.0116962

>  <SCORE.RESTR.norm>
0.000403318

>  <SCORE.SYSTEM>
0

>  <SCORE.SYSTEM.CONST>
0

>  <SCORE.SYSTEM.DIHEDRAL>
0

>  <SCORE.SYSTEM.SOLV>
0

>  <SCORE.SYSTEM.norm>
0

>  <SCORE.heavy>
29

>  <SCORE.norm>
-1.59279

>  <RMSD>
5.961

$$$$
ligand
 OpenBabel11021811473D
libRbt.so/2013.1/901 2013/11/27
 29 31  0  0  0  0  0  0  0  0999 V2000
   28.2760   42.1703   24.4965 C   0  0  0  0  0  0  0  0  0  0  0  0
   28.0485   40.7700   24.6874 O   0  0  0  0  0  0  0  0  0  0  0  0
   29.0266   42.3843   23.1892 C   0  0  1  0  0  0  0  0  0  0  0  0
   30.1616   41.5242   23.1723 O   0  0  0  0  0  0  0  0  0  0  0  0
   28.1227   42.0907   21.9987 C   0  0  1  0  0  0  0  0  0  0  0  0
   28.8346   42.4702   20.8266 O   0  0  0  0  0  0  0  0  0  0  0  0
   27.6579   40.6360   21.8821 C   0  0  1  0  0  0  0  0  0  0  0  0
   26.6017   40.5744   20.9228 O   0  0  0  0  0  0  0  0  0  0  0  0
   28.7613   39.6787   21.4360 C   0  0  0  0  0  0  0  0  0  0  0  0
   28.0511   37.8020   23.4222 N   0  0  0  0  0  0  0  0  0  0  0  0
   27.7143   36.9218   24.4071 C   0  0  0  0  0  0  0  0  0  0  0  0
   27.8899   37.2209   25.6146 O   0  0  0  0  0  0  0  0  0  0  0  0
   27.1902   35.7097   24.0940 N   0  0  0  0  0  0  0  0  0  0  0  0
   26.9908   35.3502   22.8010 C   0  0  0  0  0  0  0  0  0  0  0  0
   27.3284   36.2383   21.7860 C   0  0  1  0  0  0  0  0  0  0  0  0
   26.5075   34.2266   22.5160 O   0  0  0  0  0  0  0  0  0  0  0  0
   27.4551   36.7549   19.5117 C   0  0  1  0  0  0  0  0  0  0  0  0
   27.1291   35.8920   20.4957 N   0  0  0  0  0  0  0  0  0  0  0  0
   27.2471   36.3899   18.1861 C   0  0  0  0  0  0  0  0  0  0  0  0
   27.5706   37.2586   17.1497 C   0  0  2  0  0  0  0  0  0  0  0  0
   27.3202   36.7984   15.7365 C   0  0  0  0  0  0  0  0  0  0  0  0
   28.1123   38.5169   17.4417 C   0  0  2  0  0  0  0  0  0  0  0  0
   28.4544   39.4225   16.4763 N   0  0  0  0  0  0  0  0  0  0  0  0
   28.3173   38.8698   18.7811 C   0  0  0  0  0  0  0  0  0  0  0  0
   27.9955   38.0014   19.8237 C   0  0  2  0  0  0  0  0  0  0  0  0
   27.8671   37.4881   22.1072 C   0  0  2  0  0  0  0  0  0  0  0  0
   28.2010   38.3518   21.1140 N   0  0  0  0  0  0  0  0  0  0  0  0
   27.4752   40.3898   16.0183 C   0  0  0  0  0  0  0  0  0  0  0  0
   29.7782   39.4669   15.8776 C   0  0  0  0  0  0  0  0  0  0  0  0
  1  2  1  0  0  0  0
  3  1  1  1  0  0  0
  3  4  1  0  0  0  0
  3  5  1  0  0  0  0
  5  6  1  6  0  0  0
  5  7  1  0  0  0  0
  7  8  1  6  0  0  0
  7  9  1  0  0  0  0
  9 27  1  0  0  0  0
 10 11  1  0  0  0  0
 11 12  2  0  0  0  0
 11 13  1  0  0  0  0
 13 14  1  0  0  0  0
 14 16  2  0  0  0  0
 15 14  1  1  0  0  0
 15 18  1  0  0  0  0
 15 26  1  0  0  0  0
 17 19  1  1  0  0  0
 17 25  1  0  0  0  0
 17 18  1  0  0  0  0
 19 20  1  0  0  0  0
 20 21  1  6  0  0  0
 20 22  1  0  0  0  0
 22 23  1  6  0  0  0
 22 24  1  0  0  0  0
 23 28  1  0  0  0  0
 23 29  1  0  0  0  0
 25 24  1  6  0  0  0
 25 27  1  0  0  0  0
 26 10  1  6  0  0  0
 26 27  1  0  0  0  0
M  END
>  <CHROM.1>
-50.62949403,172.90377197,167.19099224,-169.98462553,90.17219979,101.02252762
27.94949859,38.67541745,20.94282351,-1.53021105,-1.32594812,-1.63748164

>  <Name>
ligand

>  <RI>
0

>  <Rbt.Current_Directory>
/home/itssahil/PROJECTS/Mol_Feturizer/New_Systems/rnas/3F4H

>  <Rbt.Executable>
rbdock ($Id: //depot/dev/client3/rdock/2013.1/src/exe/rbdock.cxx#4 $)

>  <Rbt.Library>
libRbt.so (2013.1, Build901 2013/11/27)

>  <Rbt.Parameter_File>
/export/apps/rDock/src/rDock_2013.1_src/data/scripts/dock_solv.prm

>  <Rbt.Receptor>
prm/pocket_docking_8.prm

>  <SCORE>
-43.9228

>  <SCORE.INTER>
-26.7221

>  <SCORE.INTER.CONST>
1

>  <SCORE.INTER.POLAR>
0

>  <SCORE.INTER.ROT>
6

>  <SCORE.INTER.SOLV>
12.3059

>  <SCORE.INTER.VDW>
-29.5167

>  <SCORE.INTER.norm>
-0.92145

>  <SCORE.INTRA>
-17.2008

>  <SCORE.INTRA.DIHEDRAL>
-3.40565

>  <SCORE.INTRA.DIHEDRAL.0>
6.83446

>  <SCORE.INTRA.POLAR>
0

>  <SCORE.INTRA.POLAR.0>
0

>  <SCORE.INTRA.REPUL>
0

>  <SCORE.INTRA.REPUL.0>
0

>  <SCORE.INTRA.SOLV>
0.575232

>  <SCORE.INTRA.SOLV.lig_0>
-26.4601

>  <SCORE.INTRA.VDW>
-15.7855

>  <SCORE.INTRA.VDW.0>
13.7853

>  <SCORE.INTRA.norm>
-0.59313

>  <SCORE.RESTR>
0

>  <SCORE.RESTR.CAVITY>
0

>  <SCORE.RESTR.norm>
0

>  <SCORE.SYSTEM>
0

>  <SCORE.SYSTEM.CONST>
0

>  <SCORE.SYSTEM.DIHEDRAL>
0

>  <SCORE.SYSTEM.SOLV>
0

>  <SCORE.SYSTEM.norm>
0

>  <SCORE.heavy>
29

>  <SCORE.norm>
-1.51458

>  <RMSD>
5.984

$$$$
ligand
 OpenBabel11021811473D
libRbt.so/2013.1/901 2013/11/27
 29 31  0  0  0  0  0  0  0  0999 V2000
   28.0220   42.5036   24.2400 C   0  0  0  0  0  0  0  0  0  0  0  0
   28.7766   43.1446   25.2738 O   0  0  0  0  0  0  0  0  0  0  0  0
   28.7871   42.5973   22.9270 C   0  0  1  0  0  0  0  0  0  0  0  0
   29.9314   41.7533   23.0081 O   0  0  0  0  0  0  0  0  0  0  0  0
   27.9019   42.1775   21.7605 C   0  0  1  0  0  0  0  0  0  0  0  0
   28.6055   42.4920   20.5644 O   0  0  0  0  0  0  0  0  0  0  0  0
   27.4936   40.7015   21.7562 C   0  0  1  0  0  0  0  0  0  0  0  0
   26.4905   40.5128   20.7573 O   0  0  0  0  0  0  0  0  0  0  0  0
   28.6502   39.7511   21.4534 C   0  0  0  0  0  0  0  0  0  0  0  0
   27.9431   37.8468   23.4143 N   0  0  0  0  0  0  0  0  0  0  0  0
   27.6060   36.9534   24.3870 C   0  0  0  0  0  0  0  0  0  0  0  0
   27.7347   37.2552   25.5998 O   0  0  0  0  0  0  0  0  0  0  0  0
   27.1325   35.7253   24.0563 N   0  0  0  0  0  0  0  0  0  0  0  0
   26.9847   35.3626   22.7573 C   0  0  0  0  0  0  0  0  0  0  0  0
   27.3232   36.2639   21.7544 C   0  0  1  0  0  0  0  0  0  0  0  0
   26.5481   34.2242   22.4561 O   0  0  0  0  0  0  0  0  0  0  0  0
   27.5018   36.7902   19.4858 C   0  0  1  0  0  0  0  0  0  0  0  0
   27.1750   35.9144   20.4581 N   0  0  0  0  0  0  0  0  0  0  0  0
   27.3465   36.4218   18.1540 C   0  0  0  0  0  0  0  0  0  0  0  0
   27.6723   37.3034   17.1291 C   0  0  2  0  0  0  0  0  0  0  0  0
   27.4805   36.8386   15.7083 C   0  0  0  0  0  0  0  0  0  0  0  0
   28.1624   38.5783   17.4394 C   0  0  2  0  0  0  0  0  0  0  0  0
   28.5033   39.4972   16.4863 N   0  0  0  0  0  0  0  0  0  0  0  0
   28.3146   38.9345   18.7850 C   0  0  0  0  0  0  0  0  0  0  0  0
   27.9904   38.0532   19.8160 C   0  0  2  0  0  0  0  0  0  0  0  0
   27.8098   37.5302   22.0937 C   0  0  2  0  0  0  0  0  0  0  0  0
   28.1448   38.4071   21.1125 N   0  0  0  0  0  0  0  0  0  0  0  0
   29.8653   39.5461   15.9892 C   0  0  0  0  0  0  0  0  0  0  0  0
   27.5486   40.4434   15.9331 C   0  0  0  0  0  0  0  0  0  0  0  0
  1  2  1  0  0  0  0
  3  1  1  1  0  0  0
  3  4  1  0  0  0  0
  3  5  1  0  0  0  0
  5  6  1  6  0  0  0
  5  7  1  0  0  0  0
  7  8  1  6  0  0  0
  7  9  1  0  0  0  0
  9 27  1  0  0  0  0
 10 11  1  0  0  0  0
 11 12  2  0  0  0  0
 11 13  1  0  0  0  0
 13 14  1  0  0  0  0
 14 16  2  0  0  0  0
 15 14  1  1  0  0  0
 15 18  1  0  0  0  0
 15 26  1  0  0  0  0
 17 19  1  1  0  0  0
 17 25  1  0  0  0  0
 17 18  1  0  0  0  0
 19 20  1  0  0  0  0
 20 21  1  6  0  0  0
 20 22  1  0  0  0  0
 22 23  1  6  0  0  0
 22 24  1  0  0  0  0
 23 28  1  0  0  0  0
 23 29  1  0  0  0  0
 25 24  1  6  0  0  0
 25 27  1  0  0  0  0
 26 10  1  6  0  0  0
 26 27  1  0  0  0  0
M  END
>  <CHROM.1>
70.10842264,170.90816399,169.90162064,-165.02841703,-91.04807619,96.39005903
27.92900455,38.83201749,20.90218170,-1.45782664,-1.35156318,-1.74426457

>  <Name>
ligand

>  <RI>
0

>  <Rbt.Current_Directory>
/home/itssahil/PROJECTS/Mol_Feturizer/New_Systems/rnas/3F4H

>  <Rbt.Executable>
rbdock ($Id: //depot/dev/client3/rdock/2013.1/src/exe/rbdock.cxx#4 $)

>  <Rbt.Library>
libRbt.so (2013.1, Build901 2013/11/27)

>  <Rbt.Parameter_File>
/export/apps/rDock/src/rDock_2013.1_src/data/scripts/dock_solv.prm

>  <Rbt.Receptor>
prm/blind_docking_80.prm

>  <SCORE>
-44.3907

>  <SCORE.INTER>
-27.1925

>  <SCORE.INTER.CONST>
1

>  <SCORE.INTER.POLAR>
0

>  <SCORE.INTER.ROT>
6

>  <SCORE.INTER.SOLV>
13.3224

>  <SCORE.INTER.VDW>
-30.1692

>  <SCORE.INTER.norm>
-0.937673

>  <SCORE.INTRA>
-17.1982

>  <SCORE.INTRA.DIHEDRAL>
-3.04828

>  <SCORE.INTRA.DIHEDRAL.0>
6.83446

>  <SCORE.INTRA.POLAR>
0

>  <SCORE.INTRA.POLAR.0>
0

>  <SCORE.INTRA.REPUL>
0

>  <SCORE.INTRA.REPUL.0>
0

>  <SCORE.INTRA.SOLV>
-0.27242

>  <SCORE.INTRA.SOLV.lig_0>
-26.4601

>  <SCORE.INTRA.VDW>
-15.5378

>  <SCORE.INTRA.VDW.0>
13.7853

>  <SCORE.INTRA.norm>
-0.593041

>  <SCORE.RESTR>
0

>  <SCORE.RESTR.CAVITY>
0

>  <SCORE.RESTR.norm>
0

>  <SCORE.SYSTEM>
0

>  <SCORE.SYSTEM.CONST>
0

>  <SCORE.SYSTEM.DIHEDRAL>
0

>  <SCORE.SYSTEM.SOLV>
0

>  <SCORE.SYSTEM.norm>
0

>  <SCORE.heavy>
29

>  <SCORE.norm>
-1.53071

>  <RMSD>
5.985

$$$$
ligand
 OpenBabel11021811473D
libRbt.so/2013.1/901 2013/11/27
 29 31  0  0  0  0  0  0  0  0999 V2000
   24.4384   42.0855   19.7929 C   0  0  0  0  0  0  0  0  0  0  0  0
   23.1561   42.3223   19.2026 O   0  0  0  0  0  0  0  0  0  0  0  0
   25.0347   40.8130   19.2069 C   0  0  1  0  0  0  0  0  0  0  0  0
   25.1824   40.9873   17.8012 O   0  0  0  0  0  0  0  0  0  0  0  0
   26.3833   40.5098   19.8469 C   0  0  1  0  0  0  0  0  0  0  0  0
   26.1572   40.3338   21.2406 O   0  0  0  0  0  0  0  0  0  0  0  0
   27.1113   39.2895   19.2754 C   0  0  1  0  0  0  0  0  0  0  0  0
   27.4132   39.5449   17.9031 O   0  0  0  0  0  0  0  0  0  0  0  0
   28.4180   38.9672   19.9974 C   0  0  0  0  0  0  0  0  0  0  0  0
   28.3884   39.7602   22.7070 N   0  0  0  0  0  0  0  0  0  0  0  0
   28.3759   40.1785   24.0043 C   0  0  0  0  0  0  0  0  0  0  0  0
   28.5810   41.3857   24.2852 O   0  0  0  0  0  0  0  0  0  0  0  0
   28.1469   39.2941   25.0080 N   0  0  0  0  0  0  0  0  0  0  0  0
   27.9263   37.9819   24.7430 C   0  0  0  0  0  0  0  0  0  0  0  0
   27.9348   37.5411   23.4245 C   0  0  1  0  0  0  0  0  0  0  0  0
   27.7169   37.1668   25.6753 O   0  0  0  0  0  0  0  0  0  0  0  0
   27.7178   35.8113   21.8701 C   0  0  1  0  0  0  0  0  0  0  0  0
   27.7112   36.2376   23.1498 N   0  0  0  0  0  0  0  0  0  0  0  0
   27.4872   34.4676   21.5965 C   0  0  0  0  0  0  0  0  0  0  0  0
   27.4851   33.9980   20.2877 C   0  0  2  0  0  0  0  0  0  0  0  0
   27.2295   32.5298   20.0631 C   0  0  0  0  0  0  0  0  0  0  0  0
   27.7174   34.8872   19.2306 C   0  0  2  0  0  0  0  0  0  0  0  0
   27.7305   34.4985   17.9199 N   0  0  0  0  0  0  0  0  0  0  0  0
   27.9494   36.2370   19.5218 C   0  0  0  0  0  0  0  0  0  0  0  0
   27.9536   36.7120   20.8329 C   0  0  2  0  0  0  0  0  0  0  0  0
   28.1692   38.4515   22.3892 C   0  0  2  0  0  0  0  0  0  0  0  0
   28.1823   38.0178   21.1025 N   0  0  0  0  0  0  0  0  0  0  0  0
   28.9963   34.3432   17.2286 C   0  0  0  0  0  0  0  0  0  0  0  0
   26.5148   34.2241   17.1718 C   0  0  0  0  0  0  0  0  0  0  0  0
  1  2  1  0  0  0  0
  3  1  1  1  0  0  0
  3  4  1  0  0  0  0
  3  5  1  0  0  0  0
  5  6  1  1  0  0  0
  5  7  1  0  0  0  0
  7  8  1  6  0  0  0
  7  9  1  0  0  0  0
  9 27  1  0  0  0  0
 10 11  1  0  0  0  0
 11 12  2  0  0  0  0
 11 13  1  0  0  0  0
 13 14  1  0  0  0  0
 14 16  2  0  0  0  0
 15 14  1  6  0  0  0
 15 18  1  0  0  0  0
 15 26  1  0  0  0  0
 17 19  1  6  0  0  0
 17 25  1  0  0  0  0
 17 18  1  0  0  0  0
 19 20  1  0  0  0  0
 20 21  1  1  0  0  0
 20 22  1  0  0  0  0
 22 23  1  1  0  0  0
 22 24  1  0  0  0  0
 23 28  1  0  0  0  0
 23 29  1  0  0  0  0
 25 24  1  1  0  0  0
 25 27  1  0  0  0  0
 26 10  1  1  0  0  0
 26 27  1  0  0  0  0
M  END
>  <CHROM.1>
60.58061181,60.55679324,63.32929228,91.11044482,-103.21270202,74.89797778
27.23654884,37.96776179,20.86173909,2.04445899,-1.14585063,0.77696958

>  <Name>
ligand

>  <RI>
0

>  <Rbt.Current_Directory>
/home/itssahil/PROJECTS/Mol_Feturizer/New_Systems/rnas/3F4H

>  <Rbt.Executable>
rbdock ($Id: //depot/dev/client3/rdock/2013.1/src/exe/rbdock.cxx#4 $)

>  <Rbt.Library>
libRbt.so (2013.1, Build901 2013/11/27)

>  <Rbt.Parameter_File>
/export/apps/rDock/src/rDock_2013.1_src/data/scripts/dock_solv.prm

>  <Rbt.Receptor>
prm/pocket_docking_7.prm

>  <SCORE>
-42.5488

>  <SCORE.INTER>
-25.6907

>  <SCORE.INTER.CONST>
1

>  <SCORE.INTER.POLAR>
0

>  <SCORE.INTER.ROT>
6

>  <SCORE.INTER.SOLV>
10.3633

>  <SCORE.INTER.VDW>
-28.1815

>  <SCORE.INTER.norm>
-0.885885

>  <SCORE.INTRA>
-16.8582

>  <SCORE.INTRA.DIHEDRAL>
-2.00459

>  <SCORE.INTRA.DIHEDRAL.0>
6.83446

>  <SCORE.INTRA.POLAR>
0

>  <SCORE.INTRA.POLAR.0>
0

>  <SCORE.INTRA.REPUL>
0

>  <SCORE.INTRA.REPUL.0>
0

>  <SCORE.INTRA.SOLV>
-0.150699

>  <SCORE.INTRA.SOLV.lig_0>
-26.4601

>  <SCORE.INTRA.VDW>
-15.7805

>  <SCORE.INTRA.VDW.0>
13.7853

>  <SCORE.INTRA.norm>
-0.581317

>  <SCORE.RESTR>
0

>  <SCORE.RESTR.CAVITY>
0

>  <SCORE.RESTR.norm>
0

>  <SCORE.SYSTEM>
0

>  <SCORE.SYSTEM.CONST>
0

>  <SCORE.SYSTEM.DIHEDRAL>
0

>  <SCORE.SYSTEM.SOLV>
0

>  <SCORE.SYSTEM.norm>
0

>  <SCORE.heavy>
29

>  <SCORE.norm>
-1.4672

>  <RMSD>
5.992

$$$$
ligand
 OpenBabel11021811473D
libRbt.so/2013.1/901 2013/11/27
 29 31  0  0  0  0  0  0  0  0999 V2000
   24.5351   41.6285   18.9152 C   0  0  0  0  0  0  0  0  0  0  0  0
   23.3480   42.3912   19.1560 O   0  0  0  0  0  0  0  0  0  0  0  0
   25.5481   41.9136   20.0154 C   0  0  1  0  0  0  0  0  0  0  0  0
   24.9945   41.4979   21.2601 O   0  0  0  0  0  0  0  0  0  0  0  0
   26.8538   41.1771   19.7450 C   0  0  1  0  0  0  0  0  0  0  0  0
   27.7826   41.5883   20.7414 O   0  0  0  0  0  0  0  0  0  0  0  0
   26.7440   39.6496   19.7288 C   0  0  1  0  0  0  0  0  0  0  0  0
   26.2657   39.2443   18.4455 O   0  0  0  0  0  0  0  0  0  0  0  0
   28.0724   38.9413   19.9862 C   0  0  0  0  0  0  0  0  0  0  0  0
   28.0695   39.7163   22.7011 N   0  0  0  0  0  0  0  0  0  0  0  0
   28.0669   40.1259   24.0012 C   0  0  0  0  0  0  0  0  0  0  0  0
   28.1926   41.3434   24.2845 O   0  0  0  0  0  0  0  0  0  0  0  0
   27.9338   39.2222   25.0049 N   0  0  0  0  0  0  0  0  0  0  0  0
   27.8007   37.8987   24.7372 C   0  0  0  0  0  0  0  0  0  0  0  0
   27.8003   37.4665   23.4158 C   0  0  1  0  0  0  0  0  0  0  0  0
   27.6799   37.0659   25.6695 O   0  0  0  0  0  0  0  0  0  0  0  0
   27.6610   35.7333   21.8562 C   0  0  1  0  0  0  0  0  0  0  0  0
   27.6632   36.1516   23.1385 N   0  0  0  0  0  0  0  0  0  0  0  0
   27.5200   34.3779   21.5799 C   0  0  0  0  0  0  0  0  0  0  0  0
   27.5114   33.9161   20.2684 C   0  0  2  0  0  0  0  0  0  0  0  0
   27.3559   32.4343   20.0409 C   0  0  0  0  0  0  0  0  0  0  0  0
   27.6458   34.8251   19.2112 C   0  0  2  0  0  0  0  0  0  0  0  0
   27.6464   34.4450   17.8980 N   0  0  0  0  0  0  0  0  0  0  0  0
   27.7883   36.1867   19.5051 C   0  0  0  0  0  0  0  0  0  0  0  0
   27.7987   36.6541   20.8189 C   0  0  2  0  0  0  0  0  0  0  0  0
   27.9358   38.3967   22.3806 C   0  0  2  0  0  0  0  0  0  0  0  0
   27.9405   37.9717   21.0909 N   0  0  0  0  0  0  0  0  0  0  0  0
   28.9063   34.2734   17.1996 C   0  0  0  0  0  0  0  0  0  0  0  0
   26.4229   34.1959   17.1538 C   0  0  0  0  0  0  0  0  0  0  0  0
  1  2  1  0  0  0  0
  3  1  1  6  0  0  0
  3  4  1  0  0  0  0
  3  5  1  0  0  0  0
  5  6  1  1  0  0  0
  5  7  1  0  0  0  0
  7  8  1  6  0  0  0
  7  9  1  0  0  0  0
  9 27  1  0  0  0  0
 10 11  1  0  0  0  0
 11 12  2  0  0  0  0
 11 13  1  0  0  0  0
 13 14  1  0  0  0  0
 14 16  2  0  0  0  0
 15 14  1  6  0  0  0
 15 18  1  0  0  0  0
 15 26  1  0  0  0  0
 17 19  1  6  0  0  0
 17 25  1  0  0  0  0
 17 18  1  0  0  0  0
 19 20  1  0  0  0  0
 20 21  1  1  0  0  0
 20 22  1  0  0  0  0
 22 23  1  1  0  0  0
 22 24  1  0  0  0  0
 23 28  1  0  0  0  0
 23 29  1  0  0  0  0
 25 24  1  1  0  0  0
 25 27  1  0  0  0  0
 26 10  1  1  0  0  0
 26 27  1  0  0  0  0
M  END
>  <CHROM.1>
62.07851076,174.75108810,81.70211034,126.72192868,-97.88360506,100.69831176
27.18045005,38.03759258,20.99857794,2.04500104,-1.18042045,0.75993070

>  <Name>
ligand

>  <RI>
0

>  <Rbt.Current_Directory>
/home/itssahil/PROJECTS/Mol_Feturizer/New_Systems/rnas/3F4H

>  <Rbt.Executable>
rbdock ($Id: //depot/dev/client3/rdock/2013.1/src/exe/rbdock.cxx#4 $)

>  <Rbt.Library>
libRbt.so (2013.1, Build901 2013/11/27)

>  <Rbt.Parameter_File>
/export/apps/rDock/src/rDock_2013.1_src/data/scripts/dock_solv.prm

>  <Rbt.Receptor>
prm/pocket_docking_8.prm

>  <SCORE>
-40.5937

>  <SCORE.INTER>
-25.8138

>  <SCORE.INTER.CONST>
1

>  <SCORE.INTER.POLAR>
0

>  <SCORE.INTER.ROT>
6

>  <SCORE.INTER.SOLV>
10.7241

>  <SCORE.INTER.VDW>
-28.3839

>  <SCORE.INTER.norm>
-0.890131

>  <SCORE.INTRA>
-14.7799

>  <SCORE.INTRA.DIHEDRAL>
1.94087

>  <SCORE.INTRA.DIHEDRAL.0>
6.83446

>  <SCORE.INTRA.POLAR>
0

>  <SCORE.INTRA.POLAR.0>
0

>  <SCORE.INTRA.REPUL>
0

>  <SCORE.INTRA.REPUL.0>
0

>  <SCORE.INTRA.SOLV>
-0.0643645

>  <SCORE.INTRA.SOLV.lig_0>
-26.4601

>  <SCORE.INTRA.VDW>
-15.7182

>  <SCORE.INTRA.VDW.0>
13.7853

>  <SCORE.INTRA.norm>
-0.509653

>  <SCORE.RESTR>
0

>  <SCORE.RESTR.CAVITY>
0

>  <SCORE.RESTR.norm>
0

>  <SCORE.SYSTEM>
0

>  <SCORE.SYSTEM.CONST>
0

>  <SCORE.SYSTEM.DIHEDRAL>
0

>  <SCORE.SYSTEM.SOLV>
0

>  <SCORE.SYSTEM.norm>
0

>  <SCORE.heavy>
29

>  <SCORE.norm>
-1.39978

>  <RMSD>
5.993

$$$$
ligand
 OpenBabel11021811473D
libRbt.so/2013.1/901 2013/11/27
 29 31  0  0  0  0  0  0  0  0999 V2000
   28.2290   42.1083   24.5544 C   0  0  0  0  0  0  0  0  0  0  0  0
   28.0056   40.7017   24.6984 O   0  0  0  0  0  0  0  0  0  0  0  0
   28.9678   42.3692   23.2489 C   0  0  1  0  0  0  0  0  0  0  0  0
   30.1027   41.5108   23.1910 O   0  0  0  0  0  0  0  0  0  0  0  0
   28.0533   42.1181   22.0568 C   0  0  1  0  0  0  0  0  0  0  0  0
   28.7494   42.5522   20.8942 O   0  0  0  0  0  0  0  0  0  0  0  0
   27.5987   40.6658   21.8843 C   0  0  1  0  0  0  0  0  0  0  0  0
   26.5725   40.6281   20.8919 O   0  0  0  0  0  0  0  0  0  0  0  0
   28.7193   39.7256   21.4449 C   0  0  0  0  0  0  0  0  0  0  0  0
   28.0073   37.8405   23.4224 N   0  0  0  0  0  0  0  0  0  0  0  0
   27.6689   36.9563   24.4031 C   0  0  0  0  0  0  0  0  0  0  0  0
   27.8242   37.2582   25.6127 O   0  0  0  0  0  0  0  0  0  0  0  0
   27.1651   35.7373   24.0837 N   0  0  0  0  0  0  0  0  0  0  0  0
   26.9880   35.3747   22.7883 C   0  0  0  0  0  0  0  0  0  0  0  0
   27.3275   36.2667   21.7774 C   0  0  1  0  0  0  0  0  0  0  0  0
   26.5235   34.2446   22.4975 O   0  0  0  0  0  0  0  0  0  0  0  0
   27.4782   36.7840   19.5047 C   0  0  1  0  0  0  0  0  0  0  0  0
   27.1503   35.9173   20.4848 N   0  0  0  0  0  0  0  0  0  0  0  0
   27.2929   36.4158   18.1767 C   0  0  0  0  0  0  0  0  0  0  0  0
   27.6189   37.2883   17.1442 C   0  0  2  0  0  0  0  0  0  0  0  0
   27.3937   36.8243   15.7281 C   0  0  0  0  0  0  0  0  0  0  0  0
   28.1398   38.5537   17.4428 C   0  0  2  0  0  0  0  0  0  0  0  0
   28.4830   39.4634   16.4816 N   0  0  0  0  0  0  0  0  0  0  0  0
   28.3220   38.9099   18.7847 C   0  0  0  0  0  0  0  0  0  0  0  0
   27.9977   38.0377   19.8233 C   0  0  2  0  0  0  0  0  0  0  0  0
   27.8453   37.5236   22.1051 C   0  0  2  0  0  0  0  0  0  0  0  0
   28.1811   38.3913   21.1161 N   0  0  0  0  0  0  0  0  0  0  0  0
   27.4963   40.4151   16.0073 C   0  0  0  0  0  0  0  0  0  0  0  0
   29.8150   39.5274   15.9033 C   0  0  0  0  0  0  0  0  0  0  0  0
  1  2  1  0  0  0  0
  3  1  1  1  0  0  0
  3  4  1  0  0  0  0
  3  5  1  0  0  0  0
  5  6  1  6  0  0  0
  5  7  1  0  0  0  0
  7  8  1  6  0  0  0
  7  9  1  0  0  0  0
  9 27  1  0  0  0  0
 10 11  1  0  0  0  0
 11 12  2  0  0  0  0
 11 13  1  0  0  0  0
 13 14  1  0  0  0  0
 14 16  2  0  0  0  0
 15 14  1  1  0  0  0
 15 18  1  0  0  0  0
 15 26  1  0  0  0  0
 17 19  1  1  0  0  0
 17 25  1  0  0  0  0
 17 18  1  0  0  0  0
 19 20  1  0  0  0  0
 20 21  1  6  0  0  0
 20 22  1  0  0  0  0
 22 23  1  6  0  0  0
 22 24  1  0  0  0  0
 23 28  1  0  0  0  0
 23 29  1  0  0  0  0
 25 24  1  6  0  0  0
 25 27  1  0  0  0  0
 26 10  1  6  0  0  0
 26 27  1  0  0  0  0
M  END
>  <CHROM.1>
-50.51423890,172.32742446,169.68057075,-172.09617345,90.00561727,101.39768790
27.93557861,38.70057758,20.94934278,-1.58014258,-1.33355097,-1.68016135

>  <Name>
ligand

>  <RI>
0

>  <Rbt.Current_Directory>
/home/itssahil/PROJECTS/Mol_Feturizer/New_Systems/rnas/3F4H

>  <Rbt.Executable>
rbdock ($Id: //depot/dev/client3/rdock/2013.1/src/exe/rbdock.cxx#4 $)

>  <Rbt.Library>
libRbt.so (2013.1, Build901 2013/11/27)

>  <Rbt.Parameter_File>
/export/apps/rDock/src/rDock_2013.1_src/data/scripts/dock_solv.prm

>  <Rbt.Receptor>
prm/blind_docking_80.prm

>  <SCORE>
-43.9319

>  <SCORE.INTER>
-26.6067

>  <SCORE.INTER.CONST>
1

>  <SCORE.INTER.POLAR>
0

>  <SCORE.INTER.ROT>
6

>  <SCORE.INTER.SOLV>
12.0983

>  <SCORE.INTER.VDW>
-29.3706

>  <SCORE.INTER.norm>
-0.917474

>  <SCORE.INTRA>
-17.3251

>  <SCORE.INTRA.DIHEDRAL>
-3.7005

>  <SCORE.INTRA.DIHEDRAL.0>
6.83446

>  <SCORE.INTRA.POLAR>
0

>  <SCORE.INTRA.POLAR.0>
0

>  <SCORE.INTRA.REPUL>
0

>  <SCORE.INTRA.REPUL.0>
0

>  <SCORE.INTRA.SOLV>
0.616586

>  <SCORE.INTRA.SOLV.lig_0>
-26.4601

>  <SCORE.INTRA.VDW>
-15.7832

>  <SCORE.INTRA.VDW.0>
13.7853

>  <SCORE.INTRA.norm>
-0.597419

>  <SCORE.RESTR>
0

>  <SCORE.RESTR.CAVITY>
0

>  <SCORE.RESTR.norm>
0

>  <SCORE.SYSTEM>
0

>  <SCORE.SYSTEM.CONST>
0

>  <SCORE.SYSTEM.DIHEDRAL>
0

>  <SCORE.SYSTEM.SOLV>
0

>  <SCORE.SYSTEM.norm>
0

>  <SCORE.heavy>
29

>  <SCORE.norm>
-1.51489

>  <RMSD>
6.004

$$$$
ligand
 OpenBabel11021811473D
libRbt.so/2013.1/901 2013/11/27
 29 31  0  0  0  0  0  0  0  0999 V2000
   28.3001   41.9982   24.5758 C   0  0  0  0  0  0  0  0  0  0  0  0
   27.1788   42.8636   24.7826 O   0  0  0  0  0  0  0  0  0  0  0  0
   28.9406   42.3171   23.2319 C   0  0  1  0  0  0  0  0  0  0  0  0
   30.1071   41.5136   23.0838 O   0  0  0  0  0  0  0  0  0  0  0  0
   27.9636   42.0457   22.0953 C   0  0  1  0  0  0  0  0  0  0  0  0
   28.5673   42.5235   20.8987 O   0  0  0  0  0  0  0  0  0  0  0  0
   27.5567   40.5787   21.9279 C   0  0  1  0  0  0  0  0  0  0  0  0
   26.4635   40.5145   21.0112 O   0  0  0  0  0  0  0  0  0  0  0  0
   28.6796   39.6934   21.3910 C   0  0  0  0  0  0  0  0  0  0  0  0
   27.9987   37.8002   23.3718 N   0  0  0  0  0  0  0  0  0  0  0  0
   27.6746   36.9123   24.3540 C   0  0  0  0  0  0  0  0  0  0  0  0
   27.8186   37.2213   25.5633 O   0  0  0  0  0  0  0  0  0  0  0  0
   27.1977   35.6820   24.0365 N   0  0  0  0  0  0  0  0  0  0  0  0
   27.0337   35.3116   22.7416 C   0  0  0  0  0  0  0  0  0  0  0  0
   27.3588   36.2072   21.7293 C   0  0  1  0  0  0  0  0  0  0  0  0
   26.5940   34.1711   22.4527 O   0  0  0  0  0  0  0  0  0  0  0  0
   27.5081   36.7203   19.4555 C   0  0  1  0  0  0  0  0  0  0  0  0
   27.1943   35.8500   20.4370 N   0  0  0  0  0  0  0  0  0  0  0  0
   27.3361   36.3440   18.1280 C   0  0  0  0  0  0  0  0  0  0  0  0
   27.6482   37.2198   17.0939 C   0  0  2  0  0  0  0  0  0  0  0  0
   27.4386   36.7466   15.6784 C   0  0  0  0  0  0  0  0  0  0  0  0
   28.1414   38.4968   17.3905 C   0  0  2  0  0  0  0  0  0  0  0  0
   28.4696   39.4103   16.4277 N   0  0  0  0  0  0  0  0  0  0  0  0
   28.3105   38.8609   18.7319 C   0  0  0  0  0  0  0  0  0  0  0  0
   28.0000   37.9855   19.7720 C   0  0  2  0  0  0  0  0  0  0  0  0
   27.8488   37.4758   22.0549 C   0  0  2  0  0  0  0  0  0  0  0  0
   28.1707   38.3470   21.0644 N   0  0  0  0  0  0  0  0  0  0  0  0
   27.4730   40.3582   15.9664 C   0  0  0  0  0  0  0  0  0  0  0  0
   29.7949   39.4822   15.8351 C   0  0  0  0  0  0  0  0  0  0  0  0
  1  2  1  0  0  0  0
  3  1  1  1  0  0  0
  3  4  1  0  0  0  0
  3  5  1  0  0  0  0
  5  6  1  6  0  0  0
  5  7  1  0  0  0  0
  7  8  1  6  0  0  0
  7  9  1  0  0  0  0
  9 27  1  0  0  0  0
 10 11  1  0  0  0  0
 11 12  2  0  0  0  0
 11 13  1  0  0  0  0
 13 14  1  0  0  0  0
 14 16  2  0  0  0  0
 15 14  1  1  0  0  0
 15 18  1  0  0  0  0
 15 26  1  0  0  0  0
 17 19  1  1  0  0  0
 17 25  1  0  0  0  0
 17 18  1  0  0  0  0
 19 20  1  0  0  0  0
 20 21  1  6  0  0  0
 20 22  1  0  0  0  0
 22 23  1  6  0  0  0
 22 24  1  0  0  0  0
 23 28  1  0  0  0  0
 23 29  1  0  0  0  0
 25 24  1  6  0  0  0
 25 27  1  0  0  0  0
 26 10  1  6  0  0  0
 26 27  1  0  0  0  0
M  END
>  <CHROM.1>
175.99363352,172.77086412,169.10773596,-171.57876423,91.30308318,105.87972511
27.89645104,38.73211891,20.92073475,-1.58224386,-1.37853464,-1.83569425

>  <Name>
ligand

>  <RI>
0

>  <Rbt.Current_Directory>
/home/itssahil/PROJECTS/Mol_Feturizer/New_Systems/rnas/3F4H

>  <Rbt.Executable>
rbdock ($Id: //depot/dev/client3/rdock/2013.1/src/exe/rbdock.cxx#4 $)

>  <Rbt.Library>
libRbt.so (2013.1, Build901 2013/11/27)

>  <Rbt.Parameter_File>
/export/apps/rDock/src/rDock_2013.1_src/data/scripts/dock_solv.prm

>  <Rbt.Receptor>
prm/pocket_docking_7.prm

>  <SCORE>
-44.5308

>  <SCORE.INTER>
-26.8808

>  <SCORE.INTER.CONST>
1

>  <SCORE.INTER.POLAR>
0

>  <SCORE.INTER.ROT>
6

>  <SCORE.INTER.SOLV>
12.7875

>  <SCORE.INTER.VDW>
-29.783

>  <SCORE.INTER.norm>
-0.926923

>  <SCORE.INTRA>
-17.6501

>  <SCORE.INTRA.DIHEDRAL>
-3.90126

>  <SCORE.INTRA.DIHEDRAL.0>
6.83446

>  <SCORE.INTRA.POLAR>
0

>  <SCORE.INTRA.POLAR.0>
0

>  <SCORE.INTRA.REPUL>
0

>  <SCORE.INTRA.REPUL.0>
0

>  <SCORE.INTRA.SOLV>
-0.206851

>  <SCORE.INTRA.SOLV.lig_0>
-26.4601

>  <SCORE.INTRA.VDW>
-15.596

>  <SCORE.INTRA.VDW.0>
13.7853

>  <SCORE.INTRA.norm>
-0.608623

>  <SCORE.RESTR>
0

>  <SCORE.RESTR.CAVITY>
0

>  <SCORE.RESTR.norm>
0

>  <SCORE.SYSTEM>
0

>  <SCORE.SYSTEM.CONST>
0

>  <SCORE.SYSTEM.DIHEDRAL>
0

>  <SCORE.SYSTEM.SOLV>
0

>  <SCORE.SYSTEM.norm>
0

>  <SCORE.heavy>
29

>  <SCORE.norm>
-1.53555

>  <RMSD>
6.006

$$$$
ligand
 OpenBabel11021811473D
libRbt.so/2013.1/901 2013/11/27
 29 31  0  0  0  0  0  0  0  0999 V2000
   28.2389   42.9924   23.8907 C   0  0  0  0  0  0  0  0  0  0  0  0
   29.0346   42.5596   24.9990 O   0  0  0  0  0  0  0  0  0  0  0  0
   27.5767   41.7833   23.2443 C   0  0  1  0  0  0  0  0  0  0  0  0
   26.5399   42.2414   22.3821 O   0  0  0  0  0  0  0  0  0  0  0  0
   28.5974   40.9703   22.4585 C   0  0  1  0  0  0  0  0  0  0  0  0
   29.6043   40.5597   23.3762 O   0  0  0  0  0  0  0  0  0  0  0  0
   28.0284   39.7524   21.7246 C   0  0  1  0  0  0  0  0  0  0  0  0
   27.1834   40.2142   20.6699 O   0  0  0  0  0  0  0  0  0  0  0  0
   29.1019   38.8535   21.1143 C   0  0  0  0  0  0  0  0  0  0  0  0
   27.5505   37.4330   22.9975 N   0  0  0  0  0  0  0  0  0  0  0  0
   26.8006   36.7775   23.9281 C   0  0  0  0  0  0  0  0  0  0  0  0
   26.5656   37.3068   25.0430 O   0  0  0  0  0  0  0  0  0  0  0  0
   26.3035   35.5428   23.6626 N   0  0  0  0  0  0  0  0  0  0  0  0
   26.5407   34.9380   22.4715 C   0  0  0  0  0  0  0  0  0  0  0  0
   27.3029   35.5951   21.5123 C   0  0  1  0  0  0  0  0  0  0  0  0
   26.0804   33.7944   22.2311 O   0  0  0  0  0  0  0  0  0  0  0  0
   28.2785   35.6428   19.3906 C   0  0  1  0  0  0  0  0  0  0  0  0
   27.5405   35.0038   20.3213 N   0  0  0  0  0  0  0  0  0  0  0  0
   28.5186   35.0264   18.1676 C   0  0  0  0  0  0  0  0  0  0  0  0
   29.2734   35.6607   17.1870 C   0  0  2  0  0  0  0  0  0  0  0  0
   29.4956   34.9347   15.8851 C   0  0  0  0  0  0  0  0  0  0  0  0
   29.7988   36.9358   17.4316 C   0  0  2  0  0  0  0  0  0  0  0  0
   30.5494   37.6200   16.5163 N   0  0  0  0  0  0  0  0  0  0  0  0
   29.5497   37.5433   18.6683 C   0  0  0  0  0  0  0  0  0  0  0  0
   28.7944   36.9105   19.6550 C   0  0  2  0  0  0  0  0  0  0  0  0
   27.8144   36.8679   21.7839 C   0  0  2  0  0  0  0  0  0  0  0  0
   28.5630   37.5057   20.8476 N   0  0  0  0  0  0  0  0  0  0  0  0
   29.9538   38.7121   15.7701 C   0  0  0  0  0  0  0  0  0  0  0  0
   31.9431   37.3030   16.2519 C   0  0  0  0  0  0  0  0  0  0  0  0
  1  2  1  0  0  0  0
  3  1  1  6  0  0  0
  3  4  1  0  0  0  0
  3  5  1  0  0  0  0
  5  6  1  1  0  0  0
  5  7  1  0  0  0  0
  7  8  1  6  0  0  0
  7  9  1  0  0  0  0
  9 27  1  0  0  0  0
 10 11  1  0  0  0  0
 11 12  2  0  0  0  0
 11 13  1  0  0  0  0
 13 14  1  0  0  0  0
 14 16  2  0  0  0  0
 15 14  1  6  0  0  0
 15 18  1  0  0  0  0
 15 26  1  0  0  0  0
 17 19  1  6  0  0  0
 17 25  1  0  0  0  0
 17 18  1  0  0  0  0
 19 20  1  0  0  0  0
 20 21  1  1  0  0  0
 20 22  1  0  0  0  0
 22 23  1  1  0  0  0
 22 24  1  0  0  0  0
 23 28  1  0  0  0  0
 23 29  1  0  0  0  0
 25 24  1  1  0  0  0
 25 27  1  0  0  0  0
 26 10  1  1  0  0  0
 26 27  1  0  0  0  0
M  END
>  <CHROM.1>
165.32924563,59.33033338,68.01116270,160.28011766,103.62701485,133.21914588
28.31106814,37.92895249,20.87237871,-2.05491133,-1.06116041,-2.60140176

>  <Name>
ligand

>  <RI>
0

>  <Rbt.Current_Directory>
/home/itssahil/PROJECTS/Mol_Feturizer/New_Systems/rnas/3F4H

>  <Rbt.Executable>
rbdock ($Id: //depot/dev/client3/rdock/2013.1/src/exe/rbdock.cxx#4 $)

>  <Rbt.Library>
libRbt.so (2013.1, Build901 2013/11/27)

>  <Rbt.Parameter_File>
/export/apps/rDock/src/rDock_2013.1_src/data/scripts/dock_solv.prm

>  <Rbt.Receptor>
prm/pocket_docking_4.prm

>  <SCORE>
-43.2212

>  <SCORE.INTER>
-27.5715

>  <SCORE.INTER.CONST>
1

>  <SCORE.INTER.POLAR>
0

>  <SCORE.INTER.ROT>
6

>  <SCORE.INTER.SOLV>
11.9187

>  <SCORE.INTER.VDW>
-29.9539

>  <SCORE.INTER.norm>
-0.950741

>  <SCORE.INTRA>
-15.6497

>  <SCORE.INTRA.DIHEDRAL>
-2.52014

>  <SCORE.INTRA.DIHEDRAL.0>
6.83446

>  <SCORE.INTRA.POLAR>
0

>  <SCORE.INTRA.POLAR.0>
0

>  <SCORE.INTRA.REPUL>
0

>  <SCORE.INTRA.REPUL.0>
0

>  <SCORE.INTRA.SOLV>
-0.106186

>  <SCORE.INTRA.SOLV.lig_0>
-26.4601

>  <SCORE.INTRA.VDW>
-14.3366

>  <SCORE.INTRA.VDW.0>
13.7853

>  <SCORE.INTRA.norm>
-0.539645

>  <SCORE.RESTR>
0

>  <SCORE.RESTR.CAVITY>
0

>  <SCORE.RESTR.norm>
0

>  <SCORE.SYSTEM>
0

>  <SCORE.SYSTEM.CONST>
0

>  <SCORE.SYSTEM.DIHEDRAL>
0

>  <SCORE.SYSTEM.SOLV>
0

>  <SCORE.SYSTEM.norm>
0

>  <SCORE.heavy>
29

>  <SCORE.norm>
-1.49039

>  <RMSD>
6.015

$$$$
ligand
 OpenBabel11021811473D
libRbt.so/2013.1/901 2013/11/27
 29 31  0  0  0  0  0  0  0  0999 V2000
   27.8607   42.0419   24.6529 C   0  0  0  0  0  0  0  0  0  0  0  0
   27.7121   40.6250   24.7916 O   0  0  0  0  0  0  0  0  0  0  0  0
   28.5954   42.3459   23.3545 C   0  0  1  0  0  0  0  0  0  0  0  0
   29.7970   41.5819   23.3241 O   0  0  0  0  0  0  0  0  0  0  0  0
   27.7224   42.0066   22.1532 C   0  0  1  0  0  0  0  0  0  0  0  0
   28.4183   42.4426   20.9912 O   0  0  0  0  0  0  0  0  0  0  0  0
   27.3530   40.5263   22.0190 C   0  0  1  0  0  0  0  0  0  0  0  0
   26.4533   40.3828   20.9192 O   0  0  0  0  0  0  0  0  0  0  0  0
   28.5563   39.6192   21.7699 C   0  0  0  0  0  0  0  0  0  0  0  0
   27.3209   37.8397   23.5805 N   0  0  0  0  0  0  0  0  0  0  0  0
   26.7228   37.0079   24.4797 C   0  0  0  0  0  0  0  0  0  0  0  0
   26.5475   37.3763   25.6680 O   0  0  0  0  0  0  0  0  0  0  0  0
   26.3144   35.7698   24.1026 N   0  0  0  0  0  0  0  0  0  0  0  0
   26.4914   35.3359   22.8293 C   0  0  0  0  0  0  0  0  0  0  0  0
   27.0988   36.1739   21.9011 C   0  0  1  0  0  0  0  0  0  0  0  0
   26.1138   34.1884   22.4855 O   0  0  0  0  0  0  0  0  0  0  0  0
   27.8626   36.5677   19.7292 C   0  0  1  0  0  0  0  0  0  0  0  0
   27.2750   35.7533   20.6296 N   0  0  0  0  0  0  0  0  0  0  0  0
   28.0405   36.1264   18.4226 C   0  0  0  0  0  0  0  0  0  0  0  0
   28.6406   36.9435   17.4710 C   0  0  2  0  0  0  0  0  0  0  0  0
   28.8031   36.4015   16.0741 C   0  0  0  0  0  0  0  0  0  0  0  0
   29.0715   38.2270   17.8301 C   0  0  2  0  0  0  0  0  0  0  0  0
   29.6691   39.0853   16.9496 N   0  0  0  0  0  0  0  0  0  0  0  0
   28.8868   38.6570   19.1498 C   0  0  0  0  0  0  0  0  0  0  0  0
   28.2866   37.8404   20.1078 C   0  0  2  0  0  0  0  0  0  0  0  0
   27.5187   37.4504   22.2878 C   0  0  2  0  0  0  0  0  0  0  0  0
   28.1165   38.2652   21.3808 N   0  0  0  0  0  0  0  0  0  0  0  0
   31.1119   39.2359   16.9591 C   0  0  0  0  0  0  0  0  0  0  0  0
   28.9153   39.8667   15.9831 C   0  0  0  0  0  0  0  0  0  0  0  0
  1  2  1  0  0  0  0
  3  1  1  1  0  0  0
  3  4  1  0  0  0  0
  3  5  1  0  0  0  0
  5  6  1  6  0  0  0
  5  7  1  0  0  0  0
  7  8  1  6  0  0  0
  7  9  1  0  0  0  0
  9 27  1  0  0  0  0
 10 11  1  0  0  0  0
 11 12  2  0  0  0  0
 11 13  1  0  0  0  0
 13 14  1  0  0  0  0
 14 16  2  0  0  0  0
 15 14  1  6  0  0  0
 15 18  1  0  0  0  0
 15 26  1  0  0  0  0
 17 19  1  6  0  0  0
 17 25  1  0  0  0  0
 17 18  1  0  0  0  0
 19 20  1  0  0  0  0
 20 21  1  1  0  0  0
 20 22  1  0  0  0  0
 22 23  1  1  0  0  0
 22 24  1  0  0  0  0
 23 28  1  0  0  0  0
 23 29  1  0  0  0  0
 25 24  1  1  0  0  0
 25 27  1  0  0  0  0
 26 10  1  1  0  0  0
 26 27  1  0  0  0  0
M  END
>  <CHROM.1>
-52.35663472,174.17514822,175.42463547,-168.53824610,-100.50079103,108.92212449
27.97997648,38.54981043,21.14823726,-2.29033007,-1.18062582,-2.40062806

>  <Name>
ligand

>  <RI>
0

>  <Rbt.Current_Directory>
/home/itssahil/PROJECTS/Mol_Feturizer/New_Systems/rnas/3F4H

>  <Rbt.Executable>
rbdock ($Id: //depot/dev/client3/rdock/2013.1/src/exe/rbdock.cxx#4 $)

>  <Rbt.Library>
libRbt.so (2013.1, Build901 2013/11/27)

>  <Rbt.Parameter_File>
/export/apps/rDock/src/rDock_2013.1_src/data/scripts/dock_solv.prm

>  <Rbt.Receptor>
prm/pocket_docking_3.prm

>  <SCORE>
-44.0057

>  <SCORE.INTER>
-27.1623

>  <SCORE.INTER.CONST>
1

>  <SCORE.INTER.POLAR>
0

>  <SCORE.INTER.ROT>
6

>  <SCORE.INTER.SOLV>
11.7523

>  <SCORE.INTER.VDW>
-29.6256

>  <SCORE.INTER.norm>
-0.936632

>  <SCORE.INTRA>
-16.8553

>  <SCORE.INTRA.DIHEDRAL>
-3.96116

>  <SCORE.INTRA.DIHEDRAL.0>
6.83446

>  <SCORE.INTRA.POLAR>
0

>  <SCORE.INTRA.POLAR.0>
0

>  <SCORE.INTRA.REPUL>
0

>  <SCORE.INTRA.REPUL.0>
0

>  <SCORE.INTRA.SOLV>
0.669353

>  <SCORE.INTRA.SOLV.lig_0>
-26.4601

>  <SCORE.INTRA.VDW>
-15.2094

>  <SCORE.INTRA.VDW.0>
13.7853

>  <SCORE.INTRA.norm>
-0.581218

>  <SCORE.RESTR>
0.0119093

>  <SCORE.RESTR.CAVITY>
0.0119093

>  <SCORE.RESTR.norm>
0.000410665

>  <SCORE.SYSTEM>
0

>  <SCORE.SYSTEM.CONST>
0

>  <SCORE.SYSTEM.DIHEDRAL>
0

>  <SCORE.SYSTEM.SOLV>
0

>  <SCORE.SYSTEM.norm>
0

>  <SCORE.heavy>
29

>  <SCORE.norm>
-1.51744

>  <RMSD>
6.019

$$$$
ligand
 OpenBabel11021811473D
libRbt.so/2013.1/901 2013/11/27
 29 31  0  0  0  0  0  0  0  0999 V2000
   23.8917   42.1847   19.2867 C   0  0  0  0  0  0  0  0  0  0  0  0
   24.7110   43.2945   18.9044 O   0  0  0  0  0  0  0  0  0  0  0  0
   24.5856   40.8879   18.8930 C   0  0  1  0  0  0  0  0  0  0  0  0
   24.8409   40.9178   17.4922 O   0  0  0  0  0  0  0  0  0  0  0  0
   25.8885   40.7223   19.6647 C   0  0  1  0  0  0  0  0  0  0  0  0
   25.5507   40.6222   21.0433 O   0  0  0  0  0  0  0  0  0  0  0  0
   26.7412   39.5213   19.2450 C   0  0  1  0  0  0  0  0  0  0  0  0
   27.2259   39.7514   17.9215 O   0  0  0  0  0  0  0  0  0  0  0  0
   27.9431   39.2804   20.1561 C   0  0  0  0  0  0  0  0  0  0  0  0
   27.4207   39.9252   22.8547 N   0  0  0  0  0  0  0  0  0  0  0  0
   27.1684   40.2724   24.1485 C   0  0  0  0  0  0  0  0  0  0  0  0
   27.2134   41.4766   24.5041 O   0  0  0  0  0  0  0  0  0  0  0  0
   26.8711   39.3203   25.0688 N   0  0  0  0  0  0  0  0  0  0  0  0
   26.8183   38.0095   24.7225 C   0  0  0  0  0  0  0  0  0  0  0  0
   27.0720   37.6406   23.4063 C   0  0  1  0  0  0  0  0  0  0  0  0
   26.5448   37.1317   25.5782 O   0  0  0  0  0  0  0  0  0  0  0  0
   27.2612   35.9821   21.7727 C   0  0  1  0  0  0  0  0  0  0  0  0
   27.0169   36.3388   23.0503 N   0  0  0  0  0  0  0  0  0  0  0  0
   27.2029   34.6396   21.4151 C   0  0  0  0  0  0  0  0  0  0  0  0
   27.4473   34.2407   20.1056 C   0  0  2  0  0  0  0  0  0  0  0  0
   27.3685   32.7696   19.7877 C   0  0  0  0  0  0  0  0  0  0  0  0
   27.7557   35.2006   19.1334 C   0  0  2  0  0  0  0  0  0  0  0  0
   28.0078   34.8836   17.8276 N   0  0  0  0  0  0  0  0  0  0  0  0
   27.8121   36.5484   19.5087 C   0  0  0  0  0  0  0  0  0  0  0  0
   27.5690   36.9529   20.8209 C   0  0  2  0  0  0  0  0  0  0  0  0
   27.3770   38.6207   22.4567 C   0  0  2  0  0  0  0  0  0  0  0  0
   27.6296   38.2577   21.1729 N   0  0  0  0  0  0  0  0  0  0  0  0
   29.3619   34.9715   17.3147 C   0  0  0  0  0  0  0  0  0  0  0  0
   26.9658   34.4505   16.9113 C   0  0  0  0  0  0  0  0  0  0  0  0
  1  2  1  0  0  0  0
  3  1  1  1  0  0  0
  3  4  1  0  0  0  0
  3  5  1  0  0  0  0
  5  6  1  1  0  0  0
  5  7  1  0  0  0  0
  7  8  1  6  0  0  0
  7  9  1  0  0  0  0
  9 27  1  0  0  0  0
 10 11  1  0  0  0  0
 11 12  2  0  0  0  0
 11 13  1  0  0  0  0
 13 14  1  0  0  0  0
 14 16  2  0  0  0  0
 15 14  1  6  0  0  0
 15 18  1  0  0  0  0
 15 26  1  0  0  0  0
 17 19  1  6  0  0  0
 17 25  1  0  0  0  0
 17 18  1  0  0  0  0
 19 20  1  0  0  0  0
 20 21  1  1  0  0  0
 20 22  1  0  0  0  0
 22 23  1  1  0  0  0
 22 24  1  0  0  0  0
 23 28  1  0  0  0  0
 23 29  1  0  0  0  0
 25 24  1  1  0  0  0
 25 27  1  0  0  0  0
 26 10  1  1  0  0  0
 26 27  1  0  0  0  0
M  END
>  <CHROM.1>
-57.04774600,63.24502862,67.39351738,96.40492148,-107.78842126,74.66872813
26.83778664,38.18670446,20.77933521,2.54821707,-1.24189366,1.29491888

>  <Name>
ligand

>  <RI>
0

>  <Rbt.Current_Directory>
/home/itssahil/PROJECTS/Mol_Feturizer/New_Systems/rnas/3F4H

>  <Rbt.Executable>
rbdock ($Id: //depot/dev/client3/rdock/2013.1/src/exe/rbdock.cxx#4 $)

>  <Rbt.Library>
libRbt.so (2013.1, Build901 2013/11/27)

>  <Rbt.Parameter_File>
/export/apps/rDock/src/rDock_2013.1_src/data/scripts/dock_solv.prm

>  <Rbt.Receptor>
prm/blind_docking_60.prm

>  <SCORE>
-42.0074

>  <SCORE.INTER>
-26.0334

>  <SCORE.INTER.CONST>
1

>  <SCORE.INTER.POLAR>
0

>  <SCORE.INTER.ROT>
6

>  <SCORE.INTER.SOLV>
11.0714

>  <SCORE.INTER.VDW>
-28.6461

>  <SCORE.INTER.norm>
-0.897705

>  <SCORE.INTRA>
-15.974

>  <SCORE.INTRA.DIHEDRAL>
-1.06508

>  <SCORE.INTRA.DIHEDRAL.0>
6.83446

>  <SCORE.INTRA.POLAR>
0

>  <SCORE.INTRA.POLAR.0>
0

>  <SCORE.INTRA.REPUL>
0

>  <SCORE.INTRA.REPUL.0>
0

>  <SCORE.INTRA.SOLV>
0.203684

>  <SCORE.INTRA.SOLV.lig_0>
-26.4601

>  <SCORE.INTRA.VDW>
-15.5433

>  <SCORE.INTRA.VDW.0>
13.7853

>  <SCORE.INTRA.norm>
-0.550826

>  <SCORE.RESTR>
0

>  <SCORE.RESTR.CAVITY>
0

>  <SCORE.RESTR.norm>
0

>  <SCORE.SYSTEM>
0

>  <SCORE.SYSTEM.CONST>
0

>  <SCORE.SYSTEM.DIHEDRAL>
0

>  <SCORE.SYSTEM.SOLV>
0

>  <SCORE.SYSTEM.norm>
0

>  <SCORE.heavy>
29

>  <SCORE.norm>
-1.44853

>  <RMSD>
6.022

$$$$
ligand
 OpenBabel11021811473D
libRbt.so/2013.1/901 2013/11/27
 29 31  0  0  0  0  0  0  0  0999 V2000
   27.9423   41.9639   24.6176 C   0  0  0  0  0  0  0  0  0  0  0  0
   26.6945   42.6639   24.6621 O   0  0  0  0  0  0  0  0  0  0  0  0
   28.7036   42.3721   23.3637 C   0  0  1  0  0  0  0  0  0  0  0  0
   29.9772   41.7349   23.3793 O   0  0  0  0  0  0  0  0  0  0  0  0
   27.9287   41.9749   22.1139 C   0  0  1  0  0  0  0  0  0  0  0  0
   28.7260   42.3368   20.9922 O   0  0  0  0  0  0  0  0  0  0  0  0
   27.5487   40.4936   22.0312 C   0  0  1  0  0  0  0  0  0  0  0  0
   26.7616   40.2936   20.8565 O   0  0  0  0  0  0  0  0  0  0  0  0
   28.7548   39.5592   21.9598 C   0  0  0  0  0  0  0  0  0  0  0  0
   27.1898   37.9084   23.6322 N   0  0  0  0  0  0  0  0  0  0  0  0
   26.4296   37.1401   24.4627 C   0  0  0  0  0  0  0  0  0  0  0  0
   26.0808   37.5743   25.5889 O   0  0  0  0  0  0  0  0  0  0  0  0
   26.0451   35.8947   24.0845 N   0  0  0  0  0  0  0  0  0  0  0  0
   26.4069   35.3906   22.8779 C   0  0  0  0  0  0  0  0  0  0  0  0
   27.1811   36.1634   22.0199 C   0  0  1  0  0  0  0  0  0  0  0  0
   26.0504   34.2367   22.5332 O   0  0  0  0  0  0  0  0  0  0  0  0
   28.2917   36.4238   19.9817 C   0  0  1  0  0  0  0  0  0  0  0  0
   27.5422   35.6727   20.8143 N   0  0  0  0  0  0  0  0  0  0  0  0
   28.6594   35.9106   18.7428 C   0  0  0  0  0  0  0  0  0  0  0  0
   29.4294   36.6615   17.8615 C   0  0  2  0  0  0  0  0  0  0  0  0
   29.7928   36.0434   16.5359 C   0  0  0  0  0  0  0  0  0  0  0  0
   29.8405   37.9507   18.2235 C   0  0  2  0  0  0  0  0  0  0  0  0
   30.5982   38.7465   17.4101 N   0  0  0  0  0  0  0  0  0  0  0  0
   29.4636   38.4535   19.4748 C   0  0  0  0  0  0  0  0  0  0  0  0
   28.6926   37.7035   20.3623 C   0  0  2  0  0  0  0  0  0  0  0  0
   27.5767   37.4473   22.4077 C   0  0  2  0  0  0  0  0  0  0  0  0
   28.3373   38.1983   21.5701 N   0  0  0  0  0  0  0  0  0  0  0  0
   32.0331   38.5448   17.3408 C   0  0  0  0  0  0  0  0  0  0  0  0
   30.0248   39.8026   16.5924 C   0  0  0  0  0  0  0  0  0  0  0  0
  1  2  1  0  0  0  0
  3  1  1  1  0  0  0
  3  4  1  0  0  0  0
  3  5  1  0  0  0  0
  5  6  1  6  0  0  0
  5  7  1  0  0  0  0
  7  8  1  6  0  0  0
  7  9  1  0  0  0  0
  9 27  1  0  0  0  0
 10 11  1  0  0  0  0
 11 12  2  0  0  0  0
 11 13  1  0  0  0  0
 13 14  1  0  0  0  0
 14 16  2  0  0  0  0
 15 14  1  6  0  0  0
 15 18  1  0  0  0  0
 15 26  1  0  0  0  0
 17 19  1  6  0  0  0
 17 25  1  0  0  0  0
 17 18  1  0  0  0  0
 19 20  1  0  0  0  0
 20 21  1  1  0  0  0
 20 22  1  0  0  0  0
 22 23  1  1  0  0  0
 22 24  1  0  0  0  0
 23 28  1  0  0  0  0
 23 29  1  0  0  0  0
 25 24  1  1  0  0  0
 25 27  1  0  0  0  0
 26 10  1  1  0  0  0
 26 27  1  0  0  0  0
M  END
>  <CHROM.1>
176.24770196,-177.60359076,176.43344325,-166.85356213,-80.52299071,111.47493159
28.22710282,38.54877175,21.29825866,-2.39161924,-1.02581079,-2.66130517

>  <Name>
ligand

>  <RI>
0

>  <Rbt.Current_Directory>
/home/itssahil/PROJECTS/Mol_Feturizer/New_Systems/rnas/3F4H

>  <Rbt.Executable>
rbdock ($Id: //depot/dev/client3/rdock/2013.1/src/exe/rbdock.cxx#4 $)

>  <Rbt.Library>
libRbt.so (2013.1, Build901 2013/11/27)

>  <Rbt.Parameter_File>
/export/apps/rDock/src/rDock_2013.1_src/data/scripts/dock_solv.prm

>  <Rbt.Receptor>
prm/pocket_docking_8.prm

>  <SCORE>
-47.6828

>  <SCORE.INTER>
-30.4392

>  <SCORE.INTER.CONST>
1

>  <SCORE.INTER.POLAR>
0

>  <SCORE.INTER.ROT>
6

>  <SCORE.INTER.SOLV>
13.4259

>  <SCORE.INTER.VDW>
-32.3681

>  <SCORE.INTER.norm>
-1.04963

>  <SCORE.INTRA>
-17.2436

>  <SCORE.INTRA.DIHEDRAL>
-4.10085

>  <SCORE.INTRA.DIHEDRAL.0>
6.83446

>  <SCORE.INTRA.POLAR>
0

>  <SCORE.INTRA.POLAR.0>
0

>  <SCORE.INTRA.REPUL>
0

>  <SCORE.INTRA.REPUL.0>
0

>  <SCORE.INTRA.SOLV>
-0.151281

>  <SCORE.INTRA.SOLV.lig_0>
-26.4601

>  <SCORE.INTRA.VDW>
-15.1175

>  <SCORE.INTRA.VDW.0>
13.7853

>  <SCORE.INTRA.norm>
-0.594606

>  <SCORE.RESTR>
0

>  <SCORE.RESTR.CAVITY>
0

>  <SCORE.RESTR.norm>
0

>  <SCORE.SYSTEM>
0

>  <SCORE.SYSTEM.CONST>
0

>  <SCORE.SYSTEM.DIHEDRAL>
0

>  <SCORE.SYSTEM.SOLV>
0

>  <SCORE.SYSTEM.norm>
0

>  <SCORE.heavy>
29

>  <SCORE.norm>
-1.64424

>  <RMSD>
6.023

$$$$
ligand
 OpenBabel11021811473D
libRbt.so/2013.1/901 2013/11/27
 29 31  0  0  0  0  0  0  0  0999 V2000
   28.1378   42.0951   24.5707 C   0  0  0  0  0  0  0  0  0  0  0  0
   26.9276   42.8514   24.6822 O   0  0  0  0  0  0  0  0  0  0  0  0
   28.8261   42.4382   23.2566 C   0  0  1  0  0  0  0  0  0  0  0  0
   30.0889   41.7804   23.2212 O   0  0  0  0  0  0  0  0  0  0  0  0
   27.9699   42.0032   22.0743 C   0  0  1  0  0  0  0  0  0  0  0  0
   28.6899   42.3296   20.8911 O   0  0  0  0  0  0  0  0  0  0  0  0
   27.5871   40.5203   22.0630 C   0  0  1  0  0  0  0  0  0  0  0  0
   26.7354   40.2817   20.9418 O   0  0  0  0  0  0  0  0  0  0  0  0
   28.7880   39.5827   21.9555 C   0  0  0  0  0  0  0  0  0  0  0  0
   27.2239   37.9469   23.6434 N   0  0  0  0  0  0  0  0  0  0  0  0
   26.4645   37.1859   24.4814 C   0  0  0  0  0  0  0  0  0  0  0  0
   26.1289   37.6244   25.6099 O   0  0  0  0  0  0  0  0  0  0  0  0
   26.0667   35.9431   24.1081 N   0  0  0  0  0  0  0  0  0  0  0  0
   26.4142   35.4346   22.8992 C   0  0  0  0  0  0  0  0  0  0  0  0
   27.1873   36.1999   22.0336 C   0  0  1  0  0  0  0  0  0  0  0  0
   26.0454   34.2831   22.5590 O   0  0  0  0  0  0  0  0  0  0  0  0
   28.2827   36.4487   19.9857 C   0  0  1  0  0  0  0  0  0  0  0  0
   27.5342   35.7047   20.8257 N   0  0  0  0  0  0  0  0  0  0  0  0
   28.6356   35.9309   18.7444 C   0  0  0  0  0  0  0  0  0  0  0  0
   29.4042   36.6744   17.8556 C   0  0  2  0  0  0  0  0  0  0  0  0
   29.7513   36.0516   16.5278 C   0  0  0  0  0  0  0  0  0  0  0  0
   29.8288   37.9606   18.2124 C   0  0  2  0  0  0  0  0  0  0  0  0
   30.5860   38.7492   17.3914 N   0  0  0  0  0  0  0  0  0  0  0  0
   29.4667   38.4681   19.4661 C   0  0  0  0  0  0  0  0  0  0  0  0
   28.6971   37.7255   20.3611 C   0  0  2  0  0  0  0  0  0  0  0  0
   27.5966   37.4811   22.4162 C   0  0  2  0  0  0  0  0  0  0  0  0
   28.3561   38.2248   21.5713 N   0  0  0  0  0  0  0  0  0  0  0  0
   32.0266   38.5813   17.3613 C   0  0  0  0  0  0  0  0  0  0  0  0
   30.0067   39.7647   16.5277 C   0  0  0  0  0  0  0  0  0  0  0  0
  1  2  1  0  0  0  0
  3  1  1  1  0  0  0
  3  4  1  0  0  0  0
  3  5  1  0  0  0  0
  5  6  1  6  0  0  0
  5  7  1  0  0  0  0
  7  8  1  6  0  0  0
  7  9  1  0  0  0  0
  9 27  1  0  0  0  0
 10 11  1  0  0  0  0
 11 12  2  0  0  0  0
 11 13  1  0  0  0  0
 13 14  1  0  0  0  0
 14 16  2  0  0  0  0
 15 14  1  6  0  0  0
 15 18  1  0  0  0  0
 15 26  1  0  0  0  0
 17 19  1  6  0  0  0
 17 25  1  0  0  0  0
 17 18  1  0  0  0  0
 19 20  1  0  0  0  0
 20 21  1  1  0  0  0
 20 22  1  0  0  0  0
 22 23  1  1  0  0  0
 22 24  1  0  0  0  0
 23 28  1  0  0  0  0
 23 29  1  0  0  0  0
 25 24  1  1  0  0  0
 25 27  1  0  0  0  0
 26 10  1  1  0  0  0
 26 27  1  0  0  0  0
M  END
>  <CHROM.1>
174.32757546,-178.75575859,177.06918144,-164.08654504,-83.65281485,112.60147536
28.25445410,38.58409127,21.28866745,-2.35767648,-1.02956326,-2.64078138

>  <Name>
ligand

>  <RI>
0

>  <Rbt.Current_Directory>
/home/itssahil/PROJECTS/Mol_Feturizer/New_Systems/rnas/3F4H

>  <Rbt.Executable>
rbdock ($Id: //depot/dev/client3/rdock/2013.1/src/exe/rbdock.cxx#4 $)

>  <Rbt.Library>
libRbt.so (2013.1, Build901 2013/11/27)

>  <Rbt.Parameter_File>
/export/apps/rDock/src/rDock_2013.1_src/data/scripts/dock_solv.prm

>  <Rbt.Receptor>
prm/blind_docking_60.prm

>  <SCORE>
-47.6366

>  <SCORE.INTER>
-30.5245

>  <SCORE.INTER.CONST>
1

>  <SCORE.INTER.POLAR>
0

>  <SCORE.INTER.ROT>
6

>  <SCORE.INTER.SOLV>
13.6899

>  <SCORE.INTER.VDW>
-32.513

>  <SCORE.INTER.norm>
-1.05257

>  <SCORE.INTRA>
-17.1121

>  <SCORE.INTRA.DIHEDRAL>
-3.80159

>  <SCORE.INTRA.DIHEDRAL.0>
6.83446

>  <SCORE.INTRA.POLAR>
0

>  <SCORE.INTRA.POLAR.0>
0

>  <SCORE.INTRA.REPUL>
0

>  <SCORE.INTRA.REPUL.0>
0

>  <SCORE.INTRA.SOLV>
-0.154444

>  <SCORE.INTRA.SOLV.lig_0>
-26.4601

>  <SCORE.INTRA.VDW>
-15.1341

>  <SCORE.INTRA.VDW.0>
13.7853

>  <SCORE.INTRA.norm>
-0.590074

>  <SCORE.RESTR>
0

>  <SCORE.RESTR.CAVITY>
0

>  <SCORE.RESTR.norm>
0

>  <SCORE.SYSTEM>
0

>  <SCORE.SYSTEM.CONST>
0

>  <SCORE.SYSTEM.DIHEDRAL>
0

>  <SCORE.SYSTEM.SOLV>
0

>  <SCORE.SYSTEM.norm>
0

>  <SCORE.heavy>
29

>  <SCORE.norm>
-1.64264

>  <RMSD>
6.024

$$$$
ligand
 OpenBabel11021811473D
libRbt.so/2013.1/901 2013/11/27
 29 31  0  0  0  0  0  0  0  0999 V2000
   27.5683   42.3635   24.5018 C   0  0  0  0  0  0  0  0  0  0  0  0
   27.5295   40.9660   24.8088 O   0  0  0  0  0  0  0  0  0  0  0  0
   28.4171   42.5817   23.2568 C   0  0  1  0  0  0  0  0  0  0  0  0
   29.6343   41.8574   23.4054 O   0  0  0  0  0  0  0  0  0  0  0  0
   27.6725   42.1150   22.0126 C   0  0  1  0  0  0  0  0  0  0  0  0
   28.4756   42.4569   20.8889 O   0  0  0  0  0  0  0  0  0  0  0  0
   27.3362   40.6211   21.9818 C   0  0  1  0  0  0  0  0  0  0  0  0
   26.5496   40.3587   20.8190 O   0  0  0  0  0  0  0  0  0  0  0  0
   28.5690   39.7208   21.9346 C   0  0  0  0  0  0  0  0  0  0  0  0
   27.1462   38.0044   23.6669 N   0  0  0  0  0  0  0  0  0  0  0  0
   26.4543   37.2042   24.5266 C   0  0  0  0  0  0  0  0  0  0  0  0
   26.1340   37.6230   25.6670 O   0  0  0  0  0  0  0  0  0  0  0  0
   26.1080   35.9435   24.1621 N   0  0  0  0  0  0  0  0  0  0  0  0
   26.4410   35.4555   22.9407 C   0  0  0  0  0  0  0  0  0  0  0  0
   27.1455   36.2608   22.0530 C   0  0  1  0  0  0  0  0  0  0  0  0
   26.1203   34.2875   22.6087 O   0  0  0  0  0  0  0  0  0  0  0  0
   28.1591   36.5687   19.9714 C   0  0  1  0  0  0  0  0  0  0  0  0
   27.4773   35.7861   20.8327 N   0  0  0  0  0  0  0  0  0  0  0  0
   28.4970   36.0718   18.7174 C   0  0  0  0  0  0  0  0  0  0  0  0
   29.1973   36.8551   17.8066 C   0  0  2  0  0  0  0  0  0  0  0  0
   29.5318   36.2532   16.4660 C   0  0  0  0  0  0  0  0  0  0  0  0
   29.5675   38.1606   18.1538 C   0  0  2  0  0  0  0  0  0  0  0  0
   30.2564   38.9882   17.3113 N   0  0  0  0  0  0  0  0  0  0  0  0
   29.2214   38.6467   19.4205 C   0  0  0  0  0  0  0  0  0  0  0  0
   28.5203   37.8643   20.3375 C   0  0  2  0  0  0  0  0  0  0  0  0
   27.5016   37.5604   22.4266 C   0  0  2  0  0  0  0  0  0  0  0  0
   28.1942   38.3433   21.5599 N   0  0  0  0  0  0  0  0  0  0  0  0
   31.7053   38.9300   17.2721 C   0  0  0  0  0  0  0  0  0  0  0  0
   29.5950   39.9392   16.4332 C   0  0  0  0  0  0  0  0  0  0  0  0
  1  2  1  0  0  0  0
  3  1  1  1  0  0  0
  3  4  1  0  0  0  0
  3  5  1  0  0  0  0
  5  6  1  6  0  0  0
  5  7  1  0  0  0  0
  7  8  1  6  0  0  0
  7  9  1  0  0  0  0
  9 27  1  0  0  0  0
 10 11  1  0  0  0  0
 11 12  2  0  0  0  0
 11 13  1  0  0  0  0
 13 14  1  0  0  0  0
 14 16  2  0  0  0  0
 15 14  1  6  0  0  0
 15 18  1  0  0  0  0
 15 26  1  0  0  0  0
 17 19  1  6  0  0  0
 17 25  1  0  0  0  0
 17 18  1  0  0  0  0
 19 20  1  0  0  0  0
 20 21  1  1  0  0  0
 20 22  1  0  0  0  0
 22 23  1  1  0  0  0
 22 24  1  0  0  0  0
 23 28  1  0  0  0  0
 23 29  1  0  0  0  0
 25 24  1  1  0  0  0
 25 27  1  0  0  0  0
 26 10  1  1  0  0  0
 26 27  1  0  0  0  0
M  END
>  <CHROM.1>
-47.80771197,175.02345658,175.27793646,-165.42852279,-86.06199079,108.33726032
28.09357319,38.62488161,21.28001412,-2.49545255,-1.09254318,-2.63173392

>  <Name>
ligand

>  <RI>
0

>  <Rbt.Current_Directory>
/home/itssahil/PROJECTS/Mol_Feturizer/New_Systems/rnas/3F4H

>  <Rbt.Executable>
rbdock ($Id: //depot/dev/client3/rdock/2013.1/src/exe/rbdock.cxx#4 $)

>  <Rbt.Library>
libRbt.so (2013.1, Build901 2013/11/27)

>  <Rbt.Parameter_File>
/export/apps/rDock/src/rDock_2013.1_src/data/scripts/dock_solv.prm

>  <Rbt.Receptor>
prm/pocket_docking_4.prm

>  <SCORE>
-46.216

>  <SCORE.INTER>
-29.4287

>  <SCORE.INTER.CONST>
1

>  <SCORE.INTER.POLAR>
0

>  <SCORE.INTER.ROT>
6

>  <SCORE.INTER.SOLV>
12.3817

>  <SCORE.INTER.VDW>
-31.3464

>  <SCORE.INTER.norm>
-1.01478

>  <SCORE.INTRA>
-16.8121

>  <SCORE.INTRA.DIHEDRAL>
-3.41031

>  <SCORE.INTRA.DIHEDRAL.0>
6.83446

>  <SCORE.INTRA.POLAR>
0

>  <SCORE.INTRA.POLAR.0>
0

>  <SCORE.INTRA.REPUL>
0

>  <SCORE.INTRA.REPUL.0>
0

>  <SCORE.INTRA.SOLV>
0.587905

>  <SCORE.INTRA.SOLV.lig_0>
-26.4601

>  <SCORE.INTRA.VDW>
-15.4009

>  <SCORE.INTRA.VDW.0>
13.7853

>  <SCORE.INTRA.norm>
-0.579729

>  <SCORE.RESTR>
0.024832

>  <SCORE.RESTR.CAVITY>
0.024832

>  <SCORE.RESTR.norm>
0.000856275

>  <SCORE.SYSTEM>
0

>  <SCORE.SYSTEM.CONST>
0

>  <SCORE.SYSTEM.DIHEDRAL>
0

>  <SCORE.SYSTEM.SOLV>
0

>  <SCORE.SYSTEM.norm>
0

>  <SCORE.heavy>
29

>  <SCORE.norm>
-1.59366

>  <RMSD>
6.029

$$$$
ligand
 OpenBabel11021811473D
libRbt.so/2013.1/901 2013/11/27
 29 31  0  0  0  0  0  0  0  0999 V2000
   29.9919   41.7982   23.4988 C   0  0  0  0  0  0  0  0  0  0  0  0
   30.7197   42.0893   24.6965 O   0  0  0  0  0  0  0  0  0  0  0  0
   28.5334   42.1919   23.6881 C   0  0  1  0  0  0  0  0  0  0  0  0
   28.4774   43.5740   24.0274 O   0  0  0  0  0  0  0  0  0  0  0  0
   27.7379   41.9269   22.4164 C   0  0  1  0  0  0  0  0  0  0  0  0
   28.4853   42.4670   21.3327 O   0  0  0  0  0  0  0  0  0  0  0  0
   27.4166   40.4534   22.1491 C   0  0  1  0  0  0  0  0  0  0  0  0
   26.6238   40.3714   20.9641 O   0  0  0  0  0  0  0  0  0  0  0  0
   28.6582   39.5862   21.9512 C   0  0  0  0  0  0  0  0  0  0  0  0
   27.1116   37.9049   23.6103 N   0  0  0  0  0  0  0  0  0  0  0  0
   26.3593   37.1219   24.4342 C   0  0  0  0  0  0  0  0  0  0  0  0
   25.9854   37.5521   25.5538 O   0  0  0  0  0  0  0  0  0  0  0  0
   26.0099   35.8660   24.0565 N   0  0  0  0  0  0  0  0  0  0  0  0
   26.3996   35.3659   22.8569 C   0  0  0  0  0  0  0  0  0  0  0  0
   27.1661   36.1536   22.0056 C   0  0  1  0  0  0  0  0  0  0  0  0
   26.0756   34.2023   22.5126 O   0  0  0  0  0  0  0  0  0  0  0  0
   28.2968   36.4326   19.9810 C   0  0  1  0  0  0  0  0  0  0  0  0
   27.5547   35.6669   20.8071 N   0  0  0  0  0  0  0  0  0  0  0  0
   28.6930   35.9233   18.7493 C   0  0  0  0  0  0  0  0  0  0  0  0
   29.4562   36.6890   17.8748 C   0  0  2  0  0  0  0  0  0  0  0  0
   29.8517   36.0744   16.5567 C   0  0  0  0  0  0  0  0  0  0  0  0
   29.8313   37.9892   18.2364 C   0  0  2  0  0  0  0  0  0  0  0  0
   30.5802   38.7998   17.4294 N   0  0  0  0  0  0  0  0  0  0  0  0
   29.4260   38.4878   19.4805 C   0  0  0  0  0  0  0  0  0  0  0  0
   28.6617   37.7231   20.3611 C   0  0  2  0  0  0  0  0  0  0  0  0
   27.5255   37.4483   22.3929 C   0  0  2  0  0  0  0  0  0  0  0  0
   28.2787   38.2141   21.5621 N   0  0  0  0  0  0  0  0  0  0  0  0
   32.0281   38.7447   17.4995 C   0  0  0  0  0  0  0  0  0  0  0  0
   29.9851   39.7293   16.4835 C   0  0  0  0  0  0  0  0  0  0  0  0
  1  2  1  0  0  0  0
  3  1  1  6  0  0  0
  3  4  1  0  0  0  0
  3  5  1  0  0  0  0
  5  6  1  6  0  0  0
  5  7  1  0  0  0  0
  7  8  1  6  0  0  0
  7  9  1  0  0  0  0
  9 27  1  0  0  0  0
 10 11  1  0  0  0  0
 11 12  2  0  0  0  0
 11 13  1  0  0  0  0
 13 14  1  0  0  0  0
 14 16  2  0  0  0  0
 15 14  1  6  0  0  0
 15 18  1  0  0  0  0
 15 26  1  0  0  0  0
 17 19  1  6  0  0  0
 17 25  1  0  0  0  0
 17 18  1  0  0  0  0
 19 20  1  0  0  0  0
 20 21  1  1  0  0  0
 20 22  1  0  0  0  0
 22 23  1  1  0  0  0
 22 24  1  0  0  0  0
 23 28  1  0  0  0  0
 23 29  1  0  0  0  0
 25 24  1  1  0  0  0
 25 27  1  0  0  0  0
 26 10  1  1  0  0  0
 26 27  1  0  0  0  0
M  END
>  <CHROM.1>
57.42241414,-47.56108335,177.49494221,-174.18340136,-87.99730764,117.55997193
28.35277916,38.60174438,21.32585035,-2.05164186,-1.00557211,-2.48824557

>  <Name>
ligand

>  <RI>
0

>  <Rbt.Current_Directory>
/home/itssahil/PROJECTS/Mol_Feturizer/New_Systems/rnas/3F4H

>  <Rbt.Executable>
rbdock ($Id: //depot/dev/client3/rdock/2013.1/src/exe/rbdock.cxx#4 $)

>  <Rbt.Library>
libRbt.so (2013.1, Build901 2013/11/27)

>  <Rbt.Parameter_File>
/export/apps/rDock/src/rDock_2013.1_src/data/scripts/dock_solv.prm

>  <Rbt.Receptor>
prm/pocket_docking_6.prm

>  <SCORE>
-45.9172

>  <SCORE.INTER>
-29.6794

>  <SCORE.INTER.CONST>
1

>  <SCORE.INTER.POLAR>
0

>  <SCORE.INTER.ROT>
6

>  <SCORE.INTER.SOLV>
14.7887

>  <SCORE.INTER.VDW>
-32.3159

>  <SCORE.INTER.norm>
-1.02343

>  <SCORE.INTRA>
-16.2378

>  <SCORE.INTRA.DIHEDRAL>
-4.08854

>  <SCORE.INTRA.DIHEDRAL.0>
6.83446

>  <SCORE.INTRA.POLAR>
0

>  <SCORE.INTRA.POLAR.0>
0

>  <SCORE.INTRA.REPUL>
0

>  <SCORE.INTRA.REPUL.0>
0

>  <SCORE.INTRA.SOLV>
-0.433512

>  <SCORE.INTRA.SOLV.lig_0>
-26.4601

>  <SCORE.INTRA.VDW>
-13.9767

>  <SCORE.INTRA.VDW.0>
13.7853

>  <SCORE.INTRA.norm>
-0.559923

>  <SCORE.RESTR>
0

>  <SCORE.RESTR.CAVITY>
0

>  <SCORE.RESTR.norm>
0

>  <SCORE.SYSTEM>
0

>  <SCORE.SYSTEM.CONST>
0

>  <SCORE.SYSTEM.DIHEDRAL>
0

>  <SCORE.SYSTEM.SOLV>
0

>  <SCORE.SYSTEM.norm>
0

>  <SCORE.heavy>
29

>  <SCORE.norm>
-1.58335

>  <RMSD>
6.032

$$$$
ligand
 OpenBabel11021811473D
libRbt.so/2013.1/901 2013/11/27
 29 31  0  0  0  0  0  0  0  0999 V2000
   28.9270   43.3120   24.0263 C   0  0  0  0  0  0  0  0  0  0  0  0
   29.7579   43.3939   25.1890 O   0  0  0  0  0  0  0  0  0  0  0  0
   28.8172   41.8581   23.5878 C   0  0  1  0  0  0  0  0  0  0  0  0
   28.2373   41.1070   24.6499 O   0  0  0  0  0  0  0  0  0  0  0  0
   27.9652   41.7410   22.3306 C   0  0  1  0  0  0  0  0  0  0  0  0
   28.6895   42.3587   21.2729 O   0  0  0  0  0  0  0  0  0  0  0  0
   27.5824   40.3108   21.9389 C   0  0  1  0  0  0  0  0  0  0  0  0
   26.8382   40.3594   20.7210 O   0  0  0  0  0  0  0  0  0  0  0  0
   28.7864   39.3960   21.7237 C   0  0  0  0  0  0  0  0  0  0  0  0
   27.2350   37.7691   23.4319 N   0  0  0  0  0  0  0  0  0  0  0  0
   26.4821   37.0125   24.2795 C   0  0  0  0  0  0  0  0  0  0  0  0
   26.1579   37.4555   25.4096 O   0  0  0  0  0  0  0  0  0  0  0  0
   26.0783   35.7693   23.9143 N   0  0  0  0  0  0  0  0  0  0  0  0
   26.4133   35.2559   22.7039 C   0  0  0  0  0  0  0  0  0  0  0  0
   27.1798   36.0167   21.8285 C   0  0  1  0  0  0  0  0  0  0  0  0
   26.0391   34.1040   22.3712 O   0  0  0  0  0  0  0  0  0  0  0  0
   28.2564   36.2563   19.7696 C   0  0  1  0  0  0  0  0  0  0  0  0
   27.5143   35.5167   20.6191 N   0  0  0  0  0  0  0  0  0  0  0  0
   28.5966   35.7335   18.5268 C   0  0  0  0  0  0  0  0  0  0  0  0
   29.3583   36.4724   17.6282 C   0  0  2  0  0  0  0  0  0  0  0  0
   29.6916   35.8443   16.2994 C   0  0  0  0  0  0  0  0  0  0  0  0
   29.7887   37.7590   17.9766 C   0  0  2  0  0  0  0  0  0  0  0  0
   30.5397   38.5432   17.1458 N   0  0  0  0  0  0  0  0  0  0  0  0
   29.4395   38.2714   19.2319 C   0  0  0  0  0  0  0  0  0  0  0  0
   28.6769   37.5335   20.1367 C   0  0  2  0  0  0  0  0  0  0  0  0
   27.5952   37.2983   22.2028 C   0  0  2  0  0  0  0  0  0  0  0  0
   28.3483   38.0376   21.3482 N   0  0  0  0  0  0  0  0  0  0  0  0
   31.9873   38.4616   17.1940 C   0  0  0  0  0  0  0  0  0  0  0  0
   29.9472   39.4698   16.1955 C   0  0  0  0  0  0  0  0  0  0  0  0
  1  2  1  0  0  0  0
  3  1  1  1  0  0  0
  3  4  1  0  0  0  0
  3  5  1  0  0  0  0
  5  6  1  6  0  0  0
  5  7  1  0  0  0  0
  7  8  1  6  0  0  0
  7  9  1  0  0  0  0
  9 27  1  0  0  0  0
 10 11  1  0  0  0  0
 11 12  2  0  0  0  0
 11 13  1  0  0  0  0
 13 14  1  0  0  0  0
 14 16  2  0  0  0  0
 15 14  1  6  0  0  0
 15 18  1  0  0  0  0
 15 26  1  0  0  0  0
 17 19  1  6  0  0  0
 17 25  1  0  0  0  0
 17 18  1  0  0  0  0
 19 20  1  0  0  0  0
 20 21  1  1  0  0  0
 20 22  1  0  0  0  0
 22 23  1  1  0  0  0
 22 24  1  0  0  0  0
 23 28  1  0  0  0  0
 23 29  1  0  0  0  0
 25 24  1  1  0  0  0
 25 27  1  0  0  0  0
 26 10  1  1  0  0  0
 26 27  1  0  0  0  0
M  END
>  <CHROM.1>
60.22386376,67.58907538,-177.63533325,-179.93391805,-89.47589560,116.73146407
28.31237907,38.45748230,21.21416954,-1.97483834,-1.03430215,-2.47315082

>  <Name>
ligand

>  <RI>
0

>  <Rbt.Current_Directory>
/home/itssahil/PROJECTS/Mol_Feturizer/New_Systems/rnas/3F4H

>  <Rbt.Executable>
rbdock ($Id: //depot/dev/client3/rdock/2013.1/src/exe/rbdock.cxx#4 $)

>  <Rbt.Library>
libRbt.so (2013.1, Build901 2013/11/27)

>  <Rbt.Parameter_File>
/export/apps/rDock/src/rDock_2013.1_src/data/scripts/dock_solv.prm

>  <Rbt.Receptor>
prm/pocket_docking_6.prm

>  <SCORE>
-48.4728

>  <SCORE.INTER>
-30.2825

>  <SCORE.INTER.CONST>
1

>  <SCORE.INTER.POLAR>
0

>  <SCORE.INTER.ROT>
6

>  <SCORE.INTER.SOLV>
13.5653

>  <SCORE.INTER.VDW>
-32.3101

>  <SCORE.INTER.norm>
-1.04423

>  <SCORE.INTRA>
-18.1903

>  <SCORE.INTRA.DIHEDRAL>
-4.5833

>  <SCORE.INTRA.DIHEDRAL.0>
6.83446

>  <SCORE.INTRA.POLAR>
0

>  <SCORE.INTRA.POLAR.0>
0

>  <SCORE.INTRA.REPUL>
0

>  <SCORE.INTRA.REPUL.0>
0

>  <SCORE.INTRA.SOLV>
-0.514516

>  <SCORE.INTRA.SOLV.lig_0>
-26.4601

>  <SCORE.INTRA.VDW>
-15.6414

>  <SCORE.INTRA.VDW.0>
13.7853

>  <SCORE.INTRA.norm>
-0.627251

>  <SCORE.RESTR>
0

>  <SCORE.RESTR.CAVITY>
0

>  <SCORE.RESTR.norm>
0

>  <SCORE.SYSTEM>
0

>  <SCORE.SYSTEM.CONST>
0

>  <SCORE.SYSTEM.DIHEDRAL>
0

>  <SCORE.SYSTEM.SOLV>
0

>  <SCORE.SYSTEM.norm>
0

>  <SCORE.heavy>
29

>  <SCORE.norm>
-1.67148

>  <RMSD>
6.040

$$$$
ligand
 OpenBabel11021811473D
libRbt.so/2013.1/901 2013/11/27
 29 31  0  0  0  0  0  0  0  0999 V2000
   28.6397   43.1068   24.5813 C   0  0  0  0  0  0  0  0  0  0  0  0
   29.5955   43.8291   23.7980 O   0  0  0  0  0  0  0  0  0  0  0  0
   28.4990   41.6955   24.0275 C   0  0  1  0  0  0  0  0  0  0  0  0
   27.7308   40.9232   24.9449 O   0  0  0  0  0  0  0  0  0  0  0  0
   27.8236   41.7210   22.6623 C   0  0  1  0  0  0  0  0  0  0  0  0
   28.6816   42.4376   21.7821 O   0  0  0  0  0  0  0  0  0  0  0  0
   27.5002   40.3444   22.0743 C   0  0  1  0  0  0  0  0  0  0  0  0
   26.9339   40.5289   20.7763 O   0  0  0  0  0  0  0  0  0  0  0  0
   28.7229   39.4398   21.9350 C   0  0  0  0  0  0  0  0  0  0  0  0
   27.1378   37.7662   23.5652 N   0  0  0  0  0  0  0  0  0  0  0  0
   26.3672   36.9866   24.3755 C   0  0  0  0  0  0  0  0  0  0  0  0
   25.9952   37.4097   25.4985 O   0  0  0  0  0  0  0  0  0  0  0  0
   25.9975   35.7420   23.9804 N   0  0  0  0  0  0  0  0  0  0  0  0
   26.3845   35.2498   22.7767 C   0  0  0  0  0  0  0  0  0  0  0  0
   27.1694   36.0341   21.9392 C   0  0  1  0  0  0  0  0  0  0  0  0
   26.0416   34.0966   22.4163 O   0  0  0  0  0  0  0  0  0  0  0  0
   28.3156   36.3177   19.9240 C   0  0  1  0  0  0  0  0  0  0  0  0
   27.5556   35.5553   20.7367 N   0  0  0  0  0  0  0  0  0  0  0  0
   28.7091   35.8166   18.6880 C   0  0  0  0  0  0  0  0  0  0  0  0
   29.4905   36.5793   17.8270 C   0  0  2  0  0  0  0  0  0  0  0  0
   29.8820   35.9740   16.5034 C   0  0  0  0  0  0  0  0  0  0  0  0
   29.8869   37.8680   18.2067 C   0  0  2  0  0  0  0  0  0  0  0  0
   30.6544   38.6749   17.4136 N   0  0  0  0  0  0  0  0  0  0  0  0
   29.4840   38.3584   19.4548 C   0  0  0  0  0  0  0  0  0  0  0  0
   28.7015   37.5966   20.3220 C   0  0  2  0  0  0  0  0  0  0  0  0
   27.5499   37.3173   22.3444 C   0  0  2  0  0  0  0  0  0  0  0  0
   28.3210   38.0796   21.5270 N   0  0  0  0  0  0  0  0  0  0  0  0
   32.1001   38.5651   17.4614 C   0  0  0  0  0  0  0  0  0  0  0  0
   30.0815   39.6536   16.5043 C   0  0  0  0  0  0  0  0  0  0  0  0
  1  2  1  0  0  0  0
  3  1  1  1  0  0  0
  3  4  1  0  0  0  0
  3  5  1  0  0  0  0
  5  6  1  6  0  0  0
  5  7  1  0  0  0  0
  7  8  1  6  0  0  0
  7  9  1  0  0  0  0
  9 27  1  0  0  0  0
 10 11  1  0  0  0  0
 11 12  2  0  0  0  0
 11 13  1  0  0  0  0
 13 14  1  0  0  0  0
 14 16  2  0  0  0  0
 15 14  1  6  0  0  0
 15 18  1  0  0  0  0
 15 26  1  0  0  0  0
 17 19  1  6  0  0  0
 17 25  1  0  0  0  0
 17 18  1  0  0  0  0
 19 20  1  0  0  0  0
 20 21  1  1  0  0  0
 20 22  1  0  0  0  0
 22 23  1  1  0  0  0
 22 24  1  0  0  0  0
 23 28  1  0  0  0  0
 23 29  1  0  0  0  0
 25 24  1  1  0  0  0
 25 27  1  0  0  0  0
 26 10  1  1  0  0  0
 26 27  1  0  0  0  0
M  END
>  <CHROM.1>
170.01106076,63.33993209,-177.26522345,172.82959092,-86.17223174,114.92593842
28.27551139,38.50252933,21.35856336,-2.11107037,-1.01434373,-2.56550468

>  <Name>
ligand

>  <RI>
0

>  <Rbt.Current_Directory>
/home/itssahil/PROJECTS/Mol_Feturizer/New_Systems/rnas/3F4H

>  <Rbt.Executable>
rbdock ($Id: //depot/dev/client3/rdock/2013.1/src/exe/rbdock.cxx#4 $)

>  <Rbt.Library>
libRbt.so (2013.1, Build901 2013/11/27)

>  <Rbt.Parameter_File>
/export/apps/rDock/src/rDock_2013.1_src/data/scripts/dock_solv.prm

>  <Rbt.Receptor>
prm/blind_docking_100.prm

>  <SCORE>
-47.9189

>  <SCORE.INTER>
-30.2301

>  <SCORE.INTER.CONST>
1

>  <SCORE.INTER.POLAR>
0

>  <SCORE.INTER.ROT>
6

>  <SCORE.INTER.SOLV>
13.7002

>  <SCORE.INTER.VDW>
-32.3202

>  <SCORE.INTER.norm>
-1.04242

>  <SCORE.INTRA>
-17.6888

>  <SCORE.INTRA.DIHEDRAL>
-4.209

>  <SCORE.INTRA.DIHEDRAL.0>
6.83446

>  <SCORE.INTRA.POLAR>
0

>  <SCORE.INTRA.POLAR.0>
0

>  <SCORE.INTRA.REPUL>
0

>  <SCORE.INTRA.REPUL.0>
0

>  <SCORE.INTRA.SOLV>
-0.138331

>  <SCORE.INTRA.SOLV.lig_0>
-26.4601

>  <SCORE.INTRA.VDW>
-15.5151

>  <SCORE.INTRA.VDW.0>
13.7853

>  <SCORE.INTRA.norm>
-0.609959

>  <SCORE.RESTR>
0

>  <SCORE.RESTR.CAVITY>
0

>  <SCORE.RESTR.norm>
0

>  <SCORE.SYSTEM>
0

>  <SCORE.SYSTEM.CONST>
0

>  <SCORE.SYSTEM.DIHEDRAL>
0

>  <SCORE.SYSTEM.SOLV>
0

>  <SCORE.SYSTEM.norm>
0

>  <SCORE.heavy>
29

>  <SCORE.norm>
-1.65238

>  <RMSD>
6.044

$$$$
ligand
 OpenBabel11021811473D
libRbt.so/2013.1/901 2013/11/27
 29 31  0  0  0  0  0  0  0  0999 V2000
   27.4784   42.2936   24.4051 C   0  0  0  0  0  0  0  0  0  0  0  0
   27.9840   42.8303   25.6320 O   0  0  0  0  0  0  0  0  0  0  0  0
   28.5109   42.4954   23.3044 C   0  0  1  0  0  0  0  0  0  0  0  0
   29.6834   41.7612   23.6427 O   0  0  0  0  0  0  0  0  0  0  0  0
   27.9620   42.0267   21.9630 C   0  0  1  0  0  0  0  0  0  0  0  0
   28.9632   42.2852   20.9856 O   0  0  0  0  0  0  0  0  0  0  0  0
   27.5475   40.5532   21.9124 C   0  0  1  0  0  0  0  0  0  0  0  0
   26.8817   40.3132   20.6719 O   0  0  0  0  0  0  0  0  0  0  0  0
   28.7252   39.5861   22.0144 C   0  0  0  0  0  0  0  0  0  0  0  0
   27.1593   37.9182   23.6688 N   0  0  0  0  0  0  0  0  0  0  0  0
   26.3982   37.1415   24.4908 C   0  0  0  0  0  0  0  0  0  0  0  0
   26.0401   37.5681   25.6169 O   0  0  0  0  0  0  0  0  0  0  0  0
   26.0231   35.8959   24.1040 N   0  0  0  0  0  0  0  0  0  0  0  0
   26.3951   35.3999   22.8971 C   0  0  0  0  0  0  0  0  0  0  0  0
   27.1703   36.1813   22.0478 C   0  0  1  0  0  0  0  0  0  0  0  0
   26.0473   34.2458   22.5444 O   0  0  0  0  0  0  0  0  0  0  0  0
   28.2920   36.4582   20.0179 C   0  0  1  0  0  0  0  0  0  0  0  0
   27.5416   35.6987   20.8420 N   0  0  0  0  0  0  0  0  0  0  0  0
   28.6702   35.9533   18.7787 C   0  0  0  0  0  0  0  0  0  0  0  0
   29.4414   36.7129   17.9059 C   0  0  2  0  0  0  0  0  0  0  0  0
   29.8164   36.1035   16.5795 C   0  0  0  0  0  0  0  0  0  0  0  0
   29.8430   38.0025   18.2769 C   0  0  2  0  0  0  0  0  0  0  0  0
   30.6012   38.8066   17.4722 N   0  0  0  0  0  0  0  0  0  0  0  0
   29.4556   38.4969   19.5284 C   0  0  0  0  0  0  0  0  0  0  0  0
   28.6833   37.7381   20.4073 C   0  0  2  0  0  0  0  0  0  0  0  0
   27.5563   37.4655   22.4444 C   0  0  2  0  0  0  0  0  0  0  0  0
   28.3178   38.2249   21.6154 N   0  0  0  0  0  0  0  0  0  0  0  0
   29.9551   39.7953   16.6298 C   0  0  0  0  0  0  0  0  0  0  0  0
   32.0513   38.7204   17.4212 C   0  0  0  0  0  0  0  0  0  0  0  0
  1  2  1  0  0  0  0
  3  1  1  1  0  0  0
  3  4  1  0  0  0  0
  3  5  1  0  0  0  0
  5  6  1  6  0  0  0
  5  7  1  0  0  0  0
  7  8  1  6  0  0  0
  7  9  1  0  0  0  0
  9 27  1  0  0  0  0
 10 11  1  0  0  0  0
 11 12  2  0  0  0  0
 11 13  1  0  0  0  0
 13 14  1  0  0  0  0
 14 16  2  0  0  0  0
 15 14  1  6  0  0  0
 15 18  1  0  0  0  0
 15 26  1  0  0  0  0
 17 19  1  6  0  0  0
 17 25  1  0  0  0  0
 17 18  1  0  0  0  0
 19 20  1  0  0  0  0
 20 21  1  1  0  0  0
 20 22  1  0  0  0  0
 22 23  1  1  0  0  0
 22 24  1  0  0  0  0
 23 28  1  0  0  0  0
 23 29  1  0  0  0  0
 25 24  1  1  0  0  0
 25 27  1  0  0  0  0
 26 10  1  1  0  0  0
 26 27  1  0  0  0  0
M  END
>  <CHROM.1>
63.00226461,178.22910536,171.74988395,-165.38491570,95.99115025,104.31230779
28.25157713,38.59774250,21.34965591,-2.29810841,-1.03379065,-2.60234186

>  <Name>
ligand

>  <RI>
0

>  <Rbt.Current_Directory>
/home/itssahil/PROJECTS/Mol_Feturizer/New_Systems/rnas/3F4H

>  <Rbt.Executable>
rbdock ($Id: //depot/dev/client3/rdock/2013.1/src/exe/rbdock.cxx#4 $)

>  <Rbt.Library>
libRbt.so (2013.1, Build901 2013/11/27)

>  <Rbt.Parameter_File>
/export/apps/rDock/src/rDock_2013.1_src/data/scripts/dock_solv.prm

>  <Rbt.Receptor>
prm/blind_docking_60.prm

>  <SCORE>
-47.7962

>  <SCORE.INTER>
-30.2983

>  <SCORE.INTER.CONST>
1

>  <SCORE.INTER.POLAR>
0

>  <SCORE.INTER.ROT>
6

>  <SCORE.INTER.SOLV>
13.6946

>  <SCORE.INTER.VDW>
-32.3637

>  <SCORE.INTER.norm>
-1.04477

>  <SCORE.INTRA>
-17.4978

>  <SCORE.INTRA.DIHEDRAL>
-3.80564

>  <SCORE.INTRA.DIHEDRAL.0>
6.83446

>  <SCORE.INTRA.POLAR>
0

>  <SCORE.INTRA.POLAR.0>
0

>  <SCORE.INTRA.REPUL>
0

>  <SCORE.INTRA.REPUL.0>
0

>  <SCORE.INTRA.SOLV>
-0.248515

>  <SCORE.INTRA.SOLV.lig_0>
-26.4601

>  <SCORE.INTRA.VDW>
-15.4708

>  <SCORE.INTRA.VDW.0>
13.7853

>  <SCORE.INTRA.norm>
-0.603374

>  <SCORE.RESTR>
0

>  <SCORE.RESTR.CAVITY>
0

>  <SCORE.RESTR.norm>
0

>  <SCORE.SYSTEM>
0

>  <SCORE.SYSTEM.CONST>
0

>  <SCORE.SYSTEM.DIHEDRAL>
0

>  <SCORE.SYSTEM.SOLV>
0

>  <SCORE.SYSTEM.norm>
0

>  <SCORE.heavy>
29

>  <SCORE.norm>
-1.64814

>  <RMSD>
6.049

$$$$
ligand
 OpenBabel11021811473D
libRbt.so/2013.1/901 2013/11/27
 29 31  0  0  0  0  0  0  0  0999 V2000
   26.9655   41.6980   24.1717 C   0  0  0  0  0  0  0  0  0  0  0  0
   26.0974   40.6594   23.7062 O   0  0  0  0  0  0  0  0  0  0  0  0
   27.7483   42.2644   22.9950 C   0  0  1  0  0  0  0  0  0  0  0  0
   28.4149   43.4483   23.4219 O   0  0  0  0  0  0  0  0  0  0  0  0
   28.7574   41.2447   22.4828 C   0  0  1  0  0  0  0  0  0  0  0  0
   29.6057   40.9079   23.5744 O   0  0  0  0  0  0  0  0  0  0  0  0
   28.1468   39.9752   21.8819 C   0  0  1  0  0  0  0  0  0  0  0  0
   27.2969   40.3517   20.7978 O   0  0  0  0  0  0  0  0  0  0  0  0
   29.1879   38.9922   21.3502 C   0  0  0  0  0  0  0  0  0  0  0  0
   27.6665   37.5392   23.2331 N   0  0  0  0  0  0  0  0  0  0  0  0
   26.9337   36.8666   24.1652 C   0  0  0  0  0  0  0  0  0  0  0  0
   26.7876   37.3382   25.3205 O   0  0  0  0  0  0  0  0  0  0  0  0
   26.3580   35.6768   23.8573 N   0  0  0  0  0  0  0  0  0  0  0  0
   26.4982   35.1344   22.6216 C   0  0  0  0  0  0  0  0  0  0  0  0
   27.2417   35.8097   21.6603 C   0  0  1  0  0  0  0  0  0  0  0  0
   25.9653   34.0320   22.3420 O   0  0  0  0  0  0  0  0  0  0  0  0
   28.1029   35.9375   19.4930 C   0  0  1  0  0  0  0  0  0  0  0  0
   27.3830   35.2807   20.4256 N   0  0  0  0  0  0  0  0  0  0  0  0
   28.2437   35.3853   18.2246 C   0  0  0  0  0  0  0  0  0  0  0  0
   28.9774   36.0394   17.2411 C   0  0  2  0  0  0  0  0  0  0  0  0
   29.0904   35.3837   15.8888 C   0  0  0  0  0  0  0  0  0  0  0  0
   29.5825   37.2695   17.5289 C   0  0  2  0  0  0  0  0  0  0  0  0
   30.3182   37.9696   16.6136 N   0  0  0  0  0  0  0  0  0  0  0  0
   29.4330   37.8124   18.8109 C   0  0  0  0  0  0  0  0  0  0  0  0
   28.6992   37.1593   19.8006 C   0  0  2  0  0  0  0  0  0  0  0  0
   27.8342   37.0364   21.9757 C   0  0  2  0  0  0  0  0  0  0  0  0
   28.5643   37.6917   21.0368 N   0  0  0  0  0  0  0  0  0  0  0  0
   31.7096   37.6236   16.3933 C   0  0  0  0  0  0  0  0  0  0  0  0
   29.7626   39.0623   15.8325 C   0  0  0  0  0  0  0  0  0  0  0  0
  1  2  1  0  0  0  0
  3  1  1  1  0  0  0
  3  4  1  0  0  0  0
  3  5  1  0  0  0  0
  5  6  1  1  0  0  0
  5  7  1  0  0  0  0
  7  8  1  6  0  0  0
  7  9  1  0  0  0  0
  9 27  1  0  0  0  0
 10 11  1  0  0  0  0
 11 12  2  0  0  0  0
 11 13  1  0  0  0  0
 13 14  1  0  0  0  0
 14 16  2  0  0  0  0
 15 14  1  6  0  0  0
 15 18  1  0  0  0  0
 15 26  1  0  0  0  0
 17 19  1  6  0  0  0
 17 25  1  0  0  0  0
 17 18  1  0  0  0  0
 19 20  1  0  0  0  0
 20 21  1  1  0  0  0
 20 22  1  0  0  0  0
 22 23  1  1  0  0  0
 22 24  1  0  0  0  0
 23 28  1  0  0  0  0
 23 29  1  0  0  0  0
 25 24  1  1  0  0  0
 25 27  1  0  0  0  0
 26 10  1  1  0  0  0
 26 27  1  0  0  0  0
M  END
>  <CHROM.1>
169.35058914,-57.67352897,58.48730348,168.69004882,-82.40343555,124.84545718
28.17732112,38.07895247,20.98358401,-2.17834393,-1.08595007,-2.60459469

>  <Name>
ligand

>  <RI>
0

>  <Rbt.Current_Directory>
/home/itssahil/PROJECTS/Mol_Feturizer/New_Systems/rnas/3F4H

>  <Rbt.Executable>
rbdock ($Id: //depot/dev/client3/rdock/2013.1/src/exe/rbdock.cxx#4 $)

>  <Rbt.Library>
libRbt.so (2013.1, Build901 2013/11/27)

>  <Rbt.Parameter_File>
/export/apps/rDock/src/rDock_2013.1_src/data/scripts/dock_solv.prm

>  <Rbt.Receptor>
prm/pocket_docking_6.prm

>  <SCORE>
-43.6949

>  <SCORE.INTER>
-26.7

>  <SCORE.INTER.CONST>
1

>  <SCORE.INTER.POLAR>
0

>  <SCORE.INTER.ROT>
6

>  <SCORE.INTER.SOLV>
11.7049

>  <SCORE.INTER.VDW>
-29.3017

>  <SCORE.INTER.norm>
-0.92069

>  <SCORE.INTRA>
-16.9948

>  <SCORE.INTRA.DIHEDRAL>
-3.91383

>  <SCORE.INTRA.DIHEDRAL.0>
6.83446

>  <SCORE.INTRA.POLAR>
0

>  <SCORE.INTRA.POLAR.0>
0

>  <SCORE.INTRA.REPUL>
0

>  <SCORE.INTRA.REPUL.0>
0

>  <SCORE.INTRA.SOLV>
0.229312

>  <SCORE.INTRA.SOLV.lig_0>
-26.4601

>  <SCORE.INTRA.VDW>
-15.1526

>  <SCORE.INTRA.VDW.0>
13.7853

>  <SCORE.INTRA.norm>
-0.586029

>  <SCORE.RESTR>
0

>  <SCORE.RESTR.CAVITY>
0

>  <SCORE.RESTR.norm>
0

>  <SCORE.SYSTEM>
0

>  <SCORE.SYSTEM.CONST>
0

>  <SCORE.SYSTEM.DIHEDRAL>
0

>  <SCORE.SYSTEM.SOLV>
0

>  <SCORE.SYSTEM.norm>
0

>  <SCORE.heavy>
29

>  <SCORE.norm>
-1.50672

>  <RMSD>
6.049

$$$$
ligand
 OpenBabel11021811473D
libRbt.so/2013.1/901 2013/11/27
 29 31  0  0  0  0  0  0  0  0999 V2000
   27.5218   42.3065   24.4169 C   0  0  0  0  0  0  0  0  0  0  0  0
   28.0618   42.8365   25.6320 O   0  0  0  0  0  0  0  0  0  0  0  0
   28.5286   42.5020   23.2916 C   0  0  1  0  0  0  0  0  0  0  0  0
   29.7077   41.7674   23.6057 O   0  0  0  0  0  0  0  0  0  0  0  0
   27.9479   42.0284   21.9654 C   0  0  1  0  0  0  0  0  0  0  0  0
   28.9216   42.2924   20.9620 O   0  0  0  0  0  0  0  0  0  0  0  0
   27.5420   40.5521   21.9269 C   0  0  1  0  0  0  0  0  0  0  0  0
   26.8433   40.3071   20.7057 O   0  0  0  0  0  0  0  0  0  0  0  0
   28.7285   39.5929   21.9962 C   0  0  0  0  0  0  0  0  0  0  0  0
   27.1528   37.9370   23.6534 N   0  0  0  0  0  0  0  0  0  0  0  0
   26.3869   37.1662   24.4764 C   0  0  0  0  0  0  0  0  0  0  0  0
   26.0248   37.5998   25.5986 O   0  0  0  0  0  0  0  0  0  0  0  0
   26.0113   35.9190   24.0951 N   0  0  0  0  0  0  0  0  0  0  0  0
   26.3876   35.4156   22.8927 C   0  0  0  0  0  0  0  0  0  0  0  0
   27.1677   36.1909   22.0422 C   0  0  1  0  0  0  0  0  0  0  0  0
   26.0394   34.2601   22.5450 O   0  0  0  0  0  0  0  0  0  0  0  0
   28.2984   36.4544   20.0156 C   0  0  1  0  0  0  0  0  0  0  0  0
   27.5432   35.7008   20.8408 N   0  0  0  0  0  0  0  0  0  0  0  0
   28.6810   35.9418   18.7809 C   0  0  0  0  0  0  0  0  0  0  0  0
   29.4571   36.6952   17.9071 C   0  0  2  0  0  0  0  0  0  0  0  0
   29.8367   36.0776   16.5858 C   0  0  0  0  0  0  0  0  0  0  0  0
   29.8593   37.9862   18.2725 C   0  0  2  0  0  0  0  0  0  0  0  0
   30.6223   38.7845   17.4664 N   0  0  0  0  0  0  0  0  0  0  0  0
   29.4675   38.4883   19.5194 C   0  0  0  0  0  0  0  0  0  0  0  0
   28.6902   37.7359   20.3994 C   0  0  2  0  0  0  0  0  0  0  0  0
   27.5541   37.4766   22.4332 C   0  0  2  0  0  0  0  0  0  0  0  0
   28.3204   38.2301   21.6031 N   0  0  0  0  0  0  0  0  0  0  0  0
   29.9822   39.7767   16.6236 C   0  0  0  0  0  0  0  0  0  0  0  0
   32.0718   38.6885   17.4144 C   0  0  0  0  0  0  0  0  0  0  0  0
  1  2  1  0  0  0  0
  3  1  1  1  0  0  0
  3  4  1  0  0  0  0
  3  5  1  0  0  0  0
  5  6  1  6  0  0  0
  5  7  1  0  0  0  0
  7  8  1  6  0  0  0
  7  9  1  0  0  0  0
  9 27  1  0  0  0  0
 10 11  1  0  0  0  0
 11 12  2  0  0  0  0
 11 13  1  0  0  0  0
 13 14  1  0  0  0  0
 14 16  2  0  0  0  0
 15 14  1  6  0  0  0
 15 18  1  0  0  0  0
 15 26  1  0  0  0  0
 17 19  1  6  0  0  0
 17 25  1  0  0  0  0
 17 18  1  0  0  0  0
 19 20  1  0  0  0  0
 20 21  1  1  0  0  0
 20 22  1  0  0  0  0
 22 23  1  1  0  0  0
 22 24  1  0  0  0  0
 23 28  1  0  0  0  0
 23 29  1  0  0  0  0
 25 24  1  1  0  0  0
 25 27  1  0  0  0  0
 26 10  1  1  0  0  0
 26 27  1  0  0  0  0
M  END
>  <CHROM.1>
62.46165595,177.70287420,171.63473158,-165.12275444,96.47958964,106.13807939
28.25727012,38.59915885,21.34431748,-2.28823790,-1.02861696,-2.60083510

>  <Name>
ligand

>  <RI>
0

>  <Rbt.Current_Directory>
/home/itssahil/PROJECTS/Mol_Feturizer/New_Systems/rnas/3F4H

>  <Rbt.Executable>
rbdock ($Id: //depot/dev/client3/rdock/2013.1/src/exe/rbdock.cxx#4 $)

>  <Rbt.Library>
libRbt.so (2013.1, Build901 2013/11/27)

>  <Rbt.Parameter_File>
/export/apps/rDock/src/rDock_2013.1_src/data/scripts/dock_solv.prm

>  <Rbt.Receptor>
prm/pocket_docking_5.prm

>  <SCORE>
-47.8344

>  <SCORE.INTER>
-30.3622

>  <SCORE.INTER.CONST>
1

>  <SCORE.INTER.POLAR>
0

>  <SCORE.INTER.ROT>
6

>  <SCORE.INTER.SOLV>
13.7606

>  <SCORE.INTER.VDW>
-32.4284

>  <SCORE.INTER.norm>
-1.04697

>  <SCORE.INTRA>
-17.4722

>  <SCORE.INTRA.DIHEDRAL>
-3.77357

>  <SCORE.INTRA.DIHEDRAL.0>
6.83446

>  <SCORE.INTRA.POLAR>
0

>  <SCORE.INTRA.POLAR.0>
0

>  <SCORE.INTRA.REPUL>
0

>  <SCORE.INTRA.REPUL.0>
0

>  <SCORE.INTRA.SOLV>
-0.247509

>  <SCORE.INTRA.SOLV.lig_0>
-26.4601

>  <SCORE.INTRA.VDW>
-15.4617

>  <SCORE.INTRA.VDW.0>
13.7853

>  <SCORE.INTRA.norm>
-0.602491

>  <SCORE.RESTR>
0

>  <SCORE.RESTR.CAVITY>
0

>  <SCORE.RESTR.norm>
0

>  <SCORE.SYSTEM>
0

>  <SCORE.SYSTEM.CONST>
0

>  <SCORE.SYSTEM.DIHEDRAL>
0

>  <SCORE.SYSTEM.SOLV>
0

>  <SCORE.SYSTEM.norm>
0

>  <SCORE.heavy>
29

>  <SCORE.norm>
-1.64946

>  <RMSD>
6.052

$$$$
ligand
 OpenBabel11021811473D
libRbt.so/2013.1/901 2013/11/27
 29 31  0  0  0  0  0  0  0  0999 V2000
   28.8037   43.3077   24.0533 C   0  0  0  0  0  0  0  0  0  0  0  0
   29.5367   42.4725   24.9555 O   0  0  0  0  0  0  0  0  0  0  0  0
   28.4249   42.5026   22.8177 C   0  0  1  0  0  0  0  0  0  0  0  0
   29.6152   41.9849   22.2317 O   0  0  0  0  0  0  0  0  0  0  0  0
   27.4801   41.3665   23.1879 C   0  0  1  0  0  0  0  0  0  0  0  0
   26.2169   41.9502   23.4852 O   0  0  0  0  0  0  0  0  0  0  0  0
   27.3187   40.2838   22.1168 C   0  0  1  0  0  0  0  0  0  0  0  0
   26.9873   40.9170   20.8803 O   0  0  0  0  0  0  0  0  0  0  0  0
   28.5794   39.4493   21.9003 C   0  0  0  0  0  0  0  0  0  0  0  0
   27.0392   37.7370   23.5334 N   0  0  0  0  0  0  0  0  0  0  0  0
   26.2890   36.9387   24.3446 C   0  0  0  0  0  0  0  0  0  0  0  0
   25.8911   37.3598   25.4595 O   0  0  0  0  0  0  0  0  0  0  0  0
   25.9679   35.6776   23.9594 N   0  0  0  0  0  0  0  0  0  0  0  0
   26.3840   35.1872   22.7648 C   0  0  0  0  0  0  0  0  0  0  0  0
   27.1487   35.9904   21.9264 C   0  0  1  0  0  0  0  0  0  0  0  0
   26.0861   34.0187   22.4135 O   0  0  0  0  0  0  0  0  0  0  0  0
   28.3037   36.2940   19.9191 C   0  0  1  0  0  0  0  0  0  0  0  0
   27.5635   35.5133   20.7327 N   0  0  0  0  0  0  0  0  0  0  0  0
   28.7270   35.7945   18.6924 C   0  0  0  0  0  0  0  0  0  0  0  0
   29.4891   36.5757   17.8306 C   0  0  2  0  0  0  0  0  0  0  0  0
   29.9149   35.9712   16.5174 C   0  0  0  0  0  0  0  0  0  0  0  0
   29.8354   37.8816   18.2002 C   0  0  2  0  0  0  0  0  0  0  0  0
   30.5813   38.7073   17.4059 N   0  0  0  0  0  0  0  0  0  0  0  0
   29.4030   38.3702   19.4392 C   0  0  0  0  0  0  0  0  0  0  0  0
   28.6397   37.5899   20.3070 C   0  0  2  0  0  0  0  0  0  0  0  0
   27.4790   37.2905   22.3213 C   0  0  2  0  0  0  0  0  0  0  0  0
   28.2304   38.0714   21.5031 N   0  0  0  0  0  0  0  0  0  0  0  0
   32.0292   38.6688   17.4879 C   0  0  0  0  0  0  0  0  0  0  0  0
   29.9833   39.6370   16.4621 C   0  0  0  0  0  0  0  0  0  0  0  0
  1  2  1  0  0  0  0
  3  1  1  1  0  0  0
  3  4  1  0  0  0  0
  3  5  1  0  0  0  0
  5  6  1  6  0  0  0
  5  7  1  0  0  0  0
  7  8  1  6  0  0  0
  7  9  1  0  0  0  0
  9 27  1  0  0  0  0
 10 11  1  0  0  0  0
 11 12  2  0  0  0  0
 11 13  1  0  0  0  0
 13 14  1  0  0  0  0
 14 16  2  0  0  0  0
 15 14  1  6  0  0  0
 15 18  1  0  0  0  0
 15 26  1  0  0  0  0
 17 19  1  6  0  0  0
 17 25  1  0  0  0  0
 17 18  1  0  0  0  0
 19 20  1  0  0  0  0
 20 21  1  1  0  0  0
 20 22  1  0  0  0  0
 22 23  1  1  0  0  0
 22 24  1  0  0  0  0
 23 28  1  0  0  0  0
 23 29  1  0  0  0  0
 25 24  1  1  0  0  0
 25 27  1  0  0  0  0
 26 10  1  1  0  0  0
 26 27  1  0  0  0  0
M  END
>  <CHROM.1>
-57.10558914,72.47226659,-51.85603448,148.60507507,-87.40200281,119.02331321
28.20474928,38.49466825,21.31962224,-2.17139272,-0.99892021,-2.61403109

>  <Name>
ligand

>  <RI>
0

>  <Rbt.Current_Directory>
/home/itssahil/PROJECTS/Mol_Feturizer/New_Systems/rnas/3F4H

>  <Rbt.Executable>
rbdock ($Id: //depot/dev/client3/rdock/2013.1/src/exe/rbdock.cxx#4 $)

>  <Rbt.Library>
libRbt.so (2013.1, Build901 2013/11/27)

>  <Rbt.Parameter_File>
/export/apps/rDock/src/rDock_2013.1_src/data/scripts/dock_solv.prm

>  <Rbt.Receptor>
prm/pocket_docking_6.prm

>  <SCORE>
-45.607

>  <SCORE.INTER>
-30.1444

>  <SCORE.INTER.CONST>
1

>  <SCORE.INTER.POLAR>
0

>  <SCORE.INTER.ROT>
6

>  <SCORE.INTER.SOLV>
13.2657

>  <SCORE.INTER.VDW>
-32.1181

>  <SCORE.INTER.norm>
-1.03946

>  <SCORE.INTRA>
-15.4626

>  <SCORE.INTRA.DIHEDRAL>
-1.15399

>  <SCORE.INTRA.DIHEDRAL.0>
6.83446

>  <SCORE.INTRA.POLAR>
0

>  <SCORE.INTRA.POLAR.0>
0

>  <SCORE.INTRA.REPUL>
0

>  <SCORE.INTRA.REPUL.0>
0

>  <SCORE.INTRA.SOLV>
0.0728201

>  <SCORE.INTRA.SOLV.lig_0>
-26.4601

>  <SCORE.INTRA.VDW>
-14.922

>  <SCORE.INTRA.VDW.0>
13.7853

>  <SCORE.INTRA.norm>
-0.533194

>  <SCORE.RESTR>
0

>  <SCORE.RESTR.CAVITY>
0

>  <SCORE.RESTR.norm>
0

>  <SCORE.SYSTEM>
0

>  <SCORE.SYSTEM.CONST>
0

>  <SCORE.SYSTEM.DIHEDRAL>
0

>  <SCORE.SYSTEM.SOLV>
0

>  <SCORE.SYSTEM.norm>
0

>  <SCORE.heavy>
29

>  <SCORE.norm>
-1.57265

>  <RMSD>
6.061

$$$$
ligand
 OpenBabel11021811473D
libRbt.so/2013.1/901 2013/11/27
 29 31  0  0  0  0  0  0  0  0999 V2000
   29.4383   43.2663   24.1270 C   0  0  0  0  0  0  0  0  0  0  0  0
   28.2978   43.5207   24.9537 O   0  0  0  0  0  0  0  0  0  0  0  0
   29.2849   41.9045   23.4635 C   0  0  1  0  0  0  0  0  0  0  0  0
   29.0918   40.9248   24.4791 O   0  0  0  0  0  0  0  0  0  0  0  0
   28.1045   41.9080   22.5007 C   0  0  1  0  0  0  0  0  0  0  0  0
   28.4965   42.6593   21.3577 O   0  0  0  0  0  0  0  0  0  0  0  0
   27.6131   40.5216   22.0739 C   0  0  1  0  0  0  0  0  0  0  0  0
   26.5506   40.6880   21.1342 O   0  0  0  0  0  0  0  0  0  0  0  0
   28.6967   39.6670   21.4195 C   0  0  0  0  0  0  0  0  0  0  0  0
   28.0158   37.7529   23.3801 N   0  0  0  0  0  0  0  0  0  0  0  0
   27.6923   36.8546   24.3529 C   0  0  0  0  0  0  0  0  0  0  0  0
   27.8507   37.1451   25.5649 O   0  0  0  0  0  0  0  0  0  0  0  0
   27.2002   35.6336   24.0229 N   0  0  0  0  0  0  0  0  0  0  0  0
   27.0202   35.2830   22.7245 C   0  0  0  0  0  0  0  0  0  0  0  0
   27.3446   36.1896   21.7217 C   0  0  1  0  0  0  0  0  0  0  0  0
   26.5665   34.1511   22.4239 O   0  0  0  0  0  0  0  0  0  0  0  0
   27.4774   36.7331   19.4540 C   0  0  1  0  0  0  0  0  0  0  0  0
   27.1643   35.8522   20.4262 N   0  0  0  0  0  0  0  0  0  0  0  0
   27.2892   36.3772   18.1231 C   0  0  0  0  0  0  0  0  0  0  0  0
   27.6001   37.2642   17.0984 C   0  0  2  0  0  0  0  0  0  0  0  0
   27.3724   36.8131   15.6785 C   0  0  0  0  0  0  0  0  0  0  0  0
   28.1088   38.5320   17.4080 C   0  0  2  0  0  0  0  0  0  0  0  0
   28.4369   39.4558   16.4549 N   0  0  0  0  0  0  0  0  0  0  0  0
   28.2942   38.8757   18.7526 C   0  0  0  0  0  0  0  0  0  0  0  0
   27.9849   37.9888   19.7834 C   0  0  2  0  0  0  0  0  0  0  0  0
   27.8503   37.4485   22.0603 C   0  0  2  0  0  0  0  0  0  0  0  0
   28.1714   38.3304   21.0790 N   0  0  0  0  0  0  0  0  0  0  0  0
   29.7779   39.4733   15.9021 C   0  0  0  0  0  0  0  0  0  0  0  0
   27.4883   40.4376   15.9560 C   0  0  0  0  0  0  0  0  0  0  0  0
  1  2  1  0  0  0  0
  3  1  1  1  0  0  0
  3  4  1  0  0  0  0
  3  5  1  0  0  0  0
  5  6  1  6  0  0  0
  5  7  1  0  0  0  0
  7  8  1  6  0  0  0
  7  9  1  0  0  0  0
  9 27  1  0  0  0  0
 10 11  1  0  0  0  0
 11 12  2  0  0  0  0
 11 13  1  0  0  0  0
 13 14  1  0  0  0  0
 14 16  2  0  0  0  0
 15 14  1  1  0  0  0
 15 18  1  0  0  0  0
 15 26  1  0  0  0  0
 17 19  1  1  0  0  0
 17 25  1  0  0  0  0
 17 18  1  0  0  0  0
 19 20  1  0  0  0  0
 20 21  1  6  0  0  0
 20 22  1  0  0  0  0
 22 23  1  6  0  0  0
 22 24  1  0  0  0  0
 23 28  1  0  0  0  0
 23 29  1  0  0  0  0
 25 24  1  6  0  0  0
 25 27  1  0  0  0  0
 26 10  1  6  0  0  0
 26 27  1  0  0  0  0
M  END
>  <CHROM.1>
-55.81858153,73.51392000,-177.50427692,177.90205533,-89.40801966,110.03461446
27.94979702,38.77057032,21.02059440,-1.25163246,-1.35704238,-1.64119308

>  <Name>
ligand

>  <RI>
0

>  <Rbt.Current_Directory>
/home/itssahil/PROJECTS/Mol_Feturizer/New_Systems/rnas/3F4H

>  <Rbt.Executable>
rbdock ($Id: //depot/dev/client3/rdock/2013.1/src/exe/rbdock.cxx#4 $)

>  <Rbt.Library>
libRbt.so (2013.1, Build901 2013/11/27)

>  <Rbt.Parameter_File>
/export/apps/rDock/src/rDock_2013.1_src/data/scripts/dock_solv.prm

>  <Rbt.Receptor>
prm/pocket_docking_6.prm

>  <SCORE>
-45.6875

>  <SCORE.INTER>
-27.7764

>  <SCORE.INTER.CONST>
1

>  <SCORE.INTER.POLAR>
0

>  <SCORE.INTER.ROT>
6

>  <SCORE.INTER.SOLV>
12.7033

>  <SCORE.INTER.VDW>
-30.352

>  <SCORE.INTER.norm>
-0.957806

>  <SCORE.INTRA>
-17.9111

>  <SCORE.INTRA.DIHEDRAL>
-4.07965

>  <SCORE.INTRA.DIHEDRAL.0>
6.83446

>  <SCORE.INTRA.POLAR>
0

>  <SCORE.INTRA.POLAR.0>
0

>  <SCORE.INTRA.REPUL>
0

>  <SCORE.INTRA.REPUL.0>
0

>  <SCORE.INTRA.SOLV>
-0.128621

>  <SCORE.INTRA.SOLV.lig_0>
-26.4601

>  <SCORE.INTRA.VDW>
-15.8069

>  <SCORE.INTRA.VDW.0>
13.7853

>  <SCORE.INTRA.norm>
-0.617624

>  <SCORE.RESTR>
0

>  <SCORE.RESTR.CAVITY>
0

>  <SCORE.RESTR.norm>
0

>  <SCORE.SYSTEM>
0

>  <SCORE.SYSTEM.CONST>
0

>  <SCORE.SYSTEM.DIHEDRAL>
0

>  <SCORE.SYSTEM.SOLV>
0

>  <SCORE.SYSTEM.norm>
0

>  <SCORE.heavy>
29

>  <SCORE.norm>
-1.57543

>  <RMSD>
6.066

$$$$
ligand
 OpenBabel11021811473D
libRbt.so/2013.1/901 2013/11/27
 29 31  0  0  0  0  0  0  0  0999 V2000
   29.1777   43.2486   23.6135 C   0  0  0  0  0  0  0  0  0  0  0  0
   28.4444   43.5555   24.8039 O   0  0  0  0  0  0  0  0  0  0  0  0
   28.2645   42.5270   22.6320 C   0  0  1  0  0  0  0  0  0  0  0  0
   28.9951   42.2724   21.4363 O   0  0  0  0  0  0  0  0  0  0  0  0
   27.7596   41.2208   23.2315 C   0  0  1  0  0  0  0  0  0  0  0  0
   26.7644   41.5559   24.1917 O   0  0  0  0  0  0  0  0  0  0  0  0
   27.1958   40.2192   22.2194 C   0  0  1  0  0  0  0  0  0  0  0  0
   26.3269   40.9185   21.3273 O   0  0  0  0  0  0  0  0  0  0  0  0
   28.2715   39.5241   21.3874 C   0  0  0  0  0  0  0  0  0  0  0  0
   27.4407   37.6387   23.3177 N   0  0  0  0  0  0  0  0  0  0  0  0
   27.0404   36.7551   24.2753 C   0  0  0  0  0  0  0  0  0  0  0  0
   27.0354   37.0891   25.4865 O   0  0  0  0  0  0  0  0  0  0  0  0
   26.6476   35.5023   23.9317 N   0  0  0  0  0  0  0  0  0  0  0  0
   26.6446   35.1048   22.6345 C   0  0  0  0  0  0  0  0  0  0  0  0
   27.0491   35.9956   21.6468 C   0  0  1  0  0  0  0  0  0  0  0  0
   26.2823   33.9436   22.3215 O   0  0  0  0  0  0  0  0  0  0  0  0
   27.4356   36.4769   19.3941 C   0  0  1  0  0  0  0  0  0  0  0  0
   27.0448   35.6113   20.3519 N   0  0  0  0  0  0  0  0  0  0  0  0
   27.4286   36.0726   18.0637 C   0  0  0  0  0  0  0  0  0  0  0  0
   27.8233   36.9427   17.0534 C   0  0  2  0  0  0  0  0  0  0  0  0
   27.7924   36.4387   15.6334 C   0  0  0  0  0  0  0  0  0  0  0  0
   28.2329   38.2424   17.3772 C   0  0  2  0  0  0  0  0  0  0  0  0
   28.6342   39.1521   16.4388 N   0  0  0  0  0  0  0  0  0  0  0  0
   28.2359   38.6347   18.7213 C   0  0  0  0  0  0  0  0  0  0  0  0
   27.8421   37.7651   19.7378 C   0  0  2  0  0  0  0  0  0  0  0  0
   27.4526   37.2873   21.9993 C   0  0  2  0  0  0  0  0  0  0  0  0
   27.8523   38.1540   21.0334 N   0  0  0  0  0  0  0  0  0  0  0  0
   27.6889   40.1305   15.9353 C   0  0  0  0  0  0  0  0  0  0  0  0
   29.9890   39.1902   15.9135 C   0  0  0  0  0  0  0  0  0  0  0  0
  1  2  1  0  0  0  0
  3  1  1  1  0  0  0
  3  4  1  0  0  0  0
  3  5  1  0  0  0  0
  5  6  1  1  0  0  0
  5  7  1  0  0  0  0
  7  8  1  6  0  0  0
  7  9  1  0  0  0  0
  9 27  1  0  0  0  0
 10 11  1  0  0  0  0
 11 12  2  0  0  0  0
 11 13  1  0  0  0  0
 13 14  1  0  0  0  0
 14 16  2  0  0  0  0
 15 14  1  6  0  0  0
 15 18  1  0  0  0  0
 15 26  1  0  0  0  0
 17 19  1  6  0  0  0
 17 25  1  0  0  0  0
 17 18  1  0  0  0  0
 19 20  1  0  0  0  0
 20 21  1  1  0  0  0
 20 22  1  0  0  0  0
 22 23  1  1  0  0  0
 22 24  1  0  0  0  0
 23 28  1  0  0  0  0
 23 29  1  0  0  0  0
 25 24  1  1  0  0  0
 25 27  1  0  0  0  0
 26 10  1  1  0  0  0
 26 27  1  0  0  0  0
M  END
>  <CHROM.1>
177.92891007,75.03753659,-45.93621748,148.22523967,96.70841826,125.52375698
27.68540816,38.62398399,20.95933542,-1.70599145,-1.30767837,-2.18878904

>  <Name>
ligand

>  <RI>
0

>  <Rbt.Current_Directory>
/home/itssahil/PROJECTS/Mol_Feturizer/New_Systems/rnas/3F4H

>  <Rbt.Executable>
rbdock ($Id: //depot/dev/client3/rdock/2013.1/src/exe/rbdock.cxx#4 $)

>  <Rbt.Library>
libRbt.so (2013.1, Build901 2013/11/27)

>  <Rbt.Parameter_File>
/export/apps/rDock/src/rDock_2013.1_src/data/scripts/dock_solv.prm

>  <Rbt.Receptor>
prm/pocket_docking_7.prm

>  <SCORE>
-42.0036

>  <SCORE.INTER>
-27.0666

>  <SCORE.INTER.CONST>
1

>  <SCORE.INTER.POLAR>
0

>  <SCORE.INTER.ROT>
6

>  <SCORE.INTER.SOLV>
12.5257

>  <SCORE.INTER.VDW>
-29.8196

>  <SCORE.INTER.norm>
-0.933331

>  <SCORE.INTRA>
-14.937

>  <SCORE.INTRA.DIHEDRAL>
-0.41004

>  <SCORE.INTRA.DIHEDRAL.0>
6.83446

>  <SCORE.INTRA.POLAR>
0

>  <SCORE.INTRA.POLAR.0>
0

>  <SCORE.INTRA.REPUL>
0

>  <SCORE.INTRA.REPUL.0>
0

>  <SCORE.INTRA.SOLV>
0.0586808

>  <SCORE.INTRA.SOLV.lig_0>
-26.4601

>  <SCORE.INTRA.VDW>
-14.7614

>  <SCORE.INTRA.VDW.0>
13.7853

>  <SCORE.INTRA.norm>
-0.51507

>  <SCORE.RESTR>
0

>  <SCORE.RESTR.CAVITY>
0

>  <SCORE.RESTR.norm>
0

>  <SCORE.SYSTEM>
0

>  <SCORE.SYSTEM.CONST>
0

>  <SCORE.SYSTEM.DIHEDRAL>
0

>  <SCORE.SYSTEM.SOLV>
0

>  <SCORE.SYSTEM.norm>
0

>  <SCORE.heavy>
29

>  <SCORE.norm>
-1.4484

>  <RMSD>
6.071

$$$$
ligand
 OpenBabel11021811473D
libRbt.so/2013.1/901 2013/11/27
 29 31  0  0  0  0  0  0  0  0999 V2000
   28.7986   43.3493   24.0882 C   0  0  0  0  0  0  0  0  0  0  0  0
   28.8797   42.5901   25.2990 O   0  0  0  0  0  0  0  0  0  0  0  0
   28.8016   42.3998   22.8980 C   0  0  1  0  0  0  0  0  0  0  0  0
   30.0280   41.6757   22.8990 O   0  0  0  0  0  0  0  0  0  0  0  0
   27.6209   41.4405   22.9754 C   0  0  1  0  0  0  0  0  0  0  0  0
   26.4362   42.2271   22.9270 O   0  0  0  0  0  0  0  0  0  0  0  0
   27.5843   40.3693   21.8814 C   0  0  1  0  0  0  0  0  0  0  0  0
   27.6091   41.0201   20.6104 O   0  0  0  0  0  0  0  0  0  0  0  0
   28.7617   39.3983   21.9410 C   0  0  0  0  0  0  0  0  0  0  0  0
   27.1650   37.7295   23.5648 N   0  0  0  0  0  0  0  0  0  0  0  0
   26.3892   36.9521   24.3723 C   0  0  0  0  0  0  0  0  0  0  0  0
   26.0264   37.3704   25.5000 O   0  0  0  0  0  0  0  0  0  0  0  0
   26.0042   35.7147   23.9691 N   0  0  0  0  0  0  0  0  0  0  0  0
   26.3809   35.2277   22.7601 C   0  0  0  0  0  0  0  0  0  0  0  0
   27.1710   36.0098   21.9254 C   0  0  1  0  0  0  0  0  0  0  0  0
   26.0239   34.0811   22.3922 O   0  0  0  0  0  0  0  0  0  0  0  0
   28.3121   36.2965   19.9077 C   0  0  1  0  0  0  0  0  0  0  0  0
   27.5471   35.5362   20.7176 N   0  0  0  0  0  0  0  0  0  0  0  0
   28.6951   35.8008   18.6662 C   0  0  0  0  0  0  0  0  0  0  0  0
   29.4813   36.5616   17.8079 C   0  0  2  0  0  0  0  0  0  0  0  0
   29.8607   35.9624   16.4781 C   0  0  0  0  0  0  0  0  0  0  0  0
   29.8932   37.8428   18.1959 C   0  0  2  0  0  0  0  0  0  0  0  0
   30.6663   38.6475   17.4059 N   0  0  0  0  0  0  0  0  0  0  0  0
   29.5009   38.3279   19.4494 C   0  0  0  0  0  0  0  0  0  0  0  0
   28.7136   37.5680   20.3139 C   0  0  2  0  0  0  0  0  0  0  0  0
   27.5672   37.2856   22.3389 C   0  0  2  0  0  0  0  0  0  0  0  0
   28.3433   38.0457   21.5242 N   0  0  0  0  0  0  0  0  0  0  0  0
   30.0418   39.6846   16.6067 C   0  0  0  0  0  0  0  0  0  0  0  0
   32.1118   38.5146   17.3291 C   0  0  0  0  0  0  0  0  0  0  0  0
  1  2  1  0  0  0  0
  3  1  1  1  0  0  0
  3  4  1  0  0  0  0
  3  5  1  0  0  0  0
  5  6  1  6  0  0  0
  5  7  1  0  0  0  0
  7  8  1  6  0  0  0
  7  9  1  0  0  0  0
  9 27  1  0  0  0  0
 10 11  1  0  0  0  0
 11 12  2  0  0  0  0
 11 13  1  0  0  0  0
 13 14  1  0  0  0  0
 14 16  2  0  0  0  0
 15 14  1  6  0  0  0
 15 18  1  0  0  0  0
 15 26  1  0  0  0  0
 17 19  1  6  0  0  0
 17 25  1  0  0  0  0
 17 18  1  0  0  0  0
 19 20  1  0  0  0  0
 20 21  1  1  0  0  0
 20 22  1  0  0  0  0
 22 23  1  1  0  0  0
 22 24  1  0  0  0  0
 23 28  1  0  0  0  0
 23 29  1  0  0  0  0
 25 24  1  1  0  0  0
 25 27  1  0  0  0  0
 26 10  1  1  0  0  0
 26 27  1  0  0  0  0
M  END
>  <CHROM.1>
-61.69983036,61.72672108,-56.09670332,145.69189694,98.27179219,106.07202815
28.29109616,38.49997000,21.31778751,-2.12071079,-1.00563512,-2.59009658

>  <Name>
ligand

>  <RI>
0

>  <Rbt.Current_Directory>
/home/itssahil/PROJECTS/Mol_Feturizer/New_Systems/rnas/3F4H

>  <Rbt.Executable>
rbdock ($Id: //depot/dev/client3/rdock/2013.1/src/exe/rbdock.cxx#4 $)

>  <Rbt.Library>
libRbt.so (2013.1, Build901 2013/11/27)

>  <Rbt.Parameter_File>
/export/apps/rDock/src/rDock_2013.1_src/data/scripts/dock_solv.prm

>  <Rbt.Receptor>
prm/pocket_docking_8.prm

>  <SCORE>
-45.5465

>  <SCORE.INTER>
-29.8043

>  <SCORE.INTER.CONST>
1

>  <SCORE.INTER.POLAR>
0

>  <SCORE.INTER.ROT>
6

>  <SCORE.INTER.SOLV>
13.5454

>  <SCORE.INTER.VDW>
-31.9847

>  <SCORE.INTER.norm>
-1.02774

>  <SCORE.INTRA>
-15.7422

>  <SCORE.INTRA.DIHEDRAL>
-1.52488

>  <SCORE.INTRA.DIHEDRAL.0>
6.83446

>  <SCORE.INTRA.POLAR>
0

>  <SCORE.INTRA.POLAR.0>
0

>  <SCORE.INTRA.REPUL>
0

>  <SCORE.INTRA.REPUL.0>
0

>  <SCORE.INTRA.SOLV>
0.0743844

>  <SCORE.INTRA.SOLV.lig_0>
-26.4601

>  <SCORE.INTRA.VDW>
-15.0169

>  <SCORE.INTRA.VDW.0>
13.7853

>  <SCORE.INTRA.norm>
-0.542833

>  <SCORE.RESTR>
0

>  <SCORE.RESTR.CAVITY>
0

>  <SCORE.RESTR.norm>
0

>  <SCORE.SYSTEM>
0

>  <SCORE.SYSTEM.CONST>
0

>  <SCORE.SYSTEM.DIHEDRAL>
0

>  <SCORE.SYSTEM.SOLV>
0

>  <SCORE.SYSTEM.norm>
0

>  <SCORE.heavy>
29

>  <SCORE.norm>
-1.57057

>  <RMSD>
6.076

$$$$
ligand
 OpenBabel11021811473D
libRbt.so/2013.1/901 2013/11/27
 29 31  0  0  0  0  0  0  0  0999 V2000
   27.3997   41.7425   24.1722 C   0  0  0  0  0  0  0  0  0  0  0  0
   26.4437   42.6743   24.6887 O   0  0  0  0  0  0  0  0  0  0  0  0
   28.0036   42.2998   22.8905 C   0  0  1  0  0  0  0  0  0  0  0  0
   28.6933   43.5064   23.2017 O   0  0  0  0  0  0  0  0  0  0  0  0
   28.9587   41.2907   22.2658 C   0  0  1  0  0  0  0  0  0  0  0  0
   29.9945   41.0510   23.2116 O   0  0  0  0  0  0  0  0  0  0  0  0
   28.3160   39.9659   21.8447 C   0  0  1  0  0  0  0  0  0  0  0  0
   27.3338   40.2378   20.8443 O   0  0  0  0  0  0  0  0  0  0  0  0
   29.3131   38.9613   21.2709 C   0  0  0  0  0  0  0  0  0  0  0  0
   27.7828   37.5607   23.1860 N   0  0  0  0  0  0  0  0  0  0  0  0
   27.0469   36.9135   24.1335 C   0  0  0  0  0  0  0  0  0  0  0  0
   26.9337   37.3942   25.2887 O   0  0  0  0  0  0  0  0  0  0  0  0
   26.4323   35.7394   23.8410 N   0  0  0  0  0  0  0  0  0  0  0  0
   26.5362   35.1877   22.6058 C   0  0  0  0  0  0  0  0  0  0  0  0
   27.2824   35.8372   21.6290 C   0  0  1  0  0  0  0  0  0  0  0  0
   25.9674   34.0998   22.3405 O   0  0  0  0  0  0  0  0  0  0  0  0
   28.1103   35.9308   19.4470 C   0  0  1  0  0  0  0  0  0  0  0  0
   27.3878   35.2990   20.3946 N   0  0  0  0  0  0  0  0  0  0  0  0
   28.2140   35.3692   18.1791 C   0  0  0  0  0  0  0  0  0  0  0  0
   28.9494   35.9978   17.1803 C   0  0  2  0  0  0  0  0  0  0  0  0
   29.0208   35.3331   15.8295 C   0  0  0  0  0  0  0  0  0  0  0  0
   29.5941   37.2112   17.4520 C   0  0  2  0  0  0  0  0  0  0  0  0
   30.3340   37.8860   16.5211 N   0  0  0  0  0  0  0  0  0  0  0  0
   29.4818   37.7638   18.7336 C   0  0  0  0  0  0  0  0  0  0  0  0
   28.7463   37.1363   19.7386 C   0  0  2  0  0  0  0  0  0  0  0  0
   27.9149   37.0479   21.9284 C   0  0  2  0  0  0  0  0  0  0  0  0
   28.6475   37.6778   20.9744 N   0  0  0  0  0  0  0  0  0  0  0  0
   29.7744   39.0533   15.8664 C   0  0  0  0  0  0  0  0  0  0  0  0
   31.6814   37.4855   16.1510 C   0  0  0  0  0  0  0  0  0  0  0  0
  1  2  1  0  0  0  0
  3  1  1  1  0  0  0
  3  4  1  0  0  0  0
  3  5  1  0  0  0  0
  5  6  1  1  0  0  0
  5  7  1  0  0  0  0
  7  8  1  6  0  0  0
  7  9  1  0  0  0  0
  9 27  1  0  0  0  0
 10 11  1  0  0  0  0
 11 12  2  0  0  0  0
 11 13  1  0  0  0  0
 13 14  1  0  0  0  0
 14 16  2  0  0  0  0
 15 14  1  6  0  0  0
 15 18  1  0  0  0  0
 15 26  1  0  0  0  0
 17 19  1  6  0  0  0
 17 25  1  0  0  0  0
 17 18  1  0  0  0  0
 19 20  1  0  0  0  0
 20 21  1  1  0  0  0
 20 22  1  0  0  0  0
 22 23  1  1  0  0  0
 22 24  1  0  0  0  0
 23 28  1  0  0  0  0
 23 29  1  0  0  0  0
 25 24  1  1  0  0  0
 25 27  1  0  0  0  0
 26 10  1  1  0  0  0
 26 27  1  0  0  0  0
M  END
>  <CHROM.1>
62.57817344,-60.80427693,61.97896831,176.03749417,102.86354468,126.12293941
28.28265802,38.16223209,20.95188933,-2.05599934,-1.08886698,-2.57585923

>  <Name>
ligand

>  <RI>
0

>  <Rbt.Current_Directory>
/home/itssahil/PROJECTS/Mol_Feturizer/New_Systems/rnas/3F4H

>  <Rbt.Executable>
rbdock ($Id: //depot/dev/client3/rdock/2013.1/src/exe/rbdock.cxx#4 $)

>  <Rbt.Library>
libRbt.so (2013.1, Build901 2013/11/27)

>  <Rbt.Parameter_File>
/export/apps/rDock/src/rDock_2013.1_src/data/scripts/dock_solv.prm

>  <Rbt.Receptor>
prm/pocket_docking_5.prm

>  <SCORE>
-44.6053

>  <SCORE.INTER>
-27.1558

>  <SCORE.INTER.CONST>
1

>  <SCORE.INTER.POLAR>
0

>  <SCORE.INTER.ROT>
6

>  <SCORE.INTER.SOLV>
12.7562

>  <SCORE.INTER.VDW>
-29.9559

>  <SCORE.INTER.norm>
-0.936406

>  <SCORE.INTRA>
-17.4495

>  <SCORE.INTRA.DIHEDRAL>
-4.70041

>  <SCORE.INTRA.DIHEDRAL.0>
6.83446

>  <SCORE.INTRA.POLAR>
0

>  <SCORE.INTRA.POLAR.0>
0

>  <SCORE.INTRA.REPUL>
0

>  <SCORE.INTRA.REPUL.0>
0

>  <SCORE.INTRA.SOLV>
-0.547523

>  <SCORE.INTRA.SOLV.lig_0>
-26.4601

>  <SCORE.INTRA.VDW>
-14.8256

>  <SCORE.INTRA.VDW.0>
13.7853

>  <SCORE.INTRA.norm>
-0.601708

>  <SCORE.RESTR>
0

>  <SCORE.RESTR.CAVITY>
0

>  <SCORE.RESTR.norm>
0

>  <SCORE.SYSTEM>
0

>  <SCORE.SYSTEM.CONST>
0

>  <SCORE.SYSTEM.DIHEDRAL>
0

>  <SCORE.SYSTEM.SOLV>
0

>  <SCORE.SYSTEM.norm>
0

>  <SCORE.heavy>
29

>  <SCORE.norm>
-1.53811

>  <RMSD>
6.081

$$$$
ligand
 OpenBabel11021811473D
libRbt.so/2013.1/901 2013/11/27
 29 31  0  0  0  0  0  0  0  0999 V2000
   28.3718   43.2025   24.1424 C   0  0  0  0  0  0  0  0  0  0  0  0
   29.5041   42.9223   24.9722 O   0  0  0  0  0  0  0  0  0  0  0  0
   27.7357   41.8918   23.7001 C   0  0  1  0  0  0  0  0  0  0  0  0
   26.4877   42.1811   23.0778 O   0  0  0  0  0  0  0  0  0  0  0  0
   28.6506   41.1525   22.7322 C   0  0  1  0  0  0  0  0  0  0  0  0
   29.8435   40.8357   23.4401 O   0  0  0  0  0  0  0  0  0  0  0  0
   28.0526   39.8836   22.1175 C   0  0  1  0  0  0  0  0  0  0  0  0
   27.0479   40.2667   21.1776 O   0  0  0  0  0  0  0  0  0  0  0  0
   29.0792   39.0183   21.3893 C   0  0  0  0  0  0  0  0  0  0  0  0
   27.5259   37.5423   23.2277 N   0  0  0  0  0  0  0  0  0  0  0  0
   26.7758   36.8590   24.1379 C   0  0  0  0  0  0  0  0  0  0  0  0
   26.5655   37.3412   25.2789 O   0  0  0  0  0  0  0  0  0  0  0  0
   26.2520   35.6471   23.8238 N   0  0  0  0  0  0  0  0  0  0  0  0
   26.4621   35.0928   22.6033 C   0  0  0  0  0  0  0  0  0  0  0  0
   27.2240   35.7788   21.6644 C   0  0  1  0  0  0  0  0  0  0  0  0
   25.9770   33.9700   22.3179 O   0  0  0  0  0  0  0  0  0  0  0  0
   28.1725   35.9051   19.5337 C   0  0  1  0  0  0  0  0  0  0  0  0
   27.4348   35.2380   20.4447 N   0  0  0  0  0  0  0  0  0  0  0  0
   28.3849   35.3407   18.2808 C   0  0  0  0  0  0  0  0  0  0  0  0
   29.1387   36.0049   17.3195 C   0  0  2  0  0  0  0  0  0  0  0  0
   29.3301   35.3350   15.9831 C   0  0  0  0  0  0  0  0  0  0  0  0
   29.6914   37.2578   17.6142 C   0  0  2  0  0  0  0  0  0  0  0  0
   30.4428   37.9689   16.7204 N   0  0  0  0  0  0  0  0  0  0  0  0
   29.4701   37.8128   18.8805 C   0  0  0  0  0  0  0  0  0  0  0  0
   28.7158   37.1497   19.8479 C   0  0  2  0  0  0  0  0  0  0  0  0
   27.7631   37.0283   21.9862 C   0  0  2  0  0  0  0  0  0  0  0  0
   28.5114   37.6942   21.0693 N   0  0  0  0  0  0  0  0  0  0  0  0
   31.8588   37.6847   16.5848 C   0  0  0  0  0  0  0  0  0  0  0  0
   29.8806   39.0135   15.8804 C   0  0  0  0  0  0  0  0  0  0  0  0
  1  2  1  0  0  0  0
  3  1  1  6  0  0  0
  3  4  1  0  0  0  0
  3  5  1  0  0  0  0
  5  6  1  1  0  0  0
  5  7  1  0  0  0  0
  7  8  1  6  0  0  0
  7  9  1  0  0  0  0
  9 27  1  0  0  0  0
 10 11  1  0  0  0  0
 11 12  2  0  0  0  0
 11 13  1  0  0  0  0
 13 14  1  0  0  0  0
 14 16  2  0  0  0  0
 15 14  1  6  0  0  0
 15 18  1  0  0  0  0
 15 26  1  0  0  0  0
 17 19  1  6  0  0  0
 17 25  1  0  0  0  0
 17 18  1  0  0  0  0
 19 20  1  0  0  0  0
 20 21  1  1  0  0  0
 20 22  1  0  0  0  0
 22 23  1  1  0  0  0
 22 24  1  0  0  0  0
 23 28  1  0  0  0  0
 23 29  1  0  0  0  0
 25 24  1  1  0  0  0
 25 27  1  0  0  0  0
 26 10  1  1  0  0  0
 26 27  1  0  0  0  0
M  END
>  <CHROM.1>
169.93444256,62.93609362,71.80995712,168.17383085,-83.71513404,136.06414671
28.28895080,38.13555837,21.09432898,-1.96751128,-1.04228309,-2.50237677

>  <Name>
ligand

>  <RI>
0

>  <Rbt.Current_Directory>
/home/itssahil/PROJECTS/Mol_Feturizer/New_Systems/rnas/3F4H

>  <Rbt.Executable>
rbdock ($Id: //depot/dev/client3/rdock/2013.1/src/exe/rbdock.cxx#4 $)

>  <Rbt.Library>
libRbt.so (2013.1, Build901 2013/11/27)

>  <Rbt.Parameter_File>
/export/apps/rDock/src/rDock_2013.1_src/data/scripts/dock_solv.prm

>  <Rbt.Receptor>
prm/blind_docking_80.prm

>  <SCORE>
-44.0965

>  <SCORE.INTER>
-28.2389

>  <SCORE.INTER.CONST>
1

>  <SCORE.INTER.POLAR>
0

>  <SCORE.INTER.ROT>
6

>  <SCORE.INTER.SOLV>
12.5193

>  <SCORE.INTER.VDW>
-30.599

>  <SCORE.INTER.norm>
-0.973754

>  <SCORE.INTRA>
-15.8576

>  <SCORE.INTRA.DIHEDRAL>
-3.40259

>  <SCORE.INTRA.DIHEDRAL.0>
6.83446

>  <SCORE.INTRA.POLAR>
0

>  <SCORE.INTRA.POLAR.0>
0

>  <SCORE.INTRA.REPUL>
0

>  <SCORE.INTRA.REPUL.0>
0

>  <SCORE.INTRA.SOLV>
-0.0509266

>  <SCORE.INTRA.SOLV.lig_0>
-26.4601

>  <SCORE.INTRA.VDW>
-14.1309

>  <SCORE.INTRA.VDW.0>
13.7853

>  <SCORE.INTRA.norm>
-0.546814

>  <SCORE.RESTR>
0

>  <SCORE.RESTR.CAVITY>
0

>  <SCORE.RESTR.norm>
0

>  <SCORE.SYSTEM>
0

>  <SCORE.SYSTEM.CONST>
0

>  <SCORE.SYSTEM.DIHEDRAL>
0

>  <SCORE.SYSTEM.SOLV>
0

>  <SCORE.SYSTEM.norm>
0

>  <SCORE.heavy>
29

>  <SCORE.norm>
-1.52057

>  <RMSD>
6.093

$$$$
ligand
 OpenBabel11021811473D
libRbt.so/2013.1/901 2013/11/27
 29 31  0  0  0  0  0  0  0  0999 V2000
   28.1887   42.9346   23.3577 C   0  0  0  0  0  0  0  0  0  0  0  0
   29.5298   43.3586   23.6235 O   0  0  0  0  0  0  0  0  0  0  0  0
   27.9458   41.5872   24.0238 C   0  0  1  0  0  0  0  0  0  0  0  0
   26.5647   41.2623   23.8989 O   0  0  0  0  0  0  0  0  0  0  0  0
   28.8037   40.5076   23.3766 C   0  0  1  0  0  0  0  0  0  0  0  0
   29.0193   39.4985   24.3563 O   0  0  0  0  0  0  0  0  0  0  0  0
   28.2146   39.8878   22.1060 C   0  0  1  0  0  0  0  0  0  0  0  0
   27.8427   40.9432   21.2187 O   0  0  0  0  0  0  0  0  0  0  0  0
   29.1875   38.9688   21.3699 C   0  0  0  0  0  0  0  0  0  0  0  0
   27.6621   37.5281   23.2591 N   0  0  0  0  0  0  0  0  0  0  0  0
   26.9279   36.8614   24.1943 C   0  0  0  0  0  0  0  0  0  0  0  0
   26.7941   37.3320   25.3516 O   0  0  0  0  0  0  0  0  0  0  0  0
   26.3374   35.6786   23.8875 N   0  0  0  0  0  0  0  0  0  0  0  0
   26.4641   35.1375   22.6497 C   0  0  0  0  0  0  0  0  0  0  0  0
   27.2088   35.8069   21.6853 C   0  0  1  0  0  0  0  0  0  0  0  0
   25.9175   34.0416   22.3710 O   0  0  0  0  0  0  0  0  0  0  0  0
   28.0579   35.9302   19.5129 C   0  0  1  0  0  0  0  0  0  0  0  0
   27.3367   35.2792   20.4485 N   0  0  0  0  0  0  0  0  0  0  0  0
   28.1848   35.3794   18.2424 C   0  0  0  0  0  0  0  0  0  0  0  0
   28.9194   36.0278   17.2558 C   0  0  2  0  0  0  0  0  0  0  0  0
   29.0168   35.3740   15.9014 C   0  0  0  0  0  0  0  0  0  0  0  0
   29.5396   37.2506   17.5425 C   0  0  2  0  0  0  0  0  0  0  0  0
   30.2771   37.9447   16.6242 N   0  0  0  0  0  0  0  0  0  0  0  0
   29.4040   37.7921   18.8266 C   0  0  0  0  0  0  0  0  0  0  0  0
   28.6693   37.1448   19.8194 C   0  0  2  0  0  0  0  0  0  0  0  0
   27.8166   37.0264   21.9996 C   0  0  2  0  0  0  0  0  0  0  0  0
   28.5479   37.6759   21.0577 N   0  0  0  0  0  0  0  0  0  0  0  0
   29.6730   39.0493   15.9035 C   0  0  0  0  0  0  0  0  0  0  0  0
   31.6649   37.6264   16.3317 C   0  0  0  0  0  0  0  0  0  0  0  0
  1  2  1  0  0  0  0
  3  1  1  6  0  0  0
  3  4  1  0  0  0  0
  3  5  1  0  0  0  0
  5  6  1  1  0  0  0
  5  7  1  0  0  0  0
  7  8  1  6  0  0  0
  7  9  1  0  0  0  0
  9 27  1  0  0  0  0
 10 11  1  0  0  0  0
 11 12  2  0  0  0  0
 11 13  1  0  0  0  0
 13 14  1  0  0  0  0
 14 16  2  0  0  0  0
 15 14  1  6  0  0  0
 15 18  1  0  0  0  0
 15 26  1  0  0  0  0
 17 19  1  6  0  0  0
 17 25  1  0  0  0  0
 17 18  1  0  0  0  0
 19 20  1  0  0  0  0
 20 21  1  1  0  0  0
 20 22  1  0  0  0  0
 22 23  1  1  0  0  0
 22 24  1  0  0  0  0
 23 28  1  0  0  0  0
 23 29  1  0  0  0  0
 25 24  1  1  0  0  0
 25 27  1  0  0  0  0
 26 10  1  1  0  0  0
 26 27  1  0  0  0  0
M  END
>  <CHROM.1>
172.54070551,153.55490937,51.06575652,130.39311067,98.58619233,133.51934334
28.26776504,38.05510273,21.10328721,-2.02064462,-1.08696287,-2.46256364

>  <Name>
ligand

>  <RI>
0

>  <Rbt.Current_Directory>
/home/itssahil/PROJECTS/Mol_Feturizer/New_Systems/rnas/3F4H

>  <Rbt.Executable>
rbdock ($Id: //depot/dev/client3/rdock/2013.1/src/exe/rbdock.cxx#4 $)

>  <Rbt.Library>
libRbt.so (2013.1, Build901 2013/11/27)

>  <Rbt.Parameter_File>
/export/apps/rDock/src/rDock_2013.1_src/data/scripts/dock_solv.prm

>  <Rbt.Receptor>
prm/blind_docking_100.prm

>  <SCORE>
-40.1322

>  <SCORE.INTER>
-26.708

>  <SCORE.INTER.CONST>
1

>  <SCORE.INTER.POLAR>
0

>  <SCORE.INTER.ROT>
6

>  <SCORE.INTER.SOLV>
10.9976

>  <SCORE.INTER.VDW>
-29.0712

>  <SCORE.INTER.norm>
-0.920965

>  <SCORE.INTRA>
-13.4242

>  <SCORE.INTRA.DIHEDRAL>
2.79094

>  <SCORE.INTRA.DIHEDRAL.0>
6.83446

>  <SCORE.INTRA.POLAR>
0

>  <SCORE.INTRA.POLAR.0>
0

>  <SCORE.INTRA.REPUL>
0

>  <SCORE.INTRA.REPUL.0>
0

>  <SCORE.INTRA.SOLV>
0.396552

>  <SCORE.INTRA.SOLV.lig_0>
-26.4601

>  <SCORE.INTRA.VDW>
-15.018

>  <SCORE.INTRA.VDW.0>
13.7853

>  <SCORE.INTRA.norm>
-0.462905

>  <SCORE.RESTR>
0

>  <SCORE.RESTR.CAVITY>
0

>  <SCORE.RESTR.norm>
0

>  <SCORE.SYSTEM>
0

>  <SCORE.SYSTEM.CONST>
0

>  <SCORE.SYSTEM.DIHEDRAL>
0

>  <SCORE.SYSTEM.SOLV>
0

>  <SCORE.SYSTEM.norm>
0

>  <SCORE.heavy>
29

>  <SCORE.norm>
-1.38387

>  <RMSD>
6.095

$$$$
ligand
 OpenBabel11021811473D
libRbt.so/2013.1/901 2013/11/27
 29 31  0  0  0  0  0  0  0  0999 V2000
   28.5381   42.6958   24.5816 C   0  0  0  0  0  0  0  0  0  0  0  0
   29.6564   43.4842   25.0021 O   0  0  0  0  0  0  0  0  0  0  0  0
   28.7940   42.1691   23.1762 C   0  0  1  0  0  0  0  0  0  0  0  0
   30.0084   41.4250   23.1852 O   0  0  0  0  0  0  0  0  0  0  0  0
   27.6385   41.2900   22.7153 C   0  0  1  0  0  0  0  0  0  0  0  0
   26.4691   42.1007   22.7113 O   0  0  0  0  0  0  0  0  0  0  0  0
   27.8290   40.6374   21.3430 C   0  0  1  0  0  0  0  0  0  0  0  0
   28.2300   41.6458   20.4145 O   0  0  0  0  0  0  0  0  0  0  0  0
   28.8872   39.5360   21.3346 C   0  0  0  0  0  0  0  0  0  0  0  0
   28.1167   37.7087   23.3442 N   0  0  0  0  0  0  0  0  0  0  0  0
   27.7518   36.8524   24.3400 C   0  0  0  0  0  0  0  0  0  0  0  0
   27.9448   37.1573   25.5434 O   0  0  0  0  0  0  0  0  0  0  0  0
   27.1805   35.6578   24.0424 N   0  0  0  0  0  0  0  0  0  0  0  0
   26.9612   35.2925   22.7543 C   0  0  0  0  0  0  0  0  0  0  0  0
   27.3269   36.1563   21.7282 C   0  0  1  0  0  0  0  0  0  0  0  0
   26.4341   34.1850   22.4837 O   0  0  0  0  0  0  0  0  0  0  0  0
   27.4615   36.6437   19.4479 C   0  0  1  0  0  0  0  0  0  0  0  0
   27.1081   35.8042   20.4427 N   0  0  0  0  0  0  0  0  0  0  0  0
   27.2330   36.2730   18.1274 C   0  0  0  0  0  0  0  0  0  0  0  0
   27.5839   37.1177   17.0801 C   0  0  2  0  0  0  0  0  0  0  0  0
   27.3090   36.6525   15.6732 C   0  0  0  0  0  0  0  0  0  0  0  0
   28.1743   38.3576   17.3561 C   0  0  2  0  0  0  0  0  0  0  0  0
   28.5456   39.2393   16.3794 N   0  0  0  0  0  0  0  0  0  0  0  0
   28.3993   38.7166   18.6906 C   0  0  0  0  0  0  0  0  0  0  0  0
   28.0502   37.8721   19.7440 C   0  0  2  0  0  0  0  0  0  0  0  0
   27.9142   37.3881   22.0334 C   0  0  2  0  0  0  0  0  0  0  0  0
   28.2755   38.2280   21.0295 N   0  0  0  0  0  0  0  0  0  0  0  0
   29.8881   39.1835   15.8328 C   0  0  0  0  0  0  0  0  0  0  0  0
   27.6422   40.2470   15.8489 C   0  0  0  0  0  0  0  0  0  0  0  0
  1  2  1  0  0  0  0
  3  1  1  1  0  0  0
  3  4  1  0  0  0  0
  3  5  1  0  0  0  0
  5  6  1  6  0  0  0
  5  7  1  0  0  0  0
  7  8  1  6  0  0  0
  7  9  1  0  0  0  0
  9 27  1  0  0  0  0
 10 11  1  0  0  0  0
 11 12  2  0  0  0  0
 11 13  1  0  0  0  0
 13 14  1  0  0  0  0
 14 16  2  0  0  0  0
 15 14  1  1  0  0  0
 15 18  1  0  0  0  0
 15 26  1  0  0  0  0
 17 19  1  1  0  0  0
 17 25  1  0  0  0  0
 17 18  1  0  0  0  0
 19 20  1  0  0  0  0
 20 21  1  6  0  0  0
 20 22  1  0  0  0  0
 22 23  1  6  0  0  0
 22 24  1  0  0  0  0
 23 28  1  0  0  0  0
 23 29  1  0  0  0  0
 25 24  1  6  0  0  0
 25 27  1  0  0  0  0
 26 10  1  6  0  0  0
 26 27  1  0  0  0  0
M  END
>  <CHROM.1>
57.15131111,60.79263000,-49.56460530,115.59490083,-90.93144777,83.16419095
27.99826138,38.71039923,20.96773471,-1.28903566,-1.33714687,-1.70403014

>  <Name>
ligand

>  <RI>
0

>  <Rbt.Current_Directory>
/home/itssahil/PROJECTS/Mol_Feturizer/New_Systems/rnas/3F4H

>  <Rbt.Executable>
rbdock ($Id: //depot/dev/client3/rdock/2013.1/src/exe/rbdock.cxx#4 $)

>  <Rbt.Library>
libRbt.so (2013.1, Build901 2013/11/27)

>  <Rbt.Parameter_File>
/export/apps/rDock/src/rDock_2013.1_src/data/scripts/dock_solv.prm

>  <Rbt.Receptor>
prm/blind_docking_60.prm

>  <SCORE>
-42.1573

>  <SCORE.INTER>
-26.7996

>  <SCORE.INTER.CONST>
1

>  <SCORE.INTER.POLAR>
0

>  <SCORE.INTER.ROT>
6

>  <SCORE.INTER.SOLV>
12.8796

>  <SCORE.INTER.VDW>
-29.7596

>  <SCORE.INTER.norm>
-0.924124

>  <SCORE.INTRA>
-15.3577

>  <SCORE.INTRA.DIHEDRAL>
0.782752

>  <SCORE.INTRA.DIHEDRAL.0>
6.83446

>  <SCORE.INTRA.POLAR>
0

>  <SCORE.INTRA.POLAR.0>
0

>  <SCORE.INTRA.REPUL>
0

>  <SCORE.INTRA.REPUL.0>
0

>  <SCORE.INTRA.SOLV>
-0.319909

>  <SCORE.INTRA.SOLV.lig_0>
-26.4601

>  <SCORE.INTRA.VDW>
-15.5891

>  <SCORE.INTRA.VDW.0>
13.7853

>  <SCORE.INTRA.norm>
-0.529575

>  <SCORE.RESTR>
0

>  <SCORE.RESTR.CAVITY>
0

>  <SCORE.RESTR.norm>
0

>  <SCORE.SYSTEM>
0

>  <SCORE.SYSTEM.CONST>
0

>  <SCORE.SYSTEM.DIHEDRAL>
0

>  <SCORE.SYSTEM.SOLV>
0

>  <SCORE.SYSTEM.norm>
0

>  <SCORE.heavy>
29

>  <SCORE.norm>
-1.4537

>  <RMSD>
6.097

$$$$
ligand
 OpenBabel11021811473D
libRbt.so/2013.1/901 2013/11/27
 29 31  0  0  0  0  0  0  0  0999 V2000
   29.1339   43.3106   25.0958 C   0  0  0  0  0  0  0  0  0  0  0  0
   27.7943   43.5815   25.5210 O   0  0  0  0  0  0  0  0  0  0  0  0
   29.1093   42.7562   23.6780 C   0  0  1  0  0  0  0  0  0  0  0  0
   30.3883   42.2018   23.3859 O   0  0  0  0  0  0  0  0  0  0  0  0
   28.0275   41.6930   23.5377 C   0  0  1  0  0  0  0  0  0  0  0  0
   26.7760   42.3691   23.4999 O   0  0  0  0  0  0  0  0  0  0  0  0
   28.1691   40.7829   22.3140 C   0  0  1  0  0  0  0  0  0  0  0  0
   29.3545   40.0013   22.4667 O   0  0  0  0  0  0  0  0  0  0  0  0
   26.9916   39.8285   22.1261 C   0  0  0  0  0  0  0  0  0  0  0  0
   27.4207   37.0891   22.6576 N   0  0  0  0  0  0  0  0  0  0  0  0
   27.6179   35.7723   22.9495 C   0  0  0  0  0  0  0  0  0  0  0  0
   27.5710   35.3706   24.1390 O   0  0  0  0  0  0  0  0  0  0  0  0
   27.8725   34.8807   21.9585 N   0  0  0  0  0  0  0  0  0  0  0  0
   27.9354   35.2787   20.6629 C   0  0  0  0  0  0  0  0  0  0  0  0
   27.7351   36.6184   20.3502 C   0  0  1  0  0  0  0  0  0  0  0  0
   28.1734   34.4502   19.7494 O   0  0  0  0  0  0  0  0  0  0  0  0
   27.5942   38.3236   18.7602 C   0  0  1  0  0  0  0  0  0  0  0  0
   27.7906   37.0239   19.0629 N   0  0  0  0  0  0  0  0  0  0  0  0
   27.6537   38.7324   17.4325 C   0  0  0  0  0  0  0  0  0  0  0  0
   27.4530   40.0646   17.0884 C   0  0  2  0  0  0  0  0  0  0  0  0
   27.5327   40.4386   15.6306 C   0  0  0  0  0  0  0  0  0  0  0  0
   27.1873   41.0078   18.0892 C   0  0  2  0  0  0  0  0  0  0  0  0
   26.9799   42.3335   17.8269 N   0  0  0  0  0  0  0  0  0  0  0  0
   27.1319   40.5815   19.4218 C   0  0  0  0  0  0  0  0  0  0  0  0
   27.3337   39.2467   19.7715 C   0  0  2  0  0  0  0  0  0  0  0  0
   27.4712   37.5379   21.3701 C   0  0  2  0  0  0  0  0  0  0  0  0
   27.2811   38.8468   21.0628 N   0  0  0  0  0  0  0  0  0  0  0  0
   28.1142   43.2042   17.5827 C   0  0  0  0  0  0  0  0  0  0  0  0
   25.6526   42.9237   17.7757 C   0  0  0  0  0  0  0  0  0  0  0  0
  1  2  1  0  0  0  0
  3  1  1  1  0  0  0
  3  4  1  0  0  0  0
  3  5  1  0  0  0  0
  5  6  1  6  0  0  0
  5  7  1  0  0  0  0
  7  8  1  1  0  0  0
  7  9  1  0  0  0  0
  9 27  1  0  0  0  0
 10 11  1  0  0  0  0
 11 12  2  0  0  0  0
 11 13  1  0  0  0  0
 13 14  1  0  0  0  0
 14 16  2  0  0  0  0
 15 14  1  6  0  0  0
 15 18  1  0  0  0  0
 15 26  1  0  0  0  0
 17 19  1  6  0  0  0
 17 25  1  0  0  0  0
 17 18  1  0  0  0  0
 19 20  1  0  0  0  0
 20 21  1  1  0  0  0
 20 22  1  0  0  0  0
 22 23  1  1  0  0  0
 22 24  1  0  0  0  0
 23 28  1  0  0  0  0
 23 29  1  0  0  0  0
 25 24  1  1  0  0  0
 25 27  1  0  0  0  0
 26 10  1  1  0  0  0
 26 27  1  0  0  0  0
M  END
>  <CHROM.1>
-166.45970242,74.57297246,65.89156967,-171.34255274,-79.37513630,-70.30355856
27.78711243,39.59489474,20.94580603,-1.07324853,1.41454168,3.02785134

>  <Name>
ligand

>  <RI>
0

>  <Rbt.Current_Directory>
/home/itssahil/PROJECTS/Mol_Feturizer/New_Systems/rnas/3F4H

>  <Rbt.Executable>
rbdock ($Id: //depot/dev/client3/rdock/2013.1/src/exe/rbdock.cxx#4 $)

>  <Rbt.Library>
libRbt.so (2013.1, Build901 2013/11/27)

>  <Rbt.Parameter_File>
/export/apps/rDock/src/rDock_2013.1_src/data/scripts/dock_solv.prm

>  <Rbt.Receptor>
prm/pocket_docking_8.prm

>  <SCORE>
-38.9847

>  <SCORE.INTER>
-22.9408

>  <SCORE.INTER.CONST>
1

>  <SCORE.INTER.POLAR>
0

>  <SCORE.INTER.ROT>
6

>  <SCORE.INTER.SOLV>
13.3862

>  <SCORE.INTER.VDW>
-27.356

>  <SCORE.INTER.norm>
-0.791064

>  <SCORE.INTRA>
-16.0438

>  <SCORE.INTRA.DIHEDRAL>
-3.02252

>  <SCORE.INTRA.DIHEDRAL.0>
6.83446

>  <SCORE.INTRA.POLAR>
0

>  <SCORE.INTRA.POLAR.0>
0

>  <SCORE.INTRA.REPUL>
0

>  <SCORE.INTRA.REPUL.0>
0

>  <SCORE.INTRA.SOLV>
0.120045

>  <SCORE.INTRA.SOLV.lig_0>
-26.4601

>  <SCORE.INTRA.VDW>
-14.5926

>  <SCORE.INTRA.VDW.0>
13.7853

>  <SCORE.INTRA.norm>
-0.553236

>  <SCORE.RESTR>
0

>  <SCORE.RESTR.CAVITY>
0

>  <SCORE.RESTR.norm>
0

>  <SCORE.SYSTEM>
0

>  <SCORE.SYSTEM.CONST>
0

>  <SCORE.SYSTEM.DIHEDRAL>
0

>  <SCORE.SYSTEM.SOLV>
0

>  <SCORE.SYSTEM.norm>
0

>  <SCORE.heavy>
29

>  <SCORE.norm>
-1.3443

>  <RMSD>
6.114

$$$$
ligand
 OpenBabel11021811473D
libRbt.so/2013.1/901 2013/11/27
 29 31  0  0  0  0  0  0  0  0999 V2000
   28.6076   43.1642   24.7253 C   0  0  0  0  0  0  0  0  0  0  0  0
   29.8905   43.6000   24.2636 O   0  0  0  0  0  0  0  0  0  0  0  0
   28.3229   41.7717   24.1794 C   0  0  1  0  0  0  0  0  0  0  0  0
   27.2539   41.2013   24.9280 O   0  0  0  0  0  0  0  0  0  0  0  0
   27.9566   41.8403   22.7024 C   0  0  1  0  0  0  0  0  0  0  0  0
   29.0519   42.4456   22.0253 O   0  0  0  0  0  0  0  0  0  0  0  0
   27.6199   40.4934   22.0557 C   0  0  1  0  0  0  0  0  0  0  0  0
   27.2057   40.7292   20.7095 O   0  0  0  0  0  0  0  0  0  0  0  0
   28.7972   39.5209   22.0273 C   0  0  0  0  0  0  0  0  0  0  0  0
   27.1918   37.8783   23.6691 N   0  0  0  0  0  0  0  0  0  0  0  0
   26.4126   37.1136   24.4853 C   0  0  0  0  0  0  0  0  0  0  0  0
   26.0695   37.5377   25.6171 O   0  0  0  0  0  0  0  0  0  0  0  0
   26.0028   35.8828   24.0865 N   0  0  0  0  0  0  0  0  0  0  0  0
   26.3576   35.3899   22.8733 C   0  0  0  0  0  0  0  0  0  0  0  0
   27.1510   36.1591   22.0297 C   0  0  1  0  0  0  0  0  0  0  0  0
   25.9777   34.2494   22.5095 O   0  0  0  0  0  0  0  0  0  0  0  0
   28.2737   36.4273   19.9991 C   0  0  1  0  0  0  0  0  0  0  0  0
   27.5055   35.6796   20.8177 N   0  0  0  0  0  0  0  0  0  0  0  0
   28.6343   35.9256   18.7534 C   0  0  0  0  0  0  0  0  0  0  0  0
   29.4231   36.6735   17.8862 C   0  0  2  0  0  0  0  0  0  0  0  0
   29.7775   36.0684   16.5522 C   0  0  0  0  0  0  0  0  0  0  0  0
   29.8605   37.9478   18.2695 C   0  0  2  0  0  0  0  0  0  0  0  0
   30.6377   38.7397   17.4708 N   0  0  0  0  0  0  0  0  0  0  0  0
   29.4904   38.4390   19.5274 C   0  0  0  0  0  0  0  0  0  0  0  0
   28.7006   37.6920   20.4008 C   0  0  2  0  0  0  0  0  0  0  0  0
   27.5727   37.4281   22.4386 C   0  0  2  0  0  0  0  0  0  0  0  0
   28.3519   38.1755   21.6152 N   0  0  0  0  0  0  0  0  0  0  0  0
   30.0181   39.7688   16.6575 C   0  0  0  0  0  0  0  0  0  0  0  0
   32.0828   38.6009   17.3982 C   0  0  0  0  0  0  0  0  0  0  0  0
  1  2  1  0  0  0  0
  3  1  1  1  0  0  0
  3  4  1  0  0  0  0
  3  5  1  0  0  0  0
  5  6  1  6  0  0  0
  5  7  1  0  0  0  0
  7  8  1  6  0  0  0
  7  9  1  0  0  0  0
  9 27  1  0  0  0  0
 10 11  1  0  0  0  0
 11 12  2  0  0  0  0
 11 13  1  0  0  0  0
 13 14  1  0  0  0  0
 14 16  2  0  0  0  0
 15 14  1  6  0  0  0
 15 18  1  0  0  0  0
 15 26  1  0  0  0  0
 17 19  1  6  0  0  0
 17 25  1  0  0  0  0
 17 18  1  0  0  0  0
 19 20  1  0  0  0  0
 20 21  1  1  0  0  0
 20 22  1  0  0  0  0
 22 23  1  1  0  0  0
 22 24  1  0  0  0  0
 23 28  1  0  0  0  0
 23 29  1  0  0  0  0
 25 24  1  1  0  0  0
 25 27  1  0  0  0  0
 26 10  1  1  0  0  0
 26 27  1  0  0  0  0
M  END
>  <CHROM.1>
163.74380023,58.57893440,175.82754440,170.05356649,96.98976703,109.21508122
28.28674394,38.60076422,21.45101303,-2.09317596,-1.00783523,-2.52539536

>  <Name>
ligand

>  <RI>
0

>  <Rbt.Current_Directory>
/home/itssahil/PROJECTS/Mol_Feturizer/New_Systems/rnas/3F4H

>  <Rbt.Executable>
rbdock ($Id: //depot/dev/client3/rdock/2013.1/src/exe/rbdock.cxx#4 $)

>  <Rbt.Library>
libRbt.so (2013.1, Build901 2013/11/27)

>  <Rbt.Parameter_File>
/export/apps/rDock/src/rDock_2013.1_src/data/scripts/dock_solv.prm

>  <Rbt.Receptor>
prm/pocket_docking_5.prm

>  <SCORE>
-47.635

>  <SCORE.INTER>
-30.1236

>  <SCORE.INTER.CONST>
1

>  <SCORE.INTER.POLAR>
0

>  <SCORE.INTER.ROT>
6

>  <SCORE.INTER.SOLV>
13.2646

>  <SCORE.INTER.VDW>
-32.1039

>  <SCORE.INTER.norm>
-1.03874

>  <SCORE.INTRA>
-17.5114

>  <SCORE.INTRA.DIHEDRAL>
-3.49877

>  <SCORE.INTRA.DIHEDRAL.0>
6.83446

>  <SCORE.INTRA.POLAR>
0

>  <SCORE.INTRA.POLAR.0>
0

>  <SCORE.INTRA.REPUL>
0

>  <SCORE.INTRA.REPUL.0>
0

>  <SCORE.INTRA.SOLV>
-0.182567

>  <SCORE.INTRA.SOLV.lig_0>
-26.4601

>  <SCORE.INTRA.VDW>
-15.6708

>  <SCORE.INTRA.VDW.0>
13.7853

>  <SCORE.INTRA.norm>
-0.603842

>  <SCORE.RESTR>
0

>  <SCORE.RESTR.CAVITY>
0

>  <SCORE.RESTR.norm>
0

>  <SCORE.SYSTEM>
0

>  <SCORE.SYSTEM.CONST>
0

>  <SCORE.SYSTEM.DIHEDRAL>
0

>  <SCORE.SYSTEM.SOLV>
0

>  <SCORE.SYSTEM.norm>
0

>  <SCORE.heavy>
29

>  <SCORE.norm>
-1.64259

>  <RMSD>
6.127

$$$$
ligand
 OpenBabel11021811473D
libRbt.so/2013.1/901 2013/11/27
 29 31  0  0  0  0  0  0  0  0999 V2000
   27.9970   42.6038   24.9744 C   0  0  0  0  0  0  0  0  0  0  0  0
   26.6236   42.8918   25.2572 O   0  0  0  0  0  0  0  0  0  0  0  0
   28.0835   41.3284   24.1473 C   0  0  1  0  0  0  0  0  0  0  0  0
   27.4299   40.2818   24.8584 O   0  0  0  0  0  0  0  0  0  0  0  0
   27.4326   41.5289   22.7847 C   0  0  1  0  0  0  0  0  0  0  0  0
   28.2694   42.4102   22.0446 O   0  0  0  0  0  0  0  0  0  0  0  0
   27.1896   40.2436   21.9881 C   0  0  1  0  0  0  0  0  0  0  0  0
   26.5953   40.5925   20.7372 O   0  0  0  0  0  0  0  0  0  0  0  0
   28.4655   39.4536   21.7039 C   0  0  0  0  0  0  0  0  0  0  0  0
   27.0687   37.7111   23.4313 N   0  0  0  0  0  0  0  0  0  0  0  0
   26.3879   36.8983   24.2880 C   0  0  0  0  0  0  0  0  0  0  0  0
   26.0317   37.3200   25.4167 O   0  0  0  0  0  0  0  0  0  0  0  0
   26.0919   35.6221   23.9336 N   0  0  0  0  0  0  0  0  0  0  0  0
   26.4648   35.1308   22.7251 C   0  0  0  0  0  0  0  0  0  0  0  0
   27.1585   35.9486   21.8405 C   0  0  1  0  0  0  0  0  0  0  0  0
   26.1904   33.9484   22.4024 O   0  0  0  0  0  0  0  0  0  0  0  0
   28.2010   36.2653   19.7745 C   0  0  1  0  0  0  0  0  0  0  0  0
   27.5296   35.4705   20.6329 N   0  0  0  0  0  0  0  0  0  0  0  0
   28.5797   35.7648   18.5337 C   0  0  0  0  0  0  0  0  0  0  0  0
   29.2704   36.5602   17.6261 C   0  0  2  0  0  0  0  0  0  0  0  0
   29.6510   35.9536   16.3000 C   0  0  0  0  0  0  0  0  0  0  0  0
   29.5893   37.8818   17.9632 C   0  0  2  0  0  0  0  0  0  0  0  0
   30.2657   38.7220   17.1232 N   0  0  0  0  0  0  0  0  0  0  0  0
   29.2025   38.3714   19.2167 C   0  0  0  0  0  0  0  0  0  0  0  0
   28.5108   37.5769   20.1305 C   0  0  2  0  0  0  0  0  0  0  0  0
   27.4629   37.2642   22.2037 C   0  0  2  0  0  0  0  0  0  0  0  0
   28.1451   38.0596   21.3402 N   0  0  0  0  0  0  0  0  0  0  0  0
   29.5385   39.4692   16.1145 C   0  0  0  0  0  0  0  0  0  0  0  0
   31.7053   38.9099   17.1952 C   0  0  0  0  0  0  0  0  0  0  0  0
  1  2  1  0  0  0  0
  3  1  1  1  0  0  0
  3  4  1  0  0  0  0
  3  5  1  0  0  0  0
  5  6  1  6  0  0  0
  5  7  1  0  0  0  0
  7  8  1  6  0  0  0
  7  9  1  0  0  0  0
  9 27  1  0  0  0  0
 10 11  1  0  0  0  0
 11 12  2  0  0  0  0
 11 13  1  0  0  0  0
 13 14  1  0  0  0  0
 14 16  2  0  0  0  0
 15 14  1  6  0  0  0
 15 18  1  0  0  0  0
 15 26  1  0  0  0  0
 17 19  1  6  0  0  0
 17 25  1  0  0  0  0
 17 18  1  0  0  0  0
 19 20  1  0  0  0  0
 20 21  1  1  0  0  0
 20 22  1  0  0  0  0
 22 23  1  1  0  0  0
 22 24  1  0  0  0  0
 23 28  1  0  0  0  0
 23 29  1  0  0  0  0
 25 24  1  1  0  0  0
 25 27  1  0  0  0  0
 26 10  1  1  0  0  0
 26 27  1  0  0  0  0
M  END
>  <CHROM.1>
-56.31806764,69.95065446,-179.25771777,161.67317013,84.84403301,119.60932196
27.95203533,38.37540017,21.32349491,-2.35594538,-1.09417256,-2.70669299

>  <Name>
ligand

>  <RI>
0

>  <Rbt.Current_Directory>
/home/itssahil/PROJECTS/Mol_Feturizer/New_Systems/rnas/3F4H

>  <Rbt.Executable>
rbdock ($Id: //depot/dev/client3/rdock/2013.1/src/exe/rbdock.cxx#4 $)

>  <Rbt.Library>
libRbt.so (2013.1, Build901 2013/11/27)

>  <Rbt.Parameter_File>
/export/apps/rDock/src/rDock_2013.1_src/data/scripts/dock_solv.prm

>  <Rbt.Receptor>
prm/pocket_docking_4.prm

>  <SCORE>
-46.1421

>  <SCORE.INTER>
-28.7672

>  <SCORE.INTER.CONST>
1

>  <SCORE.INTER.POLAR>
0

>  <SCORE.INTER.ROT>
6

>  <SCORE.INTER.SOLV>
12.1934

>  <SCORE.INTER.VDW>
-30.8426

>  <SCORE.INTER.norm>
-0.991974

>  <SCORE.INTRA>
-17.3775

>  <SCORE.INTRA.DIHEDRAL>
-3.27335

>  <SCORE.INTRA.DIHEDRAL.0>
6.83446

>  <SCORE.INTRA.POLAR>
0

>  <SCORE.INTRA.POLAR.0>
0

>  <SCORE.INTRA.REPUL>
0

>  <SCORE.INTRA.REPUL.0>
0

>  <SCORE.INTRA.SOLV>
0.0822748

>  <SCORE.INTRA.SOLV.lig_0>
-26.4601

>  <SCORE.INTRA.VDW>
-15.782

>  <SCORE.INTRA.VDW.0>
13.7853

>  <SCORE.INTRA.norm>
-0.599225

>  <SCORE.RESTR>
0.00268203

>  <SCORE.RESTR.CAVITY>
0.00268203

>  <SCORE.RESTR.norm>
9.24838e-05

>  <SCORE.SYSTEM>
0

>  <SCORE.SYSTEM.CONST>
0

>  <SCORE.SYSTEM.DIHEDRAL>
0

>  <SCORE.SYSTEM.SOLV>
0

>  <SCORE.SYSTEM.norm>
0

>  <SCORE.heavy>
29

>  <SCORE.norm>
-1.59111

>  <RMSD>
6.142

$$$$
ligand
 OpenBabel11021811473D
libRbt.so/2013.1/901 2013/11/27
 29 31  0  0  0  0  0  0  0  0999 V2000
   28.1976   42.6623   24.7175 C   0  0  0  0  0  0  0  0  0  0  0  0
   29.1621   43.5970   25.2124 O   0  0  0  0  0  0  0  0  0  0  0  0
   28.5772   42.2499   23.3018 C   0  0  1  0  0  0  0  0  0  0  0  0
   29.8544   41.6210   23.3400 O   0  0  0  0  0  0  0  0  0  0  0  0
   27.5366   41.2992   22.7240 C   0  0  1  0  0  0  0  0  0  0  0  0
   26.3065   42.0114   22.6592 O   0  0  0  0  0  0  0  0  0  0  0  0
   27.8812   40.7210   21.3483 C   0  0  1  0  0  0  0  0  0  0  0  0
   28.4042   41.7715   20.5345 O   0  0  0  0  0  0  0  0  0  0  0  0
   28.9176   39.6003   21.4015 C   0  0  0  0  0  0  0  0  0  0  0  0
   28.1264   37.7712   23.4014 N   0  0  0  0  0  0  0  0  0  0  0  0
   27.7517   36.9138   24.3926 C   0  0  0  0  0  0  0  0  0  0  0  0
   27.9450   37.2117   25.5978 O   0  0  0  0  0  0  0  0  0  0  0  0
   27.1703   35.7258   24.0886 N   0  0  0  0  0  0  0  0  0  0  0  0
   26.9502   35.3682   22.7984 C   0  0  0  0  0  0  0  0  0  0  0  0
   27.3259   36.2332   21.7770 C   0  0  1  0  0  0  0  0  0  0  0  0
   26.4137   34.2668   22.5219 O   0  0  0  0  0  0  0  0  0  0  0  0
   27.4696   36.7295   19.4991 C   0  0  1  0  0  0  0  0  0  0  0  0
   27.1065   35.8888   20.4894 N   0  0  0  0  0  0  0  0  0  0  0  0
   27.2405   36.3666   18.1765 C   0  0  0  0  0  0  0  0  0  0  0  0
   27.6011   37.2128   17.1337 C   0  0  2  0  0  0  0  0  0  0  0  0
   27.3249   36.7563   15.7242 C   0  0  0  0  0  0  0  0  0  0  0  0
   28.2022   38.4460   17.4164 C   0  0  2  0  0  0  0  0  0  0  0  0
   28.5834   39.3286   16.4444 N   0  0  0  0  0  0  0  0  0  0  0  0
   28.4277   38.7970   18.7529 C   0  0  0  0  0  0  0  0  0  0  0  0
   28.0688   37.9511   19.8018 C   0  0  2  0  0  0  0  0  0  0  0  0
   27.9237   37.4583   22.0888 C   0  0  2  0  0  0  0  0  0  0  0  0
   28.2947   38.2993   21.0893 N   0  0  0  0  0  0  0  0  0  0  0  0
   29.9134   39.2379   15.8722 C   0  0  0  0  0  0  0  0  0  0  0  0
   27.7030   40.3713   15.9437 C   0  0  0  0  0  0  0  0  0  0  0  0
  1  2  1  0  0  0  0
  3  1  1  1  0  0  0
  3  4  1  0  0  0  0
  3  5  1  0  0  0  0
  5  6  1  6  0  0  0
  5  7  1  0  0  0  0
  7  8  1  6  0  0  0
  7  9  1  0  0  0  0
  9 27  1  0  0  0  0
 10 11  1  0  0  0  0
 11 12  2  0  0  0  0
 11 13  1  0  0  0  0
 13 14  1  0  0  0  0
 14 16  2  0  0  0  0
 15 14  1  1  0  0  0
 15 18  1  0  0  0  0
 15 26  1  0  0  0  0
 17 19  1  1  0  0  0
 17 25  1  0  0  0  0
 17 18  1  0  0  0  0
 19 20  1  0  0  0  0
 20 21  1  6  0  0  0
 20 22  1  0  0  0  0
 22 23  1  6  0  0  0
 22 24  1  0  0  0  0
 23 28  1  0  0  0  0
 23 29  1  0  0  0  0
 25 24  1  6  0  0  0
 25 27  1  0  0  0  0
 26 10  1  6  0  0  0
 26 27  1  0  0  0  0
M  END
>  <CHROM.1>
61.25115727,62.53533617,-43.17504981,109.55341061,-89.11852098,80.51312768
27.96118501,38.78466926,21.03334626,-1.40752817,-1.35595147,-1.80224745

>  <Name>
ligand

>  <RI>
0

>  <Rbt.Current_Directory>
/home/itssahil/PROJECTS/Mol_Feturizer/New_Systems/rnas/3F4H

>  <Rbt.Executable>
rbdock ($Id: //depot/dev/client3/rdock/2013.1/src/exe/rbdock.cxx#4 $)

>  <Rbt.Library>
libRbt.so (2013.1, Build901 2013/11/27)

>  <Rbt.Parameter_File>
/export/apps/rDock/src/rDock_2013.1_src/data/scripts/dock_solv.prm

>  <Rbt.Receptor>
prm/pocket_docking_7.prm

>  <SCORE>
-42.0763

>  <SCORE.INTER>
-26.6716

>  <SCORE.INTER.CONST>
1

>  <SCORE.INTER.POLAR>
0

>  <SCORE.INTER.ROT>
6

>  <SCORE.INTER.SOLV>
12.8992

>  <SCORE.INTER.VDW>
-29.6808

>  <SCORE.INTER.norm>
-0.919709

>  <SCORE.INTRA>
-15.4047

>  <SCORE.INTRA.DIHEDRAL>
1.05016

>  <SCORE.INTRA.DIHEDRAL.0>
6.83446

>  <SCORE.INTRA.POLAR>
0

>  <SCORE.INTRA.POLAR.0>
0

>  <SCORE.INTRA.REPUL>
0

>  <SCORE.INTRA.REPUL.0>
0

>  <SCORE.INTRA.SOLV>
-0.327132

>  <SCORE.INTRA.SOLV.lig_0>
-26.4601

>  <SCORE.INTRA.VDW>
-15.7662

>  <SCORE.INTRA.VDW.0>
13.7853

>  <SCORE.INTRA.norm>
-0.531198

>  <SCORE.RESTR>
0

>  <SCORE.RESTR.CAVITY>
0

>  <SCORE.RESTR.norm>
0

>  <SCORE.SYSTEM>
0

>  <SCORE.SYSTEM.CONST>
0

>  <SCORE.SYSTEM.DIHEDRAL>
0

>  <SCORE.SYSTEM.SOLV>
0

>  <SCORE.SYSTEM.norm>
0

>  <SCORE.heavy>
29

>  <SCORE.norm>
-1.45091

>  <RMSD>
6.142

$$$$
ligand
 OpenBabel11021811473D
libRbt.so/2013.1/901 2013/11/27
 29 31  0  0  0  0  0  0  0  0999 V2000
   29.3471   43.2501   23.9832 C   0  0  0  0  0  0  0  0  0  0  0  0
   28.5893   43.6256   25.1381 O   0  0  0  0  0  0  0  0  0  0  0  0
   28.4358   42.5367   22.9938 C   0  0  1  0  0  0  0  0  0  0  0  0
   29.1893   42.2274   21.8255 O   0  0  0  0  0  0  0  0  0  0  0  0
   27.8688   41.2641   23.6098 C   0  0  1  0  0  0  0  0  0  0  0  0
   26.7419   41.6417   24.3922 O   0  0  0  0  0  0  0  0  0  0  0  0
   27.4698   40.1802   22.6041 C   0  0  1  0  0  0  0  0  0  0  0  0
   26.7261   40.7932   21.5501 O   0  0  0  0  0  0  0  0  0  0  0  0
   28.6632   39.4560   21.9845 C   0  0  0  0  0  0  0  0  0  0  0  0
   27.1112   37.7273   23.5890 N   0  0  0  0  0  0  0  0  0  0  0  0
   26.3562   36.9207   24.3874 C   0  0  0  0  0  0  0  0  0  0  0  0
   25.9818   37.3169   25.5194 O   0  0  0  0  0  0  0  0  0  0  0  0
   26.0047   35.6779   23.9705 N   0  0  0  0  0  0  0  0  0  0  0  0
   26.3947   35.2144   22.7564 C   0  0  0  0  0  0  0  0  0  0  0  0
   27.1640   36.0265   21.9309 C   0  0  1  0  0  0  0  0  0  0  0  0
   26.0688   34.0627   22.3759 O   0  0  0  0  0  0  0  0  0  0  0  0
   28.2977   36.3656   19.9172 C   0  0  1  0  0  0  0  0  0  0  0  0
   27.5530   35.5763   20.7183 N   0  0  0  0  0  0  0  0  0  0  0  0
   28.6943   35.8940   18.6707 C   0  0  0  0  0  0  0  0  0  0  0  0
   29.4602   36.6848   17.8212 C   0  0  2  0  0  0  0  0  0  0  0  0
   29.8560   36.1105   16.4852 C   0  0  0  0  0  0  0  0  0  0  0  0
   29.8375   37.9723   18.2235 C   0  0  2  0  0  0  0  0  0  0  0  0
   30.5891   38.8060   17.4428 N   0  0  0  0  0  0  0  0  0  0  0  0
   29.4318   38.4330   19.4819 C   0  0  0  0  0  0  0  0  0  0  0  0
   28.6648   37.6430   20.3376 C   0  0  2  0  0  0  0  0  0  0  0  0
   27.5256   37.3078   22.3585 C   0  0  2  0  0  0  0  0  0  0  0  0
   28.2814   38.0973   21.5527 N   0  0  0  0  0  0  0  0  0  0  0  0
   29.9329   39.7870   16.5993 C   0  0  0  0  0  0  0  0  0  0  0  0
   32.0417   38.7591   17.4191 C   0  0  0  0  0  0  0  0  0  0  0  0
  1  2  1  0  0  0  0
  3  1  1  1  0  0  0
  3  4  1  0  0  0  0
  3  5  1  0  0  0  0
  5  6  1  6  0  0  0
  5  7  1  0  0  0  0
  7  8  1  6  0  0  0
  7  9  1  0  0  0  0
  9 27  1  0  0  0  0
 10 11  1  0  0  0  0
 11 12  2  0  0  0  0
 11 13  1  0  0  0  0
 13 14  1  0  0  0  0
 14 16  2  0  0  0  0
 15 14  1  6  0  0  0
 15 18  1  0  0  0  0
 15 26  1  0  0  0  0
 17 19  1  6  0  0  0
 17 25  1  0  0  0  0
 17 18  1  0  0  0  0
 19 20  1  0  0  0  0
 20 21  1  1  0  0  0
 20 22  1  0  0  0  0
 22 23  1  1  0  0  0
 22 24  1  0  0  0  0
 23 28  1  0  0  0  0
 23 29  1  0  0  0  0
 25 24  1  1  0  0  0
 25 27  1  0  0  0  0
 26 10  1  1  0  0  0
 26 27  1  0  0  0  0
M  END
>  <CHROM.1>
177.25417782,82.84201026,-46.01779729,153.86547241,94.94989977,134.56154842
28.20895801,38.56315398,21.42129565,-2.10454520,-1.00661525,-2.59417162

>  <Name>
ligand

>  <RI>
0

>  <Rbt.Current_Directory>
/home/itssahil/PROJECTS/Mol_Feturizer/New_Systems/rnas/3F4H

>  <Rbt.Executable>
rbdock ($Id: //depot/dev/client3/rdock/2013.1/src/exe/rbdock.cxx#4 $)

>  <Rbt.Library>
libRbt.so (2013.1, Build901 2013/11/27)

>  <Rbt.Parameter_File>
/export/apps/rDock/src/rDock_2013.1_src/data/scripts/dock_solv.prm

>  <Rbt.Receptor>
prm/blind_docking_100.prm

>  <SCORE>
-45.1969

>  <SCORE.INTER>
-30.9304

>  <SCORE.INTER.CONST>
1

>  <SCORE.INTER.POLAR>
0

>  <SCORE.INTER.ROT>
6

>  <SCORE.INTER.SOLV>
13.413

>  <SCORE.INTER.VDW>
-32.6913

>  <SCORE.INTER.norm>
-1.06656

>  <SCORE.INTRA>
-14.2665

>  <SCORE.INTRA.DIHEDRAL>
-0.25414

>  <SCORE.INTRA.DIHEDRAL.0>
6.83446

>  <SCORE.INTRA.POLAR>
0

>  <SCORE.INTRA.POLAR.0>
0

>  <SCORE.INTRA.REPUL>
0

>  <SCORE.INTRA.REPUL.0>
0

>  <SCORE.INTRA.SOLV>
0.129299

>  <SCORE.INTRA.SOLV.lig_0>
-26.4601

>  <SCORE.INTRA.VDW>
-14.2041

>  <SCORE.INTRA.VDW.0>
13.7853

>  <SCORE.INTRA.norm>
-0.49195

>  <SCORE.RESTR>
0

>  <SCORE.RESTR.CAVITY>
0

>  <SCORE.RESTR.norm>
0

>  <SCORE.SYSTEM>
0

>  <SCORE.SYSTEM.CONST>
0

>  <SCORE.SYSTEM.DIHEDRAL>
0

>  <SCORE.SYSTEM.SOLV>
0

>  <SCORE.SYSTEM.norm>
0

>  <SCORE.heavy>
29

>  <SCORE.norm>
-1.55851

>  <RMSD>
6.147

$$$$
ligand
 OpenBabel11021811473D
libRbt.so/2013.1/901 2013/11/27
 29 31  0  0  0  0  0  0  0  0999 V2000
   28.2180   42.9807   24.9724 C   0  0  0  0  0  0  0  0  0  0  0  0
   29.4087   43.6396   24.5286 O   0  0  0  0  0  0  0  0  0  0  0  0
   28.1070   41.6261   24.2860 C   0  0  1  0  0  0  0  0  0  0  0  0
   27.0868   40.8723   24.9335 O   0  0  0  0  0  0  0  0  0  0  0  0
   27.7794   41.7999   22.8086 C   0  0  1  0  0  0  0  0  0  0  0  0
   28.8668   42.5009   22.2164 O   0  0  0  0  0  0  0  0  0  0  0  0
   27.5173   40.4977   22.0462 C   0  0  1  0  0  0  0  0  0  0  0  0
   27.1833   40.8235   20.6964 O   0  0  0  0  0  0  0  0  0  0  0  0
   28.7177   39.5536   22.0240 C   0  0  0  0  0  0  0  0  0  0  0  0
   27.1459   37.8752   23.6622 N   0  0  0  0  0  0  0  0  0  0  0  0
   26.3821   37.0932   24.4766 C   0  0  0  0  0  0  0  0  0  0  0  0
   26.0247   37.5105   25.6064 O   0  0  0  0  0  0  0  0  0  0  0  0
   26.0034   35.8524   24.0781 N   0  0  0  0  0  0  0  0  0  0  0  0
   26.3746   35.3664   22.8669 C   0  0  0  0  0  0  0  0  0  0  0  0
   27.1525   36.1533   22.0252 C   0  0  1  0  0  0  0  0  0  0  0  0
   26.0235   34.2166   22.5034 O   0  0  0  0  0  0  0  0  0  0  0  0
   28.2761   36.4455   19.9985 C   0  0  1  0  0  0  0  0  0  0  0  0
   27.5230   35.6807   20.8152 N   0  0  0  0  0  0  0  0  0  0  0  0
   28.6534   35.9509   18.7549 C   0  0  0  0  0  0  0  0  0  0  0  0
   29.4273   36.7162   17.8895 C   0  0  2  0  0  0  0  0  0  0  0  0
   29.8012   36.1179   16.5577 C   0  0  0  0  0  0  0  0  0  0  0  0
   29.8326   38.0011   18.2726 C   0  0  2  0  0  0  0  0  0  0  0  0
   30.5936   38.8104   17.4756 N   0  0  0  0  0  0  0  0  0  0  0  0
   29.4460   38.4851   19.5283 C   0  0  0  0  0  0  0  0  0  0  0  0
   28.6710   37.7206   20.3999 C   0  0  2  0  0  0  0  0  0  0  0  0
   27.5421   37.4326   22.4338 C   0  0  2  0  0  0  0  0  0  0  0  0
   28.3063   38.1973   21.6122 N   0  0  0  0  0  0  0  0  0  0  0  0
   32.0374   38.6697   17.4780 C   0  0  0  0  0  0  0  0  0  0  0  0
   30.0154   39.8217   16.6063 C   0  0  0  0  0  0  0  0  0  0  0  0
  1  2  1  0  0  0  0
  3  1  1  1  0  0  0
  3  4  1  0  0  0  0
  3  5  1  0  0  0  0
  5  6  1  6  0  0  0
  5  7  1  0  0  0  0
  7  8  1  6  0  0  0
  7  9  1  0  0  0  0
  9 27  1  0  0  0  0
 10 11  1  0  0  0  0
 11 12  2  0  0  0  0
 11 13  1  0  0  0  0
 13 14  1  0  0  0  0
 14 16  2  0  0  0  0
 15 14  1  6  0  0  0
 15 18  1  0  0  0  0
 15 26  1  0  0  0  0
 17 19  1  6  0  0  0
 17 25  1  0  0  0  0
 17 18  1  0  0  0  0
 19 20  1  0  0  0  0
 20 21  1  1  0  0  0
 20 22  1  0  0  0  0
 22 23  1  1  0  0  0
 22 24  1  0  0  0  0
 23 28  1  0  0  0  0
 23 29  1  0  0  0  0
 25 24  1  1  0  0  0
 25 27  1  0  0  0  0
 26 10  1  1  0  0  0
 26 27  1  0  0  0  0
M  END
>  <CHROM.1>
168.04151215,62.69845696,178.11439919,164.57760473,-84.44849885,109.19769717
28.21103766,38.59516729,21.48379758,-2.16810909,-1.02149720,-2.56501037

>  <Name>
ligand

>  <RI>
0

>  <Rbt.Current_Directory>
/home/itssahil/PROJECTS/Mol_Feturizer/New_Systems/rnas/3F4H

>  <Rbt.Executable>
rbdock ($Id: //depot/dev/client3/rdock/2013.1/src/exe/rbdock.cxx#4 $)

>  <Rbt.Library>
libRbt.so (2013.1, Build901 2013/11/27)

>  <Rbt.Parameter_File>
/export/apps/rDock/src/rDock_2013.1_src/data/scripts/dock_solv.prm

>  <Rbt.Receptor>
prm/pocket_docking_5.prm

>  <SCORE>
-47.9185

>  <SCORE.INTER>
-30.3484

>  <SCORE.INTER.CONST>
1

>  <SCORE.INTER.POLAR>
0

>  <SCORE.INTER.ROT>
6

>  <SCORE.INTER.SOLV>
13.232

>  <SCORE.INTER.VDW>
-32.2429

>  <SCORE.INTER.norm>
-1.0465

>  <SCORE.INTRA>
-17.5701

>  <SCORE.INTRA.DIHEDRAL>
-3.46497

>  <SCORE.INTRA.DIHEDRAL.0>
6.83446

>  <SCORE.INTRA.POLAR>
0

>  <SCORE.INTRA.POLAR.0>
0

>  <SCORE.INTRA.REPUL>
0

>  <SCORE.INTRA.REPUL.0>
0

>  <SCORE.INTRA.SOLV>
-0.0466751

>  <SCORE.INTRA.SOLV.lig_0>
-26.4601

>  <SCORE.INTRA.VDW>
-15.8143

>  <SCORE.INTRA.VDW.0>
13.7853

>  <SCORE.INTRA.norm>
-0.605866

>  <SCORE.RESTR>
0

>  <SCORE.RESTR.CAVITY>
0

>  <SCORE.RESTR.norm>
0

>  <SCORE.SYSTEM>
0

>  <SCORE.SYSTEM.CONST>
0

>  <SCORE.SYSTEM.DIHEDRAL>
0

>  <SCORE.SYSTEM.SOLV>
0

>  <SCORE.SYSTEM.norm>
0

>  <SCORE.heavy>
29

>  <SCORE.norm>
-1.65236

>  <RMSD>
6.159

$$$$
ligand
 OpenBabel11021811473D
libRbt.so/2013.1/901 2013/11/27
 29 31  0  0  0  0  0  0  0  0999 V2000
   27.5019   41.0161   24.9708 C   0  0  0  0  0  0  0  0  0  0  0  0
   26.4073   41.9349   24.8897 O   0  0  0  0  0  0  0  0  0  0  0  0
   28.3086   41.0795   23.6811 C   0  0  1  0  0  0  0  0  0  0  0  0
   29.5172   40.3493   23.8661 O   0  0  0  0  0  0  0  0  0  0  0  0
   27.5109   40.4969   22.5216 C   0  0  1  0  0  0  0  0  0  0  0  0
   26.3904   41.3486   22.3122 O   0  0  0  0  0  0  0  0  0  0  0  0
   28.2941   40.3302   21.2161 C   0  0  1  0  0  0  0  0  0  0  0  0
   29.0178   41.5357   20.9659 O   0  0  0  0  0  0  0  0  0  0  0  0
   29.2926   39.1748   21.2489 C   0  0  0  0  0  0  0  0  0  0  0  0
   27.9548   37.7060   23.2550 N   0  0  0  0  0  0  0  0  0  0  0  0
   27.3137   37.0253   24.2468 C   0  0  0  0  0  0  0  0  0  0  0  0
   27.3014   37.4736   25.4204 O   0  0  0  0  0  0  0  0  0  0  0  0
   26.6857   35.8525   23.9787 N   0  0  0  0  0  0  0  0  0  0  0  0
   26.6822   35.3353   22.7244 C   0  0  0  0  0  0  0  0  0  0  0  0
   27.3308   36.0192   21.7025 C   0  0  1  0  0  0  0  0  0  0  0  0
   26.1015   34.2485   22.4815 O   0  0  0  0  0  0  0  0  0  0  0  0
   27.9566   36.1806   19.4580 C   0  0  1  0  0  0  0  0  0  0  0  0
   27.3287   35.5154   20.4492 N   0  0  0  0  0  0  0  0  0  0  0  0
   27.9499   35.6544   18.1709 C   0  0  0  0  0  0  0  0  0  0  0  0
   28.5861   36.3178   17.1275 C   0  0  2  0  0  0  0  0  0  0  0  0
   28.5407   35.6905   15.7579 C   0  0  0  0  0  0  0  0  0  0  0  0
   29.2418   37.5309   17.3733 C   0  0  2  0  0  0  0  0  0  0  0  0
   29.8882   38.2387   16.3984 N   0  0  0  0  0  0  0  0  0  0  0  0
   29.2412   38.0476   18.6746 C   0  0  0  0  0  0  0  0  0  0  0  0
   28.6056   37.3851   19.7242 C   0  0  2  0  0  0  0  0  0  0  0  0
   27.9770   37.2286   21.9769 C   0  0  2  0  0  0  0  0  0  0  0  0
   28.6144   37.8922   20.9783 N   0  0  0  0  0  0  0  0  0  0  0  0
   31.1218   37.7244   15.8344 C   0  0  0  0  0  0  0  0  0  0  0  0
   29.3881   39.5040   15.8867 C   0  0  0  0  0  0  0  0  0  0  0  0
  1  2  1  0  0  0  0
  3  1  1  1  0  0  0
  3  4  1  0  0  0  0
  3  5  1  0  0  0  0
  5  6  1  6  0  0  0
  5  7  1  0  0  0  0
  7  8  1  1  0  0  0
  7  9  1  0  0  0  0
  9 27  1  0  0  0  0
 10 11  1  0  0  0  0
 11 12  2  0  0  0  0
 11 13  1  0  0  0  0
 13 14  1  0  0  0  0
 14 16  2  0  0  0  0
 15 14  1  6  0  0  0
 15 18  1  0  0  0  0
 15 26  1  0  0  0  0
 17 19  1  6  0  0  0
 17 25  1  0  0  0  0
 17 18  1  0  0  0  0
 19 20  1  0  0  0  0
 20 21  1  1  0  0  0
 20 22  1  0  0  0  0
 22 23  1  1  0  0  0
 22 24  1  0  0  0  0
 23 28  1  0  0  0  0
 23 29  1  0  0  0  0
 25 24  1  1  0  0  0
 25 27  1  0  0  0  0
 26 10  1  1  0  0  0
 26 27  1  0  0  0  0
M  END
>  <CHROM.1>
169.68645725,65.46026047,-46.78165633,81.64013731,-70.16631173,95.89488704
28.13446226,38.15338705,21.00306559,-2.24456434,-1.18404819,-2.52552948

>  <Name>
ligand

>  <RI>
0

>  <Rbt.Current_Directory>
/home/itssahil/PROJECTS/Mol_Feturizer/New_Systems/rnas/3F4H

>  <Rbt.Executable>
rbdock ($Id: //depot/dev/client3/rdock/2013.1/src/exe/rbdock.cxx#4 $)

>  <Rbt.Library>
libRbt.so (2013.1, Build901 2013/11/27)

>  <Rbt.Parameter_File>
/export/apps/rDock/src/rDock_2013.1_src/data/scripts/dock_solv.prm

>  <Rbt.Receptor>
prm/pocket_docking_3.prm

>  <SCORE>
-41.1034

>  <SCORE.INTER>
-24.5178

>  <SCORE.INTER.CONST>
1

>  <SCORE.INTER.POLAR>
0

>  <SCORE.INTER.ROT>
6

>  <SCORE.INTER.SOLV>
10.5463

>  <SCORE.INTER.VDW>
-27.4606

>  <SCORE.INTER.norm>
-0.84544

>  <SCORE.INTRA>
-16.5856

>  <SCORE.INTRA.DIHEDRAL>
-2.22417

>  <SCORE.INTRA.DIHEDRAL.0>
6.83446

>  <SCORE.INTRA.POLAR>
0

>  <SCORE.INTRA.POLAR.0>
0

>  <SCORE.INTRA.REPUL>
0

>  <SCORE.INTRA.REPUL.0>
0

>  <SCORE.INTRA.SOLV>
0.431955

>  <SCORE.INTRA.SOLV.lig_0>
-26.4601

>  <SCORE.INTRA.VDW>
-15.6895

>  <SCORE.INTRA.VDW.0>
13.7853

>  <SCORE.INTRA.norm>
-0.571918

>  <SCORE.RESTR>
0

>  <SCORE.RESTR.CAVITY>
0

>  <SCORE.RESTR.norm>
0

>  <SCORE.SYSTEM>
0

>  <SCORE.SYSTEM.CONST>
0

>  <SCORE.SYSTEM.DIHEDRAL>
0

>  <SCORE.SYSTEM.SOLV>
0

>  <SCORE.SYSTEM.norm>
0

>  <SCORE.heavy>
29

>  <SCORE.norm>
-1.41736

>  <RMSD>
6.173

$$$$
ligand
 OpenBabel11021811473D
libRbt.so/2013.1/901 2013/11/27
 29 31  0  0  0  0  0  0  0  0999 V2000
   29.5273   42.8860   24.6540 C   0  0  0  0  0  0  0  0  0  0  0  0
   28.6700   43.8718   25.2389 O   0  0  0  0  0  0  0  0  0  0  0  0
   28.8325   42.2660   23.4494 C   0  0  1  0  0  0  0  0  0  0  0  0
   28.7954   43.2302   22.4018 O   0  0  0  0  0  0  0  0  0  0  0  0
   29.5706   41.0149   22.9908 C   0  0  1  0  0  0  0  0  0  0  0  0
   29.3747   40.0212   23.9903 O   0  0  0  0  0  0  0  0  0  0  0  0
   29.1419   40.4751   21.6232 C   0  0  1  0  0  0  0  0  0  0  0  0
   29.9662   39.3542   21.3010 O   0  0  0  0  0  0  0  0  0  0  0  0
   27.6842   40.0214   21.5780 C   0  0  0  0  0  0  0  0  0  0  0  0
   26.8991   38.0768   23.4684 N   0  0  0  0  0  0  0  0  0  0  0  0
   26.5114   37.1652   24.4047 C   0  0  0  0  0  0  0  0  0  0  0  0
   26.2351   37.5328   25.5739 O   0  0  0  0  0  0  0  0  0  0  0  0
   26.4247   35.8488   24.0858 N   0  0  0  0  0  0  0  0  0  0  0  0
   26.7200   35.4145   22.8348 C   0  0  0  0  0  0  0  0  0  0  0  0
   27.1155   36.3330   21.8692 C   0  0  1  0  0  0  0  0  0  0  0  0
   26.6403   34.1950   22.5451 O   0  0  0  0  0  0  0  0  0  0  0  0
   27.7885   36.8036   19.6826 C   0  0  1  0  0  0  0  0  0  0  0  0
   27.4067   35.9114   20.6194 N   0  0  0  0  0  0  0  0  0  0  0  0
   28.0870   36.3607   18.3987 C   0  0  0  0  0  0  0  0  0  0  0  0
   28.4808   37.2563   17.4106 C   0  0  2  0  0  0  0  0  0  0  0  0
   28.7903   36.7080   16.0413 C   0  0  0  0  0  0  0  0  0  0  0  0
   28.5785   38.6212   17.7095 C   0  0  2  0  0  0  0  0  0  0  0  0
   28.9590   39.5593   16.7905 N   0  0  0  0  0  0  0  0  0  0  0  0
   28.2761   39.0520   19.0070 C   0  0  0  0  0  0  0  0  0  0  0  0
   27.8819   38.1573   20.0013 C   0  0  2  0  0  0  0  0  0  0  0  0
   27.2039   37.6898   22.1959 C   0  0  2  0  0  0  0  0  0  0  0  0
   27.5955   38.5846   21.2525 N   0  0  0  0  0  0  0  0  0  0  0  0
   27.9534   40.2261   15.9851 C   0  0  0  0  0  0  0  0  0  0  0  0
   30.3482   39.9312   16.5796 C   0  0  0  0  0  0  0  0  0  0  0  0
  1  2  1  0  0  0  0
  3  1  1  1  0  0  0
  3  4  1  0  0  0  0
  3  5  1  0  0  0  0
  5  6  1  1  0  0  0
  5  7  1  0  0  0  0
  7  8  1  1  0  0  0
  7  9  1  0  0  0  0
  9 27  1  0  0  0  0
 10 11  1  0  0  0  0
 11 12  2  0  0  0  0
 11 13  1  0  0  0  0
 13 14  1  0  0  0  0
 14 16  2  0  0  0  0
 15 14  1  6  0  0  0
 15 18  1  0  0  0  0
 15 26  1  0  0  0  0
 17 19  1  6  0  0  0
 17 25  1  0  0  0  0
 17 18  1  0  0  0  0
 19 20  1  0  0  0  0
 20 21  1  1  0  0  0
 20 22  1  0  0  0  0
 22 23  1  1  0  0  0
 22 24  1  0  0  0  0
 23 28  1  0  0  0  0
 23 29  1  0  0  0  0
 25 24  1  1  0  0  0
 25 27  1  0  0  0  0
 26 10  1  1  0  0  0
 26 27  1  0  0  0  0
M  END
>  <CHROM.1>
71.33779826,69.56121285,176.87839351,-119.01721232,90.87793939,-71.52772583
28.14609067,38.79362384,21.22297132,-1.66549903,-1.18330028,-2.05188906

>  <Name>
ligand

>  <RI>
0

>  <Rbt.Current_Directory>
/home/itssahil/PROJECTS/Mol_Feturizer/New_Systems/rnas/3F4H

>  <Rbt.Executable>
rbdock ($Id: //depot/dev/client3/rdock/2013.1/src/exe/rbdock.cxx#4 $)

>  <Rbt.Library>
libRbt.so (2013.1, Build901 2013/11/27)

>  <Rbt.Parameter_File>
/export/apps/rDock/src/rDock_2013.1_src/data/scripts/dock_solv.prm

>  <Rbt.Receptor>
prm/blind_docking_60.prm

>  <SCORE>
-43.6007

>  <SCORE.INTER>
-28.8822

>  <SCORE.INTER.CONST>
1

>  <SCORE.INTER.POLAR>
0

>  <SCORE.INTER.ROT>
6

>  <SCORE.INTER.SOLV>
15.0117

>  <SCORE.INTER.VDW>
-31.8587

>  <SCORE.INTER.norm>
-0.995937

>  <SCORE.INTRA>
-14.7185

>  <SCORE.INTRA.DIHEDRAL>
1.30556

>  <SCORE.INTRA.DIHEDRAL.0>
6.83446

>  <SCORE.INTRA.POLAR>
0

>  <SCORE.INTRA.POLAR.0>
0

>  <SCORE.INTRA.REPUL>
0

>  <SCORE.INTRA.REPUL.0>
0

>  <SCORE.INTRA.SOLV>
-0.201212

>  <SCORE.INTRA.SOLV.lig_0>
-26.4601

>  <SCORE.INTRA.VDW>
-15.2707

>  <SCORE.INTRA.VDW.0>
13.7853

>  <SCORE.INTRA.norm>
-0.507534

>  <SCORE.RESTR>
0

>  <SCORE.RESTR.CAVITY>
0

>  <SCORE.RESTR.norm>
0

>  <SCORE.SYSTEM>
0

>  <SCORE.SYSTEM.CONST>
0

>  <SCORE.SYSTEM.DIHEDRAL>
0

>  <SCORE.SYSTEM.SOLV>
0

>  <SCORE.SYSTEM.norm>
0

>  <SCORE.heavy>
29

>  <SCORE.norm>
-1.50347

>  <RMSD>
6.188

$$$$
ligand
 OpenBabel11021811473D
libRbt.so/2013.1/901 2013/11/27
 29 31  0  0  0  0  0  0  0  0999 V2000
   26.1130   41.1079   24.0223 C   0  0  0  0  0  0  0  0  0  0  0  0
   25.2430   41.8990   23.2062 O   0  0  0  0  0  0  0  0  0  0  0  0
   27.4381   41.8366   24.1984 C   0  0  1  0  0  0  0  0  0  0  0  0
   28.2424   41.0996   25.1141 O   0  0  0  0  0  0  0  0  0  0  0  0
   28.1535   41.9775   22.8610 C   0  0  1  0  0  0  0  0  0  0  0  0
   29.3560   42.6992   23.1014 O   0  0  0  0  0  0  0  0  0  0  0  0
   28.4673   40.6565   22.1524 C   0  0  1  0  0  0  0  0  0  0  0  0
   28.9740   39.7346   23.1182 O   0  0  0  0  0  0  0  0  0  0  0  0
   27.2505   40.0216   21.4822 C   0  0  0  0  0  0  0  0  0  0  0  0
   26.7978   37.9057   23.2958 N   0  0  0  0  0  0  0  0  0  0  0  0
   26.5629   36.9081   24.1945 C   0  0  0  0  0  0  0  0  0  0  0  0
   26.1240   37.1754   25.3410 O   0  0  0  0  0  0  0  0  0  0  0  0
   26.8055   35.6147   23.8627 N   0  0  0  0  0  0  0  0  0  0  0  0
   27.2842   35.2886   22.6357 C   0  0  0  0  0  0  0  0  0  0  0  0
   27.5273   36.2954   21.7084 C   0  0  1  0  0  0  0  0  0  0  0  0
   27.5093   34.0904   22.3340 O   0  0  0  0  0  0  0  0  0  0  0  0
   28.2328   36.9581   19.5827 C   0  0  1  0  0  0  0  0  0  0  0  0
   27.9990   35.9808   20.4824 N   0  0  0  0  0  0  0  0  0  0  0  0
   28.7189   36.6253   18.3232 C   0  0  0  0  0  0  0  0  0  0  0  0
   28.9674   37.6099   17.3732 C   0  0  2  0  0  0  0  0  0  0  0  0
   29.4947   37.1789   16.0288 C   0  0  0  0  0  0  0  0  0  0  0  0
   28.7256   38.9535   17.6863 C   0  0  2  0  0  0  0  0  0  0  0  0
   28.9462   39.9748   16.8045 N   0  0  0  0  0  0  0  0  0  0  0  0
   28.2374   39.2734   18.9590 C   0  0  0  0  0  0  0  0  0  0  0  0
   27.9880   38.2895   19.9152 C   0  0  2  0  0  0  0  0  0  0  0  0
   27.2763   37.6284   22.0484 C   0  0  2  0  0  0  0  0  0  0  0  0
   27.5195   38.6106   21.1429 N   0  0  0  0  0  0  0  0  0  0  0  0
   30.2965   40.4587   16.5878 C   0  0  0  0  0  0  0  0  0  0  0  0
   27.8736   40.6091   16.0560 C   0  0  0  0  0  0  0  0  0  0  0  0
  1  2  1  0  0  0  0
  3  1  1  6  0  0  0
  3  4  1  0  0  0  0
  3  5  1  0  0  0  0
  5  6  1  1  0  0  0
  5  7  1  0  0  0  0
  7  8  1  1  0  0  0
  7  9  1  0  0  0  0
  9 27  1  0  0  0  0
 10 11  1  0  0  0  0
 11 12  2  0  0  0  0
 11 13  1  0  0  0  0
 13 14  1  0  0  0  0
 14 16  2  0  0  0  0
 15 14  1  6  0  0  0
 15 18  1  0  0  0  0
 15 26  1  0  0  0  0
 17 19  1  6  0  0  0
 17 25  1  0  0  0  0
 17 18  1  0  0  0  0
 19 20  1  0  0  0  0
 20 21  1  1  0  0  0
 20 22  1  0  0  0  0
 22 23  1  1  0  0  0
 22 24  1  0  0  0  0
 23 28  1  0  0  0  0
 23 29  1  0  0  0  0
 25 24  1  1  0  0  0
 25 27  1  0  0  0  0
 26 10  1  1  0  0  0
 26 27  1  0  0  0  0
M  END
>  <CHROM.1>
174.50267838,178.29659778,-43.77822133,-164.67057843,-78.59875965,-93.17886828
27.86255591,38.77914605,21.22926960,-2.70472921,-1.28066884,-2.79646100

>  <Name>
ligand

>  <RI>
0

>  <Rbt.Current_Directory>
/home/itssahil/PROJECTS/Mol_Feturizer/New_Systems/rnas/3F4H

>  <Rbt.Executable>
rbdock ($Id: //depot/dev/client3/rdock/2013.1/src/exe/rbdock.cxx#4 $)

>  <Rbt.Library>
libRbt.so (2013.1, Build901 2013/11/27)

>  <Rbt.Parameter_File>
/export/apps/rDock/src/rDock_2013.1_src/data/scripts/dock_solv.prm

>  <Rbt.Receptor>
prm/blind_docking_80.prm

>  <SCORE>
-40.4168

>  <SCORE.INTER>
-24.5493

>  <SCORE.INTER.CONST>
1

>  <SCORE.INTER.POLAR>
0

>  <SCORE.INTER.ROT>
6

>  <SCORE.INTER.SOLV>
11.5043

>  <SCORE.INTER.VDW>
-27.801

>  <SCORE.INTER.norm>
-0.846527

>  <SCORE.INTRA>
-15.8805

>  <SCORE.INTRA.DIHEDRAL>
-2.94099

>  <SCORE.INTRA.DIHEDRAL.0>
6.83446

>  <SCORE.INTRA.POLAR>
0

>  <SCORE.INTRA.POLAR.0>
0

>  <SCORE.INTRA.REPUL>
0

>  <SCORE.INTRA.REPUL.0>
0

>  <SCORE.INTRA.SOLV>
0.535863

>  <SCORE.INTRA.SOLV.lig_0>
-26.4601

>  <SCORE.INTRA.VDW>
-14.678

>  <SCORE.INTRA.VDW.0>
13.7853

>  <SCORE.INTRA.norm>
-0.547605

>  <SCORE.RESTR>
0.0130636

>  <SCORE.RESTR.CAVITY>
0.0130636

>  <SCORE.RESTR.norm>
0.000450469

>  <SCORE.SYSTEM>
0

>  <SCORE.SYSTEM.CONST>
0

>  <SCORE.SYSTEM.DIHEDRAL>
0

>  <SCORE.SYSTEM.SOLV>
0

>  <SCORE.SYSTEM.norm>
0

>  <SCORE.heavy>
29

>  <SCORE.norm>
-1.39368

>  <RMSD>
6.195

$$$$
ligand
 OpenBabel11021811473D
libRbt.so/2013.1/901 2013/11/27
 29 31  0  0  0  0  0  0  0  0999 V2000
   28.9603   43.1575   24.7190 C   0  0  0  0  0  0  0  0  0  0  0  0
   27.7334   43.3607   25.4278 O   0  0  0  0  0  0  0  0  0  0  0  0
   28.9314   41.7928   24.0444 C   0  0  1  0  0  0  0  0  0  0  0  0
   28.5933   40.8120   25.0202 O   0  0  0  0  0  0  0  0  0  0  0  0
   27.9178   41.7790   22.9074 C   0  0  1  0  0  0  0  0  0  0  0  0
   28.4572   42.5686   21.8537 O   0  0  0  0  0  0  0  0  0  0  0  0
   27.5503   40.3871   22.3847 C   0  0  1  0  0  0  0  0  0  0  0  0
   26.7087   40.5413   21.2412 O   0  0  0  0  0  0  0  0  0  0  0  0
   28.7615   39.5521   21.9740 C   0  0  0  0  0  0  0  0  0  0  0  0
   27.2112   37.8767   23.6356 N   0  0  0  0  0  0  0  0  0  0  0  0
   26.4580   37.0962   24.4613 C   0  0  0  0  0  0  0  0  0  0  0  0
   26.1144   37.5160   25.5945 O   0  0  0  0  0  0  0  0  0  0  0  0
   26.0752   35.8542   24.0705 N   0  0  0  0  0  0  0  0  0  0  0  0
   26.4317   35.3656   22.8560 C   0  0  0  0  0  0  0  0  0  0  0  0
   27.1986   36.1509   22.0028 C   0  0  1  0  0  0  0  0  0  0  0  0
   26.0769   34.2147   22.4996 O   0  0  0  0  0  0  0  0  0  0  0  0
   28.2968   36.4390   19.9616 C   0  0  1  0  0  0  0  0  0  0  0  0
   27.5543   35.6757   20.7895 N   0  0  0  0  0  0  0  0  0  0  0  0
   28.6590   35.9416   18.7146 C   0  0  0  0  0  0  0  0  0  0  0  0
   29.4216   36.7053   17.8379 C   0  0  2  0  0  0  0  0  0  0  0  0
   29.7794   36.1040   16.5031 C   0  0  0  0  0  0  0  0  0  0  0  0
   29.8308   37.9914   18.2129 C   0  0  2  0  0  0  0  0  0  0  0  0
   30.5814   38.7992   17.4046 N   0  0  0  0  0  0  0  0  0  0  0  0
   29.4595   38.4781   19.4722 C   0  0  0  0  0  0  0  0  0  0  0  0
   28.6959   37.7153   20.3550 C   0  0  2  0  0  0  0  0  0  0  0  0
   27.5924   37.4314   22.4035 C   0  0  2  0  0  0  0  0  0  0  0  0
   28.3459   38.1946   21.5707 N   0  0  0  0  0  0  0  0  0  0  0  0
   32.0263   38.6703   17.4013 C   0  0  0  0  0  0  0  0  0  0  0  0
   29.9908   39.7975   16.5286 C   0  0  0  0  0  0  0  0  0  0  0  0
  1  2  1  0  0  0  0
  3  1  1  1  0  0  0
  3  4  1  0  0  0  0
  3  5  1  0  0  0  0
  5  6  1  6  0  0  0
  5  7  1  0  0  0  0
  7  8  1  6  0  0  0
  7  9  1  0  0  0  0
  9 27  1  0  0  0  0
 10 11  1  0  0  0  0
 11 12  2  0  0  0  0
 11 13  1  0  0  0  0
 13 14  1  0  0  0  0
 14 16  2  0  0  0  0
 15 14  1  6  0  0  0
 15 18  1  0  0  0  0
 15 26  1  0  0  0  0
 17 19  1  6  0  0  0
 17 25  1  0  0  0  0
 17 18  1  0  0  0  0
 19 20  1  0  0  0  0
 20 21  1  1  0  0  0
 20 22  1  0  0  0  0
 22 23  1  1  0  0  0
 22 24  1  0  0  0  0
 23 28  1  0  0  0  0
 23 29  1  0  0  0  0
 25 24  1  1  0  0  0
 25 27  1  0  0  0  0
 26 10  1  1  0  0  0
 26 27  1  0  0  0  0
M  END
>  <CHROM.1>
-52.06608046,71.73726574,-174.01033108,176.04339891,-85.18180316,124.93480114
28.24805894,38.57692432,21.50073180,-2.12926055,-1.03894681,-2.54699727

>  <Name>
ligand

>  <RI>
0

>  <Rbt.Current_Directory>
/home/itssahil/PROJECTS/Mol_Feturizer/New_Systems/rnas/3F4H

>  <Rbt.Executable>
rbdock ($Id: //depot/dev/client3/rdock/2013.1/src/exe/rbdock.cxx#4 $)

>  <Rbt.Library>
libRbt.so (2013.1, Build901 2013/11/27)

>  <Rbt.Parameter_File>
/export/apps/rDock/src/rDock_2013.1_src/data/scripts/dock_solv.prm

>  <Rbt.Receptor>
prm/blind_docking_60.prm

>  <SCORE>
-48.07

>  <SCORE.INTER>
-30.8211

>  <SCORE.INTER.CONST>
1

>  <SCORE.INTER.POLAR>
0

>  <SCORE.INTER.ROT>
6

>  <SCORE.INTER.SOLV>
13.6095

>  <SCORE.INTER.VDW>
-32.6839

>  <SCORE.INTER.norm>
-1.0628

>  <SCORE.INTRA>
-17.2488

>  <SCORE.INTRA.DIHEDRAL>
-3.89761

>  <SCORE.INTRA.DIHEDRAL.0>
6.83446

>  <SCORE.INTRA.POLAR>
0

>  <SCORE.INTRA.POLAR.0>
0

>  <SCORE.INTRA.REPUL>
0

>  <SCORE.INTRA.REPUL.0>
0

>  <SCORE.INTRA.SOLV>
-0.160854

>  <SCORE.INTRA.SOLV.lig_0>
-26.4601

>  <SCORE.INTRA.VDW>
-15.2196

>  <SCORE.INTRA.VDW.0>
13.7853

>  <SCORE.INTRA.norm>
-0.594788

>  <SCORE.RESTR>
0

>  <SCORE.RESTR.CAVITY>
0

>  <SCORE.RESTR.norm>
0

>  <SCORE.SYSTEM>
0

>  <SCORE.SYSTEM.CONST>
0

>  <SCORE.SYSTEM.DIHEDRAL>
0

>  <SCORE.SYSTEM.SOLV>
0

>  <SCORE.SYSTEM.norm>
0

>  <SCORE.heavy>
29

>  <SCORE.norm>
-1.65758

>  <RMSD>
6.203

$$$$
ligand
 OpenBabel11021811473D
libRbt.so/2013.1/901 2013/11/27
 29 31  0  0  0  0  0  0  0  0999 V2000
   29.1718   43.1525   24.6753 C   0  0  0  0  0  0  0  0  0  0  0  0
   27.9799   43.4638   25.4043 O   0  0  0  0  0  0  0  0  0  0  0  0
   29.0411   41.7628   24.0673 C   0  0  1  0  0  0  0  0  0  0  0  0
   28.6962   40.8463   25.1014 O   0  0  0  0  0  0  0  0  0  0  0  0
   27.9781   41.7537   22.9762 C   0  0  1  0  0  0  0  0  0  0  0  0
   28.4692   42.5500   21.9041 O   0  0  0  0  0  0  0  0  0  0  0  0
   27.5898   40.3641   22.4625 C   0  0  1  0  0  0  0  0  0  0  0  0
   26.7091   40.5235   21.3495 O   0  0  0  0  0  0  0  0  0  0  0  0
   28.7842   39.5280   22.0073 C   0  0  0  0  0  0  0  0  0  0  0  0
   27.1965   37.8756   23.6565 N   0  0  0  0  0  0  0  0  0  0  0  0
   26.4256   37.1062   24.4761 C   0  0  0  0  0  0  0  0  0  0  0  0
   26.0810   37.5301   25.6076 O   0  0  0  0  0  0  0  0  0  0  0  0
   26.0258   35.8708   24.0813 N   0  0  0  0  0  0  0  0  0  0  0  0
   26.3825   35.3779   22.8686 C   0  0  0  0  0  0  0  0  0  0  0  0
   27.1675   36.1519   22.0215 C   0  0  1  0  0  0  0  0  0  0  0  0
   26.0119   34.2332   22.5084 O   0  0  0  0  0  0  0  0  0  0  0  0
   28.2837   36.4249   19.9880 C   0  0  1  0  0  0  0  0  0  0  0  0
   27.5237   35.6725   20.8100 N   0  0  0  0  0  0  0  0  0  0  0  0
   28.6463   35.9232   18.7429 C   0  0  0  0  0  0  0  0  0  0  0  0
   29.4268   36.6758   17.8722 C   0  0  2  0  0  0  0  0  0  0  0  0
   29.7838   36.0704   16.5390 C   0  0  0  0  0  0  0  0  0  0  0  0
   29.8537   37.9548   18.2515 C   0  0  2  0  0  0  0  0  0  0  0  0
   30.6224   38.7514   17.4492 N   0  0  0  0  0  0  0  0  0  0  0  0
   29.4818   38.4459   19.5088 C   0  0  0  0  0  0  0  0  0  0  0  0
   28.7003   37.6942   20.3857 C   0  0  2  0  0  0  0  0  0  0  0  0
   27.5789   37.4256   22.4264 C   0  0  2  0  0  0  0  0  0  0  0  0
   28.3499   38.1777   21.5995 N   0  0  0  0  0  0  0  0  0  0  0  0
   32.0636   38.5866   17.4410 C   0  0  0  0  0  0  0  0  0  0  0  0
   30.0549   39.7727   16.5844 C   0  0  0  0  0  0  0  0  0  0  0  0
  1  2  1  0  0  0  0
  3  1  1  1  0  0  0
  3  4  1  0  0  0  0
  3  5  1  0  0  0  0
  5  6  1  6  0  0  0
  5  7  1  0  0  0  0
  7  8  1  6  0  0  0
  7  9  1  0  0  0  0
  9 27  1  0  0  0  0
 10 11  1  0  0  0  0
 11 12  2  0  0  0  0
 11 13  1  0  0  0  0
 13 14  1  0  0  0  0
 14 16  2  0  0  0  0
 15 14  1  6  0  0  0
 15 18  1  0  0  0  0
 15 26  1  0  0  0  0
 17 19  1  6  0  0  0
 17 25  1  0  0  0  0
 17 18  1  0  0  0  0
 19 20  1  0  0  0  0
 20 21  1  1  0  0  0
 20 22  1  0  0  0  0
 22 23  1  1  0  0  0
 22 24  1  0  0  0  0
 23 28  1  0  0  0  0
 23 29  1  0  0  0  0
 25 24  1  1  0  0  0
 25 27  1  0  0  0  0
 26 10  1  1  0  0  0
 26 27  1  0  0  0  0
M  END
>  <CHROM.1>
-53.15125923,67.42491861,-173.41405753,176.71082167,-84.29763267,127.13166745
28.27304388,38.56743841,21.53282272,-2.08083727,-1.02113731,-2.51582278

>  <Name>
ligand

>  <RI>
0

>  <Rbt.Current_Directory>
/home/itssahil/PROJECTS/Mol_Feturizer/New_Systems/rnas/3F4H

>  <Rbt.Executable>
rbdock ($Id: //depot/dev/client3/rdock/2013.1/src/exe/rbdock.cxx#4 $)

>  <Rbt.Library>
libRbt.so (2013.1, Build901 2013/11/27)

>  <Rbt.Parameter_File>
/export/apps/rDock/src/rDock_2013.1_src/data/scripts/dock_solv.prm

>  <Rbt.Receptor>
prm/blind_docking_60.prm

>  <SCORE>
-48.2505

>  <SCORE.INTER>
-31.0103

>  <SCORE.INTER.CONST>
1

>  <SCORE.INTER.POLAR>
0

>  <SCORE.INTER.ROT>
6

>  <SCORE.INTER.SOLV>
13.8956

>  <SCORE.INTER.VDW>
-32.9054

>  <SCORE.INTER.norm>
-1.06932

>  <SCORE.INTRA>
-17.2402

>  <SCORE.INTRA.DIHEDRAL>
-4.23219

>  <SCORE.INTRA.DIHEDRAL.0>
6.83446

>  <SCORE.INTRA.POLAR>
0

>  <SCORE.INTRA.POLAR.0>
0

>  <SCORE.INTRA.REPUL>
0

>  <SCORE.INTRA.REPUL.0>
0

>  <SCORE.INTRA.SOLV>
-0.175739

>  <SCORE.INTRA.SOLV.lig_0>
-26.4601

>  <SCORE.INTRA.VDW>
-15.0362

>  <SCORE.INTRA.VDW.0>
13.7853

>  <SCORE.INTRA.norm>
-0.594489

>  <SCORE.RESTR>
0

>  <SCORE.RESTR.CAVITY>
0

>  <SCORE.RESTR.norm>
0

>  <SCORE.SYSTEM>
0

>  <SCORE.SYSTEM.CONST>
0

>  <SCORE.SYSTEM.DIHEDRAL>
0

>  <SCORE.SYSTEM.SOLV>
0

>  <SCORE.SYSTEM.norm>
0

>  <SCORE.heavy>
29

>  <SCORE.norm>
-1.66381

>  <RMSD>
6.213

$$$$
ligand
 OpenBabel11021811473D
libRbt.so/2013.1/901 2013/11/27
 29 31  0  0  0  0  0  0  0  0999 V2000
   28.9389   43.3218   24.5766 C   0  0  0  0  0  0  0  0  0  0  0  0
   28.3954   43.7958   25.8131 O   0  0  0  0  0  0  0  0  0  0  0  0
   28.1497   42.1048   24.1139 C   0  0  1  0  0  0  0  0  0  0  0  0
   26.8197   42.5151   23.8120 O   0  0  0  0  0  0  0  0  0  0  0  0
   28.8013   41.4787   22.8876 C   0  0  1  0  0  0  0  0  0  0  0  0
   30.1434   41.1632   23.2396 O   0  0  0  0  0  0  0  0  0  0  0  0
   28.0950   40.2333   22.3439 C   0  0  1  0  0  0  0  0  0  0  0  0
   26.8833   40.6421   21.7081 O   0  0  0  0  0  0  0  0  0  0  0  0
   28.9277   39.4575   21.3254 C   0  0  0  0  0  0  0  0  0  0  0  0
   28.1276   37.6321   23.3252 N   0  0  0  0  0  0  0  0  0  0  0  0
   27.7489   36.7765   24.3164 C   0  0  0  0  0  0  0  0  0  0  0  0
   27.9474   37.0715   25.5214 O   0  0  0  0  0  0  0  0  0  0  0  0
   27.1578   35.5932   24.0125 N   0  0  0  0  0  0  0  0  0  0  0  0
   26.9319   35.2387   22.7225 C   0  0  0  0  0  0  0  0  0  0  0  0
   27.3116   36.1020   21.7011 C   0  0  1  0  0  0  0  0  0  0  0  0
   26.3864   34.1417   22.4460 O   0  0  0  0  0  0  0  0  0  0  0  0
   27.4534   36.5997   19.4234 C   0  0  1  0  0  0  0  0  0  0  0  0
   27.0864   35.7607   20.4137 N   0  0  0  0  0  0  0  0  0  0  0  0
   27.2183   36.2401   18.1010 C   0  0  0  0  0  0  0  0  0  0  0  0
   27.5828   37.0847   17.0582 C   0  0  2  0  0  0  0  0  0  0  0  0
   27.2997   36.6319   15.6489 C   0  0  0  0  0  0  0  0  0  0  0  0
   28.1938   38.3130   17.3407 C   0  0  2  0  0  0  0  0  0  0  0  0
   28.5793   39.1939   16.3688 N   0  0  0  0  0  0  0  0  0  0  0  0
   28.4253   38.6609   18.6771 C   0  0  0  0  0  0  0  0  0  0  0  0
   28.0626   37.8164   19.7260 C   0  0  2  0  0  0  0  0  0  0  0  0
   27.9194   37.3222   22.0128 C   0  0  2  0  0  0  0  0  0  0  0  0
   28.2942   38.1615   21.0133 N   0  0  0  0  0  0  0  0  0  0  0  0
   27.6370   40.1822   15.8793 C   0  0  0  0  0  0  0  0  0  0  0  0
   29.9143   39.1910   15.7936 C   0  0  0  0  0  0  0  0  0  0  0  0
  1  2  1  0  0  0  0
  3  1  1  6  0  0  0
  3  4  1  0  0  0  0
  3  5  1  0  0  0  0
  5  6  1  1  0  0  0
  5  7  1  0  0  0  0
  7  8  1  6  0  0  0
  7  9  1  0  0  0  0
  9 27  1  0  0  0  0
 10 11  1  0  0  0  0
 11 12  2  0  0  0  0
 11 13  1  0  0  0  0
 13 14  1  0  0  0  0
 14 16  2  0  0  0  0
 15 14  1  1  0  0  0
 15 18  1  0  0  0  0
 15 26  1  0  0  0  0
 17 19  1  1  0  0  0
 17 25  1  0  0  0  0
 17 18  1  0  0  0  0
 19 20  1  0  0  0  0
 20 21  1  6  0  0  0
 20 22  1  0  0  0  0
 22 23  1  6  0  0  0
 22 24  1  0  0  0  0
 23 28  1  0  0  0  0
 23 29  1  0  0  0  0
 25 24  1  6  0  0  0
 25 27  1  0  0  0  0
 26 10  1  6  0  0  0
 26 27  1  0  0  0  0
M  END
>  <CHROM.1>
65.43453730,56.73148352,72.67683578,170.51873124,88.11747924,127.59614729
27.95325012,38.66475215,21.15310562,-1.37085972,-1.35461357,-1.85222016

>  <Name>
ligand

>  <RI>
0

>  <Rbt.Current_Directory>
/home/itssahil/PROJECTS/Mol_Feturizer/New_Systems/rnas/3F4H

>  <Rbt.Executable>
rbdock ($Id: //depot/dev/client3/rdock/2013.1/src/exe/rbdock.cxx#4 $)

>  <Rbt.Library>
libRbt.so (2013.1, Build901 2013/11/27)

>  <Rbt.Parameter_File>
/export/apps/rDock/src/rDock_2013.1_src/data/scripts/dock_solv.prm

>  <Rbt.Receptor>
prm/blind_docking_100.prm

>  <SCORE>
-44.2809

>  <SCORE.INTER>
-27.2346

>  <SCORE.INTER.CONST>
1

>  <SCORE.INTER.POLAR>
0

>  <SCORE.INTER.ROT>
6

>  <SCORE.INTER.SOLV>
13.7377

>  <SCORE.INTER.VDW>
-30.3356

>  <SCORE.INTER.norm>
-0.939124

>  <SCORE.INTRA>
-17.0463

>  <SCORE.INTRA.DIHEDRAL>
-3.76705

>  <SCORE.INTRA.DIHEDRAL.0>
6.83446

>  <SCORE.INTRA.POLAR>
0

>  <SCORE.INTRA.POLAR.0>
0

>  <SCORE.INTRA.REPUL>
0

>  <SCORE.INTRA.REPUL.0>
0

>  <SCORE.INTRA.SOLV>
-0.444739

>  <SCORE.INTRA.SOLV.lig_0>
-26.4601

>  <SCORE.INTRA.VDW>
-14.9404

>  <SCORE.INTRA.VDW.0>
13.7853

>  <SCORE.INTRA.norm>
-0.587803

>  <SCORE.RESTR>
0

>  <SCORE.RESTR.CAVITY>
0

>  <SCORE.RESTR.norm>
0

>  <SCORE.SYSTEM>
0

>  <SCORE.SYSTEM.CONST>
0

>  <SCORE.SYSTEM.DIHEDRAL>
0

>  <SCORE.SYSTEM.SOLV>
0

>  <SCORE.SYSTEM.norm>
0

>  <SCORE.heavy>
29

>  <SCORE.norm>
-1.52693

>  <RMSD>
6.217

$$$$
ligand
 OpenBabel11021811473D
libRbt.so/2013.1/901 2013/11/27
 29 31  0  0  0  0  0  0  0  0999 V2000
   28.9162   43.3146   24.5752 C   0  0  0  0  0  0  0  0  0  0  0  0
   28.3609   43.7927   25.8048 O   0  0  0  0  0  0  0  0  0  0  0  0
   28.1158   42.1113   24.0960 C   0  0  1  0  0  0  0  0  0  0  0  0
   26.8042   42.5473   23.7524 O   0  0  0  0  0  0  0  0  0  0  0  0
   28.7902   41.4643   22.8932 C   0  0  1  0  0  0  0  0  0  0  0  0
   30.1198   41.1386   23.2815 O   0  0  0  0  0  0  0  0  0  0  0  0
   28.0837   40.2202   22.3465 C   0  0  1  0  0  0  0  0  0  0  0  0
   26.8739   40.6310   21.7085 O   0  0  0  0  0  0  0  0  0  0  0  0
   28.9179   39.4448   21.3288 C   0  0  0  0  0  0  0  0  0  0  0  0
   28.1141   37.6274   23.3344 N   0  0  0  0  0  0  0  0  0  0  0  0
   27.7335   36.7757   24.3283 C   0  0  0  0  0  0  0  0  0  0  0  0
   27.9267   37.0771   25.5326 O   0  0  0  0  0  0  0  0  0  0  0  0
   27.1461   35.5897   24.0279 N   0  0  0  0  0  0  0  0  0  0  0  0
   26.9259   35.2285   22.7388 C   0  0  0  0  0  0  0  0  0  0  0  0
   27.3077   36.0876   21.7146 C   0  0  1  0  0  0  0  0  0  0  0  0
   26.3839   34.1289   22.4656 O   0  0  0  0  0  0  0  0  0  0  0  0
   27.4572   36.5746   19.4352 C   0  0  1  0  0  0  0  0  0  0  0  0
   27.0882   35.7396   20.4281 N   0  0  0  0  0  0  0  0  0  0  0  0
   27.2280   36.2080   18.1136 C   0  0  0  0  0  0  0  0  0  0  0  0
   27.5946   37.0483   17.0681 C   0  0  2  0  0  0  0  0  0  0  0  0
   27.3179   36.5880   15.6600 C   0  0  0  0  0  0  0  0  0  0  0  0
   28.2019   38.2794   17.3470 C   0  0  2  0  0  0  0  0  0  0  0  0
   28.5892   39.1563   16.3723 N   0  0  0  0  0  0  0  0  0  0  0  0
   28.4274   38.6342   18.6826 C   0  0  0  0  0  0  0  0  0  0  0  0
   28.0625   37.7941   19.7341 C   0  0  2  0  0  0  0  0  0  0  0  0
   27.9116   37.3106   22.0227 C   0  0  2  0  0  0  0  0  0  0  0  0
   28.2885   38.1459   21.0206 N   0  0  0  0  0  0  0  0  0  0  0  0
   29.9195   39.0564   15.8025 C   0  0  0  0  0  0  0  0  0  0  0  0
   27.7150   40.2016   15.8664 C   0  0  0  0  0  0  0  0  0  0  0  0
  1  2  1  0  0  0  0
  3  1  1  6  0  0  0
  3  4  1  0  0  0  0
  3  5  1  0  0  0  0
  5  6  1  1  0  0  0
  5  7  1  0  0  0  0
  7  8  1  6  0  0  0
  7  9  1  0  0  0  0
  9 27  1  0  0  0  0
 10 11  1  0  0  0  0
 11 12  2  0  0  0  0
 11 13  1  0  0  0  0
 13 14  1  0  0  0  0
 14 16  2  0  0  0  0
 15 14  1  1  0  0  0
 15 18  1  0  0  0  0
 15 26  1  0  0  0  0
 17 19  1  1  0  0  0
 17 25  1  0  0  0  0
 17 18  1  0  0  0  0
 19 20  1  0  0  0  0
 20 21  1  6  0  0  0
 20 22  1  0  0  0  0
 22 23  1  6  0  0  0
 22 24  1  0  0  0  0
 23 28  1  0  0  0  0
 23 29  1  0  0  0  0
 25 24  1  6  0  0  0
 25 27  1  0  0  0  0
 26 10  1  6  0  0  0
 26 27  1  0  0  0  0
M  END
>  <CHROM.1>
66.45794138,56.00580982,71.10968573,170.13873960,-89.12675946,127.92438390
27.94921392,38.64748049,21.15827828,-1.39352543,-1.35617801,-1.87956902

>  <Name>
ligand

>  <RI>
0

>  <Rbt.Current_Directory>
/home/itssahil/PROJECTS/Mol_Feturizer/New_Systems/rnas/3F4H

>  <Rbt.Executable>
rbdock ($Id: //depot/dev/client3/rdock/2013.1/src/exe/rbdock.cxx#4 $)

>  <Rbt.Library>
libRbt.so (2013.1, Build901 2013/11/27)

>  <Rbt.Parameter_File>
/export/apps/rDock/src/rDock_2013.1_src/data/scripts/dock_solv.prm

>  <Rbt.Receptor>
prm/pocket_docking_5.prm

>  <SCORE>
-44.1544

>  <SCORE.INTER>
-27.0817

>  <SCORE.INTER.CONST>
1

>  <SCORE.INTER.POLAR>
0

>  <SCORE.INTER.ROT>
6

>  <SCORE.INTER.SOLV>
13.6797

>  <SCORE.INTER.VDW>
-30.2144

>  <SCORE.INTER.norm>
-0.933851

>  <SCORE.INTRA>
-17.0727

>  <SCORE.INTRA.DIHEDRAL>
-3.80718

>  <SCORE.INTRA.DIHEDRAL.0>
6.83446

>  <SCORE.INTRA.POLAR>
0

>  <SCORE.INTRA.POLAR.0>
0

>  <SCORE.INTRA.REPUL>
0

>  <SCORE.INTRA.REPUL.0>
0

>  <SCORE.INTRA.SOLV>
-0.4396

>  <SCORE.INTRA.SOLV.lig_0>
-26.4601

>  <SCORE.INTRA.VDW>
-14.9493

>  <SCORE.INTRA.VDW.0>
13.7853

>  <SCORE.INTRA.norm>
-0.588713

>  <SCORE.RESTR>
0

>  <SCORE.RESTR.CAVITY>
0

>  <SCORE.RESTR.norm>
0

>  <SCORE.SYSTEM>
0

>  <SCORE.SYSTEM.CONST>
0

>  <SCORE.SYSTEM.DIHEDRAL>
0

>  <SCORE.SYSTEM.SOLV>
0

>  <SCORE.SYSTEM.norm>
0

>  <SCORE.heavy>
29

>  <SCORE.norm>
-1.52256

>  <RMSD>
6.217

$$$$
ligand
 OpenBabel11021811473D
libRbt.so/2013.1/901 2013/11/27
 29 31  0  0  0  0  0  0  0  0999 V2000
   27.9944   42.7308   25.0218 C   0  0  0  0  0  0  0  0  0  0  0  0
   28.9293   43.7575   25.3694 O   0  0  0  0  0  0  0  0  0  0  0  0
   28.2534   42.2779   23.5914 C   0  0  1  0  0  0  0  0  0  0  0  0
   29.5873   41.7864   23.5062 O   0  0  0  0  0  0  0  0  0  0  0  0
   27.2633   41.1937   23.1856 C   0  0  1  0  0  0  0  0  0  0  0  0
   25.9763   41.7983   23.1322 O   0  0  0  0  0  0  0  0  0  0  0  0
   27.5724   40.4997   21.8558 C   0  0  1  0  0  0  0  0  0  0  0  0
   27.8788   41.5004   20.8841 O   0  0  0  0  0  0  0  0  0  0  0  0
   28.7540   39.5350   21.9332 C   0  0  0  0  0  0  0  0  0  0  0  0
   27.1898   37.8919   23.6138 N   0  0  0  0  0  0  0  0  0  0  0  0
   26.4298   37.1274   24.4481 C   0  0  0  0  0  0  0  0  0  0  0  0
   26.0791   37.5679   25.5713 O   0  0  0  0  0  0  0  0  0  0  0  0
   26.0477   35.8791   24.0770 N   0  0  0  0  0  0  0  0  0  0  0  0
   26.4116   35.3683   22.8739 C   0  0  0  0  0  0  0  0  0  0  0  0
   27.1855   36.1371   22.0120 C   0  0  1  0  0  0  0  0  0  0  0  0
   26.0574   34.2118   22.5357 O   0  0  0  0  0  0  0  0  0  0  0  0
   28.2980   36.3871   19.9736 C   0  0  1  0  0  0  0  0  0  0  0  0
   27.5488   35.6398   20.8099 N   0  0  0  0  0  0  0  0  0  0  0  0
   28.6679   35.8669   18.7382 C   0  0  0  0  0  0  0  0  0  0  0  0
   29.4377   36.6138   17.8532 C   0  0  2  0  0  0  0  0  0  0  0  0
   29.8035   35.9882   16.5317 C   0  0  0  0  0  0  0  0  0  0  0  0
   29.8463   37.9057   18.2078 C   0  0  2  0  0  0  0  0  0  0  0  0
   30.6036   38.6978   17.3904 N   0  0  0  0  0  0  0  0  0  0  0  0
   29.4673   38.4154   19.4557 C   0  0  0  0  0  0  0  0  0  0  0  0
   28.6964   37.6696   20.3468 C   0  0  2  0  0  0  0  0  0  0  0  0
   27.5787   37.4240   22.3925 C   0  0  2  0  0  0  0  0  0  0  0  0
   28.3390   38.1711   21.5513 N   0  0  0  0  0  0  0  0  0  0  0  0
   32.0502   38.5969   17.4302 C   0  0  0  0  0  0  0  0  0  0  0  0
   30.0188   39.6518   16.4626 C   0  0  0  0  0  0  0  0  0  0  0  0
  1  2  1  0  0  0  0
  3  1  1  1  0  0  0
  3  4  1  0  0  0  0
  3  5  1  0  0  0  0
  5  6  1  6  0  0  0
  5  7  1  0  0  0  0
  7  8  1  6  0  0  0
  7  9  1  0  0  0  0
  9 27  1  0  0  0  0
 10 11  1  0  0  0  0
 11 12  2  0  0  0  0
 11 13  1  0  0  0  0
 13 14  1  0  0  0  0
 14 16  2  0  0  0  0
 15 14  1  6  0  0  0
 15 18  1  0  0  0  0
 15 26  1  0  0  0  0
 17 19  1  6  0  0  0
 17 25  1  0  0  0  0
 17 18  1  0  0  0  0
 19 20  1  0  0  0  0
 20 21  1  1  0  0  0
 20 22  1  0  0  0  0
 22 23  1  1  0  0  0
 22 24  1  0  0  0  0
 23 28  1  0  0  0  0
 23 29  1  0  0  0  0
 25 24  1  1  0  0  0
 25 27  1  0  0  0  0
 26 10  1  1  0  0  0
 26 27  1  0  0  0  0
M  END
>  <CHROM.1>
59.44551163,67.04488368,-46.59542323,121.31658439,-87.14959725,105.55050867
28.20481403,38.59738814,21.46072960,-2.13521968,-1.01347410,-2.60499807

>  <Name>
ligand

>  <RI>
0

>  <Rbt.Current_Directory>
/home/itssahil/PROJECTS/Mol_Feturizer/New_Systems/rnas/3F4H

>  <Rbt.Executable>
rbdock ($Id: //depot/dev/client3/rdock/2013.1/src/exe/rbdock.cxx#4 $)

>  <Rbt.Library>
libRbt.so (2013.1, Build901 2013/11/27)

>  <Rbt.Parameter_File>
/export/apps/rDock/src/rDock_2013.1_src/data/scripts/dock_solv.prm

>  <Rbt.Receptor>
prm/blind_docking_80.prm

>  <SCORE>
-45.5399

>  <SCORE.INTER>
-30.3266

>  <SCORE.INTER.CONST>
1

>  <SCORE.INTER.POLAR>
0

>  <SCORE.INTER.ROT>
6

>  <SCORE.INTER.SOLV>
13.3112

>  <SCORE.INTER.VDW>
-32.2548

>  <SCORE.INTER.norm>
-1.04574

>  <SCORE.INTRA>
-15.2133

>  <SCORE.INTRA.DIHEDRAL>
1.2522

>  <SCORE.INTRA.DIHEDRAL.0>
6.83446

>  <SCORE.INTRA.POLAR>
0

>  <SCORE.INTRA.POLAR.0>
0

>  <SCORE.INTRA.REPUL>
0

>  <SCORE.INTRA.REPUL.0>
0

>  <SCORE.INTRA.SOLV>
-0.336349

>  <SCORE.INTRA.SOLV.lig_0>
-26.4601

>  <SCORE.INTRA.VDW>
-15.6712

>  <SCORE.INTRA.VDW.0>
13.7853

>  <SCORE.INTRA.norm>
-0.524596

>  <SCORE.RESTR>
0

>  <SCORE.RESTR.CAVITY>
0

>  <SCORE.RESTR.norm>
0

>  <SCORE.SYSTEM>
0

>  <SCORE.SYSTEM.CONST>
0

>  <SCORE.SYSTEM.DIHEDRAL>
0

>  <SCORE.SYSTEM.SOLV>
0

>  <SCORE.SYSTEM.norm>
0

>  <SCORE.heavy>
29

>  <SCORE.norm>
-1.57034

>  <RMSD>
6.228

$$$$
ligand
 OpenBabel11021811473D
libRbt.so/2013.1/901 2013/11/27
 29 31  0  0  0  0  0  0  0  0999 V2000
   29.0746   41.1174   24.5535 C   0  0  0  0  0  0  0  0  0  0  0  0
   28.8586   39.9119   25.2945 O   0  0  0  0  0  0  0  0  0  0  0  0
   27.7301   41.7375   24.1987 C   0  0  1  0  0  0  0  0  0  0  0  0
   27.9629   42.9845   23.5512 O   0  0  0  0  0  0  0  0  0  0  0  0
   26.9358   40.8093   23.2887 C   0  0  1  0  0  0  0  0  0  0  0  0
   25.6464   41.3872   23.1210 O   0  0  0  0  0  0  0  0  0  0  0  0
   27.5727   40.5421   21.9218 C   0  0  1  0  0  0  0  0  0  0  0  0
   28.0398   41.7827   21.3903 O   0  0  0  0  0  0  0  0  0  0  0  0
   28.7536   39.5752   21.9793 C   0  0  0  0  0  0  0  0  0  0  0  0
   27.1788   37.9252   23.6433 N   0  0  0  0  0  0  0  0  0  0  0  0
   26.4139   37.1572   24.4698 C   0  0  0  0  0  0  0  0  0  0  0  0
   26.0625   37.5902   25.5957 O   0  0  0  0  0  0  0  0  0  0  0  0
   26.0275   35.9135   24.0879 N   0  0  0  0  0  0  0  0  0  0  0  0
   26.3920   35.4108   22.8816 C   0  0  0  0  0  0  0  0  0  0  0  0
   27.1710   36.1833   22.0276 C   0  0  1  0  0  0  0  0  0  0  0  0
   26.0338   34.2585   22.5334 O   0  0  0  0  0  0  0  0  0  0  0  0
   28.2891   36.4448   19.9937 C   0  0  1  0  0  0  0  0  0  0  0  0
   27.5349   35.6940   20.8223 N   0  0  0  0  0  0  0  0  0  0  0  0
   28.6596   35.9330   18.7550 C   0  0  0  0  0  0  0  0  0  0  0  0
   29.4344   36.6837   17.8777 C   0  0  2  0  0  0  0  0  0  0  0  0
   29.8007   36.0671   16.5521 C   0  0  0  0  0  0  0  0  0  0  0  0
   29.8476   37.9711   18.2436 C   0  0  2  0  0  0  0  0  0  0  0  0
   30.6100   38.7665   17.4342 N   0  0  0  0  0  0  0  0  0  0  0  0
   29.4679   38.4724   19.4946 C   0  0  0  0  0  0  0  0  0  0  0  0
   28.6920   37.7227   20.3780 C   0  0  2  0  0  0  0  0  0  0  0  0
   27.5686   37.4655   22.4192 C   0  0  2  0  0  0  0  0  0  0  0  0
   28.3339   38.2161   21.5856 N   0  0  0  0  0  0  0  0  0  0  0  0
   32.0538   38.6255   17.4410 C   0  0  0  0  0  0  0  0  0  0  0  0
   30.0334   39.7632   16.5470 C   0  0  0  0  0  0  0  0  0  0  0  0
  1  2  1  0  0  0  0
  3  1  1  6  0  0  0
  3  4  1  0  0  0  0
  3  5  1  0  0  0  0
  5  6  1  6  0  0  0
  5  7  1  0  0  0  0
  7  8  1  1  0  0  0
  7  9  1  0  0  0  0
  9 27  1  0  0  0  0
 10 11  1  0  0  0  0
 11 12  2  0  0  0  0
 11 13  1  0  0  0  0
 13 14  1  0  0  0  0
 14 16  2  0  0  0  0
 15 14  1  6  0  0  0
 15 18  1  0  0  0  0
 15 26  1  0  0  0  0
 17 19  1  6  0  0  0
 17 25  1  0  0  0  0
 17 18  1  0  0  0  0
 19 20  1  0  0  0  0
 20 21  1  1  0  0  0
 20 22  1  0  0  0  0
 22 23  1  1  0  0  0
 22 24  1  0  0  0  0
 23 28  1  0  0  0  0
 23 29  1  0  0  0  0
 25 24  1  1  0  0  0
 25 27  1  0  0  0  0
 26 10  1  1  0  0  0
 26 27  1  0  0  0  0
M  END
>  <CHROM.1>
175.67892001,173.85024712,-44.67079089,99.37916411,-84.92166489,106.17146273
28.13508635,38.43691788,21.50697784,-2.44371956,-1.03758184,-2.66497468

>  <Name>
ligand

>  <RI>
0

>  <Rbt.Current_Directory>
/home/itssahil/PROJECTS/Mol_Feturizer/New_Systems/rnas/3F4H

>  <Rbt.Executable>
rbdock ($Id: //depot/dev/client3/rdock/2013.1/src/exe/rbdock.cxx#4 $)

>  <Rbt.Library>
libRbt.so (2013.1, Build901 2013/11/27)

>  <Rbt.Parameter_File>
/export/apps/rDock/src/rDock_2013.1_src/data/scripts/dock_solv.prm

>  <Rbt.Receptor>
prm/blind_docking_80.prm

>  <SCORE>
-43.3997

>  <SCORE.INTER>
-28.6355

>  <SCORE.INTER.CONST>
1

>  <SCORE.INTER.POLAR>
0

>  <SCORE.INTER.ROT>
6

>  <SCORE.INTER.SOLV>
12.8954

>  <SCORE.INTER.VDW>
-30.9888

>  <SCORE.INTER.norm>
-0.987432

>  <SCORE.INTRA>
-14.7642

>  <SCORE.INTRA.DIHEDRAL>
0.067173

>  <SCORE.INTRA.DIHEDRAL.0>
6.83446

>  <SCORE.INTRA.POLAR>
0

>  <SCORE.INTRA.POLAR.0>
0

>  <SCORE.INTRA.REPUL>
0

>  <SCORE.INTRA.REPUL.0>
0

>  <SCORE.INTRA.SOLV>
0.540266

>  <SCORE.INTRA.SOLV.lig_0>
-26.4601

>  <SCORE.INTRA.VDW>
-15.0679

>  <SCORE.INTRA.VDW.0>
13.7853

>  <SCORE.INTRA.norm>
-0.509109

>  <SCORE.RESTR>
0

>  <SCORE.RESTR.CAVITY>
0

>  <SCORE.RESTR.norm>
0

>  <SCORE.SYSTEM>
0

>  <SCORE.SYSTEM.CONST>
0

>  <SCORE.SYSTEM.DIHEDRAL>
0

>  <SCORE.SYSTEM.SOLV>
0

>  <SCORE.SYSTEM.norm>
0

>  <SCORE.heavy>
29

>  <SCORE.norm>
-1.49654

>  <RMSD>
6.253

$$$$
ligand
 OpenBabel11021811473D
libRbt.so/2013.1/901 2013/11/27
 29 31  0  0  0  0  0  0  0  0999 V2000
   25.3905   41.2848   24.6070 C   0  0  0  0  0  0  0  0  0  0  0  0
   25.5950   42.0085   25.8249 O   0  0  0  0  0  0  0  0  0  0  0  0
   26.6634   41.3333   23.7731 C   0  0  1  0  0  0  0  0  0  0  0  0
   27.6985   40.6642   24.4867 O   0  0  0  0  0  0  0  0  0  0  0  0
   26.4418   40.6720   22.4189 C   0  0  1  0  0  0  0  0  0  0  0  0
   25.3983   41.3871   21.7675 O   0  0  0  0  0  0  0  0  0  0  0  0
   27.6786   40.6122   21.5176 C   0  0  1  0  0  0  0  0  0  0  0  0
   28.2972   41.8994   21.5127 O   0  0  0  0  0  0  0  0  0  0  0  0
   28.7158   39.5885   21.9748 C   0  0  0  0  0  0  0  0  0  0  0  0
   27.1496   37.9290   23.6375 N   0  0  0  0  0  0  0  0  0  0  0  0
   26.3885   37.1565   24.4633 C   0  0  0  0  0  0  0  0  0  0  0  0
   26.0292   37.5893   25.5867 O   0  0  0  0  0  0  0  0  0  0  0  0
   26.0145   35.9084   24.0834 N   0  0  0  0  0  0  0  0  0  0  0  0
   26.3879   35.4058   22.8797 C   0  0  0  0  0  0  0  0  0  0  0  0
   27.1631   36.1828   22.0265 C   0  0  1  0  0  0  0  0  0  0  0  0
   26.0411   34.2494   22.5333 O   0  0  0  0  0  0  0  0  0  0  0  0
   28.2863   36.4488   19.9959 C   0  0  1  0  0  0  0  0  0  0  0  0
   27.5357   35.6936   20.8239 N   0  0  0  0  0  0  0  0  0  0  0  0
   28.6658   35.9370   18.7600 C   0  0  0  0  0  0  0  0  0  0  0  0
   29.4371   36.6922   17.8835 C   0  0  2  0  0  0  0  0  0  0  0  0
   29.8137   36.0754   16.5609 C   0  0  0  0  0  0  0  0  0  0  0  0
   29.8375   37.9842   18.2474 C   0  0  2  0  0  0  0  0  0  0  0  0
   30.5958   38.7842   17.4386 N   0  0  0  0  0  0  0  0  0  0  0  0
   29.4488   38.4855   19.4956 C   0  0  0  0  0  0  0  0  0  0  0  0
   28.6764   37.7312   20.3783 C   0  0  2  0  0  0  0  0  0  0  0  0
   27.5479   37.4695   22.4160 C   0  0  2  0  0  0  0  0  0  0  0  0
   28.3095   38.2247   21.5833 N   0  0  0  0  0  0  0  0  0  0  0  0
   32.0416   38.6686   17.4643 C   0  0  0  0  0  0  0  0  0  0  0  0
   30.0128   39.7612   16.5339 C   0  0  0  0  0  0  0  0  0  0  0  0
  1  2  1  0  0  0  0
  3  1  1  1  0  0  0
  3  4  1  0  0  0  0
  3  5  1  0  0  0  0
  5  6  1  6  0  0  0
  5  7  1  0  0  0  0
  7  8  1  1  0  0  0
  7  9  1  0  0  0  0
  9 27  1  0  0  0  0
 10 11  1  0  0  0  0
 11 12  2  0  0  0  0
 11 13  1  0  0  0  0
 13 14  1  0  0  0  0
 14 16  2  0  0  0  0
 15 14  1  6  0  0  0
 15 18  1  0  0  0  0
 15 26  1  0  0  0  0
 17 19  1  6  0  0  0
 17 25  1  0  0  0  0
 17 18  1  0  0  0  0
 19 20  1  0  0  0  0
 20 21  1  1  0  0  0
 20 22  1  0  0  0  0
 22 23  1  1  0  0  0
 22 24  1  0  0  0  0
 23 28  1  0  0  0  0
 23 29  1  0  0  0  0
 25 24  1  1  0  0  0
 25 27  1  0  0  0  0
 26 10  1  1  0  0  0
 26 27  1  0  0  0  0
M  END
>  <CHROM.1>
63.60438720,59.77426966,-47.10850980,78.52573839,-85.74986010,89.00320723
27.80763991,38.42737896,21.46287610,-2.73919313,-1.01903206,-2.97927091

>  <Name>
ligand

>  <RI>
0

>  <Rbt.Current_Directory>
/home/itssahil/PROJECTS/Mol_Feturizer/New_Systems/rnas/3F4H

>  <Rbt.Executable>
rbdock ($Id: //depot/dev/client3/rdock/2013.1/src/exe/rbdock.cxx#4 $)

>  <Rbt.Library>
libRbt.so (2013.1, Build901 2013/11/27)

>  <Rbt.Parameter_File>
/export/apps/rDock/src/rDock_2013.1_src/data/scripts/dock_solv.prm

>  <Rbt.Receptor>
prm/blind_docking_80.prm

>  <SCORE>
-45.7695

>  <SCORE.INTER>
-27.8165

>  <SCORE.INTER.CONST>
1

>  <SCORE.INTER.POLAR>
0

>  <SCORE.INTER.ROT>
6

>  <SCORE.INTER.SOLV>
13.3259

>  <SCORE.INTER.VDW>
-30.5863

>  <SCORE.INTER.norm>
-0.95919

>  <SCORE.INTRA>
-17.953

>  <SCORE.INTRA.DIHEDRAL>
-3.07262

>  <SCORE.INTRA.DIHEDRAL.0>
6.83446

>  <SCORE.INTRA.POLAR>
0

>  <SCORE.INTRA.POLAR.0>
0

>  <SCORE.INTRA.REPUL>
0

>  <SCORE.INTRA.REPUL.0>
0

>  <SCORE.INTRA.SOLV>
0.0900643

>  <SCORE.INTRA.SOLV.lig_0>
-26.4601

>  <SCORE.INTRA.VDW>
-16.4617

>  <SCORE.INTRA.VDW.0>
13.7853

>  <SCORE.INTRA.norm>
-0.619068

>  <SCORE.RESTR>
0

>  <SCORE.RESTR.CAVITY>
0

>  <SCORE.RESTR.norm>
0

>  <SCORE.SYSTEM>
0

>  <SCORE.SYSTEM.CONST>
0

>  <SCORE.SYSTEM.DIHEDRAL>
0

>  <SCORE.SYSTEM.SOLV>
0

>  <SCORE.SYSTEM.norm>
0

>  <SCORE.heavy>
29

>  <SCORE.norm>
-1.57826

>  <RMSD>
6.261

$$$$
ligand
 OpenBabel11021811473D
libRbt.so/2013.1/901 2013/11/27
 29 31  0  0  0  0  0  0  0  0999 V2000
   26.7182   42.3664   24.3207 C   0  0  0  0  0  0  0  0  0  0  0  0
   26.2792   42.8639   25.5890 O   0  0  0  0  0  0  0  0  0  0  0  0
   28.2084   42.0614   24.3884 C   0  0  1  0  0  0  0  0  0  0  0  0
   28.4227   41.0682   25.3865 O   0  0  0  0  0  0  0  0  0  0  0  0
   28.7167   41.5726   23.0382 C   0  0  1  0  0  0  0  0  0  0  0  0
   30.1205   41.3768   23.1633 O   0  0  0  0  0  0  0  0  0  0  0  0
   28.0526   40.2931   22.5211 C   0  0  1  0  0  0  0  0  0  0  0  0
   26.7802   40.6350   21.9699 O   0  0  0  0  0  0  0  0  0  0  0  0
   28.8630   39.5813   21.4397 C   0  0  0  0  0  0  0  0  0  0  0  0
   28.0745   37.7196   23.4103 N   0  0  0  0  0  0  0  0  0  0  0  0
   27.7007   36.8462   24.3879 C   0  0  0  0  0  0  0  0  0  0  0  0
   27.8815   37.1309   25.5981 O   0  0  0  0  0  0  0  0  0  0  0  0
   27.1337   35.6563   24.0645 N   0  0  0  0  0  0  0  0  0  0  0  0
   26.9274   35.3127   22.7683 C   0  0  0  0  0  0  0  0  0  0  0  0
   27.3024   36.1940   21.7606 C   0  0  1  0  0  0  0  0  0  0  0  0
   26.4043   34.2094   22.4738 O   0  0  0  0  0  0  0  0  0  0  0  0
   27.4590   36.7201   19.4903 C   0  0  1  0  0  0  0  0  0  0  0  0
   27.0967   35.8635   20.4672 N   0  0  0  0  0  0  0  0  0  0  0  0
   27.2440   36.3714   18.1615 C   0  0  0  0  0  0  0  0  0  0  0  0
   27.6044   37.2341   17.1322 C   0  0  2  0  0  0  0  0  0  0  0  0
   27.3438   36.7925   15.7150 C   0  0  0  0  0  0  0  0  0  0  0  0
   28.1907   38.4696   17.4349 C   0  0  2  0  0  0  0  0  0  0  0  0
   28.5706   39.3681   16.4770 N   0  0  0  0  0  0  0  0  0  0  0  0
   28.4021   38.8062   18.7775 C   0  0  0  0  0  0  0  0  0  0  0  0
   28.0435   37.9437   19.8129 C   0  0  2  0  0  0  0  0  0  0  0  0
   27.8854   37.4210   22.0924 C   0  0  2  0  0  0  0  0  0  0  0  0
   28.2557   38.2781   21.1064 N   0  0  0  0  0  0  0  0  0  0  0  0
   27.6370   40.3871   16.0362 C   0  0  0  0  0  0  0  0  0  0  0  0
   29.8912   39.3544   15.8698 C   0  0  0  0  0  0  0  0  0  0  0  0
  1  2  1  0  0  0  0
  3  1  1  6  0  0  0
  3  4  1  0  0  0  0
  3  5  1  0  0  0  0
  5  6  1  1  0  0  0
  5  7  1  0  0  0  0
  7  8  1  6  0  0  0
  7  9  1  0  0  0  0
  9 27  1  0  0  0  0
 10 11  1  0  0  0  0
 11 12  2  0  0  0  0
 11 13  1  0  0  0  0
 13 14  1  0  0  0  0
 14 16  2  0  0  0  0
 15 14  1  1  0  0  0
 15 18  1  0  0  0  0
 15 26  1  0  0  0  0
 17 19  1  1  0  0  0
 17 25  1  0  0  0  0
 17 18  1  0  0  0  0
 19 20  1  0  0  0  0
 20 21  1  6  0  0  0
 20 22  1  0  0  0  0
 22 23  1  6  0  0  0
 22 24  1  0  0  0  0
 23 28  1  0  0  0  0
 23 29  1  0  0  0  0
 25 24  1  6  0  0  0
 25 27  1  0  0  0  0
 26 10  1  6  0  0  0
 26 27  1  0  0  0  0
M  END
>  <CHROM.1>
60.72226641,177.04416610,78.87545318,172.97630135,91.14915664,131.08052814
27.83706060,38.63115077,21.28105321,-1.77091518,-1.37829732,-2.07412610

>  <Name>
ligand

>  <RI>
0

>  <Rbt.Current_Directory>
/home/itssahil/PROJECTS/Mol_Feturizer/New_Systems/rnas/3F4H

>  <Rbt.Executable>
rbdock ($Id: //depot/dev/client3/rdock/2013.1/src/exe/rbdock.cxx#4 $)

>  <Rbt.Library>
libRbt.so (2013.1, Build901 2013/11/27)

>  <Rbt.Parameter_File>
/export/apps/rDock/src/rDock_2013.1_src/data/scripts/dock_solv.prm

>  <Rbt.Receptor>
prm/pocket_docking_4.prm

>  <SCORE>
-42.182

>  <SCORE.INTER>
-25.784

>  <SCORE.INTER.CONST>
1

>  <SCORE.INTER.POLAR>
0

>  <SCORE.INTER.ROT>
6

>  <SCORE.INTER.SOLV>
12.5107

>  <SCORE.INTER.VDW>
-28.9596

>  <SCORE.INTER.norm>
-0.889104

>  <SCORE.INTRA>
-16.3979

>  <SCORE.INTRA.DIHEDRAL>
-3.37506

>  <SCORE.INTRA.DIHEDRAL.0>
6.83446

>  <SCORE.INTRA.POLAR>
0

>  <SCORE.INTRA.POLAR.0>
0

>  <SCORE.INTRA.REPUL>
0

>  <SCORE.INTRA.REPUL.0>
0

>  <SCORE.INTRA.SOLV>
-0.248011

>  <SCORE.INTRA.SOLV.lig_0>
-26.4601

>  <SCORE.INTRA.VDW>
-14.5864

>  <SCORE.INTRA.VDW.0>
13.7853

>  <SCORE.INTRA.norm>
-0.565446

>  <SCORE.RESTR>
0

>  <SCORE.RESTR.CAVITY>
0

>  <SCORE.RESTR.norm>
0

>  <SCORE.SYSTEM>
0

>  <SCORE.SYSTEM.CONST>
0

>  <SCORE.SYSTEM.DIHEDRAL>
0

>  <SCORE.SYSTEM.SOLV>
0

>  <SCORE.SYSTEM.norm>
0

>  <SCORE.heavy>
29

>  <SCORE.norm>
-1.45455

>  <RMSD>
6.279

$$$$
ligand
 OpenBabel11021811473D
libRbt.so/2013.1/901 2013/11/27
 29 31  0  0  0  0  0  0  0  0999 V2000
   28.7166   43.2673   24.8992 C   0  0  0  0  0  0  0  0  0  0  0  0
   28.0941   43.7270   26.1034 O   0  0  0  0  0  0  0  0  0  0  0  0
   27.9693   42.0460   24.3812 C   0  0  1  0  0  0  0  0  0  0  0  0
   26.6396   42.4348   24.0509 O   0  0  0  0  0  0  0  0  0  0  0  0
   28.6705   41.4680   23.1587 C   0  0  1  0  0  0  0  0  0  0  0  0
   29.9855   41.1031   23.5617 O   0  0  0  0  0  0  0  0  0  0  0  0
   27.9673   40.2691   22.5156 C   0  0  1  0  0  0  0  0  0  0  0  0
   26.7627   40.7280   21.9007 O   0  0  0  0  0  0  0  0  0  0  0  0
   28.8086   39.5703   21.4494 C   0  0  0  0  0  0  0  0  0  0  0  0
   28.0644   37.6865   23.4163 N   0  0  0  0  0  0  0  0  0  0  0  0
   27.7112   36.8026   24.3920 C   0  0  0  0  0  0  0  0  0  0  0  0
   27.8833   37.0899   25.6029 O   0  0  0  0  0  0  0  0  0  0  0  0
   27.1745   35.5994   24.0661 N   0  0  0  0  0  0  0  0  0  0  0  0
   26.9786   35.2527   22.7691 C   0  0  0  0  0  0  0  0  0  0  0  0
   27.3327   36.1447   21.7633 C   0  0  1  0  0  0  0  0  0  0  0  0
   26.4835   34.1372   22.4723 O   0  0  0  0  0  0  0  0  0  0  0  0
   27.4791   36.6779   19.4940 C   0  0  1  0  0  0  0  0  0  0  0  0
   27.1369   35.8111   20.4691 N   0  0  0  0  0  0  0  0  0  0  0  0
   27.2746   36.3261   18.1643 C   0  0  0  0  0  0  0  0  0  0  0  0
   27.6146   37.1991   17.1368 C   0  0  2  0  0  0  0  0  0  0  0  0
   27.3670   36.7532   15.7186 C   0  0  0  0  0  0  0  0  0  0  0  0
   28.1694   38.4484   17.4421 C   0  0  2  0  0  0  0  0  0  0  0  0
   28.5281   39.3575   16.4861 N   0  0  0  0  0  0  0  0  0  0  0  0
   28.3707   38.7881   18.7855 C   0  0  0  0  0  0  0  0  0  0  0  0
   28.0324   37.9153   19.8191 C   0  0  2  0  0  0  0  0  0  0  0  0
   27.8844   37.3853   22.0976 C   0  0  2  0  0  0  0  0  0  0  0  0
   28.2345   38.2529   21.1134 N   0  0  0  0  0  0  0  0  0  0  0  0
   27.5467   40.3030   15.9888 C   0  0  0  0  0  0  0  0  0  0  0  0
   29.8716   39.4270   15.9357 C   0  0  0  0  0  0  0  0  0  0  0  0
  1  2  1  0  0  0  0
  3  1  1  6  0  0  0
  3  4  1  0  0  0  0
  3  5  1  0  0  0  0
  5  6  1  1  0  0  0
  5  7  1  0  0  0  0
  7  8  1  6  0  0  0
  7  9  1  0  0  0  0
  9 27  1  0  0  0  0
 10 11  1  0  0  0  0
 11 12  2  0  0  0  0
 11 13  1  0  0  0  0
 13 14  1  0  0  0  0
 14 16  2  0  0  0  0
 15 14  1  1  0  0  0
 15 18  1  0  0  0  0
 15 26  1  0  0  0  0
 17 19  1  1  0  0  0
 17 25  1  0  0  0  0
 17 18  1  0  0  0  0
 19 20  1  0  0  0  0
 20 21  1  6  0  0  0
 20 22  1  0  0  0  0
 22 23  1  6  0  0  0
 22 24  1  0  0  0  0
 23 28  1  0  0  0  0
 23 29  1  0  0  0  0
 25 24  1  6  0  0  0
 25 27  1  0  0  0  0
 26 10  1  6  0  0  0
 26 27  1  0  0  0  0
M  END
>  <CHROM.1>
63.18497802,59.94017870,69.68361097,165.91955548,87.53541329,130.22156202
27.89144094,38.71591575,21.28874666,-1.46883211,-1.38263919,-1.91431674

>  <Name>
ligand

>  <RI>
0

>  <Rbt.Current_Directory>
/home/itssahil/PROJECTS/Mol_Feturizer/New_Systems/rnas/3F4H

>  <Rbt.Executable>
rbdock ($Id: //depot/dev/client3/rdock/2013.1/src/exe/rbdock.cxx#4 $)

>  <Rbt.Library>
libRbt.so (2013.1, Build901 2013/11/27)

>  <Rbt.Parameter_File>
/export/apps/rDock/src/rDock_2013.1_src/data/scripts/dock_solv.prm

>  <Rbt.Receptor>
prm/pocket_docking_8.prm

>  <SCORE>
-43.9632

>  <SCORE.INTER>
-27.0063

>  <SCORE.INTER.CONST>
1

>  <SCORE.INTER.POLAR>
0

>  <SCORE.INTER.ROT>
6

>  <SCORE.INTER.SOLV>
13.1529

>  <SCORE.INTER.VDW>
-29.9885

>  <SCORE.INTER.norm>
-0.931252

>  <SCORE.INTRA>
-16.9569

>  <SCORE.INTRA.DIHEDRAL>
-3.7333

>  <SCORE.INTRA.DIHEDRAL.0>
6.83446

>  <SCORE.INTRA.POLAR>
0

>  <SCORE.INTRA.POLAR.0>
0

>  <SCORE.INTRA.REPUL>
0

>  <SCORE.INTRA.REPUL.0>
0

>  <SCORE.INTRA.SOLV>
-0.428427

>  <SCORE.INTRA.SOLV.lig_0>
-26.4601

>  <SCORE.INTRA.VDW>
-14.876

>  <SCORE.INTRA.VDW.0>
13.7853

>  <SCORE.INTRA.norm>
-0.584719

>  <SCORE.RESTR>
0

>  <SCORE.RESTR.CAVITY>
0

>  <SCORE.RESTR.norm>
0

>  <SCORE.SYSTEM>
0

>  <SCORE.SYSTEM.CONST>
0

>  <SCORE.SYSTEM.DIHEDRAL>
0

>  <SCORE.SYSTEM.SOLV>
0

>  <SCORE.SYSTEM.norm>
0

>  <SCORE.heavy>
29

>  <SCORE.norm>
-1.51597

>  <RMSD>
6.298

$$$$
ligand
 OpenBabel11021811473D
libRbt.so/2013.1/901 2013/11/27
 29 31  0  0  0  0  0  0  0  0999 V2000
   28.7169   43.2845   24.9139 C   0  0  0  0  0  0  0  0  0  0  0  0
   28.0983   43.7215   26.1285 O   0  0  0  0  0  0  0  0  0  0  0  0
   27.9628   42.0785   24.3709 C   0  0  1  0  0  0  0  0  0  0  0  0
   26.6452   42.4887   24.0188 O   0  0  0  0  0  0  0  0  0  0  0  0
   28.6792   41.5013   23.1568 C   0  0  1  0  0  0  0  0  0  0  0  0
   29.9855   41.1265   23.5783 O   0  0  0  0  0  0  0  0  0  0  0  0
   27.9785   40.3095   22.4977 C   0  0  1  0  0  0  0  0  0  0  0  0
   26.8065   40.7845   21.8341 O   0  0  0  0  0  0  0  0  0  0  0  0
   28.8462   39.5859   21.4700 C   0  0  0  0  0  0  0  0  0  0  0  0
   28.0815   37.6886   23.4160 N   0  0  0  0  0  0  0  0  0  0  0  0
   27.7188   36.7979   24.3819 C   0  0  0  0  0  0  0  0  0  0  0  0
   27.8938   37.0699   25.5959 O   0  0  0  0  0  0  0  0  0  0  0  0
   27.1691   35.6042   24.0428 N   0  0  0  0  0  0  0  0  0  0  0  0
   26.9696   35.2739   22.7420 C   0  0  0  0  0  0  0  0  0  0  0  0
   27.3334   36.1731   21.7461 C   0  0  1  0  0  0  0  0  0  0  0  0
   26.4625   34.1672   22.4329 O   0  0  0  0  0  0  0  0  0  0  0  0
   27.4857   36.7297   19.4828 C   0  0  1  0  0  0  0  0  0  0  0  0
   27.1341   35.8560   20.4483 N   0  0  0  0  0  0  0  0  0  0  0  0
   27.2775   36.3948   18.1494 C   0  0  0  0  0  0  0  0  0  0  0  0
   27.6270   37.2753   17.1315 C   0  0  2  0  0  0  0  0  0  0  0  0
   27.3747   36.8479   15.7085 C   0  0  0  0  0  0  0  0  0  0  0  0
   28.1953   38.5152   17.4506 C   0  0  2  0  0  0  0  0  0  0  0  0
   28.5638   39.4309   16.5046 N   0  0  0  0  0  0  0  0  0  0  0  0
   28.4001   38.8378   18.7976 C   0  0  0  0  0  0  0  0  0  0  0  0
   28.0523   37.9574   19.8216 C   0  0  2  0  0  0  0  0  0  0  0  0
   27.8985   37.4040   22.0941 C   0  0  2  0  0  0  0  0  0  0  0  0
   28.2579   38.2785   21.1195 N   0  0  0  0  0  0  0  0  0  0  0  0
   29.9198   39.4263   15.9892 C   0  0  0  0  0  0  0  0  0  0  0  0
   27.6446   40.4255   15.9770 C   0  0  0  0  0  0  0  0  0  0  0  0
  1  2  1  0  0  0  0
  3  1  1  6  0  0  0
  3  4  1  0  0  0  0
  3  5  1  0  0  0  0
  5  6  1  1  0  0  0
  5  7  1  0  0  0  0
  7  8  1  6  0  0  0
  7  9  1  0  0  0  0
  9 27  1  0  0  0  0
 10 11  1  0  0  0  0
 11 12  2  0  0  0  0
 11 13  1  0  0  0  0
 13 14  1  0  0  0  0
 14 16  2  0  0  0  0
 15 14  1  1  0  0  0
 15 18  1  0  0  0  0
 15 26  1  0  0  0  0
 17 19  1  1  0  0  0
 17 25  1  0  0  0  0
 17 18  1  0  0  0  0
 19 20  1  0  0  0  0
 20 21  1  6  0  0  0
 20 22  1  0  0  0  0
 22 23  1  6  0  0  0
 22 24  1  0  0  0  0
 23 28  1  0  0  0  0
 23 29  1  0  0  0  0
 25 24  1  6  0  0  0
 25 27  1  0  0  0  0
 26 10  1  6  0  0  0
 26 27  1  0  0  0  0
M  END
>  <CHROM.1>
64.64940688,59.38270470,71.31721829,166.15489531,-92.01232340,127.67543247
27.90646734,38.75220794,21.28335350,-1.48070756,-1.38058778,-1.92124782

>  <Name>
ligand

>  <RI>
0

>  <Rbt.Current_Directory>
/home/itssahil/PROJECTS/Mol_Feturizer/New_Systems/rnas/3F4H

>  <Rbt.Executable>
rbdock ($Id: //depot/dev/client3/rdock/2013.1/src/exe/rbdock.cxx#4 $)

>  <Rbt.Library>
libRbt.so (2013.1, Build901 2013/11/27)

>  <Rbt.Parameter_File>
/export/apps/rDock/src/rDock_2013.1_src/data/scripts/dock_solv.prm

>  <Rbt.Receptor>
prm/pocket_docking_8.prm

>  <SCORE>
-44.036

>  <SCORE.INTER>
-26.9965

>  <SCORE.INTER.CONST>
1

>  <SCORE.INTER.POLAR>
0

>  <SCORE.INTER.ROT>
6

>  <SCORE.INTER.SOLV>
13.1643

>  <SCORE.INTER.VDW>
-29.9858

>  <SCORE.INTER.norm>
-0.930914

>  <SCORE.INTRA>
-17.0395

>  <SCORE.INTRA.DIHEDRAL>
-3.59817

>  <SCORE.INTRA.DIHEDRAL.0>
6.83446

>  <SCORE.INTRA.POLAR>
0

>  <SCORE.INTRA.POLAR.0>
0

>  <SCORE.INTRA.REPUL>
0

>  <SCORE.INTRA.REPUL.0>
0

>  <SCORE.INTRA.SOLV>
-0.454311

>  <SCORE.INTRA.SOLV.lig_0>
-26.4601

>  <SCORE.INTRA.VDW>
-15.0132

>  <SCORE.INTRA.VDW.0>
13.7853

>  <SCORE.INTRA.norm>
-0.587569

>  <SCORE.RESTR>
0

>  <SCORE.RESTR.CAVITY>
0

>  <SCORE.RESTR.norm>
0

>  <SCORE.SYSTEM>
0

>  <SCORE.SYSTEM.CONST>
0

>  <SCORE.SYSTEM.DIHEDRAL>
0

>  <SCORE.SYSTEM.SOLV>
0

>  <SCORE.SYSTEM.norm>
0

>  <SCORE.heavy>
29

>  <SCORE.norm>
-1.51848

>  <RMSD>
6.301

$$$$
ligand
 OpenBabel11021811473D
libRbt.so/2013.1/901 2013/11/27
 29 31  0  0  0  0  0  0  0  0999 V2000
   28.1792   42.7601   25.3397 C   0  0  0  0  0  0  0  0  0  0  0  0
   26.9470   43.1756   24.7414 O   0  0  0  0  0  0  0  0  0  0  0  0
   28.4944   41.3355   24.9048 C   0  0  1  0  0  0  0  0  0  0  0  0
   27.3304   40.5365   25.0920 O   0  0  0  0  0  0  0  0  0  0  0  0
   28.9276   41.3050   23.4447 C   0  0  1  0  0  0  0  0  0  0  0  0
   30.2071   41.9233   23.3728 O   0  0  0  0  0  0  0  0  0  0  0  0
   28.9830   39.9100   22.8150 C   0  0  1  0  0  0  0  0  0  0  0  0
   28.8091   38.9401   23.8487 O   0  0  0  0  0  0  0  0  0  0  0  0
   27.9055   39.6763   21.7580 C   0  0  0  0  0  0  0  0  0  0  0  0
   26.6367   37.7890   23.4312 N   0  0  0  0  0  0  0  0  0  0  0  0
   26.0121   36.9056   24.2603 C   0  0  0  0  0  0  0  0  0  0  0  0
   25.5133   37.2956   25.3455 O   0  0  0  0  0  0  0  0  0  0  0  0
   25.9267   35.5932   23.9255 N   0  0  0  0  0  0  0  0  0  0  0  0
   26.4579   35.1349   22.7642 C   0  0  0  0  0  0  0  0  0  0  0  0
   27.0968   36.0246   21.9080 C   0  0  1  0  0  0  0  0  0  0  0  0
   26.3782   33.9190   22.4595 O   0  0  0  0  0  0  0  0  0  0  0  0
   28.2424   36.4435   19.9161 C   0  0  1  0  0  0  0  0  0  0  0  0
   27.6244   35.5792   20.7471 N   0  0  0  0  0  0  0  0  0  0  0  0
   28.7832   35.9763   18.7233 C   0  0  0  0  0  0  0  0  0  0  0  0
   29.4240   36.8429   17.8448 C   0  0  2  0  0  0  0  0  0  0  0  0
   29.9882   36.2692   16.5705 C   0  0  0  0  0  0  0  0  0  0  0  0
   29.5269   38.2032   18.1627 C   0  0  2  0  0  0  0  0  0  0  0  0
   30.1422   39.1135   17.3490 N   0  0  0  0  0  0  0  0  0  0  0  0
   28.9787   38.6586   19.3679 C   0  0  0  0  0  0  0  0  0  0  0  0
   28.3363   37.7929   20.2525 C   0  0  2  0  0  0  0  0  0  0  0  0
   27.1842   37.3774   22.2511 C   0  0  2  0  0  0  0  0  0  0  0  0
   27.8133   38.2437   21.4158 N   0  0  0  0  0  0  0  0  0  0  0  0
   31.5898   39.2056   17.3386 C   0  0  0  0  0  0  0  0  0  0  0  0
   29.4025   40.0081   16.4741 C   0  0  0  0  0  0  0  0  0  0  0  0
  1  2  1  0  0  0  0
  3  1  1  6  0  0  0
  3  4  1  0  0  0  0
  3  5  1  0  0  0  0
  5  6  1  1  0  0  0
  5  7  1  0  0  0  0
  7  8  1  1  0  0  0
  7  9  1  0  0  0  0
  9 27  1  0  0  0  0
 10 11  1  0  0  0  0
 11 12  2  0  0  0  0
 11 13  1  0  0  0  0
 13 14  1  0  0  0  0
 14 16  2  0  0  0  0
 15 14  1  6  0  0  0
 15 18  1  0  0  0  0
 15 26  1  0  0  0  0
 17 19  1  6  0  0  0
 17 25  1  0  0  0  0
 17 18  1  0  0  0  0
 19 20  1  0  0  0  0
 20 21  1  1  0  0  0
 20 22  1  0  0  0  0
 22 23  1  1  0  0  0
 22 24  1  0  0  0  0
 23 28  1  0  0  0  0
 23 29  1  0  0  0  0
 25 24  1  1  0  0  0
 25 27  1  0  0  0  0
 26 10  1  1  0  0  0
 26 27  1  0  0  0  0
M  END
>  <CHROM.1>
-48.67186448,69.73201659,-9.20517166,-167.13492048,-79.19433089,-104.07569349
28.16797923,38.42467185,21.65617882,-2.12574552,-1.01863854,-2.43017468

>  <Name>
ligand

>  <RI>
0

>  <Rbt.Current_Directory>
/home/itssahil/PROJECTS/Mol_Feturizer/New_Systems/rnas/3F4H

>  <Rbt.Executable>
rbdock ($Id: //depot/dev/client3/rdock/2013.1/src/exe/rbdock.cxx#4 $)

>  <Rbt.Library>
libRbt.so (2013.1, Build901 2013/11/27)

>  <Rbt.Parameter_File>
/export/apps/rDock/src/rDock_2013.1_src/data/scripts/dock_solv.prm

>  <Rbt.Receptor>
prm/blind_docking_100.prm

>  <SCORE>
-40.0203

>  <SCORE.INTER>
-27.0253

>  <SCORE.INTER.CONST>
1

>  <SCORE.INTER.POLAR>
0

>  <SCORE.INTER.ROT>
6

>  <SCORE.INTER.SOLV>
13.8989

>  <SCORE.INTER.VDW>
-30.2499

>  <SCORE.INTER.norm>
-0.931908

>  <SCORE.INTRA>
-12.9949

>  <SCORE.INTRA.DIHEDRAL>
1.66638

>  <SCORE.INTRA.DIHEDRAL.0>
6.83446

>  <SCORE.INTRA.POLAR>
0

>  <SCORE.INTRA.POLAR.0>
0

>  <SCORE.INTRA.REPUL>
0

>  <SCORE.INTRA.REPUL.0>
0

>  <SCORE.INTRA.SOLV>
0.584444

>  <SCORE.INTRA.SOLV.lig_0>
-26.4601

>  <SCORE.INTRA.VDW>
-14.1203

>  <SCORE.INTRA.VDW.0>
13.7853

>  <SCORE.INTRA.norm>
-0.448101

>  <SCORE.RESTR>
0

>  <SCORE.RESTR.CAVITY>
0

>  <SCORE.RESTR.norm>
0

>  <SCORE.SYSTEM>
0

>  <SCORE.SYSTEM.CONST>
0

>  <SCORE.SYSTEM.DIHEDRAL>
0

>  <SCORE.SYSTEM.SOLV>
0

>  <SCORE.SYSTEM.norm>
0

>  <SCORE.heavy>
29

>  <SCORE.norm>
-1.38001

>  <RMSD>
6.306

$$$$
ligand
 OpenBabel11021811473D
libRbt.so/2013.1/901 2013/11/27
 29 31  0  0  0  0  0  0  0  0999 V2000
   28.0479   42.0767   24.7789 C   0  0  0  0  0  0  0  0  0  0  0  0
   26.9215   42.8869   25.1304 O   0  0  0  0  0  0  0  0  0  0  0  0
   28.5301   42.4622   23.3871 C   0  0  1  0  0  0  0  0  0  0  0  0
   28.9575   43.8204   23.4156 O   0  0  0  0  0  0  0  0  0  0  0  0
   29.6734   41.5570   22.9468 C   0  0  1  0  0  0  0  0  0  0  0  0
   30.7042   41.6781   23.9203 O   0  0  0  0  0  0  0  0  0  0  0  0
   29.2981   40.0839   22.7607 C   0  0  1  0  0  0  0  0  0  0  0  0
   28.9469   39.5424   24.0347 O   0  0  0  0  0  0  0  0  0  0  0  0
   28.1193   39.8715   21.8130 C   0  0  0  0  0  0  0  0  0  0  0  0
   26.7944   38.1216   23.5888 N   0  0  0  0  0  0  0  0  0  0  0  0
   26.1449   37.3059   24.4668 C   0  0  0  0  0  0  0  0  0  0  0  0
   25.7026   37.7621   25.5507 O   0  0  0  0  0  0  0  0  0  0  0  0
   25.9733   35.9900   24.1825 N   0  0  0  0  0  0  0  0  0  0  0  0
   26.4417   35.4611   23.0241 C   0  0  0  0  0  0  0  0  0  0  0  0
   27.1049   36.2813   22.1185 C   0  0  1  0  0  0  0  0  0  0  0  0
   26.2824   34.2422   22.7663 O   0  0  0  0  0  0  0  0  0  0  0  0
   28.2121   36.5624   20.0812 C   0  0  1  0  0  0  0  0  0  0  0  0
   27.5704   35.7655   20.9601 N   0  0  0  0  0  0  0  0  0  0  0  0
   28.6886   36.0230   18.8915 C   0  0  0  0  0  0  0  0  0  0  0  0
   29.3517   36.8192   17.9643 C   0  0  2  0  0  0  0  0  0  0  0  0
   29.8429   36.1693   16.6963 C   0  0  0  0  0  0  0  0  0  0  0  0
   29.5430   38.1812   18.2294 C   0  0  2  0  0  0  0  0  0  0  0  0
   30.1851   39.0248   17.3661 N   0  0  0  0  0  0  0  0  0  0  0  0
   29.0589   38.7098   19.4322 C   0  0  0  0  0  0  0  0  0  0  0  0
   28.3943   37.9148   20.3654 C   0  0  2  0  0  0  0  0  0  0  0  0
   27.2811   37.6376   22.4095 C   0  0  2  0  0  0  0  0  0  0  0  0
   27.9338   38.4357   21.5258 N   0  0  0  0  0  0  0  0  0  0  0  0
   29.4117   39.8419   16.4504 C   0  0  0  0  0  0  0  0  0  0  0  0
   31.6328   39.1484   17.3228 C   0  0  0  0  0  0  0  0  0  0  0  0
  1  2  1  0  0  0  0
  3  1  1  1  0  0  0
  3  4  1  0  0  0  0
  3  5  1  0  0  0  0
  5  6  1  1  0  0  0
  5  7  1  0  0  0  0
  7  8  1  1  0  0  0
  7  9  1  0  0  0  0
  9 27  1  0  0  0  0
 10 11  1  0  0  0  0
 11 12  2  0  0  0  0
 11 13  1  0  0  0  0
 13 14  1  0  0  0  0
 14 16  2  0  0  0  0
 15 14  1  6  0  0  0
 15 18  1  0  0  0  0
 15 26  1  0  0  0  0
 17 19  1  6  0  0  0
 17 25  1  0  0  0  0
 17 18  1  0  0  0  0
 19 20  1  0  0  0  0
 20 21  1  1  0  0  0
 20 22  1  0  0  0  0
 22 23  1  1  0  0  0
 22 24  1  0  0  0  0
 23 28  1  0  0  0  0
 23 29  1  0  0  0  0
 25 24  1  1  0  0  0
 25 27  1  0  0  0  0
 26 10  1  1  0  0  0
 26 27  1  0  0  0  0
M  END
>  <CHROM.1>
62.46073421,-57.67359863,-65.90970512,171.85259907,96.73415362,-100.44877466
28.31321446,38.69454937,21.64503183,-2.00477980,-1.00889586,-2.42544144

>  <Name>
ligand

>  <RI>
0

>  <Rbt.Current_Directory>
/home/itssahil/PROJECTS/Mol_Feturizer/New_Systems/rnas/3F4H

>  <Rbt.Executable>
rbdock ($Id: //depot/dev/client3/rdock/2013.1/src/exe/rbdock.cxx#4 $)

>  <Rbt.Library>
libRbt.so (2013.1, Build901 2013/11/27)

>  <Rbt.Parameter_File>
/export/apps/rDock/src/rDock_2013.1_src/data/scripts/dock_solv.prm

>  <Rbt.Receptor>
prm/pocket_docking_5.prm

>  <SCORE>
-45.2664

>  <SCORE.INTER>
-28.476

>  <SCORE.INTER.CONST>
1

>  <SCORE.INTER.POLAR>
0

>  <SCORE.INTER.ROT>
6

>  <SCORE.INTER.SOLV>
15.0601

>  <SCORE.INTER.VDW>
-31.604

>  <SCORE.INTER.norm>
-0.981931

>  <SCORE.INTRA>
-16.7904

>  <SCORE.INTRA.DIHEDRAL>
-4.36424

>  <SCORE.INTRA.DIHEDRAL.0>
6.83446

>  <SCORE.INTRA.POLAR>
0

>  <SCORE.INTRA.POLAR.0>
0

>  <SCORE.INTRA.REPUL>
0

>  <SCORE.INTRA.REPUL.0>
0

>  <SCORE.INTRA.SOLV>
-0.0720479

>  <SCORE.INTRA.SOLV.lig_0>
-26.4601

>  <SCORE.INTRA.VDW>
-14.5723

>  <SCORE.INTRA.VDW.0>
13.7853

>  <SCORE.INTRA.norm>
-0.57898

>  <SCORE.RESTR>
0

>  <SCORE.RESTR.CAVITY>
0

>  <SCORE.RESTR.norm>
0

>  <SCORE.SYSTEM>
0

>  <SCORE.SYSTEM.CONST>
0

>  <SCORE.SYSTEM.DIHEDRAL>
0

>  <SCORE.SYSTEM.SOLV>
0

>  <SCORE.SYSTEM.norm>
0

>  <SCORE.heavy>
29

>  <SCORE.norm>
-1.56091

>  <RMSD>
6.339

$$$$
ligand
 OpenBabel11021811473D
libRbt.so/2013.1/901 2013/11/27
 29 31  0  0  0  0  0  0  0  0999 V2000
   27.4211   42.7262   25.3408 C   0  0  0  0  0  0  0  0  0  0  0  0
   28.4285   43.7054   25.6147 O   0  0  0  0  0  0  0  0  0  0  0  0
   27.9284   41.7679   24.2720 C   0  0  1  0  0  0  0  0  0  0  0  0
   26.9663   40.7322   24.0983 O   0  0  0  0  0  0  0  0  0  0  0  0
   28.1565   42.5037   22.9579 C   0  0  1  0  0  0  0  0  0  0  0  0
   29.1751   43.4701   23.1886 O   0  0  0  0  0  0  0  0  0  0  0  0
   28.5391   41.6108   21.7739 C   0  0  1  0  0  0  0  0  0  0  0  0
   29.5480   40.6963   22.2048 O   0  0  0  0  0  0  0  0  0  0  0  0
   27.3689   40.8007   21.2197 C   0  0  0  0  0  0  0  0  0  0  0  0
   28.1234   42.0186   18.7869 N   0  0  0  0  0  0  0  0  0  0  0  0
   28.4863   42.6397   17.6290 C   0  0  0  0  0  0  0  0  0  0  0  0
   28.4569   43.8928   17.5434 O   0  0  0  0  0  0  0  0  0  0  0  0
   28.8785   41.9109   16.5534 N   0  0  0  0  0  0  0  0  0  0  0  0
   28.9180   40.5557   16.6074 C   0  0  0  0  0  0  0  0  0  0  0  0
   28.5519   39.9087   17.7822 C   0  0  1  0  0  0  0  0  0  0  0  0
   29.2796   39.8854   15.6088 O   0  0  0  0  0  0  0  0  0  0  0  0
   28.2392   37.9332   18.9886 C   0  0  1  0  0  0  0  0  0  0  0  0
   28.5927   38.5601   17.8478 N   0  0  0  0  0  0  0  0  0  0  0  0
   28.2837   36.5447   19.0472 C   0  0  0  0  0  0  0  0  0  0  0  0
   27.9279   35.8697   20.2096 C   0  0  2  0  0  0  0  0  0  0  0  0
   27.9981   34.3642   20.2033 C   0  0  0  0  0  0  0  0  0  0  0  0
   27.5199   36.5948   21.3364 C   0  0  2  0  0  0  0  0  0  0  0  0
   27.1556   36.0005   22.5126 N   0  0  0  0  0  0  0  0  0  0  0  0
   27.4789   37.9924   21.2619 C   0  0  0  0  0  0  0  0  0  0  0  0
   27.8336   38.6735   20.0979 C   0  0  2  0  0  0  0  0  0  0  0  0
   28.1490   40.6584   18.8917 C   0  0  2  0  0  0  0  0  0  0  0  0
   27.7869   40.0240   20.0364 N   0  0  0  0  0  0  0  0  0  0  0  0
   27.5601   36.5933   23.7733 C   0  0  0  0  0  0  0  0  0  0  0  0
   26.3643   34.7822   22.5627 C   0  0  0  0  0  0  0  0  0  0  0  0
  1  2  1  0  0  0  0
  3  1  1  1  0  0  0
  3  4  1  0  0  0  0
  3  5  1  0  0  0  0
  5  6  1  1  0  0  0
  5  7  1  0  0  0  0
  7  8  1  1  0  0  0
  7  9  1  0  0  0  0
  9 27  1  0  0  0  0
 10 11  1  0  0  0  0
 11 12  2  0  0  0  0
 11 13  1  0  0  0  0
 13 14  1  0  0  0  0
 14 16  2  0  0  0  0
 15 14  1  1  0  0  0
 15 18  1  0  0  0  0
 15 26  1  0  0  0  0
 17 19  1  1  0  0  0
 17 25  1  0  0  0  0
 17 18  1  0  0  0  0
 19 20  1  0  0  0  0
 20 21  1  6  0  0  0
 20 22  1  0  0  0  0
 22 23  1  6  0  0  0
 22 24  1  0  0  0  0
 23 28  1  0  0  0  0
 23 29  1  0  0  0  0
 25 24  1  6  0  0  0
 25 27  1  0  0  0  0
 26 10  1  6  0  0  0
 26 27  1  0  0  0  0
M  END
>  <CHROM.1>
174.82384922,62.96278914,-45.96106800,176.73993348,140.18612408,112.51241498
28.11493246,39.84251881,20.70821507,1.51022055,1.38491910,0.78851090

>  <Name>
ligand

>  <RI>
0

>  <Rbt.Current_Directory>
/home/itssahil/PROJECTS/Mol_Feturizer/New_Systems/rnas/3F4H

>  <Rbt.Executable>
rbdock ($Id: //depot/dev/client3/rdock/2013.1/src/exe/rbdock.cxx#4 $)

>  <Rbt.Library>
libRbt.so (2013.1, Build901 2013/11/27)

>  <Rbt.Parameter_File>
/export/apps/rDock/src/rDock_2013.1_src/data/scripts/dock_solv.prm

>  <Rbt.Receptor>
prm/blind_docking_80.prm

>  <SCORE>
-37.0921

>  <SCORE.INTER>
-24.995

>  <SCORE.INTER.CONST>
1

>  <SCORE.INTER.POLAR>
0

>  <SCORE.INTER.ROT>
6

>  <SCORE.INTER.SOLV>
14.2913

>  <SCORE.INTER.VDW>
-29.0271

>  <SCORE.INTER.norm>
-0.861897

>  <SCORE.INTRA>
-12.1061

>  <SCORE.INTRA.DIHEDRAL>
-3.96467

>  <SCORE.INTRA.DIHEDRAL.0>
6.83446

>  <SCORE.INTRA.POLAR>
0

>  <SCORE.INTRA.POLAR.0>
0

>  <SCORE.INTRA.REPUL>
0

>  <SCORE.INTRA.REPUL.0>
0

>  <SCORE.INTRA.SOLV>
0.225747

>  <SCORE.INTRA.SOLV.lig_0>
-26.4601

>  <SCORE.INTRA.VDW>
-10.2366

>  <SCORE.INTRA.VDW.0>
13.7853

>  <SCORE.INTRA.norm>
-0.417452

>  <SCORE.RESTR>
0.00906758

>  <SCORE.RESTR.CAVITY>
0.00906758

>  <SCORE.RESTR.norm>
0.000312675

>  <SCORE.SYSTEM>
0

>  <SCORE.SYSTEM.CONST>
0

>  <SCORE.SYSTEM.DIHEDRAL>
0

>  <SCORE.SYSTEM.SOLV>
0

>  <SCORE.SYSTEM.norm>
0

>  <SCORE.heavy>
29

>  <SCORE.norm>
-1.27904

>  <RMSD>
6.649

$$$$
ligand
 OpenBabel11021811473D
libRbt.so/2013.1/901 2013/11/27
 29 31  0  0  0  0  0  0  0  0999 V2000
   27.7523   32.8595   19.1576 C   0  0  0  0  0  0  0  0  0  0  0  0
   28.1140   33.1722   17.8084 O   0  0  0  0  0  0  0  0  0  0  0  0
   27.0219   34.0464   19.7706 C   0  0  1  0  0  0  0  0  0  0  0  0
   26.4376   33.6324   21.0017 O   0  0  0  0  0  0  0  0  0  0  0  0
   27.9837   35.2042   20.0046 C   0  0  1  0  0  0  0  0  0  0  0  0
   28.4910   35.5928   18.7332 O   0  0  0  0  0  0  0  0  0  0  0  0
   27.3773   36.4151   20.7199 C   0  0  1  0  0  0  0  0  0  0  0  0
   26.8099   35.9738   21.9539 O   0  0  0  0  0  0  0  0  0  0  0  0
   28.3949   37.5111   21.0299 C   0  0  0  0  0  0  0  0  0  0  0  0
   27.3041   38.0125   23.5852 N   0  0  0  0  0  0  0  0  0  0  0  0
   26.7933   38.2234   24.8313 C   0  0  0  0  0  0  0  0  0  0  0  0
   26.8818   37.3335   25.7138 O   0  0  0  0  0  0  0  0  0  0  0  0
   26.1781   39.3953   25.1312 N   0  0  0  0  0  0  0  0  0  0  0  0
   26.0595   40.3771   24.2023 C   0  0  0  0  0  0  0  0  0  0  0  0
   26.5770   40.1767   22.9276 C   0  0  1  0  0  0  0  0  0  0  0  0
   25.4875   41.4592   24.4838 O   0  0  0  0  0  0  0  0  0  0  0  0
   26.9727   40.9553   20.7613 C   0  0  1  0  0  0  0  0  0  0  0  0
   26.4686   41.1499   21.9972 N   0  0  0  0  0  0  0  0  0  0  0  0
   26.8562   41.9623   19.8096 C   0  0  0  0  0  0  0  0  0  0  0  0
   27.3679   41.7927   18.5278 C   0  0  2  0  0  0  0  0  0  0  0  0
   27.2057   42.9243   17.5457 C   0  0  0  0  0  0  0  0  0  0  0  0
   28.0090   40.5943   18.1890 C   0  0  2  0  0  0  0  0  0  0  0  0
   28.5359   40.3562   16.9501 N   0  0  0  0  0  0  0  0  0  0  0  0
   28.1175   39.5890   19.1575 C   0  0  0  0  0  0  0  0  0  0  0  0
   27.6048   39.7542   20.4438 C   0  0  2  0  0  0  0  0  0  0  0  0
   27.2124   38.9702   22.6177 C   0  0  2  0  0  0  0  0  0  0  0  0
   27.7124   38.7746   21.3704 N   0  0  0  0  0  0  0  0  0  0  0  0
   27.7696   39.6031   15.9754 C   0  0  0  0  0  0  0  0  0  0  0  0
   29.8503   40.8331   16.5528 C   0  0  0  0  0  0  0  0  0  0  0  0
  1  2  1  0  0  0  0
  3  1  1  1  0  0  0
  3  4  1  0  0  0  0
  3  5  1  0  0  0  0
  5  6  1  6  0  0  0
  5  7  1  0  0  0  0
  7  8  1  1  0  0  0
  7  9  1  0  0  0  0
  9 27  1  0  0  0  0
 10 11  1  0  0  0  0
 11 12  2  0  0  0  0
 11 13  1  0  0  0  0
 13 14  1  0  0  0  0
 14 16  2  0  0  0  0
 15 14  1  1  0  0  0
 15 18  1  0  0  0  0
 15 26  1  0  0  0  0
 17 19  1  1  0  0  0
 17 25  1  0  0  0  0
 17 18  1  0  0  0  0
 19 20  1  0  0  0  0
 20 21  1  6  0  0  0
 20 22  1  0  0  0  0
 22 23  1  6  0  0  0
 22 24  1  0  0  0  0
 23 28  1  0  0  0  0
 23 29  1  0  0  0  0
 25 24  1  6  0  0  0
 25 27  1  0  0  0  0
 26 10  1  6  0  0  0
 26 27  1  0  0  0  0
M  END
>  <CHROM.1>
168.49225315,61.87282999,55.51021230,164.53468345,-97.48246410,-100.76930005
27.36360400,38.39304191,20.70095976,1.10136934,-1.31658626,2.97963853

>  <Name>
ligand

>  <RI>
0

>  <Rbt.Current_Directory>
/home/itssahil/PROJECTS/Mol_Feturizer/New_Systems/rnas/3F4H

>  <Rbt.Executable>
rbdock ($Id: //depot/dev/client3/rdock/2013.1/src/exe/rbdock.cxx#4 $)

>  <Rbt.Library>
libRbt.so (2013.1, Build901 2013/11/27)

>  <Rbt.Parameter_File>
/export/apps/rDock/src/rDock_2013.1_src/data/scripts/dock_solv.prm

>  <Rbt.Receptor>
prm/blind_docking_60.prm

>  <SCORE>
-35.2911

>  <SCORE.INTER>
-18.529

>  <SCORE.INTER.CONST>
1

>  <SCORE.INTER.POLAR>
0

>  <SCORE.INTER.ROT>
6

>  <SCORE.INTER.SOLV>
12.7444

>  <SCORE.INTER.VDW>
-24.2008

>  <SCORE.INTER.norm>
-0.638932

>  <SCORE.INTRA>
-16.7621

>  <SCORE.INTRA.DIHEDRAL>
-3.39583

>  <SCORE.INTRA.DIHEDRAL.0>
6.83446

>  <SCORE.INTRA.POLAR>
0

>  <SCORE.INTRA.POLAR.0>
0

>  <SCORE.INTRA.REPUL>
0

>  <SCORE.INTRA.REPUL.0>
0

>  <SCORE.INTRA.SOLV>
0.143671

>  <SCORE.INTRA.SOLV.lig_0>
-26.4601

>  <SCORE.INTRA.VDW>
-15.136

>  <SCORE.INTRA.VDW.0>
13.7853

>  <SCORE.INTRA.norm>
-0.578003

>  <SCORE.RESTR>
0

>  <SCORE.RESTR.CAVITY>
0

>  <SCORE.RESTR.norm>
0

>  <SCORE.SYSTEM>
0

>  <SCORE.SYSTEM.CONST>
0

>  <SCORE.SYSTEM.DIHEDRAL>
0

>  <SCORE.SYSTEM.SOLV>
0

>  <SCORE.SYSTEM.norm>
0

>  <SCORE.heavy>
29

>  <SCORE.norm>
-1.21694

>  <RMSD>
7.034

$$$$
ligand
 OpenBabel11021811473D
libRbt.so/2013.1/901 2013/11/27
 29 31  0  0  0  0  0  0  0  0999 V2000
   26.6468   42.5394   24.7111 C   0  0  0  0  0  0  0  0  0  0  0  0
   27.8815   42.7878   25.3914 O   0  0  0  0  0  0  0  0  0  0  0  0
   25.5163   42.4723   25.7287 C   0  0  1  0  0  0  0  0  0  0  0  0
   25.5508   43.6539   26.5230 O   0  0  0  0  0  0  0  0  0  0  0  0
   24.1706   42.3462   25.0264 C   0  0  1  0  0  0  0  0  0  0  0  0
   24.1530   41.0811   24.3753 O   0  0  0  0  0  0  0  0  0  0  0  0
   22.9485   42.4833   25.9393 C   0  0  1  0  0  0  0  0  0  0  0  0
   22.9486   43.7965   26.5007 O   0  0  0  0  0  0  0  0  0  0  0  0
   21.6206   42.2770   25.2135 C   0  0  0  0  0  0  0  0  0  0  0  0
   20.5160   40.5211   27.1287 N   0  0  0  0  0  0  0  0  0  0  0  0
   20.0104   39.6497   28.0468 C   0  0  0  0  0  0  0  0  0  0  0  0
   20.4932   38.4954   28.1612 O   0  0  0  0  0  0  0  0  0  0  0  0
   18.9757   40.0173   28.8444 N   0  0  0  0  0  0  0  0  0  0  0  0
   18.4256   41.2537   28.7458 C   0  0  0  0  0  0  0  0  0  0  0  0
   18.9318   42.1535   27.8148 C   0  0  1  0  0  0  0  0  0  0  0  0
   17.4668   41.5886   29.4847 O   0  0  0  0  0  0  0  0  0  0  0  0
   18.8876   44.2616   26.8101 C   0  0  1  0  0  0  0  0  0  0  0  0
   18.3946   43.3886   27.7124 N   0  0  0  0  0  0  0  0  0  0  0  0
   18.3282   45.5307   26.7111 C   0  0  0  0  0  0  0  0  0  0  0  0
   18.8160   46.4538   25.7926 C   0  0  2  0  0  0  0  0  0  0  0  0
   18.1622   47.8106   25.7377 C   0  0  0  0  0  0  0  0  0  0  0  0
   19.8838   46.1036   24.9566 C   0  0  2  0  0  0  0  0  0  0  0  0
   20.4156   46.9575   24.0307 N   0  0  0  0  0  0  0  0  0  0  0  0
   20.4360   44.8216   25.0669 C   0  0  0  0  0  0  0  0  0  0  0  0
   19.9491   43.8923   25.9856 C   0  0  2  0  0  0  0  0  0  0  0  0
   19.9989   41.7766   26.9934 C   0  0  2  0  0  0  0  0  0  0  0  0
   20.4883   42.6553   26.0811 N   0  0  0  0  0  0  0  0  0  0  0  0
   21.6442   47.6683   24.3300 C   0  0  0  0  0  0  0  0  0  0  0  0
   19.8003   47.1895   22.7343 C   0  0  0  0  0  0  0  0  0  0  0  0
  1  2  1  0  0  0  0
  3  1  1  6  0  0  0
  3  4  1  0  0  0  0
  3  5  1  0  0  0  0
  5  6  1  1  0  0  0
  5  7  1  0  0  0  0
  7  8  1  6  0  0  0
  7  9  1  0  0  0  0
  9 27  1  0  0  0  0
 10 11  1  0  0  0  0
 11 12  2  0  0  0  0
 11 13  1  0  0  0  0
 13 14  1  0  0  0  0
 14 16  2  0  0  0  0
 15 14  1  1  0  0  0
 15 18  1  0  0  0  0
 15 26  1  0  0  0  0
 17 19  1  1  0  0  0
 17 25  1  0  0  0  0
 17 18  1  0  0  0  0
 19 20  1  0  0  0  0
 20 21  1  6  0  0  0
 20 22  1  0  0  0  0
 22 23  1  6  0  0  0
 22 24  1  0  0  0  0
 23 28  1  0  0  0  0
 23 29  1  0  0  0  0
 25 24  1  6  0  0  0
 25 27  1  0  0  0  0
 26 10  1  6  0  0  0
 26 27  1  0  0  0  0
M  END
>  <CHROM.1>
53.27305476,66.17618785,62.93282925,-169.92763323,100.28268759,95.69236085
21.19853498,43.28020839,26.20853624,-0.01061339,-0.29129632,2.66600248

>  <Name>
ligand

>  <RI>
0

>  <Rbt.Current_Directory>
/home/itssahil/PROJECTS/Mol_Feturizer/New_Systems/rnas/3F4H

>  <Rbt.Executable>
rbdock ($Id: //depot/dev/client3/rdock/2013.1/src/exe/rbdock.cxx#4 $)

>  <Rbt.Library>
libRbt.so (2013.1, Build901 2013/11/27)

>  <Rbt.Parameter_File>
/export/apps/rDock/src/rDock_2013.1_src/data/scripts/dock_solv.prm

>  <Rbt.Receptor>
prm/blind_docking_60.prm

>  <SCORE>
-32.8328

>  <SCORE.INTER>
-15.1773

>  <SCORE.INTER.CONST>
1

>  <SCORE.INTER.POLAR>
0

>  <SCORE.INTER.ROT>
6

>  <SCORE.INTER.SOLV>
9.23509

>  <SCORE.INTER.VDW>
-20.7965

>  <SCORE.INTER.norm>
-0.523354

>  <SCORE.INTRA>
-17.6555

>  <SCORE.INTRA.DIHEDRAL>
-4.15192

>  <SCORE.INTRA.DIHEDRAL.0>
6.83446

>  <SCORE.INTRA.POLAR>
0

>  <SCORE.INTRA.POLAR.0>
0

>  <SCORE.INTRA.REPUL>
0

>  <SCORE.INTRA.REPUL.0>
0

>  <SCORE.INTRA.SOLV>
-0.24878

>  <SCORE.INTRA.SOLV.lig_0>
-26.4601

>  <SCORE.INTRA.VDW>
-15.4551

>  <SCORE.INTRA.VDW.0>
13.7853

>  <SCORE.INTRA.norm>
-0.60881

>  <SCORE.RESTR>
0

>  <SCORE.RESTR.CAVITY>
0

>  <SCORE.RESTR.norm>
0

>  <SCORE.SYSTEM>
0

>  <SCORE.SYSTEM.CONST>
0

>  <SCORE.SYSTEM.DIHEDRAL>
0

>  <SCORE.SYSTEM.SOLV>
0

>  <SCORE.SYSTEM.norm>
0

>  <SCORE.heavy>
29

>  <SCORE.norm>
-1.13216

>  <RMSD>
12.637

$$$$
ligand
 OpenBabel11021811473D
libRbt.so/2013.1/901 2013/11/27
 29 31  0  0  0  0  0  0  0  0999 V2000
   19.4629   48.3222   23.1459 C   0  0  0  0  0  0  0  0  0  0  0  0
   19.0249   48.8202   21.8774 O   0  0  0  0  0  0  0  0  0  0  0  0
   20.9460   47.9864   23.0696 C   0  0  1  0  0  0  0  0  0  0  0  0
   21.4763   47.9735   24.3913 O   0  0  0  0  0  0  0  0  0  0  0  0
   21.1548   46.6329   22.4027 C   0  0  1  0  0  0  0  0  0  0  0  0
   20.4586   45.6679   23.1829 O   0  0  0  0  0  0  0  0  0  0  0  0
   20.7001   46.5537   20.9424 C   0  0  1  0  0  0  0  0  0  0  0  0
   20.9042   47.8303   20.3355 O   0  0  0  0  0  0  0  0  0  0  0  0
   21.4600   45.5117   20.1242 C   0  0  0  0  0  0  0  0  0  0  0  0
   18.9888   46.5841   19.2787 N   0  0  0  0  0  0  0  0  0  0  0  0
   17.7895   47.1134   18.9052 C   0  0  0  0  0  0  0  0  0  0  0  0
   16.9889   47.5476   19.7706 O   0  0  0  0  0  0  0  0  0  0  0  0
   17.4442   47.1723   17.5940 N   0  0  0  0  0  0  0  0  0  0  0  0
   18.2811   46.7086   16.6320 C   0  0  0  0  0  0  0  0  0  0  0  0
   19.5082   46.1673   16.9980 C   0  0  1  0  0  0  0  0  0  0  0  0
   17.9563   46.7634   15.4200 O   0  0  0  0  0  0  0  0  0  0  0  0
   21.5419   45.1844   16.4034 C   0  0  1  0  0  0  0  0  0  0  0  0
   20.3507   45.7077   16.0476 N   0  0  0  0  0  0  0  0  0  0  0  0
   22.4028   44.7130   15.4185 C   0  0  0  0  0  0  0  0  0  0  0  0
   23.6385   44.1705   15.7535 C   0  0  2  0  0  0  0  0  0  0  0  0
   24.5213   43.6776   14.6359 C   0  0  0  0  0  0  0  0  0  0  0  0
   24.0230   44.0972   17.0984 C   0  0  2  0  0  0  0  0  0  0  0  0
   25.2210   43.5771   17.5029 N   0  0  0  0  0  0  0  0  0  0  0  0
   23.1450   44.5745   18.0790 C   0  0  0  0  0  0  0  0  0  0  0  0
   21.9044   45.1183   17.7478 C   0  0  2  0  0  0  0  0  0  0  0  0
   19.8659   46.1073   18.3485 C   0  0  2  0  0  0  0  0  0  0  0  0
   21.0627   45.5733   18.7041 N   0  0  0  0  0  0  0  0  0  0  0  0
   26.4368   44.3478   17.3232 C   0  0  0  0  0  0  0  0  0  0  0  0
   25.3378   42.2662   18.1198 C   0  0  0  0  0  0  0  0  0  0  0  0
  1  2  1  0  0  0  0
  3  1  1  1  0  0  0
  3  4  1  0  0  0  0
  3  5  1  0  0  0  0
  5  6  1  1  0  0  0
  5  7  1  0  0  0  0
  7  8  1  6  0  0  0
  7  9  1  0  0  0  0
  9 27  1  0  0  0  0
 10 11  1  0  0  0  0
 11 12  2  0  0  0  0
 11 13  1  0  0  0  0
 13 14  1  0  0  0  0
 14 16  2  0  0  0  0
 15 14  1  6  0  0  0
 15 18  1  0  0  0  0
 15 26  1  0  0  0  0
 17 19  1  6  0  0  0
 17 25  1  0  0  0  0
 17 18  1  0  0  0  0
 19 20  1  0  0  0  0
 20 21  1  1  0  0  0
 20 22  1  0  0  0  0
 22 23  1  1  0  0  0
 22 24  1  0  0  0  0
 23 28  1  0  0  0  0
 23 29  1  0  0  0  0
 25 24  1  1  0  0  0
 25 27  1  0  0  0  0
 26 10  1  1  0  0  0
 26 27  1  0  0  0  0
M  END
>  <CHROM.1>
158.82651695,-59.16981152,32.82665057,-174.75235177,75.15718834,156.14795042
21.08361674,45.99187751,18.90517657,-2.27076536,0.42466873,-1.84262255

>  <Name>
ligand

>  <RI>
0

>  <Rbt.Current_Directory>
/home/itssahil/PROJECTS/Mol_Feturizer/New_Systems/rnas/3F4H

>  <Rbt.Executable>
rbdock ($Id: //depot/dev/client3/rdock/2013.1/src/exe/rbdock.cxx#4 $)

>  <Rbt.Library>
libRbt.so (2013.1, Build901 2013/11/27)

>  <Rbt.Parameter_File>
/export/apps/rDock/src/rDock_2013.1_src/data/scripts/dock_solv.prm

>  <Rbt.Receptor>
prm/blind_docking_60.prm

>  <SCORE>
-6.66219

>  <SCORE.INTER>
2.0395

>  <SCORE.INTER.CONST>
1

>  <SCORE.INTER.POLAR>
-0.236317

>  <SCORE.INTER.ROT>
6

>  <SCORE.INTER.SOLV>
16.6199

>  <SCORE.INTER.VDW>
-10.9926

>  <SCORE.INTER.norm>
0.0703275

>  <SCORE.INTRA>
-9.42877

>  <SCORE.INTRA.DIHEDRAL>
-0.891407

>  <SCORE.INTRA.DIHEDRAL.0>
6.83446

>  <SCORE.INTRA.POLAR>
0

>  <SCORE.INTRA.POLAR.0>
0

>  <SCORE.INTRA.REPUL>
0

>  <SCORE.INTRA.REPUL.0>
0

>  <SCORE.INTRA.SOLV>
0.929022

>  <SCORE.INTRA.SOLV.lig_0>
-26.4601

>  <SCORE.INTRA.VDW>
-9.44757

>  <SCORE.INTRA.VDW.0>
13.7853

>  <SCORE.INTRA.norm>
-0.32513

>  <SCORE.RESTR>
0.727081

>  <SCORE.RESTR.CAVITY>
0.727081

>  <SCORE.RESTR.norm>
0.0250718

>  <SCORE.SYSTEM>
0

>  <SCORE.SYSTEM.CONST>
0

>  <SCORE.SYSTEM.DIHEDRAL>
0

>  <SCORE.SYSTEM.SOLV>
0

>  <SCORE.SYSTEM.norm>
0

>  <SCORE.heavy>
29

>  <SCORE.norm>
-0.229731

>  <RMSD>
13.132

$$$$
ligand
 OpenBabel11021811473D
libRbt.so/2013.1/901 2013/11/27
 29 31  0  0  0  0  0  0  0  0999 V2000
   18.3700   29.1835    9.3741 C   0  0  0  0  0  0  0  0  0  0  0  0
   19.6314   29.6068    9.9021 O   0  0  0  0  0  0  0  0  0  0  0  0
   18.0072   27.8277    9.9643 C   0  0  1  0  0  0  0  0  0  0  0  0
   17.4695   28.0300   11.2676 O   0  0  0  0  0  0  0  0  0  0  0  0
   16.9943   27.1125    9.0795 C   0  0  1  0  0  0  0  0  0  0  0  0
   17.6218   26.8824    7.8233 O   0  0  0  0  0  0  0  0  0  0  0  0
   16.4561   25.7952    9.6460 C   0  0  1  0  0  0  0  0  0  0  0  0
   15.7522   25.1111    8.6086 O   0  0  0  0  0  0  0  0  0  0  0  0
   17.5494   24.8667   10.1706 C   0  0  0  0  0  0  0  0  0  0  0  0
   20.1265   26.0035    9.9766 N   0  0  0  0  0  0  0  0  0  0  0  0
   21.3692   26.5481    9.8461 C   0  0  0  0  0  0  0  0  0  0  0  0
   21.9589   26.5284    8.7368 O   0  0  0  0  0  0  0  0  0  0  0  0
   21.9862   27.1132   10.9147 N   0  0  0  0  0  0  0  0  0  0  0  0
   21.3823   27.1484   12.1291 C   0  0  0  0  0  0  0  0  0  0  0  0
   20.1142   26.5980   12.2769 C   0  0  1  0  0  0  0  0  0  0  0  0
   21.9581   27.6706   13.1156 O   0  0  0  0  0  0  0  0  0  0  0  0
   18.2712   26.1000   13.6225 C   0  0  1  0  0  0  0  0  0  0  0  0
   19.5023   26.6326   13.4805 N   0  0  0  0  0  0  0  0  0  0  0  0
   17.6489   26.1395   14.8654 C   0  0  0  0  0  0  0  0  0  0  0  0
   16.3791   25.6013   15.0428 C   0  0  2  0  0  0  0  0  0  0  0  0
   15.7641   25.6772   16.4167 C   0  0  0  0  0  0  0  0  0  0  0  0
   15.7168   25.0123   13.9583 C   0  0  2  0  0  0  0  0  0  0  0  0
   14.4686   24.4632   14.0571 N   0  0  0  0  0  0  0  0  0  0  0  0
   16.3566   24.9788   12.7133 C   0  0  0  0  0  0  0  0  0  0  0  0
   17.6305   25.5161   12.5310 C   0  0  2  0  0  0  0  0  0  0  0  0
   19.4767   26.0167   11.1764 C   0  0  2  0  0  0  0  0  0  0  0  0
   18.2404   25.4750   11.3242 N   0  0  0  0  0  0  0  0  0  0  0  0
   14.2336   23.3740   14.9859 C   0  0  0  0  0  0  0  0  0  0  0  0
   13.3427   24.9291   13.2645 C   0  0  0  0  0  0  0  0  0  0  0  0
  1  2  1  0  0  0  0
  3  1  1  6  0  0  0
  3  4  1  0  0  0  0
  3  5  1  0  0  0  0
  5  6  1  6  0  0  0
  5  7  1  0  0  0  0
  7  8  1  6  0  0  0
  7  9  1  0  0  0  0
  9 27  1  0  0  0  0
 10 11  1  0  0  0  0
 11 12  2  0  0  0  0
 11 13  1  0  0  0  0
 13 14  1  0  0  0  0
 14 16  2  0  0  0  0
 15 14  1  6  0  0  0
 15 18  1  0  0  0  0
 15 26  1  0  0  0  0
 17 19  1  6  0  0  0
 17 25  1  0  0  0  0
 17 18  1  0  0  0  0
 19 20  1  0  0  0  0
 20 21  1  1  0  0  0
 20 22  1  0  0  0  0
 22 23  1  1  0  0  0
 22 24  1  0  0  0  0
 23 28  1  0  0  0  0
 23 29  1  0  0  0  0
 25 24  1  1  0  0  0
 25 27  1  0  0  0  0
 26 10  1  1  0  0  0
 26 27  1  0  0  0  0
M  END
>  <CHROM.1>
80.22055591,62.91613390,-167.95889488,64.41730890,-59.16557416,74.93101400
18.05154548,26.30308129,11.66483255,0.70707074,-0.32998239,-1.40588378

>  <Name>
ligand

>  <RI>
0

>  <Rbt.Current_Directory>
/home/itssahil/PROJECTS/Mol_Feturizer/New_Systems/rnas/3F4H

>  <Rbt.Executable>
rbdock ($Id: //depot/dev/client3/rdock/2013.1/src/exe/rbdock.cxx#4 $)

>  <Rbt.Library>
libRbt.so (2013.1, Build901 2013/11/27)

>  <Rbt.Parameter_File>
/export/apps/rDock/src/rDock_2013.1_src/data/scripts/dock_solv.prm

>  <Rbt.Receptor>
prm/blind_docking_40.prm

>  <SCORE>
-16.1218

>  <SCORE.INTER>
-6.18476

>  <SCORE.INTER.CONST>
1

>  <SCORE.INTER.POLAR>
0

>  <SCORE.INTER.ROT>
6

>  <SCORE.INTER.SOLV>
10.2414

>  <SCORE.INTER.VDW>
-15.137

>  <SCORE.INTER.norm>
-0.213268

>  <SCORE.INTRA>
-14.4628

>  <SCORE.INTRA.DIHEDRAL>
-2.88527

>  <SCORE.INTRA.DIHEDRAL.0>
6.83446

>  <SCORE.INTRA.POLAR>
0

>  <SCORE.INTRA.POLAR.0>
0

>  <SCORE.INTRA.REPUL>
0

>  <SCORE.INTRA.REPUL.0>
0

>  <SCORE.INTRA.SOLV>
0.317785

>  <SCORE.INTRA.SOLV.lig_0>
-26.4601

>  <SCORE.INTRA.VDW>
-13.1791

>  <SCORE.INTRA.VDW.0>
13.7853

>  <SCORE.INTRA.norm>
-0.498718

>  <SCORE.RESTR>
4.52581

>  <SCORE.RESTR.CAVITY>
4.52581

>  <SCORE.RESTR.norm>
0.156062

>  <SCORE.SYSTEM>
0

>  <SCORE.SYSTEM.CONST>
0

>  <SCORE.SYSTEM.DIHEDRAL>
0

>  <SCORE.SYSTEM.SOLV>
0

>  <SCORE.SYSTEM.norm>
0

>  <SCORE.heavy>
29

>  <SCORE.norm>
-0.555924

>  <RMSD>
16.917

$$$$
ligand
 OpenBabel11021811473D
libRbt.so/2013.1/901 2013/11/27
 29 31  0  0  0  0  0  0  0  0999 V2000
   16.4995   26.7321    7.8214 C   0  0  0  0  0  0  0  0  0  0  0  0
   15.4480   27.6958    7.7004 O   0  0  0  0  0  0  0  0  0  0  0  0
   17.1520   26.8688    9.1902 C   0  0  1  0  0  0  0  0  0  0  0  0
   17.5574   28.2228    9.3658 O   0  0  0  0  0  0  0  0  0  0  0  0
   16.1800   26.4609   10.2899 C   0  0  1  0  0  0  0  0  0  0  0  0
   14.9284   27.0684    9.9913 O   0  0  0  0  0  0  0  0  0  0  0  0
   16.0007   24.9503   10.4677 C   0  0  1  0  0  0  0  0  0  0  0  0
   15.7317   24.3734    9.1893 O   0  0  0  0  0  0  0  0  0  0  0  0
   17.2291   24.2566   11.0531 C   0  0  0  0  0  0  0  0  0  0  0  0
   19.5566   25.5571   10.1243 N   0  0  0  0  0  0  0  0  0  0  0  0
   20.6735   26.1718    9.6419 C   0  0  0  0  0  0  0  0  0  0  0  0
   21.0722   25.9402    8.4732 O   0  0  0  0  0  0  0  0  0  0  0  0
   21.3708   27.0372   10.4208 N   0  0  0  0  0  0  0  0  0  0  0  0
   20.9729   27.3080   11.6894 C   0  0  0  0  0  0  0  0  0  0  0  0
   19.8349   26.6894   12.1944 C   0  0  1  0  0  0  0  0  0  0  0  0
   21.6227   28.1080   12.4072 O   0  0  0  0  0  0  0  0  0  0  0  0
   18.3223   26.3570   13.9428 C   0  0  1  0  0  0  0  0  0  0  0  0
   19.4276   26.9562   13.4543 N   0  0  0  0  0  0  0  0  0  0  0  0
   17.9105   26.6370   15.2411 C   0  0  0  0  0  0  0  0  0  0  0  0
   16.7739   26.0372   15.7721 C   0  0  2  0  0  0  0  0  0  0  0  0
   16.3855   26.3850   17.1862 C   0  0  0  0  0  0  0  0  0  0  0  0
   16.0331   25.1404   14.9919 C   0  0  2  0  0  0  0  0  0  0  0  0
   14.9064   24.5132   15.4460 N   0  0  0  0  0  0  0  0  0  0  0  0
   16.4608   24.8674   13.6869 C   0  0  0  0  0  0  0  0  0  0  0  0
   17.6007   25.4655   13.1506 C   0  0  2  0  0  0  0  0  0  0  0  0
   19.1146   25.7986   11.3924 C   0  0  2  0  0  0  0  0  0  0  0  0
   18.0064   25.1916   11.8896 N   0  0  0  0  0  0  0  0  0  0  0  0
   15.0251   23.4033   16.3725 C   0  0  0  0  0  0  0  0  0  0  0  0
   13.5692   24.9143   15.0411 C   0  0  0  0  0  0  0  0  0  0  0  0
  1  2  1  0  0  0  0
  3  1  1  6  0  0  0
  3  4  1  0  0  0  0
  3  5  1  0  0  0  0
  5  6  1  6  0  0  0
  5  7  1  0  0  0  0
  7  8  1  6  0  0  0
  7  9  1  0  0  0  0
  9 27  1  0  0  0  0
 10 11  1  0  0  0  0
 11 12  2  0  0  0  0
 11 13  1  0  0  0  0
 13 14  1  0  0  0  0
 14 16  2  0  0  0  0
 15 14  1  6  0  0  0
 15 18  1  0  0  0  0
 15 26  1  0  0  0  0
 17 19  1  6  0  0  0
 17 25  1  0  0  0  0
 17 18  1  0  0  0  0
 19 20  1  0  0  0  0
 20 21  1  1  0  0  0
 20 22  1  0  0  0  0
 22 23  1  1  0  0  0
 22 24  1  0  0  0  0
 23 28  1  0  0  0  0
 23 29  1  0  0  0  0
 25 24  1  1  0  0  0
 25 27  1  0  0  0  0
 26 10  1  1  0  0  0
 26 27  1  0  0  0  0
M  END
>  <CHROM.1>
-54.01978290,-45.11871483,-50.08392718,27.47942431,-75.76183582,79.19903570
17.58756356,26.05437548,11.89971963,1.10144961,-0.24839253,-1.43879861

>  <Name>
ligand

>  <RI>
0

>  <Rbt.Current_Directory>
/home/itssahil/PROJECTS/Mol_Feturizer/New_Systems/rnas/3F4H

>  <Rbt.Executable>
rbdock ($Id: //depot/dev/client3/rdock/2013.1/src/exe/rbdock.cxx#4 $)

>  <Rbt.Library>
libRbt.so (2013.1, Build901 2013/11/27)

>  <Rbt.Parameter_File>
/export/apps/rDock/src/rDock_2013.1_src/data/scripts/dock_solv.prm

>  <Rbt.Receptor>
prm/blind_docking_40.prm

>  <SCORE>
2.98546

>  <SCORE.INTER>
14.6963

>  <SCORE.INTER.CONST>
1

>  <SCORE.INTER.POLAR>
0

>  <SCORE.INTER.ROT>
6

>  <SCORE.INTER.SOLV>
12.6509

>  <SCORE.INTER.VDW>
-2.0194

>  <SCORE.INTER.norm>
0.50677

>  <SCORE.INTRA>
-14.3392

>  <SCORE.INTRA.DIHEDRAL>
-0.599086

>  <SCORE.INTRA.DIHEDRAL.0>
6.83446

>  <SCORE.INTRA.POLAR>
0

>  <SCORE.INTRA.POLAR.0>
0

>  <SCORE.INTRA.REPUL>
0

>  <SCORE.INTRA.REPUL.0>
0

>  <SCORE.INTRA.SOLV>
0.578049

>  <SCORE.INTRA.SOLV.lig_0>
-26.4601

>  <SCORE.INTRA.VDW>
-14.3287

>  <SCORE.INTRA.VDW.0>
13.7853

>  <SCORE.INTRA.norm>
-0.494456

>  <SCORE.RESTR>
2.62835

>  <SCORE.RESTR.CAVITY>
2.62835

>  <SCORE.RESTR.norm>
0.0906327

>  <SCORE.SYSTEM>
0

>  <SCORE.SYSTEM.CONST>
0

>  <SCORE.SYSTEM.DIHEDRAL>
0

>  <SCORE.SYSTEM.SOLV>
0

>  <SCORE.SYSTEM.norm>
0

>  <SCORE.heavy>
29

>  <SCORE.norm>
0.102947

>  <RMSD>
17.240

$$$$
ligand
 OpenBabel11021811473D
libRbt.so/2013.1/901 2013/11/27
 29 31  0  0  0  0  0  0  0  0999 V2000
   14.7672   26.5882   16.1143 C   0  0  0  0  0  0  0  0  0  0  0  0
   14.9431   27.8640   16.7390 O   0  0  0  0  0  0  0  0  0  0  0  0
   16.0718   25.8068   16.1902 C   0  0  1  0  0  0  0  0  0  0  0  0
   15.8745   24.6764   17.0337 O   0  0  0  0  0  0  0  0  0  0  0  0
   16.5099   25.3603   14.8013 C   0  0  1  0  0  0  0  0  0  0  0  0
   15.3318   25.0306   14.0746 O   0  0  0  0  0  0  0  0  0  0  0  0
   17.3367   26.3872   14.0220 C   0  0  1  0  0  0  0  0  0  0  0  0
   18.1185   27.1378   14.9520 O   0  0  0  0  0  0  0  0  0  0  0  0
   18.2849   25.7581   13.0032 C   0  0  0  0  0  0  0  0  0  0  0  0
   15.7950   25.4324   11.7126 N   0  0  0  0  0  0  0  0  0  0  0  0
   14.5789   25.2616   11.1210 C   0  0  0  0  0  0  0  0  0  0  0  0
   13.6640   24.6394   11.7162 O   0  0  0  0  0  0  0  0  0  0  0  0
   14.3443   25.7571    9.8795 N   0  0  0  0  0  0  0  0  0  0  0  0
   15.3099   26.4300    9.2044 C   0  0  0  0  0  0  0  0  0  0  0  0
   16.5547   26.6131    9.7958 C   0  0  1  0  0  0  0  0  0  0  0  0
   15.0888   26.8849    8.0548 O   0  0  0  0  0  0  0  0  0  0  0  0
   18.7278   27.4648    9.7095 C   0  0  1  0  0  0  0  0  0  0  0  0
   17.5210   27.2860    9.1342 N   0  0  0  0  0  0  0  0  0  0  0  0
   19.7170   28.1583    9.0209 C   0  0  0  0  0  0  0  0  0  0  0  0
   20.9701   28.3612    9.5884 C   0  0  2  0  0  0  0  0  0  0  0  0
   21.9956   29.1203    8.7862 C   0  0  0  0  0  0  0  0  0  0  0  0
   21.2416   27.8624   10.8688 C   0  0  2  0  0  0  0  0  0  0  0  0
   22.4489   28.0228   11.4899 N   0  0  0  0  0  0  0  0  0  0  0  0
   20.2361   27.1650   11.5493 C   0  0  0  0  0  0  0  0  0  0  0  0
   18.9783   26.9581   10.9836 C   0  0  2  0  0  0  0  0  0  0  0  0
   16.7973   26.1044   11.0756 C   0  0  2  0  0  0  0  0  0  0  0  0
   18.0155   26.2798   11.6491 N   0  0  0  0  0  0  0  0  0  0  0  0
   23.2866   26.8658   11.7432 C   0  0  0  0  0  0  0  0  0  0  0  0
   22.9457   29.3215   11.9134 C   0  0  0  0  0  0  0  0  0  0  0  0
  1  2  1  0  0  0  0
  3  1  1  6  0  0  0
  3  4  1  0  0  0  0
  3  5  1  0  0  0  0
  5  6  1  6  0  0  0
  5  7  1  0  0  0  0
  7  8  1  1  0  0  0
  7  9  1  0  0  0  0
  9 27  1  0  0  0  0
 10 11  1  0  0  0  0
 11 12  2  0  0  0  0
 11 13  1  0  0  0  0
 13 14  1  0  0  0  0
 14 16  2  0  0  0  0
 15 14  1  1  0  0  0
 15 18  1  0  0  0  0
 15 26  1  0  0  0  0
 17 19  1  1  0  0  0
 17 25  1  0  0  0  0
 17 18  1  0  0  0  0
 19 20  1  0  0  0  0
 20 21  1  6  0  0  0
 20 22  1  0  0  0  0
 22 23  1  6  0  0  0
 22 24  1  0  0  0  0
 23 28  1  0  0  0  0
 23 29  1  0  0  0  0
 25 24  1  6  0  0  0
 25 27  1  0  0  0  0
 26 10  1  6  0  0  0
 26 27  1  0  0  0  0
M  END
>  <CHROM.1>
113.78260987,-36.41554788,32.60211980,122.78671307,-113.08732239,118.53240775
17.72604456,26.69341914,12.03429492,-2.54875325,-0.31732181,-1.48804440

>  <Name>
ligand

>  <RI>
0

>  <Rbt.Current_Directory>
/home/itssahil/PROJECTS/Mol_Feturizer/New_Systems/rnas/3F4H

>  <Rbt.Executable>
rbdock ($Id: //depot/dev/client3/rdock/2013.1/src/exe/rbdock.cxx#4 $)

>  <Rbt.Library>
libRbt.so (2013.1, Build901 2013/11/27)

>  <Rbt.Parameter_File>
/export/apps/rDock/src/rDock_2013.1_src/data/scripts/dock_solv.prm

>  <Rbt.Receptor>
prm/blind_docking_40.prm

>  <SCORE>
-8.08804

>  <SCORE.INTER>
-2.83657

>  <SCORE.INTER.CONST>
1

>  <SCORE.INTER.POLAR>
0

>  <SCORE.INTER.ROT>
6

>  <SCORE.INTER.SOLV>
13.4717

>  <SCORE.INTER.VDW>
-13.9816

>  <SCORE.INTER.norm>
-0.0978127

>  <SCORE.INTRA>
-8.26229

>  <SCORE.INTRA.DIHEDRAL>
9.7221

>  <SCORE.INTRA.DIHEDRAL.0>
6.83446

>  <SCORE.INTRA.POLAR>
0

>  <SCORE.INTRA.POLAR.0>
0

>  <SCORE.INTRA.REPUL>
0

>  <SCORE.INTRA.REPUL.0>
0

>  <SCORE.INTRA.SOLV>
0.158031

>  <SCORE.INTRA.SOLV.lig_0>
-26.4601

>  <SCORE.INTRA.VDW>
-13.2024

>  <SCORE.INTRA.VDW.0>
13.7853

>  <SCORE.INTRA.norm>
-0.284906

>  <SCORE.RESTR>
3.01082

>  <SCORE.RESTR.CAVITY>
3.01082

>  <SCORE.RESTR.norm>
0.103821

>  <SCORE.SYSTEM>
0

>  <SCORE.SYSTEM.CONST>
0

>  <SCORE.SYSTEM.DIHEDRAL>
0

>  <SCORE.SYSTEM.SOLV>
0

>  <SCORE.SYSTEM.norm>
0

>  <SCORE.heavy>
29

>  <SCORE.norm>
-0.278898

>  <RMSD>
17.411

$$$$
ligand
 OpenBabel11021811473D
libRbt.so/2013.1/901 2013/11/27
 29 31  0  0  0  0  0  0  0  0999 V2000
   15.1869   25.7121   16.2432 C   0  0  0  0  0  0  0  0  0  0  0  0
   15.4898   24.4162   16.7702 O   0  0  0  0  0  0  0  0  0  0  0  0
   16.4348   26.2959   15.5953 C   0  0  1  0  0  0  0  0  0  0  0  0
   17.4884   26.2894   16.5536 O   0  0  0  0  0  0  0  0  0  0  0  0
   16.8308   25.4843   14.3685 C   0  0  1  0  0  0  0  0  0  0  0  0
   15.7485   25.5591   13.4478 O   0  0  0  0  0  0  0  0  0  0  0  0
   18.1291   25.9295   13.6892 C   0  0  1  0  0  0  0  0  0  0  0  0
   19.2083   25.7330   14.6037 O   0  0  0  0  0  0  0  0  0  0  0  0
   18.4431   25.1556   12.4104 C   0  0  0  0  0  0  0  0  0  0  0  0
   15.9670   25.1618   11.0539 N   0  0  0  0  0  0  0  0  0  0  0  0
   14.7572   25.1440   10.4261 C   0  0  0  0  0  0  0  0  0  0  0  0
   13.8350   24.3999   10.8436 O   0  0  0  0  0  0  0  0  0  0  0  0
   14.5368   25.9263    9.3392 N   0  0  0  0  0  0  0  0  0  0  0  0
   15.5106   26.7388    8.8571 C   0  0  0  0  0  0  0  0  0  0  0  0
   16.7491   26.7684    9.4879 C   0  0  1  0  0  0  0  0  0  0  0  0
   15.3027   27.4594    7.8496 O   0  0  0  0  0  0  0  0  0  0  0  0
   18.9242   27.6072    9.6327 C   0  0  1  0  0  0  0  0  0  0  0  0
   17.7235   27.5777    9.0189 N   0  0  0  0  0  0  0  0  0  0  0  0
   19.9217   28.4429    9.1428 C   0  0  0  0  0  0  0  0  0  0  0  0
   21.1689   28.4974    9.7553 C   0  0  2  0  0  0  0  0  0  0  0  0
   22.2041   29.4241    9.1713 C   0  0  0  0  0  0  0  0  0  0  0  0
   21.4257   27.7024   10.8795 C   0  0  2  0  0  0  0  0  0  0  0  0
   22.6264   27.7030   11.5333 N   0  0  0  0  0  0  0  0  0  0  0  0
   20.4119   26.8649   11.3606 C   0  0  0  0  0  0  0  0  0  0  0  0
   19.1601   26.8061   10.7488 C   0  0  2  0  0  0  0  0  0  0  0  0
   16.9771   25.9640   10.6089 C   0  0  2  0  0  0  0  0  0  0  0  0
   18.1892   25.9906   11.2203 N   0  0  0  0  0  0  0  0  0  0  0  0
   23.0288   28.8688   12.2969 C   0  0  0  0  0  0  0  0  0  0  0  0
   23.5354   26.5691   11.5032 C   0  0  0  0  0  0  0  0  0  0  0  0
  1  2  1  0  0  0  0
  3  1  1  1  0  0  0
  3  4  1  0  0  0  0
  3  5  1  0  0  0  0
  5  6  1  6  0  0  0
  5  7  1  0  0  0  0
  7  8  1  1  0  0  0
  7  9  1  0  0  0  0
  9 27  1  0  0  0  0
 10 11  1  0  0  0  0
 11 12  2  0  0  0  0
 11 13  1  0  0  0  0
 13 14  1  0  0  0  0
 14 16  2  0  0  0  0
 15 14  1  1  0  0  0
 15 18  1  0  0  0  0
 15 26  1  0  0  0  0
 17 19  1  1  0  0  0
 17 25  1  0  0  0  0
 17 18  1  0  0  0  0
 19 20  1  0  0  0  0
 20 21  1  6  0  0  0
 20 22  1  0  0  0  0
 22 23  1  6  0  0  0
 22 24  1  0  0  0  0
 23 28  1  0  0  0  0
 23 29  1  0  0  0  0
 25 24  1  6  0  0  0
 25 27  1  0  0  0  0
 26 10  1  6  0  0  0
 26 27  1  0  0  0  0
M  END
>  <CHROM.1>
-54.97423362,61.14052040,63.78216486,105.94182052,69.69946364,87.02078865
18.06720261,26.52419099,11.77237038,-2.59133626,-0.30634717,-1.34913255

>  <Name>
ligand

>  <RI>
0

>  <Rbt.Current_Directory>
/home/itssahil/PROJECTS/Mol_Feturizer/New_Systems/rnas/3F4H

>  <Rbt.Executable>
rbdock ($Id: //depot/dev/client3/rdock/2013.1/src/exe/rbdock.cxx#4 $)

>  <Rbt.Library>
libRbt.so (2013.1, Build901 2013/11/27)

>  <Rbt.Parameter_File>
/export/apps/rDock/src/rDock_2013.1_src/data/scripts/dock_solv.prm

>  <Rbt.Receptor>
prm/blind_docking_40.prm

>  <SCORE>
-17.6718

>  <SCORE.INTER>
-6.41638

>  <SCORE.INTER.CONST>
1

>  <SCORE.INTER.POLAR>
0

>  <SCORE.INTER.ROT>
6

>  <SCORE.INTER.SOLV>
13.5772

>  <SCORE.INTER.VDW>
-16.4033

>  <SCORE.INTER.norm>
-0.221255

>  <SCORE.INTRA>
-14.4883

>  <SCORE.INTRA.DIHEDRAL>
-0.107831

>  <SCORE.INTRA.DIHEDRAL.0>
6.83446

>  <SCORE.INTRA.POLAR>
0

>  <SCORE.INTRA.POLAR.0>
0

>  <SCORE.INTRA.REPUL>
0

>  <SCORE.INTRA.REPUL.0>
0

>  <SCORE.INTRA.SOLV>
0.368903

>  <SCORE.INTRA.SOLV.lig_0>
-26.4601

>  <SCORE.INTRA.VDW>
-14.6189

>  <SCORE.INTRA.VDW.0>
13.7853

>  <SCORE.INTRA.norm>
-0.499598

>  <SCORE.RESTR>
3.23295

>  <SCORE.RESTR.CAVITY>
3.23295

>  <SCORE.RESTR.norm>
0.111481

>  <SCORE.SYSTEM>
0

>  <SCORE.SYSTEM.CONST>
0

>  <SCORE.SYSTEM.DIHEDRAL>
0

>  <SCORE.SYSTEM.SOLV>
0

>  <SCORE.SYSTEM.norm>
0

>  <SCORE.heavy>
29

>  <SCORE.norm>
-0.609371

>  <RMSD>
17.419

$$$$
ligand
 OpenBabel11021811473D
libRbt.so/2013.1/901 2013/11/27
 29 31  0  0  0  0  0  0  0  0999 V2000
   17.1076   27.4581    9.4646 C   0  0  0  0  0  0  0  0  0  0  0  0
   17.7649   26.9199    8.3125 O   0  0  0  0  0  0  0  0  0  0  0  0
   15.6012   27.3132    9.2979 C   0  0  1  0  0  0  0  0  0  0  0  0
   15.2358   27.8219    8.0187 O   0  0  0  0  0  0  0  0  0  0  0  0
   15.1865   25.8530    9.4245 C   0  0  1  0  0  0  0  0  0  0  0  0
   15.9132   25.1229    8.4428 O   0  0  0  0  0  0  0  0  0  0  0  0
   15.4078   25.2349   10.8082 C   0  0  1  0  0  0  0  0  0  0  0  0
   14.3896   24.2596   11.0358 O   0  0  0  0  0  0  0  0  0  0  0  0
   16.7644   24.5494   10.9585 C   0  0  0  0  0  0  0  0  0  0  0  0
   19.1800   25.6859   10.0395 N   0  0  0  0  0  0  0  0  0  0  0  0
   20.3371   26.2247    9.5612 C   0  0  0  0  0  0  0  0  0  0  0  0
   20.6763   26.0433    8.3651 O   0  0  0  0  0  0  0  0  0  0  0  0
   21.1390   26.9591   10.3734 N   0  0  0  0  0  0  0  0  0  0  0  0
   20.8075   27.1719   11.6717 C   0  0  0  0  0  0  0  0  0  0  0  0
   19.6296   26.6296   12.1730 C   0  0  1  0  0  0  0  0  0  0  0  0
   21.5538   27.8504   12.4201 O   0  0  0  0  0  0  0  0  0  0  0  0
   18.1442   26.3151   13.9478 C   0  0  1  0  0  0  0  0  0  0  0  0
   19.2881   26.8400   13.4628 N   0  0  0  0  0  0  0  0  0  0  0  0
   17.8007   26.5362   15.2770 C   0  0  0  0  0  0  0  0  0  0  0  0
   16.6268   26.0105   15.8055 C   0  0  2  0  0  0  0  0  0  0  0  0
   16.3166   26.2880   17.2540 C   0  0  0  0  0  0  0  0  0  0  0  0
   15.7785   25.2493   14.9914 C   0  0  2  0  0  0  0  0  0  0  0  0
   14.6096   24.7011   15.4409 N   0  0  0  0  0  0  0  0  0  0  0  0
   16.1384   25.0340   13.6554 C   0  0  0  0  0  0  0  0  0  0  0  0
   17.3152   25.5582   13.1215 C   0  0  2  0  0  0  0  0  0  0  0  0
   18.8018   25.8740   11.3369 C   0  0  2  0  0  0  0  0  0  0  0  0
   17.6544   25.3409   11.8301 N   0  0  0  0  0  0  0  0  0  0  0  0
   14.6480   23.5897   16.3724 C   0  0  0  0  0  0  0  0  0  0  0  0
   13.3048   25.1894   15.0263 C   0  0  0  0  0  0  0  0  0  0  0  0
  1  2  1  0  0  0  0
  3  1  1  6  0  0  0
  3  4  1  0  0  0  0
  3  5  1  0  0  0  0
  5  6  1  6  0  0  0
  5  7  1  0  0  0  0
  7  8  1  6  0  0  0
  7  9  1  0  0  0  0
  9 27  1  0  0  0  0
 10 11  1  0  0  0  0
 11 12  2  0  0  0  0
 11 13  1  0  0  0  0
 13 14  1  0  0  0  0
 14 16  2  0  0  0  0
 15 14  1  6  0  0  0
 15 18  1  0  0  0  0
 15 26  1  0  0  0  0
 17 19  1  6  0  0  0
 17 25  1  0  0  0  0
 17 18  1  0  0  0  0
 19 20  1  0  0  0  0
 20 21  1  1  0  0  0
 20 22  1  0  0  0  0
 22 23  1  1  0  0  0
 22 24  1  0  0  0  0
 23 28  1  0  0  0  0
 23 29  1  0  0  0  0
 25 24  1  1  0  0  0
 25 27  1  0  0  0  0
 26 10  1  1  0  0  0
 26 27  1  0  0  0  0
M  END
>  <CHROM.1>
-49.93444054,-57.18177978,147.88730234,107.89104757,-70.52825284,62.30038371
17.31107928,25.98529769,11.90973742,1.05088896,-0.26592083,-1.47964466

>  <Name>
ligand

>  <RI>
0

>  <Rbt.Current_Directory>
/home/itssahil/PROJECTS/Mol_Feturizer/New_Systems/rnas/3F4H

>  <Rbt.Executable>
rbdock ($Id: //depot/dev/client3/rdock/2013.1/src/exe/rbdock.cxx#4 $)

>  <Rbt.Library>
libRbt.so (2013.1, Build901 2013/11/27)

>  <Rbt.Parameter_File>
/export/apps/rDock/src/rDock_2013.1_src/data/scripts/dock_solv.prm

>  <Rbt.Receptor>
prm/blind_docking_40.prm

>  <SCORE>
0.94652

>  <SCORE.INTER>
10.5663

>  <SCORE.INTER.CONST>
1

>  <SCORE.INTER.POLAR>
0

>  <SCORE.INTER.ROT>
6

>  <SCORE.INTER.SOLV>
10.2358

>  <SCORE.INTER.VDW>
-3.96775

>  <SCORE.INTER.norm>
0.364355

>  <SCORE.INTRA>
-11.4381

>  <SCORE.INTRA.DIHEDRAL>
3.34333

>  <SCORE.INTRA.DIHEDRAL.0>
6.83446

>  <SCORE.INTRA.POLAR>
0

>  <SCORE.INTRA.POLAR.0>
0

>  <SCORE.INTRA.REPUL>
0

>  <SCORE.INTRA.REPUL.0>
0

>  <SCORE.INTRA.SOLV>
0.878061

>  <SCORE.INTRA.SOLV.lig_0>
-26.4601

>  <SCORE.INTRA.VDW>
-13.5488

>  <SCORE.INTRA.VDW.0>
13.7853

>  <SCORE.INTRA.norm>
-0.394417

>  <SCORE.RESTR>
1.81834

>  <SCORE.RESTR.CAVITY>
1.81834

>  <SCORE.RESTR.norm>
0.0627014

>  <SCORE.SYSTEM>
0

>  <SCORE.SYSTEM.CONST>
0

>  <SCORE.SYSTEM.DIHEDRAL>
0

>  <SCORE.SYSTEM.SOLV>
0

>  <SCORE.SYSTEM.norm>
0

>  <SCORE.heavy>
29

>  <SCORE.norm>
0.0326386

>  <RMSD>
17.438

$$$$
ligand
 OpenBabel11021811473D
libRbt.so/2013.1/901 2013/11/27
 29 31  0  0  0  0  0  0  0  0999 V2000
   17.5791   24.8337    8.9420 C   0  0  0  0  0  0  0  0  0  0  0  0
   16.4396   23.9692    8.9960 O   0  0  0  0  0  0  0  0  0  0  0  0
   17.1488   26.2021    8.4317 C   0  0  1  0  0  0  0  0  0  0  0  0
   16.1251   26.0213    7.4582 O   0  0  0  0  0  0  0  0  0  0  0  0
   16.6410   27.0660    9.5790 C   0  0  1  0  0  0  0  0  0  0  0  0
   16.0615   28.2311    9.0033 O   0  0  0  0  0  0  0  0  0  0  0  0
   15.6325   26.3823   10.5069 C   0  0  1  0  0  0  0  0  0  0  0  0
   14.6093   25.7907    9.7053 O   0  0  0  0  0  0  0  0  0  0  0  0
   16.2494   25.2868   11.3743 C   0  0  0  0  0  0  0  0  0  0  0  0
   15.3433   25.2687   14.0482 N   0  0  0  0  0  0  0  0  0  0  0  0
   14.8778   25.2378   15.3290 C   0  0  0  0  0  0  0  0  0  0  0  0
   13.7642   24.7173   15.5885 O   0  0  0  0  0  0  0  0  0  0  0  0
   15.6100   25.7741   16.3381 N   0  0  0  0  0  0  0  0  0  0  0  0
   16.8148   26.3488   16.0950 C   0  0  0  0  0  0  0  0  0  0  0  0
   17.3028   26.3864   14.7938 C   0  0  1  0  0  0  0  0  0  0  0  0
   17.4878   26.8457   17.0318 O   0  0  0  0  0  0  0  0  0  0  0  0
   18.9771   26.9860   13.2796 C   0  0  1  0  0  0  0  0  0  0  0  0
   18.5035   26.9517   14.5421 N   0  0  0  0  0  0  0  0  0  0  0  0
   20.2137   27.5704   13.0294 C   0  0  0  0  0  0  0  0  0  0  0  0
   20.7300   27.6188   11.7392 C   0  0  2  0  0  0  0  0  0  0  0  0
   22.0754   28.2679   11.5394 C   0  0  0  0  0  0  0  0  0  0  0  0
   19.9978   27.0727   10.6774 C   0  0  2  0  0  0  0  0  0  0  0  0
   20.4409   27.0837    9.3840 N   0  0  0  0  0  0  0  0  0  0  0  0
   18.7536   26.4887   10.9446 C   0  0  0  0  0  0  0  0  0  0  0  0
   18.2313   26.4391   12.2366 C   0  0  2  0  0  0  0  0  0  0  0  0
   16.5502   25.8329   13.7534 C   0  0  2  0  0  0  0  0  0  0  0  0
   17.0265   25.8754   12.4825 N   0  0  0  0  0  0  0  0  0  0  0  0
   20.8966   25.8511    8.7696 C   0  0  0  0  0  0  0  0  0  0  0  0
   20.4747   28.2926    8.5776 C   0  0  0  0  0  0  0  0  0  0  0  0
  1  2  1  0  0  0  0
  3  1  1  1  0  0  0
  3  4  1  0  0  0  0
  3  5  1  0  0  0  0
  5  6  1  6  0  0  0
  5  7  1  0  0  0  0
  7  8  1  6  0  0  0
  7  9  1  0  0  0  0
  9 27  1  0  0  0  0
 10 11  1  0  0  0  0
 11 12  2  0  0  0  0
 11 13  1  0  0  0  0
 13 14  1  0  0  0  0
 14 16  2  0  0  0  0
 15 14  1  1  0  0  0
 15 18  1  0  0  0  0
 15 26  1  0  0  0  0
 17 19  1  1  0  0  0
 17 25  1  0  0  0  0
 17 18  1  0  0  0  0
 19 20  1  0  0  0  0
 20 21  1  6  0  0  0
 20 22  1  0  0  0  0
 22 23  1  6  0  0  0
 22 24  1  0  0  0  0
 23 28  1  0  0  0  0
 23 29  1  0  0  0  0
 25 24  1  6  0  0  0
 25 27  1  0  0  0  0
 26 10  1  6  0  0  0
 26 27  1  0  0  0  0
M  END
>  <CHROM.1>
-35.51916775,-170.75846017,-49.99450542,75.80707885,107.43244936,-74.37425970
17.55343363,26.35108127,11.78497360,1.13882413,-0.36480065,-1.59957798

>  <Name>
ligand

>  <RI>
0

>  <Rbt.Current_Directory>
/home/itssahil/PROJECTS/Mol_Feturizer/New_Systems/rnas/3F4H

>  <Rbt.Executable>
rbdock ($Id: //depot/dev/client3/rdock/2013.1/src/exe/rbdock.cxx#4 $)

>  <Rbt.Library>
libRbt.so (2013.1, Build901 2013/11/27)

>  <Rbt.Parameter_File>
/export/apps/rDock/src/rDock_2013.1_src/data/scripts/dock_solv.prm

>  <Rbt.Receptor>
prm/blind_docking_40.prm

>  <SCORE>
-17.6885

>  <SCORE.INTER>
-12.5882

>  <SCORE.INTER.CONST>
1

>  <SCORE.INTER.POLAR>
0

>  <SCORE.INTER.ROT>
6

>  <SCORE.INTER.SOLV>
10.3126

>  <SCORE.INTER.VDW>
-19.4296

>  <SCORE.INTER.norm>
-0.434075

>  <SCORE.INTRA>
-8.43369

>  <SCORE.INTRA.DIHEDRAL>
-1.38714

>  <SCORE.INTRA.DIHEDRAL.0>
6.83446

>  <SCORE.INTRA.POLAR>
0

>  <SCORE.INTRA.POLAR.0>
0

>  <SCORE.INTRA.REPUL>
0

>  <SCORE.INTRA.REPUL.0>
0

>  <SCORE.INTRA.SOLV>
1.76909

>  <SCORE.INTRA.SOLV.lig_0>
-26.4601

>  <SCORE.INTRA.VDW>
-8.62466

>  <SCORE.INTRA.VDW.0>
13.7853

>  <SCORE.INTRA.norm>
-0.290817

>  <SCORE.RESTR>
3.33337

>  <SCORE.RESTR.CAVITY>
3.33337

>  <SCORE.RESTR.norm>
0.114944

>  <SCORE.SYSTEM>
0

>  <SCORE.SYSTEM.CONST>
0

>  <SCORE.SYSTEM.DIHEDRAL>
0

>  <SCORE.SYSTEM.SOLV>
0

>  <SCORE.SYSTEM.norm>
0

>  <SCORE.heavy>
29

>  <SCORE.norm>
-0.609948

>  <RMSD>
17.464

$$$$
ligand
 OpenBabel11021811473D
libRbt.so/2013.1/901 2013/11/27
 29 31  0  0  0  0  0  0  0  0999 V2000
   17.2375   27.8058    9.2543 C   0  0  0  0  0  0  0  0  0  0  0  0
   17.2837   28.0190   10.6690 O   0  0  0  0  0  0  0  0  0  0  0  0
   15.8657   27.2678    8.8713 C   0  0  1  0  0  0  0  0  0  0  0  0
   15.7635   27.2571    7.4508 O   0  0  0  0  0  0  0  0  0  0  0  0
   15.6675   25.8631    9.4263 C   0  0  1  0  0  0  0  0  0  0  0  0
   16.8661   25.1387    9.1749 O   0  0  0  0  0  0  0  0  0  0  0  0
   15.3186   25.7991   10.9162 C   0  0  1  0  0  0  0  0  0  0  0  0
   13.9408   25.4456   11.0432 O   0  0  0  0  0  0  0  0  0  0  0  0
   16.1452   24.7748   11.6911 C   0  0  0  0  0  0  0  0  0  0  0  0
   15.3195   24.9041   14.3879 N   0  0  0  0  0  0  0  0  0  0  0  0
   14.8928   24.9436   15.6819 C   0  0  0  0  0  0  0  0  0  0  0  0
   13.7946   24.4261   16.0055 O   0  0  0  0  0  0  0  0  0  0  0  0
   15.6473   25.5474   16.6349 N   0  0  0  0  0  0  0  0  0  0  0  0
   16.8362   26.1211   16.3218 C   0  0  0  0  0  0  0  0  0  0  0  0
   17.2848   26.0874   15.0063 C   0  0  1  0  0  0  0  0  0  0  0  0
   17.5300   26.6805   17.2068 O   0  0  0  0  0  0  0  0  0  0  0  0
   18.9048   26.6163   13.4091 C   0  0  1  0  0  0  0  0  0  0  0  0
   18.4695   26.6511   14.6852 N   0  0  0  0  0  0  0  0  0  0  0  0
   20.1253   27.1996   13.0873 C   0  0  0  0  0  0  0  0  0  0  0  0
   20.6023   27.1777   11.7813 C   0  0  2  0  0  0  0  0  0  0  0  0
   21.9321   27.8299   11.5027 C   0  0  0  0  0  0  0  0  0  0  0  0
   19.8464   26.5610   10.7763 C   0  0  2  0  0  0  0  0  0  0  0  0
   20.2505   26.5007    9.4716 N   0  0  0  0  0  0  0  0  0  0  0  0
   18.6188   25.9791   11.1152 C   0  0  0  0  0  0  0  0  0  0  0  0
   18.1360   25.9997   12.4233 C   0  0  2  0  0  0  0  0  0  0  0  0
   16.5092   25.4643   14.0237 C   0  0  2  0  0  0  0  0  0  0  0  0
   16.9468   25.4372   12.7385 N   0  0  0  0  0  0  0  0  0  0  0  0
   20.4418   27.7271    8.7207 C   0  0  0  0  0  0  0  0  0  0  0  0
   20.5068   25.2438    8.7880 C   0  0  0  0  0  0  0  0  0  0  0  0
  1  2  1  0  0  0  0
  3  1  1  6  0  0  0
  3  4  1  0  0  0  0
  3  5  1  0  0  0  0
  5  6  1  1  0  0  0
  5  7  1  0  0  0  0
  7  8  1  6  0  0  0
  7  9  1  0  0  0  0
  9 27  1  0  0  0  0
 10 11  1  0  0  0  0
 11 12  2  0  0  0  0
 11 13  1  0  0  0  0
 13 14  1  0  0  0  0
 14 16  2  0  0  0  0
 15 14  1  1  0  0  0
 15 18  1  0  0  0  0
 15 26  1  0  0  0  0
 17 19  1  1  0  0  0
 17 25  1  0  0  0  0
 17 18  1  0  0  0  0
 19 20  1  0  0  0  0
 20 21  1  6  0  0  0
 20 22  1  0  0  0  0
 22 23  1  6  0  0  0
 22 24  1  0  0  0  0
 23 28  1  0  0  0  0
 23 29  1  0  0  0  0
 25 24  1  6  0  0  0
 25 27  1  0  0  0  0
 26 10  1  6  0  0  0
 26 27  1  0  0  0  0
M  END
>  <CHROM.1>
171.11564021,-44.45335528,107.07027325,118.33130997,-62.00943009,-83.10105545
17.42903525,26.22646847,12.07809790,1.13626119,-0.26276098,-1.48240746

>  <Name>
ligand

>  <RI>
0

>  <Rbt.Current_Directory>
/home/itssahil/PROJECTS/Mol_Feturizer/New_Systems/rnas/3F4H

>  <Rbt.Executable>
rbdock ($Id: //depot/dev/client3/rdock/2013.1/src/exe/rbdock.cxx#4 $)

>  <Rbt.Library>
libRbt.so (2013.1, Build901 2013/11/27)

>  <Rbt.Parameter_File>
/export/apps/rDock/src/rDock_2013.1_src/data/scripts/dock_solv.prm

>  <Rbt.Receptor>
prm/blind_docking_40.prm

>  <SCORE>
-18.5301

>  <SCORE.INTER>
-11.7788

>  <SCORE.INTER.CONST>
1

>  <SCORE.INTER.POLAR>
0

>  <SCORE.INTER.ROT>
6

>  <SCORE.INTER.SOLV>
11.8308

>  <SCORE.INTER.VDW>
-19.3962

>  <SCORE.INTER.norm>
-0.406167

>  <SCORE.INTRA>
-8.32209

>  <SCORE.INTRA.DIHEDRAL>
6.41507

>  <SCORE.INTRA.DIHEDRAL.0>
6.83446

>  <SCORE.INTRA.POLAR>
0

>  <SCORE.INTRA.POLAR.0>
0

>  <SCORE.INTRA.REPUL>
0

>  <SCORE.INTRA.REPUL.0>
0

>  <SCORE.INTRA.SOLV>
1.47939

>  <SCORE.INTRA.SOLV.lig_0>
-26.4601

>  <SCORE.INTRA.VDW>
-12.2693

>  <SCORE.INTRA.VDW.0>
13.7853

>  <SCORE.INTRA.norm>
-0.286969

>  <SCORE.RESTR>
1.57078

>  <SCORE.RESTR.CAVITY>
1.57078

>  <SCORE.RESTR.norm>
0.054165

>  <SCORE.SYSTEM>
0

>  <SCORE.SYSTEM.CONST>
0

>  <SCORE.SYSTEM.DIHEDRAL>
0

>  <SCORE.SYSTEM.SOLV>
0

>  <SCORE.SYSTEM.norm>
0

>  <SCORE.heavy>
29

>  <SCORE.norm>
-0.63897

>  <RMSD>
17.467

$$$$
ligand
 OpenBabel11021811473D
libRbt.so/2013.1/901 2013/11/27
 29 31  0  0  0  0  0  0  0  0999 V2000
   14.4102   26.1417   15.8328 C   0  0  0  0  0  0  0  0  0  0  0  0
   13.8675   26.7306   17.0193 O   0  0  0  0  0  0  0  0  0  0  0  0
   15.8657   25.7677   16.0772 C   0  0  1  0  0  0  0  0  0  0  0  0
   15.9116   24.7562   17.0788 O   0  0  0  0  0  0  0  0  0  0  0  0
   16.5134   25.2691   14.7918 C   0  0  1  0  0  0  0  0  0  0  0  0
   15.4783   24.7183   13.9857 O   0  0  0  0  0  0  0  0  0  0  0  0
   17.2850   26.3303   14.0018 C   0  0  1  0  0  0  0  0  0  0  0  0
   18.0234   27.1325   14.9242 O   0  0  0  0  0  0  0  0  0  0  0  0
   18.2676   25.7417   12.9915 C   0  0  0  0  0  0  0  0  0  0  0  0
   15.7788   25.4167   11.6986 N   0  0  0  0  0  0  0  0  0  0  0  0
   14.5632   25.2460   11.1059 C   0  0  0  0  0  0  0  0  0  0  0  0
   13.6481   24.6228   11.6998 O   0  0  0  0  0  0  0  0  0  0  0  0
   14.3294   25.7429    9.8648 N   0  0  0  0  0  0  0  0  0  0  0  0
   15.2952   26.4170    9.1913 C   0  0  0  0  0  0  0  0  0  0  0  0
   16.5394   26.5998    9.7838 C   0  0  1  0  0  0  0  0  0  0  0  0
   15.0748   26.8731    8.0420 O   0  0  0  0  0  0  0  0  0  0  0  0
   18.7123   27.4525    9.7001 C   0  0  1  0  0  0  0  0  0  0  0  0
   17.5060   27.2739    9.1237 N   0  0  0  0  0  0  0  0  0  0  0  0
   19.7017   28.1472    9.0131 C   0  0  0  0  0  0  0  0  0  0  0  0
   20.9544   28.3499    9.5818 C   0  0  2  0  0  0  0  0  0  0  0  0
   21.9802   29.1103    8.7812 C   0  0  0  0  0  0  0  0  0  0  0  0
   21.2251   27.8497   10.8618 C   0  0  2  0  0  0  0  0  0  0  0  0
   22.4319   28.0098   11.4839 N   0  0  0  0  0  0  0  0  0  0  0  0
   20.2193   27.1511   11.5407 C   0  0  0  0  0  0  0  0  0  0  0  0
   18.9621   26.9444   10.9738 C   0  0  2  0  0  0  0  0  0  0  0  0
   16.7813   26.0897   11.0631 C   0  0  2  0  0  0  0  0  0  0  0  0
   17.9991   26.2649   11.6378 N   0  0  0  0  0  0  0  0  0  0  0  0
   22.8631   29.3351   11.8865 C   0  0  0  0  0  0  0  0  0  0  0  0
   23.3196   26.8951   11.7707 C   0  0  0  0  0  0  0  0  0  0  0  0
  1  2  1  0  0  0  0
  3  1  1  6  0  0  0
  3  4  1  0  0  0  0
  3  5  1  0  0  0  0
  5  6  1  6  0  0  0
  5  7  1  0  0  0  0
  7  8  1  1  0  0  0
  7  9  1  0  0  0  0
  9 27  1  0  0  0  0
 10 11  1  0  0  0  0
 11 12  2  0  0  0  0
 11 13  1  0  0  0  0
 13 14  1  0  0  0  0
 14 16  2  0  0  0  0
 15 14  1  1  0  0  0
 15 18  1  0  0  0  0
 15 26  1  0  0  0  0
 17 19  1  1  0  0  0
 17 25  1  0  0  0  0
 17 18  1  0  0  0  0
 19 20  1  0  0  0  0
 20 21  1  6  0  0  0
 20 22  1  0  0  0  0
 22 23  1  6  0  0  0
 22 24  1  0  0  0  0
 23 28  1  0  0  0  0
 23 29  1  0  0  0  0
 25 24  1  6  0  0  0
 25 27  1  0  0  0  0
 26 10  1  6  0  0  0
 26 27  1  0  0  0  0
M  END
>  <CHROM.1>
64.61015792,-27.25415679,41.60484670,124.52931074,66.95348662,120.62145677
17.65371222,26.60960939,12.02130008,-2.54252461,-0.31053381,-1.45547344

>  <Name>
ligand

>  <RI>
0

>  <Rbt.Current_Directory>
/home/itssahil/PROJECTS/Mol_Feturizer/New_Systems/rnas/3F4H

>  <Rbt.Executable>
rbdock ($Id: //depot/dev/client3/rdock/2013.1/src/exe/rbdock.cxx#4 $)

>  <Rbt.Library>
libRbt.so (2013.1, Build901 2013/11/27)

>  <Rbt.Parameter_File>
/export/apps/rDock/src/rDock_2013.1_src/data/scripts/dock_solv.prm

>  <Rbt.Receptor>
prm/blind_docking_40.prm

>  <SCORE>
-7.17448

>  <SCORE.INTER>
-0.295423

>  <SCORE.INTER.CONST>
1

>  <SCORE.INTER.POLAR>
0

>  <SCORE.INTER.ROT>
6

>  <SCORE.INTER.SOLV>
11.8946

>  <SCORE.INTER.VDW>
-11.7618

>  <SCORE.INTER.norm>
-0.010187

>  <SCORE.INTRA>
-9.86824

>  <SCORE.INTRA.DIHEDRAL>
4.71491

>  <SCORE.INTRA.DIHEDRAL.0>
6.83446

>  <SCORE.INTRA.POLAR>
0

>  <SCORE.INTRA.POLAR.0>
0

>  <SCORE.INTRA.REPUL>
0

>  <SCORE.INTRA.REPUL.0>
0

>  <SCORE.INTRA.SOLV>
-0.00515193

>  <SCORE.INTRA.SOLV.lig_0>
-26.4601

>  <SCORE.INTRA.VDW>
-12.2231

>  <SCORE.INTRA.VDW.0>
13.7853

>  <SCORE.INTRA.norm>
-0.340284

>  <SCORE.RESTR>
2.98919

>  <SCORE.RESTR.CAVITY>
2.98919

>  <SCORE.RESTR.norm>
0.103075

>  <SCORE.SYSTEM>
0

>  <SCORE.SYSTEM.CONST>
0

>  <SCORE.SYSTEM.DIHEDRAL>
0

>  <SCORE.SYSTEM.SOLV>
0

>  <SCORE.SYSTEM.norm>
0

>  <SCORE.heavy>
29

>  <SCORE.norm>
-0.247396

>  <RMSD>
17.527

$$$$
ligand
 OpenBabel11021811473D
libRbt.so/2013.1/901 2013/11/27
 29 31  0  0  0  0  0  0  0  0999 V2000
   14.6798   24.5009    9.9786 C   0  0  0  0  0  0  0  0  0  0  0  0
   13.5937   24.4081   10.9063 O   0  0  0  0  0  0  0  0  0  0  0  0
   14.8763   25.9566    9.5781 C   0  0  1  0  0  0  0  0  0  0  0  0
   15.2263   26.7029   10.7395 O   0  0  0  0  0  0  0  0  0  0  0  0
   15.9675   26.0788    8.5222 C   0  0  1  0  0  0  0  0  0  0  0  0
   15.6973   27.2578    7.7729 O   0  0  0  0  0  0  0  0  0  0  0  0
   17.3969   26.1217    9.0705 C   0  0  1  0  0  0  0  0  0  0  0  0
   17.6219   27.4093    9.6458 O   0  0  0  0  0  0  0  0  0  0  0  0
   17.6693   25.0682   10.1422 C   0  0  0  0  0  0  0  0  0  0  0  0
   20.1896   26.3239    9.9350 N   0  0  0  0  0  0  0  0  0  0  0  0
   21.4043   26.9271    9.7980 C   0  0  0  0  0  0  0  0  0  0  0  0
   21.9708   26.9688    8.6774 O   0  0  0  0  0  0  0  0  0  0  0  0
   22.0182   27.4849   10.8722 N   0  0  0  0  0  0  0  0  0  0  0  0
   21.4388   27.4548   12.0987 C   0  0  0  0  0  0  0  0  0  0  0  0
   20.1995   26.8442   12.2532 C   0  0  1  0  0  0  0  0  0  0  0  0
   22.0118   27.9706   13.0903 O   0  0  0  0  0  0  0  0  0  0  0  0
   18.4086   26.2225   13.6177 C   0  0  1  0  0  0  0  0  0  0  0  0
   19.6119   26.8134   13.4691 N   0  0  0  0  0  0  0  0  0  0  0  0
   17.8113   26.1949   14.8731 C   0  0  0  0  0  0  0  0  0  0  0  0
   16.5703   25.5954   15.0577 C   0  0  2  0  0  0  0  0  0  0  0  0
   15.9815   25.6004   16.4450 C   0  0  0  0  0  0  0  0  0  0  0  0
   15.9119   25.0122   13.9676 C   0  0  2  0  0  0  0  0  0  0  0  0
   14.6913   24.4054   14.0729 N   0  0  0  0  0  0  0  0  0  0  0  0
   16.5263   25.0466   12.7100 C   0  0  0  0  0  0  0  0  0  0  0  0
   17.7713   25.6455   12.5204 C   0  0  2  0  0  0  0  0  0  0  0  0
   19.5651   26.2703   11.1470 C   0  0  2  0  0  0  0  0  0  0  0  0
   18.3570   25.6698   11.3013 N   0  0  0  0  0  0  0  0  0  0  0  0
   13.5407   25.1749   14.5069 C   0  0  0  0  0  0  0  0  0  0  0  0
   14.4852   23.0006   13.7615 C   0  0  0  0  0  0  0  0  0  0  0  0
  1  2  1  0  0  0  0
  3  1  1  1  0  0  0
  3  4  1  0  0  0  0
  3  5  1  0  0  0  0
  5  6  1  1  0  0  0
  5  7  1  0  0  0  0
  7  8  1  1  0  0  0
  7  9  1  0  0  0  0
  9 27  1  0  0  0  0
 10 11  1  0  0  0  0
 11 12  2  0  0  0  0
 11 13  1  0  0  0  0
 13 14  1  0  0  0  0
 14 16  2  0  0  0  0
 15 14  1  6  0  0  0
 15 18  1  0  0  0  0
 15 26  1  0  0  0  0
 17 19  1  6  0  0  0
 17 25  1  0  0  0  0
 17 18  1  0  0  0  0
 19 20  1  0  0  0  0
 20 21  1  1  0  0  0
 20 22  1  0  0  0  0
 22 23  1  1  0  0  0
 22 24  1  0  0  0  0
 23 28  1  0  0  0  0
 23 29  1  0  0  0  0
 25 24  1  1  0  0  0
 25 27  1  0  0  0  0
 26 10  1  1  0  0  0
 26 27  1  0  0  0  0
M  END
>  <CHROM.1>
62.49654660,153.79074081,-74.63000667,-133.13850925,61.20813802,118.86584326
17.57087576,26.01069060,11.68539800,2.74885093,0.30679179,1.69112062

>  <Name>
ligand

>  <RI>
0

>  <Rbt.Current_Directory>
/home/itssahil/PROJECTS/Mol_Feturizer/New_Systems/rnas/3F4H

>  <Rbt.Executable>
rbdock ($Id: //depot/dev/client3/rdock/2013.1/src/exe/rbdock.cxx#4 $)

>  <Rbt.Library>
libRbt.so (2013.1, Build901 2013/11/27)

>  <Rbt.Parameter_File>
/export/apps/rDock/src/rDock_2013.1_src/data/scripts/dock_solv.prm

>  <Rbt.Receptor>
prm/blind_docking_40.prm

>  <SCORE>
-15.8293

>  <SCORE.INTER>
-7.29664

>  <SCORE.INTER.CONST>
1

>  <SCORE.INTER.POLAR>
0

>  <SCORE.INTER.ROT>
6

>  <SCORE.INTER.SOLV>
9.87754

>  <SCORE.INTER.VDW>
-15.7569

>  <SCORE.INTER.norm>
-0.251608

>  <SCORE.INTRA>
-11.7794

>  <SCORE.INTRA.DIHEDRAL>
2.79736

>  <SCORE.INTRA.DIHEDRAL.0>
6.83446

>  <SCORE.INTRA.POLAR>
0

>  <SCORE.INTRA.POLAR.0>
0

>  <SCORE.INTRA.REPUL>
0

>  <SCORE.INTRA.REPUL.0>
0

>  <SCORE.INTRA.SOLV>
1.51309

>  <SCORE.INTRA.SOLV.lig_0>
-26.4601

>  <SCORE.INTRA.VDW>
-13.9347

>  <SCORE.INTRA.VDW.0>
13.7853

>  <SCORE.INTRA.norm>
-0.406187

>  <SCORE.RESTR>
3.24673

>  <SCORE.RESTR.CAVITY>
3.24673

>  <SCORE.RESTR.norm>
0.111956

>  <SCORE.SYSTEM>
0

>  <SCORE.SYSTEM.CONST>
0

>  <SCORE.SYSTEM.DIHEDRAL>
0

>  <SCORE.SYSTEM.SOLV>
0

>  <SCORE.SYSTEM.norm>
0

>  <SCORE.heavy>
29

>  <SCORE.norm>
-0.545839

>  <RMSD>
17.538

$$$$
ligand
 OpenBabel11021811473D
libRbt.so/2013.1/901 2013/11/27
 29 31  0  0  0  0  0  0  0  0999 V2000
   17.6529   25.1692    8.3895 C   0  0  0  0  0  0  0  0  0  0  0  0
   18.0132   24.3649    9.5174 O   0  0  0  0  0  0  0  0  0  0  0  0
   16.1920   25.5804    8.5109 C   0  0  1  0  0  0  0  0  0  0  0  0
   15.4205   24.4249    8.8242 O   0  0  0  0  0  0  0  0  0  0  0  0
   16.0220   26.6391    9.5929 C   0  0  1  0  0  0  0  0  0  0  0  0
   15.3132   27.7263    9.0096 O   0  0  0  0  0  0  0  0  0  0  0  0
   15.3024   26.1621   10.8579 C   0  0  1  0  0  0  0  0  0  0  0  0
   14.0418   25.6080   10.4793 O   0  0  0  0  0  0  0  0  0  0  0  0
   16.0758   25.0973   11.6330 C   0  0  0  0  0  0  0  0  0  0  0  0
   15.3176   25.0708   14.3525 N   0  0  0  0  0  0  0  0  0  0  0  0
   14.9237   25.0350   15.6570 C   0  0  0  0  0  0  0  0  0  0  0  0
   13.8419   24.4834   15.9797 O   0  0  0  0  0  0  0  0  0  0  0  0
   15.6932   25.5998   16.6217 N   0  0  0  0  0  0  0  0  0  0  0  0
   16.8651   26.2085   16.3101 C   0  0  0  0  0  0  0  0  0  0  0  0
   17.2802   26.2515   14.9840 C   0  0  1  0  0  0  0  0  0  0  0  0
   17.5728   26.7317   17.2061 O   0  0  0  0  0  0  0  0  0  0  0  0
   18.8508   26.8901   13.3774 C   0  0  1  0  0  0  0  0  0  0  0  0
   18.4478   26.8506   14.6640 N   0  0  0  0  0  0  0  0  0  0  0  0
   20.0538   27.5094   13.0570 C   0  0  0  0  0  0  0  0  0  0  0  0
   20.4974   27.5642   11.7403 C   0  0  2  0  0  0  0  0  0  0  0  0
   21.8098   28.2516   11.4638 C   0  0  0  0  0  0  0  0  0  0  0  0
   19.7253   26.9891   10.7229 C   0  0  2  0  0  0  0  0  0  0  0  0
   20.0968   27.0042    9.4073 N   0  0  0  0  0  0  0  0  0  0  0  0
   18.5156   26.3702   11.0607 C   0  0  0  0  0  0  0  0  0  0  0  0
   18.0662   26.3140   12.3797 C   0  0  2  0  0  0  0  0  0  0  0  0
   16.4891   25.6686   13.9892 C   0  0  2  0  0  0  0  0  0  0  0  0
   16.8940   25.7164   12.6939 N   0  0  0  0  0  0  0  0  0  0  0  0
   19.7757   28.1537    8.5826 C   0  0  0  0  0  0  0  0  0  0  0  0
   20.8151   25.9054    8.7832 C   0  0  0  0  0  0  0  0  0  0  0  0
  1  2  1  0  0  0  0
  3  1  1  1  0  0  0
  3  4  1  0  0  0  0
  3  5  1  0  0  0  0
  5  6  1  6  0  0  0
  5  7  1  0  0  0  0
  7  8  1  6  0  0  0
  7  9  1  0  0  0  0
  9 27  1  0  0  0  0
 10 11  1  0  0  0  0
 11 12  2  0  0  0  0
 11 13  1  0  0  0  0
 13 14  1  0  0  0  0
 14 16  2  0  0  0  0
 15 14  1  1  0  0  0
 15 18  1  0  0  0  0
 15 26  1  0  0  0  0
 17 19  1  1  0  0  0
 17 25  1  0  0  0  0
 17 18  1  0  0  0  0
 19 20  1  0  0  0  0
 20 21  1  6  0  0  0
 20 22  1  0  0  0  0
 22 23  1  6  0  0  0
 22 24  1  0  0  0  0
 23 28  1  0  0  0  0
 23 29  1  0  0  0  0
 25 24  1  6  0  0  0
 25 27  1  0  0  0  0
 26 10  1  6  0  0  0
 26 27  1  0  0  0  0
M  END
>  <CHROM.1>
-48.07116659,127.76852459,-54.98390571,94.14224442,-85.24576742,-78.39213638
17.38442155,26.16050684,11.99226608,1.14663050,-0.36897369,-1.60182321

>  <Name>
ligand

>  <RI>
0

>  <Rbt.Current_Directory>
/home/itssahil/PROJECTS/Mol_Feturizer/New_Systems/rnas/3F4H

>  <Rbt.Executable>
rbdock ($Id: //depot/dev/client3/rdock/2013.1/src/exe/rbdock.cxx#4 $)

>  <Rbt.Library>
libRbt.so (2013.1, Build901 2013/11/27)

>  <Rbt.Parameter_File>
/export/apps/rDock/src/rDock_2013.1_src/data/scripts/dock_solv.prm

>  <Rbt.Receptor>
prm/blind_docking_40.prm

>  <SCORE>
-22.4664

>  <SCORE.INTER>
-13.3147

>  <SCORE.INTER.CONST>
1

>  <SCORE.INTER.POLAR>
0

>  <SCORE.INTER.ROT>
6

>  <SCORE.INTER.SOLV>
10.6858

>  <SCORE.INTER.VDW>
-20.0384

>  <SCORE.INTER.norm>
-0.459129

>  <SCORE.INTRA>
-11.5436

>  <SCORE.INTRA.DIHEDRAL>
4.14986

>  <SCORE.INTRA.DIHEDRAL.0>
6.83446

>  <SCORE.INTRA.POLAR>
0

>  <SCORE.INTRA.POLAR.0>
0

>  <SCORE.INTRA.REPUL>
0

>  <SCORE.INTRA.REPUL.0>
0

>  <SCORE.INTRA.SOLV>
1.84646

>  <SCORE.INTRA.SOLV.lig_0>
-26.4601

>  <SCORE.INTRA.VDW>
-14.5417

>  <SCORE.INTRA.VDW.0>
13.7853

>  <SCORE.INTRA.norm>
-0.398055

>  <SCORE.RESTR>
2.39191

>  <SCORE.RESTR.CAVITY>
2.39191

>  <SCORE.RESTR.norm>
0.0824796

>  <SCORE.SYSTEM>
0

>  <SCORE.SYSTEM.CONST>
0

>  <SCORE.SYSTEM.DIHEDRAL>
0

>  <SCORE.SYSTEM.SOLV>
0

>  <SCORE.SYSTEM.norm>
0

>  <SCORE.heavy>
29

>  <SCORE.norm>
-0.774704

>  <RMSD>
17.613

$$$$
ligand
 OpenBabel11021811473D
libRbt.so/2013.1/901 2013/11/27
 29 31  0  0  0  0  0  0  0  0999 V2000
   15.9611   27.5353    8.6299 C   0  0  0  0  0  0  0  0  0  0  0  0
   16.8805   27.8576    9.6786 O   0  0  0  0  0  0  0  0  0  0  0  0
   15.7984   26.0235    8.5506 C   0  0  1  0  0  0  0  0  0  0  0  0
   17.0658   25.4183    8.7869 O   0  0  0  0  0  0  0  0  0  0  0  0
   14.7818   25.5400    9.5769 C   0  0  1  0  0  0  0  0  0  0  0  0
   14.6510   24.1331    9.4084 O   0  0  0  0  0  0  0  0  0  0  0  0
   15.1279   25.8639   11.0332 C   0  0  1  0  0  0  0  0  0  0  0  0
   13.9321   25.7859   11.8101 O   0  0  0  0  0  0  0  0  0  0  0  0
   16.1530   24.9092   11.6418 C   0  0  0  0  0  0  0  0  0  0  0  0
   15.3922   25.0037   14.3590 N   0  0  0  0  0  0  0  0  0  0  0  0
   14.9975   25.0254   15.6635 C   0  0  0  0  0  0  0  0  0  0  0  0
   13.9261   24.4700   16.0131 O   0  0  0  0  0  0  0  0  0  0  0  0
   15.7550   25.6522   16.5991 N   0  0  0  0  0  0  0  0  0  0  0  0
   16.9154   26.2668   16.2579 C   0  0  0  0  0  0  0  0  0  0  0  0
   17.3313   26.2516   14.9314 C   0  0  1  0  0  0  0  0  0  0  0  0
   17.6120   26.8474   17.1269 O   0  0  0  0  0  0  0  0  0  0  0  0
   18.8913   26.8393   13.2954 C   0  0  1  0  0  0  0  0  0  0  0  0
   18.4876   26.8561   14.5823 N   0  0  0  0  0  0  0  0  0  0  0  0
   20.0827   27.4646   12.9448 C   0  0  0  0  0  0  0  0  0  0  0  0
   20.5268   27.4622   11.6270 C   0  0  2  0  0  0  0  0  0  0  0  0
   21.8261   28.1599   11.3170 C   0  0  0  0  0  0  0  0  0  0  0  0
   19.7669   26.8225   10.6394 C   0  0  2  0  0  0  0  0  0  0  0  0
   20.1396   26.7792    9.3247 N   0  0  0  0  0  0  0  0  0  0  0  0
   18.5688   26.1983   11.0074 C   0  0  0  0  0  0  0  0  0  0  0  0
   18.1190   26.1993   12.3274 C   0  0  2  0  0  0  0  0  0  0  0  0
   16.5525   25.6049   13.9666 C   0  0  2  0  0  0  0  0  0  0  0  0
   16.9580   25.5958   12.6707 N   0  0  0  0  0  0  0  0  0  0  0  0
   19.9970   27.9624    8.4976 C   0  0  0  0  0  0  0  0  0  0  0  0
   20.6859   25.5837    8.7042 C   0  0  0  0  0  0  0  0  0  0  0  0
  1  2  1  0  0  0  0
  3  1  1  1  0  0  0
  3  4  1  0  0  0  0
  3  5  1  0  0  0  0
  5  6  1  1  0  0  0
  5  7  1  0  0  0  0
  7  8  1  1  0  0  0
  7  9  1  0  0  0  0
  9 27  1  0  0  0  0
 10 11  1  0  0  0  0
 11 12  2  0  0  0  0
 11 13  1  0  0  0  0
 13 14  1  0  0  0  0
 14 16  2  0  0  0  0
 15 14  1  1  0  0  0
 15 18  1  0  0  0  0
 15 26  1  0  0  0  0
 17 19  1  1  0  0  0
 17 25  1  0  0  0  0
 17 18  1  0  0  0  0
 19 20  1  0  0  0  0
 20 21  1  6  0  0  0
 20 22  1  0  0  0  0
 22 23  1  6  0  0  0
 22 24  1  0  0  0  0
 23 28  1  0  0  0  0
 23 29  1  0  0  0  0
 25 24  1  6  0  0  0
 25 27  1  0  0  0  0
 26 10  1  6  0  0  0
 26 27  1  0  0  0  0
M  END
>  <CHROM.1>
-38.26792433,177.95414284,160.19377618,150.10130056,-75.12102656,-91.41113058
17.29166794,26.19776234,12.04264386,1.09104854,-0.35532483,-1.55954479

>  <Name>
ligand

>  <RI>
0

>  <Rbt.Current_Directory>
/home/itssahil/PROJECTS/Mol_Feturizer/New_Systems/rnas/3F4H

>  <Rbt.Executable>
rbdock ($Id: //depot/dev/client3/rdock/2013.1/src/exe/rbdock.cxx#4 $)

>  <Rbt.Library>
libRbt.so (2013.1, Build901 2013/11/27)

>  <Rbt.Parameter_File>
/export/apps/rDock/src/rDock_2013.1_src/data/scripts/dock_solv.prm

>  <Rbt.Receptor>
prm/blind_docking_40.prm

>  <SCORE>
-28.7028

>  <SCORE.INTER>
-15.1474

>  <SCORE.INTER.CONST>
1

>  <SCORE.INTER.POLAR>
0

>  <SCORE.INTER.ROT>
6

>  <SCORE.INTER.SOLV>
10.6147

>  <SCORE.INTER.VDW>
-21.2365

>  <SCORE.INTER.norm>
-0.522324

>  <SCORE.INTRA>
-15.2787

>  <SCORE.INTRA.DIHEDRAL>
0.732526

>  <SCORE.INTRA.DIHEDRAL.0>
6.83446

>  <SCORE.INTRA.POLAR>
0

>  <SCORE.INTRA.POLAR.0>
0

>  <SCORE.INTRA.REPUL>
0

>  <SCORE.INTRA.REPUL.0>
0

>  <SCORE.INTRA.SOLV>
1.71615

>  <SCORE.INTRA.SOLV.lig_0>
-26.4601

>  <SCORE.INTRA.VDW>
-16.5031

>  <SCORE.INTRA.VDW.0>
13.7853

>  <SCORE.INTRA.norm>
-0.526853

>  <SCORE.RESTR>
1.7233

>  <SCORE.RESTR.CAVITY>
1.7233

>  <SCORE.RESTR.norm>
0.0594241

>  <SCORE.SYSTEM>
0

>  <SCORE.SYSTEM.CONST>
0

>  <SCORE.SYSTEM.DIHEDRAL>
0

>  <SCORE.SYSTEM.SOLV>
0

>  <SCORE.SYSTEM.norm>
0

>  <SCORE.heavy>
29

>  <SCORE.norm>
-0.989753

>  <RMSD>
17.619

$$$$
ligand
 OpenBabel11021811473D
libRbt.so/2013.1/901 2013/11/27
 29 31  0  0  0  0  0  0  0  0999 V2000
   15.4091   26.8446    8.8907 C   0  0  0  0  0  0  0  0  0  0  0  0
   15.6995   27.6532    7.7458 O   0  0  0  0  0  0  0  0  0  0  0  0
   15.9196   25.4304    8.6504 C   0  0  1  0  0  0  0  0  0  0  0  0
   17.3316   25.4208    8.8358 O   0  0  0  0  0  0  0  0  0  0  0  0
   15.2536   24.4509    9.6082 C   0  0  1  0  0  0  0  0  0  0  0  0
   15.4904   23.1420    9.1028 O   0  0  0  0  0  0  0  0  0  0  0  0
   15.7256   24.5451   11.0622 C   0  0  1  0  0  0  0  0  0  0  0  0
   17.1288   24.2821   11.0999 O   0  0  0  0  0  0  0  0  0  0  0  0
   15.4816   25.9142   11.6936 C   0  0  0  0  0  0  0  0  0  0  0  0
   14.9057   25.4633   14.4205 N   0  0  0  0  0  0  0  0  0  0  0  0
   14.5958   25.2294   15.7272 C   0  0  0  0  0  0  0  0  0  0  0  0
   13.4586   24.7991   16.0438 O   0  0  0  0  0  0  0  0  0  0  0  0
   15.5107   25.4639   16.7018 N   0  0  0  0  0  0  0  0  0  0  0  0
   16.7470   25.9332   16.3980 C   0  0  0  0  0  0  0  0  0  0  0  0
   17.0776   26.1751   15.0695 C   0  0  1  0  0  0  0  0  0  0  0  0
   17.5896   26.1507   17.3035 O   0  0  0  0  0  0  0  0  0  0  0  0
   18.6280   26.8700   13.4667 C   0  0  1  0  0  0  0  0  0  0  0  0
   18.3075   26.6374   14.7561 N   0  0  0  0  0  0  0  0  0  0  0  0
   19.8962   27.3465   13.1532 C   0  0  0  0  0  0  0  0  0  0  0  0
   20.2574   27.5935   11.8334 C   0  0  2  0  0  0  0  0  0  0  0  0
   21.6475   28.1102   11.5651 C   0  0  0  0  0  0  0  0  0  0  0  0
   19.3348   27.3600   10.8056 C   0  0  2  0  0  0  0  0  0  0  0  0
   19.6184   27.5797    9.4864 N   0  0  0  0  0  0  0  0  0  0  0  0
   18.0613   26.8815   11.1369 C   0  0  0  0  0  0  0  0  0  0  0  0
   17.6943   26.6336   12.4592 C   0  0  2  0  0  0  0  0  0  0  0  0
   16.1364   25.9325   14.0641 C   0  0  2  0  0  0  0  0  0  0  0  0
   16.4598   26.1745   12.7677 N   0  0  0  0  0  0  0  0  0  0  0  0
   19.4468   28.9064    8.9252 C   0  0  0  0  0  0  0  0  0  0  0  0
   20.0965   26.5296    8.6023 C   0  0  0  0  0  0  0  0  0  0  0  0
  1  2  1  0  0  0  0
  3  1  1  1  0  0  0
  3  4  1  0  0  0  0
  3  5  1  0  0  0  0
  5  6  1  6  0  0  0
  5  7  1  0  0  0  0
  7  8  1  6  0  0  0
  7  9  1  0  0  0  0
  9 27  1  0  0  0  0
 10 11  1  0  0  0  0
 11 12  2  0  0  0  0
 11 13  1  0  0  0  0
 13 14  1  0  0  0  0
 14 16  2  0  0  0  0
 15 14  1  6  0  0  0
 15 18  1  0  0  0  0
 15 26  1  0  0  0  0
 17 19  1  6  0  0  0
 17 25  1  0  0  0  0
 17 18  1  0  0  0  0
 19 20  1  0  0  0  0
 20 21  1  1  0  0  0
 20 22  1  0  0  0  0
 22 23  1  1  0  0  0
 22 24  1  0  0  0  0
 23 28  1  0  0  0  0
 23 29  1  0  0  0  0
 25 24  1  1  0  0  0
 25 27  1  0  0  0  0
 26 10  1  1  0  0  0
 26 27  1  0  0  0  0
M  END
>  <CHROM.1>
77.19321480,164.62011067,-60.11545736,-153.10565438,-85.22509282,82.06824404
17.17533927,26.16235302,12.03719049,1.20830227,-0.49897342,-1.58437342

>  <Name>
ligand

>  <RI>
0

>  <Rbt.Current_Directory>
/home/itssahil/PROJECTS/Mol_Feturizer/New_Systems/rnas/3F4H

>  <Rbt.Executable>
rbdock ($Id: //depot/dev/client3/rdock/2013.1/src/exe/rbdock.cxx#4 $)

>  <Rbt.Library>
libRbt.so (2013.1, Build901 2013/11/27)

>  <Rbt.Parameter_File>
/export/apps/rDock/src/rDock_2013.1_src/data/scripts/dock_solv.prm

>  <Rbt.Receptor>
prm/blind_docking_40.prm

>  <SCORE>
-18.4531

>  <SCORE.INTER>
-5.79668

>  <SCORE.INTER.CONST>
1

>  <SCORE.INTER.POLAR>
0

>  <SCORE.INTER.ROT>
6

>  <SCORE.INTER.SOLV>
11.1784

>  <SCORE.INTER.VDW>
-15.1906

>  <SCORE.INTER.norm>
-0.199885

>  <SCORE.INTRA>
-14.7887

>  <SCORE.INTRA.DIHEDRAL>
-0.823047

>  <SCORE.INTRA.DIHEDRAL.0>
6.83446

>  <SCORE.INTRA.POLAR>
0

>  <SCORE.INTRA.POLAR.0>
0

>  <SCORE.INTRA.REPUL>
0

>  <SCORE.INTRA.REPUL.0>
0

>  <SCORE.INTRA.SOLV>
1.28421

>  <SCORE.INTRA.SOLV.lig_0>
-26.4601

>  <SCORE.INTRA.VDW>
-15.0193

>  <SCORE.INTRA.VDW.0>
13.7853

>  <SCORE.INTRA.norm>
-0.509955

>  <SCORE.RESTR>
2.13224

>  <SCORE.RESTR.CAVITY>
2.13224

>  <SCORE.RESTR.norm>
0.0735254

>  <SCORE.SYSTEM>
0

>  <SCORE.SYSTEM.CONST>
0

>  <SCORE.SYSTEM.DIHEDRAL>
0

>  <SCORE.SYSTEM.SOLV>
0

>  <SCORE.SYSTEM.norm>
0

>  <SCORE.heavy>
29

>  <SCORE.norm>
-0.636315

>  <RMSD>
17.698

$$$$
ligand
 OpenBabel11021811473D
libRbt.so/2013.1/901 2013/11/27
 29 31  0  0  0  0  0  0  0  0999 V2000
   15.4061   26.8240    8.8994 C   0  0  0  0  0  0  0  0  0  0  0  0
   15.7164   27.6546    7.7757 O   0  0  0  0  0  0  0  0  0  0  0  0
   15.9129   25.4125    8.6367 C   0  0  1  0  0  0  0  0  0  0  0  0
   17.3284   25.4026    8.7939 O   0  0  0  0  0  0  0  0  0  0  0  0
   15.2670   24.4240    9.5991 C   0  0  1  0  0  0  0  0  0  0  0  0
   15.5268   23.1180    9.0975 O   0  0  0  0  0  0  0  0  0  0  0  0
   15.7401   24.5317   11.0518 C   0  0  1  0  0  0  0  0  0  0  0  0
   17.1438   24.2717   11.0906 O   0  0  0  0  0  0  0  0  0  0  0  0
   15.4941   25.9058   11.6715 C   0  0  0  0  0  0  0  0  0  0  0  0
   14.9201   25.4783   14.4026 N   0  0  0  0  0  0  0  0  0  0  0  0
   14.6111   25.2557   15.7114 C   0  0  0  0  0  0  0  0  0  0  0  0
   13.4747   24.8266   16.0325 O   0  0  0  0  0  0  0  0  0  0  0  0
   15.5262   25.5001   16.6835 N   0  0  0  0  0  0  0  0  0  0  0  0
   16.7616   25.9684   16.3749 C   0  0  0  0  0  0  0  0  0  0  0  0
   17.0913   26.1989   15.0442 C   0  0  1  0  0  0  0  0  0  0  0  0
   17.6044   26.1951   17.2781 O   0  0  0  0  0  0  0  0  0  0  0  0
   18.6400   26.8818   13.4346 C   0  0  1  0  0  0  0  0  0  0  0  0
   18.3204   26.6602   14.7261 N   0  0  0  0  0  0  0  0  0  0  0  0
   19.9073   27.3572   13.1162 C   0  0  0  0  0  0  0  0  0  0  0  0
   20.2676   27.5929   11.7940 C   0  0  2  0  0  0  0  0  0  0  0  0
   21.6568   28.1092   11.5205 C   0  0  0  0  0  0  0  0  0  0  0  0
   19.3448   27.3490   10.7689 C   0  0  2  0  0  0  0  0  0  0  0  0
   19.6275   27.5574    9.4476 N   0  0  0  0  0  0  0  0  0  0  0  0
   18.0721   26.8717   11.1049 C   0  0  0  0  0  0  0  0  0  0  0  0
   17.7061   26.6350   12.4296 C   0  0  2  0  0  0  0  0  0  0  0  0
   16.1500   25.9461   14.0415 C   0  0  2  0  0  0  0  0  0  0  0  0
   16.4724   26.1770   12.7428 N   0  0  0  0  0  0  0  0  0  0  0  0
   19.4478   28.8773    8.8732 C   0  0  0  0  0  0  0  0  0  0  0  0
   20.1124   26.5015    8.5741 C   0  0  0  0  0  0  0  0  0  0  0  0
  1  2  1  0  0  0  0
  3  1  1  1  0  0  0
  3  4  1  0  0  0  0
  3  5  1  0  0  0  0
  5  6  1  6  0  0  0
  5  7  1  0  0  0  0
  7  8  1  6  0  0  0
  7  9  1  0  0  0  0
  9 27  1  0  0  0  0
 10 11  1  0  0  0  0
 11 12  2  0  0  0  0
 11 13  1  0  0  0  0
 13 14  1  0  0  0  0
 14 16  2  0  0  0  0
 15 14  1  6  0  0  0
 15 18  1  0  0  0  0
 15 26  1  0  0  0  0
 17 19  1  6  0  0  0
 17 25  1  0  0  0  0
 17 18  1  0  0  0  0
 19 20  1  0  0  0  0
 20 21  1  1  0  0  0
 20 22  1  0  0  0  0
 22 23  1  1  0  0  0
 22 24  1  0  0  0  0
 23 28  1  0  0  0  0
 23 29  1  0  0  0  0
 25 24  1  1  0  0  0
 25 27  1  0  0  0  0
 26 10  1  1  0  0  0
 26 27  1  0  0  0  0
M  END
>  <CHROM.1>
75.10823675,166.20978303,-61.11462119,-153.12678299,-85.51328505,82.04357787
17.18720571,26.16302889,12.01496094,1.20620527,-0.49966581,-1.59235391

>  <Name>
ligand

>  <RI>
0

>  <Rbt.Current_Directory>
/home/itssahil/PROJECTS/Mol_Feturizer/New_Systems/rnas/3F4H

>  <Rbt.Executable>
rbdock ($Id: //depot/dev/client3/rdock/2013.1/src/exe/rbdock.cxx#4 $)

>  <Rbt.Library>
libRbt.so (2013.1, Build901 2013/11/27)

>  <Rbt.Parameter_File>
/export/apps/rDock/src/rDock_2013.1_src/data/scripts/dock_solv.prm

>  <Rbt.Receptor>
prm/blind_docking_40.prm

>  <SCORE>
-18.9829

>  <SCORE.INTER>
-6.4244

>  <SCORE.INTER.CONST>
1

>  <SCORE.INTER.POLAR>
0

>  <SCORE.INTER.ROT>
6

>  <SCORE.INTER.SOLV>
11.0498

>  <SCORE.INTER.VDW>
-15.5662

>  <SCORE.INTER.norm>
-0.221531

>  <SCORE.INTRA>
-14.8114

>  <SCORE.INTRA.DIHEDRAL>
-1.18929

>  <SCORE.INTRA.DIHEDRAL.0>
6.83446

>  <SCORE.INTRA.POLAR>
0

>  <SCORE.INTRA.POLAR.0>
0

>  <SCORE.INTRA.REPUL>
0

>  <SCORE.INTRA.REPUL.0>
0

>  <SCORE.INTRA.SOLV>
1.30362

>  <SCORE.INTRA.SOLV.lig_0>
-26.4601

>  <SCORE.INTRA.VDW>
-14.8685

>  <SCORE.INTRA.VDW.0>
13.7853

>  <SCORE.INTRA.norm>
-0.510737

>  <SCORE.RESTR>
2.2529

>  <SCORE.RESTR.CAVITY>
2.2529

>  <SCORE.RESTR.norm>
0.0776862

>  <SCORE.SYSTEM>
0

>  <SCORE.SYSTEM.CONST>
0

>  <SCORE.SYSTEM.DIHEDRAL>
0

>  <SCORE.SYSTEM.SOLV>
0

>  <SCORE.SYSTEM.norm>
0

>  <SCORE.heavy>
29

>  <SCORE.norm>
-0.654582

>  <RMSD>
17.704

$$$$
ligand
 OpenBabel11021811473D
libRbt.so/2013.1/901 2013/11/27
 29 31  0  0  0  0  0  0  0  0999 V2000
   16.2329   26.7207    7.8979 C   0  0  0  0  0  0  0  0  0  0  0  0
   15.3138   27.8174    7.8618 O   0  0  0  0  0  0  0  0  0  0  0  0
   16.3841   26.2381    9.3340 C   0  0  1  0  0  0  0  0  0  0  0  0
   16.5710   27.3716   10.1758 O   0  0  0  0  0  0  0  0  0  0  0  0
   15.1519   25.4546    9.7679 C   0  0  1  0  0  0  0  0  0  0  0  0
   15.1651   24.2224    9.0564 O   0  0  0  0  0  0  0  0  0  0  0  0
   15.0499   25.1900   11.2730 C   0  0  1  0  0  0  0  0  0  0  0  0
   13.8816   24.4054   11.5159 O   0  0  0  0  0  0  0  0  0  0  0  0
   16.2526   24.4400   11.8418 C   0  0  0  0  0  0  0  0  0  0  0  0
   15.5098   24.6151   14.5600 N   0  0  0  0  0  0  0  0  0  0  0  0
   15.1267   24.6723   15.8670 C   0  0  0  0  0  0  0  0  0  0  0  0
   14.1321   24.0173   16.2673 O   0  0  0  0  0  0  0  0  0  0  0  0
   15.8123   25.4421   16.7497 N   0  0  0  0  0  0  0  0  0  0  0  0
   16.8883   26.1669   16.3525 C   0  0  0  0  0  0  0  0  0  0  0  0
   17.2914   26.1173   15.0229 C   0  0  1  0  0  0  0  0  0  0  0  0
   17.5184   26.8795   17.1727 O   0  0  0  0  0  0  0  0  0  0  0  0
   18.7559   26.7809   13.3288 C   0  0  1  0  0  0  0  0  0  0  0  0
   18.3644   26.8311   14.6185 N   0  0  0  0  0  0  0  0  0  0  0  0
   19.8613   27.5194   12.9211 C   0  0  0  0  0  0  0  0  0  0  0  0
   20.2909   27.4864   11.5990 C   0  0  2  0  0  0  0  0  0  0  0  0
   21.4952   28.3120   11.2255 C   0  0  0  0  0  0  0  0  0  0  0  0
   19.6041   26.7003   10.6651 C   0  0  2  0  0  0  0  0  0  0  0  0
   19.9678   26.6185    9.3497 N   0  0  0  0  0  0  0  0  0  0  0  0
   18.4921   25.9632   11.0902 C   0  0  0  0  0  0  0  0  0  0  0  0
   18.0569   25.9943   12.4147 C   0  0  2  0  0  0  0  0  0  0  0  0
   16.5868   25.3234   14.1126 C   0  0  2  0  0  0  0  0  0  0  0  0
   16.9791   25.2806   12.8133 N   0  0  0  0  0  0  0  0  0  0  0  0
   20.5102   25.3777    8.8295 C   0  0  0  0  0  0  0  0  0  0  0  0
   19.8312   27.7343    8.4282 C   0  0  0  0  0  0  0  0  0  0  0  0
  1  2  1  0  0  0  0
  3  1  1  6  0  0  0
  3  4  1  0  0  0  0
  3  5  1  0  0  0  0
  5  6  1  6  0  0  0
  5  7  1  0  0  0  0
  7  8  1  6  0  0  0
  7  9  1  0  0  0  0
  9 27  1  0  0  0  0
 10 11  1  0  0  0  0
 11 12  2  0  0  0  0
 11 13  1  0  0  0  0
 13 14  1  0  0  0  0
 14 16  2  0  0  0  0
 15 14  1  1  0  0  0
 15 18  1  0  0  0  0
 15 26  1  0  0  0  0
 17 19  1  1  0  0  0
 17 25  1  0  0  0  0
 17 18  1  0  0  0  0
 19 20  1  0  0  0  0
 20 21  1  6  0  0  0
 20 22  1  0  0  0  0
 22 23  1  6  0  0  0
 22 24  1  0  0  0  0
 23 28  1  0  0  0  0
 23 29  1  0  0  0  0
 25 24  1  6  0  0  0
 25 27  1  0  0  0  0
 26 10  1  6  0  0  0
 26 27  1  0  0  0  0
M  END
>  <CHROM.1>
-46.51677030,70.39450160,-177.66197956,115.91536671,111.40028734,-95.84001471
17.22085033,26.05100236,12.07219654,1.20919725,-0.41011510,-1.50690410

>  <Name>
ligand

>  <RI>
0

>  <Rbt.Current_Directory>
/home/itssahil/PROJECTS/Mol_Feturizer/New_Systems/rnas/3F4H

>  <Rbt.Executable>
rbdock ($Id: //depot/dev/client3/rdock/2013.1/src/exe/rbdock.cxx#4 $)

>  <Rbt.Library>
libRbt.so (2013.1, Build901 2013/11/27)

>  <Rbt.Parameter_File>
/export/apps/rDock/src/rDock_2013.1_src/data/scripts/dock_solv.prm

>  <Rbt.Receptor>
prm/blind_docking_40.prm

>  <SCORE>
-24.677

>  <SCORE.INTER>
-12.5277

>  <SCORE.INTER.CONST>
1

>  <SCORE.INTER.POLAR>
0

>  <SCORE.INTER.ROT>
6

>  <SCORE.INTER.SOLV>
11.7158

>  <SCORE.INTER.VDW>
-19.8571

>  <SCORE.INTER.norm>
-0.431991

>  <SCORE.INTRA>
-13.7914

>  <SCORE.INTRA.DIHEDRAL>
1.4818

>  <SCORE.INTRA.DIHEDRAL.0>
6.83446

>  <SCORE.INTRA.POLAR>
0

>  <SCORE.INTRA.POLAR.0>
0

>  <SCORE.INTRA.REPUL>
0

>  <SCORE.INTRA.REPUL.0>
0

>  <SCORE.INTRA.SOLV>
0.84252

>  <SCORE.INTRA.SOLV.lig_0>
-26.4601

>  <SCORE.INTRA.VDW>
-14.9536

>  <SCORE.INTRA.VDW.0>
13.7853

>  <SCORE.INTRA.norm>
-0.475566

>  <SCORE.RESTR>
1.64215

>  <SCORE.RESTR.CAVITY>
1.64215

>  <SCORE.RESTR.norm>
0.0566259

>  <SCORE.SYSTEM>
0

>  <SCORE.SYSTEM.CONST>
0

>  <SCORE.SYSTEM.DIHEDRAL>
0

>  <SCORE.SYSTEM.SOLV>
0

>  <SCORE.SYSTEM.norm>
0

>  <SCORE.heavy>
29

>  <SCORE.norm>
-0.850931

>  <RMSD>
17.716

$$$$
ligand
 OpenBabel11021811473D
libRbt.so/2013.1/901 2013/11/27
 29 31  0  0  0  0  0  0  0  0999 V2000
   16.8542   25.6240    8.7131 C   0  0  0  0  0  0  0  0  0  0  0  0
   17.7469   26.4791    7.9914 O   0  0  0  0  0  0  0  0  0  0  0  0
   15.6990   26.4506    9.2613 C   0  0  1  0  0  0  0  0  0  0  0  0
   15.0864   27.1463    8.1801 O   0  0  0  0  0  0  0  0  0  0  0  0
   14.6826   25.5547    9.9574 C   0  0  1  0  0  0  0  0  0  0  0  0
   14.6867   24.3057    9.2757 O   0  0  0  0  0  0  0  0  0  0  0  0
   14.9289   25.3367   11.4532 C   0  0  1  0  0  0  0  0  0  0  0  0
   13.8821   24.5131   11.9685 O   0  0  0  0  0  0  0  0  0  0  0  0
   16.2621   24.6565   11.7574 C   0  0  0  0  0  0  0  0  0  0  0  0
   15.4883   24.7566   14.4708 N   0  0  0  0  0  0  0  0  0  0  0  0
   15.0890   24.7791   15.7739 C   0  0  0  0  0  0  0  0  0  0  0  0
   14.0566   24.1600   16.1334 O   0  0  0  0  0  0  0  0  0  0  0  0
   15.7995   25.4753   16.6972 N   0  0  0  0  0  0  0  0  0  0  0  0
   16.9168   26.1597   16.3449 C   0  0  0  0  0  0  0  0  0  0  0  0
   17.3368   26.1447   15.0197 C   0  0  1  0  0  0  0  0  0  0  0  0
   17.5699   26.8043   17.2025 O   0  0  0  0  0  0  0  0  0  0  0  0
   18.8585   26.8019   13.3741 C   0  0  1  0  0  0  0  0  0  0  0  0
   18.4507   26.8186   14.6597 N   0  0  0  0  0  0  0  0  0  0  0  0
   20.0060   27.4989   13.0122 C   0  0  0  0  0  0  0  0  0  0  0  0
   20.4533   27.4987   11.6956 C   0  0  2  0  0  0  0  0  0  0  0  0
   21.7034   28.2761   11.3729 C   0  0  0  0  0  0  0  0  0  0  0  0
   19.7414   26.7884   10.7205 C   0  0  2  0  0  0  0  0  0  0  0  0
   20.1203   26.7427    9.4077 N   0  0  0  0  0  0  0  0  0  0  0  0
   18.5871   26.0925   11.0997 C   0  0  0  0  0  0  0  0  0  0  0  0
   18.1343   26.0909   12.4187 C   0  0  2  0  0  0  0  0  0  0  0  0
   16.6065   25.4265   14.0676 C   0  0  2  0  0  0  0  0  0  0  0  0
   17.0157   25.4176   12.7729 N   0  0  0  0  0  0  0  0  0  0  0  0
   20.5242   25.4797    8.8194 C   0  0  0  0  0  0  0  0  0  0  0  0
   20.1346   27.9198    8.5549 C   0  0  0  0  0  0  0  0  0  0  0  0
  1  2  1  0  0  0  0
  3  1  1  6  0  0  0
  3  4  1  0  0  0  0
  3  5  1  0  0  0  0
  5  6  1  6  0  0  0
  5  7  1  0  0  0  0
  7  8  1  6  0  0  0
  7  9  1  0  0  0  0
  9 27  1  0  0  0  0
 10 11  1  0  0  0  0
 11 12  2  0  0  0  0
 11 13  1  0  0  0  0
 13 14  1  0  0  0  0
 14 16  2  0  0  0  0
 15 14  1  1  0  0  0
 15 18  1  0  0  0  0
 15 26  1  0  0  0  0
 17 19  1  1  0  0  0
 17 25  1  0  0  0  0
 17 18  1  0  0  0  0
 19 20  1  0  0  0  0
 20 21  1  6  0  0  0
 20 22  1  0  0  0  0
 22 23  1  6  0  0  0
 22 24  1  0  0  0  0
 23 28  1  0  0  0  0
 23 29  1  0  0  0  0
 25 24  1  6  0  0  0
 25 27  1  0  0  0  0
 26 10  1  6  0  0  0
 26 27  1  0  0  0  0
M  END
>  <CHROM.1>
55.14075620,-32.41178576,178.42883726,128.99961259,115.39114028,-109.58778786
17.27102326,26.02376747,12.06715054,1.13609034,-0.39066755,-1.54735172

>  <Name>
ligand

>  <RI>
0

>  <Rbt.Current_Directory>
/home/itssahil/PROJECTS/Mol_Feturizer/New_Systems/rnas/3F4H

>  <Rbt.Executable>
rbdock ($Id: //depot/dev/client3/rdock/2013.1/src/exe/rbdock.cxx#4 $)

>  <Rbt.Library>
libRbt.so (2013.1, Build901 2013/11/27)

>  <Rbt.Parameter_File>
/export/apps/rDock/src/rDock_2013.1_src/data/scripts/dock_solv.prm

>  <Rbt.Receptor>
prm/blind_docking_40.prm

>  <SCORE>
-22.7157

>  <SCORE.INTER>
-13.5286

>  <SCORE.INTER.CONST>
1

>  <SCORE.INTER.POLAR>
0

>  <SCORE.INTER.ROT>
6

>  <SCORE.INTER.SOLV>
10.2312

>  <SCORE.INTER.VDW>
-20.0295

>  <SCORE.INTER.norm>
-0.466504

>  <SCORE.INTRA>
-11.4065

>  <SCORE.INTRA.DIHEDRAL>
2.65191

>  <SCORE.INTRA.DIHEDRAL.0>
6.83446

>  <SCORE.INTRA.POLAR>
0

>  <SCORE.INTRA.POLAR.0>
0

>  <SCORE.INTRA.REPUL>
0

>  <SCORE.INTRA.REPUL.0>
0

>  <SCORE.INTRA.SOLV>
0.962643

>  <SCORE.INTRA.SOLV.lig_0>
-26.4601

>  <SCORE.INTRA.VDW>
-13.2137

>  <SCORE.INTRA.VDW.0>
13.7853

>  <SCORE.INTRA.norm>
-0.393326

>  <SCORE.RESTR>
2.21939

>  <SCORE.RESTR.CAVITY>
2.21939

>  <SCORE.RESTR.norm>
0.0765306

>  <SCORE.SYSTEM>
0

>  <SCORE.SYSTEM.CONST>
0

>  <SCORE.SYSTEM.DIHEDRAL>
0

>  <SCORE.SYSTEM.SOLV>
0

>  <SCORE.SYSTEM.norm>
0

>  <SCORE.heavy>
29

>  <SCORE.norm>
-0.7833

>  <RMSD>
17.724

$$$$
ligand
 OpenBabel11021811473D
libRbt.so/2013.1/901 2013/11/27
 29 31  0  0  0  0  0  0  0  0999 V2000
   16.1576   26.8051    8.2774 C   0  0  0  0  0  0  0  0  0  0  0  0
   16.5715   27.5356    9.4367 O   0  0  0  0  0  0  0  0  0  0  0  0
   15.8523   25.3665    8.6718 C   0  0  1  0  0  0  0  0  0  0  0  0
   17.0209   24.7988    9.2552 O   0  0  0  0  0  0  0  0  0  0  0  0
   14.6915   25.3165    9.6570 C   0  0  1  0  0  0  0  0  0  0  0  0
   14.1847   23.9870    9.6423 O   0  0  0  0  0  0  0  0  0  0  0  0
   15.0406   25.7289   11.0901 C   0  0  1  0  0  0  0  0  0  0  0  0
   13.8393   25.7409   11.8624 O   0  0  0  0  0  0  0  0  0  0  0  0
   16.0329   24.7875   11.7696 C   0  0  0  0  0  0  0  0  0  0  0  0
   15.3658   24.8007   14.5129 N   0  0  0  0  0  0  0  0  0  0  0  0
   15.0176   24.7816   15.8307 C   0  0  0  0  0  0  0  0  0  0  0  0
   13.9963   24.1556   16.2096 O   0  0  0  0  0  0  0  0  0  0  0  0
   15.7675   25.4434   16.7480 N   0  0  0  0  0  0  0  0  0  0  0  0
   16.8742   26.1341   16.3752 C   0  0  0  0  0  0  0  0  0  0  0  0
   17.2423   26.1613   15.0348 C   0  0  1  0  0  0  0  0  0  0  0  0
   17.5639   26.7468   17.2275 O   0  0  0  0  0  0  0  0  0  0  0  0
   18.7026   26.8660   13.3537 C   0  0  1  0  0  0  0  0  0  0  0  0
   18.3452   26.8418   14.6541 N   0  0  0  0  0  0  0  0  0  0  0  0
   19.8392   27.5695   12.9706 C   0  0  0  0  0  0  0  0  0  0  0  0
   20.2350   27.6111   11.6382 C   0  0  2  0  0  0  0  0  0  0  0  0
   21.4761   28.3931   11.2928 C   0  0  0  0  0  0  0  0  0  0  0  0
   19.4816   26.9369   10.6687 C   0  0  2  0  0  0  0  0  0  0  0  0
   19.8088   26.9332    9.3413 N   0  0  0  0  0  0  0  0  0  0  0  0
   18.3389   26.2339   11.0695 C   0  0  0  0  0  0  0  0  0  0  0  0
   17.9376   26.1905   12.4043 C   0  0  2  0  0  0  0  0  0  0  0  0
   16.4714   25.4786   14.0888 C   0  0  2  0  0  0  0  0  0  0  0  0
   16.8298   25.5109   12.7794 N   0  0  0  0  0  0  0  0  0  0  0  0
   19.6541   28.1451    8.5592 C   0  0  0  0  0  0  0  0  0  0  0  0
   20.3178   25.7526    8.6631 C   0  0  0  0  0  0  0  0  0  0  0  0
  1  2  1  0  0  0  0
  3  1  1  1  0  0  0
  3  4  1  0  0  0  0
  3  5  1  0  0  0  0
  5  6  1  1  0  0  0
  5  7  1  0  0  0  0
  7  8  1  1  0  0  0
  7  9  1  0  0  0  0
  9 27  1  0  0  0  0
 10 11  1  0  0  0  0
 11 12  2  0  0  0  0
 11 13  1  0  0  0  0
 13 14  1  0  0  0  0
 14 16  2  0  0  0  0
 15 14  1  1  0  0  0
 15 18  1  0  0  0  0
 15 26  1  0  0  0  0
 17 19  1  1  0  0  0
 17 25  1  0  0  0  0
 17 18  1  0  0  0  0
 19 20  1  0  0  0  0
 20 21  1  6  0  0  0
 20 22  1  0  0  0  0
 22 23  1  6  0  0  0
 22 24  1  0  0  0  0
 23 28  1  0  0  0  0
 23 29  1  0  0  0  0
 25 24  1  6  0  0  0
 25 27  1  0  0  0  0
 26 10  1  6  0  0  0
 26 27  1  0  0  0  0
M  END
>  <CHROM.1>
-58.26561264,161.40249591,175.15011852,151.56878679,-70.63630089,-84.54854820
17.14425144,26.07676471,12.11645521,1.13555586,-0.44116585,-1.56672087

>  <Name>
ligand

>  <RI>
0

>  <Rbt.Current_Directory>
/home/itssahil/PROJECTS/Mol_Feturizer/New_Systems/rnas/3F4H

>  <Rbt.Executable>
rbdock ($Id: //depot/dev/client3/rdock/2013.1/src/exe/rbdock.cxx#4 $)

>  <Rbt.Library>
libRbt.so (2013.1, Build901 2013/11/27)

>  <Rbt.Parameter_File>
/export/apps/rDock/src/rDock_2013.1_src/data/scripts/dock_solv.prm

>  <Rbt.Receptor>
prm/blind_docking_40.prm

>  <SCORE>
-27.7346

>  <SCORE.INTER>
-14.5301

>  <SCORE.INTER.CONST>
1

>  <SCORE.INTER.POLAR>
0

>  <SCORE.INTER.ROT>
6

>  <SCORE.INTER.SOLV>
10.2932

>  <SCORE.INTER.VDW>
-20.7178

>  <SCORE.INTER.norm>
-0.501038

>  <SCORE.INTRA>
-14.9717

>  <SCORE.INTRA.DIHEDRAL>
-1.07943

>  <SCORE.INTRA.DIHEDRAL.0>
6.83446

>  <SCORE.INTRA.POLAR>
0

>  <SCORE.INTRA.POLAR.0>
0

>  <SCORE.INTRA.REPUL>
0

>  <SCORE.INTRA.REPUL.0>
0

>  <SCORE.INTRA.SOLV>
1.95099

>  <SCORE.INTRA.SOLV.lig_0>
-26.4601

>  <SCORE.INTRA.VDW>
-15.4075

>  <SCORE.INTRA.VDW.0>
13.7853

>  <SCORE.INTRA.norm>
-0.516267

>  <SCORE.RESTR>
1.76722

>  <SCORE.RESTR.CAVITY>
1.76722

>  <SCORE.RESTR.norm>
0.0609386

>  <SCORE.SYSTEM>
0

>  <SCORE.SYSTEM.CONST>
0

>  <SCORE.SYSTEM.DIHEDRAL>
0

>  <SCORE.SYSTEM.SOLV>
0

>  <SCORE.SYSTEM.norm>
0

>  <SCORE.heavy>
29

>  <SCORE.norm>
-0.956366

>  <RMSD>
17.758

$$$$
ligand
 OpenBabel11021811473D
libRbt.so/2013.1/901 2013/11/27
 29 31  0  0  0  0  0  0  0  0999 V2000
   16.4560   26.9020    8.6902 C   0  0  0  0  0  0  0  0  0  0  0  0
   15.4307   27.7713    8.1982 O   0  0  0  0  0  0  0  0  0  0  0  0
   15.9238   25.4765    8.7440 C   0  0  1  0  0  0  0  0  0  0  0  0
   16.9637   24.6219    9.2096 O   0  0  0  0  0  0  0  0  0  0  0  0
   14.7154   25.3906    9.6674 C   0  0  1  0  0  0  0  0  0  0  0  0
   14.2051   24.0660    9.5699 O   0  0  0  0  0  0  0  0  0  0  0  0
   14.9942   25.7389   11.1325 C   0  0  1  0  0  0  0  0  0  0  0  0
   13.7634   25.6769   11.8541 O   0  0  0  0  0  0  0  0  0  0  0  0
   15.9871   24.7926   11.8045 C   0  0  0  0  0  0  0  0  0  0  0  0
   15.3534   24.8099   14.5557 N   0  0  0  0  0  0  0  0  0  0  0  0
   15.0212   24.7930   15.8776 C   0  0  0  0  0  0  0  0  0  0  0  0
   14.0020   24.1713   16.2692 O   0  0  0  0  0  0  0  0  0  0  0  0
   15.7848   25.4523   16.7854 N   0  0  0  0  0  0  0  0  0  0  0  0
   16.8897   26.1383   16.3987 C   0  0  0  0  0  0  0  0  0  0  0  0
   17.2415   26.1633   15.0540 C   0  0  1  0  0  0  0  0  0  0  0  0
   17.5921   26.7487   17.2422 O   0  0  0  0  0  0  0  0  0  0  0  0
   18.6842   26.8613   13.3548 C   0  0  1  0  0  0  0  0  0  0  0  0
   18.3425   26.8391   14.6595 N   0  0  0  0  0  0  0  0  0  0  0  0
   19.8189   27.5600   12.9575 C   0  0  0  0  0  0  0  0  0  0  0  0
   20.1985   27.5993   11.6204 C   0  0  2  0  0  0  0  0  0  0  0  0
   21.4385   28.3761   11.2595 C   0  0  0  0  0  0  0  0  0  0  0  0
   19.4308   26.9276   10.6605 C   0  0  2  0  0  0  0  0  0  0  0  0
   19.7418   26.9219    9.3292 N   0  0  0  0  0  0  0  0  0  0  0  0
   18.2902   26.2294   11.0755 C   0  0  0  0  0  0  0  0  0  0  0  0
   17.9050   26.1884   12.4152 C   0  0  2  0  0  0  0  0  0  0  0  0
   16.4565   25.4832   14.1177 C   0  0  2  0  0  0  0  0  0  0  0  0
   16.7991   25.5134   12.8041 N   0  0  0  0  0  0  0  0  0  0  0  0
   20.1670   25.6882    8.6954 C   0  0  0  0  0  0  0  0  0  0  0  0
   19.6620   28.1136    8.5008 C   0  0  0  0  0  0  0  0  0  0  0  0
  1  2  1  0  0  0  0
  3  1  1  1  0  0  0
  3  4  1  0  0  0  0
  3  5  1  0  0  0  0
  5  6  1  1  0  0  0
  5  7  1  0  0  0  0
  7  8  1  1  0  0  0
  7  9  1  0  0  0  0
  9 27  1  0  0  0  0
 10 11  1  0  0  0  0
 11 12  2  0  0  0  0
 11 13  1  0  0  0  0
 13 14  1  0  0  0  0
 14 16  2  0  0  0  0
 15 14  1  1  0  0  0
 15 18  1  0  0  0  0
 15 26  1  0  0  0  0
 17 19  1  1  0  0  0
 17 25  1  0  0  0  0
 17 18  1  0  0  0  0
 19 20  1  0  0  0  0
 20 21  1  6  0  0  0
 20 22  1  0  0  0  0
 22 23  1  6  0  0  0
 22 24  1  0  0  0  0
 23 28  1  0  0  0  0
 23 29  1  0  0  0  0
 25 24  1  6  0  0  0
 25 27  1  0  0  0  0
 26 10  1  6  0  0  0
 26 27  1  0  0  0  0
M  END
>  <CHROM.1>
178.85274185,174.79142686,177.22909972,146.85596843,112.31557022,-84.31930408
17.08945148,26.08573959,12.08861933,1.20572557,-0.41883244,-1.53769380

>  <Name>
ligand

>  <RI>
0

>  <Rbt.Current_Directory>
/home/itssahil/PROJECTS/Mol_Feturizer/New_Systems/rnas/3F4H

>  <Rbt.Executable>
rbdock ($Id: //depot/dev/client3/rdock/2013.1/src/exe/rbdock.cxx#4 $)

>  <Rbt.Library>
libRbt.so (2013.1, Build901 2013/11/27)

>  <Rbt.Parameter_File>
/export/apps/rDock/src/rDock_2013.1_src/data/scripts/dock_solv.prm

>  <Rbt.Receptor>
prm/blind_docking_40.prm

>  <SCORE>
-29.2415

>  <SCORE.INTER>
-15.0517

>  <SCORE.INTER.CONST>
1

>  <SCORE.INTER.POLAR>
0

>  <SCORE.INTER.ROT>
6

>  <SCORE.INTER.SOLV>
11.797

>  <SCORE.INTER.VDW>
-21.5668

>  <SCORE.INTER.norm>
-0.519022

>  <SCORE.INTRA>
-15.8835

>  <SCORE.INTRA.DIHEDRAL>
-1.56566

>  <SCORE.INTRA.DIHEDRAL.0>
6.83446

>  <SCORE.INTRA.POLAR>
0

>  <SCORE.INTRA.POLAR.0>
0

>  <SCORE.INTRA.REPUL>
0

>  <SCORE.INTRA.REPUL.0>
0

>  <SCORE.INTRA.SOLV>
0.873138

>  <SCORE.INTRA.SOLV.lig_0>
-26.4601

>  <SCORE.INTRA.VDW>
-15.5373

>  <SCORE.INTRA.VDW.0>
13.7853

>  <SCORE.INTRA.norm>
-0.547708

>  <SCORE.RESTR>
1.69369

>  <SCORE.RESTR.CAVITY>
1.69369

>  <SCORE.RESTR.norm>
0.0584032

>  <SCORE.SYSTEM>
0

>  <SCORE.SYSTEM.CONST>
0

>  <SCORE.SYSTEM.DIHEDRAL>
0

>  <SCORE.SYSTEM.SOLV>
0

>  <SCORE.SYSTEM.norm>
0

>  <SCORE.heavy>
29

>  <SCORE.norm>
-1.00833

>  <RMSD>
17.792

$$$$
ligand
 OpenBabel11021811473D
libRbt.so/2013.1/901 2013/11/27
 29 31  0  0  0  0  0  0  0  0999 V2000
   16.4887   26.8875    8.7118 C   0  0  0  0  0  0  0  0  0  0  0  0
   15.4647   27.7574    8.2182 O   0  0  0  0  0  0  0  0  0  0  0  0
   15.9570   25.4617    8.7612 C   0  0  1  0  0  0  0  0  0  0  0  0
   16.9897   24.6094    9.2465 O   0  0  0  0  0  0  0  0  0  0  0  0
   14.7336   25.3776    9.6648 C   0  0  1  0  0  0  0  0  0  0  0  0
   14.2161   24.0571    9.5499 O   0  0  0  0  0  0  0  0  0  0  0  0
   14.9915   25.7137   11.1365 C   0  0  1  0  0  0  0  0  0  0  0  0
   13.7552   25.6191   11.8453 O   0  0  0  0  0  0  0  0  0  0  0  0
   15.9963   24.7790   11.8070 C   0  0  0  0  0  0  0  0  0  0  0  0
   15.3544   24.8195   14.5561 N   0  0  0  0  0  0  0  0  0  0  0  0
   15.0182   24.8136   15.8771 C   0  0  0  0  0  0  0  0  0  0  0  0
   13.9990   24.1935   16.2712 O   0  0  0  0  0  0  0  0  0  0  0  0
   15.7780   25.4822   16.7813 N   0  0  0  0  0  0  0  0  0  0  0  0
   16.8827   26.1669   16.3919 C   0  0  0  0  0  0  0  0  0  0  0  0
   17.2385   26.1807   15.0480 C   0  0  1  0  0  0  0  0  0  0  0  0
   17.5815   26.7860   17.2320 O   0  0  0  0  0  0  0  0  0  0  0  0
   18.6850   26.8663   13.3471 C   0  0  1  0  0  0  0  0  0  0  0  0
   18.3395   26.8550   14.6508 N   0  0  0  0  0  0  0  0  0  0  0  0
   19.8196   27.5635   12.9469 C   0  0  0  0  0  0  0  0  0  0  0  0
   20.2031   27.5917   11.6107 C   0  0  2  0  0  0  0  0  0  0  0  0
   21.4428   28.3676   11.2466 C   0  0  0  0  0  0  0  0  0  0  0  0
   19.4395   26.9102   10.6545 C   0  0  2  0  0  0  0  0  0  0  0  0
   19.7545   26.8933    9.3242 N   0  0  0  0  0  0  0  0  0  0  0  0
   18.2989   26.2136   11.0723 C   0  0  0  0  0  0  0  0  0  0  0  0
   17.9098   26.1836   12.4111 C   0  0  2  0  0  0  0  0  0  0  0  0
   16.4575   25.4909   14.1155 C   0  0  2  0  0  0  0  0  0  0  0  0
   16.8040   25.5101   12.8027 N   0  0  0  0  0  0  0  0  0  0  0  0
   20.1576   25.6492    8.6965 C   0  0  0  0  0  0  0  0  0  0  0  0
   19.7004   28.0832    8.4911 C   0  0  0  0  0  0  0  0  0  0  0  0
  1  2  1  0  0  0  0
  3  1  1  1  0  0  0
  3  4  1  0  0  0  0
  3  5  1  0  0  0  0
  5  6  1  1  0  0  0
  5  7  1  0  0  0  0
  7  8  1  1  0  0  0
  7  9  1  0  0  0  0
  9 27  1  0  0  0  0
 10 11  1  0  0  0  0
 11 12  2  0  0  0  0
 11 13  1  0  0  0  0
 13 14  1  0  0  0  0
 14 16  2  0  0  0  0
 15 14  1  1  0  0  0
 15 18  1  0  0  0  0
 15 26  1  0  0  0  0
 17 19  1  1  0  0  0
 17 25  1  0  0  0  0
 17 18  1  0  0  0  0
 19 20  1  0  0  0  0
 20 21  1  6  0  0  0
 20 22  1  0  0  0  0
 22 23  1  6  0  0  0
 22 24  1  0  0  0  0
 23 28  1  0  0  0  0
 23 29  1  0  0  0  0
 25 24  1  6  0  0  0
 25 27  1  0  0  0  0
 26 10  1  6  0  0  0
 26 27  1  0  0  0  0
M  END
>  <CHROM.1>
179.66962138,174.06686024,178.80109469,145.65362595,113.56715729,-85.04415670
17.09655026,26.08067868,12.08769889,1.19711000,-0.42032717,-1.54647971

>  <Name>
ligand

>  <RI>
0

>  <Rbt.Current_Directory>
/home/itssahil/PROJECTS/Mol_Feturizer/New_Systems/rnas/3F4H

>  <Rbt.Executable>
rbdock ($Id: //depot/dev/client3/rdock/2013.1/src/exe/rbdock.cxx#4 $)

>  <Rbt.Library>
libRbt.so (2013.1, Build901 2013/11/27)

>  <Rbt.Parameter_File>
/export/apps/rDock/src/rDock_2013.1_src/data/scripts/dock_solv.prm

>  <Rbt.Receptor>
prm/blind_docking_40.prm

>  <SCORE>
-29.0867

>  <SCORE.INTER>
-15.2648

>  <SCORE.INTER.CONST>
1

>  <SCORE.INTER.POLAR>
0

>  <SCORE.INTER.ROT>
6

>  <SCORE.INTER.SOLV>
11.6009

>  <SCORE.INTER.VDW>
-21.6435

>  <SCORE.INTER.norm>
-0.526371

>  <SCORE.INTRA>
-15.473

>  <SCORE.INTRA.DIHEDRAL>
-1.4021

>  <SCORE.INTRA.DIHEDRAL.0>
6.83446

>  <SCORE.INTRA.POLAR>
0

>  <SCORE.INTRA.POLAR.0>
0

>  <SCORE.INTRA.REPUL>
0

>  <SCORE.INTRA.REPUL.0>
0

>  <SCORE.INTRA.SOLV>
0.915532

>  <SCORE.INTRA.SOLV.lig_0>
-26.4601

>  <SCORE.INTRA.VDW>
-15.2297

>  <SCORE.INTRA.VDW.0>
13.7853

>  <SCORE.INTRA.norm>
-0.533551

>  <SCORE.RESTR>
1.65103

>  <SCORE.RESTR.CAVITY>
1.65103

>  <SCORE.RESTR.norm>
0.0569322

>  <SCORE.SYSTEM>
0

>  <SCORE.SYSTEM.CONST>
0

>  <SCORE.SYSTEM.DIHEDRAL>
0

>  <SCORE.SYSTEM.SOLV>
0

>  <SCORE.SYSTEM.norm>
0

>  <SCORE.heavy>
29

>  <SCORE.norm>
-1.00299

>  <RMSD>
17.793

$$$$
ligand
 OpenBabel11021811473D
libRbt.so/2013.1/901 2013/11/27
 29 31  0  0  0  0  0  0  0  0999 V2000
   15.5263   26.9689    9.1127 C   0  0  0  0  0  0  0  0  0  0  0  0
   16.6934   27.5260    9.7263 O   0  0  0  0  0  0  0  0  0  0  0  0
   15.3717   25.5187    9.5498 C   0  0  1  0  0  0  0  0  0  0  0  0
   16.6313   24.8679    9.4147 O   0  0  0  0  0  0  0  0  0  0  0  0
   14.8894   25.4430   10.9928 C   0  0  1  0  0  0  0  0  0  0  0  0
   13.4812   25.6464   10.9765 O   0  0  0  0  0  0  0  0  0  0  0  0
   15.2224   24.1363   11.7189 C   0  0  1  0  0  0  0  0  0  0  0  0
   14.7552   23.0457   10.9241 O   0  0  0  0  0  0  0  0  0  0  0  0
   16.7172   23.9400   11.9635 C   0  0  0  0  0  0  0  0  0  0  0  0
   15.8766   24.1714   14.6488 N   0  0  0  0  0  0  0  0  0  0  0  0
   15.4524   24.2512   15.9418 C   0  0  0  0  0  0  0  0  0  0  0  0
   14.5940   23.4453   16.3802 O   0  0  0  0  0  0  0  0  0  0  0  0
   15.9487   25.2059   16.7689 N   0  0  0  0  0  0  0  0  0  0  0  0
   16.8732   26.0962   16.3291 C   0  0  0  0  0  0  0  0  0  0  0  0
   17.3162   26.0261   15.0133 C   0  0  1  0  0  0  0  0  0  0  0  0
   17.3280   26.9793   17.0978 O   0  0  0  0  0  0  0  0  0  0  0  0
   18.6708   26.8346   13.2908 C   0  0  1  0  0  0  0  0  0  0  0  0
   18.2401   26.9046   14.5671 N   0  0  0  0  0  0  0  0  0  0  0  0
   19.6217   27.7434   12.8398 C   0  0  0  0  0  0  0  0  0  0  0  0
   20.0874   27.6952   11.5304 C   0  0  2  0  0  0  0  0  0  0  0  0
   21.1173   28.7112   11.1079 C   0  0  0  0  0  0  0  0  0  0  0  0
   19.5945   26.7204   10.6536 C   0  0  2  0  0  0  0  0  0  0  0  0
   20.0048   26.6122    9.3540 N   0  0  0  0  0  0  0  0  0  0  0  0
   18.6363   25.8131   11.1217 C   0  0  0  0  0  0  0  0  0  0  0  0
   18.1656   25.8585   12.4336 C   0  0  2  0  0  0  0  0  0  0  0  0
   16.8068   25.0420   14.1603 C   0  0  2  0  0  0  0  0  0  0  0  0
   17.2371   24.9787   12.8739 N   0  0  0  0  0  0  0  0  0  0  0  0
   19.6503   27.6455    8.3995 C   0  0  0  0  0  0  0  0  0  0  0  0
   20.7975   25.4926    8.8733 C   0  0  0  0  0  0  0  0  0  0  0  0
  1  2  1  0  0  0  0
  3  1  1  1  0  0  0
  3  4  1  0  0  0  0
  3  5  1  0  0  0  0
  5  6  1  6  0  0  0
  5  7  1  0  0  0  0
  7  8  1  6  0  0  0
  7  9  1  0  0  0  0
  9 27  1  0  0  0  0
 10 11  1  0  0  0  0
 11 12  2  0  0  0  0
 11 13  1  0  0  0  0
 13 14  1  0  0  0  0
 14 16  2  0  0  0  0
 15 14  1  1  0  0  0
 15 18  1  0  0  0  0
 15 26  1  0  0  0  0
 17 19  1  1  0  0  0
 17 25  1  0  0  0  0
 17 18  1  0  0  0  0
 19 20  1  0  0  0  0
 20 21  1  6  0  0  0
 20 22  1  0  0  0  0
 22 23  1  6  0  0  0
 22 24  1  0  0  0  0
 23 28  1  0  0  0  0
 23 29  1  0  0  0  0
 25 24  1  6  0  0  0
 25 27  1  0  0  0  0
 26 10  1  6  0  0  0
 26 27  1  0  0  0  0
M  END
>  <CHROM.1>
-47.22140485,80.81522611,-52.81922074,64.30755900,-68.42732717,-116.35124833
17.23409700,25.81964126,12.27871439,1.01597615,-0.52492814,-1.55353625

>  <Name>
ligand

>  <RI>
0

>  <Rbt.Current_Directory>
/home/itssahil/PROJECTS/Mol_Feturizer/New_Systems/rnas/3F4H

>  <Rbt.Executable>
rbdock ($Id: //depot/dev/client3/rdock/2013.1/src/exe/rbdock.cxx#4 $)

>  <Rbt.Library>
libRbt.so (2013.1, Build901 2013/11/27)

>  <Rbt.Parameter_File>
/export/apps/rDock/src/rDock_2013.1_src/data/scripts/dock_solv.prm

>  <Rbt.Receptor>
prm/blind_docking_40.prm

>  <SCORE>
-21.9161

>  <SCORE.INTER>
-7.51301

>  <SCORE.INTER.CONST>
1

>  <SCORE.INTER.POLAR>
0

>  <SCORE.INTER.ROT>
6

>  <SCORE.INTER.SOLV>
9.78384

>  <SCORE.INTER.VDW>
-15.87

>  <SCORE.INTER.norm>
-0.259069

>  <SCORE.INTRA>
-16.4951

>  <SCORE.INTRA.DIHEDRAL>
-2.53949

>  <SCORE.INTRA.DIHEDRAL.0>
6.83446

>  <SCORE.INTRA.POLAR>
0

>  <SCORE.INTRA.POLAR.0>
0

>  <SCORE.INTRA.REPUL>
0

>  <SCORE.INTRA.REPUL.0>
0

>  <SCORE.INTRA.SOLV>
1.28348

>  <SCORE.INTRA.SOLV.lig_0>
-26.4601

>  <SCORE.INTRA.VDW>
-15.8671

>  <SCORE.INTRA.VDW.0>
13.7853

>  <SCORE.INTRA.norm>
-0.568797

>  <SCORE.RESTR>
2.09207

>  <SCORE.RESTR.CAVITY>
2.09207

>  <SCORE.RESTR.norm>
0.0721404

>  <SCORE.SYSTEM>
0

>  <SCORE.SYSTEM.CONST>
0

>  <SCORE.SYSTEM.DIHEDRAL>
0

>  <SCORE.SYSTEM.SOLV>
0

>  <SCORE.SYSTEM.norm>
0

>  <SCORE.heavy>
29

>  <SCORE.norm>
-0.755726

>  <RMSD>
17.804

$$$$
ligand
 OpenBabel11021811473D
libRbt.so/2013.1/901 2013/11/27
 29 31  0  0  0  0  0  0  0  0999 V2000
   13.2349   24.6795   11.5121 C   0  0  0  0  0  0  0  0  0  0  0  0
   12.1381   24.8831   10.6151 O   0  0  0  0  0  0  0  0  0  0  0  0
   14.5187   24.5211   10.7091 C   0  0  1  0  0  0  0  0  0  0  0  0
   14.2905   23.5718    9.6722 O   0  0  0  0  0  0  0  0  0  0  0  0
   14.9484   25.8574   10.1175 C   0  0  1  0  0  0  0  0  0  0  0  0
   15.1460   26.7543   11.2044 O   0  0  0  0  0  0  0  0  0  0  0  0
   16.2065   25.8048    9.2456 C   0  0  1  0  0  0  0  0  0  0  0  0
   16.6022   27.1430    8.9418 O   0  0  0  0  0  0  0  0  0  0  0  0
   17.3840   25.1022    9.9184 C   0  0  0  0  0  0  0  0  0  0  0  0
   19.3992   26.8827    9.0581 N   0  0  0  0  0  0  0  0  0  0  0  0
   20.3644   27.7333    8.6076 C   0  0  0  0  0  0  0  0  0  0  0  0
   20.6901   27.7401    7.3941 O   0  0  0  0  0  0  0  0  0  0  0  0
   20.9886   28.5790    9.4661 N   0  0  0  0  0  0  0  0  0  0  0  0
   20.6667   28.5962   10.7840 C   0  0  0  0  0  0  0  0  0  0  0  0
   19.6832   27.7352   11.2575 C   0  0  1  0  0  0  0  0  0  0  0  0
   21.2486   29.3791   11.5751 O   0  0  0  0  0  0  0  0  0  0  0  0
   18.3961   26.9138   13.0250 C   0  0  1  0  0  0  0  0  0  0  0  0
   19.3517   27.7482   12.5669 N   0  0  0  0  0  0  0  0  0  0  0  0
   18.0616   26.9335   14.3746 C   0  0  0  0  0  0  0  0  0  0  0  0
   17.0789   26.0874   14.8766 C   0  0  2  0  0  0  0  0  0  0  0  0
   16.7673   26.1603   16.3493 C   0  0  0  0  0  0  0  0  0  0  0  0
   16.4164   25.2042   14.0146 C   0  0  2  0  0  0  0  0  0  0  0  0
   15.4409   24.3439   14.4359 N   0  0  0  0  0  0  0  0  0  0  0  0
   16.7650   25.1948   12.6585 C   0  0  0  0  0  0  0  0  0  0  0  0
   17.7507   26.0407   12.1509 C   0  0  2  0  0  0  0  0  0  0  0  0
   19.0382   26.8643   10.3738 C   0  0  2  0  0  0  0  0  0  0  0  0
   18.0816   26.0205   10.8394 N   0  0  0  0  0  0  0  0  0  0  0  0
   14.1987   24.8706   14.9686 C   0  0  0  0  0  0  0  0  0  0  0  0
   15.5889   22.8993   14.3713 C   0  0  0  0  0  0  0  0  0  0  0  0
  1  2  1  0  0  0  0
  3  1  1  6  0  0  0
  3  4  1  0  0  0  0
  3  5  1  0  0  0  0
  5  6  1  1  0  0  0
  5  7  1  0  0  0  0
  7  8  1  1  0  0  0
  7  9  1  0  0  0  0
  9 27  1  0  0  0  0
 10 11  1  0  0  0  0
 11 12  2  0  0  0  0
 11 13  1  0  0  0  0
 13 14  1  0  0  0  0
 14 16  2  0  0  0  0
 15 14  1  6  0  0  0
 15 18  1  0  0  0  0
 15 26  1  0  0  0  0
 17 19  1  6  0  0  0
 17 25  1  0  0  0  0
 17 18  1  0  0  0  0
 19 20  1  0  0  0  0
 20 21  1  1  0  0  0
 20 22  1  0  0  0  0
 22 23  1  1  0  0  0
 22 24  1  0  0  0  0
 23 28  1  0  0  0  0
 23 29  1  0  0  0  0
 25 24  1  1  0  0  0
 25 27  1  0  0  0  0
 26 10  1  1  0  0  0
 26 27  1  0  0  0  0
M  END
>  <CHROM.1>
-48.80589600,59.40741952,-170.95538333,-81.35071184,63.95097439,93.92591956
17.18269547,26.19422232,11.51177351,2.66661096,0.50782872,1.63639844

>  <Name>
ligand

>  <RI>
0

>  <Rbt.Current_Directory>
/home/itssahil/PROJECTS/Mol_Feturizer/New_Systems/rnas/3F4H

>  <Rbt.Executable>
rbdock ($Id: //depot/dev/client3/rdock/2013.1/src/exe/rbdock.cxx#4 $)

>  <Rbt.Library>
libRbt.so (2013.1, Build901 2013/11/27)

>  <Rbt.Parameter_File>
/export/apps/rDock/src/rDock_2013.1_src/data/scripts/dock_solv.prm

>  <Rbt.Receptor>
prm/blind_docking_40.prm

>  <SCORE>
-22.7045

>  <SCORE.INTER>
-9.18485

>  <SCORE.INTER.CONST>
1

>  <SCORE.INTER.POLAR>
0

>  <SCORE.INTER.ROT>
6

>  <SCORE.INTER.SOLV>
8.57086

>  <SCORE.INTER.VDW>
-16.5802

>  <SCORE.INTER.norm>
-0.316719

>  <SCORE.INTRA>
-16.3671

>  <SCORE.INTRA.DIHEDRAL>
-2.63123

>  <SCORE.INTRA.DIHEDRAL.0>
6.83446

>  <SCORE.INTRA.POLAR>
0

>  <SCORE.INTRA.POLAR.0>
0

>  <SCORE.INTRA.REPUL>
0

>  <SCORE.INTRA.REPUL.0>
0

>  <SCORE.INTRA.SOLV>
0.978602

>  <SCORE.INTRA.SOLV.lig_0>
-26.4601

>  <SCORE.INTRA.VDW>
-15.5408

>  <SCORE.INTRA.VDW.0>
13.7853

>  <SCORE.INTRA.norm>
-0.564383

>  <SCORE.RESTR>
2.84748

>  <SCORE.RESTR.CAVITY>
2.84748

>  <SCORE.RESTR.norm>
0.0981891

>  <SCORE.SYSTEM>
0

>  <SCORE.SYSTEM.CONST>
0

>  <SCORE.SYSTEM.DIHEDRAL>
0

>  <SCORE.SYSTEM.SOLV>
0

>  <SCORE.SYSTEM.norm>
0

>  <SCORE.heavy>
29

>  <SCORE.norm>
-0.782913

>  <RMSD>
17.838

$$$$
ligand
 OpenBabel11021811473D
libRbt.so/2013.1/901 2013/11/27
 29 31  0  0  0  0  0  0  0  0999 V2000
   18.6209   24.0723    9.3068 C   0  0  0  0  0  0  0  0  0  0  0  0
   19.0547   25.2573    9.9825 O   0  0  0  0  0  0  0  0  0  0  0  0
   17.1739   23.7812    9.6804 C   0  0  1  0  0  0  0  0  0  0  0  0
   17.0033   24.0426   11.0700 O   0  0  0  0  0  0  0  0  0  0  0  0
   16.2249   24.6447    8.8594 C   0  0  1  0  0  0  0  0  0  0  0  0
   14.9394   24.5459    9.4614 O   0  0  0  0  0  0  0  0  0  0  0  0
   16.6333   26.1154    8.7331 C   0  0  1  0  0  0  0  0  0  0  0  0
   16.0986   26.6300    7.5129 O   0  0  0  0  0  0  0  0  0  0  0  0
   16.1263   26.9882    9.8794 C   0  0  0  0  0  0  0  0  0  0  0  0
   18.7215   28.0865    9.7069 N   0  0  0  0  0  0  0  0  0  0  0  0
   19.9658   28.6309    9.5904 C   0  0  0  0  0  0  0  0  0  0  0  0
   20.3341   29.1496    8.5070 O   0  0  0  0  0  0  0  0  0  0  0  0
   20.8232   28.6139   10.6423 N   0  0  0  0  0  0  0  0  0  0  0  0
   20.4620   28.0581   11.8262 C   0  0  0  0  0  0  0  0  0  0  0  0
   19.1957   27.5003   11.9600 C   0  0  1  0  0  0  0  0  0  0  0  0
   21.2597   28.0428   12.7962 O   0  0  0  0  0  0  0  0  0  0  0  0
   17.5950   26.4099   13.2656 C   0  0  1  0  0  0  0  0  0  0  0  0
   18.8246   26.9491   13.1360 N   0  0  0  0  0  0  0  0  0  0  0  0
   17.2216   25.8441   14.4796 C   0  0  0  0  0  0  0  0  0  0  0  0
   15.9602   25.2827   14.6451 C   0  0  2  0  0  0  0  0  0  0  0  0
   15.6218   24.6859   15.9869 C   0  0  0  0  0  0  0  0  0  0  0  0
   15.0531   25.2863   13.5777 C   0  0  2  0  0  0  0  0  0  0  0  0
   13.7972   24.7534   13.6662 N   0  0  0  0  0  0  0  0  0  0  0  0
   15.4439   25.8584   12.3610 C   0  0  0  0  0  0  0  0  0  0  0  0
   16.7083   26.4214   12.1902 C   0  0  2  0  0  0  0  0  0  0  0  0
   18.3106   27.5185   10.8775 C   0  0  2  0  0  0  0  0  0  0  0  0
   17.0761   26.9684   11.0089 N   0  0  0  0  0  0  0  0  0  0  0  0
   13.4680   23.5593   12.9110 C   0  0  0  0  0  0  0  0  0  0  0  0
   12.7567   25.3336   14.4989 C   0  0  0  0  0  0  0  0  0  0  0  0
  1  2  1  0  0  0  0
  3  1  1  6  0  0  0
  3  4  1  0  0  0  0
  3  5  1  0  0  0  0
  5  6  1  1  0  0  0
  5  7  1  0  0  0  0
  7  8  1  6  0  0  0
  7  9  1  0  0  0  0
  9 27  1  0  0  0  0
 10 11  1  0  0  0  0
 11 12  2  0  0  0  0
 11 13  1  0  0  0  0
 13 14  1  0  0  0  0
 14 16  2  0  0  0  0
 15 14  1  1  0  0  0
 15 18  1  0  0  0  0
 15 26  1  0  0  0  0
 17 19  1  1  0  0  0
 17 25  1  0  0  0  0
 17 18  1  0  0  0  0
 19 20  1  0  0  0  0
 20 21  1  6  0  0  0
 20 22  1  0  0  0  0
 22 23  1  6  0  0  0
 22 24  1  0  0  0  0
 23 28  1  0  0  0  0
 23 29  1  0  0  0  0
 25 24  1  6  0  0  0
 25 27  1  0  0  0  0
 26 10  1  6  0  0  0
 26 27  1  0  0  0  0
M  END
>  <CHROM.1>
-40.40326376,-167.10921855,152.74132092,86.99257849,-111.89195603,-114.67342237
17.24546775,26.14823487,11.39480103,0.50292583,-0.57387364,-1.63752254

>  <Name>
ligand

>  <RI>
0

>  <Rbt.Current_Directory>
/home/itssahil/PROJECTS/Mol_Feturizer/New_Systems/rnas/3F4H

>  <Rbt.Executable>
rbdock ($Id: //depot/dev/client3/rdock/2013.1/src/exe/rbdock.cxx#4 $)

>  <Rbt.Library>
libRbt.so (2013.1, Build901 2013/11/27)

>  <Rbt.Parameter_File>
/export/apps/rDock/src/rDock_2013.1_src/data/scripts/dock_solv.prm

>  <Rbt.Receptor>
prm/blind_docking_40.prm

>  <SCORE>
-12.6444

>  <SCORE.INTER>
-3.39529

>  <SCORE.INTER.CONST>
1

>  <SCORE.INTER.POLAR>
0

>  <SCORE.INTER.ROT>
6

>  <SCORE.INTER.SOLV>
9.67165

>  <SCORE.INTER.VDW>
-13.0874

>  <SCORE.INTER.norm>
-0.117079

>  <SCORE.INTRA>
-13.3874

>  <SCORE.INTRA.DIHEDRAL>
1.60785

>  <SCORE.INTRA.DIHEDRAL.0>
6.83446

>  <SCORE.INTRA.POLAR>
0

>  <SCORE.INTRA.POLAR.0>
0

>  <SCORE.INTRA.REPUL>
0

>  <SCORE.INTRA.REPUL.0>
0

>  <SCORE.INTRA.SOLV>
1.49976

>  <SCORE.INTRA.SOLV.lig_0>
-26.4601

>  <SCORE.INTRA.VDW>
-14.9412

>  <SCORE.INTRA.VDW.0>
13.7853

>  <SCORE.INTRA.norm>
-0.461634

>  <SCORE.RESTR>
4.13825

>  <SCORE.RESTR.CAVITY>
4.13825

>  <SCORE.RESTR.norm>
0.142698

>  <SCORE.SYSTEM>
0

>  <SCORE.SYSTEM.CONST>
0

>  <SCORE.SYSTEM.DIHEDRAL>
0

>  <SCORE.SYSTEM.SOLV>
0

>  <SCORE.SYSTEM.norm>
0

>  <SCORE.heavy>
29

>  <SCORE.norm>
-0.436015

>  <RMSD>
17.842

$$$$
ligand
 OpenBabel11021811473D
libRbt.so/2013.1/901 2013/11/27
 29 31  0  0  0  0  0  0  0  0999 V2000
   22.6617   26.8063   12.1322 C   0  0  0  0  0  0  0  0  0  0  0  0
   22.1752   27.3187   10.8873 O   0  0  0  0  0  0  0  0  0  0  0  0
   21.5789   26.9498   13.1929 C   0  0  1  0  0  0  0  0  0  0  0  0
   20.8791   28.1690   12.9641 O   0  0  0  0  0  0  0  0  0  0  0  0
   20.6171   25.7698   13.1390 C   0  0  1  0  0  0  0  0  0  0  0  0
   20.1025   25.5866   14.4529 O   0  0  0  0  0  0  0  0  0  0  0  0
   19.4653   25.9185   12.1406 C   0  0  1  0  0  0  0  0  0  0  0  0
   20.0136   25.9771   10.8232 O   0  0  0  0  0  0  0  0  0  0  0  0
   18.4658   24.7646   12.1883 C   0  0  0  0  0  0  0  0  0  0  0  0
   18.1699   25.8123    9.5834 N   0  0  0  0  0  0  0  0  0  0  0  0
   18.0625   26.3097    8.3188 C   0  0  0  0  0  0  0  0  0  0  0  0
   19.0825   26.4354    7.5961 O   0  0  0  0  0  0  0  0  0  0  0  0
   16.8526   26.6798    7.8277 N   0  0  0  0  0  0  0  0  0  0  0  0
   15.7301   26.5629    8.5808 C   0  0  0  0  0  0  0  0  0  0  0  0
   15.8242   26.0560    9.8719 C   0  0  1  0  0  0  0  0  0  0  0  0
   14.6129   26.9087    8.1227 O   0  0  0  0  0  0  0  0  0  0  0  0
   14.8039   25.4372   11.8797 C   0  0  1  0  0  0  0  0  0  0  0  0
   14.7119   25.9308   10.6279 N   0  0  0  0  0  0  0  0  0  0  0  0
   13.6538   25.3123   12.6512 C   0  0  0  0  0  0  0  0  0  0  0  0
   13.7158   24.8045   13.9442 C   0  0  2  0  0  0  0  0  0  0  0  0
   12.4310   24.6976   14.7248 C   0  0  0  0  0  0  0  0  0  0  0  0
   14.9502   24.4131   14.4780 C   0  0  2  0  0  0  0  0  0  0  0  0
   15.0885   23.9060   15.7401 N   0  0  0  0  0  0  0  0  0  0  0  0
   16.0998   24.5461   13.6898 C   0  0  0  0  0  0  0  0  0  0  0  0
   16.0425   25.0559   12.3931 C   0  0  2  0  0  0  0  0  0  0  0  0
   17.0699   25.6729   10.3786 C   0  0  2  0  0  0  0  0  0  0  0  0
   17.1603   25.1830   11.6419 N   0  0  0  0  0  0  0  0  0  0  0  0
   14.7831   22.5104   15.9917 C   0  0  0  0  0  0  0  0  0  0  0  0
   15.5390   24.7114   16.8631 C   0  0  0  0  0  0  0  0  0  0  0  0
  1  2  1  0  0  0  0
  3  1  1  6  0  0  0
  3  4  1  0  0  0  0
  3  5  1  0  0  0  0
  5  6  1  1  0  0  0
  5  7  1  0  0  0  0
  7  8  1  6  0  0  0
  7  9  1  0  0  0  0
  9 27  1  0  0  0  0
 10 11  1  0  0  0  0
 11 12  2  0  0  0  0
 11 13  1  0  0  0  0
 13 14  1  0  0  0  0
 14 16  2  0  0  0  0
 15 14  1  6  0  0  0
 15 18  1  0  0  0  0
 15 26  1  0  0  0  0
 17 19  1  6  0  0  0
 17 25  1  0  0  0  0
 17 18  1  0  0  0  0
 19 20  1  0  0  0  0
 20 21  1  1  0  0  0
 20 22  1  0  0  0  0
 22 23  1  1  0  0  0
 22 24  1  0  0  0  0
 23 28  1  0  0  0  0
 23 29  1  0  0  0  0
 25 24  1  1  0  0  0
 25 27  1  0  0  0  0
 26 10  1  1  0  0  0
 26 27  1  0  0  0  0
M  END
>  <CHROM.1>
-36.61199495,151.29458756,64.10805889,157.62329519,80.47063144,-123.95545591
17.35559788,25.68953788,11.96580832,-0.62650994,0.20858728,1.82788843

>  <Name>
ligand

>  <RI>
0

>  <Rbt.Current_Directory>
/home/itssahil/PROJECTS/Mol_Feturizer/New_Systems/rnas/3F4H

>  <Rbt.Executable>
rbdock ($Id: //depot/dev/client3/rdock/2013.1/src/exe/rbdock.cxx#4 $)

>  <Rbt.Library>
libRbt.so (2013.1, Build901 2013/11/27)

>  <Rbt.Parameter_File>
/export/apps/rDock/src/rDock_2013.1_src/data/scripts/dock_solv.prm

>  <Rbt.Receptor>
prm/blind_docking_40.prm

>  <SCORE>
4.27891

>  <SCORE.INTER>
10.2708

>  <SCORE.INTER.CONST>
1

>  <SCORE.INTER.POLAR>
0

>  <SCORE.INTER.ROT>
6

>  <SCORE.INTER.SOLV>
14.9403

>  <SCORE.INTER.VDW>
-5.73293

>  <SCORE.INTER.norm>
0.354164

>  <SCORE.INTRA>
-10.541

>  <SCORE.INTRA.DIHEDRAL>
1.087

>  <SCORE.INTRA.DIHEDRAL.0>
6.83446

>  <SCORE.INTRA.POLAR>
0

>  <SCORE.INTRA.POLAR.0>
0

>  <SCORE.INTRA.REPUL>
0

>  <SCORE.INTRA.REPUL.0>
0

>  <SCORE.INTRA.SOLV>
0.860455

>  <SCORE.INTRA.SOLV.lig_0>
-26.4601

>  <SCORE.INTRA.VDW>
-11.5147

>  <SCORE.INTRA.VDW.0>
13.7853

>  <SCORE.INTRA.norm>
-0.363483

>  <SCORE.RESTR>
4.54916

>  <SCORE.RESTR.CAVITY>
4.54916

>  <SCORE.RESTR.norm>
0.156867

>  <SCORE.SYSTEM>
0

>  <SCORE.SYSTEM.CONST>
0

>  <SCORE.SYSTEM.DIHEDRAL>
0

>  <SCORE.SYSTEM.SOLV>
0

>  <SCORE.SYSTEM.norm>
0

>  <SCORE.heavy>
29

>  <SCORE.norm>
0.147549

>  <RMSD>
17.880

$$$$
ligand
 OpenBabel11021811473D
libRbt.so/2013.1/901 2013/11/27
 29 31  0  0  0  0  0  0  0  0999 V2000
   13.0871   23.4881    9.9841 C   0  0  0  0  0  0  0  0  0  0  0  0
   11.7505   23.4013   10.4892 O   0  0  0  0  0  0  0  0  0  0  0  0
   13.5947   24.9143   10.1469 C   0  0  1  0  0  0  0  0  0  0  0  0
   13.7670   25.1782   11.5358 O   0  0  0  0  0  0  0  0  0  0  0  0
   14.9123   25.1014    9.4056 C   0  0  1  0  0  0  0  0  0  0  0  0
   14.7808   26.2687    8.6026 O   0  0  0  0  0  0  0  0  0  0  0  0
   16.1485   25.2180   10.3021 C   0  0  1  0  0  0  0  0  0  0  0  0
   17.1746   24.3801    9.7685 O   0  0  0  0  0  0  0  0  0  0  0  0
   16.6983   26.6397   10.3984 C   0  0  0  0  0  0  0  0  0  0  0  0
   19.3133   27.6484   10.0583 N   0  0  0  0  0  0  0  0  0  0  0  0
   20.5670   28.1451    9.8593 C   0  0  0  0  0  0  0  0  0  0  0  0
   20.9340   28.5045    8.7128 O   0  0  0  0  0  0  0  0  0  0  0  0
   21.4352   28.2519   10.8970 N   0  0  0  0  0  0  0  0  0  0  0  0
   21.0756   27.8691   12.1480 C   0  0  0  0  0  0  0  0  0  0  0  0
   19.7997   27.3620   12.3661 C   0  0  1  0  0  0  0  0  0  0  0  0
   21.8832   27.9679   13.1048 O   0  0  0  0  0  0  0  0  0  0  0  0
   18.1914   26.4928   13.8199 C   0  0  1  0  0  0  0  0  0  0  0  0
   19.4301   26.9830   13.6089 N   0  0  0  0  0  0  0  0  0  0  0  0
   17.8196   26.1045   15.1023 C   0  0  0  0  0  0  0  0  0  0  0  0
   16.5490   25.5980   15.3522 C   0  0  2  0  0  0  0  0  0  0  0  0
   16.2130   25.1954   16.7652 C   0  0  0  0  0  0  0  0  0  0  0  0
   15.6307   25.4768   14.3015 C   0  0  2  0  0  0  0  0  0  0  0  0
   14.3653   24.9879   14.4712 N   0  0  0  0  0  0  0  0  0  0  0  0
   16.0199   25.8707   13.0154 C   0  0  0  0  0  0  0  0  0  0  0  0
   17.2935   26.3780   12.7600 C   0  0  2  0  0  0  0  0  0  0  0  0
   18.9036   27.2528   11.2982 C   0  0  2  0  0  0  0  0  0  0  0  0
   17.6596   26.7522   11.5126 N   0  0  0  0  0  0  0  0  0  0  0  0
   14.0646   23.6218   14.0867 C   0  0  0  0  0  0  0  0  0  0  0  0
   13.2865   25.7841   15.0325 C   0  0  0  0  0  0  0  0  0  0  0  0
  1  2  1  0  0  0  0
  3  1  1  1  0  0  0
  3  4  1  0  0  0  0
  3  5  1  0  0  0  0
  5  6  1  1  0  0  0
  5  7  1  0  0  0  0
  7  8  1  6  0  0  0
  7  9  1  0  0  0  0
  9 27  1  0  0  0  0
 10 11  1  0  0  0  0
 11 12  2  0  0  0  0
 11 13  1  0  0  0  0
 13 14  1  0  0  0  0
 14 16  2  0  0  0  0
 15 14  1  1  0  0  0
 15 18  1  0  0  0  0
 15 26  1  0  0  0  0
 17 19  1  1  0  0  0
 17 25  1  0  0  0  0
 17 18  1  0  0  0  0
 19 20  1  0  0  0  0
 20 21  1  6  0  0  0
 20 22  1  0  0  0  0
 22 23  1  6  0  0  0
 22 24  1  0  0  0  0
 23 28  1  0  0  0  0
 23 29  1  0  0  0  0
 25 24  1  6  0  0  0
 25 27  1  0  0  0  0
 26 10  1  6  0  0  0
 26 27  1  0  0  0  0
M  END
>  <CHROM.1>
68.69352387,129.87561627,134.01472825,166.04575300,-101.57890160,-54.33267710
16.90550150,26.06342580,11.97324610,3.01326074,0.44336690,1.62112226

>  <Name>
ligand

>  <RI>
0

>  <Rbt.Current_Directory>
/home/itssahil/PROJECTS/Mol_Feturizer/New_Systems/rnas/3F4H

>  <Rbt.Executable>
rbdock ($Id: //depot/dev/client3/rdock/2013.1/src/exe/rbdock.cxx#4 $)

>  <Rbt.Library>
libRbt.so (2013.1, Build901 2013/11/27)

>  <Rbt.Parameter_File>
/export/apps/rDock/src/rDock_2013.1_src/data/scripts/dock_solv.prm

>  <Rbt.Receptor>
prm/blind_docking_40.prm

>  <SCORE>
-3.38053

>  <SCORE.INTER>
6.40293

>  <SCORE.INTER.CONST>
1

>  <SCORE.INTER.POLAR>
0

>  <SCORE.INTER.ROT>
6

>  <SCORE.INTER.SOLV>
9.94523

>  <SCORE.INTER.VDW>
-6.64646

>  <SCORE.INTER.norm>
0.220791

>  <SCORE.INTRA>
-10.9585

>  <SCORE.INTRA.DIHEDRAL>
5.8362

>  <SCORE.INTRA.DIHEDRAL.0>
6.83446

>  <SCORE.INTRA.POLAR>
0

>  <SCORE.INTRA.POLAR.0>
0

>  <SCORE.INTRA.REPUL>
0

>  <SCORE.INTRA.REPUL.0>
0

>  <SCORE.INTRA.SOLV>
0.521731

>  <SCORE.INTRA.SOLV.lig_0>
-26.4601

>  <SCORE.INTRA.VDW>
-14.1375

>  <SCORE.INTRA.VDW.0>
13.7853

>  <SCORE.INTRA.norm>
-0.377879

>  <SCORE.RESTR>
1.17504

>  <SCORE.RESTR.CAVITY>
1.17504

>  <SCORE.RESTR.norm>
0.0405187

>  <SCORE.SYSTEM>
0

>  <SCORE.SYSTEM.CONST>
0

>  <SCORE.SYSTEM.DIHEDRAL>
0

>  <SCORE.SYSTEM.SOLV>
0

>  <SCORE.SYSTEM.norm>
0

>  <SCORE.heavy>
29

>  <SCORE.norm>
-0.11657

>  <RMSD>
17.880

$$$$
ligand
 OpenBabel11021811473D
libRbt.so/2013.1/901 2013/11/27
 29 31  0  0  0  0  0  0  0  0999 V2000
   16.0613   25.0774    8.9538 C   0  0  0  0  0  0  0  0  0  0  0  0
   17.2357   24.3239    9.2733 O   0  0  0  0  0  0  0  0  0  0  0  0
   15.7695   26.0569   10.0823 C   0  0  1  0  0  0  0  0  0  0  0  0
   15.3782   27.3019    9.5120 O   0  0  0  0  0  0  0  0  0  0  0  0
   14.6674   25.5194   10.9861 C   0  0  1  0  0  0  0  0  0  0  0  0
   13.5432   25.2424   10.1590 O   0  0  0  0  0  0  0  0  0  0  0  0
   15.0431   24.2742   11.7948 C   0  0  1  0  0  0  0  0  0  0  0  0
   14.5013   23.1279   11.1376 O   0  0  0  0  0  0  0  0  0  0  0  0
   16.5505   24.0726   11.9362 C   0  0  0  0  0  0  0  0  0  0  0  0
   15.7469   24.2687   14.6357 N   0  0  0  0  0  0  0  0  0  0  0  0
   15.3390   24.3324   15.9348 C   0  0  0  0  0  0  0  0  0  0  0  0
   14.4509   23.5528   16.3614 O   0  0  0  0  0  0  0  0  0  0  0  0
   15.8841   25.2426   16.7811 N   0  0  0  0  0  0  0  0  0  0  0  0
   16.8419   26.1038   16.3546 C   0  0  0  0  0  0  0  0  0  0  0  0
   17.2687   26.0496   15.0326 C   0  0  1  0  0  0  0  0  0  0  0  0
   17.3419   26.9459   17.1410 O   0  0  0  0  0  0  0  0  0  0  0  0
   18.6402   26.8445   13.3172 C   0  0  1  0  0  0  0  0  0  0  0  0
   18.2254   26.8991   14.5995 N   0  0  0  0  0  0  0  0  0  0  0  0
   19.6251   27.7232   12.8797 C   0  0  0  0  0  0  0  0  0  0  0  0
   20.0754   27.6897   11.5646 C   0  0  2  0  0  0  0  0  0  0  0  0
   21.1441   28.6714   11.1574 C   0  0  0  0  0  0  0  0  0  0  0  0
   19.5324   26.7606   10.6680 C   0  0  2  0  0  0  0  0  0  0  0  0
   19.9250   26.6692    9.3616 N   0  0  0  0  0  0  0  0  0  0  0  0
   18.5405   25.8832   11.1227 C   0  0  0  0  0  0  0  0  0  0  0  0
   18.0849   25.9140   12.4404 C   0  0  2  0  0  0  0  0  0  0  0  0
   16.7090   25.1112   14.1599 C   0  0  2  0  0  0  0  0  0  0  0  0
   17.1236   25.0635   12.8677 N   0  0  0  0  0  0  0  0  0  0  0  0
   19.5751   27.7249    8.4302 C   0  0  0  0  0  0  0  0  0  0  0  0
   20.6940   25.5463    8.8513 C   0  0  0  0  0  0  0  0  0  0  0  0
  1  2  1  0  0  0  0
  3  1  1  6  0  0  0
  3  4  1  0  0  0  0
  3  5  1  0  0  0  0
  5  6  1  6  0  0  0
  5  7  1  0  0  0  0
  7  8  1  6  0  0  0
  7  9  1  0  0  0  0
  9 27  1  0  0  0  0
 10 11  1  0  0  0  0
 11 12  2  0  0  0  0
 11 13  1  0  0  0  0
 13 14  1  0  0  0  0
 14 16  2  0  0  0  0
 15 14  1  1  0  0  0
 15 18  1  0  0  0  0
 15 26  1  0  0  0  0
 17 19  1  1  0  0  0
 17 25  1  0  0  0  0
 17 18  1  0  0  0  0
 19 20  1  0  0  0  0
 20 21  1  6  0  0  0
 20 22  1  0  0  0  0
 22 23  1  6  0  0  0
 22 24  1  0  0  0  0
 23 28  1  0  0  0  0
 23 29  1  0  0  0  0
 25 24  1  6  0  0  0
 25 27  1  0  0  0  0
 26 10  1  6  0  0  0
 26 27  1  0  0  0  0
M  END
>  <CHROM.1>
138.47087380,-55.35131523,-100.11163576,72.50240282,-70.08002341,-120.61625928
17.16852442,25.76451912,12.26243308,1.02509926,-0.52596822,-1.59455572

>  <Name>
ligand

>  <RI>
0

>  <Rbt.Current_Directory>
/home/itssahil/PROJECTS/Mol_Feturizer/New_Systems/rnas/3F4H

>  <Rbt.Executable>
rbdock ($Id: //depot/dev/client3/rdock/2013.1/src/exe/rbdock.cxx#4 $)

>  <Rbt.Library>
libRbt.so (2013.1, Build901 2013/11/27)

>  <Rbt.Parameter_File>
/export/apps/rDock/src/rDock_2013.1_src/data/scripts/dock_solv.prm

>  <Rbt.Receptor>
prm/blind_docking_40.prm

>  <SCORE>
-17.9841

>  <SCORE.INTER>
-9.37869

>  <SCORE.INTER.CONST>
1

>  <SCORE.INTER.POLAR>
0

>  <SCORE.INTER.ROT>
6

>  <SCORE.INTER.SOLV>
9.41504

>  <SCORE.INTER.VDW>
-16.9908

>  <SCORE.INTER.norm>
-0.323403

>  <SCORE.INTRA>
-10.6822

>  <SCORE.INTRA.DIHEDRAL>
4.02683

>  <SCORE.INTRA.DIHEDRAL.0>
6.83446

>  <SCORE.INTRA.POLAR>
0

>  <SCORE.INTRA.POLAR.0>
0

>  <SCORE.INTRA.REPUL>
0

>  <SCORE.INTRA.REPUL.0>
0

>  <SCORE.INTRA.SOLV>
1.05444

>  <SCORE.INTRA.SOLV.lig_0>
-26.4601

>  <SCORE.INTRA.VDW>
-13.2228

>  <SCORE.INTRA.VDW.0>
13.7853

>  <SCORE.INTRA.norm>
-0.36835

>  <SCORE.RESTR>
2.07673

>  <SCORE.RESTR.CAVITY>
2.07673

>  <SCORE.RESTR.norm>
0.0716112

>  <SCORE.SYSTEM>
0

>  <SCORE.SYSTEM.CONST>
0

>  <SCORE.SYSTEM.DIHEDRAL>
0

>  <SCORE.SYSTEM.SOLV>
0

>  <SCORE.SYSTEM.norm>
0

>  <SCORE.heavy>
29

>  <SCORE.norm>
-0.620142

>  <RMSD>
17.894

$$$$
ligand
 OpenBabel11021811473D
libRbt.so/2013.1/901 2013/11/27
 29 31  0  0  0  0  0  0  0  0999 V2000
   18.6913   28.9578   10.3886 C   0  0  0  0  0  0  0  0  0  0  0  0
   18.2396   29.6000    9.1918 O   0  0  0  0  0  0  0  0  0  0  0  0
   19.7313   27.9043   10.0324 C   0  0  1  0  0  0  0  0  0  0  0  0
   20.7643   28.5255    9.2739 O   0  0  0  0  0  0  0  0  0  0  0  0
   20.3075   27.2731   11.2934 C   0  0  1  0  0  0  0  0  0  0  0  0
   20.7232   28.3359   12.1432 O   0  0  0  0  0  0  0  0  0  0  0  0
   19.3521   26.3426   12.0462 C   0  0  1  0  0  0  0  0  0  0  0  0
   20.0532   25.7739   13.1529 O   0  0  0  0  0  0  0  0  0  0  0  0
   18.1104   27.0511   12.5838 C   0  0  0  0  0  0  0  0  0  0  0  0
   17.4145   26.5217   15.2684 N   0  0  0  0  0  0  0  0  0  0  0  0
   17.1000   26.2945   16.5751 C   0  0  0  0  0  0  0  0  0  0  0  0
   17.7027   26.9090   17.4903 O   0  0  0  0  0  0  0  0  0  0  0  0
   16.1356   25.3975   16.9026 N   0  0  0  0  0  0  0  0  0  0  0  0
   15.4671   24.7118   15.9414 C   0  0  0  0  0  0  0  0  0  0  0  0
   15.7763   24.9342   14.6044 C   0  0  1  0  0  0  0  0  0  0  0  0
   14.5768   23.8812   16.2494 O   0  0  0  0  0  0  0  0  0  0  0  0
   15.4122   24.4782   12.3427 C   0  0  1  0  0  0  0  0  0  0  0  0
   15.1129   24.2604   13.6398 N   0  0  0  0  0  0  0  0  0  0  0  0
   14.7248   23.7798   11.3563 C   0  0  0  0  0  0  0  0  0  0  0  0
   15.0087   23.9843   10.0105 C   0  0  2  0  0  0  0  0  0  0  0  0
   14.2264   23.1929    8.9941 C   0  0  0  0  0  0  0  0  0  0  0  0
   15.9983   24.9044    9.6416 C   0  0  2  0  0  0  0  0  0  0  0  0
   16.3316   25.1575    8.3401 N   0  0  0  0  0  0  0  0  0  0  0  0
   16.6830   25.5992   10.6461 C   0  0  0  0  0  0  0  0  0  0  0  0
   16.4024   25.3964   11.9970 C   0  0  2  0  0  0  0  0  0  0  0  0
   16.7687   25.8592   14.2655 C   0  0  2  0  0  0  0  0  0  0  0  0
   17.0727   26.0710   12.9591 N   0  0  0  0  0  0  0  0  0  0  0  0
   16.7499   24.0670    7.4798 C   0  0  0  0  0  0  0  0  0  0  0  0
   16.2827   26.4912    7.7639 C   0  0  0  0  0  0  0  0  0  0  0  0
  1  2  1  0  0  0  0
  3  1  1  1  0  0  0
  3  4  1  0  0  0  0
  3  5  1  0  0  0  0
  5  6  1  1  0  0  0
  5  7  1  0  0  0  0
  7  8  1  1  0  0  0
  7  9  1  0  0  0  0
  9 27  1  0  0  0  0
 10 11  1  0  0  0  0
 11 12  2  0  0  0  0
 11 13  1  0  0  0  0
 13 14  1  0  0  0  0
 14 16  2  0  0  0  0
 15 14  1  6  0  0  0
 15 18  1  0  0  0  0
 15 26  1  0  0  0  0
 17 19  1  6  0  0  0
 17 25  1  0  0  0  0
 17 18  1  0  0  0  0
 19 20  1  0  0  0  0
 20 21  1  1  0  0  0
 20 22  1  0  0  0  0
 22 23  1  1  0  0  0
 22 24  1  0  0  0  0
 23 28  1  0  0  0  0
 23 29  1  0  0  0  0
 25 24  1  1  0  0  0
 25 27  1  0  0  0  0
 26 10  1  1  0  0  0
 26 27  1  0  0  0  0
M  END
>  <CHROM.1>
54.68541575,-51.16891081,176.78842178,164.37831059,-56.32452308,-71.68471284
17.21125289,25.98362561,12.12749703,-1.24268555,0.70244542,1.56752075

>  <Name>
ligand

>  <RI>
0

>  <Rbt.Current_Directory>
/home/itssahil/PROJECTS/Mol_Feturizer/New_Systems/rnas/3F4H

>  <Rbt.Executable>
rbdock ($Id: //depot/dev/client3/rdock/2013.1/src/exe/rbdock.cxx#4 $)

>  <Rbt.Library>
libRbt.so (2013.1, Build901 2013/11/27)

>  <Rbt.Parameter_File>
/export/apps/rDock/src/rDock_2013.1_src/data/scripts/dock_solv.prm

>  <Rbt.Receptor>
prm/blind_docking_40.prm

>  <SCORE>
-11.6953

>  <SCORE.INTER>
-1.67559

>  <SCORE.INTER.CONST>
1

>  <SCORE.INTER.POLAR>
0

>  <SCORE.INTER.ROT>
6

>  <SCORE.INTER.SOLV>
14.9229

>  <SCORE.INTER.VDW>
-13.6914

>  <SCORE.INTER.norm>
-0.0577788

>  <SCORE.INTRA>
-14.3427

>  <SCORE.INTRA.DIHEDRAL>
-3.52293

>  <SCORE.INTRA.DIHEDRAL.0>
6.83446

>  <SCORE.INTRA.POLAR>
0

>  <SCORE.INTRA.POLAR.0>
0

>  <SCORE.INTRA.REPUL>
0

>  <SCORE.INTRA.REPUL.0>
0

>  <SCORE.INTRA.SOLV>
-0.369114

>  <SCORE.INTRA.SOLV.lig_0>
-26.4601

>  <SCORE.INTRA.VDW>
-12.3967

>  <SCORE.INTRA.VDW.0>
13.7853

>  <SCORE.INTRA.norm>
-0.494575

>  <SCORE.RESTR>
4.32293

>  <SCORE.RESTR.CAVITY>
4.32293

>  <SCORE.RESTR.norm>
0.149066

>  <SCORE.SYSTEM>
0

>  <SCORE.SYSTEM.CONST>
0

>  <SCORE.SYSTEM.DIHEDRAL>
0

>  <SCORE.SYSTEM.SOLV>
0

>  <SCORE.SYSTEM.norm>
0

>  <SCORE.heavy>
29

>  <SCORE.norm>
-0.403288

>  <RMSD>
17.931

$$$$
ligand
 OpenBabel11021811473D
libRbt.so/2013.1/901 2013/11/27
 29 31  0  0  0  0  0  0  0  0999 V2000
   12.4236   24.0139   10.3607 C   0  0  0  0  0  0  0  0  0  0  0  0
   12.2697   23.7528    8.9617 O   0  0  0  0  0  0  0  0  0  0  0  0
   13.7084   24.7986   10.5876 C   0  0  1  0  0  0  0  0  0  0  0  0
   13.7441   25.2269   11.9454 O   0  0  0  0  0  0  0  0  0  0  0  0
   14.9246   23.9372   10.2726 C   0  0  1  0  0  0  0  0  0  0  0  0
   14.9689   23.7730    8.8599 O   0  0  0  0  0  0  0  0  0  0  0  0
   16.2594   24.4922   10.7783 C   0  0  1  0  0  0  0  0  0  0  0  0
   17.3063   23.6301   10.3304 O   0  0  0  0  0  0  0  0  0  0  0  0
   16.5599   25.9038   10.2785 C   0  0  0  0  0  0  0  0  0  0  0  0
   18.7428   27.3467    9.2182 N   0  0  0  0  0  0  0  0  0  0  0  0
   19.7817   28.0402    8.6725 C   0  0  0  0  0  0  0  0  0  0  0  0
   19.9030   28.1268    7.4250 O   0  0  0  0  0  0  0  0  0  0  0  0
   20.7003   28.6408    9.4710 N   0  0  0  0  0  0  0  0  0  0  0  0
   20.6043   28.5646   10.8222 C   0  0  0  0  0  0  0  0  0  0  0  0
   19.5493   27.8618   11.3929 C   0  0  1  0  0  0  0  0  0  0  0  0
   21.4580   29.1203   11.5570 O   0  0  0  0  0  0  0  0  0  0  0  0
   18.4170   27.1039   13.2900 C   0  0  1  0  0  0  0  0  0  0  0  0
   19.4420   27.7844   12.7371 N   0  0  0  0  0  0  0  0  0  0  0  0
   18.3145   27.0288   14.6746 C   0  0  0  0  0  0  0  0  0  0  0  0
   17.2680   26.3370   15.2744 C   0  0  2  0  0  0  0  0  0  0  0  0
   17.2186   26.2947   16.7801 C   0  0  0  0  0  0  0  0  0  0  0  0
   16.3041   25.7077   14.4763 C   0  0  2  0  0  0  0  0  0  0  0  0
   15.2485   25.0102   14.9945 N   0  0  0  0  0  0  0  0  0  0  0  0
   16.4212   25.7909   13.0835 C   0  0  0  0  0  0  0  0  0  0  0  0
   17.4697   26.4826   12.4778 C   0  0  2  0  0  0  0  0  0  0  0  0
   18.6013   27.2438   10.5714 C   0  0  2  0  0  0  0  0  0  0  0  0
   17.5746   26.5534   11.1310 N   0  0  0  0  0  0  0  0  0  0  0  0
   15.1474   23.5817   14.7629 C   0  0  0  0  0  0  0  0  0  0  0  0
   14.2045   25.6414   15.7847 C   0  0  0  0  0  0  0  0  0  0  0  0
  1  2  1  0  0  0  0
  3  1  1  1  0  0  0
  3  4  1  0  0  0  0
  3  5  1  0  0  0  0
  5  6  1  6  0  0  0
  5  7  1  0  0  0  0
  7  8  1  6  0  0  0
  7  9  1  0  0  0  0
  9 27  1  0  0  0  0
 10 11  1  0  0  0  0
 11 12  2  0  0  0  0
 11 13  1  0  0  0  0
 13 14  1  0  0  0  0
 14 16  2  0  0  0  0
 15 14  1  1  0  0  0
 15 18  1  0  0  0  0
 15 26  1  0  0  0  0
 17 19  1  1  0  0  0
 17 25  1  0  0  0  0
 17 18  1  0  0  0  0
 19 20  1  0  0  0  0
 20 21  1  6  0  0  0
 20 22  1  0  0  0  0
 22 23  1  6  0  0  0
 22 24  1  0  0  0  0
 23 28  1  0  0  0  0
 23 29  1  0  0  0  0
 25 24  1  6  0  0  0
 25 27  1  0  0  0  0
 26 10  1  6  0  0  0
 26 27  1  0  0  0  0
M  END
>  <CHROM.1>
171.17119995,71.42124112,-176.04321229,160.46840787,-115.30635371,-45.78641627
16.98191729,26.07582844,11.70440134,2.89720892,0.57483104,1.52920120

>  <Name>
ligand

>  <RI>
0

>  <Rbt.Current_Directory>
/home/itssahil/PROJECTS/Mol_Feturizer/New_Systems/rnas/3F4H

>  <Rbt.Executable>
rbdock ($Id: //depot/dev/client3/rdock/2013.1/src/exe/rbdock.cxx#4 $)

>  <Rbt.Library>
libRbt.so (2013.1, Build901 2013/11/27)

>  <Rbt.Parameter_File>
/export/apps/rDock/src/rDock_2013.1_src/data/scripts/dock_solv.prm

>  <Rbt.Receptor>
prm/blind_docking_40.prm

>  <SCORE>
-17.2217

>  <SCORE.INTER>
-5.708

>  <SCORE.INTER.CONST>
1

>  <SCORE.INTER.POLAR>
0

>  <SCORE.INTER.ROT>
6

>  <SCORE.INTER.SOLV>
9.0745

>  <SCORE.INTER.VDW>
-14.4302

>  <SCORE.INTER.norm>
-0.196828

>  <SCORE.INTRA>
-14.4834

>  <SCORE.INTRA.DIHEDRAL>
-2.76521

>  <SCORE.INTRA.DIHEDRAL.0>
6.83446

>  <SCORE.INTRA.POLAR>
0

>  <SCORE.INTRA.POLAR.0>
0

>  <SCORE.INTRA.REPUL>
0

>  <SCORE.INTRA.REPUL.0>
0

>  <SCORE.INTRA.SOLV>
0.471393

>  <SCORE.INTRA.SOLV.lig_0>
-26.4601

>  <SCORE.INTRA.VDW>
-13.3365

>  <SCORE.INTRA.VDW.0>
13.7853

>  <SCORE.INTRA.norm>
-0.499427

>  <SCORE.RESTR>
2.96968

>  <SCORE.RESTR.CAVITY>
2.96968

>  <SCORE.RESTR.norm>
0.102403

>  <SCORE.SYSTEM>
0

>  <SCORE.SYSTEM.CONST>
0

>  <SCORE.SYSTEM.DIHEDRAL>
0

>  <SCORE.SYSTEM.SOLV>
0

>  <SCORE.SYSTEM.norm>
0

>  <SCORE.heavy>
29

>  <SCORE.norm>
-0.593852

>  <RMSD>
17.942

$$$$
ligand
 OpenBabel11021811473D
libRbt.so/2013.1/901 2013/11/27
 29 31  0  0  0  0  0  0  0  0999 V2000
   12.5661   23.7675   10.0087 C   0  0  0  0  0  0  0  0  0  0  0  0
   12.0244   24.5757    8.9587 O   0  0  0  0  0  0  0  0  0  0  0  0
   13.7134   24.5132   10.6765 C   0  0  1  0  0  0  0  0  0  0  0  0
   14.2064   23.7181   11.7504 O   0  0  0  0  0  0  0  0  0  0  0  0
   14.8246   24.7949    9.6734 C   0  0  1  0  0  0  0  0  0  0  0  0
   14.4413   25.9489    8.9344 O   0  0  0  0  0  0  0  0  0  0  0  0
   16.2128   25.0018   10.2863 C   0  0  1  0  0  0  0  0  0  0  0  0
   17.1797   24.3873    9.4336 O   0  0  0  0  0  0  0  0  0  0  0  0
   16.5917   26.4720   10.4523 C   0  0  0  0  0  0  0  0  0  0  0  0
   19.1766   27.5296   10.0385 N   0  0  0  0  0  0  0  0  0  0  0  0
   20.4150   28.0486    9.8039 C   0  0  0  0  0  0  0  0  0  0  0  0
   20.7544   28.3833    8.6415 O   0  0  0  0  0  0  0  0  0  0  0  0
   21.2976   28.2047   10.8230 N   0  0  0  0  0  0  0  0  0  0  0  0
   20.9679   27.8499   12.0903 C   0  0  0  0  0  0  0  0  0  0  0  0
   19.7079   27.3204   12.3448 C   0  0  1  0  0  0  0  0  0  0  0  0
   21.7889   27.9942   13.0298 O   0  0  0  0  0  0  0  0  0  0  0  0
   18.1446   26.4570   13.8502 C   0  0  1  0  0  0  0  0  0  0  0  0
   19.3680   26.9688   13.6039 N   0  0  0  0  0  0  0  0  0  0  0  0
   17.8034   26.0972   15.1493 C   0  0  0  0  0  0  0  0  0  0  0  0
   16.5491   25.5694   15.4353 C   0  0  2  0  0  0  0  0  0  0  0  0
   16.2462   25.1998   16.8647 C   0  0  0  0  0  0  0  0  0  0  0  0
   15.6165   25.3974   14.4045 C   0  0  2  0  0  0  0  0  0  0  0  0
   14.3657   24.8850   14.6098 N   0  0  0  0  0  0  0  0  0  0  0  0
   15.9750   25.7630   13.1013 C   0  0  0  0  0  0  0  0  0  0  0  0
   17.2321   26.2916   12.8096 C   0  0  2  0  0  0  0  0  0  0  0  0
   18.7969   27.1604   11.2960 C   0  0  2  0  0  0  0  0  0  0  0  0
   17.5686   26.6381   11.5460 N   0  0  0  0  0  0  0  0  0  0  0  0
   14.1542   23.4519   14.5330 C   0  0  0  0  0  0  0  0  0  0  0  0
   13.2160   25.7218   14.9110 C   0  0  0  0  0  0  0  0  0  0  0  0
  1  2  1  0  0  0  0
  3  1  1  6  0  0  0
  3  4  1  0  0  0  0
  3  5  1  0  0  0  0
  5  6  1  1  0  0  0
  5  7  1  0  0  0  0
  7  8  1  6  0  0  0
  7  9  1  0  0  0  0
  9 27  1  0  0  0  0
 10 11  1  0  0  0  0
 11 12  2  0  0  0  0
 11 13  1  0  0  0  0
 13 14  1  0  0  0  0
 14 16  2  0  0  0  0
 15 14  1  1  0  0  0
 15 18  1  0  0  0  0
 15 26  1  0  0  0  0
 17 19  1  1  0  0  0
 17 25  1  0  0  0  0
 17 18  1  0  0  0  0
 19 20  1  0  0  0  0
 20 21  1  6  0  0  0
 20 22  1  0  0  0  0
 22 23  1  6  0  0  0
 22 24  1  0  0  0  0
 23 28  1  0  0  0  0
 23 29  1  0  0  0  0
 25 24  1  6  0  0  0
 25 27  1  0  0  0  0
 26 10  1  6  0  0  0
 26 27  1  0  0  0  0
M  END
>  <CHROM.1>
177.78455653,81.16206040,141.60003906,153.97134214,-89.00602820,-61.82339230
16.85834699,25.96883335,11.96920637,3.02640066,0.44636676,1.63087238

>  <Name>
ligand

>  <RI>
0

>  <Rbt.Current_Directory>
/home/itssahil/PROJECTS/Mol_Feturizer/New_Systems/rnas/3F4H

>  <Rbt.Executable>
rbdock ($Id: //depot/dev/client3/rdock/2013.1/src/exe/rbdock.cxx#4 $)

>  <Rbt.Library>
libRbt.so (2013.1, Build901 2013/11/27)

>  <Rbt.Parameter_File>
/export/apps/rDock/src/rDock_2013.1_src/data/scripts/dock_solv.prm

>  <Rbt.Receptor>
prm/blind_docking_40.prm

>  <SCORE>
-4.2479

>  <SCORE.INTER>
7.35334

>  <SCORE.INTER.CONST>
1

>  <SCORE.INTER.POLAR>
0

>  <SCORE.INTER.ROT>
6

>  <SCORE.INTER.SOLV>
9.67817

>  <SCORE.INTER.VDW>
-5.92383

>  <SCORE.INTER.norm>
0.253563

>  <SCORE.INTRA>
-12.9864

>  <SCORE.INTRA.DIHEDRAL>
2.65738

>  <SCORE.INTRA.DIHEDRAL.0>
6.83446

>  <SCORE.INTRA.POLAR>
0

>  <SCORE.INTRA.POLAR.0>
0

>  <SCORE.INTRA.REPUL>
0

>  <SCORE.INTRA.REPUL.0>
0

>  <SCORE.INTRA.SOLV>
0.689013

>  <SCORE.INTRA.SOLV.lig_0>
-26.4601

>  <SCORE.INTRA.VDW>
-14.6596

>  <SCORE.INTRA.VDW.0>
13.7853

>  <SCORE.INTRA.norm>
-0.447809

>  <SCORE.RESTR>
1.38521

>  <SCORE.RESTR.CAVITY>
1.38521

>  <SCORE.RESTR.norm>
0.0477659

>  <SCORE.SYSTEM>
0

>  <SCORE.SYSTEM.CONST>
0

>  <SCORE.SYSTEM.DIHEDRAL>
0

>  <SCORE.SYSTEM.SOLV>
0

>  <SCORE.SYSTEM.norm>
0

>  <SCORE.heavy>
29

>  <SCORE.norm>
-0.146479

>  <RMSD>
17.955

$$$$
ligand
 OpenBabel11021811473D
libRbt.so/2013.1/901 2013/11/27
 29 31  0  0  0  0  0  0  0  0999 V2000
   13.3003   25.1028   11.7686 C   0  0  0  0  0  0  0  0  0  0  0  0
   14.2865   25.4409   12.7494 O   0  0  0  0  0  0  0  0  0  0  0  0
   13.8623   24.0380   10.8365 C   0  0  1  0  0  0  0  0  0  0  0  0
   12.7834   23.4536   10.1134 O   0  0  0  0  0  0  0  0  0  0  0  0
   14.8742   24.6481    9.8752 C   0  0  1  0  0  0  0  0  0  0  0  0
   14.2002   25.6675    9.1464 O   0  0  0  0  0  0  0  0  0  0  0  0
   16.1318   25.2200   10.5363 C   0  0  1  0  0  0  0  0  0  0  0  0
   15.8562   26.5591   10.9493 O   0  0  0  0  0  0  0  0  0  0  0  0
   16.5886   24.4296   11.7607 C   0  0  0  0  0  0  0  0  0  0  0  0
   15.8011   24.4901   14.4713 N   0  0  0  0  0  0  0  0  0  0  0  0
   15.3993   24.4897   15.7739 C   0  0  0  0  0  0  0  0  0  0  0  0
   14.4698   23.7339   16.1524 O   0  0  0  0  0  0  0  0  0  0  0  0
   15.9954   25.3101   16.6759 N   0  0  0  0  0  0  0  0  0  0  0  0
   16.9990   26.1433   16.3025 C   0  0  0  0  0  0  0  0  0  0  0  0
   17.4202   26.1535   14.9777 C   0  0  1  0  0  0  0  0  0  0  0  0
   17.5462   26.9022   17.1404 O   0  0  0  0  0  0  0  0  0  0  0  0
   18.8313   26.9836   13.3117 C   0  0  1  0  0  0  0  0  0  0  0  0
   18.4220   26.9757   14.5969 N   0  0  0  0  0  0  0  0  0  0  0  0
   19.8629   27.8335   12.9284 C   0  0  0  0  0  0  0  0  0  0  0  0
   20.3088   27.8627   11.6116 C   0  0  2  0  0  0  0  0  0  0  0  0
   21.4298   28.8084   11.2650 C   0  0  0  0  0  0  0  0  0  0  0  0
   19.7136   27.0267   10.6583 C   0  0  2  0  0  0  0  0  0  0  0  0
   20.0986   27.0008    9.3467 N   0  0  0  0  0  0  0  0  0  0  0  0
   18.6751   26.1773   11.0589 C   0  0  0  0  0  0  0  0  0  0  0  0
   18.2238   26.1456   12.3780 C   0  0  2  0  0  0  0  0  0  0  0  0
   16.8079   25.3077   14.0475 C   0  0  2  0  0  0  0  0  0  0  0  0
   17.2173   25.3232   12.7529 N   0  0  0  0  0  0  0  0  0  0  0  0
   19.8194   28.1397    8.4927 C   0  0  0  0  0  0  0  0  0  0  0  0
   20.7909   25.8676    8.7556 C   0  0  0  0  0  0  0  0  0  0  0  0
  1  2  1  0  0  0  0
  3  1  1  1  0  0  0
  3  4  1  0  0  0  0
  3  5  1  0  0  0  0
  5  6  1  1  0  0  0
  5  7  1  0  0  0  0
  7  8  1  1  0  0  0
  7  9  1  0  0  0  0
  9 27  1  0  0  0  0
 10 11  1  0  0  0  0
 11 12  2  0  0  0  0
 11 13  1  0  0  0  0
 13 14  1  0  0  0  0
 14 16  2  0  0  0  0
 15 14  1  1  0  0  0
 15 18  1  0  0  0  0
 15 26  1  0  0  0  0
 17 19  1  1  0  0  0
 17 25  1  0  0  0  0
 17 18  1  0  0  0  0
 19 20  1  0  0  0  0
 20 21  1  6  0  0  0
 20 22  1  0  0  0  0
 22 23  1  6  0  0  0
 22 24  1  0  0  0  0
 23 28  1  0  0  0  0
 23 29  1  0  0  0  0
 25 24  1  6  0  0  0
 25 27  1  0  0  0  0
 26 10  1  6  0  0  0
 26 27  1  0  0  0  0
M  END
>  <CHROM.1>
164.34477890,-58.59140203,-85.39582447,-147.70838172,-69.42095790,-52.79711031
17.01330913,25.88334143,12.38553656,2.54763565,0.46777903,1.57560500

>  <Name>
ligand

>  <RI>
0

>  <Rbt.Current_Directory>
/home/itssahil/PROJECTS/Mol_Feturizer/New_Systems/rnas/3F4H

>  <Rbt.Executable>
rbdock ($Id: //depot/dev/client3/rdock/2013.1/src/exe/rbdock.cxx#4 $)

>  <Rbt.Library>
libRbt.so (2013.1, Build901 2013/11/27)

>  <Rbt.Parameter_File>
/export/apps/rDock/src/rDock_2013.1_src/data/scripts/dock_solv.prm

>  <Rbt.Receptor>
prm/blind_docking_40.prm

>  <SCORE>
-15.948

>  <SCORE.INTER>
-8.03154

>  <SCORE.INTER.CONST>
1

>  <SCORE.INTER.POLAR>
0

>  <SCORE.INTER.ROT>
6

>  <SCORE.INTER.SOLV>
10.051

>  <SCORE.INTER.VDW>
-16.3047

>  <SCORE.INTER.norm>
-0.27695

>  <SCORE.INTRA>
-9.85299

>  <SCORE.INTRA.DIHEDRAL>
1.04647

>  <SCORE.INTRA.DIHEDRAL.0>
6.83446

>  <SCORE.INTRA.POLAR>
0

>  <SCORE.INTRA.POLAR.0>
0

>  <SCORE.INTRA.REPUL>
0

>  <SCORE.INTRA.REPUL.0>
0

>  <SCORE.INTRA.SOLV>
1.31043

>  <SCORE.INTRA.SOLV.lig_0>
-26.4601

>  <SCORE.INTRA.VDW>
-11.0314

>  <SCORE.INTRA.VDW.0>
13.7853

>  <SCORE.INTRA.norm>
-0.339758

>  <SCORE.RESTR>
1.9365

>  <SCORE.RESTR.CAVITY>
1.9365

>  <SCORE.RESTR.norm>
0.0667758

>  <SCORE.SYSTEM>
0

>  <SCORE.SYSTEM.CONST>
0

>  <SCORE.SYSTEM.DIHEDRAL>
0

>  <SCORE.SYSTEM.SOLV>
0

>  <SCORE.SYSTEM.norm>
0

>  <SCORE.heavy>
29

>  <SCORE.norm>
-0.549932

>  <RMSD>
17.955

$$$$
ligand
 OpenBabel11021811473D
libRbt.so/2013.1/901 2013/11/27
 29 31  0  0  0  0  0  0  0  0999 V2000
   18.9251   27.2174    9.3642 C   0  0  0  0  0  0  0  0  0  0  0  0
   19.5990   26.0074    9.0026 O   0  0  0  0  0  0  0  0  0  0  0  0
   19.8451   28.0656   10.2315 C   0  0  1  0  0  0  0  0  0  0  0  0
   19.1071   29.1825   10.7175 O   0  0  0  0  0  0  0  0  0  0  0  0
   20.3910   27.2461   11.3937 C   0  0  1  0  0  0  0  0  0  0  0  0
   20.9143   28.1644   12.3464 O   0  0  0  0  0  0  0  0  0  0  0  0
   19.3749   26.3169   12.0641 C   0  0  1  0  0  0  0  0  0  0  0  0
   20.0087   25.6793   13.1738 O   0  0  0  0  0  0  0  0  0  0  0  0
   18.1336   27.0428   12.5788 C   0  0  0  0  0  0  0  0  0  0  0  0
   17.4240   26.5399   15.2649 N   0  0  0  0  0  0  0  0  0  0  0  0
   17.1032   26.3253   16.5722 C   0  0  0  0  0  0  0  0  0  0  0  0
   17.7096   26.9398   17.4850 O   0  0  0  0  0  0  0  0  0  0  0  0
   16.1283   25.4409   16.9030 N   0  0  0  0  0  0  0  0  0  0  0  0
   15.4554   24.7555   15.9447 C   0  0  0  0  0  0  0  0  0  0  0  0
   15.7710   24.9652   14.6071 C   0  0  1  0  0  0  0  0  0  0  0  0
   14.5555   23.9366   16.2558 O   0  0  0  0  0  0  0  0  0  0  0  0
   15.4090   24.4971   12.3476 C   0  0  1  0  0  0  0  0  0  0  0  0
   15.1035   24.2917   13.6452 N   0  0  0  0  0  0  0  0  0  0  0  0
   14.7171   23.7990   11.3639 C   0  0  0  0  0  0  0  0  0  0  0  0
   15.0073   23.9909   10.0176 C   0  0  2  0  0  0  0  0  0  0  0  0
   14.2196   23.2007    9.0044 C   0  0  0  0  0  0  0  0  0  0  0  0
   16.0077   24.8979    9.6453 C   0  0  2  0  0  0  0  0  0  0  0  0
   16.3476   25.1382    8.3431 N   0  0  0  0  0  0  0  0  0  0  0  0
   16.6966   25.5924   10.6470 C   0  0  0  0  0  0  0  0  0  0  0  0
   16.4098   25.4023   11.9984 C   0  0  2  0  0  0  0  0  0  0  0  0
   16.7742   25.8772   14.2647 C   0  0  2  0  0  0  0  0  0  0  0  0
   17.0844   26.0764   12.9578 N   0  0  0  0  0  0  0  0  0  0  0  0
   16.2275   26.4798    7.8045 C   0  0  0  0  0  0  0  0  0  0  0  0
   16.8366   24.0959    7.4558 C   0  0  0  0  0  0  0  0  0  0  0  0
  1  2  1  0  0  0  0
  3  1  1  1  0  0  0
  3  4  1  0  0  0  0
  3  5  1  0  0  0  0
  5  6  1  1  0  0  0
  5  7  1  0  0  0  0
  7  8  1  1  0  0  0
  7  9  1  0  0  0  0
  9 27  1  0  0  0  0
 10 11  1  0  0  0  0
 11 12  2  0  0  0  0
 11 13  1  0  0  0  0
 13 14  1  0  0  0  0
 14 16  2  0  0  0  0
 15 14  1  6  0  0  0
 15 18  1  0  0  0  0
 15 26  1  0  0  0  0
 17 19  1  6  0  0  0
 17 25  1  0  0  0  0
 17 18  1  0  0  0  0
 19 20  1  0  0  0  0
 20 21  1  1  0  0  0
 20 22  1  0  0  0  0
 22 23  1  1  0  0  0
 22 24  1  0  0  0  0
 23 28  1  0  0  0  0
 23 29  1  0  0  0  0
 25 24  1  1  0  0  0
 25 27  1  0  0  0  0
 26 10  1  1  0  0  0
 26 27  1  0  0  0  0
M  END
>  <CHROM.1>
-172.91012861,-163.89676118,-176.71256581,168.42232715,120.38768045,-72.29180492
17.22279810,25.80904344,12.16303511,-1.38276221,0.62654463,1.50037071

>  <Name>
ligand

>  <RI>
0

>  <Rbt.Current_Directory>
/home/itssahil/PROJECTS/Mol_Feturizer/New_Systems/rnas/3F4H

>  <Rbt.Executable>
rbdock ($Id: //depot/dev/client3/rdock/2013.1/src/exe/rbdock.cxx#4 $)

>  <Rbt.Library>
libRbt.so (2013.1, Build901 2013/11/27)

>  <Rbt.Parameter_File>
/export/apps/rDock/src/rDock_2013.1_src/data/scripts/dock_solv.prm

>  <Rbt.Receptor>
prm/blind_docking_40.prm

>  <SCORE>
-11.2746

>  <SCORE.INTER>
-1.1323

>  <SCORE.INTER.CONST>
1

>  <SCORE.INTER.POLAR>
0

>  <SCORE.INTER.ROT>
6

>  <SCORE.INTER.SOLV>
13.1859

>  <SCORE.INTER.VDW>
-12.7502

>  <SCORE.INTER.norm>
-0.0390447

>  <SCORE.INTRA>
-14.435

>  <SCORE.INTRA.DIHEDRAL>
-3.19763

>  <SCORE.INTRA.DIHEDRAL.0>
6.83446

>  <SCORE.INTRA.POLAR>
0

>  <SCORE.INTRA.POLAR.0>
0

>  <SCORE.INTRA.REPUL>
0

>  <SCORE.INTRA.REPUL.0>
0

>  <SCORE.INTRA.SOLV>
0.932111

>  <SCORE.INTRA.SOLV.lig_0>
-26.4601

>  <SCORE.INTRA.VDW>
-13.3022

>  <SCORE.INTRA.VDW.0>
13.7853

>  <SCORE.INTRA.norm>
-0.497758

>  <SCORE.RESTR>
4.2927

>  <SCORE.RESTR.CAVITY>
4.2927

>  <SCORE.RESTR.norm>
0.148024

>  <SCORE.SYSTEM>
0

>  <SCORE.SYSTEM.CONST>
0

>  <SCORE.SYSTEM.DIHEDRAL>
0

>  <SCORE.SYSTEM.SOLV>
0

>  <SCORE.SYSTEM.norm>
0

>  <SCORE.heavy>
29

>  <SCORE.norm>
-0.388779

>  <RMSD>
18.027

$$$$
ligand
 OpenBabel11021811473D
libRbt.so/2013.1/901 2013/11/27
 29 31  0  0  0  0  0  0  0  0999 V2000
   20.6074   28.1078    8.5342 C   0  0  0  0  0  0  0  0  0  0  0  0
   20.5979   29.4433    9.0492 O   0  0  0  0  0  0  0  0  0  0  0  0
   20.4166   27.1249    9.6812 C   0  0  1  0  0  0  0  0  0  0  0  0
   21.6447   27.0167   10.3943 O   0  0  0  0  0  0  0  0  0  0  0  0
   19.3052   27.5958   10.6104 C   0  0  1  0  0  0  0  0  0  0  0  0
   18.1637   27.8568    9.8020 O   0  0  0  0  0  0  0  0  0  0  0  0
   18.9413   26.6182   11.7318 C   0  0  1  0  0  0  0  0  0  0  0  0
   20.1153   26.3559   12.5016 O   0  0  0  0  0  0  0  0  0  0  0  0
   17.8633   27.1482   12.6750 C   0  0  0  0  0  0  0  0  0  0  0  0
   17.2099   26.4975   15.3435 N   0  0  0  0  0  0  0  0  0  0  0  0
   16.9137   26.2129   16.6433 C   0  0  0  0  0  0  0  0  0  0  0  0
   17.4667   26.8484   17.5754 O   0  0  0  0  0  0  0  0  0  0  0  0
   16.0216   25.2358   16.9454 N   0  0  0  0  0  0  0  0  0  0  0  0
   15.4084   24.5254   15.9655 C   0  0  0  0  0  0  0  0  0  0  0  0
   15.6998   24.8055   14.6353 C   0  0  1  0  0  0  0  0  0  0  0  0
   14.5851   23.6206   16.2500 O   0  0  0  0  0  0  0  0  0  0  0  0
   15.3727   24.3812   12.3619 C   0  0  1  0  0  0  0  0  0  0  0  0
   15.0909   24.1075   13.6522 N   0  0  0  0  0  0  0  0  0  0  0  0
   14.7417   23.6573   11.3562 C   0  0  0  0  0  0  0  0  0  0  0  0
   15.0093   23.9178   10.0168 C   0  0  2  0  0  0  0  0  0  0  0  0
   14.2909   23.0947    8.9786 C   0  0  0  0  0  0  0  0  0  0  0  0
   15.9247   24.9211    9.6739 C   0  0  2  0  0  0  0  0  0  0  0  0
   16.2377   25.2328    8.3801 N   0  0  0  0  0  0  0  0  0  0  0  0
   16.5532   25.6406   10.6975 C   0  0  0  0  0  0  0  0  0  0  0  0
   16.2888   25.3820   12.0420 C   0  0  2  0  0  0  0  0  0  0  0  0
   16.6176   25.8130   14.3225 C   0  0  2  0  0  0  0  0  0  0  0  0
   16.9046   26.0813   13.0227 N   0  0  0  0  0  0  0  0  0  0  0  0
   16.0728   26.5947    7.9085 C   0  0  0  0  0  0  0  0  0  0  0  0
   16.7411   24.2481    7.4367 C   0  0  0  0  0  0  0  0  0  0  0  0
  1  2  1  0  0  0  0
  3  1  1  6  0  0  0
  3  4  1  0  0  0  0
  3  5  1  0  0  0  0
  5  6  1  6  0  0  0
  5  7  1  0  0  0  0
  7  8  1  1  0  0  0
  7  9  1  0  0  0  0
  9 27  1  0  0  0  0
 10 11  1  0  0  0  0
 11 12  2  0  0  0  0
 11 13  1  0  0  0  0
 13 14  1  0  0  0  0
 14 16  2  0  0  0  0
 15 14  1  6  0  0  0
 15 18  1  0  0  0  0
 15 26  1  0  0  0  0
 17 19  1  6  0  0  0
 17 25  1  0  0  0  0
 17 18  1  0  0  0  0
 19 20  1  0  0  0  0
 20 21  1  1  0  0  0
 20 22  1  0  0  0  0
 22 23  1  1  0  0  0
 22 24  1  0  0  0  0
 23 28  1  0  0  0  0
 23 29  1  0  0  0  0
 25 24  1  1  0  0  0
 25 27  1  0  0  0  0
 26 10  1  1  0  0  0
 26 27  1  0  0  0  0
M  END
>  <CHROM.1>
-76.51502219,52.07307375,57.52676434,138.99228192,124.04362791,-53.54411914
17.21539449,25.85299784,11.96540185,-1.07380556,0.63297727,1.52325537

>  <Name>
ligand

>  <RI>
0

>  <Rbt.Current_Directory>
/home/itssahil/PROJECTS/Mol_Feturizer/New_Systems/rnas/3F4H

>  <Rbt.Executable>
rbdock ($Id: //depot/dev/client3/rdock/2013.1/src/exe/rbdock.cxx#4 $)

>  <Rbt.Library>
libRbt.so (2013.1, Build901 2013/11/27)

>  <Rbt.Parameter_File>
/export/apps/rDock/src/rDock_2013.1_src/data/scripts/dock_solv.prm

>  <Rbt.Receptor>
prm/blind_docking_40.prm

>  <SCORE>
-6.23758

>  <SCORE.INTER>
1.48273

>  <SCORE.INTER.CONST>
1

>  <SCORE.INTER.POLAR>
0

>  <SCORE.INTER.ROT>
6

>  <SCORE.INTER.SOLV>
11.4505

>  <SCORE.INTER.VDW>
-10.4283

>  <SCORE.INTER.norm>
0.0511286

>  <SCORE.INTRA>
-12.2409

>  <SCORE.INTRA.DIHEDRAL>
0.438069

>  <SCORE.INTRA.DIHEDRAL.0>
6.83446

>  <SCORE.INTRA.POLAR>
0

>  <SCORE.INTRA.POLAR.0>
0

>  <SCORE.INTRA.REPUL>
0

>  <SCORE.INTRA.REPUL.0>
0

>  <SCORE.INTRA.SOLV>
0.598703

>  <SCORE.INTRA.SOLV.lig_0>
-26.4601

>  <SCORE.INTRA.VDW>
-12.7593

>  <SCORE.INTRA.VDW.0>
13.7853

>  <SCORE.INTRA.norm>
-0.4221

>  <SCORE.RESTR>
4.52058

>  <SCORE.RESTR.CAVITY>
4.52058

>  <SCORE.RESTR.norm>
0.155882

>  <SCORE.SYSTEM>
0

>  <SCORE.SYSTEM.CONST>
0

>  <SCORE.SYSTEM.DIHEDRAL>
0

>  <SCORE.SYSTEM.SOLV>
0

>  <SCORE.SYSTEM.norm>
0

>  <SCORE.heavy>
29

>  <SCORE.norm>
-0.215089

>  <RMSD>
18.064

$$$$
ligand
 OpenBabel11021811473D
libRbt.so/2013.1/901 2013/11/27
 29 31  0  0  0  0  0  0  0  0999 V2000
   12.7613   24.1993   11.2146 C   0  0  0  0  0  0  0  0  0  0  0  0
   11.8210   25.0873   10.6012 O   0  0  0  0  0  0  0  0  0  0  0  0
   13.6197   23.5525   10.1362 C   0  0  1  0  0  0  0  0  0  0  0  0
   12.8023   23.2990    8.9978 O   0  0  0  0  0  0  0  0  0  0  0  0
   14.7826   24.4618    9.7606 C   0  0  1  0  0  0  0  0  0  0  0  0
   14.2270   25.6400    9.1879 O   0  0  0  0  0  0  0  0  0  0  0  0
   15.7158   24.8307   10.9175 C   0  0  1  0  0  0  0  0  0  0  0  0
   16.7396   23.8390   11.0065 O   0  0  0  0  0  0  0  0  0  0  0  0
   16.3868   26.1922   10.7476 C   0  0  0  0  0  0  0  0  0  0  0  0
   18.9830   27.1581   10.2016 N   0  0  0  0  0  0  0  0  0  0  0  0
   20.2262   27.6305    9.9029 C   0  0  0  0  0  0  0  0  0  0  0  0
   20.5448   27.8742    8.7122 O   0  0  0  0  0  0  0  0  0  0  0  0
   21.1362   27.8381   10.8882 N   0  0  0  0  0  0  0  0  0  0  0  0
   20.8294   27.5815   12.1847 C   0  0  0  0  0  0  0  0  0  0  0  0
   19.5648   27.1006   12.5044 C   0  0  1  0  0  0  0  0  0  0  0  0
   21.6756   27.7732   13.0928 O   0  0  0  0  0  0  0  0  0  0  0  0
   18.0201   26.3821   14.1022 C   0  0  1  0  0  0  0  0  0  0  0  0
   19.2478   26.8470   13.7927 N   0  0  0  0  0  0  0  0  0  0  0  0
   17.7025   26.1232   15.4310 C   0  0  0  0  0  0  0  0  0  0  0  0
   16.4444   25.6460   15.7820 C   0  0  2  0  0  0  0  0  0  0  0  0
   16.1681   25.3857   17.2405 C   0  0  0  0  0  0  0  0  0  0  0  0
   15.4839   25.4230   14.7872 C   0  0  2  0  0  0  0  0  0  0  0  0
   14.2278   24.9553   15.0566 N   0  0  0  0  0  0  0  0  0  0  0  0
   15.8188   25.6870   13.4535 C   0  0  0  0  0  0  0  0  0  0  0  0
   17.0795   26.1645   13.0968 C   0  0  2  0  0  0  0  0  0  0  0  0
   18.6257   26.8877   11.4904 C   0  0  2  0  0  0  0  0  0  0  0  0
   17.3929   26.4129   11.8045 N   0  0  0  0  0  0  0  0  0  0  0  0
   13.9774   23.5264   15.0577 C   0  0  0  0  0  0  0  0  0  0  0  0
   13.1101   25.8367   15.3514 C   0  0  0  0  0  0  0  0  0  0  0  0
  1  2  1  0  0  0  0
  3  1  1  1  0  0  0
  3  4  1  0  0  0  0
  3  5  1  0  0  0  0
  5  6  1  1  0  0  0
  5  7  1  0  0  0  0
  7  8  1  6  0  0  0
  7  9  1  0  0  0  0
  9 27  1  0  0  0  0
 10 11  1  0  0  0  0
 11 12  2  0  0  0  0
 11 13  1  0  0  0  0
 13 14  1  0  0  0  0
 14 16  2  0  0  0  0
 15 14  1  1  0  0  0
 15 18  1  0  0  0  0
 15 26  1  0  0  0  0
 17 19  1  1  0  0  0
 17 25  1  0  0  0  0
 17 18  1  0  0  0  0
 19 20  1  0  0  0  0
 20 21  1  6  0  0  0
 20 22  1  0  0  0  0
 22 23  1  6  0  0  0
 22 24  1  0  0  0  0
 23 28  1  0  0  0  0
 23 29  1  0  0  0  0
 25 24  1  6  0  0  0
 25 27  1  0  0  0  0
 26 10  1  6  0  0  0
 26 27  1  0  0  0  0
M  END
>  <CHROM.1>
-37.03158538,-64.09623601,88.90204950,-173.01099298,-90.36814247,-47.50296527
16.64955384,25.80467443,12.22596005,3.08576054,0.41644568,1.56327436

>  <Name>
ligand

>  <RI>
0

>  <Rbt.Current_Directory>
/home/itssahil/PROJECTS/Mol_Feturizer/New_Systems/rnas/3F4H

>  <Rbt.Executable>
rbdock ($Id: //depot/dev/client3/rdock/2013.1/src/exe/rbdock.cxx#4 $)

>  <Rbt.Library>
libRbt.so (2013.1, Build901 2013/11/27)

>  <Rbt.Parameter_File>
/export/apps/rDock/src/rDock_2013.1_src/data/scripts/dock_solv.prm

>  <Rbt.Receptor>
prm/blind_docking_40.prm

>  <SCORE>
7.44109

>  <SCORE.INTER>
18.97

>  <SCORE.INTER.CONST>
1

>  <SCORE.INTER.POLAR>
0

>  <SCORE.INTER.ROT>
6

>  <SCORE.INTER.SOLV>
9.80258

>  <SCORE.INTER.VDW>
1.77911

>  <SCORE.INTER.norm>
0.654136

>  <SCORE.INTRA>
-13.3867

>  <SCORE.INTRA.DIHEDRAL>
-0.389449

>  <SCORE.INTRA.DIHEDRAL.0>
6.83446

>  <SCORE.INTRA.POLAR>
0

>  <SCORE.INTRA.POLAR.0>
0

>  <SCORE.INTRA.REPUL>
0

>  <SCORE.INTRA.REPUL.0>
0

>  <SCORE.INTRA.SOLV>
0.231941

>  <SCORE.INTRA.SOLV.lig_0>
-26.4601

>  <SCORE.INTRA.VDW>
-13.308

>  <SCORE.INTRA.VDW.0>
13.7853

>  <SCORE.INTRA.norm>
-0.461612

>  <SCORE.RESTR>
1.85787

>  <SCORE.RESTR.CAVITY>
1.85787

>  <SCORE.RESTR.norm>
0.0640646

>  <SCORE.SYSTEM>
0

>  <SCORE.SYSTEM.CONST>
0

>  <SCORE.SYSTEM.DIHEDRAL>
0

>  <SCORE.SYSTEM.SOLV>
0

>  <SCORE.SYSTEM.norm>
0

>  <SCORE.heavy>
29

>  <SCORE.norm>
0.256589

>  <RMSD>
18.073

$$$$
ligand
 OpenBabel11021811473D
libRbt.so/2013.1/901 2013/11/27
 29 31  0  0  0  0  0  0  0  0999 V2000
   12.7942   23.4040    9.2616 C   0  0  0  0  0  0  0  0  0  0  0  0
   11.4090   23.7646    9.2680 O   0  0  0  0  0  0  0  0  0  0  0  0
   13.6182   24.5629    9.8059 C   0  0  1  0  0  0  0  0  0  0  0  0
   13.2295   24.8008   11.1553 O   0  0  0  0  0  0  0  0  0  0  0  0
   15.1057   24.2431    9.7325 C   0  0  1  0  0  0  0  0  0  0  0  0
   15.6458   25.0003    8.6556 O   0  0  0  0  0  0  0  0  0  0  0  0
   15.8921   24.5229   11.0166 C   0  0  1  0  0  0  0  0  0  0  0  0
   17.2763   24.2819   10.7606 O   0  0  0  0  0  0  0  0  0  0  0  0
   15.7447   25.9573   11.5200 C   0  0  0  0  0  0  0  0  0  0  0  0
   15.0579   25.5288   14.2248 N   0  0  0  0  0  0  0  0  0  0  0  0
   14.6947   25.3059   15.5196 C   0  0  0  0  0  0  0  0  0  0  0  0
   13.5430   24.8851   15.7935 O   0  0  0  0  0  0  0  0  0  0  0  0
   15.5717   25.5412   16.5283 N   0  0  0  0  0  0  0  0  0  0  0  0
   16.8221   26.0004   16.2708 C   0  0  0  0  0  0  0  0  0  0  0  0
   17.2069   26.2311   14.9550 C   0  0  1  0  0  0  0  0  0  0  0  0
   17.6296   26.2187   17.2078 O   0  0  0  0  0  0  0  0  0  0  0  0
   18.8245   26.9050   13.4107 C   0  0  1  0  0  0  0  0  0  0  0  0
   18.4514   26.6833   14.6878 N   0  0  0  0  0  0  0  0  0  0  0  0
   20.1072   27.3712   13.1448 C   0  0  0  0  0  0  0  0  0  0  0  0
   20.5223   27.6068   11.8387 C   0  0  2  0  0  0  0  0  0  0  0  0
   21.9254   28.1127   11.6226 C   0  0  0  0  0  0  0  0  0  0  0  0
   19.6398   27.3722   10.7766 C   0  0  2  0  0  0  0  0  0  0  0  0
   19.9771   27.5810    9.4683 N   0  0  0  0  0  0  0  0  0  0  0  0
   18.3509   26.9042   11.0601 C   0  0  0  0  0  0  0  0  0  0  0  0
   17.9300   26.6677   12.3683 C   0  0  2  0  0  0  0  0  0  0  0  0
   16.3049   25.9876   13.9146 C   0  0  2  0  0  0  0  0  0  0  0  0
   16.6811   26.2187   12.6305 N   0  0  0  0  0  0  0  0  0  0  0  0
   20.2943   26.4493    8.6180 C   0  0  0  0  0  0  0  0  0  0  0  0
   20.0306   28.9069    8.8750 C   0  0  0  0  0  0  0  0  0  0  0  0
  1  2  1  0  0  0  0
  3  1  1  1  0  0  0
  3  4  1  0  0  0  0
  3  5  1  0  0  0  0
  5  6  1  6  0  0  0
  5  7  1  0  0  0  0
  7  8  1  6  0  0  0
  7  9  1  0  0  0  0
  9 27  1  0  0  0  0
 10 11  1  0  0  0  0
 11 12  2  0  0  0  0
 11 13  1  0  0  0  0
 13 14  1  0  0  0  0
 14 16  2  0  0  0  0
 15 14  1  6  0  0  0
 15 18  1  0  0  0  0
 15 26  1  0  0  0  0
 17 19  1  6  0  0  0
 17 25  1  0  0  0  0
 17 18  1  0  0  0  0
 19 20  1  0  0  0  0
 20 21  1  1  0  0  0
 20 22  1  0  0  0  0
 22 23  1  1  0  0  0
 22 24  1  0  0  0  0
 23 28  1  0  0  0  0
 23 29  1  0  0  0  0
 25 24  1  1  0  0  0
 25 27  1  0  0  0  0
 26 10  1  1  0  0  0
 26 27  1  0  0  0  0
M  END
>  <CHROM.1>
62.33087283,105.29776479,-175.26219202,-171.31384308,103.28174356,88.77966850
16.83048071,25.92385734,12.14753978,3.11630157,0.43950969,1.51295928

>  <Name>
ligand

>  <RI>
0

>  <Rbt.Current_Directory>
/home/itssahil/PROJECTS/Mol_Feturizer/New_Systems/rnas/3F4H

>  <Rbt.Executable>
rbdock ($Id: //depot/dev/client3/rdock/2013.1/src/exe/rbdock.cxx#4 $)

>  <Rbt.Library>
libRbt.so (2013.1, Build901 2013/11/27)

>  <Rbt.Parameter_File>
/export/apps/rDock/src/rDock_2013.1_src/data/scripts/dock_solv.prm

>  <Rbt.Receptor>
prm/blind_docking_40.prm

>  <SCORE>
-20.9141

>  <SCORE.INTER>
-7.20574

>  <SCORE.INTER.CONST>
1

>  <SCORE.INTER.POLAR>
0

>  <SCORE.INTER.ROT>
6

>  <SCORE.INTER.SOLV>
11.0702

>  <SCORE.INTER.VDW>
-16.0939

>  <SCORE.INTER.norm>
-0.248474

>  <SCORE.INTRA>
-14.7864

>  <SCORE.INTRA.DIHEDRAL>
0.129233

>  <SCORE.INTRA.DIHEDRAL.0>
6.83446

>  <SCORE.INTRA.POLAR>
0

>  <SCORE.INTRA.POLAR.0>
0

>  <SCORE.INTRA.REPUL>
0

>  <SCORE.INTRA.REPUL.0>
0

>  <SCORE.INTRA.SOLV>
-0.226537

>  <SCORE.INTRA.SOLV.lig_0>
-26.4601

>  <SCORE.INTRA.VDW>
-14.7378

>  <SCORE.INTRA.VDW.0>
13.7853

>  <SCORE.INTRA.norm>
-0.509876

>  <SCORE.RESTR>
1.07809

>  <SCORE.RESTR.CAVITY>
1.07809

>  <SCORE.RESTR.norm>
0.0371755

>  <SCORE.SYSTEM>
0

>  <SCORE.SYSTEM.CONST>
0

>  <SCORE.SYSTEM.DIHEDRAL>
0

>  <SCORE.SYSTEM.SOLV>
0

>  <SCORE.SYSTEM.norm>
0

>  <SCORE.heavy>
29

>  <SCORE.norm>
-0.721175

>  <RMSD>
18.134

$$$$
ligand
 OpenBabel11021811473D
libRbt.so/2013.1/901 2013/11/27
 29 31  0  0  0  0  0  0  0  0999 V2000
   12.3047   23.9337    9.4202 C   0  0  0  0  0  0  0  0  0  0  0  0
   11.5430   23.3470   10.4806 O   0  0  0  0  0  0  0  0  0  0  0  0
   13.4055   24.8028   10.0127 C   0  0  1  0  0  0  0  0  0  0  0  0
   12.9957   25.2334   11.3069 O   0  0  0  0  0  0  0  0  0  0  0  0
   14.7117   24.0244   10.1033 C   0  0  1  0  0  0  0  0  0  0  0  0
   15.4092   24.2297    8.8801 O   0  0  0  0  0  0  0  0  0  0  0  0
   15.6079   24.3992   11.2873 C   0  0  1  0  0  0  0  0  0  0  0  0
   16.8759   23.7656   11.1130 O   0  0  0  0  0  0  0  0  0  0  0  0
   15.8423   25.9025   11.4210 C   0  0  0  0  0  0  0  0  0  0  0  0
   15.0983   25.5187   14.1174 N   0  0  0  0  0  0  0  0  0  0  0  0
   14.7079   25.3169   15.4077 C   0  0  0  0  0  0  0  0  0  0  0  0
   13.5530   24.8938   15.6639 O   0  0  0  0  0  0  0  0  0  0  0  0
   15.5609   25.5761   16.4310 N   0  0  0  0  0  0  0  0  0  0  0  0
   16.8140   26.0385   16.1928 C   0  0  0  0  0  0  0  0  0  0  0  0
   17.2265   26.2478   14.8817 C   0  0  1  0  0  0  0  0  0  0  0  0
   17.5992   26.2790   17.1432 O   0  0  0  0  0  0  0  0  0  0  0  0
   18.8737   26.9040   13.3614 C   0  0  1  0  0  0  0  0  0  0  0  0
   18.4737   26.7031   14.6338 N   0  0  0  0  0  0  0  0  0  0  0  0
   20.1592   27.3734   13.1153 C   0  0  0  0  0  0  0  0  0  0  0  0
   20.6017   27.5880   11.8147 C   0  0  2  0  0  0  0  0  0  0  0  0
   22.0062   28.0989   11.6203 C   0  0  0  0  0  0  0  0  0  0  0  0
   19.7443   27.3286   10.7379 C   0  0  2  0  0  0  0  0  0  0  0  0
   20.1092   27.5158    9.4337 N   0  0  0  0  0  0  0  0  0  0  0  0
   18.4523   26.8575   11.0013 C   0  0  0  0  0  0  0  0  0  0  0  0
   18.0039   26.6421   12.3041 C   0  0  2  0  0  0  0  0  0  0  0  0
   16.3491   25.9798   13.8264 C   0  0  2  0  0  0  0  0  0  0  0  0
   16.7523   26.1899   12.5468 N   0  0  0  0  0  0  0  0  0  0  0  0
   20.5040   26.3767    8.6268 C   0  0  0  0  0  0  0  0  0  0  0  0
   20.1174   28.8252    8.8026 C   0  0  0  0  0  0  0  0  0  0  0  0
  1  2  1  0  0  0  0
  3  1  1  1  0  0  0
  3  4  1  0  0  0  0
  3  5  1  0  0  0  0
  5  6  1  6  0  0  0
  5  7  1  0  0  0  0
  7  8  1  6  0  0  0
  7  9  1  0  0  0  0
  9 27  1  0  0  0  0
 10 11  1  0  0  0  0
 11 12  2  0  0  0  0
 11 13  1  0  0  0  0
 13 14  1  0  0  0  0
 14 16  2  0  0  0  0
 15 14  1  6  0  0  0
 15 18  1  0  0  0  0
 15 26  1  0  0  0  0
 17 19  1  6  0  0  0
 17 25  1  0  0  0  0
 17 18  1  0  0  0  0
 19 20  1  0  0  0  0
 20 21  1  1  0  0  0
 20 22  1  0  0  0  0
 22 23  1  1  0  0  0
 22 24  1  0  0  0  0
 23 28  1  0  0  0  0
 23 29  1  0  0  0  0
 25 24  1  1  0  0  0
 25 27  1  0  0  0  0
 26 10  1  1  0  0  0
 26 27  1  0  0  0  0
M  END
>  <CHROM.1>
-25.51504545,89.89681269,-170.14561477,-177.85159703,100.79856949,110.14191145
16.79632715,25.87855179,12.21321711,3.04890172,0.43200946,1.49614136

>  <Name>
ligand

>  <RI>
0

>  <Rbt.Current_Directory>
/home/itssahil/PROJECTS/Mol_Feturizer/New_Systems/rnas/3F4H

>  <Rbt.Executable>
rbdock ($Id: //depot/dev/client3/rdock/2013.1/src/exe/rbdock.cxx#4 $)

>  <Rbt.Library>
libRbt.so (2013.1, Build901 2013/11/27)

>  <Rbt.Parameter_File>
/export/apps/rDock/src/rDock_2013.1_src/data/scripts/dock_solv.prm

>  <Rbt.Receptor>
prm/blind_docking_40.prm

>  <SCORE>
-21.7185

>  <SCORE.INTER>
-9.69194

>  <SCORE.INTER.CONST>
1

>  <SCORE.INTER.POLAR>
0

>  <SCORE.INTER.ROT>
6

>  <SCORE.INTER.SOLV>
9.59776

>  <SCORE.INTER.VDW>
-17.2605

>  <SCORE.INTER.norm>
-0.334205

>  <SCORE.INTRA>
-14.1637

>  <SCORE.INTRA.DIHEDRAL>
1.45113

>  <SCORE.INTRA.DIHEDRAL.0>
6.83446

>  <SCORE.INTRA.POLAR>
0

>  <SCORE.INTRA.POLAR.0>
0

>  <SCORE.INTRA.REPUL>
0

>  <SCORE.INTRA.REPUL.0>
0

>  <SCORE.INTRA.SOLV>
-0.189934

>  <SCORE.INTRA.SOLV.lig_0>
-26.4601

>  <SCORE.INTRA.VDW>
-14.7943

>  <SCORE.INTRA.VDW.0>
13.7853

>  <SCORE.INTRA.norm>
-0.488402

>  <SCORE.RESTR>
2.13714

>  <SCORE.RESTR.CAVITY>
2.13714

>  <SCORE.RESTR.norm>
0.0736945

>  <SCORE.SYSTEM>
0

>  <SCORE.SYSTEM.CONST>
0

>  <SCORE.SYSTEM.DIHEDRAL>
0

>  <SCORE.SYSTEM.SOLV>
0

>  <SCORE.SYSTEM.norm>
0

>  <SCORE.heavy>
29

>  <SCORE.norm>
-0.748913

>  <RMSD>
18.173

$$$$
ligand
 OpenBabel11021811473D
libRbt.so/2013.1/901 2013/11/27
 29 31  0  0  0  0  0  0  0  0999 V2000
   12.8243   24.8323   11.7373 C   0  0  0  0  0  0  0  0  0  0  0  0
   11.4767   25.0897   11.3292 O   0  0  0  0  0  0  0  0  0  0  0  0
   13.4642   23.8481   10.7678 C   0  0  1  0  0  0  0  0  0  0  0  0
   13.4592   24.4259    9.4661 O   0  0  0  0  0  0  0  0  0  0  0  0
   14.8894   23.5238   11.1970 C   0  0  1  0  0  0  0  0  0  0  0  0
   15.2452   22.2932   10.5776 O   0  0  0  0  0  0  0  0  0  0  0  0
   15.9270   24.5992   10.8615 C   0  0  1  0  0  0  0  0  0  0  0  0
   15.9461   24.7828    9.4454 O   0  0  0  0  0  0  0  0  0  0  0  0
   15.6353   25.9500   11.5119 C   0  0  0  0  0  0  0  0  0  0  0  0
   14.9745   25.4987   14.2194 N   0  0  0  0  0  0  0  0  0  0  0  0
   14.6239   25.2646   15.5157 C   0  0  0  0  0  0  0  0  0  0  0  0
   13.4778   24.8333   15.7965 O   0  0  0  0  0  0  0  0  0  0  0  0
   15.5075   25.5000   16.5186 N   0  0  0  0  0  0  0  0  0  0  0  0
   16.7523   25.9705   16.2537 C   0  0  0  0  0  0  0  0  0  0  0  0
   17.1242   26.2126   14.9362 C   0  0  1  0  0  0  0  0  0  0  0  0
   17.5659   26.1888   17.1853 O   0  0  0  0  0  0  0  0  0  0  0  0
   18.7236   26.9089   13.3829 C   0  0  1  0  0  0  0  0  0  0  0  0
   18.3629   26.6761   14.6616 N   0  0  0  0  0  0  0  0  0  0  0  0
   20.0005   27.3865   13.1094 C   0  0  0  0  0  0  0  0  0  0  0  0
   20.4028   27.6338   11.8014 C   0  0  2  0  0  0  0  0  0  0  0  0
   21.8001   28.1518   11.5769 C   0  0  0  0  0  0  0  0  0  0  0  0
   19.5131   27.3994   10.7453 C   0  0  2  0  0  0  0  0  0  0  0  0
   19.8378   27.6192    9.4355 N   0  0  0  0  0  0  0  0  0  0  0  0
   18.2303   26.9197   11.0364 C   0  0  0  0  0  0  0  0  0  0  0  0
   17.8222   26.6715   12.3465 C   0  0  2  0  0  0  0  0  0  0  0  0
   16.2153   25.9690   13.9018 C   0  0  2  0  0  0  0  0  0  0  0  0
   16.5790   26.2112   12.6162 N   0  0  0  0  0  0  0  0  0  0  0  0
   20.1628   26.4960    8.5769 C   0  0  0  0  0  0  0  0  0  0  0  0
   19.8702   28.9488    8.8489 C   0  0  0  0  0  0  0  0  0  0  0  0
  1  2  1  0  0  0  0
  3  1  1  1  0  0  0
  3  4  1  0  0  0  0
  3  5  1  0  0  0  0
  5  6  1  6  0  0  0
  5  7  1  0  0  0  0
  7  8  1  6  0  0  0
  7  9  1  0  0  0  0
  9 27  1  0  0  0  0
 10 11  1  0  0  0  0
 11 12  2  0  0  0  0
 11 13  1  0  0  0  0
 13 14  1  0  0  0  0
 14 16  2  0  0  0  0
 15 14  1  6  0  0  0
 15 18  1  0  0  0  0
 15 26  1  0  0  0  0
 17 19  1  6  0  0  0
 17 25  1  0  0  0  0
 17 18  1  0  0  0  0
 19 20  1  0  0  0  0
 20 21  1  1  0  0  0
 20 22  1  0  0  0  0
 22 23  1  1  0  0  0
 22 24  1  0  0  0  0
 23 28  1  0  0  0  0
 23 29  1  0  0  0  0
 25 24  1  1  0  0  0
 25 27  1  0  0  0  0
 26 10  1  1  0  0  0
 26 27  1  0  0  0  0
M  END
>  <CHROM.1>
60.39415870,159.45560334,-60.13937086,107.14361457,102.98200925,80.38000707
16.69144471,25.87846465,12.33290096,2.86153910,0.46603290,1.49472235

>  <Name>
ligand

>  <RI>
0

>  <Rbt.Current_Directory>
/home/itssahil/PROJECTS/Mol_Feturizer/New_Systems/rnas/3F4H

>  <Rbt.Executable>
rbdock ($Id: //depot/dev/client3/rdock/2013.1/src/exe/rbdock.cxx#4 $)

>  <Rbt.Library>
libRbt.so (2013.1, Build901 2013/11/27)

>  <Rbt.Parameter_File>
/export/apps/rDock/src/rDock_2013.1_src/data/scripts/dock_solv.prm

>  <Rbt.Receptor>
prm/blind_docking_40.prm

>  <SCORE>
-16.6642

>  <SCORE.INTER>
-7.03142

>  <SCORE.INTER.CONST>
1

>  <SCORE.INTER.POLAR>
0

>  <SCORE.INTER.ROT>
6

>  <SCORE.INTER.SOLV>
8.99197

>  <SCORE.INTER.VDW>
-15.2849

>  <SCORE.INTER.norm>
-0.242463

>  <SCORE.INTRA>
-14.2635

>  <SCORE.INTRA.DIHEDRAL>
1.26093

>  <SCORE.INTRA.DIHEDRAL.0>
6.83446

>  <SCORE.INTRA.POLAR>
0

>  <SCORE.INTRA.POLAR.0>
0

>  <SCORE.INTRA.REPUL>
0

>  <SCORE.INTRA.REPUL.0>
0

>  <SCORE.INTRA.SOLV>
0.061804

>  <SCORE.INTRA.SOLV.lig_0>
-26.4601

>  <SCORE.INTRA.VDW>
-14.9249

>  <SCORE.INTRA.VDW.0>
13.7853

>  <SCORE.INTRA.norm>
-0.491847

>  <SCORE.RESTR>
4.63072

>  <SCORE.RESTR.CAVITY>
4.63072

>  <SCORE.RESTR.norm>
0.15968

>  <SCORE.SYSTEM>
0

>  <SCORE.SYSTEM.CONST>
0

>  <SCORE.SYSTEM.DIHEDRAL>
0

>  <SCORE.SYSTEM.SOLV>
0

>  <SCORE.SYSTEM.norm>
0

>  <SCORE.heavy>
29

>  <SCORE.norm>
-0.574629

>  <RMSD>
18.189

$$$$
ligand
 OpenBabel11021811473D
libRbt.so/2013.1/901 2013/11/27
 29 31  0  0  0  0  0  0  0  0999 V2000
   12.0908   23.6257    9.9934 C   0  0  0  0  0  0  0  0  0  0  0  0
   12.3053   23.3847    8.5988 O   0  0  0  0  0  0  0  0  0  0  0  0
   13.1723   24.5622   10.5143 C   0  0  1  0  0  0  0  0  0  0  0  0
   12.9029   24.8488   11.8831 O   0  0  0  0  0  0  0  0  0  0  0  0
   14.5481   23.9249   10.3683 C   0  0  1  0  0  0  0  0  0  0  0  0
   15.0331   24.2635    9.0741 O   0  0  0  0  0  0  0  0  0  0  0  0
   15.5681   24.3352   11.4346 C   0  0  1  0  0  0  0  0  0  0  0  0
   16.8270   23.7459   11.1065 O   0  0  0  0  0  0  0  0  0  0  0  0
   15.7638   25.8463   11.5397 C   0  0  0  0  0  0  0  0  0  0  0  0
   15.0802   25.4660   14.2525 N   0  0  0  0  0  0  0  0  0  0  0  0
   14.7193   25.2648   15.5515 C   0  0  0  0  0  0  0  0  0  0  0  0
   13.5843   24.8050   15.8323 O   0  0  0  0  0  0  0  0  0  0  0  0
   15.5804   25.5642   16.5569 N   0  0  0  0  0  0  0  0  0  0  0  0
   16.8124   26.0670   16.2920 C   0  0  0  0  0  0  0  0  0  0  0  0
   17.1947   26.2762   14.9719 C   0  0  1  0  0  0  0  0  0  0  0  0
   17.6051   26.3445   17.2259 O   0  0  0  0  0  0  0  0  0  0  0  0
   18.7917   26.9724   13.4162 C   0  0  1  0  0  0  0  0  0  0  0  0
   18.4210   26.7715   14.6974 N   0  0  0  0  0  0  0  0  0  0  0  0
   20.0558   27.4832   13.1428 C   0  0  0  0  0  0  0  0  0  0  0  0
   20.4680   27.6989   11.8324 C   0  0  2  0  0  0  0  0  0  0  0  0
   21.8504   28.2557   11.6081 C   0  0  0  0  0  0  0  0  0  0  0  0
   19.6017   27.3985   10.7735 C   0  0  2  0  0  0  0  0  0  0  0  0
   19.9374   27.5842    9.4613 N   0  0  0  0  0  0  0  0  0  0  0  0
   18.3315   26.8861   11.0645 C   0  0  0  0  0  0  0  0  0  0  0  0
   17.9135   26.6693   12.3771 C   0  0  2  0  0  0  0  0  0  0  0  0
   16.3091   25.9668   13.9349 C   0  0  2  0  0  0  0  0  0  0  0  0
   16.6826   26.1769   12.6464 N   0  0  0  0  0  0  0  0  0  0  0  0
   19.8506   28.9093    8.8774 C   0  0  0  0  0  0  0  0  0  0  0  0
   20.3894   26.4985    8.6070 C   0  0  0  0  0  0  0  0  0  0  0  0
  1  2  1  0  0  0  0
  3  1  1  1  0  0  0
  3  4  1  0  0  0  0
  3  5  1  0  0  0  0
  5  6  1  6  0  0  0
  5  7  1  0  0  0  0
  7  8  1  6  0  0  0
  7  9  1  0  0  0  0
  9 27  1  0  0  0  0
 10 11  1  0  0  0  0
 11 12  2  0  0  0  0
 11 13  1  0  0  0  0
 13 14  1  0  0  0  0
 14 16  2  0  0  0  0
 15 14  1  6  0  0  0
 15 18  1  0  0  0  0
 15 26  1  0  0  0  0
 17 19  1  6  0  0  0
 17 25  1  0  0  0  0
 17 18  1  0  0  0  0
 19 20  1  0  0  0  0
 20 21  1  1  0  0  0
 20 22  1  0  0  0  0
 22 23  1  1  0  0  0
 22 24  1  0  0  0  0
 23 28  1  0  0  0  0
 23 29  1  0  0  0  0
 25 24  1  1  0  0  0
 25 27  1  0  0  0  0
 26 10  1  1  0  0  0
 26 27  1  0  0  0  0
M  END
>  <CHROM.1>
176.88611013,88.30139054,-175.46926874,175.94416969,-80.15309597,110.72251296
16.73035022,25.86625476,12.27164455,3.11435687,0.46978338,1.49407629

>  <Name>
ligand

>  <RI>
0

>  <Rbt.Current_Directory>
/home/itssahil/PROJECTS/Mol_Feturizer/New_Systems/rnas/3F4H

>  <Rbt.Executable>
rbdock ($Id: //depot/dev/client3/rdock/2013.1/src/exe/rbdock.cxx#4 $)

>  <Rbt.Library>
libRbt.so (2013.1, Build901 2013/11/27)

>  <Rbt.Parameter_File>
/export/apps/rDock/src/rDock_2013.1_src/data/scripts/dock_solv.prm

>  <Rbt.Receptor>
prm/blind_docking_40.prm

>  <SCORE>
-24.9717

>  <SCORE.INTER>
-10.6514

>  <SCORE.INTER.CONST>
1

>  <SCORE.INTER.POLAR>
0

>  <SCORE.INTER.ROT>
6

>  <SCORE.INTER.SOLV>
10.4429

>  <SCORE.INTER.VDW>
-18.1819

>  <SCORE.INTER.norm>
-0.367289

>  <SCORE.INTRA>
-16.6402

>  <SCORE.INTRA.DIHEDRAL>
-2.20738

>  <SCORE.INTRA.DIHEDRAL.0>
6.83446

>  <SCORE.INTRA.POLAR>
0

>  <SCORE.INTRA.POLAR.0>
0

>  <SCORE.INTRA.REPUL>
0

>  <SCORE.INTRA.REPUL.0>
0

>  <SCORE.INTRA.SOLV>
-0.0728876

>  <SCORE.INTRA.SOLV.lig_0>
-26.4601

>  <SCORE.INTRA.VDW>
-15.5001

>  <SCORE.INTRA.VDW.0>
13.7853

>  <SCORE.INTRA.norm>
-0.5738

>  <SCORE.RESTR>
2.3199

>  <SCORE.RESTR.CAVITY>
2.3199

>  <SCORE.RESTR.norm>
0.0799964

>  <SCORE.SYSTEM>
0

>  <SCORE.SYSTEM.CONST>
0

>  <SCORE.SYSTEM.DIHEDRAL>
0

>  <SCORE.SYSTEM.SOLV>
0

>  <SCORE.SYSTEM.norm>
0

>  <SCORE.heavy>
29

>  <SCORE.norm>
-0.861092

>  <RMSD>
18.200

$$$$
ligand
 OpenBabel11021811473D
libRbt.so/2013.1/901 2013/11/27
 29 31  0  0  0  0  0  0  0  0999 V2000
   12.4014   23.3453   11.2909 C   0  0  0  0  0  0  0  0  0  0  0  0
   11.3228   23.8794   10.5162 O   0  0  0  0  0  0  0  0  0  0  0  0
   13.4966   24.3951   11.4192 C   0  0  1  0  0  0  0  0  0  0  0  0
   14.4808   23.9144   12.3295 O   0  0  0  0  0  0  0  0  0  0  0  0
   14.1262   24.6807   10.0619 C   0  0  1  0  0  0  0  0  0  0  0  0
   13.0837   25.1204    9.1990 O   0  0  0  0  0  0  0  0  0  0  0  0
   15.2619   25.7080   10.0783 C   0  0  1  0  0  0  0  0  0  0  0  0
   15.0485   26.6005   11.1727 O   0  0  0  0  0  0  0  0  0  0  0  0
   16.6460   25.0824   10.2384 C   0  0  0  0  0  0  0  0  0  0  0  0
   18.6345   26.6769    9.0239 N   0  0  0  0  0  0  0  0  0  0  0  0
   19.5811   27.4372    8.4043 C   0  0  0  0  0  0  0  0  0  0  0  0
   19.7252   27.3818    7.1575 O   0  0  0  0  0  0  0  0  0  0  0  0
   20.3826   28.2591    9.1282 N   0  0  0  0  0  0  0  0  0  0  0  0
   20.2592   28.3414   10.4768 C   0  0  0  0  0  0  0  0  0  0  0  0
   19.2972   27.5728   11.1223 C   0  0  1  0  0  0  0  0  0  0  0  0
   21.0046   29.1019   11.1428 O   0  0  0  0  0  0  0  0  0  0  0  0
   18.2280   26.9068   13.0892 C   0  0  1  0  0  0  0  0  0  0  0  0
   19.1628   27.6515   12.4640 N   0  0  0  0  0  0  0  0  0  0  0  0
   18.0970   26.9936   14.4707 C   0  0  0  0  0  0  0  0  0  0  0  0
   17.1410   26.2406   15.1436 C   0  0  2  0  0  0  0  0  0  0  0  0
   17.0544   26.3825   16.6415 C   0  0  0  0  0  0  0  0  0  0  0  0
   16.2986   25.3842   14.4234 C   0  0  2  0  0  0  0  0  0  0  0  0
   15.3369   24.6140   15.0160 N   0  0  0  0  0  0  0  0  0  0  0  0
   16.4432   25.3064   13.0329 C   0  0  0  0  0  0  0  0  0  0  0  0
   17.4013   26.0587   12.3541 C   0  0  2  0  0  0  0  0  0  0  0  0
   18.4696   26.7267   10.3775 C   0  0  2  0  0  0  0  0  0  0  0  0
   17.5343   25.9730   11.0106 N   0  0  0  0  0  0  0  0  0  0  0  0
   15.4844   23.1711   15.0392 C   0  0  0  0  0  0  0  0  0  0  0  0
   14.1527   25.1815   15.6394 C   0  0  0  0  0  0  0  0  0  0  0  0
  1  2  1  0  0  0  0
  3  1  1  6  0  0  0
  3  4  1  0  0  0  0
  3  5  1  0  0  0  0
  5  6  1  6  0  0  0
  5  7  1  0  0  0  0
  7  8  1  1  0  0  0
  7  9  1  0  0  0  0
  9 27  1  0  0  0  0
 10 11  1  0  0  0  0
 11 12  2  0  0  0  0
 11 13  1  0  0  0  0
 13 14  1  0  0  0  0
 14 16  2  0  0  0  0
 15 14  1  6  0  0  0
 15 18  1  0  0  0  0
 15 26  1  0  0  0  0
 17 19  1  6  0  0  0
 17 25  1  0  0  0  0
 17 18  1  0  0  0  0
 19 20  1  0  0  0  0
 20 21  1  1  0  0  0
 20 22  1  0  0  0  0
 22 23  1  1  0  0  0
 22 24  1  0  0  0  0
 23 28  1  0  0  0  0
 23 29  1  0  0  0  0
 25 24  1  1  0  0  0
 25 27  1  0  0  0  0
 26 10  1  1  0  0  0
 26 27  1  0  0  0  0
M  END
>  <CHROM.1>
172.67306525,58.38657433,-27.68149780,-146.54988365,-111.65733093,76.66861835
16.65414877,25.96753790,11.74333815,2.71130201,0.49922933,1.64252463

>  <Name>
ligand

>  <RI>
0

>  <Rbt.Current_Directory>
/home/itssahil/PROJECTS/Mol_Feturizer/New_Systems/rnas/3F4H

>  <Rbt.Executable>
rbdock ($Id: //depot/dev/client3/rdock/2013.1/src/exe/rbdock.cxx#4 $)

>  <Rbt.Library>
libRbt.so (2013.1, Build901 2013/11/27)

>  <Rbt.Parameter_File>
/export/apps/rDock/src/rDock_2013.1_src/data/scripts/dock_solv.prm

>  <Rbt.Receptor>
prm/blind_docking_40.prm

>  <SCORE>
-13.4006

>  <SCORE.INTER>
-4.16363

>  <SCORE.INTER.CONST>
1

>  <SCORE.INTER.POLAR>
0

>  <SCORE.INTER.ROT>
6

>  <SCORE.INTER.SOLV>
8.81579

>  <SCORE.INTER.VDW>
-13.3144

>  <SCORE.INTER.norm>
-0.143573

>  <SCORE.INTRA>
-11.5162

>  <SCORE.INTRA.DIHEDRAL>
1.48654

>  <SCORE.INTRA.DIHEDRAL.0>
6.83446

>  <SCORE.INTRA.POLAR>
0

>  <SCORE.INTRA.POLAR.0>
0

>  <SCORE.INTRA.REPUL>
0

>  <SCORE.INTRA.REPUL.0>
0

>  <SCORE.INTRA.SOLV>
1.56827

>  <SCORE.INTRA.SOLV.lig_0>
-26.4601

>  <SCORE.INTRA.VDW>
-13.0436

>  <SCORE.INTRA.VDW.0>
13.7853

>  <SCORE.INTRA.norm>
-0.39711

>  <SCORE.RESTR>
2.27926

>  <SCORE.RESTR.CAVITY>
2.27926

>  <SCORE.RESTR.norm>
0.0785953

>  <SCORE.SYSTEM>
0

>  <SCORE.SYSTEM.CONST>
0

>  <SCORE.SYSTEM.DIHEDRAL>
0

>  <SCORE.SYSTEM.SOLV>
0

>  <SCORE.SYSTEM.norm>
0

>  <SCORE.heavy>
29

>  <SCORE.norm>
-0.462088

>  <RMSD>
18.211

$$$$
ligand
 OpenBabel11021811473D
libRbt.so/2013.1/901 2013/11/27
 29 31  0  0  0  0  0  0  0  0999 V2000
   12.3405   23.8850    9.2172 C   0  0  0  0  0  0  0  0  0  0  0  0
   12.3474   22.4922    9.5472 O   0  0  0  0  0  0  0  0  0  0  0  0
   13.2441   24.6359   10.1856 C   0  0  1  0  0  0  0  0  0  0  0  0
   12.7318   24.4705   11.5042 O   0  0  0  0  0  0  0  0  0  0  0  0
   14.6714   24.1105   10.1030 C   0  0  1  0  0  0  0  0  0  0  0  0
   15.2447   24.6365    8.9116 O   0  0  0  0  0  0  0  0  0  0  0  0
   15.5569   24.4501   11.3055 C   0  0  1  0  0  0  0  0  0  0  0  0
   16.8604   23.9149   11.0727 O   0  0  0  0  0  0  0  0  0  0  0  0
   15.6969   25.9507   11.5535 C   0  0  0  0  0  0  0  0  0  0  0  0
   15.0164   25.5168   14.2590 N   0  0  0  0  0  0  0  0  0  0  0  0
   14.6563   25.2912   15.5542 C   0  0  0  0  0  0  0  0  0  0  0  0
   13.5054   24.8695   15.8300 O   0  0  0  0  0  0  0  0  0  0  0  0
   15.5355   25.5250   16.5613 N   0  0  0  0  0  0  0  0  0  0  0  0
   16.7852   25.9852   16.3019 C   0  0  0  0  0  0  0  0  0  0  0  0
   17.1669   26.2185   14.9856 C   0  0  1  0  0  0  0  0  0  0  0  0
   17.5947   26.2020   17.2374 O   0  0  0  0  0  0  0  0  0  0  0  0
   18.7806   26.8961   13.4389 C   0  0  1  0  0  0  0  0  0  0  0  0
   18.4105   26.6718   14.7164 N   0  0  0  0  0  0  0  0  0  0  0  0
   20.0626   27.3632   13.1709 C   0  0  0  0  0  0  0  0  0  0  0  0
   20.4745   27.6015   11.8643 C   0  0  2  0  0  0  0  0  0  0  0  0
   21.8769   28.1084   11.6459 C   0  0  0  0  0  0  0  0  0  0  0  0
   19.5896   27.3686   10.8038 C   0  0  2  0  0  0  0  0  0  0  0  0
   19.9238   27.5800    9.4951 N   0  0  0  0  0  0  0  0  0  0  0  0
   18.3016   26.8995   11.0893 C   0  0  0  0  0  0  0  0  0  0  0  0
   17.8838   26.6603   12.3981 C   0  0  2  0  0  0  0  0  0  0  0  0
   16.2625   25.9767   13.9468 C   0  0  2  0  0  0  0  0  0  0  0  0
   16.6357   26.2103   12.6623 N   0  0  0  0  0  0  0  0  0  0  0  0
   20.2725   26.4530    8.6509 C   0  0  0  0  0  0  0  0  0  0  0  0
   19.9435   28.9040    8.8955 C   0  0  0  0  0  0  0  0  0  0  0  0
  1  2  1  0  0  0  0
  3  1  1  6  0  0  0
  3  4  1  0  0  0  0
  3  5  1  0  0  0  0
  5  6  1  6  0  0  0
  5  7  1  0  0  0  0
  7  8  1  6  0  0  0
  7  9  1  0  0  0  0
  9 27  1  0  0  0  0
 10 11  1  0  0  0  0
 11 12  2  0  0  0  0
 11 13  1  0  0  0  0
 13 14  1  0  0  0  0
 14 16  2  0  0  0  0
 15 14  1  6  0  0  0
 15 18  1  0  0  0  0
 15 26  1  0  0  0  0
 17 19  1  6  0  0  0
 17 25  1  0  0  0  0
 17 18  1  0  0  0  0
 19 20  1  0  0  0  0
 20 21  1  1  0  0  0
 20 22  1  0  0  0  0
 22 23  1  1  0  0  0
 22 24  1  0  0  0  0
 23 28  1  0  0  0  0
 23 29  1  0  0  0  0
 25 24  1  1  0  0  0
 25 27  1  0  0  0  0
 26 10  1  1  0  0  0
 26 27  1  0  0  0  0
M  END
>  <CHROM.1>
-61.28904434,76.09160095,-178.99542974,-175.97779655,101.72310971,104.53998030
16.73058427,25.83659402,12.24903224,3.12323060,0.47409013,1.49388774

>  <Name>
ligand

>  <RI>
0

>  <Rbt.Current_Directory>
/home/itssahil/PROJECTS/Mol_Feturizer/New_Systems/rnas/3F4H

>  <Rbt.Executable>
rbdock ($Id: //depot/dev/client3/rdock/2013.1/src/exe/rbdock.cxx#4 $)

>  <Rbt.Library>
libRbt.so (2013.1, Build901 2013/11/27)

>  <Rbt.Parameter_File>
/export/apps/rDock/src/rDock_2013.1_src/data/scripts/dock_solv.prm

>  <Rbt.Receptor>
prm/blind_docking_40.prm

>  <SCORE>
-22.5595

>  <SCORE.INTER>
-7.02043

>  <SCORE.INTER.CONST>
1

>  <SCORE.INTER.POLAR>
0

>  <SCORE.INTER.ROT>
6

>  <SCORE.INTER.SOLV>
10.1545

>  <SCORE.INTER.VDW>
-15.6651

>  <SCORE.INTER.norm>
-0.242084

>  <SCORE.INTRA>
-17.6573

>  <SCORE.INTRA.DIHEDRAL>
-3.86614

>  <SCORE.INTRA.DIHEDRAL.0>
6.83446

>  <SCORE.INTRA.POLAR>
0

>  <SCORE.INTRA.POLAR.0>
0

>  <SCORE.INTRA.REPUL>
0

>  <SCORE.INTRA.REPUL.0>
0

>  <SCORE.INTRA.SOLV>
-0.11464

>  <SCORE.INTRA.SOLV.lig_0>
-26.4601

>  <SCORE.INTRA.VDW>
-15.6669

>  <SCORE.INTRA.VDW.0>
13.7853

>  <SCORE.INTRA.norm>
-0.608871

>  <SCORE.RESTR>
2.11817

>  <SCORE.RESTR.CAVITY>
2.11817

>  <SCORE.RESTR.norm>
0.0730405

>  <SCORE.SYSTEM>
0

>  <SCORE.SYSTEM.CONST>
0

>  <SCORE.SYSTEM.DIHEDRAL>
0

>  <SCORE.SYSTEM.SOLV>
0

>  <SCORE.SYSTEM.norm>
0

>  <SCORE.heavy>
29

>  <SCORE.norm>
-0.777914

>  <RMSD>
18.224

$$$$
ligand
 OpenBabel11021811473D
libRbt.so/2013.1/901 2013/11/27
 29 31  0  0  0  0  0  0  0  0999 V2000
   12.6117   24.4250   10.5063 C   0  0  0  0  0  0  0  0  0  0  0  0
   11.9900   24.9275    9.3189 O   0  0  0  0  0  0  0  0  0  0  0  0
   13.6365   23.3646   10.1273 C   0  0  1  0  0  0  0  0  0  0  0  0
   13.1914   22.7062    8.9454 O   0  0  0  0  0  0  0  0  0  0  0  0
   15.0025   23.9982    9.8973 C   0  0  1  0  0  0  0  0  0  0  0  0
   14.7952   25.1757    9.1258 O   0  0  0  0  0  0  0  0  0  0  0  0
   15.7820   24.3364   11.1715 C   0  0  1  0  0  0  0  0  0  0  0  0
   17.1734   24.1413   10.9154 O   0  0  0  0  0  0  0  0  0  0  0  0
   15.5829   25.7755   11.6426 C   0  0  0  0  0  0  0  0  0  0  0  0
   14.9704   25.4217   14.3759 N   0  0  0  0  0  0  0  0  0  0  0  0
   14.6435   25.2334   15.6858 C   0  0  0  0  0  0  0  0  0  0  0  0
   13.5129   24.7851   16.0009 O   0  0  0  0  0  0  0  0  0  0  0  0
   15.5340   25.5333   16.6650 N   0  0  0  0  0  0  0  0  0  0  0  0
   16.7623   26.0239   16.3628 C   0  0  0  0  0  0  0  0  0  0  0  0
   17.1102   26.2199   15.0311 C   0  0  1  0  0  0  0  0  0  0  0  0
   17.5823   26.3020   17.2726 O   0  0  0  0  0  0  0  0  0  0  0  0
   18.6698   26.8909   13.4271 C   0  0  1  0  0  0  0  0  0  0  0  0
   18.3325   26.7029   14.7195 N   0  0  0  0  0  0  0  0  0  0  0  0
   19.9300   27.3891   13.1154 C   0  0  0  0  0  0  0  0  0  0  0  0
   20.3081   27.5914   11.7927 C   0  0  2  0  0  0  0  0  0  0  0  0
   21.6883   28.1351   11.5265 C   0  0  0  0  0  0  0  0  0  0  0  0
   19.4108   27.2901   10.7602 C   0  0  2  0  0  0  0  0  0  0  0  0
   19.7121   27.4629    9.4379 N   0  0  0  0  0  0  0  0  0  0  0  0
   18.1450   26.7904   11.0896 C   0  0  0  0  0  0  0  0  0  0  0  0
   17.7611   26.5872   12.4147 C   0  0  2  0  0  0  0  0  0  0  0  0
   16.1942   25.9099   14.0210 C   0  0  2  0  0  0  0  0  0  0  0  0
   16.5341   26.1070   12.7213 N   0  0  0  0  0  0  0  0  0  0  0  0
   20.0899   26.3182    8.6309 C   0  0  0  0  0  0  0  0  0  0  0  0
   19.6676   28.7621    8.7875 C   0  0  0  0  0  0  0  0  0  0  0  0
  1  2  1  0  0  0  0
  3  1  1  6  0  0  0
  3  4  1  0  0  0  0
  3  5  1  0  0  0  0
  5  6  1  1  0  0  0
  5  7  1  0  0  0  0
  7  8  1  6  0  0  0
  7  9  1  0  0  0  0
  9 27  1  0  0  0  0
 10 11  1  0  0  0  0
 11 12  2  0  0  0  0
 11 13  1  0  0  0  0
 13 14  1  0  0  0  0
 14 16  2  0  0  0  0
 15 14  1  6  0  0  0
 15 18  1  0  0  0  0
 15 26  1  0  0  0  0
 17 19  1  6  0  0  0
 17 25  1  0  0  0  0
 17 18  1  0  0  0  0
 19 20  1  0  0  0  0
 20 21  1  1  0  0  0
 20 22  1  0  0  0  0
 22 23  1  1  0  0  0
 22 24  1  0  0  0  0
 23 28  1  0  0  0  0
 23 29  1  0  0  0  0
 25 24  1  1  0  0  0
 25 27  1  0  0  0  0
 26 10  1  1  0  0  0
 26 27  1  0  0  0  0
M  END
>  <CHROM.1>
-31.00564702,-44.00948854,145.69386518,-169.97230838,101.32117809,87.89336886
16.69467587,25.82962522,12.18618976,-3.07055860,0.46745881,1.50366318

>  <Name>
ligand

>  <RI>
0

>  <Rbt.Current_Directory>
/home/itssahil/PROJECTS/Mol_Feturizer/New_Systems/rnas/3F4H

>  <Rbt.Executable>
rbdock ($Id: //depot/dev/client3/rdock/2013.1/src/exe/rbdock.cxx#4 $)

>  <Rbt.Library>
libRbt.so (2013.1, Build901 2013/11/27)

>  <Rbt.Parameter_File>
/export/apps/rDock/src/rDock_2013.1_src/data/scripts/dock_solv.prm

>  <Rbt.Receptor>
prm/blind_docking_40.prm

>  <SCORE>
-18.7569

>  <SCORE.INTER>
-8.32057

>  <SCORE.INTER.CONST>
1

>  <SCORE.INTER.POLAR>
0

>  <SCORE.INTER.ROT>
6

>  <SCORE.INTER.SOLV>
10.1396

>  <SCORE.INTER.VDW>
-16.5269

>  <SCORE.INTER.norm>
-0.286916

>  <SCORE.INTRA>
-12.7885

>  <SCORE.INTRA.DIHEDRAL>
2.20331

>  <SCORE.INTRA.DIHEDRAL.0>
6.83446

>  <SCORE.INTRA.POLAR>
0

>  <SCORE.INTRA.POLAR.0>
0

>  <SCORE.INTRA.REPUL>
0

>  <SCORE.INTRA.REPUL.0>
0

>  <SCORE.INTRA.SOLV>
0.0903971

>  <SCORE.INTRA.SOLV.lig_0>
-26.4601

>  <SCORE.INTRA.VDW>
-13.9354

>  <SCORE.INTRA.VDW.0>
13.7853

>  <SCORE.INTRA.norm>
-0.440984

>  <SCORE.RESTR>
2.35223

>  <SCORE.RESTR.CAVITY>
2.35223

>  <SCORE.RESTR.norm>
0.0811113

>  <SCORE.SYSTEM>
0

>  <SCORE.SYSTEM.CONST>
0

>  <SCORE.SYSTEM.DIHEDRAL>
0

>  <SCORE.SYSTEM.SOLV>
0

>  <SCORE.SYSTEM.norm>
0

>  <SCORE.heavy>
29

>  <SCORE.norm>
-0.646789

>  <RMSD>
18.274

$$$$
ligand
 OpenBabel11021811473D
libRbt.so/2013.1/901 2013/11/27
 29 31  0  0  0  0  0  0  0  0999 V2000
   12.0999   23.6691    9.9810 C   0  0  0  0  0  0  0  0  0  0  0  0
   11.8785   24.4664    8.8130 O   0  0  0  0  0  0  0  0  0  0  0  0
   13.5801   23.6976   10.3364 C   0  0  1  0  0  0  0  0  0  0  0  0
   14.3282   23.2914    9.1946 O   0  0  0  0  0  0  0  0  0  0  0  0
   13.9990   25.0955   10.7732 C   0  0  1  0  0  0  0  0  0  0  0  0
   13.4737   25.3029   12.0792 O   0  0  0  0  0  0  0  0  0  0  0  0
   15.5092   25.3498   10.7688 C   0  0  1  0  0  0  0  0  0  0  0  0
   15.7382   26.7193   11.1028 O   0  0  0  0  0  0  0  0  0  0  0  0
   16.2750   24.4830   11.7664 C   0  0  0  0  0  0  0  0  0  0  0  0
   15.5488   24.5598   14.4936 N   0  0  0  0  0  0  0  0  0  0  0  0
   15.1747   24.5688   15.8044 C   0  0  0  0  0  0  0  0  0  0  0  0
   14.2078   23.8679   16.1945 O   0  0  0  0  0  0  0  0  0  0  0  0
   15.8394   25.3396   16.7022 N   0  0  0  0  0  0  0  0  0  0  0  0
   16.8852   26.1131   16.3165 C   0  0  0  0  0  0  0  0  0  0  0  0
   17.2788   26.1130   14.9831 C   0  0  1  0  0  0  0  0  0  0  0  0
   17.4959   26.8264   17.1506 O   0  0  0  0  0  0  0  0  0  0  0  0
   18.7044   26.8735   13.2965 C   0  0  1  0  0  0  0  0  0  0  0  0
   18.3220   26.8757   14.5899 N   0  0  0  0  0  0  0  0  0  0  0  0
   19.7790   27.6621   12.9003 C   0  0  0  0  0  0  0  0  0  0  0  0
   20.1986   27.6793   11.5748 C   0  0  2  0  0  0  0  0  0  0  0  0
   21.3692   28.5575   11.2145 C   0  0  0  0  0  0  0  0  0  0  0  0
   19.5329   26.8935   10.6254 C   0  0  2  0  0  0  0  0  0  0  0  0
   19.8884   26.8594    9.3057 N   0  0  0  0  0  0  0  0  0  0  0  0
   18.4517   26.1057   11.0390 C   0  0  0  0  0  0  0  0  0  0  0  0
   18.0267   26.0863   12.3670 C   0  0  2  0  0  0  0  0  0  0  0  0
   16.5958   25.3182   14.0572 C   0  0  2  0  0  0  0  0  0  0  0  0
   16.9787   25.3237   12.7545 N   0  0  0  0  0  0  0  0  0  0  0  0
   20.4704   25.6530    8.7487 C   0  0  0  0  0  0  0  0  0  0  0  0
   19.7046   27.9935    8.4152 C   0  0  0  0  0  0  0  0  0  0  0  0
  1  2  1  0  0  0  0
  3  1  1  6  0  0  0
  3  4  1  0  0  0  0
  3  5  1  0  0  0  0
  5  6  1  1  0  0  0
  5  7  1  0  0  0  0
  7  8  1  1  0  0  0
  7  9  1  0  0  0  0
  9 27  1  0  0  0  0
 10 11  1  0  0  0  0
 11 12  2  0  0  0  0
 11 13  1  0  0  0  0
 13 14  1  0  0  0  0
 14 16  2  0  0  0  0
 15 14  1  1  0  0  0
 15 18  1  0  0  0  0
 15 26  1  0  0  0  0
 17 19  1  1  0  0  0
 17 25  1  0  0  0  0
 17 18  1  0  0  0  0
 19 20  1  0  0  0  0
 20 21  1  6  0  0  0
 20 22  1  0  0  0  0
 22 23  1  6  0  0  0
 22 24  1  0  0  0  0
 23 28  1  0  0  0  0
 23 29  1  0  0  0  0
 25 24  1  6  0  0  0
 25 27  1  0  0  0  0
 26 10  1  6  0  0  0
 26 27  1  0  0  0  0
M  END
>  <CHROM.1>
-54.53181583,74.04971879,175.80456634,-119.46700153,111.42965611,-68.69819892
16.71966650,25.74148946,12.26689037,2.99953633,0.44721000,1.55308275

>  <Name>
ligand

>  <RI>
0

>  <Rbt.Current_Directory>
/home/itssahil/PROJECTS/Mol_Feturizer/New_Systems/rnas/3F4H

>  <Rbt.Executable>
rbdock ($Id: //depot/dev/client3/rdock/2013.1/src/exe/rbdock.cxx#4 $)

>  <Rbt.Library>
libRbt.so (2013.1, Build901 2013/11/27)

>  <Rbt.Parameter_File>
/export/apps/rDock/src/rDock_2013.1_src/data/scripts/dock_solv.prm

>  <Rbt.Receptor>
prm/blind_docking_40.prm

>  <SCORE>
-26.4304

>  <SCORE.INTER>
-15.5942

>  <SCORE.INTER.CONST>
1

>  <SCORE.INTER.POLAR>
0

>  <SCORE.INTER.ROT>
6

>  <SCORE.INTER.SOLV>
10.7196

>  <SCORE.INTER.VDW>
-21.5693

>  <SCORE.INTER.norm>
-0.537731

>  <SCORE.INTRA>
-13.5436

>  <SCORE.INTRA.DIHEDRAL>
1.35649

>  <SCORE.INTRA.DIHEDRAL.0>
6.83446

>  <SCORE.INTRA.POLAR>
0

>  <SCORE.INTRA.POLAR.0>
0

>  <SCORE.INTRA.REPUL>
0

>  <SCORE.INTRA.REPUL.0>
0

>  <SCORE.INTRA.SOLV>
0.143922

>  <SCORE.INTRA.SOLV.lig_0>
-26.4601

>  <SCORE.INTRA.VDW>
-14.2938

>  <SCORE.INTRA.VDW.0>
13.7853

>  <SCORE.INTRA.norm>
-0.46702

>  <SCORE.RESTR>
2.70738

>  <SCORE.RESTR.CAVITY>
2.70738

>  <SCORE.RESTR.norm>
0.0933578

>  <SCORE.SYSTEM>
0

>  <SCORE.SYSTEM.CONST>
0

>  <SCORE.SYSTEM.DIHEDRAL>
0

>  <SCORE.SYSTEM.SOLV>
0

>  <SCORE.SYSTEM.norm>
0

>  <SCORE.heavy>
29

>  <SCORE.norm>
-0.911394

>  <RMSD>
18.311

$$$$
ligand
 OpenBabel11021811473D
libRbt.so/2013.1/901 2013/11/27
 29 31  0  0  0  0  0  0  0  0999 V2000
   12.0870   23.6665    9.9950 C   0  0  0  0  0  0  0  0  0  0  0  0
   11.8476   24.4083    8.7945 O   0  0  0  0  0  0  0  0  0  0  0  0
   13.5734   23.7055   10.3226 C   0  0  1  0  0  0  0  0  0  0  0  0
   14.3024   23.2969    9.1693 O   0  0  0  0  0  0  0  0  0  0  0  0
   13.9922   25.1083   10.7434 C   0  0  1  0  0  0  0  0  0  0  0  0
   13.4533   25.3365   12.0404 O   0  0  0  0  0  0  0  0  0  0  0  0
   15.5033   25.3575   10.7520 C   0  0  1  0  0  0  0  0  0  0  0  0
   15.7341   26.7245   11.0950 O   0  0  0  0  0  0  0  0  0  0  0  0
   16.2585   24.4831   11.7510 C   0  0  0  0  0  0  0  0  0  0  0  0
   15.5399   24.5608   14.4802 N   0  0  0  0  0  0  0  0  0  0  0  0
   15.1692   24.5705   15.7919 C   0  0  0  0  0  0  0  0  0  0  0  0
   14.1979   23.8764   16.1834 O   0  0  0  0  0  0  0  0  0  0  0  0
   15.8421   25.3346   16.6893 N   0  0  0  0  0  0  0  0  0  0  0  0
   16.8929   26.1007   16.3022 C   0  0  0  0  0  0  0  0  0  0  0  0
   17.2830   26.0998   14.9678 C   0  0  1  0  0  0  0  0  0  0  0  0
   17.5112   26.8078   17.1359 O   0  0  0  0  0  0  0  0  0  0  0  0
   18.7102   26.8522   13.2788 C   0  0  1  0  0  0  0  0  0  0  0  0
   18.3311   26.8551   14.5732 N   0  0  0  0  0  0  0  0  0  0  0  0
   19.7898   27.6331   12.8813 C   0  0  0  0  0  0  0  0  0  0  0  0
   20.2061   27.6493   11.5546 C   0  0  2  0  0  0  0  0  0  0  0  0
   21.3825   28.5191   11.1928 C   0  0  0  0  0  0  0  0  0  0  0  0
   19.5319   26.8703   10.6057 C   0  0  2  0  0  0  0  0  0  0  0  0
   19.8838   26.8357    9.2850 N   0  0  0  0  0  0  0  0  0  0  0  0
   18.4458   26.0901   11.0207 C   0  0  0  0  0  0  0  0  0  0  0  0
   18.0240   26.0717   12.3498 C   0  0  2  0  0  0  0  0  0  0  0  0
   16.5916   25.3119   14.0424 C   0  0  2  0  0  0  0  0  0  0  0  0
   16.9711   25.3166   12.7386 N   0  0  0  0  0  0  0  0  0  0  0  0
   19.6469   27.9960    8.4472 C   0  0  0  0  0  0  0  0  0  0  0  0
   20.4991   25.6721    8.6683 C   0  0  0  0  0  0  0  0  0  0  0  0
  1  2  1  0  0  0  0
  3  1  1  6  0  0  0
  3  4  1  0  0  0  0
  3  5  1  0  0  0  0
  5  6  1  1  0  0  0
  5  7  1  0  0  0  0
  7  8  1  1  0  0  0
  7  9  1  0  0  0  0
  9 27  1  0  0  0  0
 10 11  1  0  0  0  0
 11 12  2  0  0  0  0
 11 13  1  0  0  0  0
 13 14  1  0  0  0  0
 14 16  2  0  0  0  0
 15 14  1  1  0  0  0
 15 18  1  0  0  0  0
 15 26  1  0  0  0  0
 17 19  1  1  0  0  0
 17 25  1  0  0  0  0
 17 18  1  0  0  0  0
 19 20  1  0  0  0  0
 20 21  1  6  0  0  0
 20 22  1  0  0  0  0
 22 23  1  6  0  0  0
 22 24  1  0  0  0  0
 23 28  1  0  0  0  0
 23 29  1  0  0  0  0
 25 24  1  6  0  0  0
 25 27  1  0  0  0  0
 26 10  1  6  0  0  0
 26 27  1  0  0  0  0
M  END
>  <CHROM.1>
-52.07374696,72.20014154,176.95818131,-120.18180899,-70.35349601,-68.37665156
16.71454583,25.73382782,12.24966314,3.00667663,0.44343137,1.55371305

>  <Name>
ligand

>  <RI>
0

>  <Rbt.Current_Directory>
/home/itssahil/PROJECTS/Mol_Feturizer/New_Systems/rnas/3F4H

>  <Rbt.Executable>
rbdock ($Id: //depot/dev/client3/rdock/2013.1/src/exe/rbdock.cxx#4 $)

>  <Rbt.Library>
libRbt.so (2013.1, Build901 2013/11/27)

>  <Rbt.Parameter_File>
/export/apps/rDock/src/rDock_2013.1_src/data/scripts/dock_solv.prm

>  <Rbt.Receptor>
prm/blind_docking_40.prm

>  <SCORE>
-26.4188

>  <SCORE.INTER>
-15.5501

>  <SCORE.INTER.CONST>
1

>  <SCORE.INTER.POLAR>
0

>  <SCORE.INTER.ROT>
6

>  <SCORE.INTER.SOLV>
10.6978

>  <SCORE.INTER.VDW>
-21.5327

>  <SCORE.INTER.norm>
-0.53621

>  <SCORE.INTRA>
-13.583

>  <SCORE.INTRA.DIHEDRAL>
1.27571

>  <SCORE.INTRA.DIHEDRAL.0>
6.83446

>  <SCORE.INTRA.POLAR>
0

>  <SCORE.INTRA.POLAR.0>
0

>  <SCORE.INTRA.REPUL>
0

>  <SCORE.INTRA.REPUL.0>
0

>  <SCORE.INTRA.SOLV>
0.124696

>  <SCORE.INTRA.SOLV.lig_0>
-26.4601

>  <SCORE.INTRA.VDW>
-14.2833

>  <SCORE.INTRA.VDW.0>
13.7853

>  <SCORE.INTRA.norm>
-0.468381

>  <SCORE.RESTR>
2.71435

>  <SCORE.RESTR.CAVITY>
2.71435

>  <SCORE.RESTR.norm>
0.0935983

>  <SCORE.SYSTEM>
0

>  <SCORE.SYSTEM.CONST>
0

>  <SCORE.SYSTEM.DIHEDRAL>
0

>  <SCORE.SYSTEM.SOLV>
0

>  <SCORE.SYSTEM.norm>
0

>  <SCORE.heavy>
29

>  <SCORE.norm>
-0.910993

>  <RMSD>
18.326

$$$$
ligand
 OpenBabel11021811473D
libRbt.so/2013.1/901 2013/11/27
 29 31  0  0  0  0  0  0  0  0999 V2000
   12.1008   23.5836    9.9630 C   0  0  0  0  0  0  0  0  0  0  0  0
   11.8134   24.3840    8.8116 O   0  0  0  0  0  0  0  0  0  0  0  0
   13.5920   23.6510   10.2630 C   0  0  1  0  0  0  0  0  0  0  0  0
   14.3082   23.3153    9.0786 O   0  0  0  0  0  0  0  0  0  0  0  0
   13.9799   25.0452   10.7383 C   0  0  1  0  0  0  0  0  0  0  0  0
   13.4327   25.2126   12.0411 O   0  0  0  0  0  0  0  0  0  0  0  0
   15.4854   25.3256   10.7618 C   0  0  1  0  0  0  0  0  0  0  0  0
   15.6848   26.6949   11.1151 O   0  0  0  0  0  0  0  0  0  0  0  0
   16.2498   24.4606   11.7620 C   0  0  0  0  0  0  0  0  0  0  0  0
   15.5388   24.5711   14.4921 N   0  0  0  0  0  0  0  0  0  0  0  0
   15.1718   24.5965   15.8046 C   0  0  0  0  0  0  0  0  0  0  0  0
   14.1998   23.9093   16.2065 O   0  0  0  0  0  0  0  0  0  0  0  0
   15.8490   25.3689   16.6915 N   0  0  0  0  0  0  0  0  0  0  0  0
   16.9007   26.1279   16.2929 C   0  0  0  0  0  0  0  0  0  0  0  0
   17.2872   26.1110   14.9576 C   0  0  1  0  0  0  0  0  0  0  0  0
   17.5231   26.8428   17.1169 O   0  0  0  0  0  0  0  0  0  0  0  0
   18.7116   26.8405   13.2563 C   0  0  1  0  0  0  0  0  0  0  0  0
   18.3361   26.8591   14.5517 N   0  0  0  0  0  0  0  0  0  0  0  0
   19.7922   27.6142   12.8471 C   0  0  0  0  0  0  0  0  0  0  0  0
   20.2049   27.6143   11.5192 C   0  0  2  0  0  0  0  0  0  0  0  0
   21.3825   28.4770   11.1444 C   0  0  0  0  0  0  0  0  0  0  0  0
   19.5261   26.8264   10.5810 C   0  0  2  0  0  0  0  0  0  0  0  0
   19.8743   26.7760    9.2599 N   0  0  0  0  0  0  0  0  0  0  0  0
   18.4392   26.0537   11.0077 C   0  0  0  0  0  0  0  0  0  0  0  0
   18.0210   26.0514   12.3380 C   0  0  2  0  0  0  0  0  0  0  0  0
   16.5912   25.3144   14.0430 C   0  0  2  0  0  0  0  0  0  0  0  0
   16.9672   25.3035   12.7382 N   0  0  0  0  0  0  0  0  0  0  0  0
   19.5674   27.8973    8.3921 C   0  0  0  0  0  0  0  0  0  0  0  0
   20.5536   25.6335    8.6716 C   0  0  0  0  0  0  0  0  0  0  0  0
  1  2  1  0  0  0  0
  3  1  1  6  0  0  0
  3  4  1  0  0  0  0
  3  5  1  0  0  0  0
  5  6  1  1  0  0  0
  5  7  1  0  0  0  0
  7  8  1  1  0  0  0
  7  9  1  0  0  0  0
  9 27  1  0  0  0  0
 10 11  1  0  0  0  0
 11 12  2  0  0  0  0
 11 13  1  0  0  0  0
 13 14  1  0  0  0  0
 14 16  2  0  0  0  0
 15 14  1  1  0  0  0
 15 18  1  0  0  0  0
 15 26  1  0  0  0  0
 17 19  1  1  0  0  0
 17 25  1  0  0  0  0
 17 18  1  0  0  0  0
 19 20  1  0  0  0  0
 20 21  1  6  0  0  0
 20 22  1  0  0  0  0
 22 23  1  6  0  0  0
 22 24  1  0  0  0  0
 23 28  1  0  0  0  0
 23 29  1  0  0  0  0
 25 24  1  6  0  0  0
 25 27  1  0  0  0  0
 26 10  1  6  0  0  0
 26 27  1  0  0  0  0
M  END
>  <CHROM.1>
-52.77915364,70.75038916,175.10871791,-121.77318699,-73.93945826,-68.81430262
16.70995886,25.71094392,12.23577800,3.02506918,0.44118906,1.54314218

>  <Name>
ligand

>  <RI>
0

>  <Rbt.Current_Directory>
/home/itssahil/PROJECTS/Mol_Feturizer/New_Systems/rnas/3F4H

>  <Rbt.Executable>
rbdock ($Id: //depot/dev/client3/rdock/2013.1/src/exe/rbdock.cxx#4 $)

>  <Rbt.Library>
libRbt.so (2013.1, Build901 2013/11/27)

>  <Rbt.Parameter_File>
/export/apps/rDock/src/rDock_2013.1_src/data/scripts/dock_solv.prm

>  <Rbt.Receptor>
prm/blind_docking_40.prm

>  <SCORE>
-26.3968

>  <SCORE.INTER>
-15.1272

>  <SCORE.INTER.CONST>
1

>  <SCORE.INTER.POLAR>
0

>  <SCORE.INTER.ROT>
6

>  <SCORE.INTER.SOLV>
10.6088

>  <SCORE.INTER.VDW>
-21.2211

>  <SCORE.INTER.norm>
-0.521628

>  <SCORE.INTRA>
-13.9926

>  <SCORE.INTRA.DIHEDRAL>
1.16737

>  <SCORE.INTRA.DIHEDRAL.0>
6.83446

>  <SCORE.INTRA.POLAR>
0

>  <SCORE.INTRA.POLAR.0>
0

>  <SCORE.INTRA.REPUL>
0

>  <SCORE.INTRA.REPUL.0>
0

>  <SCORE.INTRA.SOLV>
0.106799

>  <SCORE.INTRA.SOLV.lig_0>
-26.4601

>  <SCORE.INTRA.VDW>
-14.6297

>  <SCORE.INTRA.VDW.0>
13.7853

>  <SCORE.INTRA.norm>
-0.482503

>  <SCORE.RESTR>
2.72302

>  <SCORE.RESTR.CAVITY>
2.72302

>  <SCORE.RESTR.norm>
0.0938973

>  <SCORE.SYSTEM>
0

>  <SCORE.SYSTEM.CONST>
0

>  <SCORE.SYSTEM.DIHEDRAL>
0

>  <SCORE.SYSTEM.SOLV>
0

>  <SCORE.SYSTEM.norm>
0

>  <SCORE.heavy>
29

>  <SCORE.norm>
-0.910234

>  <RMSD>
18.355

$$$$
ligand
 OpenBabel11021811473D
libRbt.so/2013.1/901 2013/11/27
 29 31  0  0  0  0  0  0  0  0999 V2000
   11.9933   24.7715   10.7116 C   0  0  0  0  0  0  0  0  0  0  0  0
   12.1911   24.9831   12.1134 O   0  0  0  0  0  0  0  0  0  0  0  0
   13.0178   23.7655   10.2052 C   0  0  1  0  0  0  0  0  0  0  0  0
   12.6698   23.3948    8.8748 O   0  0  0  0  0  0  0  0  0  0  0  0
   14.4180   24.3646   10.2382 C   0  0  1  0  0  0  0  0  0  0  0  0
   14.3740   25.5771    9.4949 O   0  0  0  0  0  0  0  0  0  0  0  0
   14.9763   24.6284   11.6397 C   0  0  1  0  0  0  0  0  0  0  0  0
   14.2829   23.7927   12.5673 O   0  0  0  0  0  0  0  0  0  0  0  0
   16.4707   24.3382   11.7638 C   0  0  0  0  0  0  0  0  0  0  0  0
   15.7188   24.4327   14.4835 N   0  0  0  0  0  0  0  0  0  0  0  0
   15.3345   24.4485   15.7913 C   0  0  0  0  0  0  0  0  0  0  0  0
   14.4200   23.6871   16.1945 O   0  0  0  0  0  0  0  0  0  0  0  0
   15.9319   25.2909   16.6717 N   0  0  0  0  0  0  0  0  0  0  0  0
   16.9194   26.1308   16.2714 C   0  0  0  0  0  0  0  0  0  0  0  0
   17.3227   26.1248   14.9410 C   0  0  1  0  0  0  0  0  0  0  0  0
   17.4679   26.9102   17.0894 O   0  0  0  0  0  0  0  0  0  0  0  0
   18.7005   26.9456   13.2428 C   0  0  1  0  0  0  0  0  0  0  0  0
   18.3086   26.9534   14.5334 N   0  0  0  0  0  0  0  0  0  0  0  0
   19.7157   27.8023   12.8319 C   0  0  0  0  0  0  0  0  0  0  0  0
   20.1435   27.8157   11.5089 C   0  0  2  0  0  0  0  0  0  0  0  0
   21.2474   28.7700   11.1319 C   0  0  0  0  0  0  0  0  0  0  0  0
   19.5466   26.9568   10.5773 C   0  0  2  0  0  0  0  0  0  0  0  0
   19.9143   26.9145    9.2612 N   0  0  0  0  0  0  0  0  0  0  0  0
   18.5247   26.1008   11.0056 C   0  0  0  0  0  0  0  0  0  0  0  0
   18.0916   26.0848   12.3311 C   0  0  2  0  0  0  0  0  0  0  0  0
   16.7091   25.2562   14.0330 C   0  0  2  0  0  0  0  0  0  0  0  0
   17.1010   25.2558   12.7329 N   0  0  0  0  0  0  0  0  0  0  0  0
   19.6121   28.0372    8.3937 C   0  0  0  0  0  0  0  0  0  0  0  0
   20.6102   25.7792    8.6782 C   0  0  0  0  0  0  0  0  0  0  0  0
  1  2  1  0  0  0  0
  3  1  1  6  0  0  0
  3  4  1  0  0  0  0
  3  5  1  0  0  0  0
  5  6  1  6  0  0  0
  5  7  1  0  0  0  0
  7  8  1  1  0  0  0
  7  9  1  0  0  0  0
  9 27  1  0  0  0  0
 10 11  1  0  0  0  0
 11 12  2  0  0  0  0
 11 13  1  0  0  0  0
 13 14  1  0  0  0  0
 14 16  2  0  0  0  0
 15 14  1  1  0  0  0
 15 18  1  0  0  0  0
 15 26  1  0  0  0  0
 17 19  1  1  0  0  0
 17 25  1  0  0  0  0
 17 18  1  0  0  0  0
 19 20  1  0  0  0  0
 20 21  1  6  0  0  0
 20 22  1  0  0  0  0
 22 23  1  6  0  0  0
 22 24  1  0  0  0  0
 23 28  1  0  0  0  0
 23 29  1  0  0  0  0
 25 24  1  6  0  0  0
 25 27  1  0  0  0  0
 26 10  1  6  0  0  0
 26 27  1  0  0  0  0
M  END
>  <CHROM.1>
170.25863905,-54.92871896,22.16756434,147.40368803,-69.25333904,-119.54311474
16.65439755,25.66258231,12.34620575,2.89538248,0.45681700,1.57323554

>  <Name>
ligand

>  <RI>
0

>  <Rbt.Current_Directory>
/home/itssahil/PROJECTS/Mol_Feturizer/New_Systems/rnas/3F4H

>  <Rbt.Executable>
rbdock ($Id: //depot/dev/client3/rdock/2013.1/src/exe/rbdock.cxx#4 $)

>  <Rbt.Library>
libRbt.so (2013.1, Build901 2013/11/27)

>  <Rbt.Parameter_File>
/export/apps/rDock/src/rDock_2013.1_src/data/scripts/dock_solv.prm

>  <Rbt.Receptor>
prm/blind_docking_40.prm

>  <SCORE>
-20.2511

>  <SCORE.INTER>
-11.7129

>  <SCORE.INTER.CONST>
1

>  <SCORE.INTER.POLAR>
0

>  <SCORE.INTER.ROT>
6

>  <SCORE.INTER.SOLV>
9.82141

>  <SCORE.INTER.VDW>
-18.6824

>  <SCORE.INTER.norm>
-0.403892

>  <SCORE.INTRA>
-11.0489

>  <SCORE.INTRA.DIHEDRAL>
2.4129

>  <SCORE.INTRA.DIHEDRAL.0>
6.83446

>  <SCORE.INTRA.POLAR>
0

>  <SCORE.INTRA.POLAR.0>
0

>  <SCORE.INTRA.REPUL>
0

>  <SCORE.INTRA.REPUL.0>
0

>  <SCORE.INTRA.SOLV>
0.609859

>  <SCORE.INTRA.SOLV.lig_0>
-26.4601

>  <SCORE.INTRA.VDW>
-12.5603

>  <SCORE.INTRA.VDW.0>
13.7853

>  <SCORE.INTRA.norm>
-0.380998

>  <SCORE.RESTR>
2.51068

>  <SCORE.RESTR.CAVITY>
2.51068

>  <SCORE.RESTR.norm>
0.0865751

>  <SCORE.SYSTEM>
0

>  <SCORE.SYSTEM.CONST>
0

>  <SCORE.SYSTEM.DIHEDRAL>
0

>  <SCORE.SYSTEM.SOLV>
0

>  <SCORE.SYSTEM.norm>
0

>  <SCORE.heavy>
29

>  <SCORE.norm>
-0.698315

>  <RMSD>
18.370

$$$$
ligand
 OpenBabel11021811473D
libRbt.so/2013.1/901 2013/11/27
 29 31  0  0  0  0  0  0  0  0999 V2000
   12.4131   23.4119    9.3875 C   0  0  0  0  0  0  0  0  0  0  0  0
   11.5481   23.0088   10.4544 O   0  0  0  0  0  0  0  0  0  0  0  0
   13.1395   24.6898    9.7844 C   0  0  1  0  0  0  0  0  0  0  0  0
   12.4966   25.2394   10.9302 O   0  0  0  0  0  0  0  0  0  0  0  0
   14.6041   24.4009   10.0874 C   0  0  1  0  0  0  0  0  0  0  0  0
   15.3811   25.1548    9.1640 O   0  0  0  0  0  0  0  0  0  0  0  0
   15.0427   24.7147   11.5209 C   0  0  1  0  0  0  0  0  0  0  0  0
   14.1798   24.0177   12.4204 O   0  0  0  0  0  0  0  0  0  0  0  0
   16.4806   24.2971   11.8224 C   0  0  0  0  0  0  0  0  0  0  0  0
   15.7198   24.4026   14.5392 N   0  0  0  0  0  0  0  0  0  0  0  0
   15.3314   24.4234   15.8457 C   0  0  0  0  0  0  0  0  0  0  0  0
   14.4214   23.6577   16.2509 O   0  0  0  0  0  0  0  0  0  0  0  0
   15.9199   25.2756   16.7228 N   0  0  0  0  0  0  0  0  0  0  0  0
   16.9025   26.1202   16.3203 C   0  0  0  0  0  0  0  0  0  0  0  0
   17.3098   26.1092   14.9911 C   0  0  1  0  0  0  0  0  0  0  0  0
   17.4427   26.9086   17.1352 O   0  0  0  0  0  0  0  0  0  0  0  0
   18.6866   26.9298   13.2922 C   0  0  1  0  0  0  0  0  0  0  0  0
   18.2908   26.9425   14.5815 N   0  0  0  0  0  0  0  0  0  0  0  0
   19.6968   27.7914   12.8790 C   0  0  0  0  0  0  0  0  0  0  0  0
   20.1285   27.8000   11.5572 C   0  0  2  0  0  0  0  0  0  0  0  0
   21.2264   28.7601   11.1777 C   0  0  0  0  0  0  0  0  0  0  0  0
   19.5407   26.9311   10.6291 C   0  0  2  0  0  0  0  0  0  0  0  0
   19.9127   26.8835    9.3144 N   0  0  0  0  0  0  0  0  0  0  0  0
   18.5238   26.0702   11.0596 C   0  0  0  0  0  0  0  0  0  0  0  0
   18.0868   26.0590   12.3838 C   0  0  2  0  0  0  0  0  0  0  0  0
   16.7054   25.2306   14.0866 C   0  0  2  0  0  0  0  0  0  0  0  0
   17.1011   25.2252   12.7877 N   0  0  0  0  0  0  0  0  0  0  0  0
   20.5398   25.6862    8.7874 C   0  0  0  0  0  0  0  0  0  0  0  0
   19.7031   27.9939    8.4001 C   0  0  0  0  0  0  0  0  0  0  0  0
  1  2  1  0  0  0  0
  3  1  1  1  0  0  0
  3  4  1  0  0  0  0
  3  5  1  0  0  0  0
  5  6  1  6  0  0  0
  5  7  1  0  0  0  0
  7  8  1  1  0  0  0
  7  9  1  0  0  0  0
  9 27  1  0  0  0  0
 10 11  1  0  0  0  0
 11 12  2  0  0  0  0
 11 13  1  0  0  0  0
 13 14  1  0  0  0  0
 14 16  2  0  0  0  0
 15 14  1  1  0  0  0
 15 18  1  0  0  0  0
 15 26  1  0  0  0  0
 17 19  1  1  0  0  0
 17 25  1  0  0  0  0
 17 18  1  0  0  0  0
 19 20  1  0  0  0  0
 20 21  1  6  0  0  0
 20 22  1  0  0  0  0
 22 23  1  6  0  0  0
 22 24  1  0  0  0  0
 23 28  1  0  0  0  0
 23 29  1  0  0  0  0
 25 24  1  6  0  0  0
 25 27  1  0  0  0  0
 26 10  1  6  0  0  0
 26 27  1  0  0  0  0
M  END
>  <CHROM.1>
-13.81370977,118.89908320,54.68947919,147.12830812,114.44121383,-110.38573447
16.68034877,25.61735222,12.31064029,2.98640355,0.47505483,1.56702704

>  <Name>
ligand

>  <RI>
0

>  <Rbt.Current_Directory>
/home/itssahil/PROJECTS/Mol_Feturizer/New_Systems/rnas/3F4H

>  <Rbt.Executable>
rbdock ($Id: //depot/dev/client3/rdock/2013.1/src/exe/rbdock.cxx#4 $)

>  <Rbt.Library>
libRbt.so (2013.1, Build901 2013/11/27)

>  <Rbt.Parameter_File>
/export/apps/rDock/src/rDock_2013.1_src/data/scripts/dock_solv.prm

>  <Rbt.Receptor>
prm/blind_docking_40.prm

>  <SCORE>
-18.9953

>  <SCORE.INTER>
-11.4371

>  <SCORE.INTER.CONST>
1

>  <SCORE.INTER.POLAR>
0

>  <SCORE.INTER.ROT>
6

>  <SCORE.INTER.SOLV>
10.0946

>  <SCORE.INTER.VDW>
-18.5896

>  <SCORE.INTER.norm>
-0.394382

>  <SCORE.INTRA>
-9.49268

>  <SCORE.INTRA.DIHEDRAL>
8.32141

>  <SCORE.INTRA.DIHEDRAL.0>
6.83446

>  <SCORE.INTRA.POLAR>
0

>  <SCORE.INTRA.POLAR.0>
0

>  <SCORE.INTRA.REPUL>
0

>  <SCORE.INTRA.REPUL.0>
0

>  <SCORE.INTRA.SOLV>
0.37368

>  <SCORE.INTRA.SOLV.lig_0>
-26.4601

>  <SCORE.INTRA.VDW>
-13.8402

>  <SCORE.INTRA.VDW.0>
13.7853

>  <SCORE.INTRA.norm>
-0.327334

>  <SCORE.RESTR>
1.93445

>  <SCORE.RESTR.CAVITY>
1.93445

>  <SCORE.RESTR.norm>
0.066705

>  <SCORE.SYSTEM>
0

>  <SCORE.SYSTEM.CONST>
0

>  <SCORE.SYSTEM.DIHEDRAL>
0

>  <SCORE.SYSTEM.SOLV>
0

>  <SCORE.SYSTEM.norm>
0

>  <SCORE.heavy>
29

>  <SCORE.norm>
-0.655011

>  <RMSD>
18.384

$$$$
ligand
 OpenBabel11021811473D
libRbt.so/2013.1/901 2013/11/27
 29 31  0  0  0  0  0  0  0  0999 V2000
   13.0989   23.0009   10.3364 C   0  0  0  0  0  0  0  0  0  0  0  0
   11.8289   23.0443   10.9953 O   0  0  0  0  0  0  0  0  0  0  0  0
   13.3692   24.3458    9.6760 C   0  0  1  0  0  0  0  0  0  0  0  0
   12.1507   24.8312    9.1209 O   0  0  0  0  0  0  0  0  0  0  0  0
   13.9209   25.3392   10.6904 C   0  0  1  0  0  0  0  0  0  0  0  0
   13.4441   24.9413   11.9707 O   0  0  0  0  0  0  0  0  0  0  0  0
   15.4475   25.4602   10.7137 C   0  0  1  0  0  0  0  0  0  0  0  0
   15.7892   26.8096   11.0333 O   0  0  0  0  0  0  0  0  0  0  0  0
   16.1148   24.5455   11.7388 C   0  0  0  0  0  0  0  0  0  0  0  0
   15.3988   24.6849   14.4663 N   0  0  0  0  0  0  0  0  0  0  0  0
   15.0276   24.7259   15.7772 C   0  0  0  0  0  0  0  0  0  0  0  0
   14.0125   24.0987   16.1706 O   0  0  0  0  0  0  0  0  0  0  0  0
   15.7475   25.4493   16.6717 N   0  0  0  0  0  0  0  0  0  0  0  0
   16.8466   26.1431   16.2825 C   0  0  0  0  0  0  0  0  0  0  0  0
   17.2379   26.1095   14.9489 C   0  0  1  0  0  0  0  0  0  0  0  0
   17.5085   26.8129   17.1135 O   0  0  0  0  0  0  0  0  0  0  0  0
   18.7136   26.7579   13.2584 C   0  0  1  0  0  0  0  0  0  0  0  0
   18.3336   26.7926   14.5522 N   0  0  0  0  0  0  0  0  0  0  0  0
   19.8424   27.4646   12.8587 C   0  0  0  0  0  0  0  0  0  0  0  0
   20.2609   27.4464   11.5328 C   0  0  2  0  0  0  0  0  0  0  0  0
   21.4921   28.2356   11.1685 C   0  0  0  0  0  0  0  0  0  0  0  0
   19.5387   26.7079   10.5868 C   0  0  2  0  0  0  0  0  0  0  0  0
   19.8895   26.6432    9.2670 N   0  0  0  0  0  0  0  0  0  0  0  0
   18.4034   26.0025   11.0039 C   0  0  0  0  0  0  0  0  0  0  0  0
   17.9793   26.0189   12.3323 C   0  0  2  0  0  0  0  0  0  0  0  0
   16.4979   25.3633   14.0264 C   0  0  2  0  0  0  0  0  0  0  0  0
   16.8789   25.3362   12.7233 N   0  0  0  0  0  0  0  0  0  0  0  0
   19.6300   27.7752    8.3977 C   0  0  0  0  0  0  0  0  0  0  0  0
   20.5257   25.4746    8.6817 C   0  0  0  0  0  0  0  0  0  0  0  0
  1  2  1  0  0  0  0
  3  1  1  1  0  0  0
  3  4  1  0  0  0  0
  3  5  1  0  0  0  0
  5  6  1  1  0  0  0
  5  7  1  0  0  0  0
  7  8  1  1  0  0  0
  7  9  1  0  0  0  0
  9 27  1  0  0  0  0
 10 11  1  0  0  0  0
 11 12  2  0  0  0  0
 11 13  1  0  0  0  0
 13 14  1  0  0  0  0
 14 16  2  0  0  0  0
 15 14  1  1  0  0  0
 15 18  1  0  0  0  0
 15 26  1  0  0  0  0
 17 19  1  1  0  0  0
 17 25  1  0  0  0  0
 17 18  1  0  0  0  0
 19 20  1  0  0  0  0
 20 21  1  6  0  0  0
 20 22  1  0  0  0  0
 22 23  1  6  0  0  0
 22 24  1  0  0  0  0
 23 28  1  0  0  0  0
 23 29  1  0  0  0  0
 25 24  1  6  0  0  0
 25 27  1  0  0  0  0
 26 10  1  6  0  0  0
 26 27  1  0  0  0  0
M  END
>  <CHROM.1>
-39.02109304,-26.46903893,146.64228738,-119.90391311,-75.33565864,-67.00104802
16.62573001,25.70621030,12.30594735,2.93803196,0.41231067,1.54584910

>  <Name>
ligand

>  <RI>
0

>  <Rbt.Current_Directory>
/home/itssahil/PROJECTS/Mol_Feturizer/New_Systems/rnas/3F4H

>  <Rbt.Executable>
rbdock ($Id: //depot/dev/client3/rdock/2013.1/src/exe/rbdock.cxx#4 $)

>  <Rbt.Library>
libRbt.so (2013.1, Build901 2013/11/27)

>  <Rbt.Parameter_File>
/export/apps/rDock/src/rDock_2013.1_src/data/scripts/dock_solv.prm

>  <Rbt.Receptor>
prm/blind_docking_40.prm

>  <SCORE>
-17.8386

>  <SCORE.INTER>
-12.9304

>  <SCORE.INTER.CONST>
1

>  <SCORE.INTER.POLAR>
0

>  <SCORE.INTER.ROT>
6

>  <SCORE.INTER.SOLV>
9.85359

>  <SCORE.INTER.VDW>
-19.5048

>  <SCORE.INTER.norm>
-0.445876

>  <SCORE.INTRA>
-7.36504

>  <SCORE.INTRA.DIHEDRAL>
8.27672

>  <SCORE.INTRA.DIHEDRAL.0>
6.83446

>  <SCORE.INTRA.POLAR>
0

>  <SCORE.INTRA.POLAR.0>
0

>  <SCORE.INTRA.REPUL>
0

>  <SCORE.INTRA.REPUL.0>
0

>  <SCORE.INTRA.SOLV>
0.252898

>  <SCORE.INTRA.SOLV.lig_0>
-26.4601

>  <SCORE.INTRA.VDW>
-11.6299

>  <SCORE.INTRA.VDW.0>
13.7853

>  <SCORE.INTRA.norm>
-0.253967

>  <SCORE.RESTR>
2.45685

>  <SCORE.RESTR.CAVITY>
2.45685

>  <SCORE.RESTR.norm>
0.0847189

>  <SCORE.SYSTEM>
0

>  <SCORE.SYSTEM.CONST>
0

>  <SCORE.SYSTEM.DIHEDRAL>
0

>  <SCORE.SYSTEM.SOLV>
0

>  <SCORE.SYSTEM.norm>
0

>  <SCORE.heavy>
29

>  <SCORE.norm>
-0.615124

>  <RMSD>
18.402

$$$$
ligand
 OpenBabel11021811473D
libRbt.so/2013.1/901 2013/11/27
 29 31  0  0  0  0  0  0  0  0999 V2000
   12.4054   24.2705    9.3323 C   0  0  0  0  0  0  0  0  0  0  0  0
   12.2814   22.8608    9.5476 O   0  0  0  0  0  0  0  0  0  0  0  0
   12.7759   24.9491   10.6440 C   0  0  1  0  0  0  0  0  0  0  0  0
   11.9992   24.3709   11.6885 O   0  0  0  0  0  0  0  0  0  0  0  0
   14.2617   24.7792   10.9336 C   0  0  1  0  0  0  0  0  0  0  0  0
   14.5383   23.3837   10.9069 O   0  0  0  0  0  0  0  0  0  0  0  0
   15.1972   25.5179    9.9719 C   0  0  1  0  0  0  0  0  0  0  0  0
   15.1982   26.9036   10.3173 O   0  0  0  0  0  0  0  0  0  0  0  0
   16.6388   25.0154   10.0194 C   0  0  0  0  0  0  0  0  0  0  0  0
   18.6580   26.6758    8.9532 N   0  0  0  0  0  0  0  0  0  0  0  0
   19.6214   27.4687    8.4043 C   0  0  0  0  0  0  0  0  0  0  0  0
   19.8297   27.4511    7.1654 O   0  0  0  0  0  0  0  0  0  0  0  0
   20.3705   28.2824    9.1908 N   0  0  0  0  0  0  0  0  0  0  0  0
   20.1772   28.3242   10.5331 C   0  0  0  0  0  0  0  0  0  0  0  0
   19.1973   27.5221   11.1068 C   0  0  1  0  0  0  0  0  0  0  0  0
   20.8743   29.0773   11.2572 O   0  0  0  0  0  0  0  0  0  0  0  0
   18.0413   26.7830   12.9970 C   0  0  1  0  0  0  0  0  0  0  0  0
   18.9935   27.5602   12.4415 N   0  0  0  0  0  0  0  0  0  0  0  0
   17.8387   26.8282   14.3719 C   0  0  0  0  0  0  0  0  0  0  0  0
   16.8631   26.0410   14.9737 C   0  0  2  0  0  0  0  0  0  0  0  0
   16.6979   26.1386   16.4686 C   0  0  0  0  0  0  0  0  0  0  0  0
   16.0736   25.1919   14.1877 C   0  0  2  0  0  0  0  0  0  0  0  0
   15.0967   24.3898   14.7087 N   0  0  0  0  0  0  0  0  0  0  0  0
   16.2901   25.1562   12.8049 C   0  0  0  0  0  0  0  0  0  0  0  0
   17.2681   25.9430   12.1972 C   0  0  2  0  0  0  0  0  0  0  0  0
   18.4237   26.6843   10.2974 C   0  0  2  0  0  0  0  0  0  0  0  0
   17.4707   25.8978   10.8605 N   0  0  0  0  0  0  0  0  0  0  0  0
   15.3528   22.9743   14.8967 C   0  0  0  0  0  0  0  0  0  0  0  0
   13.7900   24.8963   15.0945 C   0  0  0  0  0  0  0  0  0  0  0  0
  1  2  1  0  0  0  0
  3  1  1  6  0  0  0
  3  4  1  0  0  0  0
  3  5  1  0  0  0  0
  5  6  1  6  0  0  0
  5  7  1  0  0  0  0
  7  8  1  1  0  0  0
  7  9  1  0  0  0  0
  9 27  1  0  0  0  0
 10 11  1  0  0  0  0
 11 12  2  0  0  0  0
 11 13  1  0  0  0  0
 13 14  1  0  0  0  0
 14 16  2  0  0  0  0
 15 14  1  6  0  0  0
 15 18  1  0  0  0  0
 15 26  1  0  0  0  0
 17 19  1  6  0  0  0
 17 25  1  0  0  0  0
 17 18  1  0  0  0  0
 19 20  1  0  0  0  0
 20 21  1  1  0  0  0
 20 22  1  0  0  0  0
 22 23  1  1  0  0  0
 22 24  1  0  0  0  0
 23 28  1  0  0  0  0
 23 29  1  0  0  0  0
 25 24  1  1  0  0  0
 25 27  1  0  0  0  0
 26 10  1  1  0  0  0
 26 27  1  0  0  0  0
M  END
>  <CHROM.1>
-42.24221488,-55.25493405,76.86458507,-98.99959741,-101.82387457,68.46128436
16.54380703,25.86322589,11.56042591,2.78436359,0.52252841,1.62320203

>  <Name>
ligand

>  <RI>
0

>  <Rbt.Current_Directory>
/home/itssahil/PROJECTS/Mol_Feturizer/New_Systems/rnas/3F4H

>  <Rbt.Executable>
rbdock ($Id: //depot/dev/client3/rdock/2013.1/src/exe/rbdock.cxx#4 $)

>  <Rbt.Library>
libRbt.so (2013.1, Build901 2013/11/27)

>  <Rbt.Parameter_File>
/export/apps/rDock/src/rDock_2013.1_src/data/scripts/dock_solv.prm

>  <Rbt.Receptor>
prm/blind_docking_40.prm

>  <SCORE>
-18.1465

>  <SCORE.INTER>
-7.75574

>  <SCORE.INTER.CONST>
1

>  <SCORE.INTER.POLAR>
0

>  <SCORE.INTER.ROT>
6

>  <SCORE.INTER.SOLV>
8.59706

>  <SCORE.INTER.VDW>
-15.6362

>  <SCORE.INTER.norm>
-0.267439

>  <SCORE.INTRA>
-13.6527

>  <SCORE.INTRA.DIHEDRAL>
1.12655

>  <SCORE.INTRA.DIHEDRAL.0>
6.83446

>  <SCORE.INTRA.POLAR>
0

>  <SCORE.INTRA.POLAR.0>
0

>  <SCORE.INTRA.REPUL>
0

>  <SCORE.INTRA.REPUL.0>
0

>  <SCORE.INTRA.SOLV>
0.79488

>  <SCORE.INTRA.SOLV.lig_0>
-26.4601

>  <SCORE.INTRA.VDW>
-14.6134

>  <SCORE.INTRA.VDW.0>
13.7853

>  <SCORE.INTRA.norm>
-0.470783

>  <SCORE.RESTR>
3.26196

>  <SCORE.RESTR.CAVITY>
3.26196

>  <SCORE.RESTR.norm>
0.112482

>  <SCORE.SYSTEM>
0

>  <SCORE.SYSTEM.CONST>
0

>  <SCORE.SYSTEM.DIHEDRAL>
0

>  <SCORE.SYSTEM.SOLV>
0

>  <SCORE.SYSTEM.norm>
0

>  <SCORE.heavy>
29

>  <SCORE.norm>
-0.625741

>  <RMSD>
18.416

$$$$
ligand
 OpenBabel11021811473D
libRbt.so/2013.1/901 2013/11/27
 29 31  0  0  0  0  0  0  0  0999 V2000
   12.4985   23.6672    9.2123 C   0  0  0  0  0  0  0  0  0  0  0  0
   11.7527   24.2833    8.1573 O   0  0  0  0  0  0  0  0  0  0  0  0
   12.9894   24.7402   10.1744 C   0  0  1  0  0  0  0  0  0  0  0  0
   12.2122   24.6706   11.3658 O   0  0  0  0  0  0  0  0  0  0  0  0
   14.4653   24.5387   10.4932 C   0  0  1  0  0  0  0  0  0  0  0  0
   15.1455   25.7262   10.1036 O   0  0  0  0  0  0  0  0  0  0  0  0
   14.7727   24.2147   11.9582 C   0  0  1  0  0  0  0  0  0  0  0  0
   13.9783   23.0944   12.3498 O   0  0  0  0  0  0  0  0  0  0  0  0
   16.2389   23.8688   12.2101 C   0  0  0  0  0  0  0  0  0  0  0  0
   15.6508   24.1354   14.9586 N   0  0  0  0  0  0  0  0  0  0  0  0
   15.3470   24.2329   16.2839 C   0  0  0  0  0  0  0  0  0  0  0  0
   14.5025   23.4597   16.8012 O   0  0  0  0  0  0  0  0  0  0  0  0
   15.9497   25.1701   17.0587 N   0  0  0  0  0  0  0  0  0  0  0  0
   16.8629   26.0253   16.5337 C   0  0  0  0  0  0  0  0  0  0  0  0
   17.1836   25.9367   15.1838 C   0  0  1  0  0  0  0  0  0  0  0  0
   17.4164   26.8924   17.2542 O   0  0  0  0  0  0  0  0  0  0  0  0
   18.4073   26.6921   13.3433 C   0  0  1  0  0  0  0  0  0  0  0  0
   18.0953   26.7800   14.6526 N   0  0  0  0  0  0  0  0  0  0  0  0
   19.3465   27.5647   12.8047 C   0  0  0  0  0  0  0  0  0  0  0  0
   19.6911   27.4973   11.4592 C   0  0  2  0  0  0  0  0  0  0  0  0
   20.7153   28.4741   10.9414 C   0  0  0  0  0  0  0  0  0  0  0  0
   19.0867   26.5397   10.6348 C   0  0  2  0  0  0  0  0  0  0  0  0
   19.3749   26.4143    9.3042 N   0  0  0  0  0  0  0  0  0  0  0  0
   18.1418   25.6689   11.1911 C   0  0  0  0  0  0  0  0  0  0  0  0
   17.7923   25.7337   12.5395 C   0  0  2  0  0  0  0  0  0  0  0  0
   16.5646   24.9705   14.3847 C   0  0  2  0  0  0  0  0  0  0  0  0
   16.8755   24.8893   13.0653 N   0  0  0  0  0  0  0  0  0  0  0  0
   20.0369   25.2171    8.8216 C   0  0  0  0  0  0  0  0  0  0  0  0
   19.0405   27.4399    8.3300 C   0  0  0  0  0  0  0  0  0  0  0  0
  1  2  1  0  0  0  0
  3  1  1  6  0  0  0
  3  4  1  0  0  0  0
  3  5  1  0  0  0  0
  5  6  1  1  0  0  0
  5  7  1  0  0  0  0
  7  8  1  6  0  0  0
  7  9  1  0  0  0  0
  9 27  1  0  0  0  0
 10 11  1  0  0  0  0
 11 12  2  0  0  0  0
 11 13  1  0  0  0  0
 13 14  1  0  0  0  0
 14 16  2  0  0  0  0
 15 14  1  1  0  0  0
 15 18  1  0  0  0  0
 15 26  1  0  0  0  0
 17 19  1  1  0  0  0
 17 25  1  0  0  0  0
 17 18  1  0  0  0  0
 19 20  1  0  0  0  0
 20 21  1  6  0  0  0
 20 22  1  0  0  0  0
 22 23  1  6  0  0  0
 22 24  1  0  0  0  0
 23 28  1  0  0  0  0
 23 29  1  0  0  0  0
 25 24  1  6  0  0  0
 25 27  1  0  0  0  0
 26 10  1  6  0  0  0
 26 27  1  0  0  0  0
M  END
>  <CHROM.1>
106.09597679,121.35980638,53.48439564,114.36064510,113.72820778,-109.37283626
16.46460184,25.43165958,12.41325324,1.77056068,-0.45162406,-1.52420306

>  <Name>
ligand

>  <RI>
0

>  <Rbt.Current_Directory>
/home/itssahil/PROJECTS/Mol_Feturizer/New_Systems/rnas/3F4H

>  <Rbt.Executable>
rbdock ($Id: //depot/dev/client3/rdock/2013.1/src/exe/rbdock.cxx#4 $)

>  <Rbt.Library>
libRbt.so (2013.1, Build901 2013/11/27)

>  <Rbt.Parameter_File>
/export/apps/rDock/src/rDock_2013.1_src/data/scripts/dock_solv.prm

>  <Rbt.Receptor>
prm/blind_docking_40.prm

>  <SCORE>
-10.8925

>  <SCORE.INTER>
-3.75392

>  <SCORE.INTER.CONST>
1

>  <SCORE.INTER.POLAR>
0

>  <SCORE.INTER.ROT>
6

>  <SCORE.INTER.SOLV>
11.9271

>  <SCORE.INTER.VDW>
-14.0783

>  <SCORE.INTER.norm>
-0.129446

>  <SCORE.INTRA>
-9.7688

>  <SCORE.INTRA.DIHEDRAL>
10.4914

>  <SCORE.INTRA.DIHEDRAL.0>
6.83446

>  <SCORE.INTRA.POLAR>
0

>  <SCORE.INTRA.POLAR.0>
0

>  <SCORE.INTRA.REPUL>
0

>  <SCORE.INTRA.REPUL.0>
0

>  <SCORE.INTRA.SOLV>
-0.211782

>  <SCORE.INTRA.SOLV.lig_0>
-26.4601

>  <SCORE.INTRA.VDW>
-14.9086

>  <SCORE.INTRA.VDW.0>
13.7853

>  <SCORE.INTRA.norm>
-0.336855

>  <SCORE.RESTR>
2.6302

>  <SCORE.RESTR.CAVITY>
2.6302

>  <SCORE.RESTR.norm>
0.0906965

>  <SCORE.SYSTEM>
0

>  <SCORE.SYSTEM.CONST>
0

>  <SCORE.SYSTEM.DIHEDRAL>
0

>  <SCORE.SYSTEM.SOLV>
0

>  <SCORE.SYSTEM.norm>
0

>  <SCORE.heavy>
29

>  <SCORE.norm>
-0.375604

>  <RMSD>
18.582

$$$$
ligand
 OpenBabel11021811473D
libRbt.so/2013.1/901 2013/11/27
 29 31  0  0  0  0  0  0  0  0999 V2000
   19.4050   29.1576   10.0009 C   0  0  0  0  0  0  0  0  0  0  0  0
   18.2888   29.9732   10.3720 O   0  0  0  0  0  0  0  0  0  0  0  0
   18.9158   27.9907    9.1539 C   0  0  1  0  0  0  0  0  0  0  0  0
   19.9986   27.5261    8.3539 O   0  0  0  0  0  0  0  0  0  0  0  0
   18.3933   26.8677   10.0405 C   0  0  1  0  0  0  0  0  0  0  0  0
   17.3184   27.4012   10.8052 O   0  0  0  0  0  0  0  0  0  0  0  0
   17.9326   25.6132    9.2923 C   0  0  1  0  0  0  0  0  0  0  0  0
   18.8846   25.3226    8.2682 O   0  0  0  0  0  0  0  0  0  0  0  0
   17.8074   24.3823   10.1878 C   0  0  0  0  0  0  0  0  0  0  0  0
   19.1187   25.3677   12.4858 N   0  0  0  0  0  0  0  0  0  0  0  0
   19.7830   25.8464   13.5755 C   0  0  0  0  0  0  0  0  0  0  0  0
   21.0296   25.9999   13.5435 O   0  0  0  0  0  0  0  0  0  0  0  0
   19.1058   26.1577   14.7097 N   0  0  0  0  0  0  0  0  0  0  0  0
   17.7602   26.0004   14.7826 C   0  0  0  0  0  0  0  0  0  0  0  0
   17.0691   25.5143   13.6786 C   0  0  1  0  0  0  0  0  0  0  0  0
   17.1380   26.2878   15.8351 O   0  0  0  0  0  0  0  0  0  0  0  0
   15.0588   24.8891   12.6670 C   0  0  1  0  0  0  0  0  0  0  0  0
   15.7287   25.3590   13.7393 N   0  0  0  0  0  0  0  0  0  0  0  0
   13.6791   24.7318   12.7384 C   0  0  0  0  0  0  0  0  0  0  0  0
   12.9602   24.2521   11.6491 C   0  0  2  0  0  0  0  0  0  0  0  0
   11.4674   24.1051   11.7958 C   0  0  0  0  0  0  0  0  0  0  0  0
   13.6314   23.9233   10.4645 C   0  0  2  0  0  0  0  0  0  0  0  0
   12.9920   23.4467    9.3541 N   0  0  0  0  0  0  0  0  0  0  0  0
   15.0210   24.0859   10.4080 C   0  0  0  0  0  0  0  0  0  0  0  0
   15.7462   24.5653   11.4984 C   0  0  2  0  0  0  0  0  0  0  0  0
   17.7654   25.1946   12.5088 C   0  0  2  0  0  0  0  0  0  0  0  0
   17.0891   24.7151   11.4334 N   0  0  0  0  0  0  0  0  0  0  0  0
   13.4214   22.1955    8.7586 C   0  0  0  0  0  0  0  0  0  0  0  0
   11.8788   24.1437    8.7312 C   0  0  0  0  0  0  0  0  0  0  0  0
  1  2  1  0  0  0  0
  3  1  1  1  0  0  0
  3  4  1  0  0  0  0
  3  5  1  0  0  0  0
  5  6  1  6  0  0  0
  5  7  1  0  0  0  0
  7  8  1  6  0  0  0
  7  9  1  0  0  0  0
  9 27  1  0  0  0  0
 10 11  1  0  0  0  0
 11 12  2  0  0  0  0
 11 13  1  0  0  0  0
 13 14  1  0  0  0  0
 14 16  2  0  0  0  0
 15 14  1  6  0  0  0
 15 18  1  0  0  0  0
 15 26  1  0  0  0  0
 17 19  1  6  0  0  0
 17 25  1  0  0  0  0
 17 18  1  0  0  0  0
 19 20  1  0  0  0  0
 20 21  1  1  0  0  0
 20 22  1  0  0  0  0
 22 23  1  1  0  0  0
 22 24  1  0  0  0  0
 23 28  1  0  0  0  0
 23 29  1  0  0  0  0
 25 24  1  1  0  0  0
 25 27  1  0  0  0  0
 26 10  1  1  0  0  0
 26 27  1  0  0  0  0
M  END
>  <CHROM.1>
156.29332837,59.98451499,42.89621534,46.45205521,-125.36104234,91.60604902
16.76118304,25.60558924,11.35344943,-0.12066322,-0.50030275,-1.46305875

>  <Name>
ligand

>  <RI>
0

>  <Rbt.Current_Directory>
/home/itssahil/PROJECTS/Mol_Feturizer/New_Systems/rnas/3F4H

>  <Rbt.Executable>
rbdock ($Id: //depot/dev/client3/rdock/2013.1/src/exe/rbdock.cxx#4 $)

>  <Rbt.Library>
libRbt.so (2013.1, Build901 2013/11/27)

>  <Rbt.Parameter_File>
/export/apps/rDock/src/rDock_2013.1_src/data/scripts/dock_solv.prm

>  <Rbt.Receptor>
prm/blind_docking_40.prm

>  <SCORE>
-7.80275

>  <SCORE.INTER>
1.18245

>  <SCORE.INTER.CONST>
1

>  <SCORE.INTER.POLAR>
0

>  <SCORE.INTER.ROT>
6

>  <SCORE.INTER.SOLV>
13.4358

>  <SCORE.INTER.VDW>
-11.2903

>  <SCORE.INTER.norm>
0.0407742

>  <SCORE.INTRA>
-14.139

>  <SCORE.INTRA.DIHEDRAL>
-1.39614

>  <SCORE.INTRA.DIHEDRAL.0>
6.83446

>  <SCORE.INTRA.POLAR>
0

>  <SCORE.INTRA.POLAR.0>
0

>  <SCORE.INTRA.REPUL>
0

>  <SCORE.INTRA.REPUL.0>
0

>  <SCORE.INTRA.SOLV>
0.204722

>  <SCORE.INTRA.SOLV.lig_0>
-26.4601

>  <SCORE.INTRA.VDW>
-13.5433

>  <SCORE.INTRA.VDW.0>
13.7853

>  <SCORE.INTRA.norm>
-0.487552

>  <SCORE.RESTR>
5.15379

>  <SCORE.RESTR.CAVITY>
5.15379

>  <SCORE.RESTR.norm>
0.177717

>  <SCORE.SYSTEM>
0

>  <SCORE.SYSTEM.CONST>
0

>  <SCORE.SYSTEM.DIHEDRAL>
0

>  <SCORE.SYSTEM.SOLV>
0

>  <SCORE.SYSTEM.norm>
0

>  <SCORE.heavy>
29

>  <SCORE.norm>
-0.269061

>  <RMSD>
18.610

$$$$
ligand
 OpenBabel11021811473D
libRbt.so/2013.1/901 2013/11/27
 29 31  0  0  0  0  0  0  0  0999 V2000
   13.8104   27.4349   16.5094 C   0  0  0  0  0  0  0  0  0  0  0  0
   12.4310   27.1166   16.7213 O   0  0  0  0  0  0  0  0  0  0  0  0
   14.5955   26.1488   16.2909 C   0  0  1  0  0  0  0  0  0  0  0  0
   14.1505   25.5464   15.0795 O   0  0  0  0  0  0  0  0  0  0  0  0
   16.0892   26.4389   16.2197 C   0  0  1  0  0  0  0  0  0  0  0  0
   16.7555   25.3836   16.9030 O   0  0  0  0  0  0  0  0  0  0  0  0
   16.6534   26.5854   14.8034 C   0  0  1  0  0  0  0  0  0  0  0  0
   17.9962   27.0624   14.8988 O   0  0  0  0  0  0  0  0  0  0  0  0
   16.6689   25.2766   14.0163 C   0  0  0  0  0  0  0  0  0  0  0  0
   18.9837   26.2994   12.7645 N   0  0  0  0  0  0  0  0  0  0  0  0
   20.1197   26.7889   12.1919 C   0  0  0  0  0  0  0  0  0  0  0  0
   21.1297   27.0391   12.8960 O   0  0  0  0  0  0  0  0  0  0  0  0
   20.1708   27.0168   10.8550 N   0  0  0  0  0  0  0  0  0  0  0  0
   19.0982   26.7631   10.0639 C   0  0  0  0  0  0  0  0  0  0  0  0
   17.9332   26.2623   10.6337 C   0  0  1  0  0  0  0  0  0  0  0  0
   19.1495   26.9775    8.8274 O   0  0  0  0  0  0  0  0  0  0  0  0
   15.7322   25.5139   10.4075 C   0  0  1  0  0  0  0  0  0  0  0  0
   16.8615   26.0016    9.8540 N   0  0  0  0  0  0  0  0  0  0  0  0
   14.6335   25.2489    9.5974 C   0  0  0  0  0  0  0  0  0  0  0  0
   13.4563   24.7434   10.1379 C   0  0  2  0  0  0  0  0  0  0  0  0
   12.3042   24.4803    9.2026 C   0  0  0  0  0  0  0  0  0  0  0  0
   13.3738   24.4971   11.5143 C   0  0  2  0  0  0  0  0  0  0  0  0
   12.2506   24.0015   12.1160 N   0  0  0  0  0  0  0  0  0  0  0  0
   14.4878   24.7701   12.3174 C   0  0  0  0  0  0  0  0  0  0  0  0
   15.6700   25.2783   11.7799 C   0  0  2  0  0  0  0  0  0  0  0  0
   17.8796   26.0257   12.0109 C   0  0  2  0  0  0  0  0  0  0  0  0
   16.7389   25.5415   12.5661 N   0  0  0  0  0  0  0  0  0  0  0  0
   11.9479   22.5861   12.0188 C   0  0  0  0  0  0  0  0  0  0  0  0
   11.3292   24.8388   12.8661 C   0  0  0  0  0  0  0  0  0  0  0  0
  1  2  1  0  0  0  0
  3  1  1  6  0  0  0
  3  4  1  0  0  0  0
  3  5  1  0  0  0  0
  5  6  1  6  0  0  0
  5  7  1  0  0  0  0
  7  8  1  1  0  0  0
  7  9  1  0  0  0  0
  9 27  1  0  0  0  0
 10 11  1  0  0  0  0
 11 12  2  0  0  0  0
 11 13  1  0  0  0  0
 13 14  1  0  0  0  0
 14 16  2  0  0  0  0
 15 14  1  6  0  0  0
 15 18  1  0  0  0  0
 15 26  1  0  0  0  0
 17 19  1  6  0  0  0
 17 25  1  0  0  0  0
 17 18  1  0  0  0  0
 19 20  1  0  0  0  0
 20 21  1  1  0  0  0
 20 22  1  0  0  0  0
 22 23  1  1  0  0  0
 22 24  1  0  0  0  0
 23 28  1  0  0  0  0
 23 29  1  0  0  0  0
 25 24  1  1  0  0  0
 25 27  1  0  0  0  0
 26 10  1  1  0  0  0
 26 27  1  0  0  0  0
M  END
>  <CHROM.1>
65.26978176,141.01412383,170.81142927,159.27803387,77.96432448,-110.36054217
15.92942057,25.79497176,12.71597256,-2.88164599,-0.29892517,-1.75788506

>  <Name>
ligand

>  <RI>
0

>  <Rbt.Current_Directory>
/home/itssahil/PROJECTS/Mol_Feturizer/New_Systems/rnas/3F4H

>  <Rbt.Executable>
rbdock ($Id: //depot/dev/client3/rdock/2013.1/src/exe/rbdock.cxx#4 $)

>  <Rbt.Library>
libRbt.so (2013.1, Build901 2013/11/27)

>  <Rbt.Parameter_File>
/export/apps/rDock/src/rDock_2013.1_src/data/scripts/dock_solv.prm

>  <Rbt.Receptor>
prm/blind_docking_40.prm

>  <SCORE>
-13.5591

>  <SCORE.INTER>
-4.55808

>  <SCORE.INTER.CONST>
1

>  <SCORE.INTER.POLAR>
0

>  <SCORE.INTER.ROT>
6

>  <SCORE.INTER.SOLV>
10.3262

>  <SCORE.INTER.VDW>
-14.0808

>  <SCORE.INTER.norm>
-0.157175

>  <SCORE.INTRA>
-13.8885

>  <SCORE.INTRA.DIHEDRAL>
0.919752

>  <SCORE.INTRA.DIHEDRAL.0>
6.83446

>  <SCORE.INTRA.POLAR>
0

>  <SCORE.INTRA.POLAR.0>
0

>  <SCORE.INTRA.REPUL>
0

>  <SCORE.INTRA.REPUL.0>
0

>  <SCORE.INTRA.SOLV>
0.32462

>  <SCORE.INTRA.SOLV.lig_0>
-26.4601

>  <SCORE.INTRA.VDW>
-14.5107

>  <SCORE.INTRA.VDW.0>
13.7853

>  <SCORE.INTRA.norm>
-0.478914

>  <SCORE.RESTR>
4.88747

>  <SCORE.RESTR.CAVITY>
4.88747

>  <SCORE.RESTR.norm>
0.168533

>  <SCORE.SYSTEM>
0

>  <SCORE.SYSTEM.CONST>
0

>  <SCORE.SYSTEM.DIHEDRAL>
0

>  <SCORE.SYSTEM.SOLV>
0

>  <SCORE.SYSTEM.norm>
0

>  <SCORE.heavy>
29

>  <SCORE.norm>
-0.467555

>  <RMSD>
18.860

$$$$
ligand
 OpenBabel11021811473D
libRbt.so/2013.1/901 2013/11/27
 29 31  0  0  0  0  0  0  0  0999 V2000
   13.4878   25.8395   15.8674 C   0  0  0  0  0  0  0  0  0  0  0  0
   13.5340   27.2555   16.0720 O   0  0  0  0  0  0  0  0  0  0  0  0
   14.6989   25.1960   16.5287 C   0  0  1  0  0  0  0  0  0  0  0  0
   14.2535   24.0990   17.3202 O   0  0  0  0  0  0  0  0  0  0  0  0
   15.6933   24.7203   15.4774 C   0  0  1  0  0  0  0  0  0  0  0  0
   15.0401   23.7216   14.7024 O   0  0  0  0  0  0  0  0  0  0  0  0
   16.2426   25.8186   14.5622 C   0  0  1  0  0  0  0  0  0  0  0  0
   16.7086   26.8950   15.3769 O   0  0  0  0  0  0  0  0  0  0  0  0
   17.4006   25.3538   13.6813 C   0  0  0  0  0  0  0  0  0  0  0  0
   19.3458   26.8855   12.3244 N   0  0  0  0  0  0  0  0  0  0  0  0
   20.3083   27.6194   11.6975 C   0  0  0  0  0  0  0  0  0  0  0  0
   21.3677   27.9254   12.2996 O   0  0  0  0  0  0  0  0  0  0  0  0
   20.1307   28.0326   10.4170 N   0  0  0  0  0  0  0  0  0  0  0  0
   18.9976   27.7252    9.7369 C   0  0  0  0  0  0  0  0  0  0  0  0
   18.0079   26.9762   10.3631 C   0  0  1  0  0  0  0  0  0  0  0  0
   18.8369   28.1116    8.5527 O   0  0  0  0  0  0  0  0  0  0  0  0
   15.9194   25.9323   10.3006 C   0  0  1  0  0  0  0  0  0  0  0  0
   16.8783   26.6606    9.6930 N   0  0  0  0  0  0  0  0  0  0  0  0
   14.7596   25.6124    9.6035 C   0  0  0  0  0  0  0  0  0  0  0  0
   13.7541   24.8609   10.2017 C   0  0  2  0  0  0  0  0  0  0  0  0
   12.5232   24.5515    9.3889 C   0  0  0  0  0  0  0  0  0  0  0  0
   13.9092   24.4193   11.5219 C   0  0  2  0  0  0  0  0  0  0  0  0
   12.9645   23.6775   12.1748 N   0  0  0  0  0  0  0  0  0  0  0  0
   15.0820   24.7504   12.2115 C   0  0  0  0  0  0  0  0  0  0  0  0
   16.0923   25.5048   11.6161 C   0  0  2  0  0  0  0  0  0  0  0  0
   18.1901   26.5486   11.6819 C   0  0  2  0  0  0  0  0  0  0  0  0
   17.2198   25.8216   12.2933 N   0  0  0  0  0  0  0  0  0  0  0  0
   12.7934   22.2762   11.8408 C   0  0  0  0  0  0  0  0  0  0  0  0
   12.1091   24.2340   13.2099 C   0  0  0  0  0  0  0  0  0  0  0  0
  1  2  1  0  0  0  0
  3  1  1  6  0  0  0
  3  4  1  0  0  0  0
  3  5  1  0  0  0  0
  5  6  1  6  0  0  0
  5  7  1  0  0  0  0
  7  8  1  1  0  0  0
  7  9  1  0  0  0  0
  9 27  1  0  0  0  0
 10 11  1  0  0  0  0
 11 12  2  0  0  0  0
 11 13  1  0  0  0  0
 13 14  1  0  0  0  0
 14 16  2  0  0  0  0
 15 14  1  6  0  0  0
 15 18  1  0  0  0  0
 15 26  1  0  0  0  0
 17 19  1  6  0  0  0
 17 25  1  0  0  0  0
 17 18  1  0  0  0  0
 19 20  1  0  0  0  0
 20 21  1  1  0  0  0
 20 22  1  0  0  0  0
 22 23  1  1  0  0  0
 22 24  1  0  0  0  0
 23 28  1  0  0  0  0
 23 29  1  0  0  0  0
 25 24  1  1  0  0  0
 25 27  1  0  0  0  0
 26 10  1  1  0  0  0
 26 27  1  0  0  0  0
M  END
>  <CHROM.1>
131.03683964,-62.79729933,50.22807536,134.80358715,74.43307410,-56.47071004
16.04867757,25.75272789,12.53429848,-2.60667372,-0.48258467,-1.56828405

>  <Name>
ligand

>  <RI>
0

>  <Rbt.Current_Directory>
/home/itssahil/PROJECTS/Mol_Feturizer/New_Systems/rnas/3F4H

>  <Rbt.Executable>
rbdock ($Id: //depot/dev/client3/rdock/2013.1/src/exe/rbdock.cxx#4 $)

>  <Rbt.Library>
libRbt.so (2013.1, Build901 2013/11/27)

>  <Rbt.Parameter_File>
/export/apps/rDock/src/rDock_2013.1_src/data/scripts/dock_solv.prm

>  <Rbt.Receptor>
prm/blind_docking_40.prm

>  <SCORE>
-10.5689

>  <SCORE.INTER>
-3.01668

>  <SCORE.INTER.CONST>
1

>  <SCORE.INTER.POLAR>
0

>  <SCORE.INTER.ROT>
6

>  <SCORE.INTER.SOLV>
7.20841

>  <SCORE.INTER.VDW>
-12.0139

>  <SCORE.INTER.norm>
-0.104024

>  <SCORE.INTRA>
-12.3586

>  <SCORE.INTRA.DIHEDRAL>
4.93904

>  <SCORE.INTRA.DIHEDRAL.0>
6.83446

>  <SCORE.INTRA.POLAR>
0

>  <SCORE.INTRA.POLAR.0>
0

>  <SCORE.INTRA.REPUL>
0

>  <SCORE.INTRA.REPUL.0>
0

>  <SCORE.INTRA.SOLV>
0.646424

>  <SCORE.INTRA.SOLV.lig_0>
-26.4601

>  <SCORE.INTRA.VDW>
-15.1514

>  <SCORE.INTRA.VDW.0>
13.7853

>  <SCORE.INTRA.norm>
-0.42616

>  <SCORE.RESTR>
4.80641

>  <SCORE.RESTR.CAVITY>
4.80641

>  <SCORE.RESTR.norm>
0.165738

>  <SCORE.SYSTEM>
0

>  <SCORE.SYSTEM.CONST>
0

>  <SCORE.SYSTEM.DIHEDRAL>
0

>  <SCORE.SYSTEM.SOLV>
0

>  <SCORE.SYSTEM.norm>
0

>  <SCORE.heavy>
29

>  <SCORE.norm>
-0.364445

>  <RMSD>
18.916

$$$$
ligand
 OpenBabel11021811473D
libRbt.so/2013.1/901 2013/11/27
 29 31  0  0  0  0  0  0  0  0999 V2000
   13.6206   23.0309    9.5381 C   0  0  0  0  0  0  0  0  0  0  0  0
   12.7712   21.8789    9.5162 O   0  0  0  0  0  0  0  0  0  0  0  0
   12.7624   24.2884    9.5567 C   0  0  1  0  0  0  0  0  0  0  0  0
   11.7362   24.1512    8.5787 O   0  0  0  0  0  0  0  0  0  0  0  0
   12.1530   24.5003   10.9366 C   0  0  1  0  0  0  0  0  0  0  0  0
   11.6805   23.2356   11.3862 O   0  0  0  0  0  0  0  0  0  0  0  0
   13.1001   25.1063   11.9764 C   0  0  1  0  0  0  0  0  0  0  0  0
   12.3702   25.3137   13.1863 O   0  0  0  0  0  0  0  0  0  0  0  0
   14.3031   24.2201   12.2933 C   0  0  0  0  0  0  0  0  0  0  0  0
   14.5949   24.1663   15.1010 N   0  0  0  0  0  0  0  0  0  0  0  0
   14.7106   24.1132   16.4581 C   0  0  0  0  0  0  0  0  0  0  0  0
   13.9170   23.4150   17.1371 O   0  0  0  0  0  0  0  0  0  0  0  0
   15.6815   24.8186   17.0920 N   0  0  0  0  0  0  0  0  0  0  0  0
   16.5533   25.5873   16.3920 C   0  0  0  0  0  0  0  0  0  0  0  0
   16.4482   25.6501   15.0072 C   0  0  1  0  0  0  0  0  0  0  0  0
   17.4489   26.2400   16.9832 O   0  0  0  0  0  0  0  0  0  0  0  0
   17.2130   26.4671   12.9571 C   0  0  1  0  0  0  0  0  0  0  0  0
   17.3145   26.4083   14.3008 N   0  0  0  0  0  0  0  0  0  0  0  0
   18.1087   27.2507   12.2379 C   0  0  0  0  0  0  0  0  0  0  0  0
   18.0313   27.3297   10.8517 C   0  0  2  0  0  0  0  0  0  0  0  0
   19.0331   28.1986   10.1355 C   0  0  0  0  0  0  0  0  0  0  0  0
   17.0406   26.6121   10.1695 C   0  0  2  0  0  0  0  0  0  0  0  0
   16.9033   26.6411    8.8096 N   0  0  0  0  0  0  0  0  0  0  0  0
   16.1450   25.8285   10.9074 C   0  0  0  0  0  0  0  0  0  0  0  0
   16.2181   25.7473   12.2976 C   0  0  2  0  0  0  0  0  0  0  0  0
   15.4493   24.9226   14.3527 C   0  0  2  0  0  0  0  0  0  0  0  0
   15.3452   24.9895   13.0004 N   0  0  0  0  0  0  0  0  0  0  0  0
   17.8870   25.9798    7.9733 C   0  0  0  0  0  0  0  0  0  0  0  0
   15.7964   27.3118    8.1479 C   0  0  0  0  0  0  0  0  0  0  0  0
  1  2  1  0  0  0  0
  3  1  1  1  0  0  0
  3  4  1  0  0  0  0
  3  5  1  0  0  0  0
  5  6  1  1  0  0  0
  5  7  1  0  0  0  0
  7  8  1  1  0  0  0
  7  9  1  0  0  0  0
  9 27  1  0  0  0  0
 10 11  1  0  0  0  0
 11 12  2  0  0  0  0
 11 13  1  0  0  0  0
 13 14  1  0  0  0  0
 14 16  2  0  0  0  0
 15 14  1  6  0  0  0
 15 18  1  0  0  0  0
 15 26  1  0  0  0  0
 17 19  1  6  0  0  0
 17 25  1  0  0  0  0
 17 18  1  0  0  0  0
 19 20  1  0  0  0  0
 20 21  1  1  0  0  0
 20 22  1  0  0  0  0
 22 23  1  1  0  0  0
 22 24  1  0  0  0  0
 23 28  1  0  0  0  0
 23 29  1  0  0  0  0
 25 24  1  1  0  0  0
 25 27  1  0  0  0  0
 26 10  1  1  0  0  0
 26 27  1  0  0  0  0
M  END
>  <CHROM.1>
-46.07552286,-43.67839120,176.74715044,164.67729759,71.15411492,-82.87003445
15.23527254,25.23832643,12.27549391,1.76415376,-0.57033118,-1.46153070

>  <Name>
ligand

>  <RI>
0

>  <Rbt.Current_Directory>
/home/itssahil/PROJECTS/Mol_Feturizer/New_Systems/rnas/3F4H

>  <Rbt.Executable>
rbdock ($Id: //depot/dev/client3/rdock/2013.1/src/exe/rbdock.cxx#4 $)

>  <Rbt.Library>
libRbt.so (2013.1, Build901 2013/11/27)

>  <Rbt.Parameter_File>
/export/apps/rDock/src/rDock_2013.1_src/data/scripts/dock_solv.prm

>  <Rbt.Receptor>
prm/blind_docking_40.prm

>  <SCORE>
-21.3045

>  <SCORE.INTER>
-11.6995

>  <SCORE.INTER.CONST>
1

>  <SCORE.INTER.POLAR>
0

>  <SCORE.INTER.ROT>
6

>  <SCORE.INTER.SOLV>
12.4364

>  <SCORE.INTER.VDW>
-19.5451

>  <SCORE.INTER.norm>
-0.403429

>  <SCORE.INTRA>
-14.8993

>  <SCORE.INTRA.DIHEDRAL>
-2.33417

>  <SCORE.INTRA.DIHEDRAL.0>
6.83446

>  <SCORE.INTRA.POLAR>
0

>  <SCORE.INTRA.POLAR.0>
0

>  <SCORE.INTRA.REPUL>
0

>  <SCORE.INTRA.REPUL.0>
0

>  <SCORE.INTRA.SOLV>
0.138708

>  <SCORE.INTRA.SOLV.lig_0>
-26.4601

>  <SCORE.INTRA.VDW>
-13.8016

>  <SCORE.INTRA.VDW.0>
13.7853

>  <SCORE.INTRA.norm>
-0.513769

>  <SCORE.RESTR>
5.29426

>  <SCORE.RESTR.CAVITY>
5.29426

>  <SCORE.RESTR.norm>
0.182561

>  <SCORE.SYSTEM>
0

>  <SCORE.SYSTEM.CONST>
0

>  <SCORE.SYSTEM.DIHEDRAL>
0

>  <SCORE.SYSTEM.SOLV>
0

>  <SCORE.SYSTEM.norm>
0

>  <SCORE.heavy>
29

>  <SCORE.norm>
-0.734637

>  <RMSD>
19.574

$$$$
