@<TRIPOS>MOLECULE
3F4H_rdock.pdb
 2354 2625 0 0 0
SMALL
GASTEIGER

@<TRIPOS>ATOM
      1  C5'       -4.7670   36.8360   18.5070 C.3     1  G1          0.0000
      2  O5'       -4.6700   36.3460   17.1710 O.3     1  G1          0.0000
      3  C4'       -5.8130   36.0730   19.3030 C.3     1  G1          0.0000
      4  O4'       -7.0940   36.1070   18.6120 O.3     1  G1          0.0000
      5  C3'       -5.5330   34.5890   19.5080 C.3     1  G1          0.0000
      6  O3'       -4.6330   34.3620   20.5990 O.3     1  G1          0.0000
      7  C2'       -6.9450   34.0820   19.7890 C.3     1  G1          0.0000
      8  O2'       -7.4130   34.4410   21.0760 O.3     1  G1          0.0000
      9  C1'       -7.7220   34.8360   18.7100 C.3     1  G1          0.0000
     10  N1        -8.8660   30.6430   15.9400 N.ar    1  G1          0.0000
     11  C2        -9.0910   30.8750   17.2790 C.ar    1  G1          0.0000
     12  N2        -9.6830   29.8770   17.9660 N.pl3   1  G1          0.0000
     13  N3        -8.7540   32.0060   17.9010 N.ar    1  G1          0.0000
     14  C4        -8.1610   32.9120   17.0620 C.ar    1  G1          0.0000
     15  C5        -7.8950   32.7670   15.7110 C.ar    1  G1          0.0000
     16  C6        -8.2590   31.5540   15.0620 C.ar    1  G1          0.0000
     17  O6        -8.1020   31.2490   13.8700 O.2     1  G1          0.0000
     18  N7        -7.2770   33.9090   15.1980 N.ar    1  G1          0.0000
     19  C8        -7.1830   34.7090   16.2230 C.ar    1  G1          0.0000
     20  N9        -7.6960   34.1800   17.3940 N.ar    1  G1          0.0000
     21  P         -3.4940   33.2320   20.5100 P.3     2  G2          0.0000
     22  C5'       -4.7640   31.3920   21.9050 C.3     2  G2          0.0000
     23  O5'       -4.3150   31.8590   20.6290 O.3     2  G2          0.0000
     24  C4'       -5.5100   30.0710   21.8030 C.3     2  G2          0.0000
     25  O4'       -6.5470   30.1530   20.7930 O.3     2  G2          0.0000
     26  C3'       -4.6880   28.8690   21.3590 C.3     2  G2          0.0000
     27  O3'       -3.9240   28.3380   22.4340 O.3     2  G2          0.0000
     28  C2'       -5.7890   27.9140   20.9060 C.3     2  G2          0.0000
     29  O2'       -6.4670   27.2940   21.9830 O.3     2  G2          0.0000
     30  C1'       -6.7280   28.8790   20.1910 C.3     2  G2          0.0000
     31  N1        -7.2310   26.6060   15.6340 N.ar    2  G2          0.0000
     32  C2        -7.6000   26.1480   16.8820 C.ar    2  G2          0.0000
     33  N2        -8.1770   24.9380   16.9240 N.pl3   2  G2          0.0000
     34  N3        -7.4180   26.8310   18.0080 N.ar    2  G2          0.0000
     35  C4        -6.8210   28.0340   17.7850 C.ar    2  G2          0.0000
     36  C5        -6.4140   28.5760   16.5790 C.ar    2  G2          0.0000
     37  C6        -6.6220   27.8370   15.3840 C.ar    2  G2          0.0000
     38  O6        -6.3250   28.1550   14.2220 O.2     2  G2          0.0000
     39  N7        -5.8430   29.8300   16.7670 N.ar    2  G2          0.0000
     40  C8        -5.9120   30.0190   18.0580 C.ar    2  G2          0.0000
     41  N9        -6.4950   28.9740   18.7440 N.ar    2  G2          0.0000
     42  OP1       -2.6360   33.3810   21.7050 O.3     2  G2         -0.5000
     43  OP2       -2.8830   33.2850   19.1610 O.co2   2  G2         -0.5000
     44  P         -2.4500   27.7720   22.1570 P.3     3  A3          0.0000
     45  C5'       -2.2980   25.2160   21.4210 C.3     3  A3          0.0000
     46  O5'       -2.7100   26.5620   21.1310 O.3     3  A3          0.0000
     47  C4'       -3.2880   24.1810   20.8940 C.3     3  A3          0.0000
     48  O4'       -4.4730   24.8290   20.3440 O.3     3  A3          0.0000
     49  C3'       -2.7630   23.2950   19.7670 C.3     3  A3          0.0000
     50  O3'       -2.1030   22.1350   20.2740 O.3     3  A3          0.0000
     51  C2'       -4.0380   22.9670   18.9910 C.3     3  A3          0.0000
     52  O2'       -4.8150   21.9530   19.5980 O.3     3  A3          0.0000
     53  C1'       -4.7580   24.3150   19.0520 C.3     3  A3          0.0000
     54  N1        -4.3310   25.4090   14.0010 N.ar    3  A3          0.0000
     55  C2        -4.8620   24.3570   14.6430 C.ar    3  A3          0.0000
     56  N3        -4.9460   24.1350   15.9570 N.ar    3  A3          0.0000
     57  C4        -4.3960   25.1480   16.6580 C.ar    3  A3          0.0000
     58  C5        -3.8090   26.2930   16.1360 C.ar    3  A3          0.0000
     59  C6        -3.7840   26.4110   14.7280 C.ar    3  A3          0.0000
     60  N6        -3.2530   27.4610   14.0910 N.pl3   3  A3          0.0000
     61  N7        -3.3500   27.1210   17.1470 N.ar    3  A3          0.0000
     62  C8        -3.6630   26.4710   18.2430 C.ar    3  A3          0.0000
     63  N9        -4.2990   25.2720   18.0320 N.ar    3  A3          0.0000
     64  OP1       -1.9280   27.2380   23.4340 O.3     3  A3         -0.5000
     65  OP2       -1.6860   28.8230   21.4460 O.co2   3  A3         -0.5000
     66  P         -0.5320   21.9430   20.0050 P.3     4  U4          0.0000
     67  C5'       -1.0400   20.0010   18.2810 C.3     4  U4          0.0000
     68  O5'       -0.4750   21.2890   18.5420 O.3     4  U4          0.0000
     69  C4'       -1.3070   19.8030   16.7960 C.3     4  U4          0.0000
     70  O4'       -2.2760   20.7840   16.3280 O.3     4  U4          0.0000
     71  C3'       -0.1080   20.0020   15.8730 C.3     4  U4          0.0000
     72  O3'        0.7320   18.8580   15.8150 O.3     4  U4          0.0000
     73  C2'       -0.8080   20.2920   14.5500 C.3     4  U4          0.0000
     74  O2'       -1.3840   19.1410   13.9600 O.3     4  U4          0.0000
     75  C1'       -1.9000   21.2440   15.0350 C.3     4  U4          0.0000
     76  N1        -1.4570   22.7010   15.0750 N.ar    4  U4          0.0000
     77  C2        -1.5160   23.4610   13.9140 C.ar    4  U4          0.0000
     78  O2        -1.9150   23.0240   12.8470 O.2     4  U4          0.0000
     79  N3        -1.0890   24.7670   14.0500 N.ar    4  U4          0.0000
     80  C4        -0.6180   25.3790   15.2050 C.ar    4  U4          0.0000
     81  O4        -0.2690   26.5560   15.1780 O.2     4  U4          0.0000
     82  C5        -0.5780   24.5300   16.3690 C.ar    4  U4          0.0000
     83  C6        -0.9890   23.2590   16.2590 C.ar    4  U4          0.0000
     84  OP1       -0.0040   20.9640   20.9830 O.3     4  U4         -0.5000
     85  OP2        0.0820   23.2910   19.9180 O.co2   4  U4         -0.5000
     86  P          2.3090   19.0190   16.0650 P.3     5  C5          0.0000
     87  C5'        2.9030   18.3290   13.5870 C.3     5  C5          0.0000
     88  O5'        2.9020   19.3260   14.6090 O.3     5  C5          0.0000
     89  C4'        2.8630   18.9700   12.2120 C.3     5  C5          0.0000
     90  O4'        1.7590   19.9110   12.1530 O.3     5  C5          0.0000
     91  C3'        4.0670   19.8300   11.8610 C.3     5  C5          0.0000
     92  O3'        5.1670   19.0650   11.4050 O.3     5  C5          0.0000
     93  C2'        3.4810   20.7120   10.7660 C.3     5  C5          0.0000
     94  O2'        3.2830   20.0310    9.5420 O.3     5  C5          0.0000
     95  C1'        2.1430   21.0570   11.4050 C.3     5  C5          0.0000
     96  N1         2.2050   22.2880   12.2870 N.ar    5  C5          0.0000
     97  C2         2.1300   23.5660   11.7010 C.ar    5  C5          0.0000
     98  O2         2.0120   23.6700   10.4720 O.2     5  C5          0.0000
     99  N3         2.1890   24.6650   12.5020 N.ar    5  C5          0.0000
    100  C4         2.3180   24.5280   13.8270 C.ar    5  C5          0.0000
    101  N4         2.3730   25.6380   14.5690 N.pl3   5  C5          0.0000
    102  C5         2.3980   23.2430   14.4460 C.ar    5  C5          0.0000
    103  C6         2.3390   22.1680   13.6480 C.ar    5  C5          0.0000
    104  OP1        2.8200   17.7080   16.5250 O.2     5  C5         -0.5000
    105  OP2        2.5300   20.2300   16.8930 O.co2   5  C5         -0.5000
    106  P          6.6280   19.7180   11.4510 P.3     6  U6          0.0000
    107  C5'        6.5500   19.5720    8.8080 C.3     6  U6          0.0000
    108  O5'        6.8040   20.3370    9.9880 O.3     6  U6          0.0000
    109  C4'        6.4980   20.4850    7.5950 C.3     6  U6          0.0000
    110  O4'        5.3290   21.3420    7.6960 O.3     6  U6          0.0000
    111  C3'        7.6570   21.4680    7.4890 C.3     6  U6          0.0000
    112  O3'        8.8010   20.9000    6.8800 O.3     6  U6          0.0000
    113  C2'        7.0440   22.5940    6.6670 C.3     6  U6          0.0000
    114  O2'        6.9200   22.2800    5.2920 O.3     6  U6          0.0000
    115  C1'        5.6750   22.6730    7.3350 C.3     6  U6          0.0000
    116  N1         5.6380   23.5790    8.5510 N.ar    6  U6          0.0000
    117  C2         5.4640   24.9440    8.3700 C.ar    6  U6          0.0000
    118  O2         5.3310   25.4690    7.2760 O.2     6  U6          0.0000
    119  N3         5.4400   25.6840    9.5330 N.ar    6  U6          0.0000
    120  C4         5.5740   25.2130   10.8310 C.ar    6  U6          0.0000
    121  O4         5.5290   26.0020   11.7690 O.2     6  U6          0.0000
    122  C5         5.7580   23.7860   10.9450 C.ar    6  U6          0.0000
    123  C6         5.7820   23.0490    9.8270 C.ar    6  U6          0.0000
    124  OP1        7.6070   18.6250   11.6300 O.2     6  U6         -0.5000
    125  OP2        6.6010   20.8480   12.4070 O.co2   6  U6         -0.5000
    126  P         10.2420   21.2870    7.4620 P.3     7  U7          0.0000
    127  C5'       10.6620   22.8630    5.3920 C.3     7  U7          0.0000
    128  O5'       10.5260   22.7240    6.8080 O.3     7  U7          0.0000
    129  C4'       10.4600   24.3010    4.9440 C.3     7  U7          0.0000
    130  O4'        9.2050   24.8220    5.4530 O.3     7  U7          0.0000
    131  C3'       11.4560   25.3020    5.4930 C.3     7  U7          0.0000
    132  O3'       12.6870   25.2350    4.8300 O.3     7  U7          0.0000
    133  C2'       10.7190   26.6080    5.2350 C.3     7  U7          0.0000
    134  O2'       10.6510   26.9610    3.8680 O.3     7  U7          0.0000
    135  C1'        9.3490   26.2040    5.7550 C.3     7  U7          0.0000
    136  N1         9.1900   26.4370    7.2400 N.ar    7  U7          0.0000
    137  C2         8.9000   27.7120    7.7020 C.ar    7  U7          0.0000
    138  O2         8.7610   28.6800    6.9730 O.2     7  U7          0.0000
    139  N3         8.7750   27.8200    9.0680 N.ar    7  U7          0.0000
    140  C4         8.9100   26.8050   10.0000 C.ar    7  U7          0.0000
    141  O4         8.7710   27.0520   11.1910 O.2     7  U7          0.0000
    142  C5         9.2130   25.5080    9.4510 C.ar    7  U7          0.0000
    143  C6         9.3380   25.3790    8.1240 C.ar    7  U7          0.0000
    144  OP1       11.2210   20.3140    6.9280 O.2     7  U7         -0.5000
    145  OP2       10.1070   21.4650    8.9270 O.co2   7  U7         -0.5000
    146  P         14.0000   25.4860    5.7000 P.3     8  C8          0.0000
    147  C5'       14.0540   27.9840    4.8290 C.3     8  C8          0.0000
    148  O5'       13.9810   27.0720    5.9300 O.3     8  C8          0.0000
    149  C4'       13.6440   29.3860    5.2510 C.3     8  C8          0.0000
    150  O4'       12.3720   29.3410    5.9510 O.3     8  C8          0.0000
    151  C3'       14.5800   30.0580    6.2460 C.3     8  C8          0.0000
    152  O3'       15.6940   30.6480    5.6020 O.3     8  C8          0.0000
    153  C2'       13.6630   31.0840    6.9030 C.3     8  C8          0.0000
    154  O2'       13.4630   32.2520    6.1290 O.3     8  C8          0.0000
    155  C1'       12.3740   30.2720    7.0230 C.3     8  C8          0.0000
    156  N1        12.2780   29.5530    8.3440 N.ar    8  C8          0.0000
    157  C2        11.9300   30.2810    9.4930 C.ar    8  C8          0.0000
    158  O2        11.6950   31.4900    9.3960 O.2     8  C8          0.0000
    159  N3        11.8560   29.6380   10.6870 N.ar    8  C8          0.0000
    160  C4        12.1170   28.3300   10.7640 C.ar    8  C8          0.0000
    161  N4        12.0280   27.7460   11.9650 N.pl3   8  C8          0.0000
    162  C5        12.4800   27.5670    9.6090 C.ar    8  C8          0.0000
    163  C6        12.5480   28.2130    8.4370 C.ar    8  C8          0.0000
    164  OP1       15.1610   25.1280    4.8580 O.2     8  C8         -0.5000
    165  OP2       13.8070   24.8350    7.0190 O.co2   8  C8         -0.5000
    166  P         17.1270   30.5410    6.3010 P.3     9  G9          0.0000
    167  C5'       16.8080   32.8860    7.4380 C.3     9  G9          0.0000
    168  O5'       16.9540   31.4770    7.5840 O.3     9  G9          0.0000
    169  C4'       16.5680   33.5320    8.7880 C.3     9  G9          0.0000
    170  O4'       15.3170   33.0420    9.3420 O.3     9  G9          0.0000
    171  C3'       17.6000   33.1970    9.8550 C.3     9  G9          0.0000
    172  O3'       18.7580   34.0100    9.7420 O.3     9  G9          0.0000
    173  C2'       16.8090   33.5210   11.1110 C.3     9  G9          0.0000
    174  O2'       16.7530   34.9110   11.3540 O.3     9  G9          0.0000
    175  C1'       15.4270   32.9650   10.7550 C.3     9  G9          0.0000
    176  N1        14.2360   29.8260   14.6330 N.ar    9  G9          0.0000
    177  C2        14.2060   31.1990   14.5920 C.ar    9  G9          0.0000
    178  N2        13.8220   31.8150   15.7180 N.pl3   9  G9          0.0000
    179  N3        14.5300   31.9160   13.5190 N.ar    9  G9          0.0000
    180  C4        14.9010   31.1400   12.4650 C.ar    9  G9          0.0000
    181  C5        14.9610   29.7640   12.4140 C.ar    9  G9          0.0000
    182  C6        14.6110   29.0130   13.5640 C.ar    9  G9          0.0000
    183  O6        14.6090   27.7830   13.7000 O.2     9  G9          0.0000
    184  N7        15.3850   29.3370   11.1630 N.ar    9  G9          0.0000
    185  C8        15.5700   30.4400   10.4920 C.ar    9  G9          0.0000
    186  N9        15.2880   31.5780   11.2100 N.ar    9  G9          0.0000
    187  OP1       18.1170   31.1460    5.3850 O.2     9  G9         -0.5000
    188  OP2       17.3210   29.1540    6.7810 O.co2   9  G9         -0.5000
    189  P         20.2030   33.4030   10.0880 P.3    10  G10         0.0000
    190  C5'       20.8930   35.3650    8.5120 C.3    10  G10         0.0000
    191  O5'       21.1480   34.0400    8.9690 O.3    10  G10         0.0000
    192  C4'       22.0870   36.2670    8.7410 C.3    10  G10         0.0000
    193  O4'       22.0810   36.7760   10.1030 O.3    10  G10         0.0000
    194  C3'       23.4310   35.5760    8.5530 C.3    10  G10         0.0000
    195  O3'       24.2280   36.3030    7.6370 O.3    10  G10         0.0000
    196  C2'       24.0270   35.5690    9.9610 C.3    10  G10         0.0000
    197  O2'       25.4370   35.6490   10.0030 O.3    10  G10         0.0000
    198  C1'       23.4180   36.8320   10.5400 C.3    10  G10         0.0000
    199  N1        24.6130   39.6090   14.6350 N.ar   10  G10         0.0000
    200  C2        24.6350   39.9620   13.3050 C.ar   10  G10         0.0000
    201  N2        25.0260   41.2150   13.0310 N.pl3  10  G10         0.0000
    202  N3        24.2950   39.1420   12.3140 N.ar   10  G10         0.0000
    203  C4        23.9230   37.9170   12.7700 C.ar   10  G10         0.0000
    204  C5        23.8640   37.4700   14.0750 C.ar   10  G10         0.0000
    205  C6        24.2320   38.3590   15.1220 C.ar   10  G10         0.0000
    206  O6        24.2530   38.1530   16.3440 O.2    10  G10         0.0000
    207  N7        23.4290   36.1480   14.1210 N.ar   10  G10         0.0000
    208  C8        23.2360   35.8310   12.8710 C.ar   10  G10         0.0000
    209  N9        23.5070   36.8590   11.9960 N.ar   10  G10         0.0000
    210  OP1       20.1380   31.9410    9.8820 O.2    10  G10        -0.5000
    211  OP2       20.6550   33.9540   11.3870 O.co2  10  G10        -0.5000
    212  P         25.1720   35.4980    6.6290 P.3    11  G11         0.0000
    213  C5'       25.6390   37.7100    5.3060 C.3    11  G11         0.0000
    214  O5'       26.1560   36.6410    6.0880 O.3    11  G11         0.0000
    215  C4'       26.2410   39.0260    5.7410 C.3    11  G11         0.0000
    216  O4'       25.8630   39.2940    7.1080 O.3    11  G11         0.0000
    217  C3'       27.7560   39.0450    5.7770 C.3    11  G11         0.0000
    218  O3'       28.2560   39.3130    4.4930 O.3    11  G11         0.0000
    219  C2'       28.0250   40.1950    6.7360 C.3    11  G11         0.0000
    220  O2'       27.8170   41.4580    6.1420 O.3    11  G11         0.0000
    221  C1'       26.9260   39.9740    7.7590 C.3    11  G11         0.0000
    222  N1        28.1360   40.2220   12.7060 N.ar   11  G11         0.0000
    223  C2        27.8480   41.2370   11.8280 C.ar   11  G11         0.0000
    224  N2        27.8730   42.4770   12.3270 N.pl3  11  G11         0.0000
    225  N3        27.5450   41.0510   10.5500 N.ar   11  G11         0.0000
    226  C4        27.5650   39.7390   10.2010 C.ar   11  G11         0.0000
    227  C5        27.8430   38.6540   11.0000 C.ar   11  G11         0.0000
    228  C6        28.1540   38.8700   12.3680 C.ar   11  G11         0.0000
    229  O6        28.4320   38.0270   13.2300 O.2    11  G11         0.0000
    230  N7        27.7640   37.4750   10.2700 N.ar   11  G11         0.0000
    231  C8        27.4400   37.8630    9.0690 C.ar   11  G11         0.0000
    232  N9        27.3110   39.2230    8.9510 N.ar   11  G11         0.0000
    233  OP1       24.3060   35.0160    5.5300 O.2    11  G11        -0.5000
    234  OP2       25.9850   34.5280    7.4000 O.co2  11  G11        -0.5000
    235  P         29.4300   38.4130    3.8980 P.3    12  G12         0.0000
    236  C5'       31.0050   40.5230    3.8520 C.3    12  G12         0.0000
    237  O5'       30.7510   39.2070    4.3340 O.3    12  G12         0.0000
    238  C4'       31.8030   41.3290    4.8590 C.3    12  G12         0.0000
    239  O4'       31.1320   41.2840    6.1400 O.3    12  G12         0.0000
    240  C3'       33.2020   40.8140    5.1530 C.3    12  G12         0.0000
    241  O3'       34.1420   41.3680    4.2540 O.3    12  G12         0.0000
    242  C2'       33.4530   41.3410    6.5600 C.3    12  G12         0.0000
    243  O2'       33.8400   42.7030    6.5660 O.3    12  G12         0.0000
    244  C1'       32.0790   41.1890    7.1880 C.3    12  G12         0.0000
    245  N1        31.2180   38.9270   11.6650 N.ar   12  G12         0.0000
    246  C2        31.3730   40.2640   11.3780 C.ar   12  G12         0.0000
    247  N2        31.2870   41.1120   12.4100 N.pl3  12  G12         0.0000
    248  N3        31.6000   40.7400   10.1620 N.ar   12  G12         0.0000
    249  C4        31.6560   39.7540    9.2320 C.ar   12  G12         0.0000
    250  C5        31.5050   38.3980    9.4180 C.ar   12  G12         0.0000
    251  C6        31.2650   37.9040   10.7220 C.ar   12  G12         0.0000
    252  O6        31.1140   36.7320   11.0800 O.2    12  G12         0.0000
    253  N7        31.6270   37.7200    8.2130 N.ar   12  G12         0.0000
    254  C8        31.8420   38.6640    7.3400 C.ar   12  G12         0.0000
    255  N9        31.8780   39.9240    7.8860 N.ar   12  G12         0.0000
    256  OP1       29.2730   38.4680    2.4300 O.2    12  G12        -0.5000
    257  OP2       29.4540   37.1060    4.5930 O.co2  12  G12        -0.5000
    258  P         34.9450   40.4350    3.2400 P.3    13  C13         0.0000
    259  C5'       37.3970   40.4310    4.0940 C.3    13  C13         0.0000
    260  O5'       36.4240   41.0520    3.2610 O.3    13  C13         0.0000
    261  C4'       38.4940   41.3920    4.5090 C.3    13  C13         0.0000
    262  O4'       38.3940   41.6730    5.9210 O.3    13  C13         0.0000
    263  C3'       39.9030   40.8390    4.4080 C.3    13  C13         0.0000
    264  O3'       40.4260   40.9900    3.1070 O.3    13  C13         0.0000
    265  C2'       40.6970   41.6680    5.4240 C.3    13  C13         0.0000
    266  O2'       41.4780   42.7060    4.8640 O.3    13  C13         0.0000
    267  C1'       39.6190   42.2650    6.3080 C.3    13  C13         0.0000
    268  N1        39.9120   42.0370    7.7570 N.ar   13  C13         0.0000
    269  C2        40.7280   42.9530    8.4460 C.ar   13  C13         0.0000
    270  O2        41.1780   43.9430    7.8470 O.2    13  C13         0.0000
    271  N3        40.9950   42.7270    9.7650 N.ar   13  C13         0.0000
    272  C4        40.4930   41.6490   10.3880 C.ar   13  C13         0.0000
    273  N4        40.7770   41.4740   11.6880 N.pl3  13  C13         0.0000
    274  C5        39.6710   40.7070    9.6960 C.ar   13  C13         0.0000
    275  C6        39.4160   40.9340    8.3980 C.ar   13  C13         0.0000
    276  OP1       34.2680   40.6510    1.9350 O.2    13  C13        -0.5000
    277  OP2       35.0520   39.0730    3.8180 O.co2  13  C13        -0.5000
    278  P         41.6370   40.0510    2.6340 P.3    14  A14         0.0000
    279  C5'       40.6060   40.5110    0.3010 C.3    14  A14         0.0000
    280  O5'       41.7730   40.4600    1.0980 O.3    14  A14         0.0000
    281  C4'       40.6270   41.7130   -0.6100 C.3    14  A14         0.0000
    282  O4'       39.9430   42.8330    0.0020 O.3    14  A14         0.0000
    283  C3'       41.9960   42.2800   -0.9070 C.3    14  A14         0.0000
    284  O3'       42.7190   41.4230   -1.7860 O.3    14  A14         0.0000
    285  C2'       41.5490   43.5880   -1.5440 C.3    14  A14         0.0000
    286  O2'       40.9800   43.3920   -2.8320 O.3    14  A14         0.0000
    287  C1'       40.4840   44.0310   -0.5270 C.3    14  A14         0.0000
    288  N1        42.5660   48.5160    1.1300 N.ar   14  A14         0.0000
    289  C2        42.1460   48.1250   -0.0820 C.ar   14  A14         0.0000
    290  N3        41.6100   46.9550   -0.4530 N.ar   14  A14         0.0000
    291  C4        41.5110   46.1100    0.5870 C.ar   14  A14         0.0000
    292  C5        41.9000   46.3770    1.8930 C.ar   14  A14         0.0000
    293  C6        42.4530   47.6500    2.1600 C.ar   14  A14         0.0000
    294  N6        42.8700   48.0280    3.3730 N.pl3  14  A14         0.0000
    295  N7        41.6610   45.2850    2.7030 N.ar   14  A14         0.0000
    296  C8        41.1410   44.3940    1.8870 C.ar   14  A14         0.0000
    297  N9        41.0180   44.8160    0.5930 N.ar   14  A14         0.0000
    298  OP1       41.1350   38.6590    2.7170 O.2    14  A14         0.0000
    299  OP2       42.9030   40.4470    3.3150 O.co2  14  A14        -1.0000
    300  P         44.2590   41.1000   -1.4880 P.3    15  G15         0.0000
    301  C5'       45.1930   43.2940   -2.5460 C.3    15  G15         0.0000
    302  O5'       44.9110   42.5500   -1.3740 O.3    15  G15         0.0000
    303  C4'       45.5770   44.7160   -2.1920 C.3    15  G15         0.0000
    304  O4'       44.5700   45.3260   -1.3460 O.3    15  G15         0.0000
    305  C3'       46.8360   44.8400   -1.3600 C.3    15  G15         0.0000
    306  O3'       47.9630   44.7150   -2.1620 O.3    15  G15         0.0000
    307  C2'       46.6880   46.2430   -0.8090 C.3    15  G15         0.0000
    308  O2'       46.9510   47.2360   -1.7770 O.3    15  G15         0.0000
    309  C1'       45.2100   46.2010   -0.4320 C.3    15  G15         0.0000
    310  N1        45.9030   47.0570    4.5270 N.ar   15  G15         0.0000
    311  C2        46.2670   47.8230    3.4450 C.ar   15  G15         0.0000
    312  N2        46.9040   48.9640    3.7090 N.pl3  15  G15         0.0000
    313  N3        46.0330   47.4920    2.1880 N.ar   15  G15         0.0000
    314  C4        45.3860   46.3060    2.0920 C.ar   15  G15         0.0000
    315  C5        44.9740   45.4650    3.1030 C.ar   15  G15         0.0000
    316  C6        45.2300   45.8350    4.4440 C.ar   15  G15         0.0000
    317  O6        44.9370   45.2130    5.4740 O.2    15  G15         0.0000
    318  N7        44.3430   44.3410    2.5920 N.ar   15  G15         0.0000
    319  C8        44.3880   44.5210    1.3010 C.ar   15  G15         0.0000
    320  N9        44.9950   45.6980    0.9240 N.ar   15  G15         0.0000
    321  OP1       44.8260   40.4390   -2.6830 O.2    15  G15        -0.5000
    322  OP2       44.3700   40.4670   -0.1530 O.co2  15  G15        -0.5000
    323  P         49.1030   43.7310   -1.6530 P.3    16  G16         0.0000
    324  C5'       50.4390   45.8270   -0.8270 C.3    16  G16         0.0000
    325  O5'       49.7760   44.6100   -0.4960 O.3    16  G16         0.0000
    326  C4'       50.6100   46.7340    0.3790 C.3    16  G16         0.0000
    327  O4'       49.3520   46.9340    1.0650 O.3    16  G16         0.0000
    328  C3'       51.5170   46.2160    1.4800 C.3    16  G16         0.0000
    329  O3'       52.8770   46.3250    1.1090 O.3    16  G16         0.0000
    330  C2'       51.1410   47.1920    2.5800 C.3    16  G16         0.0000
    331  O2'       51.6580   48.4890    2.3920 O.3    16  G16         0.0000
    332  C1'       49.6270   47.2080    2.4260 C.3    16  G16         0.0000
    333  N1        48.9630   45.7290    7.2090 N.ar   16  G16         0.0000
    334  C2        49.5890   46.8500    6.7180 C.ar   16  G16         0.0000
    335  N2        50.1180   47.6950    7.6110 N.pl3  16  G16         0.0000
    336  N3        49.6850   47.1290    5.4320 N.ar   16  G16         0.0000
    337  C4        49.1060   46.1740    4.6600 C.ar   16  G16         0.0000
    338  C5        48.4670   45.0210    5.0520 C.ar   16  G16         0.0000
    339  C6        48.3650   44.7420    6.4310 C.ar   16  G16         0.0000
    340  O6        47.8370   43.7670    6.9700 O.2    16  G16         0.0000
    341  N7        48.0120   44.3070    3.9510 N.ar   16  G16         0.0000
    342  C8        48.3850   45.0310    2.9270 C.ar   16  G16         0.0000
    343  N9        49.0470   46.1820    3.2860 N.ar   16  G16         0.0000
    344  OP1       50.0420   43.5250   -2.7750 O.2    16  G16        -0.5000
    345  OP2       48.4650   42.5580   -1.0160 O.co2  16  G16        -0.5000
    346  P         53.9450   45.3190    1.7480 P.3    17  G17         0.0000
    347  C5'       54.6390   47.2150    3.4290 C.3    17  G17         0.0000
    348  O5'       54.1260   45.8970    3.2310 O.3    17  G17         0.0000
    349  C4'       54.8530   47.5200    4.9000 C.3    17  G17         0.0000
    350  O4'       53.5740   47.6240    5.5750 O.3    17  G17         0.0000
    351  C3'       55.6360   46.4700    5.6760 C.3    17  G17         0.0000
    352  O3'       57.0410   46.7000    5.5490 O.3    17  G17         0.0000
    353  C2'       55.1250   46.6850    7.1000 C.3    17  G17         0.0000
    354  O2'       55.7690   47.7360    7.7920 O.3    17  G17         0.0000
    355  C1'       53.6660   47.0500    6.8640 C.3    17  G17         0.0000
    356  N1        51.3000   43.7650    9.9610 N.ar   17  G17         0.0000
    357  C2        52.1190   44.8240   10.2780 C.ar   17  G17         0.0000
    358  N2        52.3340   45.0420   11.5810 N.pl3  17  G17         0.0000
    359  N3        52.6880   45.6190    9.3780 N.ar   17  G17         0.0000
    360  C4        52.3610   45.2640    8.1050 C.ar   17  G17         0.0000
    361  C5        51.5530   44.2270    7.6900 C.ar   17  G17         0.0000
    362  C6        50.9560   43.3920    8.6620 C.ar   17  G17         0.0000
    363  O6        50.2050   42.4290    8.4750 O.2    17  G17         0.0000
    364  N7        51.4610   44.1920    6.3060 N.ar   17  G17         0.0000
    365  C8        52.2100   45.1890    5.9160 C.ar   17  G17         0.0000
    366  N9        52.7830   45.8890    6.9510 N.ar   17  G17         0.0000
    367  OP1       55.2150   45.4760    1.0080 O.2    17  G17        -0.5000
    368  OP2       53.3270   43.9800    1.8610 O.co2  17  G17        -0.5000
    369  P         58.0860   45.4830    5.5770 P.3    18  U18         0.0000
    370  C5'       58.6570   45.9240    8.0990 C.3    18  U18         0.0000
    371  O5'       58.1220   45.0550    7.1150 O.3    18  U18         0.0000
    372  C4'       58.2980   45.4190    9.4790 C.3    18  U18         0.0000
    373  O4'       56.8590   45.3430    9.6150 O.3    18  U18         0.0000
    374  C3'       58.7130   43.9940    9.7640 C.3    18  U18         0.0000
    375  O3'       60.0800   43.9230   10.0500 O.3    18  U18         0.0000
    376  C2'       57.8530   43.6820   10.9760 C.3    18  U18         0.0000
    377  O2'       58.3180   44.3060   12.1550 O.3    18  U18         0.0000
    378  C1'       56.5340   44.3190   10.5470 C.3    18  U18         0.0000
    379  N1        55.5500   43.3270    9.9630 N.ar   18  U18         0.0000
    380  C2        54.8640   42.4810   10.8190 C.ar   18  U18         0.0000
    381  O2        55.0040   42.4930   12.0280 O.2    18  U18         0.0000
    382  N3        53.9930   41.6070   10.2160 N.ar   18  U18         0.0000
    383  C4        53.7400   41.4940    8.8660 C.ar   18  U18         0.0000
    384  O4        52.9250   40.6660    8.4780 O.2    18  U18         0.0000
    385  C5        54.4860   42.4030    8.0300 C.ar   18  U18         0.0000
    386  C6        55.3430   43.2650    8.5960 C.ar   18  U18         0.0000
    387  OP1       59.4110   46.0290    5.2050 O.3    18  U18        -0.5000
    388  OP2       57.5280   44.3340    4.8300 O.co2  18  U18        -0.5000
    389  P         60.9450   42.8330    9.2670 P.3    19  G19         0.0000
    390  C5'       60.8750   41.3690   11.4290 C.3    19  G19         0.0000
    391  O5'       60.5930   41.4840   10.0470 O.3    19  G19         0.0000
    392  C4'       60.1410   40.1760   11.9870 C.3    19  G19         0.0000
    393  O4'       58.7100   40.3850   11.8390 O.3    19  G19         0.0000
    394  C3'       60.3870   38.8820   11.2360 C.3    19  G19         0.0000
    395  O3'       61.5930   38.2720   11.6160 O.3    19  G19         0.0000
    396  C2'       59.1920   38.0700   11.6970 C.3    19  G19         0.0000
    397  O2'       59.3970   37.5260   12.9880 O.3    19  G19         0.0000
    398  C1'       58.0770   39.1270   11.6710 C.3    19  G19         0.0000
    399  N1        53.9520   37.4360    9.1690 N.ar   19  G19         0.0000
    400  C2        54.2900   37.2840   10.4930 C.ar   19  G19         0.0000
    401  N2        53.4380   36.5920   11.2610 N.pl3  19  G19         0.0000
    402  N3        55.3950   37.7770   11.0330 N.ar   19  G19         0.0000
    403  C4        56.1530   38.4540   10.1350 C.ar   19  G19         0.0000
    404  C5        55.8980   38.6610    8.7960 C.ar   19  G19         0.0000
    405  C6        54.7170   38.1250    8.2270 C.ar   19  G19         0.0000
    406  O6        54.3230   38.2110    7.0550 O.2    19  G19         0.0000
    407  N7        56.9190   39.4000    8.2110 N.ar   19  G19         0.0000
    408  C8        57.7530   39.6230    9.1900 C.ar   19  G19         0.0000
    409  N9        57.3520   39.0900   10.3960 N.ar   19  G19         0.0000
    410  OP1       62.3850   43.1430    9.4580 O.3    19  G19        -0.5000
    411  OP2       60.3920   42.7180    7.8990 O.co2  19  G19        -0.5000
    412  P         62.3470   37.3680   10.5310 P.3    20  A20         0.0000
    413  C5'       61.8940   34.9390    9.7220 C.3    20  A20         0.0000
    414  O5'       61.6150   35.9560   10.6790 O.3    20  A20         0.0000
    415  C4'       61.0340   33.7120    9.9490 C.3    20  A20         0.0000
    416  O4'       61.3850   33.1300   11.2260 O.3    20  A20         0.0000
    417  C3'       59.5360   33.9770   10.0260 C.3    20  A20         0.0000
    418  O3'       58.9310   33.9470    8.7250 O.3    20  A20         0.0000
    419  C2'       59.0400   32.8620   10.9480 C.3    20  A20         0.0000
    420  O2'       58.7560   31.6470   10.2770 O.3    20  A20         0.0000
    421  C1'       60.2210   32.6820   11.8960 C.3    20  A20         0.0000
    422  N1        58.4620   32.5880   16.7500 N.ar   20  A20         0.0000
    423  C2        58.3790   31.6930   15.7560 C.ar   20  A20         0.0000
    424  N3        58.8520   31.7850   14.5110 N.ar   20  A20         0.0000
    425  C4        59.4870   32.9570   14.3150 C.ar   20  A20         0.0000
    426  C5        59.6550   33.9720   15.2390 C.ar   20  A20         0.0000
    427  C6        59.1040   33.7580   16.5210 C.ar   20  A20         0.0000
    428  N6        59.1840   34.6520   17.5110 N.pl3  20  A20         0.0000
    429  N7        60.3590   35.0290   14.6860 N.ar   20  A20         0.0000
    430  C8        60.6020   34.6420   13.4580 C.ar   20  A20         0.0000
    431  N9        60.1040   33.4010   13.1650 N.ar   20  A20         0.0000
    432  OP1       63.7630   37.2140   10.9370 O.3    20  A20        -0.5000
    433  OP2       62.0190   37.9120    9.1910 O.co2  20  A20        -0.5000
    434  P         57.7660   34.9920    8.3830 P.3    21  A21         0.0000
    435  C5'       56.0400   33.0810    8.8530 C.3    21  A21         0.0000
    436  O5'       56.5360   34.3750    9.1930 O.3    21  A21         0.0000
    437  C4'       55.1700   32.5340    9.9690 C.3    21  A21         0.0000
    438  O4'       55.9560   32.4150   11.1800 O.3    21  A21         0.0000
    439  C3'       53.9890   33.4250   10.3260 C.3    21  A21         0.0000
    440  O3'       52.8390   33.0480    9.5710 O.3    21  A21         0.0000
    441  C2'       53.8000   33.1880   11.8240 C.3    21  A21         0.0000
    442  O2'       52.8770   32.1530   12.1030 O.3    21  A21         0.0000
    443  C1'       55.2080   32.8300   12.3100 C.3    21  A21         0.0000
    444  N1        56.1450   35.3660   16.7350 N.ar   21  A21         0.0000
    445  C2        55.4500   34.2500   16.4800 C.ar   21  A21         0.0000
    446  N3        55.2480   33.6410   15.3090 N.ar   21  A21         0.0000
    447  C4        55.8560   34.2970   14.3000 C.ar   21  A21         0.0000
    448  C5        56.6040   35.4570   14.4110 C.ar   21  A21         0.0000
    449  C6        56.7470   36.0040   15.7040 C.ar   21  A21         0.0000
    450  N6        57.4440   37.1160   15.9510 N.pl3  21  A21         0.0000
    451  N7        57.0810   35.8530   13.1750 N.ar   21  A21         0.0000
    452  C8        56.6190   34.9430   12.3520 C.ar   21  A21         0.0000
    453  N9        55.8750   33.9660   12.9580 N.ar   21  A21         0.0000
    454  OP1       57.4360   34.9260    6.9430 O.2    21  A21        -0.5000
    455  OP2       58.1540   36.2920    8.9700 O.co2  21  A21        -0.5000
    456  P         51.7740   34.1500    9.1180 P.3    22  A22         0.0000
    457  C5'       50.2810   34.3760   11.2750 C.3    22  A22         0.0000
    458  O5'       51.3750   34.8490   10.4990 O.3    22  A22         0.0000
    459  C4'       49.5330   35.5500   11.8760 C.3    22  A22         0.0000
    460  O4'       50.4580   36.4550   12.5060 O.3    22  A22         0.0000
    461  C3'       48.7980   36.4330   10.8770 C.3    22  A22         0.0000
    462  O3'       47.4550   35.9690   10.7390 O.3    22  A22         0.0000
    463  C2'       48.8510   37.8350   11.4930 C.3    22  A22         0.0000
    464  O2'       47.5780   38.2750   11.9280 O.3    22  A22         0.0000
    465  C1'       49.7650   37.6620   12.7000 C.3    22  A22         0.0000
    466  N1        51.8700   40.8890   16.0840 N.ar   22  A22         0.0000
    467  C2        50.9000   39.9690   16.2060 C.ar   22  A22         0.0000
    468  N3        50.4020   39.1590   15.2760 N.ar   22  A22         0.0000
    469  C4        51.0040   39.3650   14.0900 C.ar   22  A22         0.0000
    470  C5        52.0100   40.2710   13.8110 C.ar   22  A22         0.0000
    471  C6        52.4540   41.0680   14.8820 C.ar   22  A22         0.0000
    472  N6        53.4160   41.9840   14.7670 N.pl3  22  A22         0.0000
    473  N7        52.3830   40.2000   12.4810 N.ar   22  A22         0.0000
    474  C8        51.6050   39.2640   11.9890 C.ar   22  A22         0.0000
    475  N9        50.7440   38.7230   12.9050 N.ar   22  A22         0.0000
    476  OP1       50.5960   33.4350    8.5810 O.3    22  A22         0.0000
    477  OP2       52.4610   35.1630    8.2850 O.co2  22  A22        -1.0000
    478  P         47.0260   35.0850    9.4760 P.3    23  U23         0.0000
    479  C5'       46.3830   37.2420    8.1300 C.3    23  U23         0.0000
    480  O5'       45.9520   36.0210    8.7410 O.3    23  U23         0.0000
    481  C4'       45.2870   38.2980    8.0810 C.3    23  U23         0.0000
    482  O4'       44.3130   37.9700    7.0590 O.3    23  U23         0.0000
    483  C3'       44.5160   38.5040    9.3740 C.3    23  U23         0.0000
    484  O3'       44.4070   39.8800    9.6230 O.3    23  U23         0.0000
    485  C2'       43.1540   37.8740    9.1190 C.3    23  U23         0.0000
    486  O2'       42.0970   38.5930    9.7150 O.3    23  U23         0.0000
    487  C1'       43.0100   37.9480    7.6060 C.3    23  U23         0.0000
    488  N1        42.2480   36.7800    7.0660 N.ar   23  U23         0.0000
    489  C2        41.0270   37.0000    6.4640 C.ar   23  U23         0.0000
    490  O2        40.5460   38.1070    6.3300 O.2    23  U23         0.0000
    491  N3        40.3870   35.8730    6.0140 N.ar   23  U23         0.0000
    492  C4        40.8470   34.5720    6.1090 C.ar   23  U23         0.0000
    493  O4        40.1700   33.6590    5.6530 O.2    23  U23         0.0000
    494  C5        42.1270   34.4130    6.7570 C.ar   23  U23         0.0000
    495  C6        42.7650   35.5010    7.2050 C.ar   23  U23         0.0000
    496  OP1       46.3410   33.8820    9.9910 O.2    23  U23         0.0000
    497  OP2       48.2020   34.9330    8.5850 O.co2  23  U23        -1.0000
    498  P         45.1670   40.4710   10.8910 P.3    24  U24         0.0000
    499  C5'       43.4010   39.8280   12.6850 C.3    24  U24         0.0000
    500  O5'       44.6210   39.5180   12.0490 O.3    24  U24         0.0000
    501  C4'       43.5220   39.6610   14.1830 C.3    24  U24         0.0000
    502  O4'       43.7720   38.2690   14.4800 O.3    24  U24         0.0000
    503  C3'       44.6390   40.4580   14.8420 C.3    24  U24         0.0000
    504  O3'       44.1160   41.0890   15.9810 O.3    24  U24         0.0000
    505  C2'       45.6570   39.4020   15.2430 C.3    24  U24         0.0000
    506  O2'       46.3340   39.7450   16.4320 O.3    24  U24         0.0000
    507  C1'       44.7540   38.2000   15.4820 C.3    24  U24         0.0000
    508  N1        45.4380   36.8820   15.3670 N.ar   24  U24         0.0000
    509  C2        45.5420   36.0850   16.4900 C.ar   24  U24         0.0000
    510  O2        45.1050   36.3990   17.5820 O.2    24  U24         0.0000
    511  N3        46.1840   34.8870   16.2910 N.ar   24  U24         0.0000
    512  C4        46.7260   34.4080   15.1120 C.ar   24  U24         0.0000
    513  O4        47.2780   33.3070   15.0980 O.2    24  U24         0.0000
    514  C5        46.5780   35.2970   13.9840 C.ar   24  U24         0.0000
    515  C6        45.9540   36.4710   14.1500 C.ar   24  U24         0.0000
    516  OP1       44.7200   41.8710   11.0950 O.3    24  U24        -0.5000
    517  OP2       46.6080   40.1780   10.7410 O.co2  24  U24        -0.5000
    518  P         44.4800   42.6100   16.3090 P.3    25  C25         0.0000
    519  C5'       46.5530   43.1760   17.8210 C.3    25  C25         0.0000
    520  O5'       46.0570   42.5880   16.6120 O.3    25  C25         0.0000
    521  C4'       47.9740   43.7080   17.6930 C.3    25  C25         0.0000
    522  O4'       48.8160   42.7300   17.0430 O.3    25  C25         0.0000
    523  C3'       48.1320   44.9700   16.8600 C.3    25  C25         0.0000
    524  O3'       47.9630   46.1290   17.6640 O.3    25  C25         0.0000
    525  C2'       49.5640   44.8740   16.3640 C.3    25  C25         0.0000
    526  O2'       50.4750   45.3610   17.3270 O.3    25  C25         0.0000
    527  C1'       49.7340   43.3680   16.1730 C.3    25  C25         0.0000
    528  N1        49.4830   42.8560   14.7790 N.ar   25  C25         0.0000
    529  C2        50.2880   43.2470   13.7010 C.ar   25  C25         0.0000
    530  O2        51.2200   44.0410   13.8820 O.2    25  C25         0.0000
    531  N3        50.0190   42.7440   12.4690 N.ar   25  C25         0.0000
    532  C4        49.0110   41.8910   12.2910 C.ar   25  C25         0.0000
    533  N4        48.7810   41.4260   11.0630 N.pl3  25  C25         0.0000
    534  C5        48.1900   41.4730   13.3690 C.ar   25  C25         0.0000
    535  C6        48.4630   41.9740   14.5760 C.ar   25  C25         0.0000
    536  OP1       43.7650   42.9500   17.5650 O.3    25  C25        -0.5000
    537  OP2       44.2510   43.4060   15.0830 O.co2  25  C25        -0.5000
    538  P         47.0150   47.2990   17.1150 P.3    26  C26         0.0000
    539  C5'       48.9860   48.7730   16.2320 C.3    26  C26         0.0000
    540  O5'       47.9090   47.9230   15.9400 O.3    26  C26         0.0000
    541  C4'       49.6890   49.1530   14.9500 C.3    26  C26         0.0000
    542  O4'       50.2190   47.9650   14.3200 O.3    26  C26         0.0000
    543  C3'       48.8020   49.7410   13.8730 C.3    26  C26         0.0000
    544  O3'       48.5370   51.0970   14.1130 O.3    26  C26         0.0000
    545  C2'       49.6840   49.5610   12.6510 C.3    26  C26         0.0000
    546  O2'       50.7040   50.5300   12.5590 O.3    26  C26         0.0000
    547  C1'       50.2750   48.1800   12.9200 C.3    26  C26         0.0000
    548  N1        49.5070   47.0970   12.2210 N.ar   26  C26         0.0000
    549  C2        49.6550   46.9130   10.8320 C.ar   26  C26         0.0000
    550  O2        50.4300   47.6320   10.1860 O.2    26  C26         0.0000
    551  N3        48.9450   45.9280   10.2250 N.ar   26  C26         0.0000
    552  C4        48.1230   45.1580   10.9350 C.ar   26  C26         0.0000
    553  N4        47.4570   44.2080   10.2820 N.pl3  26  C26         0.0000
    554  C5        47.9510   45.3270   12.3410 C.ar   26  C26         0.0000
    555  C6        48.6540   46.2980   12.9360 C.ar   26  C26         0.0000
    556  OP1       46.8600   48.3110   18.1850 O.3    26  C26        -0.5000
    557  OP2       45.8050   46.6820   16.5060 O.co2  26  C26        -0.5000
    558  P         47.1240   51.6640   13.6480 P.3    27  C27         0.0000
    559  C5'       48.2380   52.8120   11.5480 C.3    27  C27         0.0000
    560  O5'       47.3110   51.8710   12.0730 O.3    27  C27         0.0000
    561  C4'       48.2410   52.7530   10.0310 C.3    27  C27         0.0000
    562  O4'       48.7190   51.4530    9.6100 O.3    27  C27         0.0000
    563  C3'       46.8820   52.8240    9.3560 C.3    27  C27         0.0000
    564  O3'       46.3630   54.1330    9.2810 O.3    27  C27         0.0000
    565  C2'       47.2160   52.2790    7.9770 C.3    27  C27         0.0000
    566  O2'       47.8690   53.2210    7.1480 O.3    27  C27         0.0000
    567  C1'       48.1600   51.1400    8.3450 C.3    27  C27         0.0000
    568  N1        47.4680   49.8120    8.3900 N.ar   27  C27         0.0000
    569  C2        47.1850   49.1390    7.1910 C.ar   27  C27         0.0000
    570  O2        47.5170   49.6410    6.1160 O.2    27  C27         0.0000
    571  N3        46.5630   47.9390    7.2300 N.ar   27  C27         0.0000
    572  C4        46.2190   47.4150    8.4020 C.ar   27  C27         0.0000
    573  N4        45.6040   46.2330    8.3850 N.pl3  27  C27         0.0000
    574  C5        46.4870   48.0770    9.6390 C.ar   27  C27         0.0000
    575  C6        47.1090   49.2610    9.5870 C.ar   27  C27         0.0000
    576  OP1       46.9130   52.9820   14.2870 O.3    27  C27        -0.5000
    577  OP2       46.1390   50.5780   13.8370 O.co2  27  C27        -0.5000
    578  P         44.7810   54.3300    9.4670 P.3    28  G28         0.0000
    579  C5'       44.2050   54.0450    6.8900 C.3    28  G28         0.0000
    580  O5'       44.1030   53.5550    8.2340 O.3    28  G28         0.0000
    581  C4'       43.7350   53.0110    5.8780 C.3    28  G28         0.0000
    582  O4'       44.5100   51.7850    6.0010 O.3    28  G28         0.0000
    583  C3'       42.2850   52.5710    6.0200 C.3    28  G28         0.0000
    584  O3'       41.4240   53.4630    5.3360 O.3    28  G28         0.0000
    585  C2'       42.3320   51.2170    5.3290 C.3    28  G28         0.0000
    586  O2'       42.3150   51.3440    3.9230 O.3    28  G28         0.0000
    587  C1'       43.6670   50.6650    5.8070 C.3    28  G28         0.0000
    588  N1        42.1650   46.3580    8.0710 N.ar   28  G28         0.0000
    589  C2        42.2230   46.6580    6.7290 C.ar   28  G28         0.0000
    590  N2        41.8240   45.6990    5.8860 N.pl3  28  G28         0.0000
    591  N3        42.6370   47.8230    6.2490 N.ar   28  G28         0.0000
    592  C4        43.0000   48.6840    7.2320 C.ar   28  G28         0.0000
    593  C5        42.9800   48.4790    8.5910 C.ar   28  G28         0.0000
    594  C6        42.5340   47.2360    9.0970 C.ar   28  G28         0.0000
    595  O6        42.4540   46.8900   10.2880 O.3    28  G28         0.0000
    596  N7        43.4310   49.6000    9.2690 N.ar   28  G28         0.0000
    597  C8        43.7050   50.4480    8.3250 C.ar   28  G28         0.0000
    598  N9        43.4830   49.9590    7.0650 N.ar   28  G28         0.0000
    599  OP1       44.4850   55.7760    9.3440 O.2    28  G28        -0.5000
    600  OP2       44.3800   53.5880   10.6850 O.co2  28  G28        -0.5000
    601  P         39.8330   53.3210    5.4760 P.3    29  A29         0.0000
    602  C5'       39.3250   51.5930    3.5960 C.3    29  A29         0.0000
    603  O5'       39.5410   51.8350    4.9720 O.3    29  A29         0.0000
    604  C4'       39.0320   50.1280    3.3580 C.3    29  A29         0.0000
    605  O4'       39.9230   49.2820    4.1330 O.3    29  A29         0.0000
    606  C3'       37.6570   49.6980    3.8140 C.3    29  A29         0.0000
    607  O3'       36.6970   50.1000    2.8790 O.3    29  A29         0.0000
    608  C2'       37.8390   48.1930    3.8580 C.3    29  A29         0.0000
    609  O2'       37.7990   47.6040    2.5740 O.3    29  A29         0.0000
    610  C1'       39.2370   48.0880    4.4720 C.3    29  A29         0.0000
    611  N1        37.8930   45.1270    8.4810 N.ar   29  A29         0.0000
    612  C2        37.7690   44.9500    7.1600 C.ar   29  A29         0.0000
    613  N3        38.1440   45.7660    6.1730 N.ar   29  A29         0.0000
    614  C4        38.7070   46.8930    6.6500 C.ar   29  A29         0.0000
    615  C5        38.9050   47.2180    7.9780 C.ar   29  A29         0.0000
    616  C6        38.4650   46.2680    8.9290 C.ar   29  A29         0.0000
    617  N6        38.5860   46.4450   10.2450 N.pl3  29  A29         0.0000
    618  N7        39.5170   48.4550    8.0990 N.ar   29  A29         0.0000
    619  C8        39.6700   48.8490    6.8580 C.ar   29  A29         0.0000
    620  N9        39.2120   47.9520    5.9300 N.ar   29  A29         0.0000
    621  OP1       39.2200   54.2900    4.5420 O.2    29  A29        -0.5000
    622  OP2       39.4690   53.3750    6.9110 O.co2  29  A29        -0.5000
    623  P         35.3220   50.7200    3.4120 P.3    30  C30         0.0000
    624  C5'       34.2970   48.3740    2.8720 C.3    30  C30         0.0000
    625  O5'       34.4830   49.4220    3.8180 O.3    30  C30         0.0000
    626  C4'       34.0130   47.0560    3.5630 C.3    30  C30         0.0000
    627  O4'       35.1020   46.7000    4.4460 O.3    30  C30         0.0000
    628  C3'       32.8260   47.0830    4.4990 C.3    30  C30         0.0000
    629  O3'       31.6220   47.0090    3.7730 O.3    30  C30         0.0000
    630  C2'       33.1060   45.8450    5.3390 C.3    30  C30         0.0000
    631  O2'       32.8760   44.6360    4.6410 O.3    30  C30         0.0000
    632  C1'       34.5990   46.0220    5.5840 C.3    30  C30         0.0000
    633  N1        34.9390   46.7890    6.8450 N.ar   30  C30         0.0000
    634  C2        34.9300   46.1300    8.0870 C.ar   30  C30         0.0000
    635  O2        34.6500   44.9290    8.1440 O.2    30  C30         0.0000
    636  N3        35.2480   46.8240    9.2080 N.ar   30  C30         0.0000
    637  C4        35.5570   48.1170    9.1290 C.ar   30  C30         0.0000
    638  N4        35.8570   48.7480   10.2660 N.pl3  30  C30         0.0000
    639  C5        35.5700   48.8130    7.8830 C.ar   30  C30         0.0000
    640  C6        35.2610   48.1180    6.7820 C.ar   30  C30         0.0000
    641  OP1       34.6580   51.3630    2.2650 O.2    30  C30        -0.5000
    642  OP2       35.5680   51.5170    4.6380 O.co2  30  C30        -0.5000
    643  P         30.3270   47.6900    4.4060 P.3    31  C31         0.0000
    644  C5'       29.5990   45.2540    5.0360 C.3    31  C31         0.0000
    645  O5'       29.8920   46.5820    5.4660 O.3    31  C31         0.0000
    646  C4'       29.4030   44.3420    6.2340 C.3    31  C31         0.0000
    647  O4'       30.5920   44.3340    7.0660 O.3    31  C31         0.0000
    648  C3'       28.2820   44.7620    7.1690 C.3    31  C31         0.0000
    649  O3'       27.0580   44.2530    6.7030 O.3    31  C31         0.0000
    650  C2'       28.6930   44.1210    8.4860 C.3    31  C31         0.0000
    651  O2'       28.3250   42.7620    8.5470 O.3    31  C31         0.0000
    652  C1'       30.2140   44.2070    8.4280 C.3    31  C31         0.0000
    653  N1        30.8390   45.2980    9.2630 N.ar   31  C31         0.0000
    654  C2        30.9010   45.1380   10.6520 C.ar   31  C31         0.0000
    655  O2        30.4210   44.1170   11.1580 O.2    31  C31         0.0000
    656  N3        31.4910   46.1030   11.4100 N.ar   31  C31         0.0000
    657  C4        32.0080   47.1880   10.8310 C.ar   31  C31         0.0000
    658  N4        32.5670   48.1080   11.6220 N.pl3  31  C31         0.0000
    659  C5        31.9600   47.3720    9.4140 C.ar   31  C31         0.0000
    660  C6        31.3790   46.4110    8.6770 C.ar   31  C31         0.0000
    661  OP1       29.2650   47.7720    3.3830 O.2    31  C31        -0.5000
    662  OP2       30.7370   48.9180    5.1230 O.co2  31  C31        -0.5000
    663  P         25.8040   45.2310    6.7110 P.3    32  G32         0.0000
    664  C5'       25.0500   43.4910    8.5450 C.3    32  G32         0.0000
    665  O5'       24.9530   44.7820    7.9760 O.3    32  G32         0.0000
    666  C4'       24.8370   43.6280   10.0380 C.3    32  G32         0.0000
    667  O4'       25.9720   44.3190   10.6210 O.3    32  G32         0.0000
    668  C3'       23.6240   44.4570   10.4400 C.3    32  G32         0.0000
    669  O3'       23.0650   43.8830   11.5910 O.3    32  G32         0.0000
    670  C2'       24.2240   45.8200   10.7500 C.3    32  G32         0.0000
    671  O2'       23.4300   46.5360   11.6580 O.3    32  G32         0.0000
    672  C1'       25.5200   45.3960   11.4130 C.3    32  G32         0.0000
    673  N1        29.0910   47.7240   14.2020 N.ar   32  G32         0.0000
    674  C2        28.1940   46.7500   14.5660 C.ar   32  G32         0.0000
    675  N2        28.2610   46.3260   15.8350 N.pl3  32  G32         0.0000
    676  N3        27.3030   46.2140   13.7470 N.ar   32  G32         0.0000
    677  C4        27.3790   46.7370   12.5050 C.ar   32  G32         0.0000
    678  C5        28.2350   47.7140   12.0450 C.ar   32  G32         0.0000
    679  C6        29.1850   48.2800   12.9330 C.ar   32  G32         0.0000
    680  O6        30.0290   49.1640   12.7070 O.2    32  G32         0.0000
    681  N7        27.9860   47.9900   10.7080 N.ar   32  G32         0.0000
    682  C8        27.0050   47.1850   10.3940 C.ar   32  G32         0.0000
    683  N9        26.5760   46.4020   11.4380 N.ar   32  G32         0.0000
    684  OP1       24.9890   44.9560    5.5130 O.2    32  G32        -0.5000
    685  OP2       26.2950   46.6010    6.9670 O.co2  32  G32        -0.5000
    686  P         21.4900   43.8620   11.8240 P.3    33  G33         0.0000
    687  C5'       21.2660   41.2720   11.6690 C.3    33  G33         0.0000
    688  O5'       21.3020   42.4240   12.4760 O.3    33  G33         0.0000
    689  C4'       20.6510   40.1440   12.4640 C.3    33  G33         0.0000
    690  O4'       21.4400   39.9000   13.6570 O.3    33  G33         0.0000
    691  C3'       19.2520   40.4410   12.9700 C.3    33  G33         0.0000
    692  O3'       18.3310   40.0360   11.9790 O.3    33  G33         0.0000
    693  C2'       19.1760   39.5350   14.1850 C.3    33  G33         0.0000
    694  O2'       18.9370   38.2000   13.8050 O.3    33  G33         0.0000
    695  C1'       20.5860   39.6280   14.7550 C.3    33  G33         0.0000
    696  N1        19.1130   41.2660   19.3750 N.ar   33  G33         0.0000
    697  C2        18.6810   40.1760   18.6640 C.ar   33  G33         0.0000
    698  N2        17.7400   39.4270   19.2420 N.pl3  33  G33         0.0000
    699  N3        19.1420   39.8460   17.4660 N.ar   33  G33         0.0000
    700  C4        20.0900   40.7110   17.0150 C.ar   33  G33         0.0000
    701  C5        20.5910   41.8240   17.6540 C.ar   33  G33         0.0000
    702  C6        20.0850   42.1600   18.9370 C.ar   33  G33         0.0000
    703  O6        20.4030   43.1080   19.6620 O.2    33  G33         0.0000
    704  N7        21.5650   42.4440   16.8750 N.ar   33  G33         0.0000
    705  C8        21.6200   41.7160   15.7960 C.ar   33  G33         0.0000
    706  N9        20.7540   40.6440   15.8040 N.ar   33  G33         0.0000
    707  OP1       20.7610   43.9190   10.5320 O.2    33  G33        -0.5000
    708  OP2       21.2030   44.8690   12.8640 O.co2  33  G33        -0.5000
    709  P         17.0230   40.9020   11.6710 P.3    34  U34         0.0000
    710  C5'       15.6070   39.2580   13.0810 C.3    34  U34         0.0000
    711  O5'       16.0920   40.5850   12.9270 O.3    34  U34         0.0000
    712  C4'       14.7620   39.1100   14.3290 C.3    34  U34         0.0000
    713  O4'       15.6070   39.1210   15.5020 O.3    34  U34         0.0000
    714  C3'       13.7590   40.2200   14.5800 C.3    34  U34         0.0000
    715  O3'       12.6000   39.9730   13.8410 O.3    34  U34         0.0000
    716  C2'       13.4890   40.0170   16.0560 C.3    34  U34         0.0000
    717  O2'       12.6330   38.9120   16.2750 O.3    34  U34         0.0000
    718  C1'       14.8920   39.7120   16.5690 C.3    34  U34         0.0000
    719  N1        15.6360   40.9200   17.0400 N.ar   34  U34         0.0000
    720  C2        15.2770   41.5010   18.2420 C.ar   34  U34         0.0000
    721  O2        14.3770   41.0850   18.9450 O.2    34  U34         0.0000
    722  N3        16.0110   42.6050   18.5930 N.ar   34  U34         0.0000
    723  C4        17.0500   43.1670   17.8790 C.ar   34  U34         0.0000
    724  O4        17.6240   44.1480   18.3320 O.2    34  U34         0.0000
    725  C5        17.3730   42.5120   16.6360 C.ar   34  U34         0.0000
    726  C6        16.6690   41.4350   16.2700 C.ar   34  U34         0.0000
    727  OP1       16.3630   40.3370   10.4720 O.2    34  U34        -0.5000
    728  OP2       17.4060   42.3340   11.7040 O.co2  34  U34        -0.5000
    729  P         11.7340   41.2110   13.3370 P.3    35  G35         0.0000
    730  C5'        9.9090   41.1320   15.1870 C.3    35  G35         0.0000
    731  O5'       11.0490   41.7850   14.6590 O.3    35  G35         0.0000
    732  C4'        9.5520   41.7040   16.5390 C.3    35  G35         0.0000
    733  O4'       10.6910   41.6320   17.4290 O.3    35  G35         0.0000
    734  C3'        9.2420   43.1840   16.5400 C.3    35  G35         0.0000
    735  O3'        7.9620   43.4280   16.0210 O.3    35  G35         0.0000
    736  C2'        9.3370   43.4660   18.0300 C.3    35  G35         0.0000
    737  O2'        8.2750   42.9100   18.7740 O.3    35  G35         0.0000
    738  C1'       10.6210   42.7170   18.3380 C.3    35  G35         0.0000
    739  N1        13.2170   46.6190   20.2950 N.ar   35  G35         0.0000
    740  C2        12.0670   46.0150   20.7490 C.ar   35  G35         0.0000
    741  N2        11.5360   46.5100   21.8730 N.pl3  35  G35         0.0000
    742  N3        11.4790   44.9930   20.1420 N.ar   35  G35         0.0000
    743  C4        12.1420   44.6120   19.0200 C.ar   35  G35         0.0000
    744  C5        13.2900   45.1450   18.4870 C.ar   35  G35         0.0000
    745  C6        13.9110   46.2370   19.1480 C.ar   35  G35         0.0000
    746  O6        14.9350   46.8530   18.8250 O.2    35  G35         0.0000
    747  N7        13.6470   44.4670   17.3290 N.ar   35  G35         0.0000
    748  C8        12.7240   43.5570   17.1850 C.ar   35  G35         0.0000
    749  N9        11.7840   43.5820   18.1820 N.ar   35  G35         0.0000
    750  OP1       10.6810   40.6790   12.4420 O.2    35  G35        -0.5000
    751  OP2       12.6820   42.2350   12.8620 O.co2  35  G35        -0.5000
    752  P          7.6590   44.8460   15.3520 P.3    36  G36         0.0000
    753  C5'        6.7810   45.8390   17.6410 C.3    36  G36         0.0000
    754  O5'        7.7500   45.8610   16.5840 O.3    36  G36         0.0000
    755  C4'        7.1630   46.8640   18.6890 C.3    36  G36         0.0000
    756  O4'        8.5310   46.6620   19.1360 O.3    36  G36         0.0000
    757  C3'        7.2190   48.2670   18.1380 C.3    36  G36         0.0000
    758  O3'        5.9230   48.7720   17.9770 O.3    36  G36         0.0000
    759  C2'        8.0380   48.9820   19.2080 C.3    36  G36         0.0000
    760  O2'        7.3110   49.2950   20.3760 O.3    36  G36         0.0000
    761  C1'        9.0830   47.9170   19.5150 C.3    36  G36         0.0000
    762  N1        13.4930   50.4980   19.3090 N.ar   36  G36         0.0000
    763  C2        12.4700   50.6020   20.2230 C.ar   36  G36         0.0000
    764  N2        12.6440   51.4950   21.2040 N.pl3  36  G36         0.0000
    765  N3        11.3550   49.8750   20.1770 N.ar   36  G36         0.0000
    766  C4        11.3430   49.0170   19.1230 C.ar   36  G36         0.0000
    767  C5        12.3180   48.8410   18.1620 C.ar   36  G36         0.0000
    768  C6        13.5040   49.6180   18.2260 C.ar   36  G36         0.0000
    769  O6        14.4760   49.5970   17.4550 O.2    36  G36         0.0000
    770  N7        11.9400   47.8680   17.2480 N.ar   36  G36         0.0000
    771  C8        10.7640   47.4830   17.6670 C.ar   36  G36         0.0000
    772  N9        10.3390   48.1290   18.8010 N.ar   36  G36         0.0000
    773  OP1        6.2590   44.8290   14.8550 O.3    36  G36        -0.5000
    774  OP2        8.7790   45.1650   14.4430 O.co2  36  G36        -0.5000
    775  P          5.5320   49.5630   16.6400 P.3    37  U37         0.0000
    776  C5'        5.6900   51.4450   18.4560 C.3    37  U37         0.0000
    777  O5'        5.1520   51.0010   17.2180 O.3    37  U37         0.0000
    778  C4'        6.6740   52.5800   18.2500 C.3    37  U37         0.0000
    779  O4'        8.0260   52.1940   18.6060 O.3    37  U37         0.0000
    780  C3'        6.8770   53.0690   16.8360 C.3    37  U37         0.0000
    781  O3'        5.6600   53.5680   16.2790 O.3    37  U37         0.0000
    782  C2'        8.0190   54.0200   17.1220 C.3    37  U37         0.0000
    783  O2'        7.6030   55.0790   17.9560 O.3    37  U37         0.0000
    784  C1'        8.9140   53.0720   17.9260 C.3    37  U37         0.0000
    785  N1         9.9120   52.2890   17.0940 N.ar   37  U37         0.0000
    786  C2        11.2550   52.5890   17.2120 C.ar   37  U37         0.0000
    787  O2        11.6680   53.4490   17.9620 O.2    37  U37         0.0000
    788  N3        12.1060   51.8500   16.4230 N.ar   37  U37         0.0000
    789  C4        11.7530   50.8460   15.5330 C.ar   37  U37         0.0000
    790  O4        12.6260   50.2580   14.8900 O.2    37  U37         0.0000
    791  C5        10.3360   50.5800   15.4610 C.ar   37  U37         0.0000
    792  C6         9.4930   51.2940   16.2230 C.ar   37  U37         0.0000
    793  OP1        4.2900   48.9640   16.0940 O.3    37  U37        -0.5000
    794  OP2        6.7250   49.7160   15.7820 O.co2  37  U37        -0.5000
    795  P          5.4170   55.0260   15.6710 P.3    38  A38         0.0000
    796  C5'        6.3080   56.3450   13.6420 C.3    38  A38         0.0000
    797  O5'        6.3320   55.1160   14.3690 O.3    38  A38         0.0000
    798  C4'        7.5210   56.4980   12.7490 C.3    38  A38         0.0000
    799  O4'        7.5880   57.8650   12.2930 O.3    38  A38         0.0000
    800  C3'        8.8770   56.2160   13.4010 C.3    38  A38         0.0000
    801  O3'        9.6090   55.3470   12.5650 O.3    38  A38         0.0000
    802  C2'        9.5300   57.5940   13.4420 C.3    38  A38         0.0000
    803  O2'       10.9420   57.5680   13.3610 O.3    38  A38         0.0000
    804  C1'        8.9500   58.1580   12.1580 C.3    38  A38         0.0000
    805  N1         9.3860   61.8200    8.6010 N.ar   38  A38         0.0000
    806  C2         9.1090   60.5120    8.5180 C.ar   38  A38         0.0000
    807  N3         9.0070   59.6150    9.4970 N.ar   38  A38         0.0000
    808  C4         9.2240   60.1880   10.6910 C.ar   38  A38         0.0000
    809  C5         9.5180   61.5150   10.9410 C.ar   38  A38         0.0000
    810  C6         9.6010   62.3620    9.8190 C.ar   38  A38         0.0000
    811  N6         9.8650   63.6670    9.9030 N.pl3  38  A38         0.0000
    812  N7         9.6730   61.7410   12.2970 N.ar   38  A38         0.0000
    813  C8         9.4750   60.5600   12.8320 C.ar   38  A38         0.0000
    814  N9         9.1920   59.5790   11.9180 N.ar   38  A38         0.0000
    815  OP1        5.8950   56.0290   16.6460 O.3    38  A38        -0.5000
    816  OP2        4.0070   55.0630   15.2140 O.co2  38  A38        -0.5000
    817  P          9.7100   53.7830   12.8670 P.3    39  U39         0.0000
    818  C5'       11.2150   52.0680   11.5880 C.3    39  U39         0.0000
    819  O5'       10.4310   53.2450   11.5460 O.3    39  U39         0.0000
    820  C4'       12.2520   52.0270   10.4680 C.3    39  U39         0.0000
    821  O4'       11.8990   52.8800    9.3490 O.3    39  U39         0.0000
    822  C3'       13.6520   52.4550   10.8480 C.3    39  U39         0.0000
    823  O3'       14.5340   51.6350   10.1360 O.3    39  U39         0.0000
    824  C2'       13.7140   53.8960   10.3540 C.3    39  U39         0.0000
    825  O2'       15.0500   54.3290   10.1500 O.3    39  U39         0.0000
    826  C1'       12.9560   53.7570    9.0420 C.3    39  U39         0.0000
    827  N1        12.3630   55.0190    8.5110 N.ar   39  U39         0.0000
    828  C2        12.9760   55.6690    7.4610 C.ar   39  U39         0.0000
    829  O2        13.9950   55.2940    6.9370 O.2    39  U39         0.0000
    830  N3        12.3570   56.8120    7.0400 N.ar   39  U39         0.0000
    831  C4        11.1970   57.3700    7.5450 C.ar   39  U39         0.0000
    832  O4        10.7710   58.4130    7.0500 O.2    39  U39         0.0000
    833  C5        10.5970   56.6390    8.6380 C.ar   39  U39         0.0000
    834  C6        11.1920   55.5160    9.0670 C.ar   39  U39         0.0000
    835  OP1        8.3260   53.2510   12.9320 O.2    39  U39        -0.5000
    836  OP2       10.6540   53.5910   13.9900 O.co2  39  U39        -0.5000
    837  P         15.3100   50.4980   10.9210 P.3    40  A40         0.0000
    838  C5'       17.4250   51.9240   11.4980 C.3    40  A40         0.0000
    839  O5'       16.2090   51.3440   11.9370 O.3    40  A40         0.0000
    840  C4'       18.4390   51.9910   12.6290 C.3    40  A40         0.0000
    841  O4'       17.9420   52.8520   13.6900 O.3    40  A40         0.0000
    842  C3'       18.7490   50.6580   13.2870 C.3    40  A40         0.0000
    843  O3'       20.1070   50.5920   13.6610 O.3    40  A40         0.0000
    844  C2'       17.8900   50.6790   14.5390 C.3    40  A40         0.0000
    845  O2'       18.4740   49.8780   15.5460 O.3    40  A40         0.0000
    846  C1'       17.9320   52.1560   14.9160 C.3    40  A40         0.0000
    847  N1        16.1760   55.1580   18.7440 N.ar   40  A40         0.0000
    848  C2        17.4060   54.9690   18.2580 C.ar   40  A40         0.0000
    849  N3        17.7960   54.1740   17.2620 N.ar   40  A40         0.0000
    850  C4        16.7610   53.5080   16.7280 C.ar   40  A40         0.0000
    851  C5        15.4420   53.6050   17.1200 C.ar   40  A40         0.0000
    852  C6        15.1550   54.4780   18.1840 C.ar   40  A40         0.0000
    853  N6        13.9280   54.6620   18.6570 N.pl3  40  A40         0.0000
    854  N7        14.6400   52.7850   16.3480 N.ar   40  A40         0.0000
    855  C8        15.4840   52.2190   15.5150 C.ar   40  A40         0.0000
    856  N9        16.7780   52.6080   15.6860 N.ar   40  A40         0.0000
    857  OP1       16.2230   49.7930    9.9930 O.2    40  A40        -0.5000
    858  OP2       14.2720   49.7580   11.6780 O.co2  40  A40        -0.5000
    859  P         21.2190   50.2750   12.5720 P.3    41  G41         0.0000
    860  C5'       21.5490   47.9820   13.8400 C.3    41  G41         0.0000
    861  O5'       22.1340   49.1340   13.2260 O.3    41  G41         0.0000
    862  C4'       22.3140   47.5640   15.0890 C.3    41  G41         0.0000
    863  O4'       23.6420   47.1090   14.7300 O.3    41  G41         0.0000
    864  C3'       22.5110   48.6620   16.1270 C.3    41  G41         0.0000
    865  O3'       21.4620   48.5980   17.1040 O.3    41  G41         0.0000
    866  C2'       23.8750   48.3240   16.7180 C.3    41  G41         0.0000
    867  O2'       23.7890   47.3220   17.7100 O.3    41  G41         0.0000
    868  C1'       24.6260   47.7560   15.5190 C.3    41  G41         0.0000
    869  N1        28.3370   51.3370   15.1930 N.ar   41  G41         0.0000
    870  C2        27.9350   50.6150   16.2890 C.ar   41  G41         0.0000
    871  N2        28.5890   50.8640   17.4310 N.pl3  41  G41         0.0000
    872  N3        26.9630   49.7060   16.2670 N.ar   41  G41         0.0000
    873  C4        26.4060   49.5650   15.0420 C.ar   41  G41         0.0000
    874  C5        26.7460   50.2450   13.8960 C.ar   41  G41         0.0000
    875  C6        27.7820   51.2050   13.9270 C.ar   41  G41         0.0000
    876  O6        28.2100   51.8970   12.9970 O.2    41  G41         0.0000
    877  N7        25.9580   49.8400   12.8380 N.ar   41  G41         0.0000
    878  C8        25.1630   48.9420   13.3520 C.ar   41  G41         0.0000
    879  N9        25.3650   48.7180   14.6900 N.ar   41  G41         0.0000
    880  OP1       22.0360   51.5020   12.4450 O.3    41  G41        -0.5000
    881  OP2       20.5380   49.6830   11.4040 O.co2  41  G41        -0.5000
    882  P         20.8850   49.9350   17.7750 P.3    42  U42         0.0000
    883  C5'       22.3450   49.9740   19.9590 C.3    42  U42         0.0000
    884  O5'       22.1430   50.4150   18.6330 O.3    42  U42         0.0000
    885  C4'       22.9550   51.1130   20.7420 C.3    42  U42         0.0000
    886  O4'       24.2370   51.4070   20.1570 O.3    42  U42         0.0000
    887  C3'       22.1260   52.3840   20.6710 C.3    42  U42         0.0000
    888  O3'       21.5120   52.7880   21.9080 O.3    42  U42         0.0000
    889  C2'       23.0420   53.4560   20.0560 C.3    42  U42         0.0000
    890  O2'       23.1440   54.6260   20.8450 O.3    42  U42         0.0000
    891  C1'       24.3990   52.7840   19.9310 C.3    42  U42         0.0000
    892  N1        24.9690   52.9910   18.5710 N.ar   42  U42         0.0000
    893  C2        26.1650   53.6610   18.4250 C.ar   42  U42         0.0000
    894  O2        26.8180   54.0820   19.3610 O.2    42  U42         0.0000
    895  N3        26.5860   53.8200   17.1280 N.ar   42  U42         0.0000
    896  C4        25.9400   53.3930   15.9830 C.ar   42  U42         0.0000
    897  O4        26.4390   53.6120   14.8860 O.2    42  U42         0.0000
    898  C5        24.6960   52.7090   16.2100 C.ar   42  U42         0.0000
    899  C6        24.2680   52.5420   17.4670 C.ar   42  U42         0.0000
    900  OP1       19.7860   49.5690   18.6930 O.3    42  U42        -0.5000
    901  OP2       20.6560   50.9540   16.7200 O.co2  42  U42        -0.5000
    902  P         21.9570   52.3470   23.3910 P.3    43  C43         0.0000
    903  C5'       20.4580   54.4450   23.8990 C.3    43  C43         0.0000
    904  O5'       20.8420   53.1100   24.2480 O.3    43  C43         0.0000
    905  C4'       18.9690   54.6830   24.0960 C.3    43  C43         0.0000
    906  O4'       18.3600   54.9280   22.8090 O.3    43  C43         0.0000
    907  C3'       18.1820   53.5120   24.6590 C.3    43  C43         0.0000
    908  O3'       18.1760   53.5530   26.0680 O.3    43  C43         0.0000
    909  C2'       16.7810   53.7350   24.1090 C.3    43  C43         0.0000
    910  O2'       16.0150   54.6150   24.9070 O.3    43  C43         0.0000
    911  C1'       17.0720   54.3430   22.7470 C.3    43  C43         0.0000
    912  N1        17.0480   53.3540   21.6290 N.ar   43  C43         0.0000
    913  C2        15.8350   52.7770   21.2390 C.ar   43  C43         0.0000
    914  O2        14.8020   53.0810   21.8330 O.2    43  C43         0.0000
    915  N3        15.8190   51.8900   20.2150 N.ar   43  C43         0.0000
    916  C4        16.9460   51.5730   19.5820 C.ar   43  C43         0.0000
    917  N4        16.8620   50.6980   18.5830 N.pl3  43  C43         0.0000
    918  C5        18.2000   52.1410   19.9580 C.ar   43  C43         0.0000
    919  C6        18.2020   53.0210   20.9730 C.ar   43  C43         0.0000
    920  OP1       23.2820   52.9430   23.6850 O.3    43  C43        -0.5000
    921  OP2       21.7370   50.8880   23.5420 O.co2  43  C43        -0.5000
    922  P         18.0550   52.1640   26.8420 P.3    44  C44         0.0000
    923  C5'       15.4670   52.2580   27.2530 C.3    44  C44         0.0000
    924  O5'       16.5510   51.7130   26.5300 O.3    44  C44         0.0000
    925  C4'       14.1980   51.4940   26.9380 C.3    44  C44         0.0000
    926  O4'       13.8550   51.6860   25.5440 O.3    44  C44         0.0000
    927  C3'       14.2920   49.9820   27.0800 C.3    44  C44         0.0000
    928  O3'       14.1290   49.5770   28.4130 O.3    44  C44         0.0000
    929  C2'       13.1400   49.5210   26.2000 C.3    44  C44         0.0000
    930  O2'       11.8620   49.6460   26.7990 O.3    44  C44         0.0000
    931  C1'       13.2950   50.4880   25.0310 C.3    44  C44         0.0000
    932  N1        14.1860   49.9310   23.9650 N.ar   44  C44         0.0000
    933  C2        13.6730   48.9810   23.0710 C.ar   44  C44         0.0000
    934  O2        12.4910   48.6290   23.1760 O.2    44  C44         0.0000
    935  N3        14.4880   48.4780   22.1080 N.ar   44  C44         0.0000
    936  C4        15.7560   48.8870   22.0270 C.ar   44  C44         0.0000
    937  N4        16.5200   48.3690   21.0650 N.pl3  44  C44         0.0000
    938  C5        16.3020   49.8470   22.9300 C.ar   44  C44         0.0000
    939  C6        15.4900   50.3360   23.8730 C.ar   44  C44         0.0000
    940  OP1       18.2100   52.4310   28.2920 O.3    44  C44        -0.5000
    941  OP2       18.9450   51.2010   26.1600 O.co2  44  C44        -0.5000
    942  P         14.9740   48.3270   28.9240 P.3    45  A45         0.0000
    943  C5'       13.1380   46.4820   28.6240 C.3    45  A45         0.0000
    944  O5'       14.3290   47.0880   28.1460 O.3    45  A45         0.0000
    945  C4'       12.5830   45.5090   27.6030 C.3    45  A45         0.0000
    946  O4'       12.5800   46.1230   26.2930 O.3    45  A45         0.0000
    947  C3'       13.4000   44.2510   27.3730 C.3    45  A45         0.0000
    948  O3'       13.1680   43.3080   28.3790 O.3    45  A45         0.0000
    949  C2'       12.8180   43.7820   26.0510 C.3    45  A45         0.0000
    950  O2'       11.5300   43.2150   26.1820 O.3    45  A45         0.0000
    951  C1'       12.7490   45.1110   25.3120 C.3    45  A45         0.0000
    952  N1        15.4580   43.9010   21.1110 N.ar   45  A45         0.0000
    953  C2        14.2730   43.4710   21.5750 C.ar   45  A45         0.0000
    954  N3        13.6200   43.8330   22.6830 N.ar   45  A45         0.0000
    955  C4        14.3200   44.7550   23.3680 C.ar   45  A45         0.0000
    956  C5        15.5490   45.2940   23.0230 C.ar   45  A45         0.0000
    957  C6        16.1340   44.8290   21.8230 C.ar   45  A45         0.0000
    958  N6        17.3110   45.2550   21.3600 N.pl3  45  A45         0.0000
    959  N7        15.9580   46.2180   23.9700 N.ar   45  A45         0.0000
    960  C8        14.9840   46.2200   24.8530 C.ar   45  A45         0.0000
    961  N9        13.9640   45.3630   24.5480 N.ar   45  A45         0.0000
    962  OP1       14.7160   48.1930   30.3750 O.3    45  A45        -0.5000
    963  OP2       16.3580   48.4710   28.4240 O.co2  45  A45        -0.5000
    964  P         14.3900   42.4270   28.9010 P.3    46  C46         0.0000
    965  C5'       15.5510   40.6440   27.4040 C.3    46  C46         0.0000
    966  O5'       15.1640   42.0000   27.5720 O.3    46  C46         0.0000
    967  C4'       14.7760   39.9900   26.2730 C.3    46  C46         0.0000
    968  O4'       14.3520   40.9920   25.3040 O.3    46  C46         0.0000
    969  C3'       15.5980   38.9870   25.4720 C.3    46  C46         0.0000
    970  O3'       15.4780   37.6820   26.0270 O.3    46  C46         0.0000
    971  C2'       14.9580   39.0970   24.0940 C.3    46  C46         0.0000
    972  O2'       13.7190   38.4270   24.0150 O.3    46  C46         0.0000
    973  C1'       14.7610   40.6070   24.0010 C.3    46  C46         0.0000
    974  N1        16.0410   41.3090   23.5960 N.ar   46  C46         0.0000
    975  C2        16.6150   41.0200   22.3460 C.ar   46  C46         0.0000
    976  O2        16.0540   40.2210   21.5860 O.2    46  C46         0.0000
    977  N3        17.7730   41.6310   21.9920 N.ar   46  C46         0.0000
    978  C4        18.3600   42.4820   22.8290 C.ar   46  C46         0.0000
    979  N4        19.4950   43.0490   22.4300 N.pl3  46  C46         0.0000
    980  C5        17.8060   42.7930   24.1060 C.ar   46  C46         0.0000
    981  C6        16.6590   42.1920   24.4430 C.ar   46  C46         0.0000
    982  OP1       13.8100   41.2230   29.5330 O.2    46  C46        -0.5000
    983  OP2       15.2990   43.3100   29.6630 O.co2  46  C46        -0.5000
    984  P         16.7610   36.7370   26.1690 P.3    47  G47         0.0000
    985  C5'       16.2650   35.5910   23.8500 C.3    47  G47         0.0000
    986  O5'       17.1090   36.4160   24.6410 O.3    47  G47         0.0000
    987  C4'       16.9880   35.1980   22.5810 C.3    47  G47         0.0000
    988  O4'       17.1750   36.3790   21.7740 O.3    47  G47         0.0000
    989  C3'       18.3830   34.6460   22.8140 C.3    47  G47         0.0000
    990  O3'       18.3300   33.2510   22.9260 O.3    47  G47         0.0000
    991  C2'       19.1600   35.0720   21.5760 C.3    47  G47         0.0000
    992  O2'       19.0730   34.1250   20.5280 O.3    47  G47         0.0000
    993  C1'       18.4670   36.3770   21.2000 C.3    47  G47         0.0000
    994  N1        22.0700   39.7600   20.0430 N.ar   47  G47         0.0000
    995  C2        21.6100   38.6810   19.3170 C.ar   47  G47         0.0000
    996  N2        22.1740   38.4620   18.1200 N.pl3  47  G47         0.0000
    997  N3        20.6550   37.8650   19.7400 N.ar   47  G47         0.0000
    998  C4        20.1850   38.2150   20.9660 C.ar   47  G47         0.0000
    999  C5        20.5740   39.2690   21.7680 C.ar   47  G47         0.0000
   1000  C6        21.5950   40.1360   21.3050 C.ar   47  G47         0.0000
   1001  O6        22.0730   41.1290   21.8720 O.2    47  G47         0.0000
   1002  N7        19.8430   39.2820   22.9490 N.ar   47  G47         0.0000
   1003  C8        19.0400   38.2540   22.8360 C.ar   47  G47         0.0000
   1004  N9        19.1900   37.5620   21.6550 N.ar   47  G47         0.0000
   1005  OP1       16.3270   35.4960   26.8460 O.3    47  G47        -0.5000
   1006  OP2       17.8880   37.5360   26.7220 O.co2  47  G47        -0.5000
   1007  P         19.2340   32.5400   24.0300 P.3    48  A48         0.0000
   1008  C5'       20.6470   31.2320   22.2820 C.3    48  A48         0.0000
   1009  O5'       20.6110   32.2510   23.2690 O.3    48  A48         0.0000
   1010  C4'       21.8400   31.3860   21.3630 C.3    48  A48         0.0000
   1011  O4'       21.8770   32.7120   20.7720 O.3    48  A48         0.0000
   1012  C3'       23.1700   31.2320   22.0710 C.3    48  A48         0.0000
   1013  O3'       23.4860   29.8510   22.1960 O.3    48  A48         0.0000
   1014  C2'       24.1140   32.0070   21.1550 C.3    48  A48         0.0000
   1015  O2'       24.5320   31.2370   20.0380 O.3    48  A48         0.0000
   1016  C1'       23.2180   33.1660   20.7110 C.3    48  A48         0.0000
   1017  N1        24.4480   38.1970   20.8880 N.ar   48  A48         0.0000
   1018  C2        24.5120   37.2990   19.8960 C.ar   48  A48         0.0000
   1019  N3        24.1770   36.0070   19.9160 N.ar   48  A48         0.0000
   1020  C4        23.7300   35.6330   21.1340 C.ar   48  A48         0.0000
   1021  C5        23.6120   36.4450   22.2540 C.ar   48  A48         0.0000
   1022  C6        24.0000   37.7950   22.1010 C.ar   48  A48         0.0000
   1023  N6        23.9500   38.6850   23.0970 N.pl3  48  A48         0.0000
   1024  N7        23.1250   35.7250   23.3370 N.ar   48  A48         0.0000
   1025  C8        22.9570   34.5120   22.8550 C.ar   48  A48         0.0000
   1026  N9        23.3090   34.3760   21.5350 N.ar   48  A48         0.0000
   1027  OP1       18.5610   31.2570   24.3420 O.2    48  A48        -0.5000
   1028  OP2       19.5300   33.5150   25.1050 O.co2  48  A48        -0.5000
   1029  P         23.7380   29.2570   23.6570 P.3    49  A49         0.0000
   1030  C5'       26.2950   29.7880   23.2370 C.3    49  A49         0.0000
   1031  O5'       25.1420   29.8970   24.0780 O.3    49  A49         0.0000
   1032  C4'       27.5000   30.4650   23.8730 C.3    49  A49         0.0000
   1033  O4'       27.4190   31.9010   23.6920 O.3    49  A49         0.0000
   1034  C3'       27.6220   30.2630   25.3750 C.3    49  A49         0.0000
   1035  O3'       28.3910   29.1120   25.6380 O.3    49  A49         0.0000
   1036  C2'       28.3010   31.5400   25.8620 C.3    49  A49         0.0000
   1037  O2'       29.7100   31.5230   25.7620 O.3    49  A49         0.0000
   1038  C1'       27.7260   32.5700   24.9040 C.3    49  A49         0.0000
   1039  N1        25.8050   35.9830   28.2640 N.ar   49  A49         0.0000
   1040  C2        27.0540   35.5470   28.0430 C.ar   49  A49         0.0000
   1041  N3        27.4880   34.6500   27.1560 N.ar   49  A49         0.0000
   1042  C4        26.4670   34.1730   26.4220 C.ar   49  A49         0.0000
   1043  C5        25.1320   34.5220   26.5320 C.ar   49  A49         0.0000
   1044  C6        24.8020   35.4840   27.5150 C.ar   49  A49         0.0000
   1045  N6        23.5600   35.9250   27.7400 N.pl3  49  A49         0.0000
   1046  N7        24.3700   33.8220   25.6100 N.ar   49  A49         0.0000
   1047  C8        25.2410   33.0780   24.9730 C.ar   49  A49         0.0000
   1048  N9        26.5280   33.2380   25.4110 N.ar   49  A49         0.0000
   1049  OP1       23.8850   27.7930   23.5150 O.2    49  A49        -0.5000
   1050  OP2       22.7110   29.8130   24.5680 O.co2  49  A49        -0.5000
   1051  P         28.0550   28.2190   26.9200 P.3    50  A50         0.0000
   1052  C5'       29.9700   29.2000   28.4030 C.3    50  A50         0.0000
   1053  O5'       28.5950   29.1310   28.1110 O.3    50  A50         0.0000
   1054  C4'       30.1460   30.1950   29.5260 C.3    50  A50         0.0000
   1055  O4'       29.5890   31.4600   29.1060 O.3    50  A50         0.0000
   1056  C3'       29.3360   29.8650   30.7630 C.3    50  A50         0.0000
   1057  O3'       30.0100   28.9410   31.5760 O.3    50  A50         0.0000
   1058  C2'       29.1760   31.2270   31.4220 C.3    50  A50         0.0000
   1059  O2'       30.3370   31.6660   32.1020 O.3    50  A50         0.0000
   1060  C1'       28.9190   32.0810   30.1900 C.3    50  A50         0.0000
   1061  N1        24.4220   34.3150   31.3540 N.ar   50  A50         0.0000
   1062  C2        25.6390   34.4190   31.9110 C.ar   50  A50         0.0000
   1063  N3        26.7720   33.8050   31.5600 N.ar   50  A50         0.0000
   1064  C4        26.5760   32.9970   30.4980 C.ar   50  A50         0.0000
   1065  C5        25.3860   32.7870   29.8230 C.ar   50  A50         0.0000
   1066  C6        24.2590   33.4930   30.2900 C.ar   50  A50         0.0000
   1067  N6        23.0530   33.3810   29.7300 N.pl3  50  A50         0.0000
   1068  N7        25.5570   31.8880   28.7830 N.ar   50  A50         0.0000
   1069  C8        26.8290   31.5760   28.8520 C.ar   50  A50         0.0000
   1070  N9        27.5030   32.2080   29.8580 N.ar   50  A50         0.0000
   1071  OP1       28.8820   26.9880   26.8720 O.2    50  A50        -0.5000
   1072  OP2       26.5770   28.1280   27.0470 O.co2  50  A50        -0.5000
   1073  P         29.1050   27.8790   32.3520 P.3    51  G51         0.0000
   1074  C5'       29.2410   29.3240   34.5340 C.3    51  G51         0.0000
   1075  O5'       28.4300   28.7760   33.4980 O.3    51  G51         0.0000
   1076  C4'       28.4760   30.3630   35.3270 C.3    51  G51         0.0000
   1077  O4'       27.7970   31.2690   34.4300 O.3    51  G51         0.0000
   1078  C3'       27.3240   29.8240   36.1540 C.3    51  G51         0.0000
   1079  O3'       27.7810   29.2030   37.3310 O.3    51  G51         0.0000
   1080  C2'       26.5420   31.0960   36.4510 C.3    51  G51         0.0000
   1081  O2'       27.0820   31.8570   37.5170 O.3    51  G51         0.0000
   1082  C1'       26.6850   31.8230   35.1160 C.3    51  G51         0.0000
   1083  N1        21.8260   33.1360   34.4450 N.ar   51  G51         0.0000
   1084  C2        22.6930   33.4610   35.4670 C.ar   51  G51         0.0000
   1085  N2        22.2070   34.2490   36.4360 N.pl3  51  G51         0.0000
   1086  N3        23.9530   33.0520   35.5340 N.ar   51  G51         0.0000
   1087  C4        24.2840   32.2700   34.4800 C.ar   51  G51         0.0000
   1088  C5        23.4980   31.8810   33.4160 C.ar   51  G51         0.0000
   1089  C6        22.1540   32.3310   33.3520 C.ar   51  G51         0.0000
   1090  O6        21.3010   32.0940   32.4820 O.2    51  G51         0.0000
   1091  N7        24.2180   31.0720   32.5450 N.ar   51  G51         0.0000
   1092  C8        25.4020   30.9910   33.0900 C.ar   51  G51         0.0000
   1093  N9        25.5110   31.6950   34.2650 N.ar   51  G51         0.0000
   1094  OP1       30.0010   26.8790   32.9770 O.3    51  G51        -0.5000
   1095  OP2       28.0410   27.4210   31.4280 O.co2  51  G51        -0.5000
   1096  P         26.9590   27.9480   37.8760 P.3    52  C52         0.0000
   1097  C5'       25.8510   29.5370   39.6280 C.3    52  C52         0.0000
   1098  O5'       25.6830   28.6380   38.5410 O.3    52  C52         0.0000
   1099  C4'       24.5150   30.1350   40.0110 C.3    52  C52         0.0000
   1100  O4'       24.0600   31.0030   38.9420 O.3    52  C52         0.0000
   1101  C3'       23.3890   29.1240   40.1610 C.3    52  C52         0.0000
   1102  O3'       23.4040   28.5080   41.4380 O.3    52  C52         0.0000
   1103  C2'       22.1710   30.0160   39.9730 C.3    52  C52         0.0000
   1104  O2'       21.8420   30.7420   41.1420 O.3    52  C52         0.0000
   1105  C1'       22.6470   30.9380   38.8520 C.3    52  C52         0.0000
   1106  N1        22.2520   30.4420   37.4930 N.ar   52  C52         0.0000
   1107  C2        20.9470   30.6700   37.0190 C.ar   52  C52         0.0000
   1108  O2        20.1370   31.2830   37.7240 O.2    52  C52         0.0000
   1109  N3        20.6040   30.2110   35.7870 N.ar   52  C52         0.0000
   1110  C4        21.5020   29.5520   35.0430 C.ar   52  C52         0.0000
   1111  N4        21.1190   29.1210   33.8380 N.pl3  52  C52         0.0000
   1112  C5        22.8340   29.3080   35.5020 C.ar   52  C52         0.0000
   1113  C6        23.1590   29.7640   36.7200 C.ar   52  C52         0.0000
   1114  OP1       27.7780   27.3010   38.9250 O.3    52  C52        -0.5000
   1115  OP2       26.4820   27.1540   36.7200 O.co2  52  C52        -0.5000
   1116  P         22.7280   27.0700   41.6160 P.3    53  U53         0.0000
   1117  C5'       20.2560   27.8230   42.2010 C.3    53  U53         0.0000
   1118  O5'       21.1880   27.3200   41.2340 O.3    53  U53         0.0000
   1119  C4'       18.8980   28.1590   41.5940 C.3    53  U53         0.0000
   1120  O4'       19.0570   28.8640   40.3370 O.3    53  U53         0.0000
   1121  C3'       18.0150   26.9750   41.2210 C.3    53  U53         0.0000
   1122  O3'       17.3580   26.4220   42.3610 O.3    53  U53         0.0000
   1123  C2'       17.0360   27.6230   40.2430 C.3    53  U53         0.0000
   1124  O2'       16.0130   28.3760   40.8700 O.3    53  U53         0.0000
   1125  C1'       17.9740   28.5470   39.4730 C.3    53  U53         0.0000
   1126  N1        18.4810   27.9520   38.1790 N.ar   53  U53         0.0000
   1127  C2        17.6660   27.9800   37.0560 C.ar   53  U53         0.0000
   1128  O2        16.5450   28.4620   37.0490 O.2    53  U53         0.0000
   1129  N3        18.2110   27.4200   35.9220 N.ar   53  U53         0.0000
   1130  C4        19.4640   26.8420   35.7980 C.ar   53  U53         0.0000
   1131  O4        19.8140   26.3740   34.7190 O.2    53  U53         0.0000
   1132  C5        20.2560   26.8480   37.0060 C.ar   53  U53         0.0000
   1133  C6        19.7470   27.3890   38.1240 C.ar   53  U53         0.0000
   1134  OP1       22.8340   26.7200   43.0490 O.3    53  U53        -0.5000
   1135  OP2       23.3030   26.1560   40.6050 O.co2  53  U53        -0.5000
   1136  P         17.0290   24.8520   42.4080 P.3    54  U54         0.0000
   1137  O5'       18.4730   24.1790   42.5850 O.3    54  U54         0.0000
   1138  OP1       16.4840   24.4630   41.0840 O.2    54  U54         0.0000
   1139  OP2       16.2450   24.5890   43.6400 O.co2  54  U54        -1.0000
   1140  P         12.0680   33.7400   30.9700 P.3    57  G57         0.0000
   1141  C5'       10.6490   34.6550   33.0500 C.3    57  G57         0.0000
   1142  O5'       10.7820   33.7490   31.9420 O.3    57  G57         0.0000
   1143  C4'       11.5500   34.3020   34.2280 C.3    57  G57         0.0000
   1144  O4'       12.1060   32.9670   34.1160 O.3    57  G57         0.0000
   1145  C3'       12.8140   35.1300   34.3430 C.3    57  G57         0.0000
   1146  O3'       12.5260   36.4520   34.7470 O.3    57  G57         0.0000
   1147  C2'       13.5680   34.3240   35.3910 C.3    57  G57         0.0000
   1148  O2'       13.0410   34.4570   36.7000 O.3    57  G57         0.0000
   1149  C1'       13.3190   32.9160   34.8530 C.3    57  G57         0.0000
   1150  N1        18.1030   31.2520   34.9170 N.ar   57  G57         0.0000
   1151  C2        17.3140   31.7170   35.9480 C.ar   57  G57         0.0000
   1152  N2        17.8530   31.7490   37.1730 N.pl3  57  G57         0.0000
   1153  N3        16.0680   32.1250   35.7900 N.ar   57  G57         0.0000
   1154  C4        15.6610   32.0340   34.4970 C.ar   57  G57         0.0000
   1155  C5        16.3630   31.5900   33.4010 C.ar   57  G57         0.0000
   1156  C6        17.6940   31.1530   33.5830 C.ar   57  G57         0.0000
   1157  O6        18.4730   30.7220   32.7260 O.2    57  G57         0.0000
   1158  N7        15.5870   31.6560   32.2530 N.ar   57  G57         0.0000
   1159  C8        14.4480   32.1330   32.6760 C.ar   57  G57         0.0000
   1160  N9        14.4180   32.3880   34.0300 N.ar   57  G57         0.0000
   1161  OP1       11.6320   33.3430   29.6070 O.3    57  G57         0.0000
   1162  OP2       12.8640   34.9780   31.1730 O.co2  57  G57        -1.0000
   1163  P         13.3310   37.6630   34.0790 P.3    58  C58         0.0000
   1164  C5'       14.3510   37.9610   36.4920 C.3    58  C58         0.0000
   1165  O5'       14.5660   37.8500   35.0820 O.3    58  C58         0.0000
   1166  C4'       15.5980   37.5530   37.2560 C.3    58  C58         0.0000
   1167  O4'       15.8370   36.1350   37.0670 O.3    58  C58         0.0000
   1168  C3'       16.8920   38.1860   36.7650 C.3    58  C58         0.0000
   1169  O3'       17.0610   39.5030   37.2620 O.3    58  C58         0.0000
   1170  C2'       17.9360   37.2080   37.2950 C.3    58  C58         0.0000
   1171  O2'       18.1910   37.3310   38.6820 O.3    58  C58         0.0000
   1172  C1'       17.2340   35.8890   36.9850 C.3    58  C58         0.0000
   1173  N1        17.5840   35.3630   35.6250 N.ar   58  C58         0.0000
   1174  C2        18.8330   34.7480   35.4350 C.ar   58  C58         0.0000
   1175  O2        19.6100   34.6470   36.3930 O.2    58  C58         0.0000
   1176  N3        19.1560   34.2760   34.2010 N.ar   58  C58         0.0000
   1177  C4        18.2910   34.4050   33.1890 C.ar   58  C58         0.0000
   1178  N4        18.6520   33.9230   31.9950 N.pl3  58  C58         0.0000
   1179  C5        17.0160   35.0330   33.3600 C.ar   58  C58         0.0000
   1180  C6        16.7100   35.4950   34.5790 C.ar   58  C58         0.0000
   1181  OP1       12.4360   38.8430   34.1510 O.3    58  C58        -0.5000
   1182  OP2       13.8950   37.2290   32.7770 O.co2  58  C58        -0.5000
   1183  P         17.6710   40.6200   36.2930 P.3    59  U59         0.0000
   1184  C5'       20.1880   40.5510   37.0390 C.3    59  U59         0.0000
   1185  O5'       19.1940   40.1470   36.1010 O.3    59  U59         0.0000
   1186  C4'       21.4130   39.6510   37.0210 C.3    59  U59         0.0000
   1187  O4'       21.1100   38.3350   36.4980 O.3    59  U59         0.0000
   1188  C3'       22.5450   40.0990   36.1150 C.3    59  U59         0.0000
   1189  O3'       23.2360   41.2020   36.6710 O.3    59  U59         0.0000
   1190  C2'       23.3970   38.8340   36.0840 C.3    59  U59         0.0000
   1191  O2'       24.2240   38.6600   37.2200 O.3    59  U59         0.0000
   1192  C1'       22.3220   37.7510   36.0390 C.3    59  U59         0.0000
   1193  N1        22.1360   37.1890   34.6660 N.ar   59  U59         0.0000
   1194  C2        23.1430   36.4210   34.1060 C.ar   59  U59         0.0000
   1195  O2        24.1890   36.1650   34.6710 O.2    59  U59         0.0000
   1196  N3        22.8830   35.9520   32.8450 N.ar   59  U59         0.0000
   1197  C4        21.7410   36.1680   32.0990 C.ar   59  U59         0.0000
   1198  O4        21.6500   35.6820   30.9780 O.2    59  U59         0.0000
   1199  C5        20.7380   36.9830   32.7400 C.ar   59  U59         0.0000
   1200  C6        20.9700   37.4530   33.9730 C.ar   59  U59         0.0000
   1201  OP1       17.6280   41.9010   37.0320 O.3    59  U59        -0.5000
   1202  OP2       16.9890   40.5150   34.9830 O.co2  59  U59        -0.5000
   1203  P         23.8150   42.3360   35.7050 P.3    60  U60         0.0000
   1204  C5'       26.2200   41.2910   35.8620 C.3    60  U60         0.0000
   1205  O5'       25.1020   41.6440   35.0550 O.3    60  U60         0.0000
   1206  C4'       27.1590   40.3850   35.0930 C.3    60  U60         0.0000
   1207  O4'       26.4460   39.1890   34.6970 O.3    60  U60         0.0000
   1208  C3'       27.6270   40.9390   33.7620 C.3    60  U60         0.0000
   1209  O3'       28.6810   41.8720   33.9100 O.3    60  U60         0.0000
   1210  C2'       28.0680   39.6730   33.0430 C.3    60  U60         0.0000
   1211  O2'       29.3240   39.1940   33.4800 O.3    60  U60         0.0000
   1212  C1'       26.9560   38.7190   33.4580 C.3    60  U60         0.0000
   1213  N1        25.8570   38.6120   32.4370 N.ar   60  U60         0.0000
   1214  C2        26.1030   37.9050   31.2730 C.ar   60  U60         0.0000
   1215  O2        27.1680   37.3670   31.0320 O.2    60  U60         0.0000
   1216  N3        25.0500   37.8480   30.3890 N.ar   60  U60         0.0000
   1217  C4        23.7990   38.4200   30.5450 C.ar   60  U60         0.0000
   1218  O4        22.9590   38.2830   29.6590 O.2    60  U60         0.0000
   1219  C5        23.6130   39.1440   31.7820 C.ar   60  U60         0.0000
   1220  C6        24.6270   39.2130   32.6600 C.ar   60  U60         0.0000
   1221  OP1       24.2390   43.4680   36.5600 O.3    60  U60        -0.5000
   1222  OP2       22.8370   42.5560   34.6180 O.co2  60  U60        -0.5000
   1223  P         28.6520   43.1970   33.0030 P.3    61  U61         0.0000
   1224  C5'       30.4690   41.7880   31.6400 C.3    61  U61         0.0000
   1225  O5'       29.9430   43.0630   32.0540 O.3    61  U61         0.0000
   1226  C4'       30.6420   41.6790   30.1290 C.3    61  U61         0.0000
   1227  O4'       29.8370   40.5770   29.6250 O.3    61  U61         0.0000
   1228  C3'       30.1910   42.8770   29.3000 C.3    61  U61         0.0000
   1229  O3'       31.1810   43.8960   29.2650 O.3    61  U61         0.0000
   1230  C2'       29.9690   42.2230   27.9400 C.3    61  U61         0.0000
   1231  O2'       31.1850   41.9450   27.2600 O.3    61  U61         0.0000
   1232  C1'       29.2760   40.9290   28.3700 C.3    61  U61         0.0000
   1233  N1        27.7600   40.9990   28.4980 N.ar   61  U61         0.0000
   1234  C2        27.0020   39.9210   28.0720 C.ar   61  U61         0.0000
   1235  O2        27.4900   38.9090   27.5960 O.2    61  U61         0.0000
   1236  N3        25.6390   40.0640   28.2200 N.ar   61  U61         0.0000
   1237  C4        24.9670   41.1510   28.7480 C.ar   61  U61         0.0000
   1238  O4        23.7420   41.1330   28.8210 O.2    61  U61         0.0000
   1239  C5        25.8160   42.2400   29.1690 C.ar   61  U61         0.0000
   1240  C6        27.1450   42.1250   29.0300 C.ar   61  U61         0.0000
   1241  OP1       28.8400   44.3560   33.9030 O.3    61  U61        -0.5000
   1242  OP2       27.4480   43.1520   32.1360 O.co2  61  U61        -0.5000
   1243  P         30.7880   45.3760   28.7930 P.3    62  G62         0.0000
   1244  C5'       31.6640   45.6050   26.3550 C.3    62  G62         0.0000
   1245  O5'       30.6250   45.1880   27.2200 O.3    62  G62         0.0000
   1246  C4'       31.1350   46.6820   25.4340 C.3    62  G62         0.0000
   1247  O4'       30.0230   46.1600   24.6770 O.3    62  G62         0.0000
   1248  C3'       30.6120   47.9170   26.1450 C.3    62  G62         0.0000
   1249  O3'       31.2050   49.0320   25.5390 O.3    62  G62         0.0000
   1250  C2'       29.1050   47.8770   25.9140 C.3    62  G62         0.0000
   1251  O2'       28.5430   49.1710   25.8210 O.3    62  G62         0.0000
   1252  C1'       29.0510   47.1580   24.5780 C.3    62  G62         0.0000
   1253  N1        26.2640   44.9900   20.9160 N.ar   62  G62         0.0000
   1254  C2        27.5000   45.5940   20.8420 C.ar   62  G62         0.0000
   1255  N2        28.0700   45.6260   19.6310 N.pl3  62  G62         0.0000
   1256  N3        28.1340   46.1360   21.8800 N.ar   62  G62         0.0000
   1257  C4        27.4250   46.0150   23.0320 C.ar   62  G62         0.0000
   1258  C5        26.1850   45.4380   23.2110 C.ar   62  G62         0.0000
   1259  C6        25.5160   44.8690   22.0880 C.ar   62  G62         0.0000
   1260  O6        24.4060   44.3170   22.0450 O.2    62  G62         0.0000
   1261  N7        25.8010   45.5300   24.5450 N.ar   62  G62         0.0000
   1262  C8        26.7920   46.1430   25.1310 C.ar   62  G62         0.0000
   1263  N9        27.8080   46.4750   24.2710 N.ar   62  G62         0.0000
   1264  OP1       31.9620   46.2460   29.0540 O.2    62  G62        -0.5000
   1265  OP2       29.4460   45.7320   29.3180 O.co2  62  G62        -0.5000
   1266  P         31.4370   50.3650   26.3760 P.3    63  A63         0.0000
   1267  C5'       30.3320   52.3700   25.2060 C.3    63  A63         0.0000
   1268  O5'       30.1470   51.1870   25.9330 O.3    63  A63         0.0000
   1269  C4'       29.9700   52.2220   23.7440 C.3    63  A63         0.0000
   1270  O4'       29.4650   50.9130   23.4020 O.3    63  A63         0.0000
   1271  C3'       28.8380   53.1400   23.3410 C.3    63  A63         0.0000
   1272  O3'       29.3580   54.4390   23.1740 O.3    63  A63         0.0000
   1273  C2'       28.3740   52.5400   22.0210 C.3    63  A63         0.0000
   1274  O2'       29.0770   53.0370   20.8970 O.3    63  A63         0.0000
   1275  C1'       28.6790   51.0620   22.2270 C.3    63  A63         0.0000
   1276  N1        25.3910   47.8970   19.8200 N.ar   63  A63         0.0000
   1277  C2        26.5090   48.4990   19.3980 C.ar   63  A63         0.0000
   1278  N3        27.3240   49.3130   20.0760 N.ar   63  A63         0.0000
   1279  C4        26.8870   49.5080   21.3400 C.ar   63  A63         0.0000
   1280  C5        25.7590   48.9570   21.9130 C.ar   63  A63         0.0000
   1281  C6        24.9840   48.1090   21.0950 C.ar   63  A63         0.0000
   1282  N6        23.8700   47.5130   21.5300 N.pl3  63  A63         0.0000
   1283  N7        25.6230   49.3660   23.2250 N.ar   63  A63         0.0000
   1284  C8        26.6540   50.1480   23.4200 C.ar   63  A63         0.0000
   1285  N9        27.4620   50.2730   22.3320 N.ar   63  A63         0.0000
   1286  OP1       32.6650   51.0070   25.8570 O.2    63  A63        -0.5000
   1287  OP2       31.3170   50.0750   27.8230 O.co2  63  A63        -0.5000
   1288  P         28.7250   55.6510   23.9910 P.3    64  U64         0.0000
   1289  C5'       27.1440   56.0240   21.9190 C.3    64  U64         0.0000
   1290  O5'       27.2750   55.8150   23.3230 O.3    64  U64         0.0000
   1291  C4'       27.1710   57.5040   21.5820 C.3    64  U64         0.0000
   1292  O4'       27.4910   57.6850   20.1760 O.3    64  U64         0.0000
   1293  C3'       25.8580   58.2450   21.8080 C.3    64  U64         0.0000
   1294  O3'       26.1520   59.5640   22.2170 O.3    64  U64         0.0000
   1295  C2'       25.2600   58.2490   20.4110 C.3    64  U64         0.0000
   1296  O2'       24.3310   59.2920   20.2510 O.3    64  U64         0.0000
   1297  C1'       26.5200   58.5370   19.6050 C.3    64  U64         0.0000
   1298  N1        26.4480   58.2790   18.1330 N.ar   64  U64         0.0000
   1299  C2        27.1460   59.1110   17.2760 C.ar   64  U64         0.0000
   1300  O2        27.8110   60.0590   17.6600 O.2    64  U64         0.0000
   1301  N3        27.0230   58.7920   15.9400 N.ar   64  U64         0.0000
   1302  C4        26.3010   57.7450   15.3900 C.ar   64  U64         0.0000
   1303  O4        26.2860   57.5790   14.1770 O.2    64  U64         0.0000
   1304  C5        25.6130   56.9200   16.3470 C.ar   64  U64         0.0000
   1305  C6        25.7110   57.2120   17.6520 C.ar   64  U64         0.0000
   1306  OP1       29.5630   56.8360   23.7010 O.2    64  U64        -0.5000
   1307  OP2       28.5150   55.2120   25.3890 O.co2  64  U64        -0.5000
   1308  P         25.5470   60.1680   23.5640 P.3    65  U65         0.0000
   1309  C5'       25.1360   62.4330   22.2670 C.3    65  U65         0.0000
   1310  O5'       25.7680   61.7430   23.3510 O.3    65  U65         0.0000
   1311  C4'       26.1440   63.2270   21.4520 C.3    65  U65         0.0000
   1312  O4'       26.7270   62.3780   20.4340 O.3    65  U65         0.0000
   1313  C3'       25.5600   64.3720   20.6430 C.3    65  U65         0.0000
   1314  O3'       25.3830   65.5340   21.4260 O.3    65  U65         0.0000
   1315  C2'       26.6040   64.5790   19.5500 C.3    65  U65         0.0000
   1316  O2'       27.6880   65.3960   19.9330 O.3    65  U65         0.0000
   1317  C1'       27.0760   63.1560   19.2990 C.3    65  U65         0.0000
   1318  N1        26.4710   62.5700   18.0640 N.ar   65  U65         0.0000
   1319  C2        27.0500   62.8520   16.8420 C.ar   65  U65         0.0000
   1320  O2        28.0400   63.5490   16.7100 O.2    65  U65         0.0000
   1321  N3        26.4320   62.2780   15.7620 N.ar   65  U65         0.0000
   1322  C4        25.3120   61.4700   15.7780 C.ar   65  U65         0.0000
   1323  O4        24.8750   61.0230   14.7220 O.2    65  U65         0.0000
   1324  C5        24.7560   61.2280   17.0860 C.ar   65  U65         0.0000
   1325  C6        25.3450   61.7770   18.1560 C.ar   65  U65         0.0000
   1326  OP1       26.3990   59.6920   24.6820 O.3    65  U65        -0.5000
   1327  OP2       24.0860   59.9180   23.5830 O.co2  65  U65        -0.5000
   1328  P         24.2410   66.5630   20.9900 P.3    66  U66         0.0000
   1329  C5'       25.9700   68.1750   19.8180 C.3    66  U66         0.0000
   1330  O5'       24.8730   67.2700   19.7020 O.3    66  U66         0.0000
   1331  C4'       26.4080   68.6630   18.4480 C.3    66  U66         0.0000
   1332  O4'       26.9420   67.5460   17.6850 O.3    66  U66         0.0000
   1333  C3'       25.3000   69.2180   17.5570 C.3    66  U66         0.0000
   1334  O3'       24.9680   70.5630   17.8700 O.3    66  U66         0.0000
   1335  C2'       25.9480   69.0840   16.1850 C.3    66  U66         0.0000
   1336  O2'       26.9250   70.0760   15.9320 O.3    66  U66         0.0000
   1337  C1'       26.5930   67.7060   16.3160 C.3    66  U66         0.0000
   1338  N1        25.6990   66.5720   15.8540 N.ar   66  U66         0.0000
   1339  C2        25.6610   66.2390   14.5090 C.ar   66  U66         0.0000
   1340  O2        26.3110   66.8070   13.6510 O.2    66  U66         0.0000
   1341  N3        24.8230   65.1980   14.1930 N.ar   66  U66         0.0000
   1342  C4        24.0310   64.4680   15.0590 C.ar   66  U66         0.0000
   1343  O4        23.3320   63.5620   14.6210 O.2    66  U66         0.0000
   1344  C5        24.1150   64.8680   16.4380 C.ar   66  U66         0.0000
   1345  C6        24.9250   65.8810   16.7710 C.ar   66  U66         0.0000
   1346  OP1       24.0840   67.5610   22.0700 O.3    66  U66        -0.5000
   1347  OP2       23.0660   65.7880   20.5340 O.co2  66  U66        -0.5000
   1348  P         23.4830   71.1070   17.5970 P.3    67  G67         0.0000
   1349  C5'       24.1500   72.1950   15.3030 C.3    67  G67         0.0000
   1350  O5'       23.4050   71.1990   16.0000 O.3    67  G67         0.0000
   1351  C4'       24.0650   71.9770   13.8060 C.3    67  G67         0.0000
   1352  O4'       24.6660   70.7060   13.4510 O.3    67  G67         0.0000
   1353  C3'       22.6530   71.8680   13.2630 C.3    67  G67         0.0000
   1354  O3'       22.0840   73.1390   13.0640 O.3    67  G67         0.0000
   1355  C2'       22.8890   71.1350   11.9510 C.3    67  G67         0.0000
   1356  O2'       23.3450   71.9800   10.9120 O.3    67  G67         0.0000
   1357  C1'       23.9490   70.1220   12.3770 C.3    67  G67         0.0000
   1358  N1        21.4480   65.9530   10.9070 N.ar   67  G67         0.0000
   1359  C2        21.9610   66.9840   10.1550 C.ar   67  G67         0.0000
   1360  N2        21.7910   66.9140    8.8320 N.pl3  67  G67         0.0000
   1361  N3        22.6020   68.0240   10.6610 N.ar   67  G67         0.0000
   1362  C4        22.6950   67.9520   12.0100 C.ar   67  G67         0.0000
   1363  C5        22.2170   66.9700   12.8510 C.ar   67  G67         0.0000
   1364  C6        21.5310   65.8630   12.2950 C.ar   67  G67         0.0000
   1365  O6        21.0340   64.8930   12.8830 O.2    67  G67         0.0000
   1366  N7        22.5200   67.2660   14.1710 N.ar   67  G67         0.0000
   1367  C8        23.1570   68.4080   14.1010 C.ar   67  G67         0.0000
   1368  N9        23.3130   68.8800   12.8170 N.ar   67  G67         0.0000
   1369  OP1       23.3900   72.4800   18.1550 O.3    67  G67        -0.5000
   1370  OP2       22.5300   70.0670   18.0410 O.co2  67  G67        -0.5000
   1371  P         20.4980   73.2800   13.1700 P.3    68  G68         0.0000
   1372  C5'       20.2790   73.1640   10.5690 C.3    68  G68         0.0000
   1373  O5'       19.9800   72.5870   11.8270 O.3    68  G68         0.0000
   1374  C4'       19.7760   72.2620    9.4670 C.3    68  G68         0.0000
   1375  O4'       20.3310   70.9390    9.6430 O.3    68  G68         0.0000
   1376  C3'       18.2750   72.0350    9.4880 C.3    68  G68         0.0000
   1377  O3'       17.5990   73.0990    8.8420 O.3    68  G68         0.0000
   1378  C2'       18.1500   70.7250    8.7190 C.3    68  G68         0.0000
   1379  O2'       18.1860   70.8870    7.3160 O.3    68  G68         0.0000
   1380  C1'       19.3930   69.9760    9.1840 C.3    68  G68         0.0000
   1381  N1        17.6000   65.3360   10.3910 N.ar   68  G68         0.0000
   1382  C2        17.7160   65.9240    9.1510 C.ar   68  G68         0.0000
   1383  N2        17.3140   65.1910    8.1020 N.pl3  68  G68         0.0000
   1384  N3        18.2000   67.1470    8.9530 N.ar   68  G68         0.0000
   1385  C4        18.5650   67.7520   10.1150 C.ar   68  G68         0.0000
   1386  C5        18.4810   67.2470   11.3950 C.ar   68  G68         0.0000
   1387  C6        17.9660   65.9400   11.5950 C.ar   68  G68         0.0000
   1388  O6        17.8180   65.3320   12.6640 O.2    68  G68         0.0000
   1389  N7        18.9490   68.1730   12.3160 N.ar   68  G68         0.0000
   1390  C8        19.3010   69.2030   11.5960 C.ar   68  G68         0.0000
   1391  N9        19.1020   69.0190   10.2500 N.ar   68  G68         0.0000
   1392  OP1       20.1620   74.7240   13.1410 O.2    68  G68        -0.5000
   1393  OP2       20.0400   72.4390   14.2960 O.co2  68  G68        -0.5000
   1394  P         16.1640   73.5740    9.3650 P.3    69  U69         0.0000
   1395  C5'       14.9380   72.3410    7.3840 C.3    69  U69         0.0000
   1396  O5'       15.1690   72.4630    8.7840 O.3    69  U69         0.0000
   1397  C4'       14.1930   71.0530    7.0910 C.3    69  U69         0.0000
   1398  O4'       14.9900   69.9080    7.4880 O.3    69  U69         0.0000
   1399  C3'       12.9270   70.8650    7.9010 C.3    69  U69         0.0000
   1400  O3'       11.8560   71.6250    7.3930 O.3    69  U69         0.0000
   1401  C2'       12.6950   69.3650    7.7720 C.3    69  U69         0.0000
   1402  O2'       12.0910   68.9800    6.5520 O.3    69  U69         0.0000
   1403  C1'       14.1240   68.8430    7.8560 C.3    69  U69         0.0000
   1404  N1        14.4500   68.3410    9.2320 N.ar   69  U69         0.0000
   1405  C2        14.0450   67.0620    9.5910 C.ar   69  U69         0.0000
   1406  O2        13.4390   66.3160    8.8460 O.2    69  U69         0.0000
   1407  N3        14.3790   66.6770   10.8680 N.ar   69  U69         0.0000
   1408  C4        15.0590   67.4300   11.8100 C.ar   69  U69         0.0000
   1409  O4        15.2890   66.9490   12.9170 O.2    69  U69         0.0000
   1410  C5        15.4430   68.7530   11.3690 C.ar   69  U69         0.0000
   1411  C6        15.1310   69.1510   10.1260 C.ar   69  U69         0.0000
   1412  OP1       15.8530   74.8740    8.7270 O.2    69  U69        -0.5000
   1413  OP2       16.1550   73.4590   10.8410 O.co2  69  U69        -0.5000
   1414  P         10.8480   72.2730    8.4510 P.3    70  G70         0.0000
   1415  C5'        9.1220   70.3580    7.9130 C.3    70  G70         0.0000
   1416  O5'        9.8950   71.0580    8.8710 O.3    70  G70         0.0000
   1417  C4'        8.6430   69.0530    8.5140 C.3    70  G70         0.0000
   1418  O4'        9.7860   68.2200    8.8550 O.3    70  G70         0.0000
   1419  C3'        7.8970   69.1850    9.8330 C.3    70  G70         0.0000
   1420  O3'        6.5400   69.5140    9.6380 O.3    70  G70         0.0000
   1421  C2'        8.0580   67.7790   10.3960 C.3    70  G70         0.0000
   1422  O2'        7.2040   66.8350    9.7800 O.3    70  G70         0.0000
   1423  C1'        9.5150   67.4990   10.0460 C.3    70  G70         0.0000
   1424  N1        11.7740   66.2500   14.4390 N.ar   70  G70         0.0000
   1425  C2        10.9540   65.4930   13.6350 C.ar   70  G70         0.0000
   1426  N2        10.7000   64.2450   14.0480 N.pl3  70  G70         0.0000
   1427  N3        10.4200   65.9310   12.5020 N.ar   70  G70         0.0000
   1428  C4        10.7830   67.2120   12.2250 C.ar   70  G70         0.0000
   1429  C5        11.5960   68.0460   12.9640 C.ar   70  G70         0.0000
   1430  C6        12.1550   67.5630   14.1720 C.ar   70  G70         0.0000
   1431  O6        12.8990   68.1570   14.9590 O.2    70  G70         0.0000
   1432  N7        11.7200   69.2860   12.3500 N.ar   70  G70         0.0000
   1433  C8        10.9960   69.1770   11.2700 C.ar   70  G70         0.0000
   1434  N9        10.4030   67.9430   11.1210 N.ar   70  G70         0.0000
   1435  OP1       10.0450   73.2950    7.7450 O.2    70  G70        -0.5000
   1436  OP2       11.6360   72.6520    9.6470 O.co2  70  G70        -0.5000
   1437  P          5.8690   70.6460   10.5490 P.3    71  A71         0.0000
   1438  C5'        5.6130   70.8730   13.1380 C.3    71  A71         0.0000
   1439  O5'        6.2840   70.2560   12.0420 O.3    71  A71         0.0000
   1440  C4'        5.0180   69.8290   14.0650 C.3    71  A71         0.0000
   1441  O4'        3.8770   69.1970   13.4410 O.3    71  A71         0.0000
   1442  C3'        5.9510   68.6760   14.3750 C.3    71  A71         0.0000
   1443  O3'        6.7900   69.0290   15.4520 O.3    71  A71         0.0000
   1444  C2'        4.9970   67.5470   14.7410 C.3    71  A71         0.0000
   1445  O2'        4.6340   67.5470   16.1060 O.3    71  A71         0.0000
   1446  C1'        3.7830   67.8490   13.8690 C.3    71  A71         0.0000
   1447  N1         3.3800   63.0030   12.0930 N.ar   71  A71         0.0000
   1448  C2         3.4540   63.4900   13.3410 C.ar   71  A71         0.0000
   1449  N3         3.5550   64.7640   13.7350 N.ar   71  A71         0.0000
   1450  C4         3.5800   65.6060   12.6820 C.ar   71  A71         0.0000
   1451  C5         3.5130   65.2520   11.3460 C.ar   71  A71         0.0000
   1452  C6         3.4010   63.8740   11.0570 C.ar   71  A71         0.0000
   1453  N6         3.3250   63.3950    9.8130 N.pl3  71  A71         0.0000
   1454  N7         3.5710   66.3740   10.5380 N.ar   71  A71         0.0000
   1455  C8         3.6730   67.3680   11.3870 C.ar   71  A71         0.0000
   1456  N9         3.6820   66.9800   12.6970 N.ar   71  A71         0.0000
   1457  OP1        4.3980   70.5250   10.4100 O.3    71  A71        -0.5000
   1458  OP2        6.5400   71.9250   10.2370 O.co2  71  A71        -0.5000
   1459  P          8.3240   68.5980   15.4090 P.3    72  A72         0.0000
   1460  C5'        7.6920   66.6140   17.0200 C.3    72  A72         0.0000
   1461  O5'        8.2300   67.0420   15.7680 O.3    72  A72         0.0000
   1462  C4'        7.4390   65.1210   16.9810 C.3    72  A72         0.0000
   1463  O4'        6.5160   64.8480   15.9060 O.3    72  A72         0.0000
   1464  C3'        8.6750   64.3010   16.6610 C.3    72  A72         0.0000
   1465  O3'        9.2990   63.8620   17.8540 O.3    72  A72         0.0000
   1466  C2'        8.1660   63.1290   15.8280 C.3    72  A72         0.0000
   1467  O2'        7.9790   61.9530   16.5870 O.3    72  A72         0.0000
   1468  C1'        6.8320   63.6180   15.2870 C.3    72  A72         0.0000
   1469  N1         6.2080   61.3690   10.6900 N.ar   72  A72         0.0000
   1470  C2         6.1510   60.8840   11.9390 C.ar   72  A72         0.0000
   1471  N3         6.3300   61.5270   13.0970 N.ar   72  A72         0.0000
   1472  C4         6.5950   62.8310   12.8910 C.ar   72  A72         0.0000
   1473  C5         6.6830   63.4740   11.6690 C.ar   72  A72         0.0000
   1474  C6         6.4730   62.6830   10.5180 C.ar   72  A72         0.0000
   1475  N6         6.5300   63.1630    9.2740 N.pl3  72  A72         0.0000
   1476  N7         6.9710   64.8150   11.8460 N.ar   72  A72         0.0000
   1477  C8         7.0480   64.9550   13.1480 C.ar   72  A72         0.0000
   1478  N9         6.8280   63.7980   13.8400 N.ar   72  A72         0.0000
   1479  OP1        9.0420   69.3000   16.4950 O.3    72  A72        -0.5000
   1480  OP2        8.8000   68.7530   14.0150 O.co2  72  A72        -0.5000
   1481  P         10.8910   63.9710   17.9760 P.3    73  A73         0.0000
   1482  C5'       11.1280   61.5890   16.9120 C.3    73  A73         0.0000
   1483  O5'       11.4380   62.9760   16.8480 O.3    73  A73         0.0000
   1484  C4'       12.1130   60.7570   16.1110 C.3    73  A73         0.0000
   1485  O4'       12.0310   61.0700   14.7100 O.3    73  A73         0.0000
   1486  C3'       13.5620   60.9710   16.4970 C.3    73  A73         0.0000
   1487  O3'       13.8930   59.9250   17.3770 O.3    73  A73         0.0000
   1488  C2'       14.3470   60.9470   15.1790 C.3    73  A73         0.0000
   1489  O2'       15.2920   59.8930   15.0980 O.3    73  A73         0.0000
   1490  C1'       13.2700   60.7840   14.1030 C.3    73  A73         0.0000
   1491  N1        12.5960   61.2510    9.0110 N.ar   73  A73         0.0000
   1492  C2        12.4400   60.2100    9.8410 C.ar   73  A73         0.0000
   1493  N3        12.6370   60.1670   11.1610 N.ar   73  A73         0.0000
   1494  C4        13.0540   61.3590   11.6390 C.ar   73  A73         0.0000
   1495  C5        13.2680   62.5140   10.9090 C.ar   73  A73         0.0000
   1496  C6        13.0180   62.4310    9.5210 C.ar   73  A73         0.0000
   1497  N6        13.1800   63.4560    8.6880 N.pl3  73  A73         0.0000
   1498  N7        13.7000   63.5460   11.7320 N.ar   73  A73         0.0000
   1499  C8        13.7350   63.0030   12.9270 C.ar   73  A73         0.0000
   1500  N9        13.3690   61.6800   12.9440 N.ar   73  A73         0.0000
   1501  OP1       11.3010   63.4520   19.3030 O.3    73  A73        -0.5000
   1502  OP2       11.2400   65.3490   17.5690 O.co2  73  A73        -0.5000
   1503  P         14.3870   60.2570   18.8590 P.3    74  U74         0.0000
   1504  C5'       16.8630   60.8760   19.4430 C.3    74  U74         0.0000
   1505  O5'       15.7810   60.9750   18.5500 O.3    74  U74         0.0000
   1506  C4'       18.1600   60.7180   18.6830 C.3    74  U74         0.0000
   1507  O4'       19.2340   60.6790   19.6450 O.3    74  U74         0.0000
   1508  C3'       18.2920   59.4140   17.9130 C.3    74  U74         0.0000
   1509  O3'       19.2480   59.5420   16.8450 O.3    74  U74         0.0000
   1510  C2'       18.7690   58.4510   18.9960 C.3    74  U74         0.0000
   1511  O2'       19.5240   57.3740   18.4890 O.3    74  U74         0.0000
   1512  C1'       19.6900   59.3450   19.8060 C.3    74  U74         0.0000
   1513  N1        19.7370   59.0000   21.2620 N.ar   74  U74         0.0000
   1514  C2        20.9360   58.5730   21.8000 C.ar   74  U74         0.0000
   1515  O2        21.9580   58.4550   21.1470 O.2    74  U74         0.0000
   1516  N3        20.9030   58.2810   23.1410 N.ar   74  U74         0.0000
   1517  C4        19.8120   58.3680   23.9830 C.ar   74  U74         0.0000
   1518  O4        19.9390   58.0700   25.1690 O.2    74  U74         0.0000
   1519  C5        18.5950   58.8190   23.3510 C.ar   74  U74         0.0000
   1520  C6        18.6020   59.1110   22.0440 C.ar   74  U74         0.0000
   1521  OP1       14.6370   58.9540   19.5190 O.3    74  U74        -0.5000
   1522  OP2       13.4880   61.2650   19.4840 O.co2  74  U74        -0.5000
   1523  P         18.7590   59.6970   15.3220 P.3    75  U75         0.0000
   1524  C5'       18.8730   57.1930   14.7040 C.3    75  U75         0.0000
   1525  O5'       18.0660   58.2960   15.0180 O.3    75  U75         0.0000
   1526  C4'       18.0640   56.2020   13.9050 C.3    75  U75         0.0000
   1527  O4'       16.9060   55.7950   14.6770 O.3    75  U75         0.0000
   1528  C3'       17.5410   56.7330   12.5760 C.3    75  U75         0.0000
   1529  O3'       17.8610   55.7910   11.5660 O.3    75  U75         0.0000
   1530  C2'       16.0360   56.8190   12.8110 C.3    75  U75         0.0000
   1531  O2'       15.2580   56.5790   11.6580 O.3    75  U75         0.0000
   1532  C1'       15.8230   55.6840   13.7960 C.3    75  U75         0.0000
   1533  N1        14.5410   55.8200   14.5230 N.ar   75  U75         0.0000
   1534  C2        13.5560   54.8750   14.3180 C.ar   75  U75         0.0000
   1535  O2        13.6880   53.9080   13.5940 O.2    75  U75         0.0000
   1536  N3        12.3970   55.0900   15.0110 N.ar   75  U75         0.0000
   1537  C4        12.1270   56.1370   15.8650 C.ar   75  U75         0.0000
   1538  O4        11.0350   56.1880   16.4140 O.2    75  U75         0.0000
   1539  C5        13.1900   57.0900   16.0270 C.ar   75  U75         0.0000
   1540  C6        14.3340   56.9000   15.3570 C.ar   75  U75         0.0000
   1541  OP1       19.9460   59.8140   14.4460 O.2    75  U75        -0.5000
   1542  OP2       17.7070   60.7390   15.2890 O.co2  75  U75        -0.5000
   1543  P         18.6560   56.2110   10.2390 P.3    76  C76         0.0000
   1544  C5'       16.8040   56.5560    8.3690 C.3    76  C76         0.0000
   1545  O5'       17.5540   57.0870    9.4620 O.3    76  C76         0.0000
   1546  C4'       16.2590   57.6800    7.4980 C.3    76  C76         0.0000
   1547  O4'       15.3300   58.5060    8.2530 O.3    76  C76         0.0000
   1548  C3'       17.2940   58.6480    6.9330 C.3    76  C76         0.0000
   1549  O3'       17.7630   58.1650    5.6800 O.3    76  C76         0.0000
   1550  C2'       16.4790   59.9280    6.7610 C.3    76  C76         0.0000
   1551  O2'       15.7200   59.9550    5.5660 O.3    76  C76         0.0000
   1552  C1'       15.5220   59.8780    7.9500 C.3    76  C76         0.0000
   1553  N1        15.9880   60.6260    9.1790 N.ar   76  C76         0.0000
   1554  C2        16.3130   61.9980    9.1160 C.ar   76  C76         0.0000
   1555  O2        16.2240   62.6120    8.0460 O.2    76  C76         0.0000
   1556  N3        16.7320   62.6230   10.2500 N.ar   76  C76         0.0000
   1557  C4        16.8220   61.9500   11.4050 C.ar   76  C76         0.0000
   1558  N4        17.2320   62.6120   12.4910 N.pl3  76  C76         0.0000
   1559  C5        16.4900   60.5650   11.4960 C.ar   76  C76         0.0000
   1560  C6        16.0850   59.9550   10.3720 C.ar   76  C76         0.0000
   1561  OP1       18.9380   54.9640    9.4920 O.2    76  C76        -0.5000
   1562  OP2       19.7790   57.1140   10.5890 O.co2  76  C76        -0.5000
   1563  P         19.3140   58.1610    5.3190 P.3    77  C77         0.0000
   1564  C5'       19.0730   60.3860    3.9940 C.3    77  C77         0.0000
   1565  O5'       19.6310   59.7130    5.1020 O.3    77  C77         0.0000
   1566  C4'       19.5190   61.8300    3.9450 C.3    77  C77         0.0000
   1567  O4'       18.7960   62.5710    4.9540 O.3    77  C77         0.0000
   1568  C3'       20.9870   62.0750    4.2460 C.3    77  C77         0.0000
   1569  O3'       21.7650   61.9520    3.0750 O.3    77  C77         0.0000
   1570  C2'       20.9610   63.5170    4.7250 C.3    77  C77         0.0000
   1571  O2'       20.9370   64.4450    3.6550 O.3    77  C77         0.0000
   1572  C1'       19.6480   63.5510    5.5040 C.3    77  C77         0.0000
   1573  N1        19.7990   63.2950    6.9720 N.ar   77  C77         0.0000
   1574  C2        20.3200   64.3090    7.7840 C.ar   77  C77         0.0000
   1575  O2        20.6560   65.3760    7.2700 O.2    77  C77         0.0000
   1576  N3        20.4460   64.1000    9.1150 N.ar   77  C77         0.0000
   1577  C4        20.0760   62.9370    9.6390 C.ar   77  C77         0.0000
   1578  N4        20.2240   62.7960   10.9550 N.pl3  77  C77         0.0000
   1579  C5        19.5410   61.8790    8.8400 C.ar   77  C77         0.0000
   1580  C6        19.4180   62.1010    7.5230 C.ar   77  C77         0.0000
   1581  OP1       19.4730   57.4420    4.0370 O.2    77  C77        -0.5000
   1582  OP2       20.0700   57.7120    6.5140 O.co2  77  C77        -0.5000
   1583  P         23.3160   61.5870    3.2130 P.3    78  A78         0.0000
   1584  C5'       24.6900   63.8430    3.2960 C.3    78  A78         0.0000
   1585  O5'       23.9520   62.8410    3.9920 O.3    78  A78         0.0000
   1586  C4'       25.1700   64.9490    4.2220 C.3    78  A78         0.0000
   1587  O4'       24.1530   65.2860    5.1950 O.3    78  A78         0.0000
   1588  C3'       26.3700   64.6010    5.0820 C.3    78  A78         0.0000
   1589  O3'       27.5490   64.7120    4.3370 O.3    78  A78         0.0000
   1590  C2'       26.2840   65.6450    6.1870 C.3    78  A78         0.0000
   1591  O2'       26.7740   66.9180    5.8210 O.3    78  A78         0.0000
   1592  C1'       24.7750   65.7000    6.4060 C.3    78  A78         0.0000
   1593  N1        24.8520   64.9170   11.4990 N.ar   78  A78         0.0000
   1594  C2        25.3830   65.8760   10.7320 C.ar   78  A78         0.0000
   1595  N3        25.3220   66.0160    9.4100 N.ar   78  A78         0.0000
   1596  C4        24.6130   65.0220    8.8490 C.ar   78  A78         0.0000
   1597  C5        24.0060   63.9670    9.5030 C.ar   78  A78         0.0000
   1598  C6        24.1400   63.9320   10.9090 C.ar   78  A78         0.0000
   1599  N6        23.6100   62.9760   11.6770 N.pl3  78  A78         0.0000
   1600  N7        23.3650   63.1350    8.6020 N.ar   78  A78         0.0000
   1601  C8        23.5980   63.6960    7.4390 C.ar   78  A78         0.0000
   1602  N9        24.3410   64.8410    7.5130 N.ar   78  A78         0.0000
   1603  OP1       23.8830   61.5220    1.8500 O.2    78  A78        -0.5000
   1604  OP2       23.4180   60.3900    4.0800 O.co2  78  A78        -0.5000
   1605  P         28.5730   63.4910    4.3510 P.3    79  A79         0.0000
   1606  C5'       30.1710   64.9780    5.7910 C.3    79  A79         0.0000
   1607  O5'       29.4220   63.7730    5.6740 O.3    79  A79         0.0000
   1608  C4'       30.3000   65.4090    7.2400 C.3    79  A79         0.0000
   1609  O4'       28.9970   65.5130    7.8700 O.3    79  A79         0.0000
   1610  C3'       31.0100   64.4260    8.1460 C.3    79  A79         0.0000
   1611  O3'       32.3930   64.4600    7.9390 O.3    79  A79         0.0000
   1612  C2'       30.6140   64.9740    9.5060 C.3    79  A79         0.0000
   1613  O2'       31.2770   66.1850    9.8160 O.3    79  A79         0.0000
   1614  C1'       29.1320   65.2170    9.2530 C.3    79  A79         0.0000
   1615  N1        26.8620   62.4630   12.9600 N.ar   79  A79         0.0000
   1616  C2        27.5850   63.5890   13.0040 C.ar   79  A79         0.0000
   1617  N3        28.1480   64.2550   11.9970 N.ar   79  A79         0.0000
   1618  C4        27.9100   63.6470   10.8200 C.ar   79  A79         0.0000
   1619  C5        27.1840   62.4890   10.6180 C.ar   79  A79         0.0000
   1620  C6        26.6380   61.8760   11.7640 C.ar   79  A79         0.0000
   1621  N6        25.9130   60.7550   11.7160 N.pl3  79  A79         0.0000
   1622  N7        27.1440   62.1620    9.2720 N.ar   79  A79         0.0000
   1623  C8        27.8370   63.1150    8.6940 C.ar   79  A79         0.0000
   1624  N9        28.3250   64.0450    9.5700 N.ar   79  A79         0.0000
   1625  OP1       29.4420   63.6380    3.1690 O.2    79  A79        -0.5000
   1626  OP2       27.8290   62.2290    4.5550 O.co2  79  A79        -0.5000
   1627  P         33.1720   63.0660    7.9410 P.3    80  A80         0.0000
   1628  C5'       34.2560   64.3480   10.0140 C.3    80  A80         0.0000
   1629  O5'       34.2800   63.2470    9.0920 O.3    80  A80         0.0000
   1630  C4'       33.9260   63.9140   11.4360 C.3    80  A80         0.0000
   1631  O4'       32.4930   63.8130   11.6030 O.3    80  A80         0.0000
   1632  C3'       34.3760   62.5250   11.8430 C.3    80  A80         0.0000
   1633  O3'       35.7430   62.4850   12.1500 O.3    80  A80         0.0000
   1634  C2'       33.5120   62.2670   13.0750 C.3    80  A80         0.0000
   1635  O2'       34.0290   62.8070   14.2760 O.3    80  A80         0.0000
   1636  C1'       32.2080   62.9390   12.6800 C.3    80  A80         0.0000
   1637  N1        28.4600   59.8120   14.2170 N.ar   80  A80         0.0000
   1638  C2        29.2050   60.7100   14.8760 C.ar   80  A80         0.0000
   1639  N3        30.1680   61.4990   14.4010 N.ar   80  A80         0.0000
   1640  C4        30.3520   61.2950   13.0840 C.ar   80  A80         0.0000
   1641  C5        29.6720   60.4090   12.2700 C.ar   80  A80         0.0000
   1642  C6        28.6730   59.6290   12.8920 C.ar   80  A80         0.0000
   1643  N6        27.9340   58.7310   12.2300 N.pl3  80  A80         0.0000
   1644  N7        30.1410   60.4760   10.9670 N.ar   80  A80         0.0000
   1645  C8        31.0820   61.3900   11.0200 C.ar   80  A80         0.0000
   1646  N9        31.2480   61.9310   12.2640 N.ar   80  A80         0.0000
   1647  OP1       33.8470   62.9400    6.6330 O.2    80  A80        -0.5000
   1648  OP2       32.2280   62.0110    8.3670 O.co2  80  A80        -0.5000
   1649  P         36.4010   61.0740   12.5080 P.3    81  A81         0.0000
   1650  C5'       35.5420   59.4940   14.3820 C.3    81  A81         0.0000
   1651  O5'       35.8650   60.8000   13.9810 O.3    81  A81         0.0000
   1652  C4'       34.7540   59.5900   15.6630 C.3    81  A81         0.0000
   1653  O4'       33.3950   59.9810   15.3620 O.3    81  A81         0.0000
   1654  C3'       34.6300   58.2800   16.4020 C.3    81  A81         0.0000
   1655  O3'       35.7770   58.0760   17.2100 O.3    81  A81         0.0000
   1656  C2'       33.3580   58.5040   17.2080 C.3    81  A81         0.0000
   1657  O2'       33.5670   59.2430   18.3910 O.3    81  A81         0.0000
   1658  C1'       32.5040   59.2880   16.2120 C.3    81  A81         0.0000
   1659  N1        28.6840   55.8530   16.1810 N.ar   81  A81         0.0000
   1660  C2        29.2270   56.5750   17.1670 C.ar   81  A81         0.0000
   1661  N3        30.2230   57.4580   17.1020 N.ar   81  A81         0.0000
   1662  C4        30.6830   57.5770   15.8440 C.ar   81  A81         0.0000
   1663  C5        30.2320   56.9020   14.7290 C.ar   81  A81         0.0000
   1664  C6        29.1720   55.9950   14.9280 C.ar   81  A81         0.0000
   1665  N6        28.6340   55.2730   13.9400 N.pl3  81  A81         0.0000
   1666  N7        30.9450   57.2790   13.6030 N.ar   81  A81         0.0000
   1667  C8        31.8060   58.1620   14.0540 C.ar   81  A81         0.0000
   1668  N9        31.6940   58.3950   15.3970 N.ar   81  A81         0.0000
   1669  OP1       37.8670   61.2800   12.5900 O.3    81  A81        -0.5000
   1670  OP2       35.8340   60.0350   11.6170 O.co2  81  A81        -0.5000
   1671  P         36.4160   56.6080   17.2490 P.3    82  C82         0.0000
   1672  C5'       35.1350   56.1030   19.4760 C.3    82  C82         0.0000
   1673  O5'       35.3260   55.7940   18.0950 O.3    82  C82         0.0000
   1674  C4'       33.8960   55.4270   20.0250 C.3    82  C82         0.0000
   1675  O4'       32.7540   55.7790   19.2120 O.3    82  C82         0.0000
   1676  C3'       33.9320   53.9120   19.9630 C.3    82  C82         0.0000
   1677  O3'       34.6270   53.3850   21.0690 O.3    82  C82         0.0000
   1678  C2'       32.4550   53.5680   20.0200 C.3    82  C82         0.0000
   1679  O2'       31.9400   53.6500   21.3300 O.3    82  C82         0.0000
   1680  C1'       31.8690   54.6730   19.1510 C.3    82  C82         0.0000
   1681  N1        31.6650   54.2520   17.7290 N.ar   82  C82         0.0000
   1682  C2        30.5900   53.4050   17.4130 C.ar   82  C82         0.0000
   1683  O2        29.8290   53.0210   18.3120 O.2    82  C82         0.0000
   1684  N3        30.4090   53.0280   16.1220 N.ar   82  C82         0.0000
   1685  C4        31.2500   53.4630   15.1790 C.ar   82  C82         0.0000
   1686  N4        31.0300   53.0680   13.9240 N.pl3  82  C82         0.0000
   1687  C5        32.3490   54.3210   15.4770 C.ar   82  C82         0.0000
   1688  C6        32.5160   54.6840   16.7520 C.ar   82  C82         0.0000
   1689  OP1       37.6850   56.6710   18.0120 O.3    82  C82        -0.5000
   1690  OP2       36.4040   56.0540   15.8730 O.co2  82  C82        -0.5000
   1691  P         35.2670   51.9290   20.9510 P.3    83  C83         0.0000
   1692  C5'       33.4460   50.5420   22.2030 C.3    83  C83         0.0000
   1693  O5'       33.9820   50.9820   20.9780 O.3    83  C83         0.0000
   1694  C4'       32.2740   49.6270   21.9320 C.3    83  C83         0.0000
   1695  O4'       31.4670   50.1890   20.8760 O.3    83  C83         0.0000
   1696  C3'       32.6270   48.2500   21.4090 C.3    83  C83         0.0000
   1697  O3'       32.9370   47.4260   22.4930 O.3    83  C83         0.0000
   1698  C2'       31.2960   47.8410   20.8110 C.3    83  C83         0.0000
   1699  O2'       30.3400   47.5430   21.8040 O.3    83  C83         0.0000
   1700  C1'       30.8640   49.1350   20.1480 C.3    83  C83         0.0000
   1701  N1        31.1890   49.2500   18.6890 N.ar   83  C83         0.0000
   1702  C2        30.4280   48.5240   17.7670 C.ar   83  C83         0.0000
   1703  O2        29.5220   47.7920   18.1690 O.2    83  C83         0.0000
   1704  N3        30.7060   48.6480   16.4490 N.ar   83  C83         0.0000
   1705  C4        31.6850   49.4550   16.0410 C.ar   83  C83         0.0000
   1706  N4        31.9110   49.5290   14.7280 N.pl3  83  C83         0.0000
   1707  C5        32.4730   50.2080   16.9590 C.ar   83  C83         0.0000
   1708  C6        32.1920   50.0780   18.2600 C.ar   83  C83         0.0000
   1709  OP1       36.1020   51.7230   22.1600 O.3    83  C83        -0.5000
   1710  OP2       35.8550   51.7690   19.6030 O.co2  83  C83        -0.5000
   1711  P         34.1700   46.4220   22.4310 P.3    84  G84         0.0000
   1712  C5'       32.2130   44.7090   22.3550 C.3    84  G84         0.0000
   1713  O5'       33.4980   45.0820   21.9010 O.3    84  G84         0.0000
   1714  C4'       31.5680   43.8070   21.3320 C.3    84  G84         0.0000
   1715  O4'       31.1460   44.6070   20.2080 O.3    84  G84         0.0000
   1716  C3'       32.5140   42.7690   20.7600 C.3    84  G84         0.0000
   1717  O3'       32.3660   41.5800   21.4990 O.3    84  G84         0.0000
   1718  C2'       32.0370   42.5790   19.3260 C.3    84  G84         0.0000
   1719  O2'       31.1020   41.5150   19.2310 O.3    84  G84         0.0000
   1720  C1'       31.3670   43.9130   18.9960 C.3    84  G84         0.0000
   1721  N1        31.7170   45.6950   14.2430 N.ar   84  G84         0.0000
   1722  C2        30.8290   44.7930   14.7770 C.ar   84  G84         0.0000
   1723  N2        29.8960   44.2960   13.9580 N.pl3  84  G84         0.0000
   1724  N3        30.8390   44.4090   16.0440 N.ar   84  G84         0.0000
   1725  C4        31.8350   44.9970   16.7520 C.ar   84  G84         0.0000
   1726  C5        32.7670   45.9040   16.3150 C.ar   84  G84         0.0000
   1727  C6        32.7370   46.3120   14.9620 C.ar   84  G84         0.0000
   1728  O6        33.4970   47.1070   14.3940 O.2    84  G84         0.0000
   1729  N7        33.6200   46.2710   17.3440 N.ar   84  G84         0.0000
   1730  C8        33.1860   45.5920   18.3700 C.ar   84  G84         0.0000
   1731  N9        32.1090   44.7900   18.0830 N.ar   84  G84         0.0000
   1732  OP1       34.6350   46.2020   23.8160 O.3    84  G84        -0.5000
   1733  OP2       35.1060   46.8880   21.3920 O.co2  84  G84        -0.5000
   1734  P         33.6450   40.6640   21.6690 P.3    85  A85         0.0000
   1735  C5'       32.6430   39.6190   23.8460 C.3    85  A85         0.0000
   1736  O5'       33.1140   39.4350   22.5310 O.3    85  A85         0.0000
   1737  C4'       31.9390   38.3590   24.3160 C.3    85  A85         0.0000
   1738  O4'       30.9520   37.9340   23.3400 O.3    85  A85         0.0000
   1739  C3'       32.8280   37.1410   24.4280 C.3    85  A85         0.0000
   1740  O3'       33.5780   37.1920   25.6090 O.3    85  A85         0.0000
   1741  C2'       31.7950   36.0300   24.4610 C.3    85  A85         0.0000
   1742  O2'       31.1830   35.8780   25.7300 O.3    85  A85         0.0000
   1743  C1'       30.7890   36.5230   23.4170 C.3    85  A85         0.0000
   1744  N1        30.6770   32.1700   20.6480 N.ar   85  A85         0.0000
   1745  C2        30.3900   32.4210   21.9370 C.ar   85  A85         0.0000
   1746  N3        30.4360   33.5810   22.5920 N.ar   85  A85         0.0000
   1747  C4        30.8260   34.5760   21.7760 C.ar   85  A85         0.0000
   1748  C5        31.1550   34.4720   20.4340 C.ar   85  A85         0.0000
   1749  C6        31.0670   33.1930   19.8510 C.ar   85  A85         0.0000
   1750  N6        31.3510   32.9520   18.5640 N.pl3  85  A85         0.0000
   1751  N7        31.5240   35.6960   19.9160 N.ar   85  A85         0.0000
   1752  C8        31.4100   36.5050   20.9440 C.ar   85  A85         0.0000
   1753  N9        30.9900   35.9020   22.0990 N.ar   85  A85         0.0000
   1754  OP1       34.6190   41.4560   22.4440 O.3    85  A85        -0.5000
   1755  OP2       33.9960   40.1230   20.3380 O.co2  85  A85        -0.5000
   1756  P         35.1200   36.7540   25.5580 P.3    86  C86         0.0000
   1757  C5'       34.3970   34.4880   26.6380 C.3    86  C86         0.0000
   1758  O5'       35.0060   35.1590   25.5490 O.3    86  C86         0.0000
   1759  C4'       34.0360   33.0940   26.2010 C.3    86  C86         0.0000
   1760  O4'       33.1210   33.1610   25.0830 O.3    86  C86         0.0000
   1761  C3'       35.1910   32.2920   25.6320 C.3    86  C86         0.0000
   1762  O3'       35.9750   31.7780   26.6680 O.3    86  C86         0.0000
   1763  C2'       34.4240   31.1900   24.9260 C.3    86  C86         0.0000
   1764  O2'       33.8530   30.2630   25.8340 O.3    86  C86         0.0000
   1765  C1'       33.3270   32.0210   24.2630 C.3    86  C86         0.0000
   1766  N1        33.6590   32.4350   22.8610 N.ar   86  C86         0.0000
   1767  C2        33.6270   31.4710   21.8470 C.ar   86  C86         0.0000
   1768  O2        33.3310   30.3090   22.1300 O.2    86  C86         0.0000
   1769  N3        33.9150   31.8290   20.5760 N.ar   86  C86         0.0000
   1770  C4        34.2350   33.0850   20.3040 C.ar   86  C86         0.0000
   1771  N4        34.5100   33.3730   19.0360 N.pl3  86  C86         0.0000
   1772  C5        34.2770   34.0920   21.3130 C.ar   86  C86         0.0000
   1773  C6        33.9860   33.7280   22.5680 C.ar   86  C86         0.0000
   1774  OP1       35.7420   37.1970   26.8250 O.3    86  C86        -0.5000
   1775  OP2       35.7240   37.1650   24.2670 O.co2  86  C86        -0.5000
   1776  P         37.5570   31.7990   26.5130 P.3    87  A87         0.0000
   1777  C5'       37.7660   29.2670   25.9720 C.3    87  A87         0.0000
   1778  O5'       37.8290   30.6000   25.4910 O.3    87  A87         0.0000
   1779  C4'       37.8970   28.2610   24.8460 C.3    87  A87         0.0000
   1780  O4'       36.8520   28.4690   23.8620 O.3    87  A87         0.0000
   1781  C3'       39.1850   28.3460   24.0480 C.3    87  A87         0.0000
   1782  O3'       40.2330   27.6830   24.7320 O.3    87  A87         0.0000
   1783  C2'       38.7790   27.6550   22.7470 C.3    87  A87         0.0000
   1784  O2'       38.7760   26.2460   22.8220 O.3    87  A87         0.0000
   1785  C1'       37.3500   28.1580   22.5720 C.3    87  A87         0.0000
   1786  N1        37.7020   29.9710   17.7660 N.ar   87  A87         0.0000
   1787  C2        37.8660   28.7450   18.2690 C.ar   87  A87         0.0000
   1788  N3        37.7570   28.3470   19.5350 N.ar   87  A87         0.0000
   1789  C4        37.4480   29.3750   20.3470 C.ar   87  A87         0.0000
   1790  C5        37.2510   30.6890   19.9780 C.ar   87  A87         0.0000
   1791  C6        37.3920   30.9820   18.6040 C.ar   87  A87         0.0000
   1792  N6        37.2360   32.2060   18.0950 N.pl3  87  A87         0.0000
   1793  N7        36.9480   31.4690   21.0830 N.ar   87  A87         0.0000
   1794  C8        36.9620   30.6210   22.0830 C.ar   87  A87         0.0000
   1795  N9        37.2540   29.3390   21.7110 N.ar   87  A87         0.0000
   1796  OP1       38.1360   31.4390   27.8250 O.3    87  A87        -0.5000
   1797  OP2       37.9320   33.0830   25.8740 O.co2  87  A87        -0.5000
   1798  P         41.7320   28.2430   24.6460 P.3    88  G88         0.0000
   1799  C5'       42.2770   26.6630   22.6550 C.3    88  G88         0.0000
   1800  O5'       42.1280   28.0060   23.1170 O.3    88  G88         0.0000
   1801  C4'       42.4930   26.6200   21.1600 C.3    88  G88         0.0000
   1802  O4'       41.3760   27.2310   20.4700 O.3    88  G88         0.0000
   1803  C3'       43.6940   27.4150   20.7000 C.3    88  G88         0.0000
   1804  O3'       44.8520   26.6290   20.8740 O.3    88  G88         0.0000
   1805  C2'       43.3570   27.6700   19.2340 C.3    88  G88         0.0000
   1806  O2'       43.7470   26.6260   18.3650 O.3    88  G88         0.0000
   1807  C1'       41.8360   27.8210   19.2690 C.3    88  G88         0.0000
   1808  N1        41.0010   32.0020   16.4800 N.ar   88  G88         0.0000
   1809  C2        41.3590   30.7360   16.0610 C.ar   88  G88         0.0000
   1810  N2        41.5150   30.5600   14.7430 N.pl3  88  G88         0.0000
   1811  N3        41.5510   29.7070   16.8830 N.ar   88  G88         0.0000
   1812  C4        41.3480   30.0560   18.1820 C.ar   88  G88         0.0000
   1813  C5        40.9910   31.2860   18.6980 C.ar   88  G88         0.0000
   1814  C6        40.7860   32.3720   17.8150 C.ar   88  G88         0.0000
   1815  O6        40.4710   33.5350   18.1160 O.2    88  G88         0.0000
   1816  N7        40.8890   31.2410   20.0820 N.ar   88  G88         0.0000
   1817  C8        41.1740   30.0030   20.3730 C.ar   88  G88         0.0000
   1818  N9        41.4550   29.2260   19.2740 N.ar   88  G88         0.0000
   1819  OP1       42.5910   27.3650   25.4780 O.3    88  G88        -0.5000
   1820  OP2       41.7230   29.6990   24.8930 O.co2  88  G88        -0.5000
   1821  P         46.1260   27.1910   21.6640 P.3    89  U89         0.0000
   1822  C5'       47.0270   27.3930   19.2060 C.3    89  U89         0.0000
   1823  O5'       46.9610   27.9390   20.5250 O.3    89  U89         0.0000
   1824  C4'       47.0770   28.5040   18.1780 C.3    89  U89         0.0000
   1825  O4'       45.7810   29.1350   18.0400 O.3    89  U89         0.0000
   1826  C3'       47.9670   29.6600   18.5770 C.3    89  U89         0.0000
   1827  O3'       49.3340   29.3180   18.3760 O.3    89  U89         0.0000
   1828  C2'       47.4550   30.7730   17.6590 C.3    89  U89         0.0000
   1829  O2'       48.0310   30.7560   16.3710 O.3    89  U89         0.0000
   1830  C1'       45.9710   30.4480   17.5350 C.3    89  U89         0.0000
   1831  N1        45.0980   31.4270   18.2470 N.ar   89  U89         0.0000
   1832  C2        44.3300   32.2970   17.4980 C.ar   89  U89         0.0000
   1833  O2        44.3270   32.2910   16.2810 O.2    89  U89         0.0000
   1834  N3        43.5640   33.1820   18.2270 N.ar   89  U89         0.0000
   1835  C4        43.4840   33.2730   19.6090 C.ar   89  U89         0.0000
   1836  O4        42.7440   34.1030   20.1340 O.3    89  U89         0.0000
   1837  C5        44.3180   32.3330   20.3190 C.ar   89  U89         0.0000
   1838  C6        45.0800   31.4690   19.6290 C.ar   89  U89         0.0000
   1839  OP1       46.8830   26.0070   22.1130 O.2    89  U89        -0.5000
   1840  OP2       45.7020   28.2080   22.6490 O.co2  89  U89        -0.5000
   1841  P         50.4820   30.1730   19.0980 P.3    90  A90         0.0000
   1842  C5'       51.7370   32.2940   18.2190 C.3    90  A90         0.0000
   1843  O5'       50.6840   31.3720   18.0600 O.3    90  A90         0.0000
   1844  C4'       51.2140   33.6860   18.5310 C.3    90  A90         0.0000
   1845  O4'       52.1530   34.6490   17.9960 O.3    90  A90         0.0000
   1846  C3'       49.8480   34.0640   17.9590 C.3    90  A90         0.0000
   1847  O3'       49.1700   34.8850   18.8890 O.3    90  A90         0.0000
   1848  C2'       50.2040   34.9040   16.7400 C.3    90  A90         0.0000
   1849  O2'       49.2120   35.8700   16.4580 O.3    90  A90         0.0000
   1850  C1'       51.4440   35.6080   17.2580 C.3    90  A90         0.0000
   1851  N1        54.7820   39.3100   16.1160 N.ar   90  A90         0.0000
   1852  C2        54.0810   39.0420   17.2230 C.ar   90  A90         0.0000
   1853  N3        53.2210   38.0470   17.4430 N.ar   90  A90         0.0000
   1854  C4        53.1100   37.2520   16.3640 C.ar   90  A90         0.0000
   1855  C5        53.7660   37.3910   15.1580 C.ar   90  A90         0.0000
   1856  C6        54.6500   38.4900   15.0480 C.ar   90  A90         0.0000
   1857  N6        55.3650   38.7550   13.9490 N.pl3  90  A90         0.0000
   1858  N7        53.4020   36.3750   14.2830 N.ar   90  A90         0.0000
   1859  C8        52.5430   35.6590   14.9720 C.ar   90  A90         0.0000
   1860  N9        52.3220   36.1400   16.2330 N.ar   90  A90         0.0000
   1861  OP1       51.7220   29.3640   19.1220 O.2    90  A90        -0.5000
   1862  OP2       49.9270   30.7480   20.3510 O.co2  90  A90        -0.5000
   1863  P         47.8250   34.4120   19.5910 P.3    91  G91         0.0000
   1864  C5'       46.1180   35.7740   21.0080 C.3    91  G91         0.0000
   1865  O5'       47.3980   35.7320   20.3820 O.3    91  G91         0.0000
   1866  C4'       45.7200   37.1930   21.3740 C.3    91  G91         0.0000
   1867  O4'       46.9000   37.9990   21.6070 O.3    91  G91         0.0000
   1868  C3'       44.9120   37.9450   20.3290 C.3    91  G91         0.0000
   1869  O3'       43.8820   38.6440   21.0010 O.3    91  G91         0.0000
   1870  C2'       45.9250   38.8980   19.6860 C.3    91  G91         0.0000
   1871  O2'       45.2980   40.0720   19.2020 O.3    91  G91         0.0000
   1872  C1'       46.8340   39.2040   20.8730 C.3    91  G91         0.0000
   1873  N1        50.4800   42.8270   20.9040 N.ar   91  G91         0.0000
   1874  C2        49.1580   42.9290   21.2460 C.ar   91  G91         0.0000
   1875  N2        48.7620   44.1370   21.6600 N.pl3  91  G91         0.0000
   1876  N3        48.2860   41.9270   21.1940 N.ar   91  G91         0.0000
   1877  C4        48.8530   40.7740   20.7630 C.ar   91  G91         0.0000
   1878  C5        50.1690   40.5690   20.4000 C.ar   91  G91         0.0000
   1879  C6        51.0850   41.6550   20.4550 C.ar   91  G91         0.0000
   1880  O6        52.2940   41.6570   20.1560 O.2    91  G91         0.0000
   1881  N7        50.3760   39.2490   20.0190 N.ar   91  G91         0.0000
   1882  C8        49.2030   38.6930   20.1530 C.ar   91  G91         0.0000
   1883  N9        48.2230   39.5560   20.5870 N.ar   91  G91         0.0000
   1884  OP1       48.1500   33.3230   20.5430 O.3    91  G91        -0.5000
   1885  OP2       46.8190   34.1750   18.5450 O.co2  91  G91        -0.5000
   1886  P         42.3700   38.2250   20.7670 P.3    92  A92         0.0000
   1887  C5'       41.8530   39.9360   18.8620 C.3    92  A92         0.0000
   1888  O5'       42.1760   38.6120   19.2400 O.3    92  A92         0.0000
   1889  C4'       40.9190   39.8800   17.6660 C.3    92  A92         0.0000
   1890  O4'       41.5010   39.0160   16.6590 O.3    92  A92         0.0000
   1891  C3'       39.5320   39.3070   17.9450 C.3    92  A92         0.0000
   1892  O3'       38.5530   40.0290   17.2100 O.3    92  A92         0.0000
   1893  C2'       39.6450   37.8550   17.4770 C.3    92  A92         0.0000
   1894  O2'       38.4200   37.3330   17.0130 O.3    92  A92         0.0000
   1895  C1'       40.5910   37.9970   16.2990 C.3    92  A92         0.0000
   1896  N1        42.2140   34.8900   12.5200 N.ar   92  A92         0.0000
   1897  C2        41.4850   36.0180   12.4980 C.ar   92  A92         0.0000
   1898  N3        41.0900   36.7760   13.5250 N.ar   92  A92         0.0000
   1899  C4        41.5370   36.2750   14.6960 C.ar   92  A92         0.0000
   1900  C5        42.3020   35.1330   14.8730 C.ar   92  A92         0.0000
   1901  C6        42.6490   34.4180   13.7110 C.ar   92  A92         0.0000
   1902  N6        43.3800   33.3060   13.7330 N.pl3  92  A92         0.0000
   1903  N7        42.5800   34.9250   16.2120 N.ar   92  A92         0.0000
   1904  C8        41.9860   35.9330   16.8090 C.ar   92  A92         0.0000
   1905  N9        41.3370   36.7860   15.9590 N.ar   92  A92         0.0000
   1906  OP1       41.5120   39.1030   21.5890 O.2    92  A92         0.0000
   1907  OP2       42.2820   36.7520   20.8970 O.co2  92  A92        -1.0000
   1908  P         38.1990   41.5470   17.5870 P.3    93  G93         0.0000
   1909  C5'       35.7380   40.8230   17.7560 C.3    93  G93         0.0000
   1910  O5'       36.6760   41.6690   17.1260 O.3    93  G93         0.0000
   1911  C4'       34.5810   40.5210   16.8370 C.3    93  G93         0.0000
   1912  O4'       33.8090   41.7240   16.6420 O.3    93  G93         0.0000
   1913  C3'       34.9940   40.0510   15.4560 C.3    93  G93         0.0000
   1914  O3'       34.9510   38.6390   15.4560 O.3    93  G93         0.0000
   1915  C2'       33.8980   40.6210   14.5750 C.3    93  G93         0.0000
   1916  O2'       32.7390   39.8210   14.6230 O.3    93  G93         0.0000
   1917  C1'       33.5860   41.9340   15.2670 C.3    93  G93         0.0000
   1918  N1        34.8300   44.9710   11.3680 N.ar   93  G93         0.0000
   1919  C2        34.0530   43.8350   11.3700 C.ar   93  G93         0.0000
   1920  N2        33.5320   43.4600   10.1970 N.pl3  93  G93         0.0000
   1921  N3        33.7990   43.1180   12.4550 N.ar   93  G93         0.0000
   1922  C4        34.3970   43.6320   13.5590 C.ar   93  G93         0.0000
   1923  C5        35.1970   44.7510   13.6570 C.ar   93  G93         0.0000
   1924  C6        35.4460   45.5140   12.4970 C.ar   93  G93         0.0000
   1925  O6        36.1270   46.5380   12.3990 O.2    93  G93         0.0000
   1926  N7        35.6210   44.9510   14.9610 N.ar   93  G93         0.0000
   1927  C8        35.0880   43.9560   15.6130 C.ar   93  G93         0.0000
   1928  N9        34.3380   43.1100   14.8290 N.ar   93  G93         0.0000
   1929  OP1       39.0280   42.4470   16.7560 O.2    93  G93        -0.5000
   1930  OP2       38.2360   41.6790   19.0640 O.co2  93  G93        -0.5000
   1931  P         35.9890   37.7910   14.6000 P.3    94  U94         0.0000
   1932  C5'       34.7750   37.2780   12.3400 C.3    94  U94         0.0000
   1933  O5'       35.5810   38.1550   13.1020 O.3    94  U94         0.0000
   1934  C4'       34.7310   37.7570   10.9030 C.3    94  U94         0.0000
   1935  O4'       34.7270   39.2050   10.8790 O.3    94  U94         0.0000
   1936  C3'       35.9030   37.2990   10.0410 C.3    94  U94         0.0000
   1937  O3'       35.4330   36.7130    8.8290 O.3    94  U94         0.0000
   1938  C2'       36.7000   38.5670    9.7640 C.3    94  U94         0.0000
   1939  O2'       37.1960   38.5840    8.4430 O.3    94  U94         0.0000
   1940  C1'       35.6680   39.6710    9.9390 C.3    94  U94         0.0000
   1941  N1        36.2540   40.9200   10.4640 N.ar   94  U94         0.0000
   1942  C2        36.5050   41.9700    9.6000 C.ar   94  U94         0.0000
   1943  O2        36.2760   41.9260    8.4020 O.2    94  U94         0.0000
   1944  N3        37.0540   43.0840   10.1950 N.ar   94  U94         0.0000
   1945  C4        37.3660   43.2380   11.5360 C.ar   94  U94         0.0000
   1946  O4        37.8520   44.2890   11.9270 O.2    94  U94         0.0000
   1947  C5        37.0680   42.1050   12.3720 C.ar   94  U94         0.0000
   1948  C6        36.5370   41.0110   11.8150 C.ar   94  U94         0.0000
   1949  OP1       35.7060   36.3600   14.8570 O.3    94  U94        -0.5000
   1950  OP2       37.3420   38.3420   14.8320 O.co2  94  U94        -0.5000
   1951  P         34.9980   35.1720    8.7920 P.3    95  C95         0.0000
   1952  C5'       37.3710   34.4370    7.9010 C.3    95  C95         0.0000
   1953  O5'       36.3820   34.3820    8.9120 O.3    95  C95         0.0000
   1954  C4'       38.4720   33.4450    8.2330 C.3    95  C95         0.0000
   1955  O4'       39.3520   34.0030    9.2420 O.3    95  C95         0.0000
   1956  C3'       38.0010   32.1350    8.8450 C.3    95  C95         0.0000
   1957  O3'       37.6070   31.2250    7.8480 O.3    95  C95         0.0000
   1958  C2'       39.2470   31.6470    9.5610 C.3    95  C95         0.0000
   1959  O2'       40.1260   30.9690    8.6950 O.3    95  C95         0.0000
   1960  C1'       39.8680   32.9520   10.0440 C.3    95  C95         0.0000
   1961  N1        39.5690   33.2300   11.4770 N.ar   95  C95         0.0000
   1962  C2        40.2190   32.5060   12.4840 C.ar   95  C95         0.0000
   1963  O2        41.0390   31.6370   12.1760 O.2    95  C95         0.0000
   1964  N3        39.9360   32.7800   13.7820 N.ar   95  C95         0.0000
   1965  C4        39.0490   33.7290   14.0840 C.ar   95  C95         0.0000
   1966  N4        38.7890   33.9690   15.3720 N.pl3  95  C95         0.0000
   1967  C5        38.3750   34.4710   13.0750 C.ar   95  C95         0.0000
   1968  C6        38.6620   34.1900   11.7990 C.ar   95  C95         0.0000
   1969  OP1       34.3780   34.8930    7.4750 O.2    95  C95        -0.5000
   1970  OP2       34.2170   34.8970   10.0180 O.co2  95  C95        -0.5000
   1971  P         36.5230   30.1080    8.1970 P.3    96  U96         0.0000
   1972  C5'       37.9790   28.0630    8.9320 C.3    96  U96         0.0000
   1973  O5'       37.2540   29.2190    9.3040 O.3    96  U96         0.0000
   1974  C4'       38.5020   27.3700   10.1720 C.3    96  U96         0.0000
   1975  O4'       39.2210   28.3300   10.9900 O.3    96  U96         0.0000
   1976  C3'       37.4320   26.8430   11.1120 C.3    96  U96         0.0000
   1977  O3'       36.9090   25.6080   10.6670 O.3    96  U96         0.0000
   1978  C2'       38.2320   26.7110   12.4020 C.3    96  U96         0.0000
   1979  O2'       39.0820   25.5850   12.4440 O.3    96  U96         0.0000
   1980  C1'       39.0480   28.0020   12.3600 C.3    96  U96         0.0000
   1981  N1        38.3410   29.1190   13.0930 N.ar   96  U96         0.0000
   1982  C2        38.2700   29.0640   14.4790 C.ar   96  U96         0.0000
   1983  O2        38.7680   28.1690   15.1480 O.2    96  U96         0.0000
   1984  N3        37.5930   30.1050   15.0650 N.ar   96  U96         0.0000
   1985  C4        36.9970   31.1680   14.4240 C.ar   96  U96         0.0000
   1986  O4        36.4350   32.0200   15.0940 O.2    96  U96         0.0000
   1987  C5        37.1000   31.1590   12.9870 C.ar   96  U96         0.0000
   1988  C6        37.7500   30.1560   12.3880 C.ar   96  U96         0.0000
   1989  OP1       36.3340   29.3150    6.9660 O.2    96  U96        -0.5000
   1990  OP2       35.3550   30.7540    8.8410 O.co2  96  U96        -0.5000
   1991  P         35.3420   25.3070   10.8120 P.3    97  G97         0.0000
   1992  C5'       36.0940   24.0200   12.9670 C.3    97  G97         0.0000
   1993  O5'       35.1900   24.9340   12.3560 O.3    97  G97         0.0000
   1994  C4'       35.8550   23.9860   14.4600 C.3    97  G97         0.0000
   1995  O4'       36.4530   25.1440   15.0920 O.3    97  G97         0.0000
   1996  C3'       34.3970   24.0930   14.8500 C.3    97  G97         0.0000
   1997  O3'       33.7730   22.8320   14.6780 O.3    97  G97         0.0000
   1998  C2'       34.5320   24.5190   16.3060 C.3    97  G97         0.0000
   1999  O2'       34.9480   23.4550   17.1370 O.3    97  G97         0.0000
   2000  C1'       35.6620   25.5380   16.2050 C.3    97  G97         0.0000
   2001  N1        34.1440   29.8990   18.4770 N.ar   97  G97         0.0000
   2002  C2        34.4550   28.6820   19.0460 C.ar   97  G97         0.0000
   2003  N2        34.3630   28.6070   20.3810 N.pl3  97  G97         0.0000
   2004  N3        34.8360   27.6090   18.3570 N.ar   97  G97         0.0000
   2005  C4        34.8850   27.8450   17.0200 C.ar   97  G97         0.0000
   2006  C5        34.5950   29.0260   16.3600 C.ar   97  G97         0.0000
   2007  C6        34.1860   30.1670   17.1060 C.ar   97  G97         0.0000
   2008  O6        33.8760   31.2950   16.6830 O.2    97  G97         0.0000
   2009  N7        34.7630   28.8720   14.9900 N.ar   97  G97         0.0000
   2010  C8        35.1450   27.6310   14.8510 C.ar   97  G97         0.0000
   2011  N9        35.2410   26.9370   16.0360 N.ar   97  G97         0.0000
   2012  OP1       35.0390   24.1080    9.9980 O.2    97  G97        -0.5000
   2013  OP2       34.5860   26.5600   10.5830 O.co2  97  G97        -0.5000
   2014  P         32.2330   22.7490   14.2540 P.3    98  G98         0.0000
   2015  C5'       31.8760   22.0320   16.7410 C.3    98  G98         0.0000
   2016  O5'       31.5090   22.9060   15.6710 O.3    98  G98         0.0000
   2017  C4'       31.2170   22.4230   18.0520 C.3    98  G98         0.0000
   2018  O4'       31.8310   23.6200   18.5860 O.3    98  G98         0.0000
   2019  C3'       29.7320   22.7340   17.9560 C.3    98  G98         0.0000
   2020  O3'       28.9930   21.5370   18.1460 O.3    98  G98         0.0000
   2021  C2'       29.5130   23.7260   19.0970 C.3    98  G98         0.0000
   2022  O2'       29.2380   23.0960   20.3340 O.3    98  G98         0.0000
   2023  C1'       30.8460   24.4660   19.1540 C.3    98  G98         0.0000
   2024  N1        30.9210   29.5710   19.4860 N.ar   98  G98         0.0000
   2025  C2        30.8780   28.6320   20.4950 C.ar   98  G98         0.0000
   2026  N2        30.8570   29.1120   21.7450 N.pl3  98  G98         0.0000
   2027  N3        30.8550   27.3180   20.2900 N.ar   98  G98         0.0000
   2028  C4        30.8820   27.0080   18.9690 C.ar   98  G98         0.0000
   2029  C5        30.9260   27.8720   17.8910 C.ar   98  G98         0.0000
   2030  C6        30.9470   29.2750   18.1210 C.ar   98  G98         0.0000
   2031  O6        30.9840   30.1970   17.2850 O.2    98  G98         0.0000
   2032  N7        30.9410   27.1640   16.6970 N.ar   98  G98         0.0000
   2033  C8        30.9100   25.9130   17.0660 C.ar   98  G98         0.0000
   2034  N9        30.8680   25.7390   18.4300 N.ar   98  G98         0.0000
   2035  OP1       31.9630   21.3930   13.7340 O.3    98  G98        -0.5000
   2036  OP2       31.9140   23.9190   13.4080 O.co2  98  G98        -0.5000
   2037  P         27.5760   21.3200   17.4370 P.3    99  A99         0.0000
   2038  C5'       26.7090   21.7860   15.0040 C.3    99  A99         0.0000
   2039  O5'       27.7910   21.8310   15.9360 O.3    99  A99         0.0000
   2040  C4'       26.7950   22.9140   13.9890 C.3    99  A99         0.0000
   2041  O4'       26.3330   24.1510   14.5860 O.3    99  A99         0.0000
   2042  C3'       28.1970   23.2080   13.4660 C.3    99  A99         0.0000
   2043  O3'       28.1540   23.7420   12.1440 O.3    99  A99         0.0000
   2044  C2'       28.6850   24.2620   14.4500 C.3    99  A99         0.0000
   2045  O2'       29.7050   25.0530   13.8830 O.3    99  A99         0.0000
   2046  C1'       27.4050   25.0700   14.6870 C.3    99  A99         0.0000
   2047  N1        27.6210   29.5190   17.3210 N.ar   99  A99         0.0000
   2048  C2        27.7250   29.2520   16.0120 C.ar   99  A99         0.0000
   2049  N3        27.6570   28.0730   15.3900 N.ar   99  A99         0.0000
   2050  C4        27.4610   27.0740   16.2670 C.ar   99  A99         0.0000
   2051  C5        27.3370   27.1940   17.6420 C.ar   99  A99         0.0000
   2052  C6        27.4260   28.4930   18.1790 C.ar   99  A99         0.0000
   2053  N6        27.3180   28.7520   19.4860 N.pl3  99  A99         0.0000
   2054  N7        27.1390   25.9600   18.2300 N.ar   99  A99         0.0000
   2055  C8        27.1480   25.1300   17.2120 C.ar   99  A99         0.0000
   2056  N9        27.3410   25.7270   15.9970 N.ar   99  A99         0.0000
   2057  OP1       26.5950   22.1980   18.1160 O.3    99  A99        -0.5000
   2058  OP2       27.3480   19.8600   17.3800 O.co2  99  A99        -0.5000
   2059  P         27.6770   22.8660   10.8910 P.3   100  U100        0.0000
   2060  C5'       25.3350   23.2960    9.7160 C.3   100  U100        0.0000
   2061  O5'       26.0880   23.0850   10.9170 O.3   100  U100        0.0000
   2062  C4'       24.0950   22.4100    9.6630 C.3   100  U100        0.0000
   2063  O4'       24.3450   21.2540    8.8150 O.3   100  U100        0.0000
   2064  C3'       23.6200   21.8500   11.0010 C.3   100  U100        0.0000
   2065  O3'       22.1870   21.8240   11.0540 O.3   100  U100        0.0000
   2066  C2'       24.2460   20.4530   11.0250 C.3   100  U100        0.0000
   2067  O2'       23.5330   19.5330   11.8270 O.3   100  U100        0.0000
   2068  C1'       24.1960   20.0540    9.5510 C.3   100  U100        0.0000
   2069  N1        25.2760   19.0960    9.1320 N.ar  100  U100        0.0000
   2070  C2        24.9450   17.9180    8.4780 C.ar  100  U100        0.0000
   2071  O2        23.8040   17.5960    8.2090 O.2   100  U100        0.0000
   2072  N3        26.0120   17.1150    8.1440 N.ar  100  U100        0.0000
   2073  C4        27.3560   17.3660    8.3910 C.ar  100  U100        0.0000
   2074  O4        28.2110   16.5560    8.0340 O.2   100  U100        0.0000
   2075  C5        27.6250   18.6100    9.0750 C.ar  100  U100        0.0000
   2076  C6        26.5980   19.4060    9.4080 C.ar  100  U100        0.0000
   2077  OP1       28.0000   21.4470   11.1720 O.3   100  U100       -0.5000
   2078  OP2       28.2190   23.5140    9.6720 O.co2 100  U100       -0.5000
   2079  P         21.3760   22.9710   11.8300 P.3   101  G101        0.0000
   2080  C5'       21.7070   21.8070   14.1580 C.3   101  G101        0.0000
   2081  O5'       21.9850   22.9030   13.3020 O.3   101  G101        0.0000
   2082  C4'       22.0900   22.1800   15.5740 C.3   101  G101        0.0000
   2083  O4'       23.3590   22.8880   15.5620 O.3   101  G101        0.0000
   2084  C3'       21.1300   23.1450   16.2450 C.3   101  G101        0.0000
   2085  O3'       20.0440   22.4340   16.8210 O.3   101  G101        0.0000
   2086  C2'       22.0250   23.7660   17.3100 C.3   101  G101        0.0000
   2087  O2'       22.1050   22.9750   18.4790 O.3   101  G101        0.0000
   2088  C1'       23.3840   23.8470   16.6070 C.3   101  G101        0.0000
   2089  N1        24.3130   28.7610   17.7080 N.ar  101  G101        0.0000
   2090  C2        24.0940   27.7010   18.5650 C.ar  101  G101        0.0000
   2091  N2        24.1180   27.9700   19.8800 N.pl3 101  G101        0.0000
   2092  N3        23.8670   26.4580   18.1520 N.ar  101  G101        0.0000
   2093  C4        23.8720   26.3440   16.7930 C.ar  101  G101        0.0000
   2094  C5        24.0780   27.3400   15.8570 C.ar  101  G101        0.0000
   2095  C6        24.3240   28.6650   16.3110 C.ar  101  G101        0.0000
   2096  O6        24.5280   29.6780   15.6330 O.2   101  G101        0.0000
   2097  N7        24.0020   26.8260   14.5660 N.ar  101  G101        0.0000
   2098  C8        23.7540   25.5560   14.7400 C.ar  101  G101        0.0000
   2099  N9        23.6660   25.1840   16.0650 N.ar  101  G101        0.0000
   2100  OP1       19.9490   22.5860   11.8860 O.3   101  G101       -0.5000
   2101  OP2       21.7520   24.2800   11.2520 O.co2 101  G101       -0.5000
   2102  P         18.5960   23.1070   16.9410 P.3   102  A102        0.0000
   2103  C5'       18.9230   24.2000   19.3250 C.3   102  A102        0.0000
   2104  O5'       18.8580   24.3630   17.9050 O.3   102  A102        0.0000
   2105  C4'       19.3280   25.4870   20.0250 C.3   102  A102        0.0000
   2106  O4'       20.6030   25.9510   19.5060 O.3   102  A102        0.0000
   2107  C3'       18.4030   26.6840   19.8320 C.3   102  A102        0.0000
   2108  O3'       17.3000   26.6520   20.7230 O.3   102  A102        0.0000
   2109  C2'       19.3460   27.8460   20.1340 C.3   102  A102        0.0000
   2110  O2'       19.6090   28.0020   21.5170 O.3   102  A102        0.0000
   2111  C1'       20.6050   27.3710   19.4180 C.3   102  A102        0.0000
   2112  N1        21.7400   31.1810   16.0980 N.ar  102  A102        0.0000
   2113  C2        21.7680   31.1260   17.4360 C.ar  102  A102        0.0000
   2114  N3        21.4560   30.1020   18.2360 N.ar  102  A102        0.0000
   2115  C4        21.0750   29.0210   17.5280 C.ar  102  A102        0.0000
   2116  C5        20.9990   28.9270   16.1500 C.ar  102  A102        0.0000
   2117  C6        21.3550   30.0790   15.4150 C.ar  102  A102        0.0000
   2118  N6        21.3310   30.1260   14.0830 N.pl3 102  A102        0.0000
   2119  N7        20.5750   27.6680   15.7630 N.ar  102  A102        0.0000
   2120  C8        20.4070   27.0360   16.9000 C.ar  102  A102        0.0000
   2121  N9        20.6890   27.7880   18.0100 N.ar  102  A102        0.0000
   2122  OP1       17.7010   22.1480   17.6280 O.3   102  A102       -0.5000
   2123  OP2       18.2180   23.6160   15.6030 O.co2 102  A102       -0.5000
   2124  P         15.8740   27.1850   20.2340 P.3   103  G103        0.0000
   2125  C5'       15.8730   29.7180   20.8910 C.3   103  G103        0.0000
   2126  O5'       16.1280   28.7290   19.9070 O.3   103  G103        0.0000
   2127  C4'       16.3790   31.0650   20.4240 C.3   103  G103        0.0000
   2128  O4'       17.6170   30.8800   19.6970 O.3   103  G103        0.0000
   2129  C3'       15.4700   31.7960   19.4510 C.3   103  G103        0.0000
   2130  O3'       14.5650   32.5990   20.1620 O.3   103  G103        0.0000
   2131  C2'       16.4630   32.6870   18.7170 C.3   103  G103        0.0000
   2132  O2'       16.7990   33.8440   19.4570 O.3   103  G103        0.0000
   2133  C1'       17.6670   31.7640   18.5940 C.3   103  G103        0.0000
   2134  N1        18.7630   31.8380   13.6430 N.ar  103  G103        0.0000
   2135  C2        18.9580   32.8100   14.6000 C.ar  103  G103        0.0000
   2136  N2        19.5160   33.9560   14.1830 N.pl3 103  G103        0.0000
   2137  N3        18.6280   32.6670   15.8770 N.ar  103  G103        0.0000
   2138  C4        18.0790   31.4510   16.1240 C.ar  103  G103        0.0000
   2139  C5        17.8410   30.4140   15.2430 C.ar  103  G103        0.0000
   2140  C6        18.2000   30.5820   13.8820 C.ar  103  G103        0.0000
   2141  O6        18.0750   29.7740   12.9510 O.2   103  G103        0.0000
   2142  N7        17.2570   29.3310   15.8960 N.ar  103  G103        0.0000
   2143  C8        17.1550   29.7280   17.1340 C.ar  103  G103        0.0000
   2144  N9        17.6400   31.0030   17.3460 N.ar  103  G103        0.0000
   2145  OP1       14.9420   27.0860   21.3800 O.3   103  G103       -0.5000
   2146  OP2       15.5520   26.5090   18.9580 O.co2 103  G103       -0.5000
   2147  P         13.0720   32.1170   20.4700 P.3   104  A104        0.0000
   2148  C5'       13.0010   34.2540   21.9520 C.3   104  A104        0.0000
   2149  O5'       12.3830   33.4840   20.9270 O.3   104  A104        0.0000
   2150  C4'       13.4410   35.6050   21.4310 C.3   104  A104        0.0000
   2151  O4'       14.6170   35.4850   20.5940 O.3   104  A104        0.0000
   2152  C3'       12.4570   36.3230   20.5310 C.3   104  A104        0.0000
   2153  O3'       11.4000   36.8350   21.3130 O.3   104  A104        0.0000
   2154  C2'       13.3790   37.4110   19.9890 C.3   104  A104        0.0000
   2155  O2'       13.6160   38.4520   20.9220 O.3   104  A104        0.0000
   2156  C1'       14.6710   36.6190   19.7480 C.3   104  A104        0.0000
   2157  N1        17.7230   36.5060   15.5940 N.ar  104  A104        0.0000
   2158  C2        17.8810   37.0650   16.8000 C.ar  104  A104        0.0000
   2159  N3        17.0480   37.0600   17.8380 N.ar  104  A104        0.0000
   2160  C4        15.9280   36.3790   17.5500 C.ar  104  A104        0.0000
   2161  C5        15.6260   35.7490   16.3540 C.ar  104  A104        0.0000
   2162  C6        16.5900   35.8290   15.3290 C.ar  104  A104        0.0000
   2163  N6        16.4430   35.2710   14.1260 N.pl3 104  A104        0.0000
   2164  N7        14.3830   35.1440   16.4170 N.ar  104  A104        0.0000
   2165  C8        13.9680   35.4170   17.6310 C.ar  104  A104        0.0000
   2166  N9        14.8480   36.1590   18.3720 N.ar  104  A104        0.0000
   2167  OP1       13.1460   31.2050   21.6340 O.3   104  A104       -0.5000
   2168  OP2       12.4140   31.6860   19.2120 O.co2 104  A104       -0.5000
   2169  P          9.9610   37.1560   20.6890 P.3   105  G105        0.0000
   2170  C5'        8.9140   36.4990   18.3920 C.3   105  G105        0.0000
   2171  O5'        9.8050   36.1620   19.4450 O.3   105  G105        0.0000
   2172  C4'        9.6810   37.1270   17.2460 C.3   105  G105        0.0000
   2173  O4'       10.9620   36.4740   17.0690 O.3   105  G105        0.0000
   2174  C3'        8.9710   37.0190   15.9170 C.3   105  G105        0.0000
   2175  O3'        8.3470   38.2400   15.6890 O.3   105  G105        0.0000
   2176  C2'       10.0810   36.7670   14.9080 C.3   105  G105        0.0000
   2177  O2'       10.6860   37.9520   14.4310 O.3   105  G105        0.0000
   2178  C1'       11.0780   35.9950   15.7470 C.3   105  G105        0.0000
   2179  N1        11.3020   31.7140   13.0270 N.ar  105  G105        0.0000
   2180  C2        11.5790   33.0070   12.6430 C.ar  105  G105        0.0000
   2181  N2        11.9750   33.1870   11.3770 N.pl3 105  G105        0.0000
   2182  N3        11.4780   34.0560   13.4470 N.ar  105  G105        0.0000
   2183  C4        11.0680   33.7010   14.6900 C.ar  105  G105        0.0000
   2184  C5        10.7630   32.4470   15.1670 C.ar  105  G105        0.0000
   2185  C6        10.8770   31.3380   14.3020 C.ar  105  G105        0.0000
   2186  O6        10.6530   30.1500   14.5630 O.2   105  G105        0.0000
   2187  N7        10.3840   32.4990   16.4980 N.ar  105  G105        0.0000
   2188  C8        10.4650   33.7640   16.7950 C.ar  105  G105        0.0000
   2189  N9        10.8700   34.5530   15.7460 N.ar  105  G105        0.0000
   2190  OP1       10.0030   38.5500   20.1960 O.2   105  G105       -0.5000
   2191  OP2        8.9410   36.7440   21.6800 O.co2 105  G105       -0.5000
   2192  P          6.9260   38.2420   14.9810 P.3   106  A106        0.0000
   2193  C5'        8.0580   38.7560   12.6860 C.3   106  A106        0.0000
   2194  O5'        7.3250   37.8470   13.4880 O.3   106  A106        0.0000
   2195  C4'        8.3810   38.1020   11.3660 C.3   106  A106        0.0000
   2196  O4'        9.3230   37.0230   11.5720 O.3   106  A106        0.0000
   2197  C3'        7.2010   37.4050   10.7250 C.3   106  A106        0.0000
   2198  O3'        6.3640   38.3470   10.0980 O.3   106  A106        0.0000
   2199  C2'        7.9130   36.4790    9.7500 C.3   106  A106        0.0000
   2200  O2'        8.4130   37.1430    8.6090 O.3   106  A106        0.0000
   2201  C1'        9.0590   35.9980   10.6310 C.3   106  A106        0.0000
   2202  N1         8.4470   30.9070   10.3600 N.ar  106  A106        0.0000
   2203  C2         8.8190   31.8150    9.4420 C.ar  106  A106        0.0000
   2204  N3         8.9620   33.1330    9.5800 N.ar  106  A106        0.0000
   2205  C4         8.6680   33.5130   10.8380 C.ar  106  A106        0.0000
   2206  C5         8.2670   32.7020   11.8880 C.ar  106  A106        0.0000
   2207  C6         8.1570   31.3220   11.6150 C.ar  106  A106        0.0000
   2208  N6         7.7840   30.4210   12.5300 N.pl3 106  A106        0.0000
   2209  N7         8.0520   33.4470   13.0350 N.ar  106  A106        0.0000
   2210  C8         8.3220   34.6760   12.6620 C.ar  106  A106        0.0000
   2211  N9         8.7040   34.7860   11.3530 N.ar  106  A106        0.0000
   2212  OP1        6.4030   39.6260   14.9930 O.2   106  A106       -0.5000
   2213  OP2        6.1210   37.1390   15.5630 O.co2 106  A106       -0.5000
   2214  P          4.9180   37.8980    9.5910 P.3   107  A107        0.0000
   2215  C5'        4.3000   36.5590    7.4280 C.3   107  A107        0.0000
   2216  O5'        5.3070   37.1350    8.2390 O.3   107  A107        0.0000
   2217  C4'        4.8900   35.5240    6.4920 C.3   107  A107        0.0000
   2218  O4'        6.0800   34.9230    7.0740 O.3   107  A107        0.0000
   2219  C3'        3.9780   34.3340    6.2510 C.3   107  A107        0.0000
   2220  O3'        2.9790   34.6260    5.2880 O.3   107  A107        0.0000
   2221  C2'        4.9870   33.2740    5.8250 C.3   107  A107        0.0000
   2222  O2'        5.5570   33.5120    4.5540 O.3   107  A107        0.0000
   2223  C1'        6.0220   33.5110    6.9180 C.3   107  A107        0.0000
   2224  N1         5.3100   29.0830    9.5220 N.ar  107  A107        0.0000
   2225  C2         5.6950   29.3210    8.2590 C.ar  107  A107        0.0000
   2226  N3         5.8610   30.4940    7.6430 N.ar  107  A107        0.0000
   2227  C4         5.5840   31.5240    8.4690 C.ar  107  A107        0.0000
   2228  C5         5.1790   31.4320    9.7920 C.ar  107  A107        0.0000
   2229  C6         5.0410   30.1350   10.3280 C.ar  107  A107        0.0000
   2230  N6         4.6550   29.9060   11.5860 N.pl3 107  A107        0.0000
   2231  N7         4.9840   32.6880   10.3380 N.ar  107  A107        0.0000
   2232  C8         5.2730   33.5050    9.3520 C.ar  107  A107        0.0000
   2233  N9         5.6510   32.8780    8.1920 N.ar  107  A107        0.0000
   2234  OP1        4.1580   39.1220    9.2550 O.2   107  A107       -0.5000
   2235  OP2        4.3380   36.9180   10.5430 O.co2 107  A107       -0.5000
   2236  P          1.4440   34.5360    5.7350 P.3   108  G108        0.0000
   2237  C5'        1.4340   32.6050    3.9610 C.3   108  G108        0.0000
   2238  O5'        1.0000   33.0810    5.2320 O.3   108  G108        0.0000
   2239  C4'        1.8440   31.1430    4.0110 C.3   108  G108        0.0000
   2240  O4'        2.8650   30.9070    5.0180 O.3   108  G108        0.0000
   2241  C3'        0.7380   30.1770    4.3950 C.3   108  G108        0.0000
   2242  O3'       -0.1150   29.9420    3.2920 O.3   108  G108        0.0000
   2243  C2'        1.5620   28.9490    4.7590 C.3   108  G108        0.0000
   2244  O2'        2.0530   28.2620    3.6240 O.3   108  G108        0.0000
   2245  C1'        2.7090   29.5930    5.5430 C.3   108  G108        0.0000
   2246  N1         2.0620   26.9190    9.8690 N.ar  108  G108        0.0000
   2247  C2         2.3200   26.4660    8.5940 C.ar  108  G108        0.0000
   2248  N2         2.4160   25.1380    8.4380 N.pl3 108  G108        0.0000
   2249  N3         2.4700   27.2620    7.5400 N.ar  108  G108        0.0000
   2250  C4         2.3420   28.5780    7.8610 C.ar  108  G108        0.0000
   2251  C5         2.0830   29.1260    9.1020 C.ar  108  G108        0.0000
   2252  C6         1.9280   28.2640   10.2190 C.ar  108  G108        0.0000
   2253  O6         1.6940   28.5690   11.3950 O.2   108  G108        0.0000
   2254  N7         2.0270   30.5130    9.0230 N.ar  108  G108        0.0000
   2255  C8         2.2450   30.7720    7.7620 C.ar  108  G108        0.0000
   2256  N9         2.4500   29.6490    6.9900 N.ar  108  G108        0.0000
   2257  OP1        0.6990   35.5660    4.9810 O.2   108  G108       -0.5000
   2258  OP2        1.3900   34.5300    7.2140 O.co2 108  G108       -0.5000
   2259  P         -1.6650   29.6290    3.5400 P.3   109  A109        0.0000
   2260  C5'       -1.3050   27.0330    3.2150 C.3   109  A109        0.0000
   2261  O5'       -1.6400   28.1220    4.0830 O.3   109  A109        0.0000
   2262  C4'       -1.2450   25.7190    3.9770 C.3   109  A109        0.0000
   2263  O4'       -0.2540   25.8190    5.0310 O.3   109  A109        0.0000
   2264  C3'       -2.5300   25.3240    4.6910 C.3   109  A109        0.0000
   2265  O3'       -3.3810   24.5890    3.8310 O.3   109  A109        0.0000
   2266  C2'       -2.0250   24.4660    5.8450 C.3   109  A109        0.0000
   2267  O2'       -1.7930   23.1200    5.4700 O.3   109  A109        0.0000
   2268  C1'       -0.7170   25.1660    6.2030 C.3   109  A109        0.0000
   2269  N1        -1.1180   25.9120   11.3170 N.ar  109  A109        0.0000
   2270  C2        -1.0280   24.7950   10.5780 C.ar  109  A109        0.0000
   2271  N3        -0.9290   24.6710    9.2520 N.ar  109  A109        0.0000
   2272  C4        -0.9250   25.8760    8.6480 C.ar  109  A109        0.0000
   2273  C5        -1.0150   27.1130    9.2720 C.ar  109  A109        0.0000
   2274  C6        -1.1140   27.1090   10.6860 C.ar  109  A109        0.0000
   2275  N6        -1.2070   28.2210   11.4230 N.pl3 109  A109        0.0000
   2276  N7        -0.9790   28.1370    8.3350 N.ar  109  A109        0.0000
   2277  C8        -0.8740   27.5100    7.1850 C.ar  109  A109        0.0000
   2278  N9        -0.8370   26.1430    7.2940 N.ar  109  A109        0.0000
   2279  OP1       -2.3500   29.6580    2.2270 O.2   109  A109       -0.5000
   2280  OP2       -2.1440   30.5020    4.6380 O.co2 109  A109       -0.5000
   2281  P         -4.9600   24.6910    4.0450 P.3   110  U110        0.0000
   2282  C5'       -5.1570   22.4070    5.2980 C.3   110  U110        0.0000
   2283  O5'       -5.2130   23.8250    5.3640 O.3   110  U110        0.0000
   2284  C4'       -5.2050   21.8060    6.6880 C.3   110  U110        0.0000
   2285  O4'       -4.1010   22.2990    7.4900 O.3   110  U110        0.0000
   2286  C3'       -6.4070   22.2040    7.5210 C.3   110  U110        0.0000
   2287  O3'       -7.5690   21.5170    7.1200 O.3   110  U110        0.0000
   2288  C2'       -5.9210   21.7970    8.9040 C.3   110  U110        0.0000
   2289  O2'       -5.9050   20.4000    9.1200 O.3   110  U110        0.0000
   2290  C1'       -4.5040   22.3510    8.8510 C.3   110  U110        0.0000
   2291  N1        -4.4380   23.7600    9.3550 N.ar  110  U110        0.0000
   2292  C2        -4.4740   23.9910   10.7210 C.ar  110  U110        0.0000
   2293  O2        -4.5500   23.1020   11.5550 O.2   110  U110        0.0000
   2294  N3        -4.4150   25.3200   11.0830 N.ar  110  U110        0.0000
   2295  C4        -4.3300   26.4150   10.2350 C.ar  110  U110        0.0000
   2296  O4        -4.2880   27.5480   10.7040 O.2   110  U110        0.0000
   2297  C5        -4.3050   26.0950    8.8290 C.ar  110  U110        0.0000
   2298  C6        -4.3600   24.8100    8.4540 C.ar  110  U110        0.0000
   2299  OP1       -5.6170   24.0180    2.9020 O.2   110  U110       -0.5000
   2300  OP2       -5.2780   26.1000    4.3660 O.co2 110  U110       -0.5000
   2301  P         -8.9720   22.2800    7.1790 P.3   111  U111        0.0000
   2302  C5'       -9.3600   20.7860    9.3150 C.3   111  U111        0.0000
   2303  O5'       -9.4410   22.0660    8.6920 O.3   111  U111        0.0000
   2304  C4'       -9.2620   20.9430   10.8200 C.3   111  U111        0.0000
   2305  O4'       -8.0310   21.6280   11.1660 O.3   111  U111        0.0000
   2306  C3'      -10.3540   21.8110   11.4180 C.3   111  U111        0.0000
   2307  O3'      -11.5020   21.0410   11.7010 O.3   111  U111        0.0000
   2308  C2'       -9.6980   22.3570   12.6780 C.3   111  U111        0.0000
   2309  O2'       -9.7280   21.4350   13.7500 O.3   111  U111        0.0000
   2310  C1'       -8.2700   22.5840   12.1880 C.3   111  U111        0.0000
   2311  N1        -8.0140   23.9790   11.6600 N.ar  111  U111        0.0000
   2312  C2        -7.8520   25.0310   12.5510 C.ar  111  U111        0.0000
   2313  O2        -7.9070   24.9070   13.7620 O.2   111  U111        0.0000
   2314  N3        -7.6220   26.2550   11.9680 N.ar  111  U111        0.0000
   2315  C4        -7.5400   26.5340   10.6130 C.ar  111  U111        0.0000
   2316  O4        -7.3260   27.6820   10.2410 O.2   111  U111        0.0000
   2317  C5        -7.7150   25.3950    9.7460 C.ar  111  U111        0.0000
   2318  C6        -7.9410   24.1940   10.2920 C.ar  111  U111        0.0000
   2319  OP1       -9.9030   21.5620    6.2850 O.2   111  U111       -0.5000
   2320  OP2       -8.7230   23.7260    6.9820 O.co2 111  U111       -0.5000
   2321  P        -12.9290   21.7140   11.4570 P.3   112  C112        0.0000
   2322  C5'      -14.1340   22.8420   13.5110 C.3   112  C112        0.0000
   2323  O5'      -12.9940   22.7850   12.6500 O.3   112  C112        0.0000
   2324  C4'      -13.7470   22.6700   14.9730 C.3   112  C112        0.0000
   2325  O4'      -12.3580   23.0380   15.1660 O.3   112  C112        0.0000
   2326  C3'      -14.5870   23.4970   15.9430 C.3   112  C112        0.0000
   2327  O3'      -15.4280   22.6340   16.7150 O.3   112  C112        0.0000
   2328  C2'      -13.5860   24.2610   16.8170 C.3   112  C112        0.0000
   2329  O2'      -13.5530   23.7730   18.1460 O.3   112  C112        0.0000
   2330  C1'      -12.2260   24.0490   16.1470 C.3   112  C112        0.0000
   2331  N1       -11.6110   25.2890   15.5250 N.ar  112  C112        0.0000
   2332  C2       -10.9130   26.2130   16.3310 C.ar  112  C112        0.0000
   2333  O2       -10.8130   26.0120   17.5500 O.2   112  C112        0.0000
   2334  N3       -10.3570   27.3120   15.7500 N.ar  112  C112        0.0000
   2335  C4       -10.4740   27.5070   14.4330 C.ar  112  C112        0.0000
   2336  N4        -9.9140   28.6010   13.9120 N.pl3 112  C112        0.0000
   2337  C5       -11.1740   26.5860   13.5920 C.ar  112  C112        0.0000
   2338  C6       -11.7170   25.5050   14.1740 C.ar  112  C112        0.0000
   2339  OP1      -13.9700   20.6770   11.6550 O.3   112  C112       -0.5000
   2340  OP2      -12.8680   22.4560   10.1740 O.co2 112  C112       -0.5000
   2341  K         15.0680   47.5270   14.4760 K     300  K300        0.0000
   2342 MG         59.1530   39.6310    4.8230 Mg    302  MG302       0.0000
   2343 MG         44.4500   41.1660    5.1160 Mg    306  MG306       0.0000
   2344 MG         48.4440   39.9970   -4.9860 Mg    307  MG307       0.0000
   2345 MG         41.6920   46.6690   12.4680 Mg    310  MG310       0.0000
   2346 MG         29.4040   51.2010    9.0910 Mg    311  MG311       0.0000
   2347 MG         54.9720   43.4060   17.8920 Mg    312  MG312       0.0000
   2348 MG         48.9390   33.2720    7.2550 Mg    314  MG314       0.0000
   2349 MG         38.3270   38.8710    0.9120 Mg    315  MG315       0.0000
   2350  K         31.4010   30.5960   13.8540 K     301  K301        0.0000
   2351 MG         37.2270   47.8710   17.0980 Mg    303  MG303       0.0000
   2352 MG         41.4210   34.9560   21.4730 Mg    305  MG305       0.0000
   2353 MG         19.0950   64.8980   16.2610 Mg    309  MG309       0.0000
   2354  O         23.1930   30.0490   27.1210 O.3   500  HOH500      0.0000
@<TRIPOS>BOND
     1   299  2343    1
     2   476  2348    1
     3   497  2348    1
     4   595  2345    1
     5  1836  2352    1
     6  1907  2352    1
     7   286   285    1
     8   344   323    2
     9   321   300    2
    10   301   303    1
    11   301   302    1
    12   303   305    1
    13   303   304    1
    14   306   323    1
    15   306   305    1
    16   284   300    1
    17   284   283    1
    18   308   307    1
    19   323   345    1
    20   323   325    1
    21   285   283    1
    22   285   287    1
    23   300   302    1
    24   300   322    1
    25   305   307    1
    26   304   309    1
    27   283   281    1
    28   324   325    1
    29   324   326    1
    30   307   309    1
    31   281   282    1
    32   281   279    1
    33   287   282    1
    34   287   297    1
    35   290   289   ar
    36   290   291   ar
    37   309   320    1
    38   289   288   ar
    39   279   280    1
    40   326   327    1
    41   326   328    1
    42   291   297   ar
    43   291   292   ar
    44   297   296   ar
    45   320   319   ar
    46   320   314   ar
    47   367   346    2
    48   327   332    1
    49   280   278    1
    50   329   328    1
    51   329   346    1
    52   288   293   ar
    53   319   318   ar
    54   328   330    1
    55   346   368    1
    56   346   348    1
    57  1603  1583    2
    58   296   295   ar
    59   292   293   ar
    60   292   295   ar
    61   276   258    2
    62   314   313   ar
    63   314   315   ar
    64   293   294    1
    65   313   311   ar
    66  2279  2259    2
    67   641   623    2
    68   331   330    1
    69   332   330    1
    70   332   343    1
    71   256   235    2
    72   609   608    1
    73   318   315   ar
    74   278   298    2
    75   278   264    1
    76   278   299    1
    77   624   626    1
    78   624   625    1
    79   607   623    1
    80   607   606    1
    81  2299  2281    2
    82   342   343   ar
    83   342   341   ar
    84  1569  1583    1
    85  1569  1568    1
    86   315   316   ar
    87   264   263    1
    88  1625  1605    2
    89  1583  1585    1
    90  1583  1604    1
    91  2260  2262    1
    92  2260  2261    1
    93   348   347    1
    94   258   260    1
    95   258   277    1
    96   258   241    1
    97   260   259    1
    98   343   337   ar
    99  2242  2259    1
   100  2242  2241    1
   101  1584  1585    1
   102  1584  1586    1
   103   604   602    1
   104   604   606    1
   105   604   605    1
   106   661   643    2
   107   623   625    1
   108   623   642    1
   109   347   349    1
   110   311   312    1
   111   311   310   ar
   112  2259  2261    1
   113  2259  2280    1
   114   626   627    1
   115   626   628    1
   116   602   603    1
   117  2244  2243    1
   118  1571  1570    1
   119   629   643    1
   120   629   628    1
   121   606   608    1
   122  2265  2281    1
   123  2265  2264    1
   124   236   237    1
   125   236   238    1
   126   608   610    1
   127   134   133    1
   128   235   237    1
   129   235   218    1
   130   235   257    1
   131   586   585    1
   132  1566  1564    1
   133  1566  1568    1
   134  1566  1567    1
   135   341   338   ar
   136  2237  2239    1
   137  2237  2238    1
   138  2262  2264    1
   139  2262  2263    1
   140  1564  1565    1
   141  2239  2241    1
   142  2239  2240    1
   143  1581  1563    2
   144  2281  2300    1
   145  2281  2283    1
   146   259   261    1
   147   605   610    1
   148  1586  1588    1
   149  1586  1587    1
   150  1568  1570    1
   151   241   240    1
   152  1589  1605    1
   153  1589  1588    1
   154  1605  1626    1
   155  1605  1607    1
   156  2241  2243    1
   157   643   662    1
   158   643   645    1
   159   263   261    1
   160   263   265    1
   161   316   310   ar
   162   316   317    2
   163   627   632    1
   164   610   620    1
   165   218   217    1
   166   628   630    1
   167   261   262    1
   168   621   601    2
   169  2222  2221    1
   170   631   630    1
   171   337   338   ar
   172   337   336   ar
   173  2264  2266    1
   174  1570  1572    1
   175  2243  2245    1
   176   147   149    1
   177   147   148    1
   178   132   131    1
   179   132   146    1
   180   388   369    2
   181   164   146    2
   182   238   240    1
   183   238   239    1
   184   266   265    1
   185   349   350    1
   186   349   351    1
   187   129   127    1
   188   129   130    1
   189   129   131    1
   190  1567  1572    1
   191   603   601    1
   192  2257  2236    2
   193  2240  2245    1
   194  2263  2268    1
   195   644   645    1
   196   644   646    1
   197   338   339   ar
   198  1588  1590    1
   199  1565  1563    1
   200   240   242    1
   201  1587  1592    1
   202   387   369    1
   203  2238  2236    1
   204   133   131    1
   205   133   135    1
   206   149   150    1
   207   149   151    1
   208  2220  2236    1
   209  2220  2219    1
   210   114   113    1
   211  2282  2283    1
   212  2282  2284    1
   213   213   215    1
   214   213   214    1
   215  1563  1549    1
   216  1563  1582    1
   217   585   587    1
   218   585   583    1
   219   584   601    1
   220   584   583    1
   221   630   632    1
   222   187   166    2
   223   127   128    1
   224   265   267    1
   225   336   334   ar
   226   130   135    1
   227  2267  2266    1
   228   601   622    1
   229  1572  1573    1
   230   684   663    2
   231   233   212    2
   232  2245  2256    1
   233   352   369    1
   234   352   351    1
   235  1551  1550    1
   236   350   355    1
   237   369   371    1
   238   632   633    1
   239   152   151    1
   240   152   166    1
   241   493   492    2
   242  1607  1606    1
   243   351   353    1
   244  1549  1548    1
   245   146   148    1
   246   146   165    1
   247  2236  2258    1
   248   215   217    1
   249   215   216    1
   250   135   136    1
   251   217   219    1
   252  1606  1608    1
   253   587   582    1
   254   587   598    1
   255  1591  1590    1
   256  2221  2219    1
   257  2221  2223    1
   258  2266  2268    1
   259   581   582    1
   260   581   583    1
   261   581   579    1
   262   590   589    1
   263   365   364   ar
   264   365   366   ar
   265   262   267    1
   266   620   614   ar
   267   620   619   ar
   268   150   155    1
   269   491   492   ar
   270   491   489   ar
   271   214   212    1
   272   492   494   ar
   273   570   569    2
   274   154   153    1
   275   239   244    1
   276   220   219    1
   277   613   614   ar
   278   613   612   ar
   279  1590  1592    1
   280  2268  2278    1
   281   646   647    1
   282   646   648    1
   283   151   153    1
   284   591   589   ar
   285   591   592   ar
   286  2219  2217    1
   287  2319  2301    2
   288   166   188    1
   289   166   168    1
   290   364   361   ar
   291   267   268    1
   292   490   489    2
   293  1592  1602    1
   294   339   340    2
   295   339   333   ar
   296   489   488   ar
   297  2217  2218    1
   298  2217  2215    1
   299  1402  1401    1
   300   242   243    1
   301   242   244    1
   302   212   234    1
   303   212   195    1
   304  1647  1627    2
   305   614   615   ar
   306   113   115    1
   307   113   111    1
   308  2284  2285    1
   309  2284  2286    1
   310   649   663    1
   311   649   648    1
   312   663   685    1
   313   663   665    1
   314   334   333   ar
   315   334   335    1
   316   589   588   ar
   317   219   221    1
   318   494   495   ar
   319  1550  1548    1
   320  1550  1552    1
   321   640   633   ar
   322   640   639   ar
   323   128   126    1
   324   633   634   ar
   325   619   618   ar
   326   355   366    1
   327   355   353    1
   328   112   126    1
   329   112   111    1
   330   579   580    1
   331   153   155    1
   332  2223  2218    1
   333  2223  2233    1
   334   144   126    2
   335  1548  1546    1
   336   829   828    2
   337   454   434    2
   338   366   360   ar
   339  1989  1971    2
   340  1573  1580   ar
   341  1573  1574   ar
   342   138   137    2
   343  2320  2301    1
   344  2256  2255   ar
   345  2256  2250   ar
   346   155   156    1
   347   830   828   ar
   348   830   831   ar
   349   832   831    2
   350   406   405    2
   351   482   487    1
   352   482   481    1
   353   598   592   ar
   354   598   597   ar
   355   488   495   ar
   356   488   487    1
   357   647   652    1
   358  1397  1395    1
   359  1397  1398    1
   360  1397  1399    1
   361   353   354    1
   362   216   221    1
   363   371   370    1
   364  2287  2301    1
   365  2287  2286    1
   366   566   565    1
   367   612   611   ar
   368   648   650    1
   369  2301  2303    1
   370  2277  2278   ar
   371  2277  2276   ar
   372   244   255    1
   373   569   571   ar
   374   569   568   ar
   375   571   572   ar
   376   592   593   ar
   377  1608  1609    1
   378  1608  1610    1
   379   136   137   ar
   380   136   143   ar
   381  1575  1574    2
   382   118   117    2
   383  2278  2272   ar
   384  1379  1378    1
   385   115   110    1
   386   115   116    1
   387   254   255   ar
   388   254   253   ar
   389  1395  1396    1
   390  1400  1399    1
   391  1400  1414    1
   392  2215  2216    1
   393   167   168    1
   394   167   169    1
   395  1601  1602   ar
   396  1601  1600   ar
   397   828   827   ar
   398   126   145    1
   399  1969  1951    2
   400  1398  1403    1
   401   111   109    1
   402  2285  2290    1
   403  1546  1547    1
   404  1546  1544    1
   405  1602  1596   ar
   406  2286  2288    1
   407  1580  1579   ar
   408  2249  2250   ar
   409  2249  2247   ar
   410   831   833   ar
   411   109   110    1
   412   109   107    1
   413   487   485    1
   414   195   194    1
   415  2226  2225   ar
   416  2226  2227   ar
   417   361   360   ar
   418   361   362   ar
   419   137   139   ar
   420  1435  1414    2
   421   268   275   ar
   422   268   269   ar
   423   221   232    1
   424  2255  2254   ar
   425  1401  1403    1
   426  1401  1399    1
   427  1574  1576   ar
   428   270   269    2
   429  1957  1971    1
   430  1957  1956    1
   431  1403  1404    1
   432  2250  2251   ar
   433  1609  1614    1
   434   639   637   ar
   435   255   249   ar
   436   411   389    2
   437  1952  1954    1
   438  1952  1953    1
   439  1415  1417    1
   440  1415  1416    1
   441  1611  1627    1
   442  1611  1610    1
   443  1627  1648    1
   444  1627  1629    1
   445  1552  1547    1
   446  1552  1553    1
   447   665   664    1
   448   565   567    1
   449   565   563    1
   450   615   618   ar
   451   615   616   ar
   452   385   386   ar
   453   385   383   ar
   454  2074  2073    2
   455  1555  1554    2
   456   588   594   ar
   457   481   479    1
   458   481   483    1
   459   634   635    2
   460   634   636   ar
   461   370   372    1
   462  1383  1382    1
   463   360   359   ar
   464   143   142   ar
   465   479   480    1
   466  2072  2073   ar
   467  2072  2070   ar
   468  1610  1612    1
   469  2233  2227   ar
   470  2233  2232   ar
   471  1971  1990    1
   472  1971  1973    1
   473  2071  2070    2
   474   407   404   ar
   475   407   408   ar
   476   253   250   ar
   477   405   404   ar
   478   405   399   ar
   479  1954  1956    1
   480  1954  1955    1
   481   580   578    1
   482  2216  2214    1
   483  2225  2224   ar
   484   477   456    2
   485   597   596   ar
   486  2276  2273   ar
   487   156   163   ar
   488   156   157   ar
   489   567   568    1
   490   567   562    1
   491  1544  1545    1
   492   117   116   ar
   493   117   119   ar
   494   434   418    1
   495   434   455    1
   496   434   436    1
   497   573   572    1
   498   568   575   ar
   499  2073  2075   ar
   500   275   274   ar
   501  1943  1942    2
   502   572   574   ar
   503   652   650    1
   504   652   653    1
   505   163   162   ar
   506  2248  2247    1
   507  1939  1938    1
   508   269   271   ar
   509  1414  1416    1
   510  1414  1436    1
   511  2298  2297   ar
   512  2298  2291   ar
   513  2227  2228   ar
   514   363   362    2
   515   384   383    2
   516  2070  2069   ar
   517   611   616   ar
   518   650   651    1
   519   827   826    1
   520   827   834   ar
   521   190   192    1
   522   190   191    1
   523  1417  1418    1
   524  1417  1419    1
   525   806   805   ar
   526   806   807   ar
   527   664   666    1
   528   116   123   ar
   529   194   192    1
   530   194   196    1
   531   476   456    1
   532   497   478    1
   533   593   594   ar
   534   593   596   ar
   535  2247  2246   ar
   536   386   379   ar
   537   805   810   ar
   538  1600  1597   ar
   539  2200  2199    1
   540   833   834   ar
   541  2272  2271   ar
   542  2272  2273   ar
   543   362   356   ar
   544   660   653   ar
   545   660   659   ar
   546  1497  1496    1
   547  2303  2302    1
   548  1623  1622   ar
   549  1623  1624   ar
   550  1959  1958    1
   551  1378  1380    1
   552  1378  1376    1
   553   418   417    1
   554  1412  1394    2
   555   192   193    1
   556   480   478    1
   557  1396  1394    1
   558   169   170    1
   559   169   171    1
   560  1951  1937    1
   561  1951  1953    1
   562  1951  1970    1
   563   404   403   ar
   564   107   108    1
   565  2063  2068    1
   566  2063  2062    1
   567  2297  2295   ar
   568  1937  1936    1
   569  1360  1359    1
   570  1579  1577   ar
   571  1377  1394    1
   572  1377  1376    1
   573  1956  1958    1
   574  1406  1405    2
   575  1596  1595   ar
   576  1596  1597   ar
   577  2290  2288    1
   578  2290  2291    1
   579   435   436    1
   580   435   437    1
   581  1418  1423    1
   582   383   382   ar
   583  2288  2289    1
   584   616   617    1
   585  1972  1973    1
   586  1972  1974    1
   587   232   231   ar
   588   232   226   ar
   589  1384  1382   ar
   590  1384  1385   ar
   591   191   189    1
   592  1491  1496   ar
   593  1491  1492   ar
   594  2254  2251   ar
   595   826   821    1
   596   826   824    1
   597   139   140   ar
   598   231   230   ar
   599  2075  2076   ar
   600  1629  1628    1
   601   594   595    1
   602  2251  2252   ar
   603  1576  1577   ar
   604  1554  1553   ar
   605  1554  1556   ar
   606   456   440    1
   607   456   458    1
   608   485   483    1
   609   485   486    1
   610   637   636   ar
   611   637   638    1
   612  2069  2076   ar
   613  2069  2068    1
   614  1382  1381   ar
   615   399   400   ar
   616  1553  1560   ar
   617  1380  1375    1
   618  1380  1391    1
   619   408   409   ar
   620   433   412    2
   621   249   250   ar
   622   249   248   ar
   623  1404  1405   ar
   624  1404  1411   ar
   625  1955  1960    1
   626  2271  2270   ar
   627  1614  1612    1
   628  1614  1624    1
   629  2234  2214    2
   630   653   654   ar
   631   389   410    1
   632   389   391    1
   633   389   375    1
   634  2273  2274   ar
   635  1622  1619   ar
   636  1475  1474    1
   637   564   563    1
   638   564   578    1
   639  2302  2304    1
   640   170   175    1
   641   599   578    2
   642   821   820    1
   643  2232  2231   ar
   644  2291  2292   ar
   645   563   561    1
   646  1394  1413    1
   647   483   484    1
   648   359   357   ar
   649   158   157    2
   650  1595  1594   ar
   651   659   657   ar
   652   250   251   ar
   653  2203  2204   ar
   654  2203  2202   ar
   655   142   140   ar
   656  1545  1543    1
   657  1374  1376    1
   658  1374  1375    1
   659  1374  1372    1
   660   578   600    1
   661   478   496    2
   662   478   462    1
   663   372   373    1
   664   372   374    1
   665  1561  1543    2
   666   157   159   ar
   667   807   808   ar
   668  1597  1598   ar
   669  1612  1613    1
   670  1496  1495   ar
   671  2224  2229   ar
   672   119   120   ar
   673    94    93    1
   674  2068  2066    1
   675  1958  1960    1
   676  1624  1618   ar
   677   440   439    1
   678  2204  2205   ar
   679   575   574   ar
   680  2214  2198    1
   681  2214  2235    1
   682  1405  1407   ar
   683  1942  1944   ar
   684  1942  1941   ar
   685   162   160   ar
   686   562   561    1
   687   373   378    1
   688   484   498    1
   689  1420  1419    1
   690  1420  1437    1
   691  1577  1578    1
   692  2062  2060    1
   693  2062  2064    1
   694  2078  2059    2
   695   274   272   ar
   696  2060  2061    1
   697   413   415    1
   698   413   414    1
   699   172   171    1
   700   172   189    1
   701  2317  2318   ar
   702  2317  2315   ar
   703  2199  2201    1
   704  2199  2197    1
   705   374   375    1
   706   374   376    1
   707  1938  1940    1
   708  1938  1936    1
   709   271   272   ar
   710  1422  1421    1
   711  2228  2229   ar
   712  2228  2231   ar
   713  1453  1452    1
   714   810   811    1
   715   810   809   ar
   716   123   122   ar
   717  1419  1421    1
   718  1492  1493   ar
   719   171   173    1
   720  2246  2252   ar
   721   210   189    2
   722  1940  1941    1
   723  1940  1935    1
   724   415   417    1
   725   415   416    1
   726   196   197    1
   727   196   198    1
   728   356   357   ar
   729   379   378    1
   730   379   380   ar
   731   437   439    1
   732   437   438    1
   733   108   106    1
   734   857   837    2
   735  2012  1991    2
   736   140   141    2
   737  1628  1630    1
   738   417   419    1
   739   561   559    1
   740   666   668    1
   741   666   667    1
   742  1936  1934    1
   743  1960  1961    1
   744  1423  1421    1
   745  1423  1434    1
   746   391   390    1
   747   189   211    1
   748  2198  2197    1
   749   193   198    1
   750  1385  1391   ar
   751  1385  1386   ar
   752  1411  1410   ar
   753   403   409   ar
   754   403   402   ar
   755   823   822    1
   756   823   837    1
   757   825   824    1
   758  1359  1361   ar
   759  1359  1358   ar
   760   248   246   ar
   761  1974  1975    1
   762  1974  1976    1
   763  2340  2321    2
   764   550   549    2
   765  1944  1945   ar
   766  1920  1919    1
   767   226   225   ar
   768   226   227   ar
   769   382   380   ar
   770  2252  2253    2
   771   551   549   ar
   772   551   552   ar
   773  2295  2296    2
   774  2295  2294   ar
   775  1458  1437    2
   776  1543  1562    1
   777  1543  1529    1
   778  2316  2315    2
   779  1556  1557   ar
   780  1391  1390   ar
   781   230   227   ar
   782   420   419    1
   783   357   358    1
   784   553   552    1
   785  2318  2311   ar
   786   439   441    1
   787  2229  2230    1
   788   824   822    1
   789  2202  2207   ar
   790  1560  1559   ar
   791   272   273    1
   792  1381  1387   ar
   793   682   681   ar
   794   682   683   ar
   795   409   398    1
   796  1457  1437    1
   797   668   670    1
   798   668   669    1
   799  1941  1948   ar
   800   820   822    1
   801   820   818    1
   802   727   709    2
   803    98    97    2
   804   185   184   ar
   805   185   186   ar
   806   400   402   ar
   807   400   401    1
   808   458   457    1
   809  1474  1469   ar
   810  1474  1473   ar
   811   412   414    1
   812   412   432    1
   813   412   395    1
   814   707   686    2
   815  1454  1451   ar
   816  1454  1455   ar
   817   198   209    1
   818   378   376    1
   819  1437  1439    1
   820   225   223   ar
   821  1372  1373    1
   822  2270  2269   ar
   823  2013  1991    1
   824  2315  2314   ar
   825  1619  1618   ar
   826  1619  1620   ar
   827   667   672    1
   828  2201  2211    1
   829  2201  2196    1
   830   654   655    2
   831   654   656   ar
   832  1361  1362   ar
   833  1977  1991    1
   834  1977  1976    1
   835  2274  2269   ar
   836  2274  2275    1
   837   159   160   ar
   838  1469  1470   ar
   839   808   809   ar
   840   808   814   ar
   841   681   678   ar
   842  2292  2294   ar
   843  2292  2293    2
   844   251   252    2
   845   251   245   ar
   846  2197  2195    1
   847  1594  1593   ar
   848   462   461    1
   849   517   498    2
   850   670   672    1
   851   670   671    1
   852   175   173    1
   853   175   186    1
   854   160   161    1
   855    93    95    1
   856    93    91    1
   857  1991  1993    1
   858   380   381    2
   859  1618  1617   ar
   860  2304  2305    1
   861  2304  2306    1
   862   120   122   ar
   863   120   121    2
   864   657   656   ar
   865   657   658    1
   866   549   548   ar
   867  2205  2211   ar
   868  2205  2206   ar
   869  1407  1408   ar
   870   461   463    1
   871   461   459    1
   872  1935  1934    1
   873   498   516    1
   874   498   500    1
   875  2059  2061    1
   876  2059  2077    1
   877  2059  2043    1
   878  1934  1932    1
   879  1358  1364   ar
   880  1598  1593   ar
   881  1598  1599    1
   882  1495  1494   ar
   883  1495  1498   ar
   884  1356  1355    1
   885   837   858    1
   886   837   839    1
   887   552   554   ar
   888   809   812   ar
   889   419   421    1
   890  1644  1645   ar
   891  1644  1641   ar
   892   376   377    1
   893  1975  1980    1
   894   227   228   ar
   895  2064  2066    1
   896  2064  2065    1
   897  1645  1646   ar
   898  2066  2067    1
   899  2065  2079    1
   900  1452  1451   ar
   901  1452  1447   ar
   902   533   532    1
   903   173   174    1
   904  1976  1978    1
   905  1434  1433   ar
   906  1434  1428   ar
   907  1493  1494   ar
   908   184   181   ar
   909  2305  2310    1
   910   438   443    1
   911   186   180   ar
   912   416   421    1
   913   394   395    1
   914   394   396    1
   915   394   392    1
   916  2101  2079    2
   917  1433  1432   ar
   918   457   459    1
   919  1451  1450   ar
   920  2211  2210   ar
   921  2195  2196    1
   922  2195  2193    1
   923  1918  1919   ar
   924  1918  1924   ar
   925  1410  1408   ar
   926  1919  1921   ar
   927  2181  2180    1
   928   246   245   ar
   929   246   247    1
   930  1455  1456   ar
   931  1386  1387   ar
   932  1386  1389   ar
   933   881   859    2
   934    92   106    1
   935    92    91    1
   936    95    90    1
   937    95    96    1
   938  1557  1559   ar
   939  1557  1558    1
   940   672   683    1
   941  2306  2307    1
   942  2306  2308    1
   943   390   392    1
   944  1630  1631    1
   945  1630  1632    1
   946   683   677   ar
   947   106   124    2
   948   106   125    1
   949  2321  2339    1
   950  2321  2307    1
   951  2321  2323    1
   952  1961  1968   ar
   953  1961  1962   ar
   954   463   464    1
   955   463   465    1
   956   838   839    1
   957   838   840    1
   958  1945  1946    2
   959  1945  1947   ar
   960   819   818    1
   961   819   817    1
   962   559   560    1
   963  1529  1528    1
   964   669   686    1
   965  1387  1388    2
   966  1390  1389   ar
   967  1631  1636    1
   968  2207  2206   ar
   969  2207  2208    1
   970  1670  1649    2
   971  1494  1500   ar
   972  1531  1530    1
   973  2311  2310    1
   974  2311  2312   ar
   975  1473  1476   ar
   976  1473  1472   ar
   977   687   689    1
   978   687   688    1
   979   398   396    1
   980   398   393    1
   981   709   728    1
   982   709   692    1
   983   709   711    1
   984   396   397    1
   985    97    96   ar
   986    97    99   ar
   987  1621  1620    1
   988  1498  1499   ar
   989  1620  1615   ar
   990  1968  1967   ar
   991  1408  1409    2
   992  1948  1947   ar
   993   686   688    1
   994   686   708    1
   995   441   442    1
   996   441   443    1
   997  1373  1371    1
   998   223   224    1
   999   223   222   ar
  1000  2079  2100    1
  1001  2079  2081    1
  1002   393   392    1
  1003  1632  1633    1
  1004  1632  1634    1
  1005  1476  1477   ar
  1006    91    89    1
  1007   459   460    1
  1008  2206  2209   ar
  1009   421   431    1
  1010   814   804    1
  1011   814   813   ar
  1012  1470  1471   ar
  1013  1355  1357    1
  1014  1355  1353    1
  1015  2314  2312   ar
  1016   692   691    1
  1017   474   473   ar
  1018   474   475   ar
  1019   209   203   ar
  1020   209   208   ar
  1021  1617  1616   ar
  1022  1362  1368   ar
  1023  1362  1363   ar
  1024  1439  1438    1
  1025   678   677   ar
  1026   678   679   ar
  1027   500   499    1
  1028   560   558    1
  1029  1447  1448   ar
  1030  2043  2042    1
  1031  1633  1649    1
  1032    90    89    1
  1033   804   799    1
  1034   804   802    1
  1035  1963  1962    2
  1036  2310  2308    1
  1037    89    87    1
  1038   548   547    1
  1039   548   555   ar
  1040  1428  1427   ar
  1041  1428  1429   ar
  1042  1643  1642    1
  1043  1646  1636    1
  1044  1646  1640   ar
  1045  1641  1642   ar
  1046  1641  1640   ar
  1047    96   103   ar
  1048   532   531   ar
  1049   532   534   ar
  1050   799   798    1
  1051  1364  1363   ar
  1052  1364  1365    2
  1053   812   813   ar
  1054   443   453    1
  1055   202   203   ar
  1056   202   200   ar
  1057  1932  1933    1
  1058   554   555   ar
  1059  1432  1429   ar
  1060   452   453   ar
  1061   452   451   ar
  1062  1993  1992    1
  1063  1980  1978    1
  1064  1980  1981    1
  1065   228   222   ar
  1066   228   229    2
  1067  1357  1368    1
  1068  1357  1352    1
  1069  1988  1987   ar
  1070  1988  1981   ar
  1071  1925  1924    2
  1072  1978  1979    1
  1073   181   180   ar
  1074   181   182   ar
  1075   750   729    2
  1076   880   859    1
  1077  1921  1922   ar
  1078   689   691    1
  1079   689   690    1
  1080   180   179   ar
  1081   531   529   ar
  1082   473   470   ar
  1083  1962  1964   ar
  1084  1924  1923   ar
  1085  1897  1896   ar
  1086  1897  1898   ar
  1087  1427  1425   ar
  1088    99   100   ar
  1089   677   676   ar
  1090   460   465    1
  1091  1649  1669    1
  1092  1649  1651    1
  1093  1896  1901   ar
  1094  2312  2313    2
  1095   546   545    1
  1096   801   817    1
  1097   801   800    1
  1098   859   861    1
  1099   859   843    1
  1100  1528  1530    1
  1101  1528  1526    1
  1102   840   842    1
  1103   840   841    1
  1104  2180  2179   ar
  1105  2180  2182   ar
  1106  2323  2322    1
  1107   545   547    1
  1108   545   543    1
  1109  2210  2209   ar
  1110  2308  2309    1
  1111  1636  1634    1
  1112  1450  1456   ar
  1113  1450  1449   ar
  1114   499   501    1
  1115  2193  2194    1
  1116  1456  1446    1
  1117   465   475    1
  1118   680   679    2
  1119   798   800    1
  1120   798   796    1
  1121   203   204   ar
  1122  1530  1532    1
  1123  1368  1367   ar
  1124   877   878   ar
  1125   877   874   ar
  1126    78    77    2
  1127  1363  1366   ar
  1128   751   729    1
  1129   817   835    2
  1130   817   836    1
  1131   208   207   ar
  1132  1472  1471   ar
  1133  1472  1478   ar
  1134  1642  1637   ar
  1135   475   469   ar
  1136   547   542    1
  1137   711   710    1
  1138  1499  1500   ar
  1139   679   673   ar
  1140  1500  1490    1
  1141  2141  2140    2
  1142   453   447   ar
  1143  1615  1616   ar
  1144  1429  1430   ar
  1145  1992  1994    1
  1146   691   693    1
  1147  1987  1985   ar
  1148   876   875    2
  1149  2179  2185   ar
  1150   201   200    1
  1151  1354  1371    1
  1152  1354  1353    1
  1153  1967  1965   ar
  1154  1634  1635    1
  1155   710   712    1
  1156  1640  1639   ar
  1157  1981  1982   ar
  1158  1933  1931    1
  1159  1438  1440    1
  1160  1392  1371    2
  1161  1477  1478   ar
  1162   431   430   ar
  1163   431   425   ar
  1164  1371  1393    1
  1165   451   448   ar
  1166   861   860    1
  1167  1353  1351    1
  1168   842   843    1
  1169   842   844    1
  1170  2081  2080    1
  1171   200   199   ar
  1172   729   715    1
  1173   729   731    1
  1174  1448  1449   ar
  1175   878   879   ar
  1176   803   802    1
  1177   534   535   ar
  1178   800   802    1
  1179  2036  2014    2
  1180  1441  1446    1
  1181  1441  1440    1
  1182  2182  2183   ar
  1183  1352  1351    1
  1184   430   429   ar
  1185  2042  2040    1
  1186  2042  2044    1
  1187  2194  2192    1
  1188  2322  2324    1
  1189   179   177   ar
  1190  1898  1899   ar
  1191  1922  1923   ar
  1192  1922  1928   ar
  1193   182   183    2
  1194   182   176   ar
  1195    87    88    1
  1196  2337  2338   ar
  1197  2337  2335   ar
  1198  1535  1534    2
  1199  1666  1667   ar
  1200  1666  1663   ar
  1201  1425  1426    1
  1202  1425  1424   ar
  1203   796   797    1
  1204  2134  2140   ar
  1205  2134  2135   ar
  1206   103   102   ar
  1207   558   577    2
  1208   558   544    1
  1209   558   576    1
  1210  1340  1339    2
  1211  1923  1926   ar
  1212   690   695    1
  1213   841   846    1
  1214   529   530    2
  1215   529   528   ar
  1216  1901  1902    1
  1217  1901  1900   ar
  1218  2035  2014    1
  1219   676   674   ar
  1220  1964  1965   ar
  1221  1532  1533    1
  1222  1532  1527    1
  1223   694   693    1
  1224  1351  1349    1
  1225   470   469   ar
  1226   470   471   ar
  1227   100   102   ar
  1228   100   101    1
  1229   860   862    1
  1230  1478  1468    1
  1231   715   714    1
  1232  1446  1444    1
  1233    17    16    2
  1234   543   544    1
  1235   543   541    1
  1236  2140  2139   ar
  1237  2045  2044    1
  1238   874   875   ar
  1239   874   873   ar
  1240  1526  1527    1
  1241  1526  1524    1
  1242  2336  2335    1
  1243    77    79   ar
  1244    77    76   ar
  1245  1686  1685    1
  1246   875   869   ar
  1247  1665  1664    1
  1248  1857  1856    1
  1249  1723  1722    1
  1250    74    73    1
  1251  1651  1650    1
  1252   514   515   ar
  1253   514   512   ar
  1254  2040  2041    1
  1255  2040  2038    1
  1256    54    55   ar
  1257    54    59   ar
  1258  1480  1459    2
  1259    79    80   ar
  1260  1667  1668   ar
  1261  1440  1442    1
  1262   204   207   ar
  1263   204   205   ar
  1264  2118  2117    1
  1265  1965  1966    1
  1266   469   468   ar
  1267    60    59    1
  1268  1367  1366   ar
  1269  1490  1485    1
  1270  1490  1488    1
  1271  2163  2162    1
  1272   515   508   ar
  1273  2080  2082    1
  1274  1430  1424   ar
  1275  1430  1431    2
  1276  2338  2331   ar
  1277  1303  1302    2
  1278   501   502    1
  1279   501   503    1
  1280  2136  2135    1
  1281   693   695    1
  1282  1341  1339   ar
  1283  1341  1342   ar
  1284   673   674   ar
  1285  1637  1638   ar
  1286    38    37    2
  1287  1721  1722   ar
  1288  1721  1727   ar
  1289  2014  1997    1
  1290  2014  2016    1
  1291  1858  1859   ar
  1292  1858  1855   ar
  1293   447   448   ar
  1294   447   446   ar
  1295  2185  2186    2
  1296  2185  2184   ar
  1297   425   424   ar
  1298   425   426   ar
  1299  1534  1533   ar
  1300  1534  1536   ar
  1301   542   541    1
  1302   712   714    1
  1303   712   713    1
  1304   797   795    1
  1305  1442  1444    1
  1306  1442  1443    1
  1307  1650  1652    1
  1308  1728  1727    2
  1309  1639  1638   ar
  1310   448   449   ar
  1311  1985  1984   ar
  1312  1985  1986    2
  1313  2177  2176    1
  1314  2335  2334   ar
  1315   774   752    2
  1316  1541  1523    2
  1317  2044  2046    1
  1318  1994  1996    1
  1319  1994  1995    1
  1320  1982  1984   ar
  1321  1982  1983    2
  1322   502   507    1
  1323  1339  1338   ar
  1324   424   423   ar
  1325  1533  1540   ar
  1326   844   846    1
  1327   844   845    1
  1328    73    75    1
  1329    73    71    1
  1330  2097  2098   ar
  1331  2097  2094   ar
  1332   674   675    1
  1333  1915  1916    1
  1334  1915  1917    1
  1335  1915  1913    1
  1336   535   528   ar
  1337   714   716    1
  1338  2041  2046    1
  1339   177   176   ar
  1340   177   178    1
  1341  2135  2137   ar
  1342  1931  1950    2
  1343  1931  1949    1
  1344  1931  1914    1
  1345    88    86    1
  1346  1343  1342    2
  1347   199   205   ar
  1348    55    56   ar
  1349   731   730    1
  1350  1997  1996    1
  1351   429   426   ar
  1352  2046  2056    1
  1353  2183  2184   ar
  1354  2183  2189   ar
  1355   879   873   ar
  1356   879   868    1
  1357  1899  1900   ar
  1358  1899  1905   ar
  1359  1524  1525    1
  1360  1485  1484    1
  1361  1323  1322    2
  1362    59    58   ar
  1363  1706  1705    1
  1364  1663  1664   ar
  1365  1663  1662   ar
  1366   863   862    1
  1367   863   868    1
  1368  2098  2099   ar
  1369  1444  1445    1
  1370  1810  1809    1
  1371   695   706    1
  1372   472   471    1
  1373  1722  1724   ar
  1374   528   527    1
  1375  1928  1917    1
  1376  1928  1927   ar
  1377   503   505    1
  1378   503   504    1
  1379  1996  1998    1
  1380  2010  2009   ar
  1381  2010  2011   ar
  1382   773   752    1
  1383  1900  1903   ar
  1384   471   466   ar
  1385   897   896    2
  1386   790   789    2
  1387  2176  2178    1
  1388  2176  2174    1
  1389   846   856    1
  1390  1664  1659   ar
  1391   541   539    1
  1392  1926  1927   ar
  1393  1727  1726   ar
  1394  1859  1860   ar
  1395  2324  2325    1
  1396  2324  2326    1
  1397  2192  2212    2
  1398  2192  2213    1
  1399  2192  2175    1
  1400  2009  2006   ar
  1401  2038  2039    1
  1402  1536  1537   ar
  1403  1525  1523    1
  1404    75    76    1
  1405    75    70    1
  1406   873   872   ar
  1407  1856  1855   ar
  1408  1856  1851   ar
  1409  1342  1344   ar
  1410    16    15   ar
  1411    16    10   ar
  1412    76    83   ar
  1413   537   518    2
  1414   862   864    1
  1415  1995  2000    1
  1416  1489  1488    1
  1417   513   512    2
  1418   512   511   ar
  1419   205   206    2
  1420  1855  1854   ar
  1421  2325  2330    1
  1422  2184  2187   ar
  1423    81    80    2
  1424  1488  1486    1
  1425  1685  1687   ar
  1426  1685  1684   ar
  1427   730   732    1
  1428   869   870   ar
  1429    18    15   ar
  1430    18    19   ar
  1431    80    82   ar
  1432   816   795    2
  1433   426   427   ar
  1434  2139  2142   ar
  1435  2139  2138   ar
  1436   505   507    1
  1437   505   506    1
  1438  1917  1912    1
  1439   468   467   ar
  1440  1468  1466    1
  1441  1468  1463    1
  1442  1542  1523    1
  1443  1349  1350    1
  1444   446   445   ar
  1445  1523  1509    1
  1446  2162  2157   ar
  1447  2162  2161   ar
  1448   752   735    1
  1449   752   754    1
  1450  1540  1539   ar
  1451  1653  1652    1
  1452  1653  1658    1
  1453   508   507    1
  1454   508   509   ar
  1455    37    31   ar
  1456    37    36   ar
  1457  2049  2048   ar
  1458  2049  2050   ar
  1459  1302  1301   ar
  1460  1302  1304   ar
  1461  1668  1662   ar
  1462  1668  1658    1
  1463  1459  1443    1
  1464  1459  1461    1
  1465  1459  1479    1
  1466  2117  2112   ar
  1467  2117  2116   ar
  1468  1913  1914    1
  1469  1913  1911    1
  1470   791   789   ar
  1471   791   792   ar
  1472  1687  1688   ar
  1473   713   718    1
  1474   855   856   ar
  1475   855   854   ar
  1476   868   866    1
  1477  2331  2330    1
  1478  2331  2332   ar
  1479   789   788   ar
  1480  2083  2082    1
  1481  2083  2088    1
  1482  2082  2084    1
  1483  2157  2158   ar
  1484  2123  2102    2
  1485  2096  2095    2
  1486    31    32   ar
  1487  1652  1654    1
  1488   795   781    1
  1489   795   815    1
  1490  2016  2015    1
  1491   856   850   ar
  1492  2175  2174    1
  1493   449   450    1
  1494   449   444   ar
  1495    15    14   ar
  1496  2189  2178    1
  1497  2189  2188   ar
  1498  2178  2173    1
  1499  2334  2332   ar
  1500   423   422   ar
  1501  1321  1322   ar
  1502  1321  1319   ar
  1503  2119  2116   ar
  1504  2119  2120   ar
  1505  1461  1460    1
  1506  1322  1324   ar
  1507   794   775    2
  1508   705   706   ar
  1509   705   704   ar
  1510   706   700   ar
  1511    72    71    1
  1512    72    86    1
  1513  1466  1467    1
  1514  1466  1464    1
  1515  1662  1661   ar
  1516  1338  1337    1
  1517  1338  1345   ar
  1518  2094  2095   ar
  1519  2094  2093   ar
  1520  1537  1539   ar
  1521  1537  1538    2
  1522    71    69    1
  1523  1690  1671    2
  1524  2137  2138   ar
  1525  2142  2143   ar
  1526  1463  1462    1
  1527  2174  2172    1
  1528  1336  1335    1
  1529  2039  2037    1
  1530    10    11   ar
  1531  1301  1299   ar
  1532   540   539    1
  1533   540   538    1
  1534  2326  2327    1
  1535  2326  2328    1
  1536    56    57   ar
  1537  1905  1895    1
  1538  1905  1904   ar
  1539   504   518    1
  1540   896   898   ar
  1541   896   895   ar
  1542  2056  2050   ar
  1543  2056  2055   ar
  1544  1350  1348    1
  1545  2048  2047   ar
  1546   735   734    1
  1547  2011  2000    1
  1548  2011  2005   ar
  1549  1705  1704   ar
  1550  1705  1707   ar
  1551  1724  1725   ar
  1552   716   717    1
  1553   716   718    1
  1554  1809  1808   ar
  1555  1809  1811   ar
  1556  2099  2088    1
  1557  2099  2093   ar
  1558    86   104    2
  1559    86   105    1
  1560   466   467   ar
  1561   793   775    1
  1562  2112  2113   ar
  1563  1484  1486    1
  1564  1484  1482    1
  1565  1851  1852   ar
  1566  1684  1682   ar
  1567  2138  2144   ar
  1568   864   866    1
  1569   864   865    1
  1570    58    57   ar
  1571    58    61   ar
  1572  2330  2328    1
  1573  2116  2115   ar
  1574   527   525    1
  1575   527   522    1
  1576  1659  1660   ar
  1577  1335  1337    1
  1578  1335  1333    1
  1579  2000  1998    1
  1580   898   899   ar
  1581  1903  1904   ar
  1582  1658  1656    1
  1583   792   785   ar
  1584    19    20   ar
  1585  1860  1854   ar
  1586  1860  1850    1
  1587  2084  2085    1
  1588  2084  2086    1
  1589    83    82   ar
  1590   872   870   ar
  1591  2050  2051   ar
  1592   726   725   ar
  1593   726   719   ar
  1594   781   780    1
  1595  1833  1832    2
  1596   870   871    1
  1597   511   509   ar
  1598  1895  1890    1
  1599  1895  1893    1
  1600  1998  1999    1
  1601   518   520    1
  1602   518   536    1
  1603  2095  2089   ar
  1604  1726  1725   ar
  1605  1726  1729   ar
  1606  1337  1332    1
  1607    70    69    1
  1608  2332  2333    2
  1609  1304  1305   ar
  1610   854   851   ar
  1611  2161  2164   ar
  1612  2161  2160   ar
  1613  2006  2005   ar
  1614  2006  2007   ar
  1615   525   523    1
  1616   525   526    1
  1617  1854  1853   ar
  1618  1829  1828    1
  1619  1654  1656    1
  1620  1654  1655    1
  1621  2164  2165   ar
  1622   788   786   ar
  1623  1344  1345   ar
  1624  1704  1702   ar
  1625  1849  1848    1
  1626   445   444   ar
  1627  1808  1814   ar
  1628   509   510    2
  1629  1486  1487    1
  1630  2187  2188   ar
  1631   557   538    2
  1632   427   422   ar
  1633   427   428    1
  1634   732   734    1
  1635   732   733    1
  1636   734   736    1
  1637   718   719    1
  1638    36    39   ar
  1639    36    35   ar
  1640   754   753    1
  1641  2088  2086    1
  1642   520   519    1
  1643   725   723   ar
  1644   775   777    1
  1645   775   758    1
  1646  1912  1911    1
  1647    57    63   ar
  1648  1890  1889    1
  1649  1464  1462    1
  1650  1464  1465    1
  1651  2008  2007    2
  1652  2032  2033   ar
  1653  2032  2029   ar
  1654  1320  1319    2
  1655   866   867    1
  1656   901   882    2
  1657   850   851   ar
  1658   850   849   ar
  1659  1848  1850    1
  1660  1848  1846    1
  1661  2015  2017    1
  1662  1688  1681   ar
  1663  1725  1731   ar
  1664  1929  1908    2
  1665    39    40   ar
  1666  2093  2092   ar
  1667    69    67    1
  1668  2158  2159   ar
  1669  2328  2329    1
  1670  2085  2102    1
  1671   780   782    1
  1672   780   778    1
  1673  1911  1909    1
  1674  1319  1318   ar
  1675  1509  1508    1
  1676  1483  1482    1
  1677  1483  1481    1
  1678   523   524    1
  1679   523   521    1
  1680   704   701   ar
  1681    32    33    1
  1682    32    34   ar
  1683  1811  1812   ar
  1684  2120  2121   ar
  1685  2102  2122    1
  1686  2102  2104    1
  1687  1707  1708   ar
  1688  1462  1460    1
  1689  1894  1893    1
  1690   700   699   ar
  1691   700   701   ar
  1692  2005  2004   ar
  1693   719   720   ar
  1694   522   521    1
  1695    14    20   ar
  1696    14    13   ar
  1697  2033  2034   ar
  1698  2173  2172    1
  1699  1324  1325   ar
  1700   785   786   ar
  1701   785   784    1
  1702  1661  1660   ar
  1703   865   882    1
  1704  2007  2001   ar
  1705   538   524    1
  1706   538   556    1
  1707   851   852   ar
  1708   782   784    1
  1709   782   783    1
  1710  1910  1908    1
  1711  1910  1909    1
  1712   895   893   ar
  1713  2143  2144   ar
  1714    61    62   ar
  1715     2     1    1
  1716   748   747   ar
  1717   748   749   ar
  1718  1656  1657    1
  1719  1655  1671    1
  1720  1892  1908    1
  1721  1892  1891    1
  1722  2055  2054   ar
  1723   786   787    2
  1724   777   776    1
  1725  1852  1853   ar
  1726  2172  2170    1
  1727   770   771   ar
  1728   770   767   ar
  1729  1671  1689    1
  1730  1671  1673    1
  1731  1850  1845    1
  1732   849   848   ar
  1733  1299  1300    2
  1734  1299  1298   ar
  1735    11    13   ar
  1736    11    12    1
  1737  2031  2030    2
  1738  2086  2087    1
  1739  2047  2052   ar
  1740   747   744   ar
  1741  1729  1730   ar
  1742  2144  2133    1
  1743  1487  1503    1
  1744  2058  2037    2
  1745    20     9    1
  1746  1682  1681   ar
  1747  1682  1683    2
  1748   733   738    1
  1749  2113  2114   ar
  1750  2037  2057    1
  1751  2037  2020    1
  1752   769   768    2
  1753   699   697   ar
  1754   899   892   ar
  1755  1893  1891    1
  1756  1832  1834   ar
  1757  1832  1831   ar
  1758  2115  2121   ar
  1759  2115  2114   ar
  1760  1830  1828    1
  1761  1830  1825    1
  1762  1830  1831    1
  1763  2160  2159   ar
  1764  2160  2166   ar
  1765  1333  1334    1
  1766  1333  1331    1
  1767  1502  1481    2
  1768  1908  1930    1
  1769  1348  1334    1
  1770  1348  1370    2
  1771  1348  1369    1
  1772  2165  2166   ar
  1773   753   755    1
  1774  2051  2052   ar
  1775  2051  2054   ar
  1776  1305  1298   ar
  1777   701   702   ar
  1778  1828  1826    1
  1779  1889  1891    1
  1780  1889  1887    1
  1781   771   772   ar
  1782  1332  1331    1
  1783   521   519    1
  1784  2089  2090   ar
  1785  1681  1680    1
  1786  1786  1787   ar
  1787  1786  1791   ar
  1788  1702  1703    2
  1789  1702  1701   ar
  1790   882   884    1
  1791   882   900    1
  1792    35    34   ar
  1793    35    41   ar
  1794  1814  1815    2
  1795  1814  1813   ar
  1796  1465  1481    1
  1797   723   724    2
  1798   723   722   ar
  1799  2029  2030   ar
  1800  2029  2028   ar
  1801  2104  2103    1
  1802  1508  1506    1
  1803  1508  1510    1
  1804   784   779    1
  1805  2019  2017    1
  1806  2019  2020    1
  1807  2019  2021    1
  1808  1846  1844    1
  1809  1846  1847    1
  1810  1481  1501    1
  1811   758   757    1
  1812  1845  1844    1
  1813  2121  2111    1
  1814   736   738    1
  1815   736   737    1
  1816    63    62   ar
  1817    63    53    1
  1818  1825  1824    1
  1819  2017  2018    1
  1820    40    41   ar
  1821  1843  1842    1
  1822  1843  1841    1
  1823  1318  1325   ar
  1824  1318  1317    1
  1825  1731  1730   ar
  1826  1731  1720    1
  1827  1673  1672    1
  1828  1792  1791    1
  1829   996   995    1
  1830  2030  2024   ar
  1831  1298  1297    1
  1832   757   755    1
  1833   757   759    1
  1834  2092  2090   ar
  1835   767   768   ar
  1836   767   766   ar
  1837  1824  1826    1
  1838  1824  1822    1
  1839  2052  2053    1
  1840   749   738    1
  1841   749   743   ar
  1842  1812  1813   ar
  1843  1812  1818   ar
  1844   852   853    1
  1845   852   847   ar
  1846  1842  1844    1
  1847   768   762   ar
  1848  1834  1835   ar
  1849   720   722   ar
  1850   720   721    2
  1851  1831  1838   ar
  1852   778   776    1
  1853   778   779    1
  1854   848   847   ar
  1855  1708  1701   ar
  1856  1787  1788   ar
  1857    67    68    1
  1858  2004  2002   ar
  1859  1806  1805    1
  1860  2166  2156    1
  1861  1827  1826    1
  1862  1827  1841    1
  1863  2170  2171    1
  1864   893   892   ar
  1865   893   894    2
  1866  2034  2028   ar
  1867  2034  2023    1
  1868  1331  1329    1
  1869  2001  2002   ar
  1870   744   743   ar
  1871   744   745   ar
  1872  1511  1510    1
  1873     1     3    1
  1874    68    66    1
  1875  1885  1863    2
  1876  1505  1503    1
  1877  1505  1504    1
  1878  1750  1749    1
  1879  2090  2091    1
  1880   892   891    1
  1881   917   916    1
  1882  2018  2023    1
  1883  2133  2131    1
  1884  2133  2128    1
  1885  1791  1790   ar
  1886     4     9    1
  1887     4     3    1
  1888   884   883    1
  1889   697   698    1
  1890   697   696   ar
  1891  1506  1504    1
  1892  1506  1507    1
  1893  1701  1700    1
  1894   755   756    1
  1895  1813  1816   ar
  1896     9     7    1
  1897  2131  2129    1
  1898  2131  2132    1
  1899    41    30    1
  1900   772   766   ar
  1901   772   761    1
  1902   746   745    2
  1903  1503  1522    2
  1904  1503  1521    1
  1905  1887  1888    1
  1906  1847  1863    1
  1907   702   696   ar
  1908   702   703    2
  1909  2146  2124    2
  1910  2028  2027   ar
  1911    51    53    1
  1912    51    52    1
  1913    51    49    1
  1914  1510  1512    1
  1915  1720  1718    1
  1916  1720  1715    1
  1917   743   742   ar
  1918  1771  1770    1
  1919  2002  2003    1
  1920    53    48    1
  1921  2021  2023    1
  1922  2021  2022    1
  1923  1841  1861    2
  1924  1841  1862    1
  1925   766   765   ar
  1926   756   761    1
  1927   745   739   ar
  1928  1680  1675    1
  1929  1680  1678    1
  1930    43    21    2
  1931  1871  1870    1
  1932  1822  1823    1
  1933   759   761    1
  1934   759   760    1
  1935  2168  2147    2
  1936  1675  1674    1
  1937  1719  1718    1
  1938  1805  1807    1
  1939  1805  1803    1
  1940  1888  1886    1
  1941  1807  1818    1
  1942  1807  1802    1
  1943  1818  1817   ar
  1944  1317  1315    1
  1945  1317  1312    1
  1946     3     5    1
  1947   762   763   ar
  1948   995   997   ar
  1949   995   994   ar
  1950  2103  2105    1
  1951  1718  1716    1
  1952  1277  1276   ar
  1953  1277  1278   ar
  1954  2111  2106    1
  1955  2111  2109    1
  1956  2171  2169    1
  1957  2129  2130    1
  1958  2129  2127    1
  1959  1672  1674    1
  1960  2024  2025   ar
  1961  2106  2105    1
  1962     5     7    1
  1963     5     6    1
  1964  1788  1789   ar
  1965  1315  1316    1
  1966  1315  1313    1
  1967   916   918   ar
  1968   916   915   ar
  1969  1863  1865    1
  1970  1863  1884    1
  1971  1710  1691    2
  1972  1297  1292    1
  1973  1297  1295    1
  1974  1835  1836    1
  1975  1835  1837   ar
  1976  1838  1837   ar
  1977  1255  1254    1
  1978  1507  1512    1
  1979  1870  1868    1
  1980  1870  1872    1
  1981  2128  2127    1
  1982  1330  1329    1
  1983  1330  1328    1
  1984   997   998   ar
  1985  2156  2154    1
  1986  2156  2151    1
  1987    49    50    1
  1988    49    47    1
  1989     7     8    1
  1990  1512  1513    1
  1991  1276  1281   ar
  1992  2107  2105    1
  1993  2107  2109    1
  1994  2107  2108    1
  1995  1749  1748   ar
  1996  1749  1744   ar
  1997  1018  1019   ar
  1998  1018  1017   ar
  1999  2126  2124    1
  2000  2126  2125    1
  2001  1751  1748   ar
  2002  1751  1752   ar
  2003  1019  1020   ar
  2004    85    66    2
  2005   891   889    1
  2006   891   886    1
  2007   918   919   ar
  2008   883   885    1
  2009  1676  1678    1
  2010  1676  1674    1
  2011  1676  1677    1
  2012  1790  1789   ar
  2013  1790  1793   ar
  2014  2154  2152    1
  2015  2154  2155    1
  2016    66    50    1
  2017    66    84    1
  2018  1881  1882   ar
  2019  1881  1878   ar
  2020  1678  1679    1
  2021  1015  1014    1
  2022   994  1000   ar
  2023   889   887    1
  2024   889   890    1
  2025  1278  1279   ar
  2026  1816  1817   ar
  2027  2109  2110    1
  2028   742   740   ar
  2029  1700  1698    1
  2030  1700  1695    1
  2031  1882  1883   ar
  2032  1880  1879    2
  2033   886   885    1
  2034  2130  2147    1
  2035  1292  1291    1
  2036   765   763   ar
  2037    30    25    1
  2038    30    28    1
  2039  2190  2169    2
  2040  1715  1714    1
  2041   915   913   ar
  2042   763   764    1
  2043  2124  2108    1
  2044  2124  2145    1
  2045  1296  1295    1
  2046  2027  2025   ar
  2047   739   740   ar
  2048  1770  1769   ar
  2049  1770  1772   ar
  2050  1868  1869    1
  2051  1868  1866    1
  2052  1755  1734    2
  2053    48    47    1
  2054  1789  1795   ar
  2055  1865  1864    1
  2056  1878  1879   ar
  2057  1878  1877   ar
  2058  1295  1293    1
  2059  2127  2125    1
  2060  1748  1747   ar
  2061  1312  1311    1
  2062  1879  1873   ar
  2063  1802  1801    1
  2064  2147  2149    1
  2065  2147  2167    1
  2066  2025  2026    1
  2067    21     6    1
  2068    21    23    1
  2069    21    42    1
  2070  1823  1821    1
  2071   992   991    1
  2072  2152  2153    1
  2073  2152  2150    1
  2074  1347  1328    2
  2075  1769  1767   ar
  2076  1883  1877   ar
  2077  1883  1872    1
  2078  2151  2150    1
  2079    23    22    1
  2080  1313  1314    1
  2081  1313  1311    1
  2082  1744  1745   ar
  2083   887   885    1
  2084   887   888    1
  2085  2169  2153    1
  2086  2169  2191    1
  2087  1803  1804    1
  2088  1803  1801    1
  2089  1016  1011    1
  2090  1016  1014    1
  2091  1016  1026    1
  2092   740   741    1
  2093  1716  1714    1
  2094  1716  1717    1
  2095  1877  1876   ar
  2096  1886  1907    1
  2097  1886  1869    1
  2098  1886  1906    2
  2099  1011  1010    1
  2100    25    24    1
  2101  1698  1696    1
  2102  1698  1699    1
  2103  1254  1253   ar
  2104  1254  1256   ar
  2105  1872  1867    1
  2106  1804  1821    1
  2107  1695  1694    1
  2108  1017  1022   ar
  2109    47    45    1
  2110  1274  1273    1
  2111  1873  1874   ar
  2112    28    26    1
  2113    28    29    1
  2114  1253  1259   ar
  2115  2149  2148    1
  2116  1752  1753   ar
  2117  1691  1693    1
  2118  1691  1677    1
  2119  1691  1709    1
  2120   998  1004   ar
  2121   998   999   ar
  2122   919   912   ar
  2123  1693  1692    1
  2124  1328  1314    1
  2125  1328  1346    1
  2126  1864  1866    1
  2127   937   936    1
  2128  1793  1794   ar
  2129  1281  1282    1
  2130  1281  1280   ar
  2131   952   953   ar
  2132   952   957   ar
  2133    46    45    1
  2134    46    44    1
  2135  1020  1026   ar
  2136  1020  1021   ar
  2137  1515  1514    2
  2138  1014  1012    1
  2139  1801  1799    1
  2140  1876  1874   ar
  2141   993   991    1
  2142   993  1004    1
  2143   993   988    1
  2144   913   912   ar
  2145   913   914    2
  2146  1874  1875    1
  2147  1513  1514   ar
  2148  1513  1520   ar
  2149  1000   999   ar
  2150  1000  1001    2
  2151  1772  1773   ar
  2152  1714  1712    1
  2153  1279  1280   ar
  2154  1279  1285   ar
  2155    26    24    1
  2156    26    27    1
  2157   958   957    1
  2158  1010  1012    1
  2159  1010  1008    1
  2160  1866  1867    1
  2161  1733  1711    2
  2162  1696  1694    1
  2163  1696  1697    1
  2164  2150  2148    1
  2165    65    44    2
  2166  1311  1309    1
  2167  1717  1734    1
  2168  1026  1025   ar
  2169   953   954   ar
  2170   991   989    1
  2171  1291  1293    1
  2172  1291  1289    1
  2173   976   975    2
  2174   912   911    1
  2175  1004  1003   ar
  2176  1821  1839    2
  2177  1821  1840    1
  2178  1734  1754    1
  2179  1734  1736    1
  2180  1795  1794   ar
  2181  1795  1785    1
  2182   999  1002   ar
  2183   988   987    1
  2184  1747  1753   ar
  2185  1747  1746   ar
  2186  1514  1516   ar
  2187    24    22    1
  2188  1293  1294    1
  2189   957   956   ar
  2190  1767  1768    2
  2191  1767  1766   ar
  2192  1256  1257   ar
  2193  1713  1712    1
  2194  1713  1711    1
  2195   888   902    1
  2196  1280  1283   ar
  2197  1289  1290    1
  2198  1694  1692    1
  2199  1745  1746   ar
  2200   977   975   ar
  2201   977   978   ar
  2202  1273  1275    1
  2203  1273  1271    1
  2204   936   935   ar
  2205   936   938   ar
  2206  1520  1519   ar
  2207  1260  1259    2
  2208  1012  1013    1
  2209  1259  1258   ar
  2210  1753  1743    1
  2211  1022  1021   ar
  2212  1022  1023    1
  2213   935   933   ar
  2214    44    27    1
  2215    44    64    1
  2216  1013  1029    1
  2217  1294  1308    1
  2218  1275  1285    1
  2219  1275  1270    1
  2220  1021  1024   ar
  2221  1309  1310    1
  2222  1008  1009    1
  2223  1285  1284   ar
  2224   975   974   ar
  2225   979   978    1
  2226  1711  1697    1
  2227  1711  1732    1
  2228  1736  1735    1
  2229  1773  1766   ar
  2230  1785  1783    1
  2231  1785  1780    1
  2232   987   989    1
  2233   987   985    1
  2234  1799  1800    1
  2235   954   955   ar
  2236   911   906    1
  2237   911   909    1
  2238  1783  1784    1
  2239  1783  1781    1
  2240   906   905    1
  2241   989   990    1
  2242   978   980   ar
  2243  1003  1002   ar
  2244  1025  1024   ar
  2245  1766  1765    1
  2246   990  1007    1
  2247   938   939   ar
  2248   956   955   ar
  2249   956   959   ar
  2250  1257  1258   ar
  2251  1257  1263   ar
  2252   933   934    2
  2253   933   932   ar
  2254  1800  1798    1
  2255  1516  1517   ar
  2256  1272  1271    1
  2257  1272  1288    1
  2258  1258  1261   ar
  2259  1283  1284   ar
  2260  1030  1032    1
  2261  1030  1031    1
  2262  1009  1007    1
  2263  1290  1288    1
  2264  1738  1743    1
  2265  1738  1737    1
  2266  1271  1269    1
  2267  1519  1517   ar
  2268  1310  1308    1
  2269   955   961   ar
  2270   902   921    2
  2271   902   920    1
  2272   902   904    1
  2273  1270  1269    1
  2274  1743  1741    1
  2275  1049  1029    2
  2276  1308  1327    2
  2277  1308  1326    1
  2278   974   973    1
  2279   974   981   ar
  2280  1029  1031    1
  2281  1029  1050    1
  2282  1033  1032    1
  2283  1033  1038    1
  2284  1306  1288    2
  2285  1269  1267    1
  2286  1735  1737    1
  2287   985   986    1
  2288  1780  1779    1
  2289  1032  1034    1
  2290   939   932   ar
  2291   903   905    1
  2292   903   904    1
  2293   932   931    1
  2294   959   960   ar
  2295  1517  1518    2
  2296  1288  1307    1
  2297   973   971    1
  2298   973   968    1
  2299   972   971    1
  2300  1007  1027    2
  2301  1007  1028    1
  2302  1781  1782    1
  2303  1781  1779    1
  2304   971   969    1
  2305   905   907    1
  2306   980   981   ar
  2307   909   907    1
  2308   909   910    1
  2309  1765  1763    1
  2310  1765  1760    1
  2311  1775  1756    2
  2312  1263  1252    1
  2313  1263  1262   ar
  2314  1737  1739    1
  2315  1739  1741    1
  2316  1739  1740    1
  2317  1741  1742    1
  2318  1261  1262   ar
  2319   961   960   ar
  2320   961   951    1
  2321  1252  1247    1
  2322  1252  1250    1
  2323   986   984    1
  2324  1798  1782    1
  2325  1798  1820    2
  2326  1798  1819    1
  2327   907   908    1
  2328  1247  1246    1
  2329  1779  1777    1
  2330  1038  1048    1
  2331  1038  1036    1
  2332  1763  1761    1
  2333  1763  1764    1
  2334  1047  1048   ar
  2335  1047  1046   ar
  2336   931   926    1
  2337   931   929    1
  2338  1760  1759    1
  2339  1267  1268    1
  2340   968   967    1
  2341   951   949    1
  2342   951   946    1
  2343  1034  1035    1
  2344  1034  1036    1
  2345  1048  1042   ar
  2346  1246  1248    1
  2347  1246  1244    1
  2348   969   970    1
  2349   969   967    1
  2350  1778  1777    1
  2351  1778  1776    1
  2352  1249  1248    1
  2353  1249  1266    1
  2354   926   925    1
  2355  1758  1756    1
  2356  1758  1757    1
  2357  1756  1740    1
  2358  1756  1774    1
  2359  1046  1043   ar
  2360  1761  1759    1
  2361  1761  1762    1
  2362  1035  1051    1
  2363  1037  1036    1
  2364  1251  1250    1
  2365  1286  1266    2
  2366  1797  1776    2
  2367  1250  1248    1
  2368  1268  1266    1
  2369   970   984    1
  2370   949   950    1
  2371   949   947    1
  2372   908   922    1
  2373   941   922    2
  2374   984  1006    2
  2375   984  1005    1
  2376   929   930    1
  2377   929   927    1
  2378  1759  1757    1
  2379   967   965    1
  2380   946   945    1
  2381  1244  1245    1
  2382  1266  1287    1
  2383  1042  1043   ar
  2384  1042  1041   ar
  2385  1776  1762    1
  2386  1776  1796    1
  2387   924   922    1
  2388   924   923    1
  2389  1043  1044   ar
  2390   922   940    1
  2391  1071  1051    2
  2392  1051  1072    1
  2393  1051  1053    1
  2394   925   927    1
  2395   925   923    1
  2396   927   928    1
  2397  1041  1040   ar
  2398  1245  1243    1
  2399  1231  1230    1
  2400   947   945    1
  2401   947   948    1
  2402   965   966    1
  2403  1044  1045    1
  2404  1044  1039   ar
  2405   966   964    1
  2406  1235  1234    2
  2407   945   943    1
  2408  1230  1232    1
  2409  1230  1228    1
  2410  1040  1039   ar
  2411  1234  1236   ar
  2412  1234  1233   ar
  2413  1053  1052    1
  2414   944   943    1
  2415   944   942    1
  2416  1236  1237   ar
  2417  1232  1233    1
  2418  1232  1227    1
  2419   948   964    1
  2420  1052  1054    1
  2421   928   942    1
  2422   963   942    2
  2423  1233  1240   ar
  2424  1237  1238    2
  2425  1237  1239   ar
  2426  1068  1069   ar
  2427  1068  1065   ar
  2428  1243  1264    2
  2429  1243  1229    1
  2430  1243  1265    1
  2431  1069  1070   ar
  2432   964   982    2
  2433   964   983    1
  2434   942   962    1
  2435  1240  1239   ar
  2436  1055  1054    1
  2437  1055  1060    1
  2438  1229  1228    1
  2439  1228  1226    1
  2440  1054  1056    1
  2441  1161  1140    1
  2442  1227  1226    1
  2443  1218  1217    2
  2444  1067  1066    1
  2445  1065  1066   ar
  2446  1065  1064   ar
  2447  1070  1060    1
  2448  1070  1064   ar
  2449  1226  1224    1
  2450  1060  1058    1
  2451  1066  1061   ar
  2452  1216  1217   ar
  2453  1216  1214   ar
  2454  1064  1063   ar
  2455  1217  1219   ar
  2456  1056  1058    1
  2457  1056  1057    1
  2458  1140  1162    1
  2459  1140  1142    1
  2460  1198  1197    2
  2461  1215  1214    2
  2462  1214  1213   ar
  2463  1061  1062   ar
  2464  1058  1059    1
  2465  1095  1073    2
  2466  1063  1062   ar
  2467  1057  1073    1
  2468  1224  1225    1
  2469  1219  1220   ar
  2470  1142  1141    1
  2471  1178  1177    1
  2472  1225  1223    1
  2473  1197  1199   ar
  2474  1197  1196   ar
  2475  1242  1223    2
  2476  1158  1159   ar
  2477  1158  1155   ar
  2478  1073  1094    1
  2479  1073  1075    1
  2480  1213  1220   ar
  2481  1213  1212    1
  2482  1090  1089    2
  2483  1091  1092   ar
  2484  1091  1088   ar
  2485  1159  1160   ar
  2486  1157  1156    2
  2487  1199  1200   ar
  2488  1182  1163    2
  2489  1196  1194   ar
  2490  1223  1241    1
  2491  1223  1209    1
  2492  1210  1212    1
  2493  1210  1211    1
  2494  1210  1208    1
  2495  1141  1143    1
  2496  1092  1093   ar
  2497  1177  1179   ar
  2498  1177  1176   ar
  2499  1089  1088   ar
  2500  1089  1083   ar
  2501  1179  1180   ar
  2502  1155  1156   ar
  2503  1155  1154   ar
  2504  1088  1087   ar
  2505  1212  1207    1
  2506  1075  1074    1
  2507  1156  1150   ar
  2508  1208  1209    1
  2509  1208  1206    1
  2510  1111  1110    1
  2511  1200  1193   ar
  2512  1160  1154   ar
  2513  1160  1149    1
  2514  1163  1181    1
  2515  1163  1146    1
  2516  1163  1165    1
  2517  1194  1193   ar
  2518  1194  1195    2
  2519  1144  1143    1
  2520  1144  1149    1
  2521  1176  1174   ar
  2522  1143  1145    1
  2523  1093  1087   ar
  2524  1093  1082    1
  2525  1145  1146    1
  2526  1145  1147    1
  2527  1077  1082    1
  2528  1077  1076    1
  2529  1083  1084   ar
  2530  1087  1086   ar
  2531  1154  1153   ar
  2532  1074  1076    1
  2533  1180  1173   ar
  2534  1222  1203    2
  2535  1193  1192    1
  2536  1207  1206    1
  2537  1131  1130    2
  2538  1149  1147    1
  2539  1150  1151   ar
  2540  1202  1183    2
  2541  1110  1112   ar
  2542  1110  1109   ar
  2543  1205  1203    1
  2544  1205  1204    1
  2545  1165  1164    1
  2546  1206  1204    1
  2547  1082  1080    1
  2548  1076  1078    1
  2549  1147  1148    1
  2550  1174  1173   ar
  2551  1174  1175    2
  2552  1084  1086   ar
  2553  1084  1085    1
  2554  1112  1113   ar
  2555  1173  1172    1
  2556  1203  1221    1
  2557  1203  1189    1
  2558  1109  1107   ar
  2559  1153  1151   ar
  2560  1130  1129   ar
  2561  1130  1132   ar
  2562  1129  1127   ar
  2563  1151  1152    1
  2564  1192  1190    1
  2565  1192  1187    1
  2566  1190  1188    1
  2567  1190  1191    1
  2568  1185  1183    1
  2569  1185  1184    1
  2570  1188  1189    1
  2571  1188  1186    1
  2572  1078  1080    1
  2573  1078  1079    1
  2574  1183  1201    1
  2575  1183  1169    1
  2576  1080  1081    1
  2577  1164  1166    1
  2578  1187  1186    1
  2579  1115  1096    2
  2580  1113  1106   ar
  2581  1168  1166    1
  2582  1168  1169    1
  2583  1168  1170    1
  2584  1172  1167    1
  2585  1172  1170    1
  2586  1132  1133   ar
  2587  1107  1106   ar
  2588  1107  1108    2
  2589  1186  1184    1
  2590  1128  1127    2
  2591  1127  1126   ar
  2592  1167  1166    1
  2593  1170  1171    1
  2594  1079  1096    1
  2595  1106  1105    1
  2596  1096  1098    1
  2597  1096  1114    1
  2598  1133  1126   ar
  2599  1126  1125    1
  2600  1098  1097    1
  2601  1105  1100    1
  2602  1105  1103    1
  2603  1100  1099    1
  2604  1125  1123    1
  2605  1125  1120    1
  2606  1097  1099    1
  2607  1103  1101    1
  2608  1103  1104    1
  2609  1099  1101    1
  2610  1101  1102    1
  2611  1123  1124    1
  2612  1123  1121    1
  2613  1120  1119    1
  2614  1135  1116    2
  2615  1138  1136    2
  2616  1121  1119    1
  2617  1121  1122    1
  2618  1118  1116    1
  2619  1118  1117    1
  2620  1102  1116    1
  2621  1119  1117    1
  2622  1116  1134    1
  2623  1122  1136    1
  2624  1136  1137    1
  2625  1136  1139    1
